0:0:0
     RDKit          3D

 87 95  0  0  1  0  0  0  0  0999 V2000
  -27.4360  -24.2710   19.7530 C   0  0  0  0  0  2  0  0  0  0  0  0
  -28.1440  -23.5220   20.7860 C   0  0  0  0  0  3  0  0  0  0  0  0
  -28.0070  -25.1280   20.9010 C   0  0  0  0  0  3  0  0  0  0  0  0
  -29.0450  -21.1080   20.6590 C   0  0  0  0  0  3  0  0  0  0  0  0
  -29.2120  -22.4650   20.4430 C   0  0  0  0  0  3  0  0  0  0  0  0
  -29.9370  -19.8900   20.3720 C   0  0  0  0  0  0  0  0  0  0  0  0
  -31.2690  -20.1620   19.6830 C   0  0  0  0  0  1  0  0  0  0  0  0
  -29.5760  -18.6670   20.6860 N   0  0  0  0  0  0  0  0  0  0  0  0
  -30.4100  -17.4450   20.3660 C   0  0  0  0  0  3  0  0  0  0  0  0
  -29.8610  -16.0290   20.8900 C   0  0  0  0  0  3  0  0  0  0  0  0
  -30.6090  -14.6990   20.4290 C   0  0  0  0  0  0  0  0  0  0  0  0
  -30.3620  -12.4560   19.3620 C   0  0  0  0  0  2  0  0  0  0  0  0
  -29.4180  -12.5890   18.1470 C   0  0  0  0  0  2  0  0  0  0  0  0
  -27.9470  -12.4300   18.5820 C   0  0  0  0  0  2  0  0  0  0  0  0
  -27.5960  -13.3000   19.8170 C   0  0  0  0  0  3  0  0  0  0  0  0
  -28.6590  -13.1650   20.9300 C   0  0  0  0  0  2  0  0  0  0  0  0
  -29.9690  -13.4840   20.3500 N   0  0  0  0  0  0  0  0  0  0  0  0
  -31.7670  -14.8050   20.0160 O   0  0  0  0  0  0  0  0  0  0  0  0
  -25.2110  -13.9100   20.5480 C   0  0  0  0  0  0  0  0  0  0  0  0
  -24.1410  -13.1430   20.9210 C   0  0  0  0  0  0  0  0  0  0  0  0
  -24.5960  -11.7880   20.8910 C   0  0  0  0  0  0  0  0  0  0  0  0
  -26.2500  -13.0240   20.3110 N   0  0  0  0  0  0  0  0  0  0  0  0
  -25.8860  -11.7430   20.5790 N   0  0  0  0  0  0  0  0  0  0  0  0
  -23.8630  -10.5310   21.0830 C   0  0  0  0  0  0  0  0  0  0  0  0
  -24.3070   -9.5490   21.9980 C   0  0  0  0  0  3  0  0  0  0  0  0
  -23.5740   -8.3560   22.1780 C   0  0  0  0  0  3  0  0  0  0  0  0
  -22.3830   -8.1360   21.4460 C   0  0  0  0  0  0  0  0  0  0  0  0
  -21.9580   -9.1070   20.5200 C   0  0  0  0  0  3  0  0  0  0  0  0
  -22.6910  -10.2910   20.3370 C   0  0  0  0  0  3  0  0  0  0  0  0
  -21.6200   -6.9970   21.5380 O   0  0  0  0  0  0  0  0  0  0  0  0
  -21.6040   -6.2310   22.6760 C   0  0  0  0  0  0  0  0  0  0  0  0
  -21.2500   -6.7710   23.9320 C   0  0  0  0  0  3  0  0  0  0  0  0
  -21.1790   -5.9330   25.0630 C   0  0  0  0  0  3  0  0  0  0  0  0
  -21.4530   -4.5570   24.9400 C   0  0  0  0  0  0  0  0  0  0  0  0
  -21.8010   -4.0180   23.6890 C   0  0  0  0  0  3  0  0  0  0  0  0
  -21.8730   -4.8520   22.5600 C   0  0  0  0  0  0  0  0  0  0  0  0
  -22.1890   -4.3230   21.3530 F   0  0  0  0  0  0  0  0  0  0  0  0
  -21.3770   -3.7510   26.0250 F   0  0  0  0  0  0  0  0  0  0  0  0
  -22.7460  -13.6280   21.1960 C   0  0  0  0  0  0  0  0  0  0  0  0
  -22.0190  -12.9400   22.0690 N   0  0  0  0  0  0  0  0  0  0  0  0
  -22.3100  -14.6510   20.6710 O   0  0  0  0  0  0  0  0  0  0  0  0
  -22.3840  -12.1120   22.5160 H   0  0  0  0  0  0  0  0  0  0  0  0
  -21.0830  -13.2470   22.2960 H   0  0  0  0  0  0  0  0  0  0  0  0
  -25.3830  -15.2790   20.3710 N   0  0  0  0  0  0  0  0  0  0  0  0
  -24.6270  -15.9430   20.4880 H   0  0  0  0  0  0  0  0  0  0  0  0
  -26.2430  -15.7130   20.0570 H   0  0  0  0  0  0  0  0  0  0  0  0
  -28.2750  -26.3940   20.1480 O   0  0  0  0  0  0  0  0  0  0  0  0
  -24.6380  -31.8890   23.2010 C   0  0  0  0  0  0  0  0  0  0  0  0
  -27.2000  -27.3110   20.1110 C   0  0  0  0  0  0  0  0  0  0  0  0
  -23.4150  -30.4960   21.5730 C   0  0  0  0  0  3  0  0  0  0  0  0
  -24.8480  -28.9530   20.1270 C   0  0  0  0  0  0  0  0  0  0  0  0
  -25.9570  -30.8020   21.3700 C   0  0  0  0  0  2  0  0  0  0  0  0
  -26.0280  -29.4240   20.7210 C   0  0  0  0  0  0  0  0  0  0  0  0
  -27.2070  -28.6120   20.7110 C   0  0  0  0  0  3  0  0  0  0  0  0
  -26.0070  -26.9280   19.4580 C   0  0  0  0  0  3  0  0  0  0  0  0
  -24.8420  -27.7110   19.4850 C   0  0  0  0  0  3  0  0  0  0  0  0
  -23.6140  -29.8290   20.1890 C   0  0  0  0  0  2  0  0  0  0  0  0
  -24.6900  -31.0790   22.1040 N   0  0  0  0  0  0  0  0  0  0  0  0
  -23.5600  -32.1700   23.7440 O   0  0  0  0  0  0  0  0  0  0  0  0
  -22.7600  -29.4770   22.5360 C   0  0  0  0  0  0  0  0  0  0  0  0
  -21.4310  -29.3070   22.4240 N   0  0  0  0  0  0  0  0  0  0  0  0
  -23.4440  -28.8450   23.3440 O   0  0  0  0  0  0  0  0  0  0  0  0
  -20.9380  -29.8710   21.7460 H   0  0  0  0  0  0  0  0  0  0  0  0
  -18.0530  -28.1230   22.9560 C   0  0  0  0  0  0  0  0  0  0  0  0
  -20.6140  -28.3720   23.2010 C   0  0  0  0  0  3  0  0  0  0  0  0
  -20.7040  -26.9400   22.6250 C   0  0  0  0  0  2  0  0  0  0  0  0
  -19.5910  -26.6220   21.6220 C   0  0  0  0  0  2  0  0  0  0  0  0
  -18.2170  -26.7720   22.2790 C   0  0  0  0  0  2  0  0  0  0  0  0
  -19.1780  -28.8810   23.3740 C   0  0  0  0  0  0  0  0  0  0  0  0
  -18.9710  -30.1440   23.9680 C   0  0  0  0  0  3  0  0  0  0  0  0
  -17.6700  -30.6510   24.1460 C   0  0  0  0  0  3  0  0  0  0  0  0
  -16.5580  -29.8900   23.7440 C   0  0  0  0  0  3  0  0  0  0  0  0
  -16.7510  -28.6290   23.1540 C   0  0  0  0  0  3  0  0  0  0  0  0
  -25.9280  -32.5180   23.8100 C   0  0  0  0  0  3  0  0  0  0  0  0
  -26.4680  -31.7290   25.0660 C   0  0  1  0  0  0  0  0  0  0  0  0
  -25.3940  -31.4740   26.1480 C   0  0  0  0  0  1  0  0  0  0  0  0
  -27.0470  -30.3590   24.6440 C   0  0  0  0  0  1  0  0  0  0  0  0
  -27.6300  -32.5150   25.7170 C   0  0  0  0  0  1  0  0  0  0  0  0
  -25.6180  -33.9100   24.1670 N   0  0  0  0  0  0  0  0  0  0  0  0
  -25.9250  -34.9750   23.4160 C   0  0  0  0  0  0  0  0  0  0  0  0
  -26.5690  -34.8900   22.3670 O   0  0  0  0  0  0  0  0  0  0  0  0
  -25.0410  -34.0480   24.9840 H   0  0  0  0  0  0  0  0  0  0  0  0
  -24.1710  -36.7570   23.1370 C   0  0  0  0  0  1  0  0  0  0  0  0
  -25.4410  -36.3540   23.9050 C   0  0  0  0  0  3  0  0  0  0  0  0
  -27.5950  -37.2430   24.6750 C   0  0  0  0  0  1  0  0  0  0  0  0
  -26.4610  -37.4160   23.7720 N   0  0  0  0  0  0  0  0  0  0  0  0
  -26.0540  -38.3320   23.9470 H   0  0  0  0  0  0  0  0  0  0  0  0
  1  2  1  0
  1  3  1  0
  2  5  1  0
  2  3  1  0
  3 47  1  0
  5  4  2  0
  6  4  1  0
  6  8  2  0
  7  6  1  0
  9  8  1  0
  9 10  2  0
 11 10  1  0
 12 17  1  0
 13 14  1  0
 13 12  1  0
 15 14  1  0
 15 22  1  0
 15 16  1  0
 17 11  1  0
 17 16  1  0
 18 11  2  0
 19 20  2  0
 20 39  1  0
 21 20  1  0
 21 24  1  0
 22 19  1  0
 22 23  1  0
 23 21  2  0
 24 25  1  0
 25 26  2  0
 27 30  1  0
 27 26  1  0
 28 27  2  0
 29 28  1  0
 29 24  2  0
 30 31  1  0
 31 32  1  0
 32 33  2  0
 34 33  1  0
 34 38  1  0
 35 34  2  0
 36 31  2  0
 36 35  1  0
 37 36  1  0
 39 40  1  0
 40 43  1  0
 40 42  1  0
 41 39  2  0
 44 45  1  0
 44 19  1  0
 46 44  1  0
 48 59  2  0
 49 47  1  0
 49 54  1  0
 50 58  1  0
 50 60  1  0
 51 57  1  0
 51 53  1  0
 52 58  1  0
 53 52  1  0
 54 53  2  0
 55 56  1  0
 55 49  2  0
 56 51  2  0
 57 50  1  0
 58 48  1  0
 60 62  2  0
 61 60  1  0
 63 61  1  0
 64 73  2  0
 64 69  1  0
 65 61  1  0
 65 69  1  0
 66 65  1  0
 67 68  1  0
 67 66  1  0
 68 64  1  0
 69 70  2  0
 70 71  1  0
 72 71  2  0
 73 72  1  0
 74 48  1  0
 74 79  1  0
 74 75  1  0
 75 78  1  1
 75 76  1  0
 77 75  1  0
 79 82  1  0
 80 84  1  0
 80 79  1  0
 81 80  2  0
 84 83  1  0
 86 84  1  0
 86 87  1  0
 86 85  1  0
M  ISO  4   3 101  10 100  11 100  47 101
M  END
>  <TORSDO>  (1) 
F 20

>  <SCORE>  (1) 
-13.747

>  <name>  (1) 
0

>  <ligand_id>  (1) 
0

>  <original_smiles>  (1) 
[H]C(C(=NC([H])([H])C([H])([H])C(=O)N1C([H])([H])C([H])([H])C([H])([H])C([H])(n2nc(-c3c([H])c([H])c(Oc4c([H])c([H])c(F)c([H])c4F)c([H])c3[H])c(C(=O)N([H])[H])c2N([H])[H])C1([H])[H])C([H])([H])[H])=C([H])C1([H])C([H])([H])C1([H])Oc1c([H])c([H])c2c(c1[H])C([H])([H])N(C(=O)C([H])(N([H])C(=O)C([H])(N([H])C([H])([H])[H])C([H])([H])[H])C(C([H])([H])[H])(C([H])([H])[H])C([H])([H])[H])C([H])(C(=O)N([H])C1([H])c3c([H])c([H])c([H])c([H])c3C([H])([H])C([H])([H])C1([H])[H])C2([H])[H]

>  <smiles>  (1) 
[H]C(C(=NC([H])([H])C([H])([H])C(=O)N1C([H])([H])C([H])([H])C([H])([H])C([H])(n2nc(-c3c([H])c([H])c(Oc4c([H])c([H])c(F)c([H])c4F)c([H])c3[H])c(C(=O)N([H])[H])c2N([H])[H])C1([H])[H])C([H])([H])[H])=C([H])C1([H])C([H])([H])C1([H])Oc1c([H])c([H])c2c(c1[H])C([H])([H])N(C(=O)C([H])(N([H])C(=O)C([H])(N([H])C([H])([H])[H])C([H])([H])[H])C(C([H])([H])[H])(C([H])([H])[H])C([H])([H])[H])C([H])(C(=O)N([H])C1([H])c3c([H])c([H])c([H])c([H])c3C([H])([H])C([H])([H])C1([H])[H])C2([H])[H]

$$$$
1:0:0
     RDKit          3D

 88 96  0  0  1  0  0  0  0  0999 V2000
  -28.6430  -21.7060   19.9150 C   0  0  0  0  0  0  0  0  0  0  0  0
  -29.4570  -20.5480   20.1370 N   0  0  0  0  0  0  0  0  0  0  0  0
  -27.5310  -21.5150   19.4190 O   0  0  0  0  0  0  0  0  0  0  0  0
  -30.3590  -20.7680   20.5400 H   0  0  0  0  0  0  0  0  0  0  0  0
  -30.6240  -15.1130   19.9160 C   0  0  0  0  0  0  0  0  0  0  0  0
  -30.4220  -12.7640   18.9500 C   0  0  0  0  0  2  0  0  0  0  0  0
  -29.4270  -12.7030   17.7680 C   0  0  0  0  0  2  0  0  0  0  0  0
  -27.9910  -12.4740   18.2750 C   0  0  0  0  0  2  0  0  0  0  0  0
  -27.6450  -13.3850   19.4810 C   0  0  0  0  0  3  0  0  0  0  0  0
  -28.7640  -13.3990   20.5440 C   0  0  0  0  0  2  0  0  0  0  0  0
  -29.9850  -13.8620   19.8670 N   0  0  0  0  0  0  0  0  0  0  0  0
  -31.8050  -15.1160   19.5420 O   0  0  0  0  0  0  0  0  0  0  0  0
  -28.4820  -18.2280   21.0000 C   0  0  0  0  0  2  0  0  0  0  0  0
  -28.7100  -16.6750   20.8250 C   0  0  0  0  0  2  0  0  0  0  0  0
  -30.3960  -17.8310   19.7150 C   0  0  0  0  0  2  0  0  0  0  0  0
  -29.2290  -18.9840   19.8880 C   0  0  0  0  0  3  0  0  0  0  0  0
  -29.9480  -16.3820   20.0800 N   0  0  0  0  0  0  0  0  0  0  0  0
  -25.3130  -13.9470   20.3700 C   0  0  0  0  0  0  0  0  0  0  0  0
  -24.2740  -13.1670   20.7910 C   0  0  0  0  0  0  0  0  0  0  0  0
  -24.7330  -11.8170   20.7020 C   0  0  0  0  0  0  0  0  0  0  0  0
  -26.3420  -13.0750   20.0530 N   0  0  0  0  0  0  0  0  0  0  0  0
  -26.0050  -11.7860   20.3170 N   0  0  0  0  0  0  0  0  0  0  0  0
  -24.0150  -10.5530   20.8990 C   0  0  0  0  0  0  0  0  0  0  0  0
  -24.4390   -9.6040   21.8550 C   0  0  0  0  0  3  0  0  0  0  0  0
  -23.7170   -8.4050   22.0430 C   0  0  0  0  0  3  0  0  0  0  0  0
  -22.5570   -8.1470   21.2760 C   0  0  0  0  0  0  0  0  0  0  0  0
  -22.1500   -9.0860   20.3110 C   0  0  0  0  0  3  0  0  0  0  0  0
  -22.8720  -10.2760   20.1220 C   0  0  0  0  0  3  0  0  0  0  0  0
  -21.8060   -7.0010   21.3740 O   0  0  0  0  0  0  0  0  0  0  0  0
  -21.6590   -6.3360   22.5640 C   0  0  0  0  0  0  0  0  0  0  0  0
  -21.0910   -6.9550   23.6990 C   0  0  0  0  0  3  0  0  0  0  0  0
  -20.8970   -6.2140   24.8820 C   0  0  0  0  0  3  0  0  0  0  0  0
  -21.2590   -4.8550   24.9280 C   0  0  0  0  0  0  0  0  0  0  0  0
  -21.8200   -4.2350   23.7980 C   0  0  0  0  0  3  0  0  0  0  0  0
  -22.0160   -4.9730   22.6180 C   0  0  0  0  0  0  0  0  0  0  0  0
  -22.5370   -4.3680   21.5240 F   0  0  0  0  0  0  0  0  0  0  0  0
  -21.0640   -4.1400   26.0610 F   0  0  0  0  0  0  0  0  0  0  0  0
  -22.8970  -13.6410   21.1510 C   0  0  0  0  0  0  0  0  0  0  0  0
  -22.2210  -12.9350   22.0500 N   0  0  0  0  0  0  0  0  0  0  0  0
  -22.4320  -14.6740   20.6680 O   0  0  0  0  0  0  0  0  0  0  0  0
  -22.6120  -12.1000   22.4610 H   0  0  0  0  0  0  0  0  0  0  0  0
  -21.3000  -13.2350   22.3310 H   0  0  0  0  0  0  0  0  0  0  0  0
  -25.4530  -15.3190   20.2020 N   0  0  0  0  0  0  0  0  0  0  0  0
  -24.6780  -15.9560   20.3450 H   0  0  0  0  0  0  0  0  0  0  0  0
  -26.2530  -15.7630   19.7700 H   0  0  0  0  0  0  0  0  0  0  0  0
  -29.0120  -23.3050   20.2500 C   0  0  0  0  0  3  0  0  0  0  0  0
  -28.0220  -24.6680   19.9540 C   0  0  0  0  0  3  0  0  0  0  0  0
  -28.2840  -26.1950   20.2410 O   0  0  0  0  0  0  0  0  0  0  0  0
  -24.6780  -31.8770   23.3080 C   0  0  0  0  0  0  0  0  0  0  0  0
  -27.2450  -27.2050   20.1760 C   0  0  0  0  0  0  0  0  0  0  0  0
  -23.4820  -30.5250   21.6320 C   0  0  0  0  0  3  0  0  0  0  0  0
  -24.9310  -28.9800   20.1720 C   0  0  0  0  0  0  0  0  0  0  0  0
  -26.0400  -30.7800   21.4840 C   0  0  0  0  0  2  0  0  0  0  0  0
  -26.1100  -29.4020   20.7970 C   0  0  0  0  0  0  0  0  0  0  0  0
  -27.2680  -28.5320   20.7810 C   0  0  0  0  0  3  0  0  0  0  0  0
  -26.0420  -26.8970   19.5050 C   0  0  0  0  0  3  0  0  0  0  0  0
  -24.9100  -27.7430   19.5090 C   0  0  0  0  0  3  0  0  0  0  0  0
  -23.7080  -29.8850   20.2370 C   0  0  0  0  0  2  0  0  0  0  0  0
  -24.7540  -31.0800   22.1980 N   0  0  0  0  0  0  0  0  0  0  0  0
  -23.5900  -32.1530   23.8370 O   0  0  0  0  0  0  0  0  0  0  0  0
  -22.7950  -29.4980   22.5670 C   0  0  0  0  0  0  0  0  0  0  0  0
  -21.4680  -29.3260   22.4220 N   0  0  0  0  0  0  0  0  0  0  0  0
  -23.4580  -28.8570   23.3860 O   0  0  0  0  0  0  0  0  0  0  0  0
  -20.9870  -29.8930   21.7370 H   0  0  0  0  0  0  0  0  0  0  0  0
  -18.0820  -28.1160   22.8770 C   0  0  0  0  0  0  0  0  0  0  0  0
  -20.6390  -28.3720   23.1660 C   0  0  0  0  0  3  0  0  0  0  0  0
  -20.7450  -26.9530   22.5590 C   0  0  0  0  0  2  0  0  0  0  0  0
  -19.6500  -26.6530   21.5310 C   0  0  0  0  0  2  0  0  0  0  0  0
  -18.2640  -26.7840   22.1690 C   0  0  0  0  0  2  0  0  0  0  0  0
  -19.1970  -28.8690   23.3310 C   0  0  0  0  0  0  0  0  0  0  0  0
  -18.9740  -30.1160   23.9540 C   0  0  0  0  0  3  0  0  0  0  0  0
  -17.6670  -30.6090   24.1270 C   0  0  0  0  0  3  0  0  0  0  0  0
  -16.5660  -29.8550   23.6880 C   0  0  0  0  0  3  0  0  0  0  0  0
  -16.7740  -28.6080   23.0690 C   0  0  0  0  0  3  0  0  0  0  0  0
  -25.9550  -32.4960   23.9560 C   0  0  0  0  0  3  0  0  0  0  0  0
  -25.6520  -33.8970   24.2940 N   0  0  0  0  0  0  0  0  0  0  0  0
  -25.9680  -34.9530   23.5330 C   0  0  0  0  0  0  0  0  0  0  0  0
  -26.6120  -34.8510   22.4850 O   0  0  0  0  0  0  0  0  0  0  0  0
  -25.0800  -34.0510   25.1130 H   0  0  0  0  0  0  0  0  0  0  0  0
  -24.2190  -36.7420   23.2560 C   0  0  0  0  0  1  0  0  0  0  0  0
  -25.5000  -36.3430   24.0090 C   0  0  0  0  0  3  0  0  0  0  0  0
  -27.6630  -37.2460   24.7420 C   0  0  0  0  0  1  0  0  0  0  0  0
  -26.5230  -37.3990   23.8420 N   0  0  0  0  0  0  0  0  0  0  0  0
  -26.1190  -38.3190   23.9950 H   0  0  0  0  0  0  0  0  0  0  0  0
  -26.4380  -31.7130   25.2390 C   0  0  1  0  0  0  0  0  0  0  0  0
  -25.3230  -31.4820   26.2840 C   0  0  0  0  0  1  0  0  0  0  0  0
  -27.0130  -30.3300   24.8570 C   0  0  0  0  0  1  0  0  0  0  0  0
  -27.5840  -32.4920   25.9280 C   0  0  0  0  0  1  0  0  0  0  0  0
  1  2  1  0
  1 46  1  0
  2  4  1  0
  3  1  2  0
  5 17  1  0
  6 11  1  0
  7  8  1  0
  7  6  1  0
  9  8  1  0
  9 21  1  0
  9 10  1  0
 11  5  1  0
 11 10  1  0
 12  5  2  0
 14 13  1  0
 15 16  1  0
 15 17  1  0
 16  2  1  0
 16 13  1  0
 17 14  1  0
 18 19  2  0
 19 38  1  0
 20 19  1  0
 20 23  1  0
 21 22  1  0
 21 18  1  0
 22 20  2  0
 23 24  1  0
 24 25  2  0
 26 29  1  0
 26 25  1  0
 27 26  2  0
 28 27  1  0
 28 23  2  0
 29 30  1  0
 30 35  2  0
 30 31  1  0
 31 32  2  0
 32 33  1  0
 33 37  1  0
 34 33  2  0
 35 34  1  0
 36 35  1  0
 38 39  1  0
 39 42  1  0
 39 41  1  0
 40 38  2  0
 43 44  1  0
 43 18  1  0
 45 43  1  0
 47 48  1  0
 47 46  2  0
 49 60  2  0
 50 48  1  0
 50 55  1  0
 51 59  1  0
 51 61  1  0
 52 58  1  0
 52 54  1  0
 53 59  1  0
 54 53  1  0
 55 54  2  0
 56 57  1  0
 56 50  2  0
 57 52  2  0
 58 51  1  0
 59 49  1  0
 61 63  2  0
 62 61  1  0
 64 62  1  0
 65 74  2  0
 65 70  1  0
 66 62  1  0
 66 70  1  0
 67 66  1  0
 68 69  1  0
 68 67  1  0
 69 65  1  0
 70 71  2  0
 71 72  1  0
 73 72  2  0
 74 73  1  0
 75 49  1  0
 75 76  1  0
 75 85  1  0
 76 79  1  0
 77 81  1  0
 77 76  1  0
 78 77  2  0
 81 80  1  0
 83 84  1  0
 83 81  1  0
 83 82  1  0
 85 88  1  1
 85 86  1  0
 87 85  1  0
M  ISO  4   5 100  17 100  47 101  48 101
M  END
>  <TORSDO>  (2) 
F 18

>  <SCORE>  (2) 
-14.715

>  <name>  (2) 
1

>  <ligand_id>  (2) 
1

>  <original_smiles>  (2) 
[H]c1c([H])c([H])c2c(c1[H])C([H])([H])C([H])([H])C([H])([H])C2([H])N([H])C(=O)C1([H])N(C(=O)C([H])(N([H])C(=O)C([H])(N([H])C([H])([H])[H])C([H])([H])[H])C(C([H])([H])[H])(C([H])([H])[H])C([H])([H])[H])C([H])([H])c2c([H])c(OC([H])([H])C([H])([H])C(=O)N([H])C3([H])C([H])([H])N(C(=O)N4C([H])([H])C([H])([H])C([H])([H])C([H])(n5nc(-c6c([H])c([H])c(Oc7c([H])c([H])c(F)c([H])c7F)c([H])c6[H])c(C(=O)N([H])[H])c5N([H])[H])C4([H])[H])C([H])([H])C3([H])[H])c([H])c([H])c2C1([H])[H]

>  <smiles>  (2) 
[H]c1c([H])c([H])c2c(c1[H])C([H])([H])C([H])([H])C([H])([H])C2([H])N([H])C(=O)C1([H])N(C(=O)C([H])(N([H])C(=O)C([H])(N([H])C([H])([H])[H])C([H])([H])[H])C(C([H])([H])[H])(C([H])([H])[H])C([H])([H])[H])C([H])([H])c2c([H])c(OC([H])([H])C([H])([H])C(=O)N([H])C3([H])C([H])([H])N(C(=O)N4C([H])([H])C([H])([H])C([H])([H])C([H])(n5nc(-c6c([H])c([H])c(Oc7c([H])c([H])c(F)c([H])c7F)c([H])c6[H])c(C(=O)N([H])[H])c5N([H])[H])C4([H])[H])C([H])([H])C3([H])[H])c([H])c([H])c2C1([H])[H]

$$$$
2:0:0
     RDKit          3D

 89 98  0  0  1  0  0  0  0  0999 V2000
  -27.7470  -22.2820   20.8430 C   0  0  0  0  0  2  0  0  0  0  0  0
  -28.7680  -23.3720   20.6230 C   0  0  0  0  0  3  0  0  0  0  0  0
  -28.9630  -21.7560   20.1340 C   0  0  2  0  0  0  0  0  0  0  0  0
  -28.9110  -21.5700   18.6320 C   0  0  0  0  0  1  0  0  0  0  0  0
  -30.0210  -19.1100   20.8900 C   0  0  0  0  0  3  0  0  0  0  0  0
  -29.5620  -20.4670   20.9220 C   0  0  0  0  0  3  0  0  0  0  0  0
  -30.5660  -15.0760   20.1860 C   0  0  0  0  0  0  0  0  0  0  0  0
  -30.3890  -12.7020   19.2850 C   0  0  0  0  0  2  0  0  0  0  0  0
  -29.4270  -12.5900   18.0780 C   0  0  0  0  0  2  0  0  0  0  0  0
  -27.9860  -12.3240   18.5540 C   0  0  0  0  0  2  0  0  0  0  0  0
  -27.5610  -13.2690   19.7000 C   0  0  0  0  0  3  0  0  0  0  0  0
  -28.6550  -13.4130   20.7930 C   0  0  0  0  0  2  0  0  0  0  0  0
  -29.9150  -13.8300   20.1420 N   0  0  0  0  0  0  0  0  0  0  0  0
  -31.7900  -15.0530   20.0100 O   0  0  0  0  0  0  0  0  0  0  0  0
  -28.2880  -17.6690   18.8060 C   0  0  0  0  0  2  0  0  0  0  0  0
  -29.6980  -18.1290   18.5430 C   0  0  0  0  0  2  0  0  0  0  0  0
  -28.5410  -16.3550   19.5380 C   0  0  0  0  0  2  0  0  0  0  0  0
  -30.3220  -17.8370   19.8990 C   0  0  0  0  0  3  0  0  0  0  0  0
  -29.8610  -16.3430   20.1760 N   0  0  0  0  0  0  0  0  0  0  0  0
  -25.2050  -13.8880   20.4760 C   0  0  0  0  0  0  0  0  0  0  0  0
  -24.1430  -13.1220   20.8640 C   0  0  0  0  0  0  0  0  0  0  0  0
  -24.6050  -11.7710   20.8310 C   0  0  0  0  0  0  0  0  0  0  0  0
  -26.2420  -12.9960   20.2340 N   0  0  0  0  0  0  0  0  0  0  0  0
  -25.8920  -11.7200   20.5140 N   0  0  0  0  0  0  0  0  0  0  0  0
  -23.8830  -10.5150   21.0280 C   0  0  0  0  0  0  0  0  0  0  0  0
  -24.3320   -9.5470   21.9510 C   0  0  0  0  0  3  0  0  0  0  0  0
  -23.6090   -8.3500   22.1350 C   0  0  0  0  0  3  0  0  0  0  0  0
  -22.4240   -8.1160   21.3980 C   0  0  0  0  0  0  0  0  0  0  0  0
  -21.9970   -9.0740   20.4620 C   0  0  0  0  0  3  0  0  0  0  0  0
  -22.7200  -10.2630   20.2750 C   0  0  0  0  0  3  0  0  0  0  0  0
  -21.6710   -6.9700   21.4940 O   0  0  0  0  0  0  0  0  0  0  0  0
  -21.6470   -6.2250   22.6440 C   0  0  0  0  0  0  0  0  0  0  0  0
  -21.2510   -6.7750   23.8830 C   0  0  0  0  0  3  0  0  0  0  0  0
  -21.1720   -5.9540   25.0260 C   0  0  0  0  0  3  0  0  0  0  0  0
  -21.4810   -4.5840   24.9320 C   0  0  0  0  0  0  0  0  0  0  0  0
  -21.8710   -4.0330   23.6980 C   0  0  0  0  0  3  0  0  0  0  0  0
  -21.9520   -4.8510   22.5580 C   0  0  0  0  0  0  0  0  0  0  0  0
  -22.3080   -4.3120   21.3670 F   0  0  0  0  0  0  0  0  0  0  0  0
  -21.4010   -3.7940   26.0270 F   0  0  0  0  0  0  0  0  0  0  0  0
  -22.7520  -13.6070   21.1450 C   0  0  0  0  0  0  0  0  0  0  0  0
  -22.0270  -12.9190   22.0190 N   0  0  0  0  0  0  0  0  0  0  0  0
  -22.3120  -14.6340   20.6250 O   0  0  0  0  0  0  0  0  0  0  0  0
  -22.3930  -12.0920   22.4660 H   0  0  0  0  0  0  0  0  0  0  0  0
  -21.0970  -13.2320   22.2560 H   0  0  0  0  0  0  0  0  0  0  0  0
  -25.3450  -15.2580   20.2830 N   0  0  0  0  0  0  0  0  0  0  0  0
  -24.5650  -15.8950   20.4000 H   0  0  0  0  0  0  0  0  0  0  0  0
  -26.1610  -15.7020   19.8870 H   0  0  0  0  0  0  0  0  0  0  0  0
  -28.0440  -24.7390   19.9940 C   0  0  0  0  0  2  0  0  0  0  0  0
  -28.2480  -26.2450   20.3110 O   0  0  0  0  0  0  0  0  0  0  0  0
  -24.5990  -31.9000   23.2440 C   0  0  0  0  0  0  0  0  0  0  0  0
  -27.1810  -27.2120   20.2080 C   0  0  0  0  0  0  0  0  0  0  0  0
  -23.3900  -30.5000   21.6100 C   0  0  0  0  0  3  0  0  0  0  0  0
  -24.8390  -28.9320   20.1780 C   0  0  0  0  0  0  0  0  0  0  0  0
  -25.9410  -30.7770   21.4340 C   0  0  0  0  0  2  0  0  0  0  0  0
  -26.0150  -29.3880   20.7830 C   0  0  0  0  0  0  0  0  0  0  0  0
  -27.1850  -28.5410   20.7880 C   0  0  0  0  0  3  0  0  0  0  0  0
  -25.9860  -26.8650   19.5370 C   0  0  0  0  0  3  0  0  0  0  0  0
  -24.8360  -27.6840   19.5350 C   0  0  0  0  0  3  0  0  0  0  0  0
  -23.6060  -29.8210   20.2320 C   0  0  0  0  0  2  0  0  0  0  0  0
  -24.6620  -31.0800   22.1510 N   0  0  0  0  0  0  0  0  0  0  0  0
  -23.5160  -32.1860   23.7760 O   0  0  0  0  0  0  0  0  0  0  0  0
  -22.7170  -29.4960   22.5790 C   0  0  0  0  0  0  0  0  0  0  0  0
  -21.3890  -29.3200   22.4560 N   0  0  0  0  0  0  0  0  0  0  0  0
  -23.3910  -28.8760   23.4060 O   0  0  0  0  0  0  0  0  0  0  0  0
  -20.8990  -29.8770   21.7700 H   0  0  0  0  0  0  0  0  0  0  0  0
  -18.0140  -28.0970   22.9500 C   0  0  0  0  0  0  0  0  0  0  0  0
  -20.5700  -28.3830   23.2290 C   0  0  0  0  0  3  0  0  0  0  0  0
  -20.6860  -26.9450   22.6670 C   0  0  0  0  0  2  0  0  0  0  0  0
  -19.5920  -26.6040   21.6500 C   0  0  0  0  0  2  0  0  0  0  0  0
  -18.2060  -26.7440   22.2860 C   0  0  0  0  0  2  0  0  0  0  0  0
  -19.1240  -28.8730   23.3780 C   0  0  0  0  0  0  0  0  0  0  0  0
  -18.8910  -30.1390   23.9590 C   0  0  0  0  0  3  0  0  0  0  0  0
  -17.5810  -30.6310   24.1100 C   0  0  0  0  0  3  0  0  0  0  0  0
  -16.4850  -29.8520   23.6960 C   0  0  0  0  0  3  0  0  0  0  0  0
  -16.7040  -28.5860   23.1230 C   0  0  0  0  0  3  0  0  0  0  0  0
  -25.8820  -32.5330   23.8650 C   0  0  0  0  0  3  0  0  0  0  0  0
  -25.5760  -33.9360   24.1920 N   0  0  0  0  0  0  0  0  0  0  0  0
  -25.9110  -34.9880   23.4320 C   0  0  0  0  0  0  0  0  0  0  0  0
  -26.5760  -34.8790   22.3970 O   0  0  0  0  0  0  0  0  0  0  0  0
  -24.9850  -34.0930   24.9940 H   0  0  0  0  0  0  0  0  0  0  0  0
  -24.1880  -36.7890   23.0890 C   0  0  0  0  0  1  0  0  0  0  0  0
  -25.4330  -36.3780   23.8920 C   0  0  0  0  0  3  0  0  0  0  0  0
  -27.5780  -37.2560   24.7070 C   0  0  0  0  0  1  0  0  0  0  0  0
  -26.4690  -37.4280   23.7710 N   0  0  0  0  0  0  0  0  0  0  0  0
  -26.0670  -38.3480   23.9210 H   0  0  0  0  0  0  0  0  0  0  0  0
  -26.3940  -31.7690   25.1470 C   0  0  1  0  0  0  0  0  0  0  0  0
  -25.3020  -31.5460   26.2180 C   0  0  0  0  0  1  0  0  0  0  0  0
  -26.9680  -30.3830   24.7690 C   0  0  0  0  0  1  0  0  0  0  0  0
  -27.5470  -32.5620   25.8050 C   0  0  0  0  0  1  0  0  0  0  0  0
  2 48  1  0
  2  1  1  0
  3  4  1  6
  3  2  1  0
  3  1  1  0
  3  6  1  0
  5  6  2  0
  8 13  1  0
  9 10  1  0
  9  8  1  0
 11 10  1  0
 11 23  1  0
 11 12  1  0
 13  7  1  0
 13 12  1  0
 14  7  2  0
 15 17  1  0
 16 15  1  0
 16 18  1  0
 17 19  1  0
 18 19  1  0
 18  5  1  0
 19  7  1  0
 20 21  2  0
 21 40  1  0
 22 21  1  0
 22 25  1  0
 23 20  1  0
 23 24  1  0
 24 22  2  0
 25 26  1  0
 26 27  2  0
 28 31  1  0
 28 27  1  0
 29 28  2  0
 30 29  1  0
 30 25  2  0
 31 32  1  0
 32 33  1  0
 33 34  2  0
 35 34  1  0
 35 39  1  0
 36 35  2  0
 37 32  2  0
 37 36  1  0
 38 37  1  0
 40 41  1  0
 41 44  1  0
 41 43  1  0
 42 40  2  0
 45 46  1  0
 45 20  1  0
 47 45  1  0
 48 49  1  0
 50 61  2  0
 51 49  1  0
 51 56  1  0
 52 60  1  0
 52 62  1  0
 53 59  1  0
 53 55  1  0
 54 60  1  0
 55 56  2  0
 55 54  1  0
 57 51  2  0
 58 57  1  0
 58 53  2  0
 59 52  1  0
 60 50  1  0
 62 64  2  0
 63 62  1  0
 65 63  1  0
 66 75  2  0
 66 71  1  0
 67 63  1  0
 67 71  1  0
 68 67  1  0
 69 70  1  0
 69 68  1  0
 70 66  1  0
 71 72  2  0
 72 73  1  0
 74 73  2  0
 75 74  1  0
 76 50  1  0
 76 77  1  0
 76 86  1  0
 77 80  1  0
 78 82  1  0
 78 77  1  0
 79 78  2  0
 82 81  1  0
 84 82  1  0
 84 85  1  0
 84 83  1  0
 86 89  1  1
 86 87  1  0
 88 86  1  0
M  ISO  4   7 100  19 100  48 101  49 101
M  END
>  <TORSDO>  (3) 
F 18

>  <SCORE>  (3) 
-14.862

>  <name>  (3) 
2

>  <ligand_id>  (3) 
2

>  <original_smiles>  (3) 
[H]C(=C([H])C1(C([H])([H])[H])C([H])([H])C1([H])C([H])([H])Oc1c([H])c([H])c2c(c1[H])C([H])([H])N(C(=O)C([H])(N([H])C(=O)C([H])(N([H])C([H])([H])[H])C([H])([H])[H])C(C([H])([H])[H])(C([H])([H])[H])C([H])([H])[H])C([H])(C(=O)N([H])C1([H])c3c([H])c([H])c([H])c([H])c3C([H])([H])C([H])([H])C1([H])[H])C2([H])[H])C1([H])N(C(=O)N2C([H])([H])C([H])([H])C([H])([H])C([H])(n3nc(-c4c([H])c([H])c(Oc5c([H])c([H])c(F)c([H])c5F)c([H])c4[H])c(C(=O)N([H])[H])c3N([H])[H])C2([H])[H])C([H])([H])C([H])([H])C1([H])[H]

>  <smiles>  (3) 
[H]C(=C([H])C1(C([H])([H])[H])C([H])([H])C1([H])C([H])([H])Oc1c([H])c([H])c2c(c1[H])C([H])([H])N(C(=O)C([H])(N([H])C(=O)C([H])(N([H])C([H])([H])[H])C([H])([H])[H])C(C([H])([H])[H])(C([H])([H])[H])C([H])([H])[H])C([H])(C(=O)N([H])C1([H])c3c([H])c([H])c([H])c([H])c3C([H])([H])C([H])([H])C1([H])[H])C2([H])[H])C1([H])N(C(=O)N2C([H])([H])C([H])([H])C([H])([H])C([H])(n3nc(-c4c([H])c([H])c(Oc5c([H])c([H])c(F)c([H])c5F)c([H])c4[H])c(C(=O)N([H])[H])c3N([H])[H])C2([H])[H])C([H])([H])C([H])([H])C1([H])[H]

$$$$
4:0:0
     RDKit          3D

 98107  0  0  1  0  0  0  0  0999 V2000
  -30.3480  -17.5760   20.9250 C   0  0  0  0  0  0  0  0  0  0  0  0
  -31.6490  -18.8540   22.6420 C   0  0  0  0  0  2  0  0  0  0  0  0
  -31.1110  -19.9560   20.5200 C   0  0  0  0  0  3  0  0  0  0  0  0
  -32.3980  -20.1720   22.5900 C   0  0  0  0  0  3  0  0  0  0  0  0
  -32.1450  -20.8160   21.2760 C   0  0  0  0  0  3  0  0  0  0  0  0
  -33.5540  -20.3800   21.6270 C   0  0  1  0  0  0  0  0  0  0  0  0
  -34.5910  -21.4370   21.9540 C   0  0  0  0  0  1  0  0  0  0  0  0
  -34.2180  -19.2000   20.9270 C   0  0  0  0  0  1  0  0  0  0  0  0
  -30.9440  -18.7250   21.3540 N   0  0  0  0  0  0  0  0  0  0  0  0
  -29.7930  -17.5120   19.8240 O   0  0  0  0  0  0  0  0  0  0  0  0
  -29.8220  -20.8080   20.3570 C   0  0  0  0  0  0  0  0  0  0  0  0
  -29.9530  -22.0070   19.7490 N   0  0  0  0  0  0  0  0  0  0  0  0
  -28.7410  -20.4100   20.7960 O   0  0  0  0  0  0  0  0  0  0  0  0
  -30.8820  -22.2400   19.4190 H   0  0  0  0  0  0  0  0  0  0  0  0
  -28.8990  -23.0030   19.4800 C   0  0  0  0  0  2  0  0  0  0  0  0
  -28.9510  -24.2630   20.3980 C   0  0  0  0  0  2  0  0  0  0  0  0
  -29.2740  -25.5930   19.6680 C   0  0  0  0  0  2  0  0  0  0  0  0
  -28.9840  -26.7680   20.4510 O   0  0  0  0  0  0  0  0  0  0  0  0
  -24.7260  -31.7290   23.2980 C   0  0  0  0  0  0  0  0  0  0  0  0
  -27.7640  -27.4190   20.3570 C   0  0  0  0  0  0  0  0  0  0  0  0
  -23.7090  -30.3300   21.5300 C   0  0  0  0  0  3  0  0  0  0  0  0
  -25.3230  -28.8610   20.2050 C   0  0  0  0  0  0  0  0  0  0  0  0
  -26.2320  -30.7540   21.5640 C   0  0  0  0  0  2  0  0  0  0  0  0
  -26.4080  -29.4000   20.9050 C   0  0  0  0  0  0  0  0  0  0  0  0
  -27.6240  -28.6810   20.9840 C   0  0  0  0  0  3  0  0  0  0  0  0
  -26.6500  -26.8890   19.6650 C   0  0  0  0  0  3  0  0  0  0  0  0
  -25.4380  -27.6040   19.5870 C   0  0  0  0  0  3  0  0  0  0  0  0
  -24.0550  -29.6840   20.1600 C   0  0  0  0  0  2  0  0  0  0  0  0
  -24.9030  -30.9540   22.1900 N   0  0  0  0  0  0  0  0  0  0  0  0
  -23.5960  -31.9600   23.7470 O   0  0  0  0  0  0  0  0  0  0  0  0
  -23.0080  -29.2730   22.4110 C   0  0  0  0  0  0  0  0  0  0  0  0
  -21.6850  -29.1220   22.2240 N   0  0  0  0  0  0  0  0  0  0  0  0
  -23.6500  -28.5940   23.2150 O   0  0  0  0  0  0  0  0  0  0  0  0
  -21.2330  -29.7180   21.5440 H   0  0  0  0  0  0  0  0  0  0  0  0
  -18.2570  -28.0620   22.6440 C   0  0  0  0  0  0  0  0  0  0  0  0
  -20.8260  -28.1610   22.9110 C   0  0  0  0  0  3  0  0  0  0  0  0
  -20.8510  -26.7870   22.2010 C   0  0  0  0  0  2  0  0  0  0  0  0
  -19.7280  -26.6200   21.1740 C   0  0  0  0  0  2  0  0  0  0  0  0
  -18.3580  -26.7750   21.8420 C   0  0  0  0  0  2  0  0  0  0  0  0
  -19.4150  -28.7200   23.1320 C   0  0  0  0  0  0  0  0  0  0  0  0
  -19.2690  -29.9320   23.8410 C   0  0  0  0  0  3  0  0  0  0  0  0
  -17.9930  -30.4840   24.0660 C   0  0  0  0  0  3  0  0  0  0  0  0
  -16.8490  -29.8200   23.5960 C   0  0  0  0  0  3  0  0  0  0  0  0
  -16.9800  -28.6100   22.8910 C   0  0  0  0  0  3  0  0  0  0  0  0
  -25.9370  -32.3810   24.0390 C   0  0  0  0  0  3  0  0  0  0  0  0
  -25.5720  -33.7730   24.3410 N   0  0  0  0  0  0  0  0  0  0  0  0
  -25.9250  -34.8300   23.5990 C   0  0  0  0  0  0  0  0  0  0  0  0
  -26.6630  -34.7410   22.6130 O   0  0  0  0  0  0  0  0  0  0  0  0
  -24.9270  -33.9140   25.1050 H   0  0  0  0  0  0  0  0  0  0  0  0
  -24.1620  -36.5610   23.1400 C   0  0  0  0  0  1  0  0  0  0  0  0
  -25.3740  -36.2080   24.0160 C   0  0  0  0  0  3  0  0  0  0  0  0
  -27.4280  -37.1740   24.9490 C   0  0  0  0  0  1  0  0  0  0  0  0
  -26.3780  -37.2910   23.9410 N   0  0  0  0  0  0  0  0  0  0  0  0
  -25.9350  -38.2010   24.0480 H   0  0  0  0  0  0  0  0  0  0  0  0
  -26.3450  -31.6150   25.3560 C   0  0  1  0  0  0  0  0  0  0  0  0
  -25.1580  -31.3370   26.3060 C   0  0  0  0  0  1  0  0  0  0  0  0
  -27.0060  -30.2590   25.0170 C   0  0  0  0  0  1  0  0  0  0  0  0
  -27.3980  -32.4380   26.1360 C   0  0  0  0  0  1  0  0  0  0  0  0
  -31.7740  -15.9370   22.4340 C   0  0  0  0  0  1  0  0  0  0  0  0
  -30.3930  -16.2890   21.8110 C   0  0  0  0  0  3  0  0  0  0  0  0
  -30.2660  -14.3030   20.2200 C   0  0  0  0  0  0  0  0  0  0  0  0
  -29.9060  -12.2460   18.8950 C   0  0  0  0  0  2  0  0  0  0  0  0
  -28.8380  -12.4850   17.8100 C   0  0  0  0  0  2  0  0  0  0  0  0
  -27.4210  -12.2500   18.3720 C   0  0  0  0  0  2  0  0  0  0  0  0
  -27.1820  -12.9910   19.7140 C   0  0  0  0  0  3  0  0  0  0  0  0
  -28.3460  -12.7300   20.6950 C   0  0  0  0  0  2  0  0  0  0  0  0
  -29.5990  -13.1320   20.0290 N   0  0  0  0  0  0  0  0  0  0  0  0
  -31.2570  -14.6220   19.5570 O   0  0  0  0  0  0  0  0  0  0  0  0
  -29.7750  -15.0930   21.1920 N   0  0  0  0  0  0  0  0  0  0  0  0
  -28.9180  -14.7710   21.6160 H   0  0  0  0  0  0  0  0  0  0  0  0
  -24.8440  -13.4560   20.6890 C   0  0  0  0  0  0  0  0  0  0  0  0
  -23.8480  -12.6200   21.1180 C   0  0  0  0  0  0  0  0  0  0  0  0
  -24.3530  -11.2940   20.9630 C   0  0  0  0  0  0  0  0  0  0  0  0
  -25.8920  -12.6340   20.3040 N   0  0  0  0  0  0  0  0  0  0  0  0
  -25.6050  -11.3260   20.5240 N   0  0  0  0  0  0  0  0  0  0  0  0
  -23.6980   -9.9920   21.1520 C   0  0  0  0  0  0  0  0  0  0  0  0
  -24.1630   -9.0630   22.1090 C   0  0  0  0  0  3  0  0  0  0  0  0
  -23.5060   -7.8270   22.2850 C   0  0  0  0  0  3  0  0  0  0  0  0
  -22.3690   -7.5090   21.5030 C   0  0  0  0  0  0  0  0  0  0  0  0
  -21.9230   -8.4290   20.5370 C   0  0  0  0  0  3  0  0  0  0  0  0
  -22.5810   -9.6570   20.3600 C   0  0  0  0  0  3  0  0  0  0  0  0
  -21.6820   -6.3230   21.5860 O   0  0  0  0  0  0  0  0  0  0  0  0
  -21.5600   -5.6430   22.7710 C   0  0  0  0  0  0  0  0  0  0  0  0
  -20.9050   -6.2040   23.8890 C   0  0  0  0  0  3  0  0  0  0  0  0
  -20.7420   -5.4440   25.0640 C   0  0  0  0  0  3  0  0  0  0  0  0
  -21.2250   -4.1220   25.1210 C   0  0  0  0  0  0  0  0  0  0  0  0
  -21.8730   -3.5610   24.0060 C   0  0  0  0  0  3  0  0  0  0  0  0
  -22.0380   -4.3180   22.8340 C   0  0  0  0  0  0  0  0  0  0  0  0
  -22.6450   -3.7650   21.7570 F   0  0  0  0  0  0  0  0  0  0  0  0
  -21.0610   -3.3890   26.2460 F   0  0  0  0  0  0  0  0  0  0  0  0
  -22.4680  -13.0240   21.5530 C   0  0  0  0  0  0  0  0  0  0  0  0
  -21.8530  -12.2520   22.4420 N   0  0  0  0  0  0  0  0  0  0  0  0
  -21.9440  -14.0560   21.1380 O   0  0  0  0  0  0  0  0  0  0  0  0
  -22.2910  -11.4180   22.8060 H   0  0  0  0  0  0  0  0  0  0  0  0
  -20.9290  -12.5000   22.7670 H   0  0  0  0  0  0  0  0  0  0  0  0
  -24.9380  -14.8410   20.5780 N   0  0  0  0  0  0  0  0  0  0  0  0
  -24.1600  -15.4510   20.8020 H   0  0  0  0  0  0  0  0  0  0  0  0
  -25.7340  -15.3350   20.1920 H   0  0  0  0  0  0  0  0  0  0  0  0
  1  9  1  0
  1 60  1  0
  3 11  1  0
  3  5  1  0
  3  9  1  0
  4  2  1  0
  5  6  1  0
  5  4  1  0
  6  7  1  1
  6  4  1  0
  8  6  1  0
  9  2  1  0
 10  1  2  0
 11 13  2  0
 12 11  1  0
 14 12  1  0
 15 12  1  0
 15 16  1  0
 17 16  1  0
 17 18  1  0
 19 30  2  0
 20 18  1  0
 20 25  1  0
 21 29  1  0
 21 31  1  0
 22 24  1  0
 23 29  1  0
 24 25  2  0
 24 23  1  0
 26 20  2  0
 27 26  1  0
 27 22  2  0
 28 22  1  0
 28 21  1  0
 29 19  1  0
 31 33  2  0
 32 31  1  0
 34 32  1  0
 35 44  2  0
 35 40  1  0
 36 32  1  0
 36 40  1  0
 37 36  1  0
 38 39  1  0
 38 37  1  0
 39 35  1  0
 40 41  2  0
 41 42  1  0
 43 42  2  0
 44 43  1  0
 45 19  1  0
 45 46  1  0
 45 55  1  0
 46 49  1  0
 47 51  1  0
 47 46  1  0
 48 47  2  0
 51 50  1  0
 53 51  1  0
 53 54  1  0
 53 52  1  0
 55 58  1  1
 55 56  1  0
 57 55  1  0
 60 59  1  0
 61 69  1  0
 62 67  1  0
 63 64  1  0
 63 62  1  0
 65 64  1  0
 65 74  1  0
 65 66  1  0
 67 61  1  0
 67 66  1  0
 68 61  2  0
 69 70  1  0
 69 60  1  0
 71 72  2  0
 72 91  1  0
 73 72  1  0
 73 76  1  0
 74 75  1  0
 74 71  1  0
 75 73  2  0
 76 77  1  0
 77 78  2  0
 79 82  1  0
 79 78  1  0
 80 79  2  0
 81 80  1  0
 81 76  2  0
 82 83  1  0
 83 88  2  0
 83 84  1  0
 84 85  2  0
 85 86  1  0
 86 90  1  0
 87 86  2  0
 88 87  1  0
 89 88  1  0
 91 92  1  0
 92 95  1  0
 92 94  1  0
 93 91  2  0
 96 71  1  0
 96 97  1  0
 98 96  1  0
M  ISO  4  17 101  18 101  61 100  69 100
M  END
>  <TORSDO>  (4) 
F 21

>  <SCORE>  (4) 
-11.476

>  <name>  (4) 
4

>  <ligand_id>  (4) 
4

>  <original_smiles>  (4) 
[H]c1c([H])c([H])c2c(c1[H])C([H])([H])C([H])([H])C([H])([H])C2([H])N([H])C(=O)C1([H])N(C(=O)C([H])(N([H])C(=O)C([H])(N([H])C([H])([H])[H])C([H])([H])[H])C(C([H])([H])[H])(C([H])([H])[H])C([H])([H])[H])C([H])([H])c2c([H])c(OC([H])([H])C([H])([H])C([H])([H])N([H])C(=O)C3([H])N(C(=O)C([H])(N([H])C(=O)N4C([H])([H])C([H])([H])C([H])([H])C([H])(n5nc(-c6c([H])c([H])c(Oc7c([H])c([H])c(F)c([H])c7F)c([H])c6[H])c(C(=O)N([H])[H])c5N([H])[H])C4([H])[H])C([H])([H])[H])C([H])([H])C4([H])C3([H])C4(C([H])([H])[H])C([H])([H])[H])c([H])c([H])c2C1([H])[H]

>  <smiles>  (4) 
[H]c1c([H])c([H])c2c(c1[H])C([H])([H])C([H])([H])C([H])([H])C2([H])N([H])C(=O)C1([H])N(C(=O)C([H])(N([H])C(=O)C([H])(N([H])C([H])([H])[H])C([H])([H])[H])C(C([H])([H])[H])(C([H])([H])[H])C([H])([H])[H])C([H])([H])c2c([H])c(OC([H])([H])C([H])([H])C([H])([H])N([H])C(=O)C3([H])N(C(=O)C([H])(N([H])C(=O)N4C([H])([H])C([H])([H])C([H])([H])C([H])(n5nc(-c6c([H])c([H])c(Oc7c([H])c([H])c(F)c([H])c7F)c([H])c6[H])c(C(=O)N([H])[H])c5N([H])[H])C4([H])[H])C([H])([H])[H])C([H])([H])C4([H])C3([H])C4(C([H])([H])[H])C([H])([H])[H])c([H])c([H])c2C1([H])[H]

$$$$
5:0:0
     RDKit          3D

 89 97  0  0  1  0  0  0  0  0999 V2000
  -28.6410  -21.4310   20.2640 C   0  0  0  0  0  0  0  0  0  0  0  0
  -29.5200  -20.2580   20.3260 N   0  0  0  0  0  0  0  0  0  0  0  0
  -27.4390  -21.1930   20.1460 O   0  0  0  0  0  0  0  0  0  0  0  0
  -30.5020  -15.1690   20.2470 C   0  0  0  0  0  0  0  0  0  0  0  0
  -30.4080  -12.7810   19.3230 C   0  0  0  0  0  2  0  0  0  0  0  0
  -29.4600  -12.6620   18.1070 C   0  0  0  0  0  2  0  0  0  0  0  0
  -28.0140  -12.4150   18.5710 C   0  0  0  0  0  2  0  0  0  0  0  0
  -27.6020  -13.3510   19.7370 C   0  0  0  0  0  3  0  0  0  0  0  0
  -28.6750  -13.4360   20.8420 C   0  0  0  0  0  2  0  0  0  0  0  0
  -29.9090  -13.8950   20.1920 N   0  0  0  0  0  0  0  0  0  0  0  0
  -31.7120  -15.1890   19.9860 O   0  0  0  0  0  0  0  0  0  0  0  0
  -29.8580  -17.5970   19.3140 C   0  0  0  0  0  2  0  0  0  0  0  0
  -29.7880  -17.5660   21.3100 C   0  0  0  0  0  2  0  0  0  0  0  0
  -29.1650  -18.6550   20.3010 C   0  0  0  0  0  3  0  0  0  0  0  0
  -29.7420  -16.4130   20.2920 N   0  0  0  0  0  0  0  0  0  0  0  0
  -25.2440  -13.8980   20.5480 C   0  0  0  0  0  0  0  0  0  0  0  0
  -24.1900  -13.1130   20.9210 C   0  0  0  0  0  0  0  0  0  0  0  0
  -24.6580  -11.7640   20.8550 C   0  0  0  0  0  0  0  0  0  0  0  0
  -26.2830  -13.0300   20.2660 N   0  0  0  0  0  0  0  0  0  0  0  0
  -25.9440  -11.7380   20.5190 N   0  0  0  0  0  0  0  0  0  0  0  0
  -23.9390  -10.4960   21.0340 C   0  0  0  0  0  0  0  0  0  0  0  0
  -24.3670   -9.5260   21.9680 C   0  0  0  0  0  3  0  0  0  0  0  0
  -23.6430   -8.3260   22.1360 C   0  0  0  0  0  3  0  0  0  0  0  0
  -22.4780   -8.0860   21.3720 C   0  0  0  0  0  0  0  0  0  0  0  0
  -22.0680   -9.0430   20.4270 C   0  0  0  0  0  3  0  0  0  0  0  0
  -22.7930  -10.2360   20.2560 C   0  0  0  0  0  3  0  0  0  0  0  0
  -21.7280   -6.9370   21.4490 O   0  0  0  0  0  0  0  0  0  0  0  0
  -21.6360   -6.2140   22.6110 C   0  0  0  0  0  0  0  0  0  0  0  0
  -21.1240   -6.7760   23.8000 C   0  0  0  0  0  3  0  0  0  0  0  0
  -20.9830   -5.9770   24.9530 C   0  0  0  0  0  3  0  0  0  0  0  0
  -21.3430   -4.6180   24.9170 C   0  0  0  0  0  0  0  0  0  0  0  0
  -21.8490   -4.0540   23.7320 C   0  0  0  0  0  3  0  0  0  0  0  0
  -21.9910   -4.8500   22.5810 C   0  0  0  0  0  0  0  0  0  0  0  0
  -22.4590   -4.2970   21.4360 F   0  0  0  0  0  0  0  0  0  0  0  0
  -21.2020   -3.8480   26.0210 F   0  0  0  0  0  0  0  0  0  0  0  0
  -22.7980  -13.5810   21.2260 C   0  0  0  0  0  0  0  0  0  0  0  0
  -22.0900  -12.8720   22.0970 N   0  0  0  0  0  0  0  0  0  0  0  0
  -22.3480  -14.6110   20.7270 O   0  0  0  0  0  0  0  0  0  0  0  0
  -22.4680  -12.0380   22.5230 H   0  0  0  0  0  0  0  0  0  0  0  0
  -21.1560  -13.1670   22.3450 H   0  0  0  0  0  0  0  0  0  0  0  0
  -25.4040  -15.2730   20.3960 N   0  0  0  0  0  0  0  0  0  0  0  0
  -24.6440  -15.9280   20.5460 H   0  0  0  0  0  0  0  0  0  0  0  0
  -26.2580  -15.7190   20.0870 H   0  0  0  0  0  0  0  0  0  0  0  0
  -31.5240  -21.2620   21.5130 C   0  0  0  0  0  1  0  0  0  0  0  0
  -31.5140  -20.9340   18.9680 C   0  0  0  0  0  1  0  0  0  0  0  0
  -30.9920  -20.4350   20.3270 C   0  0  0  0  0  3  0  0  0  0  0  0
  -28.9970  -23.1040   20.3610 C   0  0  0  0  0  3  0  0  0  0  0  0
  -27.9740  -24.4960   20.1120 C   0  0  0  0  0  3  0  0  0  0  0  0
  -28.2390  -26.0700   20.2950 O   0  0  0  0  0  0  0  0  0  0  0  0
  -24.6560  -31.8960   23.2730 C   0  0  0  0  0  0  0  0  0  0  0  0
  -27.2080  -27.1110   20.2310 C   0  0  0  0  0  0  0  0  0  0  0  0
  -23.4550  -30.5120   21.6270 C   0  0  0  0  0  3  0  0  0  0  0  0
  -24.8990  -28.9270   20.1960 C   0  0  0  0  0  0  0  0  0  0  0  0
  -26.0160  -30.7460   21.4730 C   0  0  0  0  0  2  0  0  0  0  0  0
  -26.0840  -29.3480   20.8120 C   0  0  0  0  0  0  0  0  0  0  0  0
  -27.2370  -28.4590   20.8070 C   0  0  0  0  0  3  0  0  0  0  0  0
  -25.9940  -26.8140   19.5730 C   0  0  0  0  0  3  0  0  0  0  0  0
  -24.8730  -27.6770   19.5580 C   0  0  0  0  0  3  0  0  0  0  0  0
  -23.6780  -29.8380   20.2460 C   0  0  0  0  0  2  0  0  0  0  0  0
  -24.7290  -31.0750   22.1790 N   0  0  0  0  0  0  0  0  0  0  0  0
  -23.5680  -32.1830   23.7990 O   0  0  0  0  0  0  0  0  0  0  0  0
  -22.7660  -29.5080   22.5850 C   0  0  0  0  0  0  0  0  0  0  0  0
  -21.4370  -29.3410   22.4530 N   0  0  0  0  0  0  0  0  0  0  0  0
  -23.4290  -28.8810   23.4150 O   0  0  0  0  0  0  0  0  0  0  0  0
  -20.9550  -29.8970   21.7600 H   0  0  0  0  0  0  0  0  0  0  0  0
  -18.0510  -28.1380   22.9430 C   0  0  0  0  0  0  0  0  0  0  0  0
  -20.6100  -28.4020   23.2180 C   0  0  0  0  0  3  0  0  0  0  0  0
  -20.7130  -26.9710   22.6410 C   0  0  0  0  0  2  0  0  0  0  0  0
  -19.6150  -26.6510   21.6220 C   0  0  0  0  0  2  0  0  0  0  0  0
  -18.2310  -26.7920   22.2610 C   0  0  0  0  0  2  0  0  0  0  0  0
  -19.1680  -28.9010   23.3780 C   0  0  0  0  0  0  0  0  0  0  0  0
  -18.9440  -30.1580   23.9780 C   0  0  0  0  0  3  0  0  0  0  0  0
  -17.6390  -30.6560   24.1460 C   0  0  0  0  0  3  0  0  0  0  0  0
  -16.5370  -29.8910   23.7250 C   0  0  0  0  0  3  0  0  0  0  0  0
  -16.7440  -28.6330   23.1300 C   0  0  0  0  0  3  0  0  0  0  0  0
  -25.9320  -32.5270   23.9080 C   0  0  0  0  0  3  0  0  0  0  0  0
  -26.4290  -31.7590   25.1940 C   0  0  1  0  0  0  0  0  0  0  0  0
  -25.3240  -31.5310   26.2520 C   0  0  0  0  0  1  0  0  0  0  0  0
  -27.0110  -30.3760   24.8200 C   0  0  0  0  0  1  0  0  0  0  0  0
  -27.5770  -32.5500   25.8650 C   0  0  0  0  0  1  0  0  0  0  0  0
  -25.6230  -33.9280   24.2400 N   0  0  0  0  0  0  0  0  0  0  0  0
  -25.9320  -34.9840   23.4740 C   0  0  0  0  0  0  0  0  0  0  0  0
  -26.5710  -34.8790   22.4240 O   0  0  0  0  0  0  0  0  0  0  0  0
  -25.0510  -34.0820   25.0580 H   0  0  0  0  0  0  0  0  0  0  0  0
  -24.1760  -36.7680   23.1970 C   0  0  0  0  0  1  0  0  0  0  0  0
  -25.4590  -36.3740   23.9470 C   0  0  0  0  0  3  0  0  0  0  0  0
  -27.6210  -37.2860   24.6700 C   0  0  0  0  0  1  0  0  0  0  0  0
  -26.4780  -37.4340   23.7750 N   0  0  0  0  0  0  0  0  0  0  0  0
  -26.0720  -38.3530   23.9270 H   0  0  0  0  0  0  0  0  0  0  0  0
  1  2  1  0
  1 47  1  0
  2 46  1  0
  3  1  2  0
  4 15  1  0
  5 10  1  0
  6  7  1  0
  6  5  1  0
  8  7  1  0
  8 19  1  0
  8  9  1  0
 10  4  1  0
 10  9  1  0
 11  4  2  0
 12 15  1  0
 12 14  1  0
 14  2  1  0
 14 13  1  0
 15 13  1  0
 16 17  2  0
 17 36  1  0
 18 17  1  0
 18 21  1  0
 19 20  1  0
 19 16  1  0
 20 18  2  0
 21 22  1  0
 22 23  2  0
 24 27  1  0
 24 23  1  0
 25 24  2  0
 26 25  1  0
 26 21  2  0
 27 28  1  0
 28 29  1  0
 29 30  2  0
 31 30  1  0
 31 35  1  0
 32 31  2  0
 33 28  2  0
 33 32  1  0
 34 33  1  0
 36 37  1  0
 37 40  1  0
 37 39  1  0
 38 36  2  0
 41 42  1  0
 41 16  1  0
 43 41  1  0
 45 46  1  0
 46 44  1  0
 48 49  1  0
 48 47  2  0
 50 61  2  0
 51 49  1  0
 51 56  1  0
 52 60  1  0
 52 62  1  0
 53 59  1  0
 53 55  1  0
 54 60  1  0
 55 54  1  0
 56 55  2  0
 57 51  2  0
 58 57  1  0
 58 53  2  0
 59 52  1  0
 60 50  1  0
 62 64  2  0
 63 62  1  0
 65 63  1  0
 66 75  2  0
 66 71  1  0
 67 63  1  0
 67 71  1  0
 68 67  1  0
 69 70  1  0
 69 68  1  0
 70 66  1  0
 71 72  2  0
 72 73  1  0
 74 73  2  0
 75 74  1  0
 76 50  1  0
 76 81  1  0
 76 77  1  0
 77 80  1  1
 77 78  1  0
 79 77  1  0
 81 84  1  0
 82 86  1  0
 82 81  1  0
 83 82  2  0
 86 85  1  0
 88 89  1  0
 88 86  1  0
 88 87  1  0
M  ISO  4   4 100  15 100  48 101  49 101
M  END
>  <TORSDO>  (5) 
F 19

>  <SCORE>  (5) 
-15.274

>  <name>  (5) 
5

>  <ligand_id>  (5) 
5

>  <original_smiles>  (5) 
[H]c1c([H])c([H])c2c(c1[H])C([H])([H])C([H])([H])C([H])([H])C2([H])N([H])C(=O)C1([H])N(C(=O)C([H])(N([H])C(=O)C([H])(N([H])C([H])([H])[H])C([H])([H])[H])C(C([H])([H])[H])(C([H])([H])[H])C([H])([H])[H])C([H])([H])c2c([H])c(OC([H])([H])C([H])([H])C(=O)N(C([H])(C([H])([H])[H])C([H])([H])[H])C3([H])C([H])([H])N(C(=O)N4C([H])([H])C([H])([H])C([H])([H])C([H])(n5nc(-c6c([H])c([H])c(Oc7c([H])c([H])c(F)c([H])c7F)c([H])c6[H])c(C(=O)N([H])[H])c5N([H])[H])C4([H])[H])C3([H])[H])c([H])c([H])c2C1([H])[H]

>  <smiles>  (5) 
[H]c1c([H])c([H])c2c(c1[H])C([H])([H])C([H])([H])C([H])([H])C2([H])N([H])C(=O)C1([H])N(C(=O)C([H])(N([H])C(=O)C([H])(N([H])C([H])([H])[H])C([H])([H])[H])C(C([H])([H])[H])(C([H])([H])[H])C([H])([H])[H])C([H])([H])c2c([H])c(OC([H])([H])C([H])([H])C(=O)N(C([H])(C([H])([H])[H])C([H])([H])[H])C3([H])C([H])([H])N(C(=O)N4C([H])([H])C([H])([H])C([H])([H])C([H])(n5nc(-c6c([H])c([H])c(Oc7c([H])c([H])c(F)c([H])c7F)c([H])c6[H])c(C(=O)N([H])[H])c5N([H])[H])C4([H])[H])C3([H])[H])c([H])c([H])c2C1([H])[H]

$$$$
6:0:0
     RDKit          3D

 86 94  0  0  1  0  0  0  0  0999 V2000
  -28.8730  -22.4500   20.4860 C   0  0  0  0  0  3  0  0  0  0  0  0
  -28.7200  -20.8280   19.9480 N   0  0  0  0  0  4  0  0  0  0  0  0
  -27.7200  -20.7080   19.9770 H   0  0  0  0  0  0  0  0  0  0  0  0
  -28.9300  -20.8590   18.9640 H   0  0  0  0  0  0  0  0  0  0  0  0
  -30.4200  -15.4910   20.1690 C   0  0  0  0  0  0  0  0  0  0  0  0
  -30.3670  -13.0070   19.3230 C   0  0  0  0  0  2  0  0  0  0  0  0
  -29.4510  -12.6970   18.1120 C   0  0  0  0  0  2  0  0  0  0  0  0
  -28.0240  -12.3880   18.5860 C   0  0  0  0  0  2  0  0  0  0  0  0
  -27.5580  -13.3790   19.6790 C   0  0  0  0  0  3  0  0  0  0  0  0
  -28.6130  -13.6400   20.7790 C   0  0  0  0  0  2  0  0  0  0  0  0
  -29.8000  -14.1910   20.0990 N   0  0  0  0  0  0  0  0  0  0  0  0
  -31.6440  -15.3680   19.9830 O   0  0  0  0  0  0  0  0  0  0  0  0
  -28.5530  -17.7890   20.2070 C   0  0  0  0  0  2  0  0  0  0  0  0
  -30.4800  -18.3220   19.8950 C   0  0  0  0  0  2  0  0  0  0  0  0
  -29.2690  -19.2760   20.4750 C   0  0  0  0  0  3  0  0  0  0  0  0
  -29.8540  -16.9130   20.2290 N   0  0  0  0  0  0  0  0  0  0  0  0
  -25.2050  -13.9100   20.4730 C   0  0  0  0  0  0  0  0  0  0  0  0
  -24.1530  -13.1250   20.8530 C   0  0  0  0  0  0  0  0  0  0  0  0
  -24.6310  -11.7780   20.8180 C   0  0  0  0  0  0  0  0  0  0  0  0
  -26.2490  -13.0440   20.2170 N   0  0  0  0  0  0  0  0  0  0  0  0
  -25.9200  -11.7540   20.4940 N   0  0  0  0  0  0  0  0  0  0  0  0
  -23.9130  -10.5110   21.0150 C   0  0  0  0  0  0  0  0  0  0  0  0
  -24.3590   -9.5430   21.9430 C   0  0  0  0  0  3  0  0  0  0  0  0
  -23.6370   -8.3450   22.1300 C   0  0  0  0  0  3  0  0  0  0  0  0
  -22.4540   -8.1040   21.3900 C   0  0  0  0  0  0  0  0  0  0  0  0
  -22.0270   -9.0600   20.4520 C   0  0  0  0  0  3  0  0  0  0  0  0
  -22.7500  -10.2510   20.2630 C   0  0  0  0  0  3  0  0  0  0  0  0
  -21.7030   -6.9590   21.4890 O   0  0  0  0  0  0  0  0  0  0  0  0
  -21.6710   -6.2150   22.6410 C   0  0  0  0  0  0  0  0  0  0  0  0
  -21.2540   -6.7650   23.8720 C   0  0  0  0  0  3  0  0  0  0  0  0
  -21.1710   -5.9480   25.0170 C   0  0  0  0  0  3  0  0  0  0  0  0
  -21.4930   -4.5800   24.9310 C   0  0  0  0  0  0  0  0  0  0  0  0
  -21.9030   -4.0290   23.7040 C   0  0  0  0  0  3  0  0  0  0  0  0
  -21.9880   -4.8440   22.5620 C   0  0  0  0  0  0  0  0  0  0  0  0
  -22.3620   -4.3020   21.3780 F   0  0  0  0  0  0  0  0  0  0  0  0
  -21.4060   -3.7920   26.0280 F   0  0  0  0  0  0  0  0  0  0  0  0
  -22.7560  -13.5930   21.1320 C   0  0  0  0  0  0  0  0  0  0  0  0
  -22.0390  -12.8980   22.0070 N   0  0  0  0  0  0  0  0  0  0  0  0
  -22.3100  -14.6140   20.6080 O   0  0  0  0  0  0  0  0  0  0  0  0
  -22.4140  -12.0720   22.4500 H   0  0  0  0  0  0  0  0  0  0  0  0
  -21.1020  -13.1940   22.2380 H   0  0  0  0  0  0  0  0  0  0  0  0
  -25.3550  -15.2820   20.2930 N   0  0  0  0  0  0  0  0  0  0  0  0
  -24.5850  -15.9310   20.4100 H   0  0  0  0  0  0  0  0  0  0  0  0
  -26.1990  -15.7220   19.9500 H   0  0  0  0  0  0  0  0  0  0  0  0
  -28.0070  -24.0510   20.0460 C   0  0  0  0  0  3  0  0  0  0  0  0
  -28.1660  -25.7250   20.3450 O   0  0  0  0  0  0  0  0  0  0  0  0
  -24.6540  -31.8700   23.2350 C   0  0  0  0  0  0  0  0  0  0  0  0
  -27.1800  -26.8800   20.2530 C   0  0  0  0  0  0  0  0  0  0  0  0
  -23.4580  -30.4690   21.6050 C   0  0  0  0  0  3  0  0  0  0  0  0
  -24.9010  -28.8350   20.1900 C   0  0  0  0  0  0  0  0  0  0  0  0
  -26.0310  -30.6420   21.4680 C   0  0  0  0  0  2  0  0  0  0  0  0
  -26.0930  -29.2190   20.8160 C   0  0  0  0  0  0  0  0  0  0  0  0
  -27.2210  -28.2630   20.8200 C   0  0  0  0  0  3  0  0  0  0  0  0
  -25.9590  -26.6760   19.5680 C   0  0  0  0  0  3  0  0  0  0  0  0
  -24.8660  -27.5880   19.5420 C   0  0  0  0  0  3  0  0  0  0  0  0
  -23.6900  -29.7720   20.2330 C   0  0  0  0  0  2  0  0  0  0  0  0
  -24.7370  -31.0230   22.1550 N   0  0  0  0  0  0  0  0  0  0  0  0
  -23.5630  -32.1700   23.7500 O   0  0  0  0  0  0  0  0  0  0  0  0
  -22.7530  -29.4870   22.5780 C   0  0  0  0  0  0  0  0  0  0  0  0
  -21.4210  -29.3290   22.4540 N   0  0  0  0  0  0  0  0  0  0  0  0
  -23.4120  -28.8670   23.4160 O   0  0  0  0  0  0  0  0  0  0  0  0
  -20.9400  -29.8800   21.7560 H   0  0  0  0  0  0  0  0  0  0  0  0
  -18.0350  -28.1190   22.9630 C   0  0  0  0  0  0  0  0  0  0  0  0
  -20.5940  -28.3970   23.2310 C   0  0  0  0  0  3  0  0  0  0  0  0
  -20.7000  -26.9590   22.6720 C   0  0  0  0  0  2  0  0  0  0  0  0
  -19.6040  -26.6250   21.6560 C   0  0  0  0  0  2  0  0  0  0  0  0
  -18.2190  -26.7670   22.2950 C   0  0  0  0  0  2  0  0  0  0  0  0
  -19.1490  -28.8920   23.3880 C   0  0  0  0  0  0  0  0  0  0  0  0
  -18.9200  -30.1540   23.9770 C   0  0  0  0  0  3  0  0  0  0  0  0
  -17.6110  -30.6450   24.1420 C   0  0  0  0  0  3  0  0  0  0  0  0
  -16.5120  -29.8720   23.7300 C   0  0  0  0  0  3  0  0  0  0  0  0
  -16.7250  -28.6100   23.1470 C   0  0  0  0  0  3  0  0  0  0  0  0
  -25.9230  -32.5170   23.8680 C   0  0  0  0  0  3  0  0  0  0  0  0
  -25.6080  -33.9210   24.1910 N   0  0  0  0  0  0  0  0  0  0  0  0
  -25.9370  -34.9780   23.4340 C   0  0  0  0  0  0  0  0  0  0  0  0
  -26.5960  -34.8730   22.3980 O   0  0  0  0  0  0  0  0  0  0  0  0
  -25.0200  -34.0760   24.9960 H   0  0  0  0  0  0  0  0  0  0  0  0
  -24.2030  -36.7780   23.1160 C   0  0  0  0  0  1  0  0  0  0  0  0
  -25.4610  -36.3710   23.9000 C   0  0  0  0  0  3  0  0  0  0  0  0
  -27.6110  -37.2620   24.6860 C   0  0  0  0  0  1  0  0  0  0  0  0
  -26.4930  -37.4230   23.7610 N   0  0  0  0  0  0  0  0  0  0  0  0
  -26.0890  -38.3440   23.9100 H   0  0  0  0  0  0  0  0  0  0  0  0
  -26.4180  -31.7650   25.1670 C   0  0  1  0  0  0  0  0  0  0  0  0
  -25.3100  -31.5560   26.2260 C   0  0  0  0  0  1  0  0  0  0  0  0
  -26.9960  -30.3760   24.8170 C   0  0  0  0  0  1  0  0  0  0  0  0
  -27.5660  -32.5630   25.8270 C   0  0  0  0  0  1  0  0  0  0  0  0
  2  3  1  0
  2  1  1  0
  4  2  1  0
  5 16  1  0
  6 11  1  0
  7  8  1  0
  7  6  1  0
  9  8  1  0
  9 20  1  0
  9 10  1  0
 11  5  1  0
 11 10  1  0
 12  5  2  0
 13 16  1  0
 13 15  1  0
 14 16  1  0
 14 15  1  0
 15  2  1  0
 17 18  2  0
 18 37  1  0
 19 18  1  0
 19 22  1  0
 20 17  1  0
 20 21  1  0
 21 19  2  0
 22 23  1  0
 23 24  2  0
 25 28  1  0
 25 24  1  0
 26 25  2  0
 27 26  1  0
 27 22  2  0
 28 29  1  0
 29 30  1  0
 30 31  2  0
 32 31  1  0
 32 36  1  0
 33 32  2  0
 34 29  2  0
 34 33  1  0
 35 34  1  0
 37 38  1  0
 38 41  1  0
 38 40  1  0
 39 37  2  0
 42 43  1  0
 42 17  1  0
 44 42  1  0
 45 46  1  0
 45  1  2  0
 47 58  2  0
 48 46  1  0
 48 53  1  0
 49 57  1  0
 49 59  1  0
 50 56  1  0
 50 52  1  0
 51 57  1  0
 52 53  2  0
 52 51  1  0
 54 48  2  0
 55 54  1  0
 55 50  2  0
 56 49  1  0
 57 47  1  0
 59 61  2  0
 60 59  1  0
 62 60  1  0
 63 72  2  0
 63 68  1  0
 64 60  1  0
 64 68  1  0
 65 64  1  0
 66 67  1  0
 66 65  1  0
 67 63  1  0
 68 69  2  0
 69 70  1  0
 71 70  2  0
 72 71  1  0
 73 47  1  0
 73 74  1  0
 73 83  1  0
 74 77  1  0
 75 79  1  0
 75 74  1  0
 76 75  2  0
 79 78  1  0
 81 79  1  0
 81 82  1  0
 81 80  1  0
 83 86  1  1
 83 84  1  0
 85 83  1  0
M  ISO  4   5 100  16 100  45 101  46 101
M  END
>  <TORSDO>  (6) 
F 18

>  <SCORE>  (6) 
-16.516

>  <name>  (6) 
6

>  <ligand_id>  (6) 
6

>  <original_smiles>  (6) 
[H]c1c([H])c([H])c2c(c1[H])C([H])([H])C([H])([H])C([H])([H])C2([H])N([H])C(=O)C1([H])N(C(=O)C([H])(N([H])C(=O)C([H])(N([H])C([H])([H])[H])C([H])([H])[H])C(C([H])([H])[H])(C([H])([H])[H])C([H])([H])[H])C([H])([H])c2c([H])c(OC([H])([H])C([H])([H])[N+]([H])([H])C3([H])C([H])([H])N(C(=O)N4C([H])([H])C([H])([H])C([H])([H])C([H])(n5nc(-c6c([H])c([H])c(Oc7c([H])c([H])c(F)c([H])c7F)c([H])c6[H])c(C(=O)N([H])[H])c5N([H])[H])C4([H])[H])C3([H])[H])c([H])c([H])c2C1([H])[H]

>  <smiles>  (6) 
[H]c1c([H])c([H])c2c(c1[H])C([H])([H])C([H])([H])C([H])([H])C2([H])N([H])C(=O)C1([H])N(C(=O)C([H])(N([H])C(=O)C([H])(N([H])C([H])([H])[H])C([H])([H])[H])C(C([H])([H])[H])(C([H])([H])[H])C([H])([H])[H])C([H])([H])c2c([H])c(OC([H])([H])C([H])([H])[N+]([H])([H])C3([H])C([H])([H])N(C(=O)N4C([H])([H])C([H])([H])C([H])([H])C([H])(n5nc(-c6c([H])c([H])c(Oc7c([H])c([H])c(F)c([H])c7F)c([H])c6[H])c(C(=O)N([H])[H])c5N([H])[H])C4([H])[H])C3([H])[H])c([H])c([H])c2C1([H])[H]

$$$$
7:0:0
     RDKit          3D

 84 90  0  0  1  0  0  0  0  0999 V2000
  -29.0370  -22.0840   20.2940 C   0  0  0  0  0  1  0  0  0  0  0  0
  -30.2430  -15.7760   20.1610 C   0  0  0  0  0  0  0  0  0  0  0  0
  -30.3550  -13.2260   19.3220 C   0  0  0  0  0  2  0  0  0  0  0  0
  -29.4400  -12.7950   18.1380 C   0  0  0  0  0  2  0  0  0  0  0  0
  -28.0350  -12.4180   18.6310 C   0  0  0  0  0  2  0  0  0  0  0  0
  -27.5380  -13.4090   19.7070 C   0  0  0  0  0  3  0  0  0  0  0  0
  -28.5940  -13.7410   20.7890 C   0  0  0  0  0  2  0  0  0  0  0  0
  -29.7320  -14.3960   20.0980 N   0  0  0  0  0  0  0  0  0  0  0  0
  -31.4780  -15.7270   19.9580 O   0  0  0  0  0  0  0  0  0  0  0  0
  -29.6130  -18.8900   20.2230 C   0  0  0  0  0  2  0  0  0  0  0  0
  -29.4020  -17.3210   20.2560 N   0  0  0  0  0  0  0  0  0  0  0  0
  -28.8360  -20.2800   20.2790 N   0  0  0  0  0  0  0  0  0  0  0  0
  -28.4090  -17.2050   20.3650 H   0  0  0  0  0  0  0  0  0  0  0  0
  -27.8440  -20.1070   20.3640 H   0  0  0  0  0  0  0  0  0  0  0  0
  -25.2010  -13.9070   20.5610 C   0  0  0  0  0  0  0  0  0  0  0  0
  -24.1600  -13.1130   20.9440 C   0  0  0  0  0  0  0  0  0  0  0  0
  -24.6360  -11.7690   20.8660 C   0  0  0  0  0  0  0  0  0  0  0  0
  -26.2420  -13.0490   20.2620 N   0  0  0  0  0  0  0  0  0  0  0  0
  -25.9200  -11.7530   20.5140 N   0  0  0  0  0  0  0  0  0  0  0  0
  -23.9220  -10.4980   21.0470 C   0  0  0  0  0  0  0  0  0  0  0  0
  -24.3670   -9.5210   21.9650 C   0  0  0  0  0  3  0  0  0  0  0  0
  -23.6470   -8.3190   22.1380 C   0  0  0  0  0  3  0  0  0  0  0  0
  -22.4670   -8.0840   21.3930 C   0  0  0  0  0  0  0  0  0  0  0  0
  -22.0400   -9.0490   20.4630 C   0  0  0  0  0  3  0  0  0  0  0  0
  -22.7610  -10.2430   20.2890 C   0  0  0  0  0  3  0  0  0  0  0  0
  -21.7180   -6.9360   21.4760 O   0  0  0  0  0  0  0  0  0  0  0  0
  -21.6610   -6.1950   22.6300 C   0  0  0  0  0  0  0  0  0  0  0  0
  -21.1840   -6.7390   23.8420 C   0  0  0  0  0  3  0  0  0  0  0  0
  -21.0770   -5.9240   24.9860 C   0  0  0  0  0  3  0  0  0  0  0  0
  -21.4360   -4.5650   24.9190 C   0  0  0  0  0  0  0  0  0  0  0  0
  -21.9070   -4.0200   23.7110 C   0  0  0  0  0  3  0  0  0  0  0  0
  -22.0150   -4.8320   22.5690 C   0  0  0  0  0  0  0  0  0  0  0  0
  -22.4490   -4.2960   21.4030 F   0  0  0  0  0  0  0  0  0  0  0  0
  -21.3270   -3.7790   26.0160 F   0  0  0  0  0  0  0  0  0  0  0  0
  -22.7680  -13.5760   21.2590 C   0  0  0  0  0  0  0  0  0  0  0  0
  -22.0680  -12.8610   22.1340 N   0  0  0  0  0  0  0  0  0  0  0  0
  -22.3120  -14.6070   20.7660 O   0  0  0  0  0  0  0  0  0  0  0  0
  -22.4520  -12.0280   22.5540 H   0  0  0  0  0  0  0  0  0  0  0  0
  -21.1340  -13.1530   22.3870 H   0  0  0  0  0  0  0  0  0  0  0  0
  -25.3430  -15.2830   20.4040 N   0  0  0  0  0  0  0  0  0  0  0  0
  -24.5580  -15.9140   20.5270 H   0  0  0  0  0  0  0  0  0  0  0  0
  -26.1370  -15.7220   19.9590 H   0  0  0  0  0  0  0  0  0  0  0  0
  -27.9900  -23.7520   20.2290 C   0  0  0  0  0  1  0  0  0  0  0  0
  -28.1450  -25.5300   20.3210 O   0  0  0  0  0  0  0  0  0  0  0  0
  -24.6690  -31.8920   23.2180 C   0  0  0  0  0  0  0  0  0  0  0  0
  -27.1720  -26.7550   20.2650 C   0  0  0  0  0  0  0  0  0  0  0  0
  -23.4750  -30.4880   21.5920 C   0  0  0  0  0  3  0  0  0  0  0  0
  -24.9130  -28.8160   20.1920 C   0  0  0  0  0  0  0  0  0  0  0  0
  -26.0550  -30.6090   21.4700 C   0  0  0  0  0  2  0  0  0  0  0  0
  -26.1120  -29.1680   20.8240 C   0  0  0  0  0  0  0  0  0  0  0  0
  -27.2240  -28.1680   20.8250 C   0  0  0  0  0  3  0  0  0  0  0  0
  -25.9380  -26.6210   19.5790 C   0  0  0  0  0  3  0  0  0  0  0  0
  -24.8670  -27.5690   19.5450 C   0  0  0  0  0  3  0  0  0  0  0  0
  -23.7120  -29.7770   20.2270 C   0  0  0  0  0  2  0  0  0  0  0  0
  -24.7570  -31.0310   22.1460 N   0  0  0  0  0  0  0  0  0  0  0  0
  -23.5760  -32.2010   23.7260 O   0  0  0  0  0  0  0  0  0  0  0  0
  -22.7500  -29.5240   22.5710 C   0  0  0  0  0  0  0  0  0  0  0  0
  -21.4180  -29.3750   22.4460 N   0  0  0  0  0  0  0  0  0  0  0  0
  -23.4020  -28.9060   23.4160 O   0  0  0  0  0  0  0  0  0  0  0  0
  -20.9410  -29.9230   21.7440 H   0  0  0  0  0  0  0  0  0  0  0  0
  -18.0240  -28.1810   22.9700 C   0  0  0  0  0  0  0  0  0  0  0  0
  -20.5860  -28.4480   23.2260 C   0  0  0  0  0  3  0  0  0  0  0  0
  -20.6820  -27.0100   22.6660 C   0  0  0  0  0  2  0  0  0  0  0  0
  -19.5800  -26.6820   21.6540 C   0  0  0  0  0  2  0  0  0  0  0  0
  -18.1990  -26.8300   22.2980 C   0  0  0  0  0  2  0  0  0  0  0  0
  -19.1440  -28.9480   23.3910 C   0  0  0  0  0  0  0  0  0  0  0  0
  -18.9220  -30.2090   23.9850 C   0  0  0  0  0  3  0  0  0  0  0  0
  -17.6160  -30.7050   24.1590 C   0  0  0  0  0  3  0  0  0  0  0  0
  -16.5120  -29.9380   23.7500 C   0  0  0  0  0  3  0  0  0  0  0  0
  -16.7170  -28.6770   23.1620 C   0  0  0  0  0  3  0  0  0  0  0  0
  -25.9330  -32.5430   23.8560 C   0  0  0  0  0  3  0  0  0  0  0  0
  -25.6140  -33.9470   24.1840 N   0  0  0  0  0  0  0  0  0  0  0  0
  -25.9290  -35.0090   23.4300 C   0  0  0  0  0  0  0  0  0  0  0  0
  -26.5760  -34.9100   22.3840 O   0  0  0  0  0  0  0  0  0  0  0  0
  -25.0350  -34.0960   24.9980 H   0  0  0  0  0  0  0  0  0  0  0  0
  -24.1870  -36.8080   23.1470 C   0  0  0  0  0  1  0  0  0  0  0  0
  -25.4590  -36.4000   23.9090 C   0  0  0  0  0  3  0  0  0  0  0  0
  -27.6160  -37.3020   24.6630 C   0  0  0  0  0  1  0  0  0  0  0  0
  -26.4840  -37.4570   23.7550 N   0  0  0  0  0  0  0  0  0  0  0  0
  -26.0780  -38.3770   23.9080 H   0  0  0  0  0  0  0  0  0  0  0  0
  -26.4260  -31.7900   25.1550 C   0  0  1  0  0  0  0  0  0  0  0  0
  -25.3170  -31.5760   26.2120 C   0  0  0  0  0  1  0  0  0  0  0  0
  -27.0080  -30.4030   24.8060 C   0  0  0  0  0  1  0  0  0  0  0  0
  -27.5710  -32.5910   25.8200 C   0  0  0  0  0  1  0  0  0  0  0  0
  2 11  1  0
  3  8  1  0
  4  5  1  0
  4  3  1  0
  6  5  1  0
  6 18  1  0
  6  7  1  0
  8  2  1  0
  8  7  1  0
  9  2  2  0
 10 11  1  0
 10 12  1  0
 11 13  1  0
 12  1  1  0
 12 14  1  0
 15 16  2  0
 16 35  1  0
 17 16  1  0
 17 20  1  0
 18 19  1  0
 18 15  1  0
 19 17  2  0
 20 21  1  0
 21 22  2  0
 23 26  1  0
 23 22  1  0
 24 23  2  0
 25 24  1  0
 25 20  2  0
 26 27  1  0
 27 28  1  0
 28 29  2  0
 30 29  1  0
 30 34  1  0
 31 30  2  0
 32 27  2  0
 32 31  1  0
 33 32  1  0
 35 36  1  0
 36 39  1  0
 36 38  1  0
 37 35  2  0
 40 41  1  0
 40 15  1  0
 42 40  1  0
 43 44  1  0
 45 56  2  0
 46 44  1  0
 46 51  1  0
 47 55  1  0
 47 57  1  0
 48 54  1  0
 48 50  1  0
 49 55  1  0
 50 51  2  0
 50 49  1  0
 52 46  2  0
 53 52  1  0
 53 48  2  0
 54 47  1  0
 55 45  1  0
 57 59  2  0
 58 57  1  0
 60 58  1  0
 61 70  2  0
 61 66  1  0
 62 58  1  0
 62 66  1  0
 63 62  1  0
 64 65  1  0
 64 63  1  0
 65 61  1  0
 66 67  2  0
 67 68  1  0
 69 68  2  0
 70 69  1  0
 71 45  1  0
 71 72  1  0
 71 81  1  0
 72 75  1  0
 73 77  1  0
 73 72  1  0
 74 73  2  0
 77 76  1  0
 79 80  1  0
 79 77  1  0
 79 78  1  0
 81 84  1  1
 81 82  1  0
 83 81  1  0
M  ISO  4   2 100  11 100  43 101  44 101
M  END
>  <TORSDO>  (7) 
F 17

>  <SCORE>  (7) 
-16.264

>  <name>  (7) 
7

>  <ligand_id>  (7) 
7

>  <original_smiles>  (7) 
[H]C(N([H])C(=O)N1C([H])([H])C([H])([H])C([H])([H])C([H])(n2nc(-c3c([H])c([H])c(Oc4c([H])c([H])c(F)c([H])c4F)c([H])c3[H])c(C(=O)N([H])[H])c2N([H])[H])C1([H])[H])=[N+]([H])C([H])([H])C([H])([H])Oc1c([H])c([H])c2c(c1[H])C([H])([H])N(C(=O)C([H])(N([H])C(=O)C([H])(N([H])C([H])([H])[H])C([H])([H])[H])C(C([H])([H])[H])(C([H])([H])[H])C([H])([H])[H])C([H])(C(=O)N([H])C1([H])c3c([H])c([H])c([H])c([H])c3C([H])([H])C([H])([H])C1([H])[H])C2([H])[H]

>  <smiles>  (7) 
[H]C(N([H])C(=O)N1C([H])([H])C([H])([H])C([H])([H])C([H])(n2nc(-c3c([H])c([H])c(Oc4c([H])c([H])c(F)c([H])c4F)c([H])c3[H])c(C(=O)N([H])[H])c2N([H])[H])C1([H])[H])=[N+]([H])C([H])([H])C([H])([H])Oc1c([H])c([H])c2c(c1[H])C([H])([H])N(C(=O)C([H])(N([H])C(=O)C([H])(N([H])C([H])([H])[H])C([H])([H])[H])C(C([H])([H])[H])(C([H])([H])[H])C([H])([H])[H])C([H])(C(=O)N([H])C1([H])c3c([H])c([H])c([H])c([H])c3C([H])([H])C([H])([H])C1([H])[H])C2([H])[H]

$$$$
8:0:0
     RDKit          3D

 90 98  0  0  1  0  0  0  0  0999 V2000
  -29.9190  -20.4800   19.9550 C   0  0  0  0  0  0  0  0  0  0  0  0
  -30.1210  -19.1330   19.9580 N   0  0  0  0  0  0  0  0  0  0  0  0
  -32.3350  -20.5830   18.7910 C   0  0  0  0  0  2  0  0  0  0  0  0
  -30.9980  -21.2040   19.1550 C   0  0  0  0  0  3  0  0  0  0  0  0
  -32.2890  -21.7190   19.7880 C   0  0  1  0  0  0  0  0  0  0  0  0
  -32.6480  -21.4200   21.2370 C   0  0  0  0  0  1  0  0  0  0  0  0
  -32.8210  -23.0830   19.3860 C   0  0  0  0  0  1  0  0  0  0  0  0
  -30.3940  -17.7320   22.0140 C   0  0  0  0  0  1  0  0  0  0  0  0
  -29.6460  -17.8400   20.6800 C   0  0  0  0  0  3  0  0  0  0  0  0
  -29.6210  -16.3430   19.8810 C   0  0  0  0  0  2  0  0  0  0  0  0
  -30.5040  -14.9270   19.9930 C   0  0  0  0  0  0  0  0  0  0  0  0
  -30.3370  -12.5980   19.0080 C   0  0  0  0  0  2  0  0  0  0  0  0
  -29.3340  -12.6260   17.8280 C   0  0  0  0  0  2  0  0  0  0  0  0
  -27.8900  -12.4150   18.3260 C   0  0  0  0  0  2  0  0  0  0  0  0
  -27.5590  -13.2910   19.5600 C   0  0  0  0  0  3  0  0  0  0  0  0
  -28.6760  -13.2490   20.6230 C   0  0  0  0  0  2  0  0  0  0  0  0
  -29.9290  -13.6550   19.9750 N   0  0  0  0  0  0  0  0  0  0  0  0
  -31.7140  -14.9780   19.7440 O   0  0  0  0  0  0  0  0  0  0  0  0
  -25.2270  -13.8570   20.4510 C   0  0  0  0  0  0  0  0  0  0  0  0
  -24.1830  -13.0750   20.8650 C   0  0  0  0  0  0  0  0  0  0  0  0
  -24.6430  -11.7240   20.7810 C   0  0  0  0  0  0  0  0  0  0  0  0
  -26.2510  -12.9840   20.1300 N   0  0  0  0  0  0  0  0  0  0  0  0
  -25.9150  -11.6940   20.3970 N   0  0  0  0  0  0  0  0  0  0  0  0
  -23.9270  -10.4580   20.9840 C   0  0  0  0  0  0  0  0  0  0  0  0
  -24.3780   -9.4960   21.9130 C   0  0  0  0  0  3  0  0  0  0  0  0
  -23.6580   -8.2960   22.1040 C   0  0  0  0  0  3  0  0  0  0  0  0
  -22.4750   -8.0520   21.3670 C   0  0  0  0  0  0  0  0  0  0  0  0
  -22.0440   -9.0030   20.4280 C   0  0  0  0  0  3  0  0  0  0  0  0
  -22.7640  -10.1950   20.2340 C   0  0  0  0  0  3  0  0  0  0  0  0
  -21.7270   -6.9030   21.4670 O   0  0  0  0  0  0  0  0  0  0  0  0
  -21.6700   -6.1810   22.6320 C   0  0  0  0  0  0  0  0  0  0  0  0
  -21.2010   -6.7460   23.8380 C   0  0  0  0  0  3  0  0  0  0  0  0
  -21.0930   -5.9480   24.9950 C   0  0  0  0  0  3  0  0  0  0  0  0
  -21.4450   -4.5860   24.9460 C   0  0  0  0  0  0  0  0  0  0  0  0
  -21.9090   -4.0200   23.7450 C   0  0  0  0  0  3  0  0  0  0  0  0
  -22.0180   -4.8150   22.5910 C   0  0  0  0  0  0  0  0  0  0  0  0
  -22.4440   -4.2600   21.4310 F   0  0  0  0  0  0  0  0  0  0  0  0
  -21.3370   -3.8170   26.0560 F   0  0  0  0  0  0  0  0  0  0  0  0
  -22.8030  -13.5470   21.2180 C   0  0  0  0  0  0  0  0  0  0  0  0
  -22.1160  -12.8300   22.1000 N   0  0  0  0  0  0  0  0  0  0  0  0
  -22.3450  -14.5870   20.7470 O   0  0  0  0  0  0  0  0  0  0  0  0
  -22.4990  -11.9890   22.5030 H   0  0  0  0  0  0  0  0  0  0  0  0
  -21.1910  -13.1260   22.3770 H   0  0  0  0  0  0  0  0  0  0  0  0
  -25.3800  -15.2320   20.2980 N   0  0  0  0  0  0  0  0  0  0  0  0
  -24.6180  -15.8780   20.4780 H   0  0  0  0  0  0  0  0  0  0  0  0
  -26.2050  -15.6870   19.9300 H   0  0  0  0  0  0  0  0  0  0  0  0
  -28.8620  -21.6440   20.5110 C   0  0  0  0  0  2  0  0  0  0  0  0
  -29.1490  -23.3200   20.3650 C   0  0  0  0  0  3  0  0  0  0  0  0
  -28.0300  -24.5810   20.4340 C   0  0  0  0  0  3  0  0  0  0  0  0
  -28.2970  -26.1210   20.3990 O   0  0  0  0  0  0  0  0  0  0  0  0
  -24.5600  -31.8210   23.2290 C   0  0  0  0  0  0  0  0  0  0  0  0
  -27.2270  -27.0890   20.3140 C   0  0  0  0  0  0  0  0  0  0  0  0
  -23.4020  -30.4030   21.5810 C   0  0  0  0  0  3  0  0  0  0  0  0
  -24.8870  -28.8200   20.2070 C   0  0  0  0  0  0  0  0  0  0  0  0
  -25.9570  -30.6820   21.4650 C   0  0  0  0  0  2  0  0  0  0  0  0
  -26.0510  -29.2810   20.8350 C   0  0  0  0  0  0  0  0  0  0  0  0
  -27.2230  -28.4320   20.8670 C   0  0  0  0  0  3  0  0  0  0  0  0
  -26.0350  -26.7320   19.6440 C   0  0  0  0  0  3  0  0  0  0  0  0
  -24.8920  -27.5590   19.5950 C   0  0  0  0  0  3  0  0  0  0  0  0
  -23.6550  -29.7110   20.2150 C   0  0  0  0  0  2  0  0  0  0  0  0
  -24.6590  -30.9900   22.1470 N   0  0  0  0  0  0  0  0  0  0  0  0
  -23.4620  -32.1060   23.7320 O   0  0  0  0  0  0  0  0  0  0  0  0
  -22.7080  -29.4020   22.5400 C   0  0  0  0  0  0  0  0  0  0  0  0
  -21.3820  -29.2310   22.3930 N   0  0  0  0  0  0  0  0  0  0  0  0
  -23.3670  -28.7820   23.3790 O   0  0  0  0  0  0  0  0  0  0  0  0
  -20.9070  -29.7840   21.6920 H   0  0  0  0  0  0  0  0  0  0  0  0
  -17.9880  -28.0560   22.8690 C   0  0  0  0  0  0  0  0  0  0  0  0
  -20.5470  -28.3010   23.1580 C   0  0  0  0  0  3  0  0  0  0  0  0
  -20.6440  -26.8670   22.5880 C   0  0  0  0  0  2  0  0  0  0  0  0
  -19.5490  -26.5500   21.5650 C   0  0  0  0  0  2  0  0  0  0  0  0
  -18.1610  -26.7050   22.1950 C   0  0  0  0  0  2  0  0  0  0  0  0
  -19.1080  -28.8120   23.3070 C   0  0  0  0  0  0  0  0  0  0  0  0
  -18.8910  -30.0760   23.8970 C   0  0  0  0  0  3  0  0  0  0  0  0
  -17.5870  -30.5840   24.0520 C   0  0  0  0  0  3  0  0  0  0  0  0
  -16.4820  -29.8250   23.6280 C   0  0  0  0  0  3  0  0  0  0  0  0
  -16.6830  -28.5630   23.0420 C   0  0  0  0  0  3  0  0  0  0  0  0
  -25.8230  -32.4700   23.8770 C   0  0  0  0  0  3  0  0  0  0  0  0
  -25.4980  -33.8710   24.1870 N   0  0  0  0  0  0  0  0  0  0  0  0
  -25.8450  -34.9210   23.4310 C   0  0  0  0  0  0  0  0  0  0  0  0
  -26.5400  -34.8120   22.4180 O   0  0  0  0  0  0  0  0  0  0  0  0
  -24.8820  -34.0290   24.9720 H   0  0  0  0  0  0  0  0  0  0  0  0
  -24.1310  -36.7180   23.0180 C   0  0  0  0  0  1  0  0  0  0  0  0
  -25.3450  -36.3120   23.8700 C   0  0  0  0  0  3  0  0  0  0  0  0
  -27.4490  -37.2040   24.7690 C   0  0  0  0  0  1  0  0  0  0  0  0
  -26.3820  -37.3640   23.7860 N   0  0  0  0  0  0  0  0  0  0  0  0
  -25.9720  -38.2860   23.9110 H   0  0  0  0  0  0  0  0  0  0  0  0
  -26.3070  -31.7160   25.1770 C   0  0  1  0  0  0  0  0  0  0  0  0
  -25.1860  -31.4880   26.2190 C   0  0  0  0  0  1  0  0  0  0  0  0
  -26.9060  -30.3350   24.8230 C   0  0  0  0  0  1  0  0  0  0  0  0
  -27.4350  -32.5240   25.8610 C   0  0  0  0  0  1  0  0  0  0  0  0
  1  2  2  0
  1 47  1  0
  2  9  1  0
  3  4  1  0
  3  5  1  0
  4  5  1  0
  4  1  1  0
  5  6  1  1
  7  5  1  0
  9  8  1  0
 10 11  1  0
 10  9  1  0
 12 17  1  0
 13 14  1  0
 13 12  1  0
 15 14  1  0
 15 22  1  0
 15 16  1  0
 17 11  1  0
 17 16  1  0
 18 11  2  0
 19 20  2  0
 20 39  1  0
 21 20  1  0
 21 24  1  0
 22 23  1  0
 22 19  1  0
 23 21  2  0
 24 25  1  0
 25 26  2  0
 27 30  1  0
 27 26  1  0
 28 27  2  0
 29 28  1  0
 29 24  2  0
 30 31  1  0
 31 32  1  0
 32 33  2  0
 34 33  1  0
 34 38  1  0
 35 34  2  0
 36 31  2  0
 36 35  1  0
 37 36  1  0
 39 40  1  0
 40 43  1  0
 40 42  1  0
 41 39  2  0
 44 19  1  0
 44 45  1  0
 46 44  1  0
 48 49  2  0
 48 47  1  0
 50 49  1  0
 51 62  2  0
 52 50  1  0
 52 57  1  0
 53 61  1  0
 53 63  1  0
 54 60  1  0
 54 56  1  0
 55 61  1  0
 56 57  2  0
 56 55  1  0
 58 52  2  0
 59 58  1  0
 59 54  2  0
 60 53  1  0
 61 51  1  0
 63 65  2  0
 64 63  1  0
 66 64  1  0
 67 76  2  0
 67 72  1  0
 68 64  1  0
 68 72  1  0
 69 68  1  0
 70 71  1  0
 70 69  1  0
 71 67  1  0
 72 73  2  0
 73 74  1  0
 75 74  2  0
 76 75  1  0
 77 51  1  0
 77 78  1  0
 77 87  1  0
 78 81  1  0
 79 83  1  0
 79 78  1  0
 80 79  2  0
 83 82  1  0
 85 83  1  0
 85 86  1  0
 85 84  1  0
 87 90  1  1
 87 88  1  0
 89 87  1  0
M  ISO  4  10 100  11 100  49 101  50 101
M  END
>  <TORSDO>  (8) 
F 22

>  <SCORE>  (8) 
-14.249

>  <name>  (8) 
8

>  <ligand_id>  (8) 
8

>  <original_smiles>  (8) 
[H]c1c([H])c([H])c2c(c1[H])C([H])([H])C([H])([H])C([H])([H])C2([H])N([H])C(=O)C1([H])N(C(=O)C([H])(N([H])C(=O)C([H])(N([H])C([H])([H])[H])C([H])([H])[H])C(C([H])([H])[H])(C([H])([H])[H])C([H])([H])[H])C([H])([H])c2c([H])c(OC([H])([H])C([H])([H])C([H])([H])C(=NC([H])(C([H])([H])[H])C([H])([H])C(=O)N3C([H])([H])C([H])([H])C([H])([H])C([H])(n4nc(-c5c([H])c([H])c(Oc6c([H])c([H])c(F)c([H])c6F)c([H])c5[H])c(C(=O)N([H])[H])c4N([H])[H])C3([H])[H])C3([H])C([H])([H])C3(C([H])([H])[H])C([H])([H])[H])c([H])c([H])c2C1([H])[H]

>  <smiles>  (8) 
[H]c1c([H])c([H])c2c(c1[H])C([H])([H])C([H])([H])C([H])([H])C2([H])N([H])C(=O)C1([H])N(C(=O)C([H])(N([H])C(=O)C([H])(N([H])C([H])([H])[H])C([H])([H])[H])C(C([H])([H])[H])(C([H])([H])[H])C([H])([H])[H])C([H])([H])c2c([H])c(OC([H])([H])C([H])([H])C([H])([H])C(=NC([H])(C([H])([H])[H])C([H])([H])C(=O)N3C([H])([H])C([H])([H])C([H])([H])C([H])(n4nc(-c5c([H])c([H])c(Oc6c([H])c([H])c(F)c([H])c6F)c([H])c5[H])c(C(=O)N([H])[H])c4N([H])[H])C3([H])[H])C3([H])C([H])([H])C3(C([H])([H])[H])C([H])([H])[H])c([H])c([H])c2C1([H])[H]

$$$$
9:0:0
     RDKit          3D

 85 92  0  0  1  0  0  0  0  0999 V2000
  -28.6510  -21.9410   20.2690 C   0  0  0  0  0  3  0  0  0  0  0  0
  -28.9060  -23.3490   20.2910 C   0  0  0  0  0  3  0  0  0  0  0  0
  -29.5710  -20.6150   20.3720 C   0  0  0  0  0  0  0  0  0  0  0  0
  -31.0570  -20.9310   20.4230 C   0  0  0  0  0  1  0  0  0  0  0  0
  -29.1980  -19.3060   20.3920 N   0  0  0  0  0  0  0  0  0  0  0  0
  -30.1500  -18.0270   20.4040 C   0  0  0  0  0  3  0  0  0  0  0  0
  -29.6050  -16.4320   20.5980 C   0  0  0  0  0  3  0  0  0  0  0  0
  -30.4660  -15.0190   20.3340 C   0  0  0  0  0  0  0  0  0  0  0  0
  -30.3700  -12.6700   19.3630 C   0  0  0  0  0  2  0  0  0  0  0  0
  -29.4230  -12.6530   18.1380 C   0  0  0  0  0  2  0  0  0  0  0  0
  -27.9630  -12.4320   18.5740 C   0  0  0  0  0  2  0  0  0  0  0  0
  -27.5660  -13.3360   19.7690 C   0  0  0  0  0  3  0  0  0  0  0  0
  -28.6290  -13.3240   20.8870 C   0  0  0  0  0  2  0  0  0  0  0  0
  -29.9050  -13.7400   20.2920 N   0  0  0  0  0  0  0  0  0  0  0  0
  -31.6580  -15.0970   20.0160 O   0  0  0  0  0  0  0  0  0  0  0  0
  -25.1890  -13.9030   20.5310 C   0  0  0  0  0  0  0  0  0  0  0  0
  -24.1280  -13.1230   20.9030 C   0  0  0  0  0  0  0  0  0  0  0  0
  -24.5970  -11.7730   20.8610 C   0  0  0  0  0  0  0  0  0  0  0  0
  -26.2320  -13.0290   20.2770 N   0  0  0  0  0  0  0  0  0  0  0  0
  -25.8870  -11.7420   20.5410 N   0  0  0  0  0  0  0  0  0  0  0  0
  -23.8750  -10.5070   21.0490 C   0  0  0  0  0  0  0  0  0  0  0  0
  -24.3180   -9.5330   21.9710 C   0  0  0  0  0  3  0  0  0  0  0  0
  -23.5940   -8.3340   22.1470 C   0  0  0  0  0  3  0  0  0  0  0  0
  -22.4140   -8.1000   21.4020 C   0  0  0  0  0  0  0  0  0  0  0  0
  -21.9910   -9.0630   20.4700 C   0  0  0  0  0  3  0  0  0  0  0  0
  -22.7150  -10.2530   20.2910 C   0  0  0  0  0  3  0  0  0  0  0  0
  -21.6620   -6.9530   21.4880 O   0  0  0  0  0  0  0  0  0  0  0  0
  -21.6260   -6.2010   22.6350 C   0  0  0  0  0  0  0  0  0  0  0  0
  -21.2050   -6.7430   23.8690 C   0  0  0  0  0  3  0  0  0  0  0  0
  -21.1150   -5.9160   25.0070 C   0  0  0  0  0  3  0  0  0  0  0  0
  -21.4390   -4.5490   24.9120 C   0  0  0  0  0  0  0  0  0  0  0  0
  -21.8530   -4.0060   23.6830 C   0  0  0  0  0  3  0  0  0  0  0  0
  -21.9430   -4.8300   22.5470 C   0  0  0  0  0  0  0  0  0  0  0  0
  -22.3230   -4.2980   21.3610 F   0  0  0  0  0  0  0  0  0  0  0  0
  -21.3460   -3.7540   26.0030 F   0  0  0  0  0  0  0  0  0  0  0  0
  -22.7310  -13.5940   21.1850 C   0  0  0  0  0  0  0  0  0  0  0  0
  -22.0120  -12.8940   22.0540 N   0  0  0  0  0  0  0  0  0  0  0  0
  -22.2870  -14.6190   20.6690 O   0  0  0  0  0  0  0  0  0  0  0  0
  -22.3850  -12.0650   22.4930 H   0  0  0  0  0  0  0  0  0  0  0  0
  -21.0760  -13.1920   22.2860 H   0  0  0  0  0  0  0  0  0  0  0  0
  -25.3470  -15.2750   20.3640 N   0  0  0  0  0  0  0  0  0  0  0  0
  -24.5820  -15.9290   20.4960 H   0  0  0  0  0  0  0  0  0  0  0  0
  -26.1990  -15.7230   20.0500 H   0  0  0  0  0  0  0  0  0  0  0  0
  -27.8920  -24.6410   20.0900 C   0  0  0  0  0  2  0  0  0  0  0  0
  -28.2300  -26.1590   20.2730 O   0  0  0  0  0  0  0  0  0  0  0  0
  -24.6330  -31.9060   23.2310 C   0  0  0  0  0  0  0  0  0  0  0  0
  -27.1920  -27.1680   20.2000 C   0  0  0  0  0  0  0  0  0  0  0  0
  -23.4310  -30.5200   21.5860 C   0  0  0  0  0  3  0  0  0  0  0  0
  -24.8750  -28.9400   20.1620 C   0  0  0  0  0  0  0  0  0  0  0  0
  -25.9870  -30.7670   21.4310 C   0  0  0  0  0  2  0  0  0  0  0  0
  -26.0570  -29.3740   20.7760 C   0  0  0  0  0  0  0  0  0  0  0  0
  -27.2160  -28.5050   20.7780 C   0  0  0  0  0  3  0  0  0  0  0  0
  -25.9820  -26.8450   19.5420 C   0  0  0  0  0  3  0  0  0  0  0  0
  -24.8520  -27.6910   19.5290 C   0  0  0  0  0  3  0  0  0  0  0  0
  -23.6530  -29.8450   20.2060 C   0  0  0  0  0  2  0  0  0  0  0  0
  -24.7040  -31.0850   22.1370 N   0  0  0  0  0  0  0  0  0  0  0  0
  -23.5470  -32.1970   23.7550 O   0  0  0  0  0  0  0  0  0  0  0  0
  -22.7420  -29.5150   22.5430 C   0  0  0  0  0  0  0  0  0  0  0  0
  -21.4120  -29.3560   22.4150 N   0  0  0  0  0  0  0  0  0  0  0  0
  -23.4070  -28.8810   23.3670 O   0  0  0  0  0  0  0  0  0  0  0  0
  -20.9320  -29.9180   21.7260 H   0  0  0  0  0  0  0  0  0  0  0  0
  -18.0200  -28.1850   22.9160 C   0  0  0  0  0  0  0  0  0  0  0  0
  -20.5810  -28.4230   23.1830 C   0  0  0  0  0  3  0  0  0  0  0  0
  -20.6690  -26.9930   22.6040 C   0  0  0  0  0  2  0  0  0  0  0  0
  -19.5640  -26.6830   21.5890 C   0  0  0  0  0  2  0  0  0  0  0  0
  -18.1840  -26.8370   22.2330 C   0  0  0  0  0  2  0  0  0  0  0  0
  -19.1450  -28.9370   23.3470 C   0  0  0  0  0  0  0  0  0  0  0  0
  -18.9360  -30.1970   23.9470 C   0  0  0  0  0  3  0  0  0  0  0  0
  -17.6350  -30.7070   24.1190 C   0  0  0  0  0  3  0  0  0  0  0  0
  -16.5250  -29.9530   23.7020 C   0  0  0  0  0  3  0  0  0  0  0  0
  -16.7170  -28.6940   23.1070 C   0  0  0  0  0  3  0  0  0  0  0  0
  -25.9120  -32.5330   23.8630 C   0  0  0  0  0  3  0  0  0  0  0  0
  -26.4180  -31.7550   25.1400 C   0  0  1  0  0  0  0  0  0  0  0  0
  -25.3170  -31.5220   26.2020 C   0  0  0  0  0  1  0  0  0  0  0  0
  -26.9940  -30.3750   24.7530 C   0  0  0  0  0  1  0  0  0  0  0  0
  -27.5710  -32.5410   25.8090 C   0  0  0  0  0  1  0  0  0  0  0  0
  -25.6050  -33.9320   24.2020 N   0  0  0  0  0  0  0  0  0  0  0  0
  -25.9220  -34.9910   23.4460 C   0  0  0  0  0  0  0  0  0  0  0  0
  -26.5720  -34.8930   22.4020 O   0  0  0  0  0  0  0  0  0  0  0  0
  -25.0230  -34.0810   25.0140 H   0  0  0  0  0  0  0  0  0  0  0  0
  -24.1770  -36.7810   23.1530 C   0  0  0  0  0  1  0  0  0  0  0  0
  -25.4470  -36.3780   23.9230 C   0  0  0  0  0  3  0  0  0  0  0  0
  -27.6030  -37.2710   24.6850 C   0  0  0  0  0  1  0  0  0  0  0  0
  -26.4710  -37.4340   23.7770 N   0  0  0  0  0  0  0  0  0  0  0  0
  -26.0670  -38.3530   23.9370 H   0  0  0  0  0  0  0  0  0  0  0  0
  1  2  2  0
  1  3  1  0
  3  5  2  0
  3  4  1  0
  5  6  1  0
  6  7  2  0
  8  7  1  0
  9 14  1  0
 10 11  1  0
 10  9  1  0
 12 11  1  0
 12 19  1  0
 12 13  1  0
 14  8  1  0
 14 13  1  0
 15  8  2  0
 16 17  2  0
 17 36  1  0
 18 17  1  0
 18 21  1  0
 19 16  1  0
 19 20  1  0
 20 18  2  0
 21 22  1  0
 22 23  2  0
 24 27  1  0
 24 23  1  0
 25 24  2  0
 26 25  1  0
 26 21  2  0
 27 28  1  0
 28 29  1  0
 29 30  2  0
 31 30  1  0
 31 35  1  0
 32 31  2  0
 33 28  2  0
 33 32  1  0
 34 33  1  0
 36 37  1  0
 37 40  1  0
 37 39  1  0
 38 36  2  0
 41 42  1  0
 41 16  1  0
 43 41  1  0
 44 45  1  0
 44  2  1  0
 46 57  2  0
 47 45  1  0
 47 52  1  0
 48 56  1  0
 48 58  1  0
 49 55  1  0
 49 51  1  0
 50 56  1  0
 51 52  2  0
 51 50  1  0
 53 47  2  0
 54 53  1  0
 54 49  2  0
 55 48  1  0
 56 46  1  0
 58 60  2  0
 59 58  1  0
 61 59  1  0
 62 71  2  0
 62 67  1  0
 63 59  1  0
 63 67  1  0
 64 63  1  0
 65 66  1  0
 65 64  1  0
 66 62  1  0
 67 68  2  0
 68 69  1  0
 70 69  2  0
 71 70  1  0
 72 46  1  0
 72 77  1  0
 72 73  1  0
 73 76  1  1
 73 74  1  0
 75 73  1  0
 77 80  1  0
 78 82  1  0
 78 77  1  0
 79 78  2  0
 82 81  1  0
 84 82  1  0
 84 85  1  0
 84 83  1  0
M  ISO  4   7 100   8 100  44 101  45 101
M  END
>  <TORSDO>  (9) 
F 20

>  <SCORE>  (9) 
-14.466

>  <name>  (9) 
9

>  <ligand_id>  (9) 
9

>  <original_smiles>  (9) 
[H]C(C(=NC([H])([H])C([H])([H])C(=O)N1C([H])([H])C([H])([H])C([H])([H])C([H])(n2nc(-c3c([H])c([H])c(Oc4c([H])c([H])c(F)c([H])c4F)c([H])c3[H])c(C(=O)N([H])[H])c2N([H])[H])C1([H])[H])C([H])([H])[H])=C([H])C([H])([H])Oc1c([H])c([H])c2c(c1[H])C([H])([H])N(C(=O)C([H])(N([H])C(=O)C([H])(N([H])C([H])([H])[H])C([H])([H])[H])C(C([H])([H])[H])(C([H])([H])[H])C([H])([H])[H])C([H])(C(=O)N([H])C1([H])c3c([H])c([H])c([H])c([H])c3C([H])([H])C([H])([H])C1([H])[H])C2([H])[H]

>  <smiles>  (9) 
[H]C(C(=NC([H])([H])C([H])([H])C(=O)N1C([H])([H])C([H])([H])C([H])([H])C([H])(n2nc(-c3c([H])c([H])c(Oc4c([H])c([H])c(F)c([H])c4F)c([H])c3[H])c(C(=O)N([H])[H])c2N([H])[H])C1([H])[H])C([H])([H])[H])=C([H])C([H])([H])Oc1c([H])c([H])c2c(c1[H])C([H])([H])N(C(=O)C([H])(N([H])C(=O)C([H])(N([H])C([H])([H])[H])C([H])([H])[H])C(C([H])([H])[H])(C([H])([H])[H])C([H])([H])[H])C([H])(C(=O)N([H])C1([H])c3c([H])c([H])c([H])c([H])c3C([H])([H])C([H])([H])C1([H])[H])C2([H])[H]

$$$$
10:0:0
     RDKit          3D

 85 91  0  0  1  0  0  0  0  0999 V2000
  -28.8120  -21.7710   20.4540 C   0  0  0  0  0  2  0  0  0  0  0  0
  -28.1910  -23.2590   20.0340 C   0  0  0  0  0  2  0  0  0  0  0  0
  -29.6580  -21.8370   21.7020 C   0  0  0  0  0  2  0  0  0  0  0  0
  -30.9090  -20.9510   21.4950 C   0  0  0  0  0  2  0  0  0  0  0  0
  -30.7990  -20.1250   20.1940 C   0  0  0  0  0  2  0  0  0  0  0  0
  -29.3170  -19.8240   19.9620 C   0  0  0  0  0  1  0  0  0  0  0  0
  -30.0520  -16.3240   20.1390 C   0  0  0  0  0  0  0  0  0  0  0  0
  -30.2950  -13.6350   19.3590 C   0  0  0  0  0  2  0  0  0  0  0  0
  -29.4600  -12.9730   18.2050 C   0  0  0  0  0  2  0  0  0  0  0  0
  -28.0960  -12.4840   18.7000 C   0  0  0  0  0  2  0  0  0  0  0  0
  -27.5150  -13.5050   19.6950 C   0  0  0  0  0  3  0  0  0  0  0  0
  -28.5170  -14.0480   20.7620 C   0  0  0  0  0  2  0  0  0  0  0  0
  -29.5870  -14.8560   20.0710 N   0  0  0  0  0  0  0  0  0  0  0  0
  -31.2840  -16.1570   19.9370 O   0  0  0  0  0  0  0  0  0  0  0  0
  -29.3270  -17.8590   20.2560 N   0  0  0  0  0  2  0  0  0  0  0  0
  -28.3720  -17.6320   20.4990 H   0  0  0  0  0  0  0  0  0  0  0  0
  -25.1710  -13.9650   20.5070 C   0  0  0  0  0  0  0  0  0  0  0  0
  -24.1270  -13.1690   20.8780 C   0  0  0  0  0  0  0  0  0  0  0  0
  -24.6100  -11.8240   20.8220 C   0  0  0  0  0  0  0  0  0  0  0  0
  -26.2230  -13.1140   20.2410 N   0  0  0  0  0  0  0  0  0  0  0  0
  -25.9020  -11.8130   20.4900 N   0  0  0  0  0  0  0  0  0  0  0  0
  -23.8900  -10.5550   21.0070 C   0  0  0  0  0  0  0  0  0  0  0  0
  -24.3180   -9.5860   21.9410 C   0  0  0  0  0  3  0  0  0  0  0  0
  -23.5900   -8.3900   22.1210 C   0  0  0  0  0  3  0  0  0  0  0  0
  -22.4170   -8.1510   21.3660 C   0  0  0  0  0  0  0  0  0  0  0  0
  -22.0050   -9.1080   20.4220 C   0  0  0  0  0  3  0  0  0  0  0  0
  -22.7350  -10.2960   20.2400 C   0  0  0  0  0  3  0  0  0  0  0  0
  -21.6610   -7.0060   21.4530 O   0  0  0  0  0  0  0  0  0  0  0  0
  -21.5940   -6.2730   22.6120 C   0  0  0  0  0  0  0  0  0  0  0  0
  -21.1110   -6.8290   23.8170 C   0  0  0  0  0  3  0  0  0  0  0  0
  -20.9930   -6.0220   24.9660 C   0  0  0  0  0  3  0  0  0  0  0  0
  -21.3480   -4.6610   24.9120 C   0  0  0  0  0  0  0  0  0  0  0  0
  -21.8240   -4.1050   23.7120 C   0  0  0  0  0  3  0  0  0  0  0  0
  -21.9430   -4.9090   22.5640 C   0  0  0  0  0  0  0  0  0  0  0  0
  -22.3820   -4.3620   21.4040 F   0  0  0  0  0  0  0  0  0  0  0  0
  -21.2290   -3.8840   26.0140 F   0  0  0  0  0  0  0  0  0  0  0  0
  -22.7290  -13.6330   21.1640 C   0  0  0  0  0  0  0  0  0  0  0  0
  -22.0160  -12.9280   22.0330 N   0  0  0  0  0  0  0  0  0  0  0  0
  -22.2830  -14.6600   20.6530 O   0  0  0  0  0  0  0  0  0  0  0  0
  -22.3920  -12.0990   22.4680 H   0  0  0  0  0  0  0  0  0  0  0  0
  -21.0780  -13.2220   22.2680 H   0  0  0  0  0  0  0  0  0  0  0  0
  -25.3100  -15.3390   20.3390 N   0  0  0  0  0  0  0  0  0  0  0  0
  -24.5330  -15.9790   20.4590 H   0  0  0  0  0  0  0  0  0  0  0  0
  -26.1450  -15.7890   19.9850 H   0  0  0  0  0  0  0  0  0  0  0  0
  -28.1280  -24.9900   20.3920 O   0  0  0  0  0  0  0  0  0  0  0  0
  -24.6930  -31.8300   23.1930 C   0  0  0  0  0  0  0  0  0  0  0  0
  -27.2080  -26.3870   20.2820 C   0  0  0  0  0  0  0  0  0  0  0  0
  -23.5250  -30.4110   21.5670 C   0  0  0  0  0  3  0  0  0  0  0  0
  -24.9790  -28.6730   20.1910 C   0  0  0  0  0  0  0  0  0  0  0  0
  -26.1180  -30.4330   21.5030 C   0  0  0  0  0  2  0  0  0  0  0  0
  -26.1760  -28.9530   20.8580 C   0  0  0  0  0  0  0  0  0  0  0  0
  -27.2470  -27.8490   20.8680 C   0  0  0  0  0  3  0  0  0  0  0  0
  -25.9790  -26.4250   19.5390 C   0  0  0  0  0  3  0  0  0  0  0  0
  -24.9440  -27.4400   19.5060 C   0  0  0  0  0  3  0  0  0  0  0  0
  -23.7890  -29.6730   20.2140 C   0  0  0  0  0  2  0  0  0  0  0  0
  -24.8070  -30.9360   22.1390 N   0  0  0  0  0  0  0  0  0  0  0  0
  -23.5910  -32.1520   23.6760 O   0  0  0  0  0  0  0  0  0  0  0  0
  -22.7670  -29.4780   22.5540 C   0  0  0  0  0  0  0  0  0  0  0  0
  -21.4310  -29.3430   22.4250 N   0  0  0  0  0  0  0  0  0  0  0  0
  -23.4020  -28.8670   23.4170 O   0  0  0  0  0  0  0  0  0  0  0  0
  -20.9630  -29.8860   21.7120 H   0  0  0  0  0  0  0  0  0  0  0  0
  -18.0320  -28.1390   22.9460 C   0  0  0  0  0  0  0  0  0  0  0  0
  -20.5930  -28.4190   23.2050 C   0  0  0  0  0  3  0  0  0  0  0  0
  -20.6950  -26.9780   22.6490 C   0  0  0  0  0  2  0  0  0  0  0  0
  -19.5970  -26.6460   21.6330 C   0  0  0  0  0  2  0  0  0  0  0  0
  -18.2150  -26.7880   22.2720 C   0  0  0  0  0  2  0  0  0  0  0  0
  -19.1480  -28.9100   23.3690 C   0  0  0  0  0  0  0  0  0  0  0  0
  -18.9180  -30.1690   23.9670 C   0  0  0  0  0  3  0  0  0  0  0  0
  -17.6100  -30.6570   24.1410 C   0  0  0  0  0  3  0  0  0  0  0  0
  -16.5090  -29.8830   23.7290 C   0  0  0  0  0  3  0  0  0  0  0  0
  -16.7220  -28.6260   23.1380 C   0  0  0  0  0  3  0  0  0  0  0  0
  -25.9380  -32.5040   23.8500 C   0  0  0  0  0  3  0  0  0  0  0  0
  -25.6050  -33.9140   24.1640 N   0  0  0  0  0  0  0  0  0  0  0  0
  -25.9360  -34.9800   23.4210 C   0  0  0  0  0  0  0  0  0  0  0  0
  -26.6000  -34.8810   22.3870 O   0  0  0  0  0  0  0  0  0  0  0  0
  -25.0100  -34.0630   24.9660 H   0  0  0  0  0  0  0  0  0  0  0  0
  -24.2000  -36.7870   23.1170 C   0  0  0  0  0  1  0  0  0  0  0  0
  -25.4610  -36.3730   23.8930 C   0  0  0  0  0  3  0  0  0  0  0  0
  -27.6100  -37.2800   24.6740 C   0  0  0  0  0  1  0  0  0  0  0  0
  -26.4900  -37.4310   23.7500 N   0  0  0  0  0  0  0  0  0  0  0  0
  -26.0830  -38.3510   23.8920 H   0  0  0  0  0  0  0  0  0  0  0  0
  -26.4090  -31.7760   25.1710 C   0  0  1  0  0  0  0  0  0  0  0  0
  -25.2810  -31.5780   26.2120 C   0  0  0  0  0  1  0  0  0  0  0  0
  -26.9980  -30.3840   24.8610 C   0  0  0  0  0  1  0  0  0  0  0  0
  -27.5410  -32.5880   25.8430 C   0  0  0  0  0  1  0  0  0  0  0  0
  1  3  1  0
  2 45  1  0
  2  1  1  0
  4  3  1  0
  5  4  1  0
  6  5  1  0
  7 15  1  0
  8 13  1  0
  9 10  1  0
  9  8  1  0
 11 10  1  0
 11 20  1  0
 11 12  1  0
 13  7  1  0
 13 12  1  0
 14  7  2  0
 15 16  1  0
 17 18  2  0
 18 37  1  0
 19 18  1  0
 19 22  1  0
 20 21  1  0
 20 17  1  0
 21 19  2  0
 22 23  1  0
 23 24  2  0
 25 28  1  0
 25 24  1  0
 26 25  2  0
 27 26  1  0
 27 22  2  0
 28 29  1  0
 29 30  1  0
 30 31  2  0
 32 31  1  0
 32 36  1  0
 33 32  2  0
 34 29  2  0
 34 33  1  0
 35 34  1  0
 37 38  1  0
 38 41  1  0
 38 40  1  0
 39 37  2  0
 42 43  1  0
 42 17  1  0
 44 42  1  0
 46 57  2  0
 47 45  1  0
 47 52  1  0
 48 56  1  0
 48 58  1  0
 49 55  1  0
 49 51  1  0
 50 56  1  0
 51 52  2  0
 51 50  1  0
 53 47  2  0
 54 53  1  0
 54 49  2  0
 55 48  1  0
 56 46  1  0
 58 60  2  0
 59 58  1  0
 61 59  1  0
 62 71  2  0
 62 67  1  0
 63 59  1  0
 63 67  1  0
 64 63  1  0
 65 66  1  0
 65 64  1  0
 66 62  1  0
 67 68  2  0
 68 69  1  0
 70 69  2  0
 71 70  1  0
 72 46  1  0
 72 73  1  0
 72 82  1  0
 73 76  1  0
 74 78  1  0
 74 73  1  0
 75 74  2  0
 78 77  1  0
 80 81  1  0
 80 78  1  0
 80 79  1  0
 82 85  1  1
 82 83  1  0
 84 82  1  0
M  ISO  4   2 101   7 100  15 100  45 101
M  END
>  <TORSDO>  (10) 
F 16

>  <SCORE>  (10) 
-16.662

>  <name>  (10) 
10

>  <ligand_id>  (10) 
10

>  <original_smiles>  (10) 
[H]C(Oc1c([H])c([H])c2c(c1[H])C([H])([H])N(C(=O)C([H])(N([H])C(=O)C([H])(N([H])C([H])([H])[H])C([H])([H])[H])C(C([H])([H])[H])(C([H])([H])[H])C([H])([H])[H])C([H])(C(=O)N([H])C1([H])c3c([H])c([H])c([H])c([H])c3C([H])([H])C([H])([H])C1([H])[H])C2([H])[H])=C1C([H])([H])C([H])([H])C([H])([H])C1([H])N([H])C(=O)N1C([H])([H])C([H])([H])C([H])([H])C([H])(n2nc(-c3c([H])c([H])c(Oc4c([H])c([H])c(F)c([H])c4F)c([H])c3[H])c(C(=O)N([H])[H])c2N([H])[H])C1([H])[H]

>  <smiles>  (10) 
[H]C(Oc1c([H])c([H])c2c(c1[H])C([H])([H])N(C(=O)C([H])(N([H])C(=O)C([H])(N([H])C([H])([H])[H])C([H])([H])[H])C(C([H])([H])[H])(C([H])([H])[H])C([H])([H])[H])C([H])(C(=O)N([H])C1([H])c3c([H])c([H])c([H])c([H])c3C([H])([H])C([H])([H])C1([H])[H])C2([H])[H])=C1C([H])([H])C([H])([H])C([H])([H])C1([H])N([H])C(=O)N1C([H])([H])C([H])([H])C([H])([H])C([H])(n2nc(-c3c([H])c([H])c(Oc4c([H])c([H])c(F)c([H])c4F)c([H])c3[H])c(C(=O)N([H])[H])c2N([H])[H])C1([H])[H]

$$$$
11:0:0
     RDKit          3D

 88 95  0  0  1  0  0  0  0  0999 V2000
  -28.9840  -21.8490   20.6640 N   0  0  0  0  0  4  0  0  0  0  0  0
  -28.0010  -21.6390   20.7320 H   0  0  0  0  0  0  0  0  0  0  0  0
  -29.3140  -21.9180   21.6140 H   0  0  0  0  0  0  0  0  0  0  0  0
  -31.1280  -20.8140   19.6230 C   0  0  0  0  0  1  0  0  0  0  0  0
  -29.6670  -20.5390   20.0500 C   0  0  0  0  0  3  0  0  0  0  0  0
  -30.3300  -19.2180   22.2190 C   0  0  0  0  0  1  0  0  0  0  0  0
  -29.6260  -19.0330   20.8550 C   0  0  0  0  0  3  0  0  0  0  0  0
  -29.9700  -16.4210   20.5290 C   0  0  0  0  0  3  0  0  0  0  0  0
  -30.2470  -17.7200   20.2210 N   0  0  0  0  0  0  0  0  0  0  0  0
  -30.7010  -15.0010   20.0470 C   0  0  0  0  0  0  0  0  0  0  0  0
  -30.4530  -12.6960   19.0130 C   0  0  0  0  0  2  0  0  0  0  0  0
  -29.4770  -12.7550   17.8140 C   0  0  0  0  0  2  0  0  0  0  0  0
  -28.0310  -12.5430   18.2950 C   0  0  0  0  0  2  0  0  0  0  0  0
  -27.6960  -13.4250   19.5270 C   0  0  0  0  0  3  0  0  0  0  0  0
  -28.7900  -13.3420   20.6090 C   0  0  0  0  0  2  0  0  0  0  0  0
  -30.0590  -13.7570   19.9940 N   0  0  0  0  0  0  0  0  0  0  0  0
  -31.8570  -15.0440   19.6060 O   0  0  0  0  0  0  0  0  0  0  0  0
  -25.3500  -14.0040   20.3630 C   0  0  0  0  0  0  0  0  0  0  0  0
  -24.2980  -13.2300   20.7700 C   0  0  0  0  0  0  0  0  0  0  0  0
  -24.7570  -11.8780   20.7090 C   0  0  0  0  0  0  0  0  0  0  0  0
  -26.3770  -13.1270   20.0690 N   0  0  0  0  0  0  0  0  0  0  0  0
  -26.0320  -11.8410   20.3440 N   0  0  0  0  0  0  0  0  0  0  0  0
  -24.0390  -10.6130   20.9160 C   0  0  0  0  0  0  0  0  0  0  0  0
  -24.4860   -9.6480   21.8470 C   0  0  0  0  0  3  0  0  0  0  0  0
  -23.7650   -8.4510   22.0410 C   0  0  0  0  0  3  0  0  0  0  0  0
  -22.5790   -8.2120   21.3070 C   0  0  0  0  0  0  0  0  0  0  0  0
  -22.1540   -9.1600   20.3580 C   0  0  0  0  0  3  0  0  0  0  0  0
  -22.8780  -10.3480   20.1610 C   0  0  0  0  0  3  0  0  0  0  0  0
  -21.8260   -7.0680   21.4140 O   0  0  0  0  0  0  0  0  0  0  0  0
  -21.7730   -6.3470   22.5810 C   0  0  0  0  0  0  0  0  0  0  0  0
  -21.3310   -6.9200   23.7930 C   0  0  0  0  0  3  0  0  0  0  0  0
  -21.2240   -6.1240   24.9510 C   0  0  0  0  0  3  0  0  0  0  0  0
  -21.5500   -4.7560   24.8990 C   0  0  0  0  0  0  0  0  0  0  0  0
  -21.9850   -4.1810   23.6930 C   0  0  0  0  0  3  0  0  0  0  0  0
  -22.0910   -4.9750   22.5340 C   0  0  0  0  0  0  0  0  0  0  0  0
  -22.4920   -4.4100   21.3710 F   0  0  0  0  0  0  0  0  0  0  0  0
  -21.4390   -3.9890   26.0090 F   0  0  0  0  0  0  0  0  0  0  0  0
  -22.9130  -13.7050   21.1020 C   0  0  0  0  0  0  0  0  0  0  0  0
  -22.2170  -13.0000   21.9890 N   0  0  0  0  0  0  0  0  0  0  0  0
  -22.4560  -14.7370   20.6090 O   0  0  0  0  0  0  0  0  0  0  0  0
  -22.6000  -12.1650   22.4070 H   0  0  0  0  0  0  0  0  0  0  0  0
  -21.2850  -13.2920   22.2500 H   0  0  0  0  0  0  0  0  0  0  0  0
  -25.5140  -15.3750   20.1910 N   0  0  0  0  0  0  0  0  0  0  0  0
  -24.7570  -16.0330   20.3330 H   0  0  0  0  0  0  0  0  0  0  0  0
  -26.3520  -15.8090   19.8290 H   0  0  0  0  0  0  0  0  0  0  0  0
  -29.1080  -23.3360   20.0880 C   0  0  0  0  0  3  0  0  0  0  0  0
  -28.1040  -24.6420   20.5310 C   0  0  0  0  0  3  0  0  0  0  0  0
  -28.3520  -26.1830   20.3450 O   0  0  0  0  0  0  0  0  0  0  0  0
  -24.6090  -31.8760   23.2360 C   0  0  0  0  0  0  0  0  0  0  0  0
  -27.2820  -27.1600   20.2820 C   0  0  0  0  0  0  0  0  0  0  0  0
  -23.4540  -30.4610   21.5800 C   0  0  0  0  0  3  0  0  0  0  0  0
  -24.9460  -28.9020   20.1830 C   0  0  0  0  0  0  0  0  0  0  0  0
  -26.0060  -30.7450   21.4790 C   0  0  0  0  0  2  0  0  0  0  0  0
  -26.1070  -29.3550   20.8240 C   0  0  0  0  0  0  0  0  0  0  0  0
  -27.2740  -28.4970   20.8610 C   0  0  0  0  0  3  0  0  0  0  0  0
  -26.0970  -26.8190   19.5920 C   0  0  0  0  0  3  0  0  0  0  0  0
  -24.9510  -27.6470   19.5550 C   0  0  0  0  0  3  0  0  0  0  0  0
  -23.7160  -29.7980   20.2020 C   0  0  0  0  0  2  0  0  0  0  0  0
  -24.7060  -31.0500   22.1530 N   0  0  0  0  0  0  0  0  0  0  0  0
  -23.5080  -32.1610   23.7370 O   0  0  0  0  0  0  0  0  0  0  0  0
  -22.7640  -29.4470   22.5250 C   0  0  0  0  0  0  0  0  0  0  0  0
  -21.4400  -29.2680   22.3650 N   0  0  0  0  0  0  0  0  0  0  0  0
  -23.4190  -28.8330   23.3730 O   0  0  0  0  0  0  0  0  0  0  0  0
  -20.9750  -29.8190   21.6550 H   0  0  0  0  0  0  0  0  0  0  0  0
  -18.0550  -28.0240   22.7540 C   0  0  0  0  0  0  0  0  0  0  0  0
  -20.6000  -28.3260   23.1080 C   0  0  0  0  0  3  0  0  0  0  0  0
  -20.7460  -26.8950   22.5460 C   0  0  0  0  0  2  0  0  0  0  0  0
  -19.6840  -26.5500   21.4960 C   0  0  0  0  0  2  0  0  0  0  0  0
  -18.2780  -26.6730   22.0940 C   0  0  0  0  0  2  0  0  0  0  0  0
  -19.1480  -28.8080   23.2150 C   0  0  0  0  0  0  0  0  0  0  0  0
  -18.8930  -30.0700   23.7910 C   0  0  0  0  0  3  0  0  0  0  0  0
  -17.5770  -30.5530   23.9110 C   0  0  0  0  0  3  0  0  0  0  0  0
  -16.4970  -29.7650   23.4760 C   0  0  0  0  0  3  0  0  0  0  0  0
  -16.7370  -28.5040   22.9000 C   0  0  0  0  0  3  0  0  0  0  0  0
  -25.8710  -32.5130   23.8940 C   0  0  0  0  0  3  0  0  0  0  0  0
  -25.5580  -33.9170   24.1930 N   0  0  0  0  0  0  0  0  0  0  0  0
  -25.9190  -34.9630   23.4340 C   0  0  0  0  0  0  0  0  0  0  0  0
  -26.6210  -34.8450   22.4270 O   0  0  0  0  0  0  0  0  0  0  0  0
  -24.9410  -34.0870   24.9750 H   0  0  0  0  0  0  0  0  0  0  0  0
  -24.2060  -36.7530   23.0150 C   0  0  0  0  0  1  0  0  0  0  0  0
  -25.4240  -36.3570   23.8630 C   0  0  0  0  0  3  0  0  0  0  0  0
  -27.5350  -37.2420   24.7460 C   0  0  0  0  0  1  0  0  0  0  0  0
  -26.4640  -37.4050   23.7680 N   0  0  0  0  0  0  0  0  0  0  0  0
  -26.0580  -38.3280   23.8950 H   0  0  0  0  0  0  0  0  0  0  0  0
  -26.3440  -31.7600   25.2000 C   0  0  1  0  0  0  0  0  0  0  0  0
  -25.2130  -31.5390   26.2300 C   0  0  0  0  0  1  0  0  0  0  0  0
  -26.9420  -30.3750   24.8550 C   0  0  0  0  0  1  0  0  0  0  0  0
  -27.4750  -32.5670   25.8850 C   0  0  0  0  0  1  0  0  0  0  0  0
  1  2  1  0
  1  3  1  0
  5  4  1  0
  5  1  1  0
  5  7  1  0
  7  6  1  0
  9  8  2  0
  9  7  1  0
 10  8  1  0
 11 16  1  0
 12 13  1  0
 12 11  1  0
 14 13  1  0
 14 21  1  0
 14 15  1  0
 16 10  1  0
 16 15  1  0
 17 10  2  0
 18 19  2  0
 19 38  1  0
 20 19  1  0
 20 23  1  0
 21 22  1  0
 21 18  1  0
 22 20  2  0
 23 24  1  0
 24 25  2  0
 26 29  1  0
 26 25  1  0
 27 26  2  0
 28 27  1  0
 28 23  2  0
 29 30  1  0
 30 31  1  0
 31 32  2  0
 33 32  1  0
 33 37  1  0
 34 33  2  0
 35 30  2  0
 35 34  1  0
 36 35  1  0
 38 39  1  0
 39 42  1  0
 39 41  1  0
 40 38  2  0
 43 44  1  0
 43 18  1  0
 45 43  1  0
 46 47  2  0
 46  1  1  0
 48 47  1  0
 49 60  2  0
 50 48  1  0
 50 55  1  0
 51 59  1  0
 51 61  1  0
 52 58  1  0
 52 54  1  0
 53 59  1  0
 54 55  2  0
 54 53  1  0
 56 50  2  0
 57 56  1  0
 57 52  2  0
 58 51  1  0
 59 49  1  0
 61 63  2  0
 62 61  1  0
 64 62  1  0
 65 74  2  0
 65 70  1  0
 66 62  1  0
 66 70  1  0
 67 66  1  0
 68 69  1  0
 68 67  1  0
 69 65  1  0
 70 71  2  0
 71 72  1  0
 73 72  2  0
 74 73  1  0
 75 49  1  0
 75 76  1  0
 75 85  1  0
 76 79  1  0
 77 81  1  0
 77 76  1  0
 78 77  2  0
 81 80  1  0
 83 81  1  0
 83 84  1  0
 83 82  1  0
 85 88  1  1
 85 86  1  0
 87 85  1  0
M  ISO  4   8 100  10 100  47 101  48 101
M  END
>  <TORSDO>  (11) 
F 21

>  <SCORE>  (11) 
-13.878

>  <name>  (11) 
11

>  <ligand_id>  (11) 
11

>  <original_smiles>  (11) 
[H]C(=NC([H])(C([H])([H])[H])C([H])(C([H])([H])[H])[N+]([H])([H])C([H])([H])C([H])([H])Oc1c([H])c([H])c2c(c1[H])C([H])([H])N(C(=O)C([H])(N([H])C(=O)C([H])(N([H])C([H])([H])[H])C([H])([H])[H])C(C([H])([H])[H])(C([H])([H])[H])C([H])([H])[H])C([H])(C(=O)N([H])C1([H])c3c([H])c([H])c([H])c([H])c3C([H])([H])C([H])([H])C1([H])[H])C2([H])[H])C(=O)N1C([H])([H])C([H])([H])C([H])([H])C([H])(n2nc(-c3c([H])c([H])c(Oc4c([H])c([H])c(F)c([H])c4F)c([H])c3[H])c(C(=O)N([H])[H])c2N([H])[H])C1([H])[H]

>  <smiles>  (11) 
[H]C(=NC([H])(C([H])([H])[H])C([H])(C([H])([H])[H])[N+]([H])([H])C([H])([H])C([H])([H])Oc1c([H])c([H])c2c(c1[H])C([H])([H])N(C(=O)C([H])(N([H])C(=O)C([H])(N([H])C([H])([H])[H])C([H])([H])[H])C(C([H])([H])[H])(C([H])([H])[H])C([H])([H])[H])C([H])(C(=O)N([H])C1([H])c3c([H])c([H])c([H])c([H])c3C([H])([H])C([H])([H])C1([H])[H])C2([H])[H])C(=O)N1C([H])([H])C([H])([H])C([H])([H])C([H])(n2nc(-c3c([H])c([H])c(Oc4c([H])c([H])c(F)c([H])c4F)c([H])c3[H])c(C(=O)N([H])[H])c2N([H])[H])C1([H])[H]

$$$$
12:0:0
     RDKit          3D

 84 89  0  0  1  0  0  0  0  0999 V2000
  -28.7650  -21.8650   20.3840 C   0  0  0  0  0  2  0  0  0  0  0  0
  -29.9240  -21.8670   21.3630 C   0  0  0  0  0  2  0  0  0  0  0  0
  -29.9200  -20.2780   21.4120 C   0  0  0  0  0  2  0  0  0  0  0  0
  -29.3710  -19.8590   20.0170 C   0  0  0  0  0  1  0  0  0  0  0  0
  -28.0310  -23.1200   20.1240 N   0  0  0  0  0  1  0  0  0  0  0  0
  -30.0510  -16.3560   20.0560 C   0  0  0  0  0  0  0  0  0  0  0  0
  -30.2960  -13.6800   19.2400 C   0  0  0  0  0  2  0  0  0  0  0  0
  -29.4380  -13.0120   18.1040 C   0  0  0  0  0  2  0  0  0  0  0  0
  -28.0890  -12.5120   18.6310 C   0  0  0  0  0  2  0  0  0  0  0  0
  -27.5260  -13.5240   19.6440 C   0  0  0  0  0  3  0  0  0  0  0  0
  -28.5500  -14.0670   20.6890 C   0  0  0  0  0  2  0  0  0  0  0  0
  -29.5920  -14.8890   19.9710 N   0  0  0  0  0  0  0  0  0  0  0  0
  -31.2850  -16.1960   19.8610 O   0  0  0  0  0  0  0  0  0  0  0  0
  -29.3160  -17.8840   20.1740 N   0  0  0  0  0  2  0  0  0  0  0  0
  -28.3440  -17.6580   20.3360 H   0  0  0  0  0  0  0  0  0  0  0  0
  -25.2020  -13.9640   20.5280 C   0  0  0  0  0  0  0  0  0  0  0  0
  -24.1710  -13.1590   20.9140 C   0  0  0  0  0  0  0  0  0  0  0  0
  -24.6570  -11.8180   20.8260 C   0  0  0  0  0  0  0  0  0  0  0  0
  -26.2500  -13.1210   20.2220 N   0  0  0  0  0  0  0  0  0  0  0  0
  -25.9390  -11.8160   20.4590 N   0  0  0  0  0  0  0  0  0  0  0  0
  -23.9460  -10.5420   21.0110 C   0  0  0  0  0  0  0  0  0  0  0  0
  -24.3940   -9.5690   21.9310 C   0  0  0  0  0  3  0  0  0  0  0  0
  -23.6740   -8.3670   22.1110 C   0  0  0  0  0  3  0  0  0  0  0  0
  -22.4910   -8.1290   21.3710 C   0  0  0  0  0  0  0  0  0  0  0  0
  -22.0610   -9.0910   20.4410 C   0  0  0  0  0  3  0  0  0  0  0  0
  -22.7810  -10.2840   20.2590 C   0  0  0  0  0  3  0  0  0  0  0  0
  -21.7430   -6.9800   21.4620 O   0  0  0  0  0  0  0  0  0  0  0  0
  -21.6850   -6.2450   22.6190 C   0  0  0  0  0  0  0  0  0  0  0  0
  -21.2000   -6.7940   23.8260 C   0  0  0  0  0  3  0  0  0  0  0  0
  -21.0920   -5.9860   24.9740 C   0  0  0  0  0  3  0  0  0  0  0  0
  -21.4590   -4.6270   24.9180 C   0  0  0  0  0  0  0  0  0  0  0  0
  -21.9380   -4.0780   23.7160 C   0  0  0  0  0  3  0  0  0  0  0  0
  -22.0470   -4.8840   22.5690 C   0  0  0  0  0  0  0  0  0  0  0  0
  -22.4870   -4.3420   21.4080 F   0  0  0  0  0  0  0  0  0  0  0  0
  -21.3500   -3.8480   26.0190 F   0  0  0  0  0  0  0  0  0  0  0  0
  -22.7800  -13.6140   21.2420 C   0  0  0  0  0  0  0  0  0  0  0  0
  -22.0930  -12.8980   22.1230 N   0  0  0  0  0  0  0  0  0  0  0  0
  -22.3160  -14.6440   20.7540 O   0  0  0  0  0  0  0  0  0  0  0  0
  -22.4840  -12.0660   22.5390 H   0  0  0  0  0  0  0  0  0  0  0  0
  -21.1610  -13.1850   22.3870 H   0  0  0  0  0  0  0  0  0  0  0  0
  -25.3330  -15.3410   20.3740 N   0  0  0  0  0  0  0  0  0  0  0  0
  -24.5580  -15.9780   20.5250 H   0  0  0  0  0  0  0  0  0  0  0  0
  -26.1550  -15.7980   20.0040 H   0  0  0  0  0  0  0  0  0  0  0  0
  -28.1590  -25.0520   20.3500 O   0  0  0  0  0  1  0  0  0  0  0  0
  -24.7210  -31.8800   23.2130 C   0  0  0  0  0  0  0  0  0  0  0  0
  -27.1980  -26.4200   20.3090 C   0  0  0  0  0  0  0  0  0  0  0  0
  -23.5390  -30.4620   21.5950 C   0  0  0  0  0  3  0  0  0  0  0  0
  -24.9770  -28.7120   20.2200 C   0  0  0  0  0  0  0  0  0  0  0  0
  -26.1310  -30.4730   21.5180 C   0  0  0  0  0  2  0  0  0  0  0  0
  -26.1780  -28.9910   20.8790 C   0  0  0  0  0  0  0  0  0  0  0  0
  -27.2460  -27.8850   20.8850 C   0  0  0  0  0  3  0  0  0  0  0  0
  -25.9640  -26.4590   19.5730 C   0  0  0  0  0  3  0  0  0  0  0  0
  -24.9330  -27.4760   19.5420 C   0  0  0  0  0  3  0  0  0  0  0  0
  -23.7920  -29.7180   20.2440 C   0  0  0  0  0  2  0  0  0  0  0  0
  -24.8250  -30.9830   22.1600 N   0  0  0  0  0  0  0  0  0  0  0  0
  -23.6220  -32.2070   23.7000 O   0  0  0  0  0  0  0  0  0  0  0  0
  -22.7820  -29.5330   22.5870 C   0  0  0  0  0  0  0  0  0  0  0  0
  -21.4460  -29.3930   22.4570 N   0  0  0  0  0  0  0  0  0  0  0  0
  -23.4180  -28.9310   23.4550 O   0  0  0  0  0  0  0  0  0  0  0  0
  -20.9780  -29.9280   21.7400 H   0  0  0  0  0  0  0  0  0  0  0  0
  -18.0510  -28.1770   22.9760 C   0  0  0  0  0  0  0  0  0  0  0  0
  -20.6100  -28.4710   23.2410 C   0  0  0  0  0  3  0  0  0  0  0  0
  -20.7200  -27.0270   22.6970 C   0  0  0  0  0  2  0  0  0  0  0  0
  -19.6280  -26.6810   21.6800 C   0  0  0  0  0  2  0  0  0  0  0  0
  -18.2410  -26.8230   22.3140 C   0  0  0  0  0  2  0  0  0  0  0  0
  -19.1630  -28.9580   23.3950 C   0  0  0  0  0  0  0  0  0  0  0  0
  -18.9260  -30.2210   23.9820 C   0  0  0  0  0  3  0  0  0  0  0  0
  -17.6140  -30.7040   24.1480 C   0  0  0  0  0  3  0  0  0  0  0  0
  -16.5190  -29.9230   23.7390 C   0  0  0  0  0  3  0  0  0  0  0  0
  -16.7390  -28.6610   23.1590 C   0  0  0  0  0  3  0  0  0  0  0  0
  -25.9710  -32.5510   23.8610 C   0  0  0  0  0  3  0  0  0  0  0  0
  -25.6370  -33.9540   24.1960 N   0  0  0  0  0  0  0  0  0  0  0  0
  -25.9420  -35.0290   23.4540 C   0  0  0  0  0  0  0  0  0  0  0  0
  -26.5800  -34.9440   22.4030 O   0  0  0  0  0  0  0  0  0  0  0  0
  -25.0610  -34.0920   25.0140 H   0  0  0  0  0  0  0  0  0  0  0  0
  -24.1810  -36.8220   23.2180 C   0  0  0  0  0  1  0  0  0  0  0  0
  -25.4700  -36.4160   23.9500 C   0  0  0  0  0  3  0  0  0  0  0  0
  -27.6340  -37.3360   24.6680 C   0  0  0  0  0  1  0  0  0  0  0  0
  -26.4830  -37.4820   23.7820 N   0  0  0  0  0  0  0  0  0  0  0  0
  -26.0730  -38.3980   23.9450 H   0  0  0  0  0  0  0  0  0  0  0  0
  -26.4590  -31.8070   25.1670 C   0  0  1  0  0  0  0  0  0  0  0  0
  -25.3420  -31.5830   26.2160 C   0  0  0  0  0  1  0  0  0  0  0  0
  -27.0600  -30.4250   24.8340 C   0  0  0  0  0  1  0  0  0  0  0  0
  -27.5900  -32.6190   25.8410 C   0  0  0  0  0  1  0  0  0  0  0  0
  1  2  1  0
  2  3  1  0
  4  3  1  0
  5  1  1  0
  6 14  1  0
  7 12  1  0
  8  9  1  0
  8  7  1  0
 10  9  1  0
 10 19  1  0
 10 11  1  0
 12  6  1  0
 12 11  1  0
 13  6  2  0
 14 15  1  0
 16 17  2  0
 17 36  1  0
 18 17  1  0
 18 21  1  0
 19 20  1  0
 19 16  1  0
 20 18  2  0
 21 22  1  0
 22 23  2  0
 24 27  1  0
 24 23  1  0
 25 24  2  0
 26 25  1  0
 26 21  2  0
 27 28  1  0
 28 29  1  0
 29 30  2  0
 31 30  1  0
 31 35  1  0
 32 31  2  0
 33 28  2  0
 33 32  1  0
 34 33  1  0
 36 37  1  0
 37 40  1  0
 37 39  1  0
 38 36  2  0
 41 42  1  0
 41 16  1  0
 43 41  1  0
 45 56  2  0
 46 44  1  0
 46 51  1  0
 47 55  1  0
 47 57  1  0
 48 54  1  0
 48 50  1  0
 49 55  1  0
 50 51  2  0
 50 49  1  0
 52 46  2  0
 53 52  1  0
 53 48  2  0
 54 47  1  0
 55 45  1  0
 57 59  2  0
 58 57  1  0
 60 58  1  0
 61 70  2  0
 61 66  1  0
 62 58  1  0
 62 66  1  0
 63 62  1  0
 64 65  1  0
 64 63  1  0
 65 61  1  0
 66 67  2  0
 67 68  1  0
 69 68  2  0
 70 69  1  0
 71 45  1  0
 71 72  1  0
 71 81  1  0
 72 75  1  0
 73 77  1  0
 73 72  1  0
 74 73  2  0
 77 76  1  0
 79 80  1  0
 79 77  1  0
 79 78  1  0
 81 84  1  1
 81 82  1  0
 83 81  1  0
M  ISO  4   5 101   6 100  14 100  44 101
M  END
>  <TORSDO>  (12) 
F 16

>  <SCORE>  (12) 
-16.492

>  <name>  (12) 
12

>  <ligand_id>  (12) 
12

>  <original_smiles>  (12) 
[H]c1c([H])c([H])c2c(c1[H])C([H])([H])C([H])([H])C([H])([H])C2([H])N([H])C(=O)C1([H])N(C(=O)C([H])(N([H])C(=O)C([H])(N([H])C([H])([H])[H])C([H])([H])[H])C(C([H])([H])[H])(C([H])([H])[H])C([H])([H])[H])C([H])([H])c2c([H])c(ON=C3C([H])([H])C([H])([H])C3([H])N([H])C(=O)N3C([H])([H])C([H])([H])C([H])([H])C([H])(n4nc(-c5c([H])c([H])c(Oc6c([H])c([H])c(F)c([H])c6F)c([H])c5[H])c(C(=O)N([H])[H])c4N([H])[H])C3([H])[H])c([H])c([H])c2C1([H])[H]

>  <smiles>  (12) 
[H]c1c([H])c([H])c2c(c1[H])C([H])([H])C([H])([H])C([H])([H])C2([H])N([H])C(=O)C1([H])N(C(=O)C([H])(N([H])C(=O)C([H])(N([H])C([H])([H])[H])C([H])([H])[H])C(C([H])([H])[H])(C([H])([H])[H])C([H])([H])[H])C([H])([H])c2c([H])c(ON=C3C([H])([H])C([H])([H])C3([H])N([H])C(=O)N3C([H])([H])C([H])([H])C([H])([H])C([H])(n4nc(-c5c([H])c([H])c(Oc6c([H])c([H])c(F)c([H])c6F)c([H])c5[H])c(C(=O)N([H])[H])c4N([H])[H])C3([H])[H])c([H])c([H])c2C1([H])[H]

$$$$
13:0:0
     RDKit          3D

 94103  0  0  1  0  0  0  0  0999 V2000
  -29.9790  -21.1760   19.8380 C   0  0  0  0  0  0  0  0  0  0  0  0
  -30.6110  -22.2780   19.3930 N   0  0  0  0  0  0  0  0  0  0  0  0
  -28.7570  -21.1610   20.0170 O   0  0  0  0  0  0  0  0  0  0  0  0
  -31.6170  -22.2430   19.2790 H   0  0  0  0  0  0  0  0  0  0  0  0
  -31.3890  -19.8210   21.5040 C   0  0  0  0  0  2  0  0  0  0  0  0
  -30.4650  -18.8800   22.2900 C   0  0  0  0  0  2  0  0  0  0  0  0
  -30.1490  -17.5660   19.2120 C   0  0  0  0  0  2  0  0  0  0  0  0
  -30.7840  -19.8870   20.0880 C   0  0  0  0  0  3  0  0  0  0  0  0
  -30.6530  -16.9030   20.4970 C   0  0  0  0  0  3  0  0  0  0  0  0
  -29.8290  -17.9620   21.2520 C   0  0  0  0  0  3  0  0  0  0  0  0
  -29.8320  -18.7510   20.0120 N   0  0  2  0  0  4  0  0  0  0  0  0
  -28.9260  -19.1550   19.8100 H   0  0  0  0  0  0  0  0  0  0  0  0
  -30.8520  -14.4650   20.0660 C   0  0  0  0  0  0  0  0  0  0  0  0
  -30.4240  -12.3320   18.9140 C   0  0  0  0  0  2  0  0  0  0  0  0
  -29.4190  -12.5730   17.7710 C   0  0  0  0  0  2  0  0  0  0  0  0
  -27.9750  -12.4450   18.2900 C   0  0  0  0  0  2  0  0  0  0  0  0
  -27.7260  -13.2720   19.5800 C   0  0  0  0  0  3  0  0  0  0  0  0
  -28.8470  -13.0290   20.6190 C   0  0  0  0  0  2  0  0  0  0  0  0
  -30.1400  -13.3100   19.9750 N   0  0  0  0  0  0  0  0  0  0  0  0
  -31.9340  -14.6350   19.4990 O   0  0  0  0  0  0  0  0  0  0  0  0
  -30.2300  -15.5000   20.6570 N   0  0  0  0  0  0  0  0  0  0  0  0
  -29.3470  -15.3070   21.1070 H   0  0  0  0  0  0  0  0  0  0  0  0
  -25.3900  -13.9000   20.4640 C   0  0  0  0  0  0  0  0  0  0  0  0
  -24.3330  -13.1340   20.8780 C   0  0  0  0  0  0  0  0  0  0  0  0
  -24.7610  -11.7760   20.7660 C   0  0  0  0  0  0  0  0  0  0  0  0
  -26.4010  -13.0080   20.1360 N   0  0  0  0  0  0  0  0  0  0  0  0
  -26.0280  -11.7240   20.3750 N   0  0  0  0  0  0  0  0  0  0  0  0
  -24.0230  -10.5210   20.9570 C   0  0  0  0  0  0  0  0  0  0  0  0
  -24.4530   -9.5450   21.8830 C   0  0  0  0  0  3  0  0  0  0  0  0
  -23.7160   -8.3550   22.0630 C   0  0  0  0  0  3  0  0  0  0  0  0
  -22.5340   -8.1320   21.3170 C   0  0  0  0  0  0  0  0  0  0  0  0
  -22.1210   -9.0970   20.3820 C   0  0  0  0  0  3  0  0  0  0  0  0
  -22.8590  -10.2780   20.1990 C   0  0  0  0  0  3  0  0  0  0  0  0
  -21.7710   -6.9930   21.4060 O   0  0  0  0  0  0  0  0  0  0  0  0
  -21.6660   -6.2850   22.5780 C   0  0  0  0  0  0  0  0  0  0  0  0
  -21.1330   -6.8610   23.7510 C   0  0  0  0  0  3  0  0  0  0  0  0
  -20.9800   -6.0780   24.9120 C   0  0  0  0  0  3  0  0  0  0  0  0
  -21.3500   -4.7200   24.9010 C   0  0  0  0  0  0  0  0  0  0  0  0
  -21.8770   -4.1440   23.7320 C   0  0  0  0  0  3  0  0  0  0  0  0
  -22.0320   -4.9240   22.5730 C   0  0  0  0  0  0  0  0  0  0  0  0
  -22.5200   -4.3590   21.4420 F   0  0  0  0  0  0  0  0  0  0  0  0
  -21.1940   -3.9640   26.0130 F   0  0  0  0  0  0  0  0  0  0  0  0
  -22.9670  -13.6250   21.2590 C   0  0  0  0  0  0  0  0  0  0  0  0
  -22.2880  -12.9160   22.1540 N   0  0  0  0  0  0  0  0  0  0  0  0
  -22.5120  -14.6720   20.7990 O   0  0  0  0  0  0  0  0  0  0  0  0
  -22.6700  -12.0680   22.5460 H   0  0  0  0  0  0  0  0  0  0  0  0
  -21.3750  -13.2260   22.4520 H   0  0  0  0  0  0  0  0  0  0  0  0
  -25.5690  -15.2740   20.3180 N   0  0  0  0  0  0  0  0  0  0  0  0
  -24.8120  -15.9310   20.4760 H   0  0  0  0  0  0  0  0  0  0  0  0
  -26.3820  -15.7000   19.8940 H   0  0  0  0  0  0  0  0  0  0  0  0
  -29.9200  -23.4760   18.9020 C   0  0  0  0  0  2  0  0  0  0  0  0
  -29.6520  -24.5440   19.9860 C   0  0  0  0  0  2  0  0  0  0  0  0
  -28.4470  -25.4230   19.6010 C   0  0  0  0  0  2  0  0  0  0  0  0
  -28.3570  -26.6250   20.3760 O   0  0  0  0  0  0  0  0  0  0  0  0
  -24.5840  -31.8880   23.3240 C   0  0  0  0  0  0  0  0  0  0  0  0
  -27.1820  -27.3570   20.3250 C   0  0  0  0  0  0  0  0  0  0  0  0
  -23.3670  -30.4840   21.6930 C   0  0  0  0  0  3  0  0  0  0  0  0
  -24.8070  -28.9040   20.3030 C   0  0  0  0  0  0  0  0  0  0  0  0
  -25.9010  -30.7940   21.5160 C   0  0  0  0  0  2  0  0  0  0  0  0
  -25.9690  -29.4120   20.8980 C   0  0  0  0  0  0  0  0  0  0  0  0
  -27.1520  -28.6420   20.9150 C   0  0  0  0  0  3  0  0  0  0  0  0
  -25.9970  -26.8720   19.7150 C   0  0  0  0  0  3  0  0  0  0  0  0
  -24.8150  -27.6320   19.7150 C   0  0  0  0  0  3  0  0  0  0  0  0
  -23.5770  -29.7810   20.3260 C   0  0  0  0  0  2  0  0  0  0  0  0
  -24.6350  -31.0690   22.2360 N   0  0  0  0  0  0  0  0  0  0  0  0
  -23.5020  -32.1910   23.8480 O   0  0  0  0  0  0  0  0  0  0  0  0
  -22.6900  -29.4860   22.6620 C   0  0  0  0  0  0  0  0  0  0  0  0
  -21.3770  -29.2740   22.4790 N   0  0  0  0  0  0  0  0  0  0  0  0
  -23.3450  -28.9060   23.5330 O   0  0  0  0  0  0  0  0  0  0  0  0
  -20.9090  -29.7960   21.7520 H   0  0  0  0  0  0  0  0  0  0  0  0
  -18.0190  -27.9890   22.8210 C   0  0  0  0  0  0  0  0  0  0  0  0
  -20.5420  -28.3520   23.2480 C   0  0  0  0  0  3  0  0  0  0  0  0
  -20.7280  -26.8950   22.7640 C   0  0  0  0  0  2  0  0  0  0  0  0
  -19.7110  -26.4770   21.6980 C   0  0  0  0  0  2  0  0  0  0  0  0
  -18.2840  -26.6110   22.2390 C   0  0  0  0  0  2  0  0  0  0  0  0
  -19.0800  -28.8140   23.2790 C   0  0  0  0  0  0  0  0  0  0  0  0
  -18.7810  -30.1000   23.7770 C   0  0  0  0  0  3  0  0  0  0  0  0
  -17.4540  -30.5650   23.8210 C   0  0  0  0  0  3  0  0  0  0  0  0
  -16.4050  -29.7390   23.3810 C   0  0  0  0  0  3  0  0  0  0  0  0
  -16.6880  -28.4520   22.8880 C   0  0  0  0  0  3  0  0  0  0  0  0
  -25.8750  -32.5080   23.9440 C   0  0  0  0  0  3  0  0  0  0  0  0
  -26.3600  -31.7610   25.2460 C   0  0  1  0  0  0  0  0  0  0  0  0
  -25.2470  -31.5610   26.3010 C   0  0  0  0  0  1  0  0  0  0  0  0
  -26.9310  -30.3660   24.8970 C   0  0  0  0  0  1  0  0  0  0  0  0
  -27.5070  -32.5590   25.9110 C   0  0  0  0  0  1  0  0  0  0  0  0
  -25.5950  -33.9210   24.2250 N   0  0  0  0  0  0  0  0  0  0  0  0
  -25.9160  -34.9360   23.4140 C   0  0  0  0  0  0  0  0  0  0  0  0
  -26.5530  -34.7850   22.3680 O   0  0  0  0  0  0  0  0  0  0  0  0
  -25.0320  -34.1190   25.0400 H   0  0  0  0  0  0  0  0  0  0  0  0
  -24.1800  -36.7230   23.0700 C   0  0  0  0  0  1  0  0  0  0  0  0
  -25.4600  -36.3480   23.8330 C   0  0  0  0  0  3  0  0  0  0  0  0
  -27.6320  -37.2640   24.5210 C   0  0  0  0  0  1  0  0  0  0  0  0
  -26.4900  -37.3860   23.6190 N   0  0  0  0  0  0  0  0  0  0  0  0
  -26.0930  -38.3140   23.7330 H   0  0  0  0  0  0  0  0  0  0  0  0
  1  3  2  0
  2  1  1  0
  4  2  1  0
  5  6  1  0
  7 11  1  0
  7  9  1  0
  8  1  1  0
  8  5  1  0
  9 21  1  0
  9 10  1  0
 10  6  1  0
 11 12  1  6
 11  8  1  0
 11 10  1  0
 13 21  1  0
 14 19  1  0
 15 16  1  0
 15 14  1  0
 17 16  1  0
 17 26  1  0
 17 18  1  0
 19 13  1  0
 19 18  1  0
 20 13  2  0
 21 22  1  0
 23 24  2  0
 24 43  1  0
 25 24  1  0
 25 28  1  0
 26 27  1  0
 26 23  1  0
 27 25  2  0
 28 29  1  0
 29 30  2  0
 31 34  1  0
 31 30  1  0
 32 31  2  0
 33 32  1  0
 33 28  2  0
 34 35  1  0
 35 36  1  0
 36 37  2  0
 38 37  1  0
 38 42  1  0
 39 38  2  0
 40 35  2  0
 40 39  1  0
 41 40  1  0
 43 44  1  0
 44 47  1  0
 44 46  1  0
 45 43  2  0
 48 23  1  0
 48 49  1  0
 50 48  1  0
 51  2  1  0
 51 52  1  0
 53 52  1  0
 53 54  1  0
 55 66  2  0
 56 54  1  0
 56 61  1  0
 57 65  1  0
 57 67  1  0
 58 64  1  0
 58 60  1  0
 59 65  1  0
 60 61  2  0
 60 59  1  0
 62 63  1  0
 62 56  2  0
 63 58  2  0
 64 57  1  0
 65 55  1  0
 67 69  2  0
 68 67  1  0
 70 68  1  0
 71 80  2  0
 71 76  1  0
 72 68  1  0
 72 76  1  0
 73 72  1  0
 74 75  1  0
 74 73  1  0
 75 71  1  0
 76 77  2  0
 77 78  1  0
 79 78  2  0
 80 79  1  0
 81 55  1  0
 81 86  1  0
 81 82  1  0
 82 85  1  1
 82 83  1  0
 84 82  1  0
 86 89  1  0
 87 91  1  0
 87 86  1  0
 88 87  2  0
 91 90  1  0
 93 94  1  0
 93 91  1  0
 93 92  1  0
M  ISO  4  13 100  21 100  53 101  54 101
M  END
>  <TORSDO>  (13) 
F 20

>  <SCORE>  (13) 
-13.296

>  <name>  (13) 
13

>  <ligand_id>  (13) 
13

>  <original_smiles>  (13) 
[H]c1c([H])c([H])c2c(c1[H])C([H])([H])C([H])([H])C([H])([H])C2([H])N([H])C(=O)C1([H])N(C(=O)C([H])(N([H])C(=O)C([H])(N([H])C([H])([H])[H])C([H])([H])[H])C(C([H])([H])[H])(C([H])([H])[H])C([H])([H])[H])C([H])([H])c2c([H])c(OC([H])([H])C([H])([H])C([H])([H])N([H])C(=O)C3([H])C([H])([H])C([H])([H])C4([H])C([H])(N([H])C(=O)N5C([H])([H])C([H])([H])C([H])([H])C([H])(n6nc(-c7c([H])c([H])c(Oc8c([H])c([H])c(F)c([H])c8F)c([H])c7[H])c(C(=O)N([H])[H])c6N([H])[H])C5([H])[H])C([H])([H])[N+]34[H])c([H])c([H])c2C1([H])[H]

>  <smiles>  (13) 
[H]c1c([H])c([H])c2c(c1[H])C([H])([H])C([H])([H])C([H])([H])C2([H])N([H])C(=O)C1([H])N(C(=O)C([H])(N([H])C(=O)C([H])(N([H])C([H])([H])[H])C([H])([H])[H])C(C([H])([H])[H])(C([H])([H])[H])C([H])([H])[H])C([H])([H])c2c([H])c(OC([H])([H])C([H])([H])C([H])([H])N([H])C(=O)C3([H])C([H])([H])C([H])([H])C4([H])C([H])(N([H])C(=O)N5C([H])([H])C([H])([H])C([H])([H])C([H])(n6nc(-c7c([H])c([H])c(Oc8c([H])c([H])c(F)c([H])c8F)c([H])c7[H])c(C(=O)N([H])[H])c6N([H])[H])C5([H])[H])C([H])([H])[N+]34[H])c([H])c([H])c2C1([H])[H]

$$$$
14:0:0
     RDKit          3D

 84 88  0  0  1  0  0  0  0  0999 V2000
  -29.8920  -16.6650   20.2590 C   0  0  0  0  0  2  0  0  0  0  0  0
  -30.2970  -13.8780   19.5310 C   0  0  0  0  0  2  0  0  0  0  0  0
  -29.5710  -13.0000   18.4240 C   0  0  0  0  0  2  0  0  0  0  0  0
  -28.2420  -12.4190   18.9110 C   0  0  0  0  0  2  0  0  0  0  0  0
  -27.5610  -13.4610   19.8080 C   0  0  0  0  0  3  0  0  0  0  0  0
  -28.4870  -14.1930   20.8520 C   0  0  0  0  0  2  0  0  0  0  0  0
  -29.4830  -15.1230   20.1450 N   0  0  0  0  0  0  0  0  0  0  0  0
  -31.1500  -16.4440   20.2220 O   0  0  0  0  0  1  0  0  0  0  0  0
  -29.1250  -20.3870   20.2640 C   0  0  0  0  0  2  0  0  0  0  0  0
  -29.0680  -18.5790   20.2440 N   0  0  0  0  0  2  0  0  0  0  0  0
  -30.4190  -20.7310   20.3630 N   0  0  0  0  0  0  0  0  0  0  0  0
  -28.0660  -18.4850   20.1920 H   0  0  0  0  0  0  0  0  0  0  0  0
  -30.6770  -21.7060   20.3890 H   0  0  0  0  0  0  0  0  0  0  0  0
  -31.1480  -20.0390   20.4100 H   0  0  0  0  0  0  0  0  0  0  0  0
  -25.1860  -13.8660   20.5400 C   0  0  0  0  0  0  0  0  0  0  0  0
  -24.1440  -13.0600   20.8870 C   0  0  0  0  0  0  0  0  0  0  0  0
  -24.6480  -11.7230   20.8690 C   0  0  0  0  0  0  0  0  0  0  0  0
  -26.2650  -13.0350   20.3300 N   0  0  0  0  0  0  0  0  0  0  0  0
  -25.9540  -11.7290   20.5790 N   0  0  0  0  0  0  0  0  0  0  0  0
  -23.9340  -10.4470   21.0520 C   0  0  0  0  0  0  0  0  0  0  0  0
  -24.3580   -9.4860   21.9970 C   0  0  0  0  0  3  0  0  0  0  0  0
  -23.6320   -8.2860   22.1770 C   0  0  0  0  0  3  0  0  0  0  0  0
  -22.4670   -8.0380   21.4120 C   0  0  0  0  0  0  0  0  0  0  0  0
  -22.0600   -8.9880   20.4590 C   0  0  0  0  0  3  0  0  0  0  0  0
  -22.7860  -10.1780   20.2780 C   0  0  0  0  0  3  0  0  0  0  0  0
  -21.7160   -6.8890   21.5000 O   0  0  0  0  0  0  0  0  0  0  0  0
  -21.6660   -6.1450   22.6520 C   0  0  0  0  0  0  0  0  0  0  0  0
  -21.2460   -6.7010   23.8790 C   0  0  0  0  0  3  0  0  0  0  0  0
  -21.1420   -5.8850   25.0240 C   0  0  0  0  0  3  0  0  0  0  0  0
  -21.4490   -4.5130   24.9430 C   0  0  0  0  0  0  0  0  0  0  0  0
  -21.8620   -3.9560   23.7190 C   0  0  0  0  0  3  0  0  0  0  0  0
  -21.9670   -4.7700   22.5780 C   0  0  0  0  0  0  0  0  0  0  0  0
  -22.3440   -4.2220   21.3960 F   0  0  0  0  0  0  0  0  0  0  0  0
  -21.3430   -3.7280   26.0400 F   0  0  0  0  0  0  0  0  0  0  0  0
  -22.7320  -13.5110   21.1140 C   0  0  0  0  0  0  0  0  0  0  0  0
  -21.9990  -12.8200   21.9780 N   0  0  0  0  0  0  0  0  0  0  0  0
  -22.2890  -14.5190   20.5620 O   0  0  0  0  0  0  0  0  0  0  0  0
  -22.3720  -12.0080   22.4460 H   0  0  0  0  0  0  0  0  0  0  0  0
  -21.0500  -13.1080   22.1750 H   0  0  0  0  0  0  0  0  0  0  0  0
  -25.3070  -15.2400   20.3450 N   0  0  0  0  0  0  0  0  0  0  0  0
  -24.5110  -15.8650   20.4150 H   0  0  0  0  0  0  0  0  0  0  0  0
  -26.1400  -15.6940   19.9970 H   0  0  0  0  0  0  0  0  0  0  0  0
  -28.0930  -22.4090   20.1960 C   0  0  0  0  0 15  0  0  0  0  0  0
  -28.1190  -24.5310   20.2830 O   0  0  0  0  0  1  0  0  0  0  0  0
  -24.7140  -31.7510   23.0640 C   0  0  0  0  0  0  0  0  0  0  0  0
  -27.2170  -26.0440   20.2400 C   0  0  0  0  0  0  0  0  0  0  0  0
  -23.5560  -30.3070   21.4570 C   0  0  0  0  0  3  0  0  0  0  0  0
  -25.0100  -28.4960   20.1250 C   0  0  0  0  0  0  0  0  0  0  0  0
  -26.1570  -30.2510   21.4230 C   0  0  0  0  0  2  0  0  0  0  0  0
  -26.2160  -28.7350   20.7930 C   0  0  0  0  0  0  0  0  0  0  0  0
  -27.2660  -27.5630   20.7980 C   0  0  0  0  0  3  0  0  0  0  0  0
  -25.9720  -26.1900   19.5060 C   0  0  0  0  0  3  0  0  0  0  0  0
  -24.9680  -27.2530   19.4530 C   0  0  0  0  0  3  0  0  0  0  0  0
  -23.8330  -29.5290   20.1240 C   0  0  0  0  0  2  0  0  0  0  0  0
  -24.8430  -30.8200   22.0320 N   0  0  0  0  0  0  0  0  0  0  0  0
  -23.6060  -32.0890   23.5270 O   0  0  0  0  0  0  0  0  0  0  0  0
  -22.7700  -29.4120   22.4590 C   0  0  0  0  0  0  0  0  0  0  0  0
  -21.4290  -29.3150   22.3480 N   0  0  0  0  0  0  0  0  0  0  0  0
  -23.3940  -28.7910   23.3220 O   0  0  0  0  0  0  0  0  0  0  0  0
  -20.9660  -29.8640   21.6360 H   0  0  0  0  0  0  0  0  0  0  0  0
  -18.0080  -28.1770   22.9250 C   0  0  0  0  0  0  0  0  0  0  0  0
  -20.5800  -28.4070   23.1370 C   0  0  0  0  0  3  0  0  0  0  0  0
  -20.6410  -26.9670   22.5740 C   0  0  0  0  0  2  0  0  0  0  0  0
  -19.5210  -26.6630   21.5750 C   0  0  0  0  0  2  0  0  0  0  0  0
  -18.1510  -26.8290   22.2380 C   0  0  0  0  0  2  0  0  0  0  0  0
  -19.1470  -28.9260   23.3310 C   0  0  0  0  0  0  0  0  0  0  0  0
  -18.9520  -30.1810   23.9440 C   0  0  0  0  0  3  0  0  0  0  0  0
  -17.6550  -30.6920   24.1480 C   0  0  0  0  0  3  0  0  0  0  0  0
  -16.5330  -29.9430   23.7510 C   0  0  0  0  0  3  0  0  0  0  0  0
  -16.7110  -28.6870   23.1460 C   0  0  0  0  0  3  0  0  0  0  0  0
  -25.9440  -32.4480   23.7270 C   0  0  0  0  0  3  0  0  0  0  0  0
  -25.5830  -33.8460   24.0770 N   0  0  0  0  0  0  0  0  0  0  0  0
  -25.9000  -34.9410   23.3710 C   0  0  0  0  0  0  0  0  0  0  0  0
  -26.5660  -34.8850   22.3360 O   0  0  0  0  0  0  0  0  0  0  0  0
  -24.9820  -33.9600   24.8800 H   0  0  0  0  0  0  0  0  0  0  0  0
  -24.1400  -36.7370   23.1270 C   0  0  0  0  0  1  0  0  0  0  0  0
  -25.4090  -36.3160   23.8850 C   0  0  0  0  0  3  0  0  0  0  0  0
  -27.5520  -37.2240   24.6810 C   0  0  0  0  0  1  0  0  0  0  0  0
  -26.4220  -37.3920   23.7720 N   0  0  0  0  0  0  0  0  0  0  0  0
  -26.0040  -38.3000   23.9500 H   0  0  0  0  0  0  0  0  0  0  0  0
  -26.4380  -31.7080   25.0330 C   0  0  1  0  0  0  0  0  0  0  0  0
  -25.3260  -31.4850   26.0880 C   0  0  0  0  0  1  0  0  0  0  0  0
  -27.0380  -30.3260   24.7010 C   0  0  0  0  0  1  0  0  0  0  0  0
  -27.5720  -32.5220   25.7010 C   0  0  0  0  0  1  0  0  0  0  0  0
  2  7  1  0
  3  4  1  0
  3  2  1  0
  5  4  1  0
  5 18  1  0
  5  6  1  0
  7  1  1  0
  7  6  1  0
  8  1  1  0
  9 11  1  0
 10  9  1  0
 11 13  1  0
 11 14  1  0
 12 10  1  0
 15 16  2  0
 16 35  1  0
 17 16  1  0
 17 20  1  0
 18 15  1  0
 18 19  1  0
 19 17  2  0
 20 21  1  0
 21 22  2  0
 23 26  1  0
 23 22  1  0
 24 23  2  0
 25 24  1  0
 25 20  2  0
 26 27  1  0
 27 28  1  0
 28 29  2  0
 30 29  1  0
 30 34  1  0
 31 30  2  0
 32 27  2  0
 32 31  1  0
 33 32  1  0
 35 36  1  0
 36 39  1  0
 36 38  1  0
 37 35  2  0
 40 41  1  0
 40 15  1  0
 42 40  1  0
 45 56  2  0
 46 44  1  0
 46 51  1  0
 47 55  1  0
 47 57  1  0
 48 50  1  0
 49 55  1  0
 50 51  2  0
 50 49  1  0
 52 46  2  0
 53 52  1  0
 53 48  2  0
 54 48  1  0
 54 47  1  0
 55 45  1  0
 57 59  2  0
 58 57  1  0
 60 58  1  0
 61 70  2  0
 61 66  1  0
 62 58  1  0
 62 66  1  0
 63 62  1  0
 64 65  1  0
 64 63  1  0
 65 61  1  0
 66 67  2  0
 67 68  1  0
 69 68  2  0
 70 69  1  0
 71 45  1  0
 71 72  1  0
 71 81  1  0
 72 75  1  0
 73 77  1  0
 73 72  1  0
 74 73  2  0
 77 76  1  0
 79 77  1  0
 79 80  1  0
 79 78  1  0
 81 84  1  1
 81 82  1  0
 83 81  1  0
M  ISO  4   1 100  10 100  43 101  44 101
M  END
>  <TORSDO>  (14) 
F 16

>  <SCORE>  (14) 
-16.136

>  <name>  (14) 
14

>  <ligand_id>  (14) 
14

>  <original_smiles>  (14) 
[H]c1c([H])c([H])c2c(c1[H])C([H])([H])C([H])([H])C([H])([H])C2([H])N([H])C(=O)C1([H])N(C(=O)C([H])(N([H])C(=O)C([H])(N([H])C([H])([H])[H])C([H])([H])[H])C(C([H])([H])[H])(C([H])([H])[H])C([H])([H])[H])C([H])([H])c2c([H])c(OC([H])([H])C(N([H])C(=O)N3C([H])([H])C([H])([H])C([H])([H])C([H])(n4nc(-c5c([H])c([H])c(Oc6c([H])c([H])c(F)c([H])c6F)c([H])c5[H])c(C(=O)N([H])[H])c4N([H])[H])C3([H])[H])=[N+]([H])[H])c([H])c([H])c2C1([H])[H]

>  <smiles>  (14) 
[H]c1c([H])c([H])c2c(c1[H])C([H])([H])C([H])([H])C([H])([H])C2([H])N([H])C(=O)C1([H])N(C(=O)C([H])(N([H])C(=O)C([H])(N([H])C([H])([H])[H])C([H])([H])[H])C(C([H])([H])[H])(C([H])([H])[H])C([H])([H])[H])C([H])([H])c2c([H])c(OC([H])([H])C(N([H])C(=O)N3C([H])([H])C([H])([H])C([H])([H])C([H])(n4nc(-c5c([H])c([H])c(Oc6c([H])c([H])c(F)c([H])c6F)c([H])c5[H])c(C(=O)N([H])[H])c4N([H])[H])C3([H])[H])=[N+]([H])[H])c([H])c([H])c2C1([H])[H]

$$$$
15:0:0
     RDKit          3D

 98108  0  0  1  0  0  0  0  0999 V2000
  -29.0560  -17.6810   20.5780 C   0  0  0  0  0  0  0  0  0  0  0  0
  -31.2460  -17.3310   19.1850 C   0  0  0  0  0  2  0  0  0  0  0  0
  -30.9350  -18.7170   18.6070 C   0  0  0  0  0  2  0  0  0  0  0  0
  -27.3060  -19.6520   18.0690 C   0  0  0  0  0  2  0  0  0  0  0  0
  -29.1970  -21.3490   18.3210 C   0  0  0  0  0  2  0  0  0  0  0  0
  -27.6180  -20.8270   20.2690 C   0  0  0  0  0  2  0  0  0  0  0  0
  -30.4550  -16.9920   20.4870 C   0  0  0  0  0  3  0  0  0  0  0  0
  -28.7630  -19.9820   17.7120 C   0  0  0  0  0  3  0  0  0  0  0  0
  -29.4230  -18.7790   18.3990 C   0  0  0  0  0  3  0  0  0  0  0  0
  -27.4680  -19.4250   19.5830 C   0  0  0  0  0  3  0  0  0  0  0  0
  -28.1470  -21.9250   19.2960 C   0  0  0  0  0  3  0  0  0  0  0  0
  -28.7100  -18.6230   19.6620 N   0  0  0  0  0  0  0  0  0  0  0  0
  -28.3000  -17.3560   21.4990 O   0  0  0  0  0  0  0  0  0  0  0  0
  -31.0840  -14.5230   20.2640 C   0  0  0  0  0  0  0  0  0  0  0  0
  -30.8040  -12.3810   19.0820 C   0  0  0  0  0  2  0  0  0  0  0  0
  -29.8410  -12.6290   17.8990 C   0  0  0  0  0  2  0  0  0  0  0  0
  -28.3700  -12.4990   18.3490 C   0  0  0  0  0  2  0  0  0  0  0  0
  -28.0650  -13.3100   19.6380 C   0  0  0  0  0  3  0  0  0  0  0  0
  -29.1270  -13.0240   20.7240 C   0  0  0  0  0  2  0  0  0  0  0  0
  -30.4450  -13.3300   20.1470 N   0  0  0  0  0  0  0  0  0  0  0  0
  -32.2340  -14.7110   19.8560 O   0  0  0  0  0  0  0  0  0  0  0  0
  -30.2670  -15.5360   20.6240 N   0  0  0  0  0  0  0  0  0  0  0  0
  -29.3540  -15.2630   20.9610 H   0  0  0  0  0  0  0  0  0  0  0  0
  -25.7000  -13.9780   20.3920 C   0  0  0  0  0  0  0  0  0  0  0  0
  -24.6130  -13.2290   20.7540 C   0  0  0  0  0  0  0  0  0  0  0  0
  -25.0320  -11.8630   20.6890 C   0  0  0  0  0  0  0  0  0  0  0  0
  -26.7120  -13.0690   20.1260 N   0  0  0  0  0  0  0  0  0  0  0  0
  -26.3170  -11.7930   20.3590 N   0  0  0  0  0  0  0  0  0  0  0  0
  -24.2750  -10.6150   20.8620 C   0  0  0  0  0  0  0  0  0  0  0  0
  -24.7010   -9.6100   21.7570 C   0  0  0  0  0  3  0  0  0  0  0  0
  -23.9500   -8.4260   21.9100 C   0  0  0  0  0  3  0  0  0  0  0  0
  -22.7550   -8.2410   21.1770 C   0  0  0  0  0  0  0  0  0  0  0  0
  -22.3430   -9.2370   20.2740 C   0  0  0  0  0  3  0  0  0  0  0  0
  -23.0980  -10.4130   20.1150 C   0  0  0  0  0  3  0  0  0  0  0  0
  -21.9760   -7.1120   21.2440 O   0  0  0  0  0  0  0  0  0  0  0  0
  -21.9450   -6.3260   22.3680 C   0  0  0  0  0  0  0  0  0  0  0  0
  -21.5700   -6.8420   23.6280 C   0  0  0  0  0  3  0  0  0  0  0  0
  -21.4820   -5.9860   24.7420 C   0  0  0  0  0  3  0  0  0  0  0  0
  -21.7630   -4.6120   24.6000 C   0  0  0  0  0  0  0  0  0  0  0  0
  -22.1340   -4.0970   23.3450 C   0  0  0  0  0  3  0  0  0  0  0  0
  -22.2200   -4.9500   22.2340 C   0  0  0  0  0  0  0  0  0  0  0  0
  -22.5570   -4.4450   21.0220 F   0  0  0  0  0  0  0  0  0  0  0  0
  -21.6730   -3.7870   25.6700 F   0  0  0  0  0  0  0  0  0  0  0  0
  -23.2350  -13.7380   21.0550 C   0  0  0  0  0  0  0  0  0  0  0  0
  -22.5080  -13.0530   21.9290 N   0  0  0  0  0  0  0  0  0  0  0  0
  -22.8110  -14.7760   20.5460 O   0  0  0  0  0  0  0  0  0  0  0  0
  -22.8580  -12.2100   22.3590 H   0  0  0  0  0  0  0  0  0  0  0  0
  -21.5810  -13.3800   22.1690 H   0  0  0  0  0  0  0  0  0  0  0  0
  -25.9060  -15.3490   20.2490 N   0  0  0  0  0  0  0  0  0  0  0  0
  -26.7780  -15.7960   19.9970 H   0  0  0  0  0  0  0  0  0  0  0  0
  -25.1520  -16.0110   20.3930 H   0  0  0  0  0  0  0  0  0  0  0  0
  -28.6830  -24.3470   19.4000 C   0  0  0  0  0  0  0  0  0  0  0  0
  -28.6300  -23.1300   19.9730 N   0  0  0  0  0  0  0  0  0  0  0  0
  -28.4740  -24.5070   18.1950 O   0  0  0  0  0  0  0  0  0  0  0  0
  -28.9100  -23.0570   20.9420 H   0  0  0  0  0  0  0  0  0  0  0  0
  -28.4530  -25.4450   21.7180 C   0  0  0  0  0  1  0  0  0  0  0  0
  -29.0510  -25.5460   20.3010 C   0  0  0  0  0  3  0  0  0  0  0  0
  -28.8190  -26.8260   19.6640 O   0  0  0  0  0  0  0  0  0  0  0  0
  -24.7850  -31.6150   23.0690 C   0  0  0  0  0  0  0  0  0  0  0  0
  -27.5920  -27.4540   19.7700 C   0  0  0  0  0  0  0  0  0  0  0  0
  -23.6260  -30.2600   21.3540 C   0  0  0  0  0  3  0  0  0  0  0  0
  -25.1340  -28.8540   19.8670 C   0  0  0  0  0  0  0  0  0  0  0  0
  -26.1380  -30.7300   21.1740 C   0  0  0  0  0  2  0  0  0  0  0  0
  -26.2750  -29.4020   20.4640 C   0  0  0  0  0  0  0  0  0  0  0  0
  -27.5090  -28.7150   20.4040 C   0  0  0  0  0  3  0  0  0  0  0  0
  -26.4210  -26.9150   19.1880 C   0  0  0  0  0  3  0  0  0  0  0  0
  -25.2000  -27.6060   19.2310 C   0  0  0  0  0  3  0  0  0  0  0  0
  -23.8600  -29.6600   19.9450 C   0  0  0  0  0  2  0  0  0  0  0  0
  -24.8690  -30.8770   21.9260 N   0  0  0  0  0  0  0  0  0  0  0  0
  -23.6960  -31.8200   23.6220 O   0  0  0  0  0  0  0  0  0  0  0  0
  -23.0190  -29.1660   22.2620 C   0  0  0  0  0  0  0  0  0  0  0  0
  -21.6980  -28.9540   22.1410 N   0  0  0  0  0  0  0  0  0  0  0  0
  -23.7310  -28.5130   23.0290 O   0  0  0  0  0  0  0  0  0  0  0  0
  -21.1820  -29.5400   21.5000 H   0  0  0  0  0  0  0  0  0  0  0  0
  -18.3640  -27.6510   22.6150 C   0  0  0  0  0  0  0  0  0  0  0  0
  -20.9190  -27.9520   22.8650 C   0  0  0  0  0  3  0  0  0  0  0  0
  -21.0450  -26.5630   22.1960 C   0  0  0  0  0  2  0  0  0  0  0  0
  -19.9330  -26.2780   21.1810 C   0  0  0  0  0  2  0  0  0  0  0  0
  -18.5600  -26.3500   21.8550 C   0  0  0  0  0  2  0  0  0  0  0  0
  -19.4710  -28.4110   23.0770 C   0  0  0  0  0  0  0  0  0  0  0  0
  -19.2330  -29.6310   23.7460 C   0  0  0  0  0  3  0  0  0  0  0  0
  -17.9190  -30.0900   23.9610 C   0  0  0  0  0  3  0  0  0  0  0  0
  -16.8270  -29.3240   23.5180 C   0  0  0  0  0  3  0  0  0  0  0  0
  -17.0500  -28.1080   22.8500 C   0  0  0  0  0  3  0  0  0  0  0  0
  -26.0490  -32.2640   23.7200 C   0  0  0  0  0  3  0  0  0  0  0  0
  -25.7000  -33.6430   24.0820 N   0  0  0  0  0  0  0  0  0  0  0  0
  -26.0300  -34.7250   23.3630 C   0  0  0  0  0  0  0  0  0  0  0  0
  -26.7270  -34.6670   22.3470 O   0  0  0  0  0  0  0  0  0  0  0  0
  -25.0840  -33.7620   24.8720 H   0  0  0  0  0  0  0  0  0  0  0  0
  -24.2680  -36.4830   23.0270 C   0  0  0  0  0  1  0  0  0  0  0  0
  -25.5020  -36.0870   23.8500 C   0  0  0  0  0  3  0  0  0  0  0  0
  -27.5940  -36.9990   24.7540 C   0  0  0  0  0  1  0  0  0  0  0  0
  -26.5110  -37.1660   23.7890 N   0  0  0  0  0  0  0  0  0  0  0  0
  -26.0800  -38.0740   23.9480 H   0  0  0  0  0  0  0  0  0  0  0  0
  -26.5760  -31.4730   24.9810 C   0  0  1  0  0  0  0  0  0  0  0  0
  -25.4830  -31.1850   26.0350 C   0  0  0  0  0  1  0  0  0  0  0  0
  -27.1910  -30.1190   24.5580 C   0  0  0  0  0  1  0  0  0  0  0  0
  -27.7050  -32.2770   25.6700 C   0  0  0  0  0  1  0  0  0  0  0  0
  1 13  2  0
  2  7  1  0
  3  2  1  0
  5 11  1  0
  7  1  1  0
  7 22  1  0
  8  4  1  0
  8  5  1  0
  8  9  1  0
  9  3  1  0
  9 12  1  0
 10  4  1  0
 10 12  1  0
 10  6  1  0
 11 53  1  0
 11  6  1  0
 12  1  1  0
 14 22  1  0
 15 20  1  0
 16 17  1  0
 16 15  1  0
 18 17  1  0
 18 27  1  0
 18 19  1  0
 20 14  1  0
 20 19  1  0
 21 14  2  0
 22 23  1  0
 24 25  2  0
 25 44  1  0
 26 25  1  0
 26 29  1  0
 27 28  1  0
 27 24  1  0
 28 26  2  0
 29 30  1  0
 30 31  2  0
 32 35  1  0
 32 31  1  0
 33 32  2  0
 34 33  1  0
 34 29  2  0
 35 36  1  0
 36 37  1  0
 37 38  2  0
 39 38  1  0
 39 43  1  0
 40 39  2  0
 41 36  2  0
 41 40  1  0
 42 41  1  0
 44 45  1  0
 45 48  1  0
 45 47  1  0
 46 44  2  0
 49 24  1  0
 49 51  1  0
 50 49  1  0
 52 53  1  0
 52 57  1  0
 53 55  1  0
 54 52  2  0
 57 56  1  0
 58 60  1  0
 58 57  1  0
 59 70  2  0
 60 65  1  0
 61 69  1  0
 61 71  1  0
 62 68  1  0
 62 64  1  0
 63 69  1  0
 64 63  1  0
 65 64  2  0
 66 67  1  0
 66 60  2  0
 67 62  2  0
 68 61  1  0
 69 59  1  0
 71 73  2  0
 72 71  1  0
 74 72  1  0
 75 84  2  0
 75 80  1  0
 76 72  1  0
 76 80  1  0
 77 76  1  0
 78 79  1  0
 78 77  1  0
 79 75  1  0
 80 81  2  0
 81 82  1  0
 83 82  2  0
 84 83  1  0
 85 59  1  0
 85 86  1  0
 85 95  1  0
 86 89  1  0
 87 91  1  0
 87 86  1  0
 88 87  2  0
 91 90  1  0
 93 91  1  0
 93 94  1  0
 93 92  1  0
 95 98  1  1
 95 96  1  0
 97 95  1  0
M  ISO  4  14 100  22 100  57 101  58 101
M  END
>  <TORSDO>  (15) 
F 18

>  <SCORE>  (15) 
-13.081

>  <name>  (15) 
15

>  <ligand_id>  (15) 
15

>  <original_smiles>  (15) 
[H]c1c([H])c([H])c2c(c1[H])C([H])([H])C([H])([H])C([H])([H])C2([H])N([H])C(=O)C1([H])N(C(=O)C([H])(N([H])C(=O)C([H])(N([H])C([H])([H])[H])C([H])([H])[H])C(C([H])([H])[H])(C([H])([H])[H])C([H])([H])[H])C([H])([H])c2c([H])c(OC([H])(C(=O)N([H])C3([H])C([H])([H])C4([H])N5C(=O)C([H])(N([H])C(=O)N6C([H])([H])C([H])([H])C([H])([H])C([H])(n7nc(-c8c([H])c([H])c(Oc9c([H])c([H])c(F)c([H])c9F)c([H])c8[H])c(C(=O)N([H])[H])c7N([H])[H])C6([H])[H])C([H])([H])C([H])([H])C5([H])C([H])(C3([H])[H])C4([H])[H])C([H])([H])[H])c([H])c([H])c2C1([H])[H]

>  <smiles>  (15) 
[H]c1c([H])c([H])c2c(c1[H])C([H])([H])C([H])([H])C([H])([H])C2([H])N([H])C(=O)C1([H])N(C(=O)C([H])(N([H])C(=O)C([H])(N([H])C([H])([H])[H])C([H])([H])[H])C(C([H])([H])[H])(C([H])([H])[H])C([H])([H])[H])C([H])([H])c2c([H])c(OC([H])(C(=O)N([H])C3([H])C([H])([H])C4([H])N5C(=O)C([H])(N([H])C(=O)N6C([H])([H])C([H])([H])C([H])([H])C([H])(n7nc(-c8c([H])c([H])c(Oc9c([H])c([H])c(F)c([H])c9F)c([H])c8[H])c(C(=O)N([H])[H])c7N([H])[H])C6([H])[H])C([H])([H])C([H])([H])C5([H])C([H])(C3([H])[H])C4([H])[H])C([H])([H])[H])c([H])c([H])c2C1([H])[H]

$$$$
16:0:0
     RDKit          3D

 85 91  0  0  1  0  0  0  0  0999 V2000
  -28.8460  -21.5520   19.2110 C   0  0  0  0  0  0  0  0  0  0  0  0
  -28.8360  -21.5540   17.8700 C   0  0  0  0  0  2  0  0  0  0  0  0
  -29.3790  -20.1010   20.1890 C   0  0  0  0  0  2  0  0  0  0  0  0
  -28.2080  -22.9500   20.2020 C   0  0  0  0  0  2  0  0  0  0  0  0
  -28.6350  -21.4450   21.1690 C   0  0  0  0  0  3  0  0  0  0  0  0
  -29.3330  -21.7130   22.4960 C   0  0  0  0  0  1  0  0  0  0  0  0
  -30.1640  -16.5280   20.1850 C   0  0  0  0  0  0  0  0  0  0  0  0
  -30.5200  -13.8070   19.4730 C   0  0  0  0  0  2  0  0  0  0  0  0
  -29.7580  -13.0290   18.3350 C   0  0  0  0  0  2  0  0  0  0  0  0
  -28.3960  -12.5110   18.8040 C   0  0  0  0  0  2  0  0  0  0  0  0
  -27.7460  -13.5530   19.7290 C   0  0  0  0  0  3  0  0  0  0  0  0
  -28.6930  -14.1920   20.7970 C   0  0  0  0  0  2  0  0  0  0  0  0
  -29.7370  -15.0370   20.0970 N   0  0  0  0  0  0  0  0  0  0  0  0
  -31.4160  -16.3570   20.1330 O   0  0  0  0  0  0  0  0  0  0  0  0
  -29.4030  -18.0780   20.1660 N   0  0  0  0  0  2  0  0  0  0  0  0
  -28.4250  -17.8180   20.1330 H   0  0  0  0  0  0  0  0  0  0  0  0
  -25.3750  -13.9860   20.4740 C   0  0  0  0  0  0  0  0  0  0  0  0
  -24.3290  -13.1820   20.8220 C   0  0  0  0  0  0  0  0  0  0  0  0
  -24.8310  -11.8430   20.7960 C   0  0  0  0  0  0  0  0  0  0  0  0
  -26.4460  -13.1470   20.2500 N   0  0  0  0  0  0  0  0  0  0  0  0
  -26.1340  -11.8450   20.5030 N   0  0  0  0  0  0  0  0  0  0  0  0
  -24.1200  -10.5670   20.9740 C   0  0  0  0  0  0  0  0  0  0  0  0
  -24.5160   -9.6260   21.9520 C   0  0  0  0  0  3  0  0  0  0  0  0
  -23.7960   -8.4230   22.1240 C   0  0  0  0  0  3  0  0  0  0  0  0
  -22.6650   -8.1510   21.3180 C   0  0  0  0  0  0  0  0  0  0  0  0
  -22.2850   -9.0790   20.3330 C   0  0  0  0  0  3  0  0  0  0  0  0
  -23.0070  -10.2740   20.1600 C   0  0  0  0  0  3  0  0  0  0  0  0
  -21.9200   -6.9970   21.3960 O   0  0  0  0  0  0  0  0  0  0  0  0
  -21.7860   -6.3030   22.5720 C   0  0  0  0  0  0  0  0  0  0  0  0
  -21.1970   -6.8840   23.7170 C   0  0  0  0  0  3  0  0  0  0  0  0
  -21.0170   -6.1150   24.8830 C   0  0  0  0  0  3  0  0  0  0  0  0
  -21.4130   -4.7640   24.9060 C   0  0  0  0  0  0  0  0  0  0  0  0
  -21.9920   -4.1820   23.7650 C   0  0  0  0  0  3  0  0  0  0  0  0
  -22.1750   -4.9490   22.6010 C   0  0  0  0  0  0  0  0  0  0  0  0
  -22.7160   -4.3760   21.4990 F   0  0  0  0  0  0  0  0  0  0  0  0
  -21.2310   -4.0230   26.0230 F   0  0  0  0  0  0  0  0  0  0  0  0
  -22.9190  -13.6320   21.0570 C   0  0  0  0  0  0  0  0  0  0  0  0
  -22.1900  -12.9380   21.9210 N   0  0  0  0  0  0  0  0  0  0  0  0
  -22.4750  -14.6430   20.5110 O   0  0  0  0  0  0  0  0  0  0  0  0
  -22.5620  -12.1250   22.3880 H   0  0  0  0  0  0  0  0  0  0  0  0
  -21.2420  -13.2260   22.1210 H   0  0  0  0  0  0  0  0  0  0  0  0
  -25.5010  -15.3600   20.2910 N   0  0  0  0  0  0  0  0  0  0  0  0
  -24.7100  -15.9890   20.3730 H   0  0  0  0  0  0  0  0  0  0  0  0
  -26.3400  -15.8150   19.9570 H   0  0  0  0  0  0  0  0  0  0  0  0
  -28.1960  -24.9670   20.1910 O   0  0  0  0  0  1  0  0  0  0  0  0
  -24.7140  -31.8680   23.0720 C   0  0  0  0  0  0  0  0  0  0  0  0
  -27.2540  -26.3780   20.1710 C   0  0  0  0  0  0  0  0  0  0  0  0
  -23.5520  -30.4330   21.4580 C   0  0  0  0  0  3  0  0  0  0  0  0
  -25.0120  -28.6910   20.0890 C   0  0  0  0  0  0  0  0  0  0  0  0
  -26.1480  -30.4590   21.3850 C   0  0  0  0  0  2  0  0  0  0  0  0
  -26.2160  -28.9710   20.7410 C   0  0  0  0  0  0  0  0  0  0  0  0
  -27.2950  -27.8620   20.7330 C   0  0  0  0  0  3  0  0  0  0  0  0
  -26.0050  -26.4290   19.4550 C   0  0  0  0  0  3  0  0  0  0  0  0
  -24.9730  -27.4510   19.4160 C   0  0  0  0  0  3  0  0  0  0  0  0
  -23.8170  -29.6880   20.1100 C   0  0  0  0  0  2  0  0  0  0  0  0
  -24.8350  -30.9660   22.0220 N   0  0  0  0  0  0  0  0  0  0  0  0
  -23.6100  -32.1830   23.5570 O   0  0  0  0  0  0  0  0  0  0  0  0
  -22.8020  -29.5010   22.4530 C   0  0  0  0  0  0  0  0  0  0  0  0
  -21.4630  -29.3670   22.3400 N   0  0  0  0  0  0  0  0  0  0  0  0
  -23.4450  -28.8900   23.3100 O   0  0  0  0  0  0  0  0  0  0  0  0
  -20.9860  -29.9070   21.6320 H   0  0  0  0  0  0  0  0  0  0  0  0
  -18.0680  -28.1750   22.9240 C   0  0  0  0  0  0  0  0  0  0  0  0
  -20.6370  -28.4380   23.1270 C   0  0  0  0  0  3  0  0  0  0  0  0
  -20.7170  -27.0030   22.5520 C   0  0  0  0  0  2  0  0  0  0  0  0
  -19.5940  -26.6900   21.5570 C   0  0  0  0  0  2  0  0  0  0  0  0
  -18.2260  -26.8320   22.2290 C   0  0  0  0  0  2  0  0  0  0  0  0
  -19.1980  -28.9360   23.3300 C   0  0  0  0  0  0  0  0  0  0  0  0
  -18.9880  -30.1870   23.9490 C   0  0  0  0  0  3  0  0  0  0  0  0
  -17.6850  -30.6780   24.1600 C   0  0  0  0  0  3  0  0  0  0  0  0
  -16.5730  -29.9160   23.7650 C   0  0  0  0  0  3  0  0  0  0  0  0
  -16.7650  -28.6650   23.1530 C   0  0  0  0  0  3  0  0  0  0  0  0
  -25.9510  -32.5620   23.7230 C   0  0  0  0  0  3  0  0  0  0  0  0
  -25.5990  -33.9660   24.0400 N   0  0  0  0  0  0  0  0  0  0  0  0
  -25.9160  -35.0400   23.3020 C   0  0  0  0  0  0  0  0  0  0  0  0
  -26.5770  -34.9520   22.2650 O   0  0  0  0  0  0  0  0  0  0  0  0
  -25.0020  -34.1050   24.8420 H   0  0  0  0  0  0  0  0  0  0  0  0
  -24.1620  -36.8320   23.0100 C   0  0  0  0  0  1  0  0  0  0  0  0
  -25.4280  -36.4260   23.7810 C   0  0  0  0  0  3  0  0  0  0  0  0
  -27.5660  -37.3520   24.5680 C   0  0  0  0  0  1  0  0  0  0  0  0
  -26.4450  -37.4940   23.6440 N   0  0  0  0  0  0  0  0  0  0  0  0
  -26.0280  -38.4110   23.7900 H   0  0  0  0  0  0  0  0  0  0  0  0
  -26.4360  -31.8410   25.0440 C   0  0  1  0  0  0  0  0  0  0  0  0
  -25.3150  -31.6280   26.0890 C   0  0  0  0  0  1  0  0  0  0  0  0
  -27.0440  -30.4560   24.7350 C   0  0  0  0  0  1  0  0  0  0  0  0
  -27.5620  -32.6690   25.7100 C   0  0  0  0  0  1  0  0  0  0  0  0
  1  3  1  0
  1  4  1  0
  2  1  2  0
  3  5  1  0
  4  5  1  0
  5  6  1  0
  8 13  1  0
  9 10  1  0
  9  8  1  0
 11 10  1  0
 11 20  1  0
 11 12  1  0
 13  7  1  0
 13 12  1  0
 14  7  2  0
 15  7  1  0
 16 15  1  0
 17 18  2  0
 18 37  1  0
 19 18  1  0
 19 22  1  0
 20 17  1  0
 20 21  1  0
 21 19  2  0
 22 23  1  0
 23 24  2  0
 25 28  1  0
 25 24  1  0
 26 25  2  0
 27 26  1  0
 27 22  2  0
 28 29  1  0
 29 34  2  0
 29 30  1  0
 30 31  2  0
 31 32  1  0
 32 36  1  0
 33 32  2  0
 34 33  1  0
 35 34  1  0
 37 38  1  0
 38 41  1  0
 38 40  1  0
 39 37  2  0
 42 43  1  0
 42 17  1  0
 44 42  1  0
 46 57  2  0
 47 45  1  0
 47 52  1  0
 48 56  1  0
 48 58  1  0
 49 55  1  0
 49 51  1  0
 50 56  1  0
 51 50  1  0
 52 51  2  0
 53 47  2  0
 54 53  1  0
 54 49  2  0
 55 48  1  0
 56 46  1  0
 58 60  2  0
 59 58  1  0
 61 59  1  0
 62 71  2  0
 62 67  1  0
 63 59  1  0
 63 67  1  0
 64 63  1  0
 65 66  1  0
 65 64  1  0
 66 62  1  0
 67 68  2  0
 68 69  1  0
 70 69  2  0
 71 70  1  0
 72 46  1  0
 72 73  1  0
 72 82  1  0
 73 76  1  0
 74 78  1  0
 74 73  1  0
 75 74  2  0
 78 77  1  0
 80 78  1  0
 80 81  1  0
 80 79  1  0
 82 85  1  1
 82 83  1  0
 84 82  1  0
M  ISO  4   4 101   7 100  15 100  45 101
M  END
>  <TORSDO>  (16) 
F 16

>  <SCORE>  (16) 
-16.595

>  <name>  (16) 
16

>  <ligand_id>  (16) 
16

>  <original_smiles>  (16) 
[H]C([H])=C1C([H])(Oc2c([H])c([H])c3c(c2[H])C([H])([H])N(C(=O)C([H])(N([H])C(=O)C([H])(N([H])C([H])([H])[H])C([H])([H])[H])C(C([H])([H])[H])(C([H])([H])[H])C([H])([H])[H])C([H])(C(=O)N([H])C2([H])c4c([H])c([H])c([H])c([H])c4C([H])([H])C([H])([H])C2([H])[H])C3([H])[H])C([H])(C([H])([H])[H])C1([H])N([H])C(=O)N1C([H])([H])C([H])([H])C([H])([H])C([H])(n2nc(-c3c([H])c([H])c(Oc4c([H])c([H])c(F)c([H])c4F)c([H])c3[H])c(C(=O)N([H])[H])c2N([H])[H])C1([H])[H]

>  <smiles>  (16) 
[H]C([H])=C1C([H])(Oc2c([H])c([H])c3c(c2[H])C([H])([H])N(C(=O)C([H])(N([H])C(=O)C([H])(N([H])C([H])([H])[H])C([H])([H])[H])C(C([H])([H])[H])(C([H])([H])[H])C([H])([H])[H])C([H])(C(=O)N([H])C2([H])c4c([H])c([H])c([H])c([H])c4C([H])([H])C([H])([H])C2([H])[H])C3([H])[H])C([H])(C([H])([H])[H])C1([H])N([H])C(=O)N1C([H])([H])C([H])([H])C([H])([H])C([H])(n2nc(-c3c([H])c([H])c(Oc4c([H])c([H])c(F)c([H])c4F)c([H])c3[H])c(C(=O)N([H])[H])c2N([H])[H])C1([H])[H]

$$$$
17:0:0
     RDKit          3D

 96106  0  0  1  0  0  0  0  0999 V2000
  -29.0210  -23.1670   19.8870 C   0  0  0  0  0  3  0  0  0  0  0  0
  -28.9690  -21.8800   19.2570 C   0  0  0  0  0  0  0  0  0  0  0  0
  -30.6660  -18.6900   22.1670 C   0  0  0  0  0  2  0  0  0  0  0  0
  -30.4080  -16.1450   22.8150 C   0  0  0  0  0  2  0  0  0  0  0  0
  -30.9500  -20.5690   20.4850 C   0  0  0  0  0  2  0  0  0  0  0  0
  -29.6530  -19.0950   19.1870 C   0  0  0  0  0  2  0  0  0  0  0  0
  -30.7020  -16.4190   20.1960 C   0  0  0  0  0  3  0  0  0  0  0  0
  -31.2330  -17.3850   22.6350 C   0  0  0  0  0  3  0  0  0  0  0  0
  -31.3040  -19.0700   20.8230 C   0  0  0  0  0  3  0  0  0  0  0  0
  -31.3060  -16.2830   21.6060 C   0  0  0  0  0  3  0  0  0  0  0  0
  -30.8360  -18.0720   19.6990 C   0  0  0  0  0  3  0  0  0  0  0  0
  -30.0120  -20.6130   19.3520 N   0  0  1  0  0  4  0  0  0  0  0  0
  -30.6280  -20.7480   18.5650 H   0  0  0  0  0  0  0  0  0  0  0  0
  -31.2910  -15.0260   19.4800 C   0  0  0  0  0  0  0  0  0  0  0  0
  -30.9220  -12.7260   18.4320 C   0  0  0  0  0  2  0  0  0  0  0  0
  -29.8310  -12.7750   17.3330 C   0  0  0  0  0  2  0  0  0  0  0  0
  -28.4230  -12.6220   17.9380 C   0  0  0  0  0  2  0  0  0  0  0  0
  -28.2270  -13.5080   19.1980 C   0  0  0  0  0  3  0  0  0  0  0  0
  -29.4190  -13.3940   20.1710 C   0  0  0  0  0  2  0  0  0  0  0  0
  -30.6320  -13.7910   19.4370 N   0  0  0  0  0  0  0  0  0  0  0  0
  -32.3990  -15.0690   18.9320 O   0  0  0  0  0  0  0  0  0  0  0  0
  -26.0120  -14.1710   20.3040 C   0  0  0  0  0  0  0  0  0  0  0  0
  -24.9540  -13.4370   20.7630 C   0  0  0  0  0  0  0  0  0  0  0  0
  -25.3150  -12.0660   20.5770 C   0  0  0  0  0  0  0  0  0  0  0  0
  -26.9490  -13.2530   19.8580 N   0  0  0  0  0  0  0  0  0  0  0  0
  -26.5470  -11.9750   20.0890 N   0  0  0  0  0  0  0  0  0  0  0  0
  -24.5330  -10.8380   20.7790 C   0  0  0  0  0  0  0  0  0  0  0  0
  -24.9480   -9.8340   21.6820 C   0  0  0  0  0  3  0  0  0  0  0  0
  -24.1660   -8.6750   21.8730 C   0  0  0  0  0  3  0  0  0  0  0  0
  -22.9550   -8.5110   21.1600 C   0  0  0  0  0  0  0  0  0  0  0  0
  -22.5570   -9.5010   20.2440 C   0  0  0  0  0  3  0  0  0  0  0  0
  -23.3400  -10.6520   20.0520 C   0  0  0  0  0  3  0  0  0  0  0  0
  -22.1470   -7.4030   21.2620 O   0  0  0  0  0  0  0  0  0  0  0  0
  -21.9520   -6.7590   22.4570 C   0  0  0  0  0  0  0  0  0  0  0  0
  -21.4640   -7.4350   23.5970 C   0  0  0  0  0  3  0  0  0  0  0  0
  -21.2110   -6.7200   24.7850 C   0  0  0  0  0  3  0  0  0  0  0  0
  -21.4410   -5.3340   24.8330 C   0  0  0  0  0  0  0  0  0  0  0  0
  -21.9270   -4.6580   23.6990 C   0  0  0  0  0  3  0  0  0  0  0  0
  -22.1780   -5.3680   22.5120 C   0  0  0  0  0  0  0  0  0  0  0  0
  -22.6230   -4.7100   21.4160 F   0  0  0  0  0  0  0  0  0  0  0  0
  -21.1930   -4.6440   25.9720 F   0  0  0  0  0  0  0  0  0  0  0  0
  -23.6410  -13.9740   21.2520 C   0  0  0  0  0  0  0  0  0  0  0  0
  -23.0380  -13.3190   22.2350 N   0  0  0  0  0  0  0  0  0  0  0  0
  -23.1670  -15.0130   20.7930 O   0  0  0  0  0  0  0  0  0  0  0  0
  -23.4390  -12.4810   22.6300 H   0  0  0  0  0  0  0  0  0  0  0  0
  -22.1620  -13.6640   22.6030 H   0  0  0  0  0  0  0  0  0  0  0  0
  -26.2460  -15.5400   20.2020 N   0  0  0  0  0  0  0  0  0  0  0  0
  -25.5560  -16.2260   20.4860 H   0  0  0  0  0  0  0  0  0  0  0  0
  -27.0690  -15.9560   19.7870 H   0  0  0  0  0  0  0  0  0  0  0  0
  -27.8650  -21.6320   18.3310 C   0  0  0  0  0  0  0  0  0  0  0  0
  -26.6490  -21.7510   18.8600 N   0  0  0  0  0  0  0  0  0  0  0  0
  -28.0010  -21.2990   17.1570 O   0  0  0  0  0  0  0  0  0  0  0  0
  -26.5270  -21.9650   19.8380 H   0  0  0  0  0  0  0  0  0  0  0  0
  -25.8330  -21.5860   18.2840 H   0  0  0  0  0  0  0  0  0  0  0  0
  -28.0010  -24.4650   19.8030 C   0  0  0  0  0  2  0  0  0  0  0  0
  -28.2970  -25.9620   20.1220 O   0  0  0  0  0  0  0  0  0  0  0  0
  -24.5130  -31.6660   22.9110 C   0  0  0  0  0  0  0  0  0  0  0  0
  -27.2390  -26.9440   20.0160 C   0  0  0  0  0  0  0  0  0  0  0  0
  -23.3760  -30.2240   21.2700 C   0  0  0  0  0  3  0  0  0  0  0  0
  -24.8840  -28.6530   19.9090 C   0  0  0  0  0  0  0  0  0  0  0  0
  -25.9300  -30.5300   21.1570 C   0  0  0  0  0  2  0  0  0  0  0  0
  -26.0450  -29.1270   20.5350 C   0  0  0  0  0  0  0  0  0  0  0  0
  -27.2210  -28.2860   20.5760 C   0  0  0  0  0  3  0  0  0  0  0  0
  -26.0470  -26.5780   19.3470 C   0  0  0  0  0  3  0  0  0  0  0  0
  -24.8950  -27.3880   19.3090 C   0  0  0  0  0  3  0  0  0  0  0  0
  -23.6430  -29.5300   19.9100 C   0  0  0  0  0  2  0  0  0  0  0  0
  -24.6260  -30.8290   21.8350 N   0  0  0  0  0  0  0  0  0  0  0  0
  -23.4100  -31.9430   23.4060 O   0  0  0  0  0  0  0  0  0  0  0  0
  -22.6920  -29.2190   22.2320 C   0  0  0  0  0  0  0  0  0  0  0  0
  -21.3580  -29.0780   22.1260 N   0  0  0  0  0  0  0  0  0  0  0  0
  -23.3640  -28.5690   23.0380 O   0  0  0  0  0  0  0  0  0  0  0  0
  -20.8730  -29.6510   21.4500 H   0  0  0  0  0  0  0  0  0  0  0  0
  -17.9540  -27.9950   22.7210 C   0  0  0  0  0  0  0  0  0  0  0  0
  -20.5290  -28.1540   22.9030 C   0  0  0  0  0  3  0  0  0  0  0  0
  -20.5570  -26.7350   22.2890 C   0  0  0  0  0  2  0  0  0  0  0  0
  -19.4100  -26.4800   21.3060 C   0  0  0  0  0  2  0  0  0  0  0  0
  -18.0570  -26.6580   22.0030 C   0  0  0  0  0  2  0  0  0  0  0  0
  -19.1160  -28.7040   23.1290 C   0  0  0  0  0  0  0  0  0  0  0  0
  -18.9640  -29.9560   23.7650 C   0  0  0  0  0  3  0  0  0  0  0  0
  -17.6860  -30.4980   23.9910 C   0  0  0  0  0  3  0  0  0  0  0  0
  -16.5400  -29.7870   23.5980 C   0  0  0  0  0  3  0  0  0  0  0  0
  -16.6750  -28.5360   22.9690 C   0  0  0  0  0  3  0  0  0  0  0  0
  -25.7650  -32.3350   23.5540 C   0  0  0  0  0  3  0  0  0  0  0  0
  -26.3190  -31.5390   24.8000 C   0  0  1  0  0  0  0  0  0  0  0  0
  -25.2340  -31.1880   25.8450 C   0  0  0  0  0  1  0  0  0  0  0  0
  -26.9860  -30.2170   24.3540 C   0  0  0  0  0  1  0  0  0  0  0  0
  -27.4170  -32.3670   25.5070 C   0  0  0  0  0  1  0  0  0  0  0  0
  -25.3930  -33.7040   23.9450 N   0  0  0  0  0  0  0  0  0  0  0  0
  -25.7390  -34.8100   23.2730 C   0  0  0  0  0  0  0  0  0  0  0  0
  -26.4700  -34.7860   22.2800 O   0  0  0  0  0  0  0  0  0  0  0  0
  -24.7500  -33.7930   24.7180 H   0  0  0  0  0  0  0  0  0  0  0  0
  -24.0360  -36.6180   22.8740 C   0  0  0  0  0  1  0  0  0  0  0  0
  -25.1850  -36.1560   23.7840 C   0  0  0  0  0  3  0  0  0  0  0  0
  -27.1980  -36.9840   24.9200 C   0  0  0  0  0  1  0  0  0  0  0  0
  -26.2110  -37.2180   23.8690 N   0  0  0  0  0  0  0  0  0  0  0  0
  -25.7790  -38.1220   24.0380 H   0  0  0  0  0  0  0  0  0  0  0  0
  2 12  1  0
  2  1  2  0
  6 12  1  0
  7 14  1  0
  7 10  1  0
  8  3  1  0
  8  4  1  0
  9  5  1  0
  9  3  1  0
 10  8  1  0
 10  4  1  0
 11  6  1  0
 11  7  1  0
 11  9  1  0
 12  5  1  0
 12 13  1  6
 15 20  1  0
 16 17  1  0
 16 15  1  0
 18 17  1  0
 18 25  1  0
 18 19  1  0
 20 14  1  0
 20 19  1  0
 21 14  2  0
 22 23  2  0
 23 42  1  0
 24 23  1  0
 24 27  1  0
 25 26  1  0
 25 22  1  0
 26 24  2  0
 27 28  1  0
 28 29  2  0
 30 33  1  0
 30 29  1  0
 31 30  2  0
 32 31  1  0
 32 27  2  0
 33 34  1  0
 34 39  2  0
 34 35  1  0
 35 36  2  0
 36 37  1  0
 37 41  1  0
 38 37  2  0
 39 38  1  0
 40 39  1  0
 42 43  1  0
 43 46  1  0
 43 45  1  0
 44 42  2  0
 47 22  1  0
 47 48  1  0
 49 47  1  0
 50 51  1  0
 50  2  1  0
 51 53  1  0
 52 50  2  0
 54 51  1  0
 55  1  1  0
 55 56  1  0
 57 68  2  0
 58 56  1  0
 58 63  1  0
 59 67  1  0
 59 69  1  0
 60 66  1  0
 60 62  1  0
 61 67  1  0
 62 63  2  0
 62 61  1  0
 64 58  2  0
 65 64  1  0
 65 60  2  0
 66 59  1  0
 67 57  1  0
 69 71  2  0
 70 69  1  0
 72 70  1  0
 73 82  2  0
 73 78  1  0
 74 70  1  0
 74 78  1  0
 75 74  1  0
 76 77  1  0
 76 75  1  0
 77 73  1  0
 78 79  2  0
 79 80  1  0
 81 80  2  0
 82 81  1  0
 83 57  1  0
 83 88  1  0
 83 84  1  0
 84 87  1  1
 84 85  1  0
 86 84  1  0
 88 91  1  0
 89 93  1  0
 89 88  1  0
 90 89  2  0
 93 92  1  0
 93 95  1  0
 95 96  1  0
 95 94  1  0
M  ISO  4   7 100  14 100  55 101  56 101
M  END
>  <TORSDO>  (17) 
F 19

>  <SCORE>  (17) 
-11.629

>  <name>  (17) 
17

>  <ligand_id>  (17) 
17

>  <original_smiles>  (17) 
[H]C(=C(C(=O)N([H])[H])[N+]1([H])C([H])([H])C2([H])C([H])([H])C3([H])C([H])([H])C3([H])C([H])(C(=O)N3C([H])([H])C([H])([H])C([H])([H])C([H])(n4nc(-c5c([H])c([H])c(Oc6c([H])c([H])c(F)c([H])c6F)c([H])c5[H])c(C(=O)N([H])[H])c4N([H])[H])C3([H])[H])C2([H])C1([H])[H])C([H])([H])Oc1c([H])c([H])c2c(c1[H])C([H])([H])N(C(=O)C([H])(N([H])C(=O)C([H])(N([H])C([H])([H])[H])C([H])([H])[H])C(C([H])([H])[H])(C([H])([H])[H])C([H])([H])[H])C([H])(C(=O)N([H])C1([H])c3c([H])c([H])c([H])c([H])c3C([H])([H])C([H])([H])C1([H])[H])C2([H])[H]

>  <smiles>  (17) 
[H]C(=C(C(=O)N([H])[H])[N+]1([H])C([H])([H])C2([H])C([H])([H])C3([H])C([H])([H])C3([H])C([H])(C(=O)N3C([H])([H])C([H])([H])C([H])([H])C([H])(n4nc(-c5c([H])c([H])c(Oc6c([H])c([H])c(F)c([H])c6F)c([H])c5[H])c(C(=O)N([H])[H])c4N([H])[H])C3([H])[H])C2([H])C1([H])[H])C([H])([H])Oc1c([H])c([H])c2c(c1[H])C([H])([H])N(C(=O)C([H])(N([H])C(=O)C([H])(N([H])C([H])([H])[H])C([H])([H])[H])C(C([H])([H])[H])(C([H])([H])[H])C([H])([H])[H])C([H])(C(=O)N([H])C1([H])c3c([H])c([H])c([H])c([H])c3C([H])([H])C([H])([H])C1([H])[H])C2([H])[H]

$$$$
18:0:0
     RDKit          3D

101109  0  0  1  0  0  0  0  0999 V2000
  -29.6600  -21.3740   21.3940 C   0  0  0  0  0  0  0  0  0  0  0  0
  -29.4090  -20.1310   21.6780 N   0  0  0  0  0  2  0  0  0  0  0  0
  -30.7930  -21.7580   20.6950 N   0  0  0  0  0  4  0  0  0  0  0  0
  -30.9840  -22.7090   20.4100 H   0  0  0  0  0  0  0  0  0  0  0  0
  -31.4860  -21.1330   20.3060 H   0  0  0  0  0  0  0  0  0  0  0  0
  -31.0930  -18.9800   22.8740 C   0  0  0  0  0  2  0  0  0  0  0  0
  -30.4860  -19.1550   21.5060 C   0  0  0  0  0  3  0  0  0  0  0  0
  -30.4040  -17.8020   22.2250 C   0  0  0  0  0  3  0  0  0  0  0  0
  -30.3980  -14.2280   19.4750 C   0  0  0  0  0  0  0  0  0  0  0  0
  -29.7310  -12.2120   18.2350 C   0  0  0  0  0  2  0  0  0  0  0  0
  -28.5830  -12.4800   17.2480 C   0  0  0  0  0  2  0  0  0  0  0  0
  -27.2280  -12.2900   17.9510 C   0  0  0  0  0  2  0  0  0  0  0  0
  -27.1440  -13.0680   19.2900 C   0  0  0  0  0  3  0  0  0  0  0  0
  -28.3940  -12.8350   20.1700 C   0  0  0  0  0  2  0  0  0  0  0  0
  -29.5890  -13.1410   19.3700 N   0  0  0  0  0  0  0  0  0  0  0  0
  -31.2720  -14.4910   18.6410 O   0  0  0  0  0  0  0  0  0  0  0  0
  -31.4240  -15.6480   21.1930 C   0  0  0  0  0  0  0  0  0  0  0  0
  -32.6740  -15.1800   21.0170 N   0  0  0  0  0  4  0  0  0  0  0  0
  -30.3250  -15.0630   20.6450 N   0  0  0  0  0  0  0  0  0  0  0  0
  -31.3870  -16.7330   21.9920 N   0  0  0  0  0  0  0  0  0  0  0  0
  -32.8620  -14.4410   20.3510 H   0  0  0  0  0  0  0  0  0  0  0  0
  -33.4850  -15.6120   21.4400 H   0  0  0  0  0  0  0  0  0  0  0  0
  -29.5040  -15.0930   21.2250 H   0  0  0  0  0  0  0  0  0  0  0  0
  -32.2510  -16.9460   22.4650 H   0  0  0  0  0  0  0  0  0  0  0  0
  -24.9420  -13.6040   20.5030 C   0  0  0  0  0  0  0  0  0  0  0  0
  -23.9630  -12.8000   21.0240 C   0  0  0  0  0  0  0  0  0  0  0  0
  -24.4010  -11.4560   20.8110 C   0  0  0  0  0  0  0  0  0  0  0  0
  -25.9130  -12.7490   20.0100 N   0  0  0  0  0  0  0  0  0  0  0  0
  -25.6020  -11.4480   20.2480 N   0  0  0  0  0  0  0  0  0  0  0  0
  -23.7180  -10.1780   21.0560 C   0  0  0  0  0  0  0  0  0  0  0  0
  -24.2590   -9.2060   21.9250 C   0  0  0  0  0  3  0  0  0  0  0  0
  -23.5740   -7.9940   22.1610 C   0  0  0  0  0  3  0  0  0  0  0  0
  -22.3350   -7.7440   21.5250 C   0  0  0  0  0  0  0  0  0  0  0  0
  -21.8120   -8.7060   20.6410 C   0  0  0  0  0  3  0  0  0  0  0  0
  -22.4970   -9.9100   20.4050 C   0  0  0  0  0  3  0  0  0  0  0  0
  -21.6120   -6.5860   21.6710 O   0  0  0  0  0  0  0  0  0  0  0  0
  -21.6300   -5.8700   22.8410 C   0  0  0  0  0  0  0  0  0  0  0  0
  -21.2270   -6.4380   24.0700 C   0  0  0  0  0  3  0  0  0  0  0  0
  -21.1950   -5.6470   25.2340 C   0  0  0  0  0  3  0  0  0  0  0  0
  -21.5540   -4.2870   25.1730 C   0  0  0  0  0  0  0  0  0  0  0  0
  -21.9500   -3.7180   23.9510 C   0  0  0  0  0  3  0  0  0  0  0  0
  -21.9840   -4.5070   22.7870 C   0  0  0  0  0  0  0  0  0  0  0  0
  -22.3450   -3.9480   21.6070 F   0  0  0  0  0  0  0  0  0  0  0  0
  -21.5160   -3.5240   26.2900 F   0  0  0  0  0  0  0  0  0  0  0  0
  -22.6510  -13.2480   21.6000 C   0  0  0  0  0  0  0  0  0  0  0  0
  -22.1200  -12.5050   22.5650 N   0  0  0  0  0  0  0  0  0  0  0  0
  -22.1120  -14.2910   21.2320 O   0  0  0  0  0  0  0  0  0  0  0  0
  -22.5720  -11.6610   22.8850 H   0  0  0  0  0  0  0  0  0  0  0  0
  -21.2480  -12.7840   22.9920 H   0  0  0  0  0  0  0  0  0  0  0  0
  -25.0780  -14.9840   20.3920 N   0  0  0  0  0  0  0  0  0  0  0  0
  -24.3540  -15.6260   20.6970 H   0  0  0  0  0  0  0  0  0  0  0  0
  -25.8510  -15.4500   19.9320 H   0  0  0  0  0  0  0  0  0  0  0  0
  -28.8070  -22.4680   21.8220 C   0  0  0  0  0  3  0  0  0  0  0  0
  -29.2300  -23.7590   21.8430 C   0  0  0  0  0  3  0  0  0  0  0  0
  -28.4860  -24.9710   22.4140 C   0  0  0  0  0  3  0  0  0  0  0  0
  -27.0190  -24.7790   22.4610 N   0  0  0  0  0  4  0  0  0  0  0  0
  -26.6330  -24.7690   21.5320 H   0  0  0  0  0  0  0  0  0  0  0  0
  -26.5810  -25.5240   22.9790 H   0  0  0  0  0  0  0  0  0  0  0  0
  -26.7830  -23.9140   22.9150 H   0  0  0  0  0  0  0  0  0  0  0  0
  -28.9120  -26.3420   21.8050 C   0  0  0  0  0  2  0  0  0  0  0  0
  -28.4040  -26.5950   20.4830 O   0  0  0  0  0  0  0  0  0  0  0  0
  -24.6020  -31.9500   23.2570 C   0  0  0  0  0  0  0  0  0  0  0  0
  -27.2840  -27.3970   20.4130 C   0  0  0  0  0  0  0  0  0  0  0  0
  -23.4170  -30.4840   21.6540 C   0  0  0  0  0  3  0  0  0  0  0  0
  -24.8920  -28.8950   20.3080 C   0  0  0  0  0  0  0  0  0  0  0  0
  -25.9410  -30.8420   21.4750 C   0  0  0  0  0  2  0  0  0  0  0  0
  -26.0370  -29.4460   20.8970 C   0  0  0  0  0  0  0  0  0  0  0  0
  -27.2380  -28.7070   20.9460 C   0  0  0  0  0  3  0  0  0  0  0  0
  -26.1340  -26.8690   19.7910 C   0  0  0  0  0  3  0  0  0  0  0  0
  -24.9350  -27.6060   19.7480 C   0  0  0  0  0  3  0  0  0  0  0  0
  -23.6440  -29.7480   20.3060 C   0  0  0  0  0  2  0  0  0  0  0  0
  -24.6710  -31.1090   22.1890 N   0  0  0  0  0  0  0  0  0  0  0  0
  -23.5130  -32.2450   23.7710 O   0  0  0  0  0  0  0  0  0  0  0  0
  -22.7490  -29.5040   22.6440 C   0  0  0  0  0  0  0  0  0  0  0  0
  -21.4290  -29.3110   22.4920 N   0  0  0  0  0  0  0  0  0  0  0  0
  -23.4150  -28.9170   23.5000 O   0  0  0  0  0  0  0  0  0  0  0  0
  -20.9540  -29.8380   21.7730 H   0  0  0  0  0  0  0  0  0  0  0  0
  -18.0470  -28.1160   22.9460 C   0  0  0  0  0  0  0  0  0  0  0  0
  -20.5950  -28.4020   23.2810 C   0  0  0  0  0  3  0  0  0  0  0  0
  -20.7200  -26.9450   22.7760 C   0  0  0  0  0  2  0  0  0  0  0  0
  -19.6520  -26.5680   21.7470 C   0  0  0  0  0  2  0  0  0  0  0  0
  -18.2500  -26.7370   22.3390 C   0  0  0  0  0  2  0  0  0  0  0  0
  -19.1490  -28.9050   23.3720 C   0  0  0  0  0  0  0  0  0  0  0  0
  -18.9060  -30.1950   23.8940 C   0  0  0  0  0  3  0  0  0  0  0  0
  -17.5940  -30.6970   23.9920 C   0  0  0  0  0  3  0  0  0  0  0  0
  -16.5080  -29.9050   23.5860 C   0  0  0  0  0  3  0  0  0  0  0  0
  -16.7340  -28.6160   23.0690 C   0  0  0  0  0  3  0  0  0  0  0  0
  -25.8800  -32.5990   23.8740 C   0  0  0  0  0  3  0  0  0  0  0  0
  -25.5550  -33.9940   24.1950 N   0  0  0  0  0  0  0  0  0  0  0  0
  -25.8770  -35.0440   23.4290 C   0  0  0  0  0  0  0  0  0  0  0  0
  -26.5460  -34.9410   22.3960 O   0  0  0  0  0  0  0  0  0  0  0  0
  -24.9600  -34.1490   24.9950 H   0  0  0  0  0  0  0  0  0  0  0  0
  -24.1320  -36.8170   23.0550 C   0  0  0  0  0  1  0  0  0  0  0  0
  -25.3710  -36.4290   23.8770 C   0  0  0  0  0  3  0  0  0  0  0  0
  -27.4900  -37.3370   24.7160 C   0  0  0  0  0  1  0  0  0  0  0  0
  -26.3940  -37.4900   23.7650 N   0  0  0  0  0  0  0  0  0  0  0  0
  -25.9780  -38.4080   23.9060 H   0  0  0  0  0  0  0  0  0  0  0  0
  -26.4130  -31.8380   25.1500 C   0  0  1  0  0  0  0  0  0  0  0  0
  -25.3210  -31.5680   26.2120 C   0  0  0  0  0  1  0  0  0  0  0  0
  -27.0370  -30.4790   24.7540 C   0  0  0  0  0  1  0  0  0  0  0  0
  -27.5420  -32.6620   25.8140 C   0  0  0  0  0  1  0  0  0  0  0  0
  1  2  1  0
  1 53  1  0
  3  1  2  0
  4  3  1  0
  5  3  1  0
  7  2  1  0
  7  8  1  0
  7  6  1  0
  8 20  1  0
  8  6  1  0
  9 19  1  0
 10 15  1  0
 11 12  1  0
 11 10  1  0
 13 12  1  0
 13 28  1  0
 13 14  1  0
 15  9  1  0
 15 14  1  0
 16  9  2  0
 17 20  1  0
 18 17  2  0
 18 22  1  0
 19 17  1  0
 19 23  1  0
 20 24  1  0
 21 18  1  0
 25 26  2  0
 26 45  1  0
 27 26  1  0
 27 30  1  0
 28 29  1  0
 28 25  1  0
 29 27  2  0
 30 31  1  0
 31 32  2  0
 33 36  1  0
 33 32  1  0
 34 33  2  0
 35 34  1  0
 35 30  2  0
 36 37  1  0
 37 38  1  0
 38 39  2  0
 40 39  1  0
 40 44  1  0
 41 40  2  0
 42 37  2  0
 42 41  1  0
 43 42  1  0
 45 46  1  0
 46 48  1  0
 46 49  1  0
 47 45  2  0
 50 25  1  0
 50 51  1  0
 52 50  1  0
 53 54  2  0
 54 55  1  0
 55 60  1  0
 55 56  1  0
 56 59  1  0
 56 58  1  0
 57 56  1  0
 61 60  1  0
 62 73  2  0
 63 61  1  0
 63 68  1  0
 64 72  1  0
 64 74  1  0
 65 67  1  0
 66 72  1  0
 67 68  2  0
 67 66  1  0
 69 63  2  0
 70 69  1  0
 70 65  2  0
 71 65  1  0
 71 64  1  0
 72 62  1  0
 74 76  2  0
 75 74  1  0
 77 75  1  0
 78 87  2  0
 78 83  1  0
 79 75  1  0
 79 83  1  0
 80 79  1  0
 81 82  1  0
 81 80  1  0
 82 78  1  0
 83 84  2  0
 84 85  1  0
 86 85  2  0
 87 86  1  0
 88 62  1  0
 88 89  1  0
 88 98  1  0
 89 92  1  0
 90 94  1  0
 90 89  1  0
 91 90  2  0
 94 93  1  0
 96 94  1  0
 96 97  1  0
 96 95  1  0
 98101  1  1
 98 99  1  0
100 98  1  0
M  ISO  4   9 100  19 100  60 101  61 101
M  END
>  <TORSDO>  (18) 
F 21

>  <SCORE>  (18) 
-11.399

>  <name>  (18) 
18

>  <ligand_id>  (18) 
18

>  <original_smiles>  (18) 
[H]C(C(=NC1([H])C([H])([H])C1([H])[N+]([H])=C(N([H])[H])N([H])C(=O)N1C([H])([H])C([H])([H])C([H])([H])C([H])(n2nc(-c3c([H])c([H])c(Oc4c([H])c([H])c(F)c([H])c4F)c([H])c3[H])c(C(=O)N([H])[H])c2N([H])[H])C1([H])[H])N([H])[H])=C([H])C([H])(C([H])([H])Oc1c([H])c([H])c2c(c1[H])C([H])([H])N(C(=O)C([H])(N([H])C(=O)C([H])(N([H])C([H])([H])[H])C([H])([H])[H])C(C([H])([H])[H])(C([H])([H])[H])C([H])([H])[H])C([H])(C(=O)N([H])C1([H])c3c([H])c([H])c([H])c([H])c3C([H])([H])C([H])([H])C1([H])[H])C2([H])[H])[N+]([H])([H])[H]

>  <smiles>  (18) 
[H]C(C(=NC1([H])C([H])([H])C1([H])[N+]([H])=C(N([H])[H])N([H])C(=O)N1C([H])([H])C([H])([H])C([H])([H])C([H])(n2nc(-c3c([H])c([H])c(Oc4c([H])c([H])c(F)c([H])c4F)c([H])c3[H])c(C(=O)N([H])[H])c2N([H])[H])C1([H])[H])N([H])[H])=C([H])C([H])(C([H])([H])Oc1c([H])c([H])c2c(c1[H])C([H])([H])N(C(=O)C([H])(N([H])C(=O)C([H])(N([H])C([H])([H])[H])C([H])([H])[H])C(C([H])([H])[H])(C([H])([H])[H])C([H])([H])[H])C([H])(C(=O)N([H])C1([H])c3c([H])c([H])c([H])c([H])c3C([H])([H])C([H])([H])C1([H])[H])C2([H])[H])[N+]([H])([H])[H]

$$$$
19:0:0
     RDKit          3D

 98106  0  0  1  0  0  0  0  0999 V2000
  -29.1160  -20.0380   21.1440 C   0  0  0  0  0  0  0  0  0  0  0  0
  -29.2250  -21.3120   20.7450 N   0  0  0  0  0  0  0  0  0  0  0  0
  -28.0270  -19.4660   21.1920 O   0  0  0  0  0  0  0  0  0  0  0  0
  -30.1360  -21.7550   20.7170 H   0  0  0  0  0  0  0  0  0  0  0  0
  -30.9450  -18.5610   23.8510 C   0  0  0  0  0  2  0  0  0  0  0  0
  -30.8910  -19.7920   22.9480 C   0  0  0  0  0  2  0  0  0  0  0  0
  -31.1800  -17.4030   22.8910 C   0  0  0  0  0  2  0  0  0  0  0  0
  -30.4170  -19.3100   21.5570 C   0  0  0  0  0  3  0  0  0  0  0  0
  -30.3310  -17.7460   21.6560 C   0  0  0  0  0  3  0  0  0  0  0  0
  -30.7750  -16.9380   20.3980 C   0  0  0  0  0  3  0  0  0  0  0  0
  -31.1320  -14.4940   20.0160 C   0  0  0  0  0  0  0  0  0  0  0  0
  -30.7590  -12.2980   18.9650 C   0  0  0  0  0  2  0  0  0  0  0  0
  -29.7930  -12.4770   17.7750 C   0  0  0  0  0  2  0  0  0  0  0  0
  -28.3250  -12.3990   18.2420 C   0  0  0  0  0  2  0  0  0  0  0  0
  -28.0420  -13.3070   19.4690 C   0  0  0  0  0  3  0  0  0  0  0  0
  -29.1110  -13.0930   20.5650 C   0  0  0  0  0  2  0  0  0  0  0  0
  -30.4360  -13.3300   19.9610 N   0  0  0  0  0  0  0  0  0  0  0  0
  -32.2160  -14.6650   19.4490 O   0  0  0  0  0  0  0  0  0  0  0  0
  -30.4860  -15.5110   20.6090 N   0  0  0  0  0  0  0  0  0  0  0  0
  -29.5950  -15.2860   21.0240 H   0  0  0  0  0  0  0  0  0  0  0  0
  -25.6960  -14.0340   20.2380 C   0  0  0  0  0  0  0  0  0  0  0  0
  -24.6040  -13.3140   20.6430 C   0  0  0  0  0  0  0  0  0  0  0  0
  -24.9980  -11.9420   20.6030 C   0  0  0  0  0  0  0  0  0  0  0  0
  -26.6900  -13.1020   19.9820 N   0  0  0  0  0  0  0  0  0  0  0  0
  -26.2750  -11.8390   20.2560 N   0  0  0  0  0  0  0  0  0  0  0  0
  -24.2200  -10.7160   20.8200 C   0  0  0  0  0  0  0  0  0  0  0  0
  -24.6060   -9.7560   21.7820 C   0  0  0  0  0  3  0  0  0  0  0  0
  -23.8310   -8.5940   21.9850 C   0  0  0  0  0  3  0  0  0  0  0  0
  -22.6560   -8.3840   21.2250 C   0  0  0  0  0  0  0  0  0  0  0  0
  -22.2890   -9.3290   20.2530 C   0  0  0  0  0  3  0  0  0  0  0  0
  -23.0640  -10.4830   20.0490 C   0  0  0  0  0  3  0  0  0  0  0  0
  -21.8550   -7.2710   21.3350 O   0  0  0  0  0  0  0  0  0  0  0  0
  -21.7190   -6.5980   22.5220 C   0  0  0  0  0  0  0  0  0  0  0  0
  -21.2620   -7.2390   23.6940 C   0  0  0  0  0  3  0  0  0  0  0  0
  -21.0700   -6.4940   24.8740 C   0  0  0  0  0  3  0  0  0  0  0  0
  -21.3240   -5.1090   24.8840 C   0  0  0  0  0  0  0  0  0  0  0  0
  -21.7750   -4.4680   23.7150 C   0  0  0  0  0  3  0  0  0  0  0  0
  -21.9680   -5.2110   22.5380 C   0  0  0  0  0  0  0  0  0  0  0  0
  -22.3820   -4.5840   21.4100 F   0  0  0  0  0  0  0  0  0  0  0  0
  -21.1330   -4.3920   26.0150 F   0  0  0  0  0  0  0  0  0  0  0  0
  -23.2400  -13.8580   20.9610 C   0  0  0  0  0  0  0  0  0  0  0  0
  -22.5160  -13.2050   21.8640 N   0  0  0  0  0  0  0  0  0  0  0  0
  -22.8280  -14.8950   20.4450 O   0  0  0  0  0  0  0  0  0  0  0  0
  -22.8630  -12.3640   22.3010 H   0  0  0  0  0  0  0  0  0  0  0  0
  -21.6030  -13.5510   22.1220 H   0  0  0  0  0  0  0  0  0  0  0  0
  -25.9220  -15.3940   20.0490 N   0  0  0  0  0  0  0  0  0  0  0  0
  -25.1910  -16.0860   20.1680 H   0  0  0  0  0  0  0  0  0  0  0  0
  -26.7820  -15.7860   19.6850 H   0  0  0  0  0  0  0  0  0  0  0  0
  -30.0130  -17.4230   19.1430 C   0  0  0  0  0  0  0  0  0  0  0  0
  -30.7110  -18.4220   18.2310 C   0  0  0  0  0  1  0  0  0  0  0  0
  -28.8780  -17.0350   18.8610 O   0  0  0  0  0  0  0  0  0  0  0  0
  -28.0920  -22.1690   20.3870 C   0  0  0  0  0  2  0  0  0  0  0  0
  -28.5400  -23.5420   19.8610 C   0  0  0  0  0  0  0  0  0  0  0  0
  -27.5870  -24.3030   19.2980 N   0  0  0  0  0  0  0  0  0  0  0  0
  -29.7250  -23.8820   19.9430 O   0  0  0  0  0  0  0  0  0  0  0  0
  -26.6340  -23.9670   19.3140 H   0  0  0  0  0  0  0  0  0  0  0  0
  -27.8130  -25.6040   18.6890 C   0  0  0  0  0  2  0  0  0  0  0  0
  -27.7760  -26.6390   19.6380 O   0  0  0  0  0  0  0  0  0  0  0  0
  -24.5460  -31.8240   23.2720 C   0  0  0  0  0  0  0  0  0  0  0  0
  -26.6310  -27.4060   19.7510 C   0  0  0  0  0  0  0  0  0  0  0  0
  -23.1150  -30.5860   21.6770 C   0  0  0  0  0  3  0  0  0  0  0  0
  -24.3400  -29.0430   20.0570 C   0  0  0  0  0  0  0  0  0  0  0  0
  -25.6320  -30.8010   21.2760 C   0  0  0  0  0  2  0  0  0  0  0  0
  -25.5720  -29.4610   20.5720 C   0  0  0  0  0  0  0  0  0  0  0  0
  -26.7150  -28.6440   20.4290 C   0  0  0  0  0  3  0  0  0  0  0  0
  -25.3760  -26.9990   19.2380 C   0  0  0  0  0  3  0  0  0  0  0  0
  -24.2350  -27.8090   19.3930 C   0  0  0  0  0  3  0  0  0  0  0  0
  -23.1620  -29.9710   20.2530 C   0  0  0  0  0  2  0  0  0  0  0  0
  -24.4550  -31.0810   22.1310 N   0  0  0  0  0  0  0  0  0  0  0  0
  -23.5370  -32.1330   23.9180 O   0  0  0  0  0  0  0  0  0  0  0  0
  -22.4840  -29.5580   22.6420 C   0  0  0  0  0  0  0  0  0  0  0  0
  -21.1610  -29.3590   22.5240 N   0  0  0  0  0  0  0  0  0  0  0  0
  -23.1810  -28.9390   23.4510 O   0  0  0  0  0  0  0  0  0  0  0  0
  -20.6590  -29.9070   21.8400 H   0  0  0  0  0  0  0  0  0  0  0  0
  -17.8410  -27.9920   22.9180 C   0  0  0  0  0  0  0  0  0  0  0  0
  -20.3620  -28.4110   23.3000 C   0  0  0  0  0  3  0  0  0  0  0  0
  -20.5770  -26.9640   22.7990 C   0  0  0  0  0  2  0  0  0  0  0  0
  -19.5470  -26.5310   21.7510 C   0  0  0  0  0  2  0  0  0  0  0  0
  -18.1270  -26.6270   22.3170 C   0  0  0  0  0  2  0  0  0  0  0  0
  -18.8910  -28.8370   23.3650 C   0  0  0  0  0  0  0  0  0  0  0  0
  -18.5730  -30.1120   23.8800 C   0  0  0  0  0  3  0  0  0  0  0  0
  -17.2350  -30.5450   23.9540 C   0  0  0  0  0  3  0  0  0  0  0  0
  -16.1990  -29.6980   23.5250 C   0  0  0  0  0  3  0  0  0  0  0  0
  -16.5010  -28.4240   23.0140 C   0  0  0  0  0  3  0  0  0  0  0  0
  -25.9190  -32.3430   23.8030 C   0  0  0  0  0  3  0  0  0  0  0  0
  -25.7260  -33.7300   24.2470 N   0  0  0  0  0  0  0  0  0  0  0  0
  -26.0760  -34.8110   23.5370 C   0  0  0  0  0  0  0  0  0  0  0  0
  -26.6690  -34.7400   22.4570 O   0  0  0  0  0  0  0  0  0  0  0  0
  -25.1960  -33.8620   25.0950 H   0  0  0  0  0  0  0  0  0  0  0  0
  -24.4520  -36.7280   23.4210 C   0  0  0  0  0  1  0  0  0  0  0  0
  -25.7110  -36.1890   24.1190 C   0  0  0  0  0  3  0  0  0  0  0  0
  -27.9480  -36.8740   24.8650 C   0  0  0  0  0  1  0  0  0  0  0  0
  -26.8020  -37.1820   24.0140 N   0  0  0  0  0  0  0  0  0  0  0  0
  -26.4670  -38.1110   24.2570 H   0  0  0  0  0  0  0  0  0  0  0  0
  -26.5080  -31.4590   24.9690 C   0  0  1  0  0  0  0  0  0  0  0  0
  -25.5070  -31.2020   26.1180 C   0  0  0  0  0  1  0  0  0  0  0  0
  -26.9710  -30.0840   24.4320 C   0  0  0  0  0  1  0  0  0  0  0  0
  -27.7590  -32.1450   25.5680 C   0  0  0  0  0  1  0  0  0  0  0  0
  1  3  2  0
  2  1  1  0
  4  2  1  0
  6  5  1  0
  7  5  1  0
  8  1  1  0
  8  9  1  0
  8  6  1  0
  9 10  1  0
  9  7  1  0
 10 49  1  0
 10 19  1  0
 11 19  1  0
 12 17  1  0
 13 14  1  0
 13 12  1  0
 15 14  1  0
 15 24  1  0
 15 16  1  0
 17 11  1  0
 17 16  1  0
 18 11  2  0
 19 20  1  0
 21 22  2  0
 22 41  1  0
 23 22  1  0
 23 26  1  0
 24 21  1  0
 24 25  1  0
 25 23  2  0
 26 27  1  0
 27 28  2  0
 29 32  1  0
 29 28  1  0
 30 29  2  0
 31 30  1  0
 31 26  2  0
 32 33  1  0
 33 38  2  0
 33 34  1  0
 34 35  2  0
 35 36  1  0
 36 40  1  0
 37 36  2  0
 38 37  1  0
 39 38  1  0
 41 42  1  0
 42 45  1  0
 42 44  1  0
 43 41  2  0
 46 47  1  0
 46 21  1  0
 48 46  1  0
 50 49  1  0
 51 49  2  0
 52  2  1  0
 53 55  2  0
 53 52  1  0
 54 56  1  0
 54 53  1  0
 57 54  1  0
 57 58  1  0
 58 60  1  0
 59 70  2  0
 60 65  1  0
 61 69  1  0
 61 71  1  0
 62 68  1  0
 62 64  1  0
 63 69  1  0
 64 63  1  0
 65 64  2  0
 66 67  1  0
 66 60  2  0
 67 62  2  0
 68 61  1  0
 69 59  1  0
 71 73  2  0
 72 71  1  0
 74 72  1  0
 75 84  2  0
 75 80  1  0
 76 72  1  0
 76 80  1  0
 77 76  1  0
 78 79  1  0
 78 77  1  0
 79 75  1  0
 80 81  2  0
 81 82  1  0
 83 82  2  0
 84 83  1  0
 85 59  1  0
 85 86  1  0
 85 95  1  0
 86 89  1  0
 87 91  1  0
 87 86  1  0
 88 87  2  0
 91 90  1  0
 93 91  1  0
 93 94  1  0
 93 92  1  0
 95 98  1  1
 95 96  1  0
 97 95  1  0
M  ISO  4  11 100  19 100  57 101  58 101
M  END
>  <TORSDO>  (19) 
F 22

>  <SCORE>  (19) 
-11.246

>  <name>  (19) 
19

>  <ligand_id>  (19) 
19

>  <original_smiles>  (19) 
[H]c1c([H])c([H])c2c(c1[H])C([H])([H])C([H])([H])C([H])([H])C2([H])N([H])C(=O)C1([H])N(C(=O)C([H])(N([H])C(=O)C([H])(N([H])C([H])([H])[H])C([H])([H])[H])C(C([H])([H])[H])(C([H])([H])[H])C([H])([H])[H])C([H])([H])c2c([H])c(OC([H])([H])N([H])C(=O)C([H])([H])N([H])C(=O)C3([H])C([H])([H])C([H])([H])C([H])([H])C3([H])C([H])(C(=O)C([H])([H])[H])N([H])C(=O)N3C([H])([H])C([H])([H])C([H])([H])C([H])(n4nc(-c5c([H])c([H])c(Oc6c([H])c([H])c(F)c([H])c6F)c([H])c5[H])c(C(=O)N([H])[H])c4N([H])[H])C3([H])[H])c([H])c([H])c2C1([H])[H]

>  <smiles>  (19) 
[H]c1c([H])c([H])c2c(c1[H])C([H])([H])C([H])([H])C([H])([H])C2([H])N([H])C(=O)C1([H])N(C(=O)C([H])(N([H])C(=O)C([H])(N([H])C([H])([H])[H])C([H])([H])[H])C(C([H])([H])[H])(C([H])([H])[H])C([H])([H])[H])C([H])([H])c2c([H])c(OC([H])([H])N([H])C(=O)C([H])([H])N([H])C(=O)C3([H])C([H])([H])C([H])([H])C([H])([H])C3([H])C([H])(C(=O)C([H])([H])[H])N([H])C(=O)N3C([H])([H])C([H])([H])C([H])([H])C([H])(n4nc(-c5c([H])c([H])c(Oc6c([H])c([H])c(F)c([H])c6F)c([H])c5[H])c(C(=O)N([H])[H])c4N([H])[H])C3([H])[H])c([H])c([H])c2C1([H])[H]

$$$$
20:0:0
     RDKit          3D

 95103  0  0  1  0  0  0  0  0999 V2000
  -29.6300  -20.8330   19.9120 C   0  0  0  0  0  0  0  0  0  0  0  0
  -28.4740  -24.1630   21.6240 C   0  0  0  0  0  2  0  0  0  0  0  0
  -28.5920  -22.5850   21.5890 C   0  0  0  0  0  2  0  0  0  0  0  0
  -29.0240  -23.4550   19.4730 C   0  0  0  0  0  2  0  0  0  0  0  0
  -28.1980  -24.6830   20.1970 C   0  0  0  0  0  3  0  0  0  0  0  0
  -29.1650  -22.1430   20.3070 N   0  0  0  0  0  0  0  0  0  0  0  0
  -29.7710  -20.6680   18.6960 O   0  0  0  0  0  0  0  0  0  0  0  0
  -28.3500  -26.2440   19.9680 O   0  0  0  0  0  0  0  0  0  0  0  0
  -24.6400  -31.8560   23.0740 C   0  0  0  0  0  0  0  0  0  0  0  0
  -27.2580  -27.2020   19.9530 C   0  0  0  0  0  0  0  0  0  0  0  0
  -23.4360  -30.4470   21.4500 C   0  0  0  0  0  3  0  0  0  0  0  0
  -24.8910  -28.9170   19.9760 C   0  0  0  0  0  0  0  0  0  0  0  0
  -25.9820  -30.7680   21.2300 C   0  0  0  0  0  2  0  0  0  0  0  0
  -26.0740  -29.3790   20.5680 C   0  0  0  0  0  0  0  0  0  0  0  0
  -27.2530  -28.5380   20.5380 C   0  0  0  0  0  3  0  0  0  0  0  0
  -26.0460  -26.8550   19.3160 C   0  0  0  0  0  3  0  0  0  0  0  0
  -24.8930  -27.6700   19.3350 C   0  0  0  0  0  3  0  0  0  0  0  0
  -23.6440  -29.7860   20.0590 C   0  0  0  0  0  2  0  0  0  0  0  0
  -24.7070  -31.0460   21.9730 N   0  0  0  0  0  0  0  0  0  0  0  0
  -23.5600  -32.1100   23.6290 O   0  0  0  0  0  0  0  0  0  0  0  0
  -22.8060  -29.4140   22.4190 C   0  0  0  0  0  0  0  0  0  0  0  0
  -21.4850  -29.1870   22.3030 N   0  0  0  0  0  0  0  0  0  0  0  0
  -23.5080  -28.8200   23.2400 O   0  0  0  0  0  0  0  0  0  0  0  0
  -20.9710  -29.7240   21.6180 H   0  0  0  0  0  0  0  0  0  0  0  0
  -18.1760  -27.7920   22.7770 C   0  0  0  0  0  0  0  0  0  0  0  0
  -20.7080  -28.2180   23.0840 C   0  0  0  0  0  3  0  0  0  0  0  0
  -20.9080  -26.7810   22.5470 C   0  0  0  0  0  2  0  0  0  0  0  0
  -19.8460  -26.3670   21.5220 C   0  0  0  0  0  2  0  0  0  0  0  0
  -18.4470  -26.4400   22.1370 C   0  0  0  0  0  2  0  0  0  0  0  0
  -19.2360  -28.6310   23.2070 C   0  0  0  0  0  0  0  0  0  0  0  0
  -18.9270  -29.8890   23.7690 C   0  0  0  0  0  3  0  0  0  0  0  0
  -17.5900  -30.3070   23.9080 C   0  0  0  0  0  3  0  0  0  0  0  0
  -16.5450  -29.4650   23.4940 C   0  0  0  0  0  3  0  0  0  0  0  0
  -16.8370  -28.2100   22.9320 C   0  0  0  0  0  3  0  0  0  0  0  0
  -25.9160  -32.5210   23.6770 C   0  0  0  0  0  3  0  0  0  0  0  0
  -25.5710  -33.9030   24.0490 N   0  0  0  0  0  0  0  0  0  0  0  0
  -25.8960  -34.9900   23.3370 C   0  0  0  0  0  0  0  0  0  0  0  0
  -26.5820  -34.9350   22.3130 O   0  0  0  0  0  0  0  0  0  0  0  0
  -24.9620  -34.0190   24.8450 H   0  0  0  0  0  0  0  0  0  0  0  0
  -24.1460  -36.7740   23.0200 C   0  0  0  0  0  1  0  0  0  0  0  0
  -25.3780  -36.3520   23.8380 C   0  0  0  0  0  3  0  0  0  0  0  0
  -27.4800  -37.2380   24.7430 C   0  0  0  0  0  1  0  0  0  0  0  0
  -26.3950  -37.4260   23.7850 N   0  0  0  0  0  0  0  0  0  0  0  0
  -25.9700  -38.3330   23.9610 H   0  0  0  0  0  0  0  0  0  0  0  0
  -26.4850  -31.7450   24.9290 C   0  0  1  0  0  0  0  0  0  0  0  0
  -25.4270  -31.4620   26.0220 C   0  0  0  0  0  1  0  0  0  0  0  0
  -27.0940  -30.3890   24.5040 C   0  0  0  0  0  1  0  0  0  0  0  0
  -27.6330  -32.5580   25.5700 C   0  0  0  0  0  1  0  0  0  0  0  0
  -30.0970  -19.4810   20.8090 C   0  0  0  0  0  3  0  0  0  0  0  0
  -30.0250  -18.0100   20.1700 N   0  0  0  0  0  4  0  0  0  0  0  0
  -29.2000  -17.9990   19.5910 H   0  0  0  0  0  0  0  0  0  0  0  0
  -30.7900  -17.9610   19.5180 H   0  0  0  0  0  0  0  0  0  0  0  0
  -30.0380  -16.6330   20.9940 C   0  0  0  0  0  2  0  0  0  0  0  0
  -30.7990  -15.2100   20.5480 C   0  0  0  0  0  0  0  0  0  0  0  0
  -30.7600  -12.8100   19.6820 C   0  0  0  0  0  2  0  0  0  0  0  0
  -29.8930  -12.7220   18.4010 C   0  0  0  0  0  2  0  0  0  0  0  0
  -28.4100  -12.5100   18.7560 C   0  0  0  0  0  2  0  0  0  0  0  0
  -27.9360  -13.4630   19.8830 C   0  0  0  0  0  3  0  0  0  0  0  0
  -28.9310  -13.5180   21.0620 C   0  0  0  0  0  2  0  0  0  0  0  0
  -30.2370  -13.9270   20.5280 N   0  0  0  0  0  0  0  0  0  0  0  0
  -31.9810  -15.2800   20.1950 O   0  0  0  0  0  0  0  0  0  0  0  0
  -25.5250  -14.0470   20.5090 C   0  0  0  0  0  0  0  0  0  0  0  0
  -24.4440  -13.2760   20.8380 C   0  0  0  0  0  0  0  0  0  0  0  0
  -24.9090  -11.9240   20.8420 C   0  0  0  0  0  0  0  0  0  0  0  0
  -26.5770  -13.1660   20.3230 N   0  0  0  0  0  0  0  0  0  0  0  0
  -26.2130  -11.8850   20.5910 N   0  0  0  0  0  0  0  0  0  0  0  0
  -24.1730  -10.6660   21.0130 C   0  0  0  0  0  0  0  0  0  0  0  0
  -24.5590   -9.7070   21.9760 C   0  0  0  0  0  3  0  0  0  0  0  0
  -23.8230   -8.5130   22.1340 C   0  0  0  0  0  3  0  0  0  0  0  0
  -22.6840   -8.2690   21.3290 C   0  0  0  0  0  0  0  0  0  0  0  0
  -22.3170   -9.2160   20.3570 C   0  0  0  0  0  3  0  0  0  0  0  0
  -23.0540  -10.4020   20.1970 C   0  0  0  0  0  3  0  0  0  0  0  0
  -21.9220   -7.1280   21.3960 O   0  0  0  0  0  0  0  0  0  0  0  0
  -21.8170   -6.4000   22.5540 C   0  0  0  0  0  0  0  0  0  0  0  0
  -21.3340   -6.9710   23.7520 C   0  0  0  0  0  3  0  0  0  0  0  0
  -21.1750   -6.1690   24.9000 C   0  0  0  0  0  3  0  0  0  0  0  0
  -21.4900   -4.7980   24.8510 C   0  0  0  0  0  0  0  0  0  0  0  0
  -21.9630   -4.2260   23.6570 C   0  0  0  0  0  3  0  0  0  0  0  0
  -22.1240   -5.0250   22.5110 C   0  0  0  0  0  0  0  0  0  0  0  0
  -22.5620   -4.4660   21.3570 F   0  0  0  0  0  0  0  0  0  0  0  0
  -21.3290   -4.0240   25.9500 F   0  0  0  0  0  0  0  0  0  0  0  0
  -23.0370  -13.7570   21.0400 C   0  0  0  0  0  0  0  0  0  0  0  0
  -22.2740  -13.0810   21.8930 N   0  0  0  0  0  0  0  0  0  0  0  0
  -22.6210  -14.7690   20.4780 O   0  0  0  0  0  0  0  0  0  0  0  0
  -22.6230  -12.2620   22.3700 H   0  0  0  0  0  0  0  0  0  0  0  0
  -21.3280  -13.3850   22.0720 H   0  0  0  0  0  0  0  0  0  0  0  0
  -25.6990  -15.4160   20.3270 N   0  0  0  0  0  0  0  0  0  0  0  0
  -24.9270  -16.0700   20.3850 H   0  0  0  0  0  0  0  0  0  0  0  0
  -26.5570  -15.8430   20.0010 H   0  0  0  0  0  0  0  0  0  0  0  0
  -32.5610  -20.2020   20.2180 C   0  0  0  0  0  1  0  0  0  0  0  0
  -31.6080  -19.6360   21.3070 C   0  0  0  0  0  3  0  0  0  0  0  0
  -33.4730  -20.0560   22.9970 C   0  0  0  0  0  1  0  0  0  0  0  0
  -31.5410  -21.6130   23.0400 C   0  0  0  0  0  1  0  0  0  0  0  0
  -31.2950  -19.2460   23.8420 C   0  0  0  0  0  1  0  0  0  0  0  0
  -31.9400  -20.1470   22.7650 C   0  0  1  0  0  0  0  0  0  0  0  0
  1  6  1  0
  3  2  1  0
  4  5  1  0
  4  6  1  0
  5  8  1  0
  5  2  1  0
  6  3  1  0
  7  1  2  0
  9 20  2  0
 10  8  1  0
 10 15  1  0
 11 19  1  0
 11 21  1  0
 12 18  1  0
 12 14  1  0
 13 19  1  0
 14 13  1  0
 15 14  2  0
 16 17  1  0
 16 10  2  0
 17 12  2  0
 18 11  1  0
 19  9  1  0
 21 23  2  0
 22 21  1  0
 24 22  1  0
 25 34  2  0
 25 30  1  0
 26 22  1  0
 26 30  1  0
 27 26  1  0
 28 29  1  0
 28 27  1  0
 29 25  1  0
 30 31  2  0
 31 32  1  0
 33 32  2  0
 34 33  1  0
 35  9  1  0
 35 36  1  0
 35 45  1  0
 36 39  1  0
 37 41  1  0
 37 36  1  0
 38 37  2  0
 41 40  1  0
 43 41  1  0
 43 44  1  0
 43 42  1  0
 45 48  1  1
 45 46  1  0
 47 45  1  0
 49  1  1  0
 49 91  1  0
 50 49  1  0
 50 53  1  0
 51 50  1  0
 52 50  1  0
 54 53  1  0
 55 60  1  0
 56 57  1  0
 56 55  1  0
 58 57  1  0
 58 65  1  0
 58 59  1  0
 60 54  1  0
 60 59  1  0
 61 54  2  0
 62 63  2  0
 63 64  1  0
 63 82  1  0
 64 67  1  0
 65 62  1  0
 65 66  1  0
 66 64  2  0
 67 68  1  0
 68 69  2  0
 70 73  1  0
 70 69  1  0
 71 70  2  0
 72 71  1  0
 72 67  2  0
 73 74  1  0
 74 75  1  0
 75 76  2  0
 77 76  1  0
 77 81  1  0
 78 77  2  0
 79 74  2  0
 79 78  1  0
 80 79  1  0
 82 83  1  0
 83 86  1  0
 83 85  1  0
 84 82  2  0
 87 88  1  0
 87 62  1  0
 89 87  1  0
 91 90  1  0
 91 95  1  0
 95 92  1  1
 95 93  1  0
 95 94  1  0
M  ISO  4   5 101   8 101  53 100  54 100
M  END
>  <TORSDO>  (20) 
F 21

>  <SCORE>  (20) 
-13.171

>  <name>  (20) 
20

>  <ligand_id>  (20) 
20

>  <original_smiles>  (20) 
[H]c1c([H])c([H])c2c(c1[H])C([H])([H])C([H])([H])C([H])([H])C2([H])N([H])C(=O)C1([H])N(C(=O)C([H])(N([H])C(=O)C([H])(N([H])C([H])([H])[H])C([H])([H])[H])C(C([H])([H])[H])(C([H])([H])[H])C([H])([H])[H])C([H])([H])c2c([H])c(OC3([H])C([H])([H])N(C(=O)C([H])(C([H])(C([H])([H])[H])C(C([H])([H])[H])(C([H])([H])[H])C([H])([H])[H])[N+]([H])([H])C([H])([H])C(=O)N4C([H])([H])C([H])([H])C([H])([H])C([H])(n5nc(-c6c([H])c([H])c(Oc7c([H])c([H])c(F)c([H])c7F)c([H])c6[H])c(C(=O)N([H])[H])c5N([H])[H])C4([H])[H])C([H])([H])C3([H])[H])c([H])c([H])c2C1([H])[H]

>  <smiles>  (20) 
[H]c1c([H])c([H])c2c(c1[H])C([H])([H])C([H])([H])C([H])([H])C2([H])N([H])C(=O)C1([H])N(C(=O)C([H])(N([H])C(=O)C([H])(N([H])C([H])([H])[H])C([H])([H])[H])C(C([H])([H])[H])(C([H])([H])[H])C([H])([H])[H])C([H])([H])c2c([H])c(OC3([H])C([H])([H])N(C(=O)C([H])(C([H])(C([H])([H])[H])C(C([H])([H])[H])(C([H])([H])[H])C([H])([H])[H])[N+]([H])([H])C([H])([H])C(=O)N4C([H])([H])C([H])([H])C([H])([H])C([H])(n5nc(-c6c([H])c([H])c(Oc7c([H])c([H])c(F)c([H])c7F)c([H])c6[H])c(C(=O)N([H])[H])c5N([H])[H])C4([H])[H])C([H])([H])C3([H])[H])c([H])c([H])c2C1([H])[H]

$$$$
21:0:0
     RDKit          3D

 84 92  0  0  1  0  0  0  0  0999 V2000
  -30.0110  -16.4530   20.2370 C   0  0  0  0  0  0  0  0  0  0  0  0
  -30.3180  -13.7220   19.4970 C   0  0  0  0  0  2  0  0  0  0  0  0
  -29.5600  -12.9270   18.3660 C   0  0  0  0  0  2  0  0  0  0  0  0
  -28.2060  -12.4000   18.8430 C   0  0  0  0  0  2  0  0  0  0  0  0
  -27.5560  -13.4480   19.7590 C   0  0  0  0  0  3  0  0  0  0  0  0
  -28.5020  -14.1050   20.8240 C   0  0  0  0  0  2  0  0  0  0  0  0
  -29.5390  -14.9660   20.1200 N   0  0  0  0  0  0  0  0  0  0  0  0
  -31.2540  -16.2100   20.1760 O   0  0  0  0  0  0  0  0  0  0  0  0
  -29.6670  -20.8400   18.7880 C   0  0  0  0  0  3  0  0  0  0  0  0
  -29.0410  -22.1200   18.8270 C   0  0  0  0  0  3  0  0  0  0  0  0
  -28.1080  -19.0940   20.4650 C   0  0  0  0  0  3  0  0  0  0  0  0
  -29.8530  -19.8070   20.0050 C   0  0  2  0  0  0  0  0  0  0  0  0
  -28.1940  -22.7470   20.0270 C   0  0  0  0  0  1  0  0  0  0  0  0
  -28.6700  -20.7990   20.6840 C   0  0  0  0  0  2  0  0  0  0  0  0
  -29.4070  -18.0970   20.1960 N   0  0  0  0  0  0  0  0  0  0  0  0
  -25.1800  -13.8880   20.4770 C   0  0  0  0  0  0  0  0  0  0  0  0
  -24.1300  -13.0890   20.8220 C   0  0  0  0  0  0  0  0  0  0  0  0
  -24.6280  -11.7480   20.8140 C   0  0  0  0  0  0  0  0  0  0  0  0
  -26.2530  -13.0450   20.2740 N   0  0  0  0  0  0  0  0  0  0  0  0
  -25.9340  -11.7450   20.5340 N   0  0  0  0  0  0  0  0  0  0  0  0
  -23.9090  -10.4770   20.9980 C   0  0  0  0  0  0  0  0  0  0  0  0
  -24.3170   -9.5240   21.9600 C   0  0  0  0  0  3  0  0  0  0  0  0
  -23.5900   -8.3260   22.1370 C   0  0  0  0  0  3  0  0  0  0  0  0
  -22.4380   -8.0700   21.3550 C   0  0  0  0  0  0  0  0  0  0  0  0
  -22.0480   -9.0110   20.3850 C   0  0  0  0  0  3  0  0  0  0  0  0
  -22.7760  -10.1980   20.2050 C   0  0  0  0  0  3  0  0  0  0  0  0
  -21.6860   -6.9230   21.4400 O   0  0  0  0  0  0  0  0  0  0  0  0
  -21.6050   -6.1990   22.6030 C   0  0  0  0  0  0  0  0  0  0  0  0
  -21.1310   -6.7700   23.8050 C   0  0  0  0  0  3  0  0  0  0  0  0
  -20.9970   -5.9740   24.9590 C   0  0  0  0  0  3  0  0  0  0  0  0
  -21.3250   -4.6060   24.9140 C   0  0  0  0  0  0  0  0  0  0  0  0
  -21.7900   -4.0330   23.7170 C   0  0  0  0  0  3  0  0  0  0  0  0
  -21.9270   -4.8280   22.5660 C   0  0  0  0  0  0  0  0  0  0  0  0
  -22.3560   -4.2650   21.4090 F   0  0  0  0  0  0  0  0  0  0  0  0
  -21.1890   -3.8380   26.0210 F   0  0  0  0  0  0  0  0  0  0  0  0
  -22.7180  -13.5460   21.0390 C   0  0  0  0  0  0  0  0  0  0  0  0
  -21.9780  -12.8610   21.9030 N   0  0  0  0  0  0  0  0  0  0  0  0
  -22.2820  -14.5530   20.4820 O   0  0  0  0  0  0  0  0  0  0  0  0
  -22.3440  -12.0500   22.3780 H   0  0  0  0  0  0  0  0  0  0  0  0
  -21.0290  -13.1510   22.0930 H   0  0  0  0  0  0  0  0  0  0  0  0
  -25.3130  -15.2600   20.2820 N   0  0  0  0  0  0  0  0  0  0  0  0
  -24.5290  -15.8970   20.3550 H   0  0  0  0  0  0  0  0  0  0  0  0
  -26.1660  -15.7110   19.9750 H   0  0  0  0  0  0  0  0  0  0  0  0
  -28.1290  -24.7770   20.2320 O   0  0  0  0  0  1  0  0  0  0  0  0
  -24.7020  -31.7580   23.0700 C   0  0  0  0  0  0  0  0  0  0  0  0
  -27.2120  -26.2210   20.1630 C   0  0  0  0  0  0  0  0  0  0  0  0
  -23.5360  -30.3300   21.4510 C   0  0  0  0  0  3  0  0  0  0  0  0
  -24.9870  -28.5710   20.0820 C   0  0  0  0  0  0  0  0  0  0  0  0
  -26.1320  -30.3300   21.3850 C   0  0  0  0  0  2  0  0  0  0  0  0
  -26.1910  -28.8360   20.7420 C   0  0  0  0  0  0  0  0  0  0  0  0
  -27.2570  -27.7060   20.7370 C   0  0  0  0  0  3  0  0  0  0  0  0
  -25.9680  -26.3010   19.4360 C   0  0  0  0  0  3  0  0  0  0  0  0
  -24.9450  -27.3340   19.4020 C   0  0  0  0  0  3  0  0  0  0  0  0
  -23.8000  -29.5810   20.1040 C   0  0  0  0  0  2  0  0  0  0  0  0
  -24.8210  -30.8530   22.0200 N   0  0  0  0  0  0  0  0  0  0  0  0
  -23.5990  -32.0810   23.5500 O   0  0  0  0  0  0  0  0  0  0  0  0
  -22.7720  -29.4090   22.4450 C   0  0  0  0  0  0  0  0  0  0  0  0
  -21.4320  -29.2930   22.3330 N   0  0  0  0  0  0  0  0  0  0  0  0
  -23.4080  -28.7850   23.2980 O   0  0  0  0  0  0  0  0  0  0  0  0
  -20.9620  -29.8440   21.6290 H   0  0  0  0  0  0  0  0  0  0  0  0
  -18.0230  -28.1310   22.9070 C   0  0  0  0  0  0  0  0  0  0  0  0
  -20.5940  -28.3720   23.1170 C   0  0  0  0  0  3  0  0  0  0  0  0
  -20.6620  -26.9380   22.5390 C   0  0  0  0  0  2  0  0  0  0  0  0
  -19.5390  -26.6360   21.5410 C   0  0  0  0  0  2  0  0  0  0  0  0
  -18.1710  -26.7890   22.2100 C   0  0  0  0  0  2  0  0  0  0  0  0
  -19.1590  -28.8820   23.3160 C   0  0  0  0  0  0  0  0  0  0  0  0
  -18.9590  -30.1340   23.9390 C   0  0  0  0  0  3  0  0  0  0  0  0
  -17.6600  -30.6370   24.1480 C   0  0  0  0  0  3  0  0  0  0  0  0
  -16.5420  -29.8850   23.7480 C   0  0  0  0  0  3  0  0  0  0  0  0
  -16.7250  -28.6340   23.1340 C   0  0  0  0  0  3  0  0  0  0  0  0
  -25.9410  -32.4430   23.7270 C   0  0  0  0  0  3  0  0  0  0  0  0
  -25.5860  -33.8370   24.0840 N   0  0  0  0  0  0  0  0  0  0  0  0
  -25.9110  -34.9320   23.3830 C   0  0  0  0  0  0  0  0  0  0  0  0
  -26.5850  -34.8770   22.3520 O   0  0  0  0  0  0  0  0  0  0  0  0
  -24.9830  -33.9500   24.8860 H   0  0  0  0  0  0  0  0  0  0  0  0
  -24.1700  -36.7400   23.1190 C   0  0  0  0  0  1  0  0  0  0  0  0
  -25.4210  -36.3060   23.8990 C   0  0  0  0  0  3  0  0  0  0  0  0
  -27.5470  -37.1980   24.7520 C   0  0  0  0  0  1  0  0  0  0  0  0
  -26.4470  -37.3710   23.8080 N   0  0  0  0  0  0  0  0  0  0  0  0
  -26.0340  -38.2870   23.9640 H   0  0  0  0  0  0  0  0  0  0  0  0
  -26.4420  -31.6900   25.0240 C   0  0  1  0  0  0  0  0  0  0  0  0
  -25.3340  -31.4570   26.0800 C   0  0  0  0  0  1  0  0  0  0  0  0
  -27.0390  -30.3120   24.6720 C   0  0  0  0  0  1  0  0  0  0  0  0
  -27.5800  -32.4980   25.6920 C   0  0  0  0  0  1  0  0  0  0  0  0
  2  7  1  0
  3  4  1  0
  3  2  1  0
  5  4  1  0
  5 19  1  0
  5  6  1  0
  7  1  1  0
  7  6  1  0
  8  1  2  0
  9 10  2  0
 10 13  1  0
 11 14  1  0
 12  9  1  6
 12 15  1  0
 12 11  1  0
 12 14  1  0
 15  1  1  0
 15 11  1  0
 16 17  2  0
 17 36  1  0
 18 17  1  0
 18 21  1  0
 19 16  1  0
 19 20  1  0
 20 18  2  0
 21 22  1  0
 22 23  2  0
 24 27  1  0
 24 23  1  0
 25 24  2  0
 26 25  1  0
 26 21  2  0
 27 28  1  0
 28 29  1  0
 29 30  2  0
 31 30  1  0
 31 35  1  0
 32 31  2  0
 33 28  2  0
 33 32  1  0
 34 33  1  0
 36 37  1  0
 37 40  1  0
 37 39  1  0
 38 36  2  0
 41 42  1  0
 41 16  1  0
 43 41  1  0
 45 56  2  0
 46 44  1  0
 46 51  1  0
 47 55  1  0
 47 57  1  0
 48 54  1  0
 48 50  1  0
 49 55  1  0
 50 49  1  0
 51 50  2  0
 52 46  2  0
 53 52  1  0
 53 48  2  0
 54 47  1  0
 55 45  1  0
 57 59  2  0
 58 57  1  0
 60 58  1  0
 61 70  2  0
 61 66  1  0
 62 58  1  0
 62 66  1  0
 63 62  1  0
 64 65  1  0
 64 63  1  0
 65 61  1  0
 66 67  2  0
 67 68  1  0
 69 68  2  0
 70 69  1  0
 71 45  1  0
 71 72  1  0
 71 81  1  0
 72 75  1  0
 73 77  1  0
 73 72  1  0
 74 73  2  0
 77 76  1  0
 79 77  1  0
 79 80  1  0
 79 78  1  0
 81 84  1  1
 81 82  1  0
 83 81  1  0
M  ISO  4   1 100  13 101  15 100  44 101
M  END
>  <TORSDO>  (21) 
F 15

>  <SCORE>  (21) 
-16.345

>  <name>  (21) 
21

>  <ligand_id>  (21) 
21

>  <original_smiles>  (21) 
[H]C1=C([H])C2([H])N(C(=O)N3C([H])([H])C([H])([H])C([H])([H])C([H])(n4nc(-c5c([H])c([H])c(Oc6c([H])c([H])c(F)c([H])c6F)c([H])c5[H])c(C(=O)N([H])[H])c4N([H])[H])C3([H])[H])C([H])([H])C2([H])C1([H])Oc1c([H])c([H])c2c(c1[H])C([H])([H])N(C(=O)C([H])(N([H])C(=O)C([H])(N([H])C([H])([H])[H])C([H])([H])[H])C(C([H])([H])[H])(C([H])([H])[H])C([H])([H])[H])C([H])(C(=O)N([H])C1([H])c3c([H])c([H])c([H])c([H])c3C([H])([H])C([H])([H])C1([H])[H])C2([H])[H]

>  <smiles>  (21) 
[H]C1=C([H])C2([H])N(C(=O)N3C([H])([H])C([H])([H])C([H])([H])C([H])(n4nc(-c5c([H])c([H])c(Oc6c([H])c([H])c(F)c([H])c6F)c([H])c5[H])c(C(=O)N([H])[H])c4N([H])[H])C3([H])[H])C([H])([H])C2([H])C1([H])Oc1c([H])c([H])c2c(c1[H])C([H])([H])N(C(=O)C([H])(N([H])C(=O)C([H])(N([H])C([H])([H])[H])C([H])([H])[H])C(C([H])([H])[H])(C([H])([H])[H])C([H])([H])[H])C([H])(C(=O)N([H])C1([H])c3c([H])c([H])c([H])c([H])c3C([H])([H])C([H])([H])C1([H])[H])C2([H])[H]

$$$$
22:0:0
     RDKit          3D

 89 97  0  0  1  0  0  0  0  0999 V2000
  -30.8430  -19.4700   21.0160 C   0  0  0  0  0  0  0  0  0  0  0  0
  -32.0310  -18.8540   21.1200 C   0  0  0  0  0  2  0  0  0  0  0  0
  -30.6270  -20.8680   21.7030 C   0  0  0  0  0  2  0  0  0  0  0  0
  -28.5750  -20.3200   20.0280 C   0  0  0  0  0  2  0  0  0  0  0  0
  -29.6820  -18.8240   20.2260 C   0  0  0  0  0  3  0  0  0  0  0  0
  -28.7760  -22.1180   20.5170 C   0  0  0  0  0  3  0  0  0  0  0  0
  -30.2280  -22.0620   20.8550 N   0  0  0  0  0  4  0  0  0  0  0  0
  -30.7890  -22.0820   20.0170 H   0  0  0  0  0  0  0  0  0  0  0  0
  -30.4560  -22.8940   21.3770 H   0  0  0  0  0  0  0  0  0  0  0  0
  -30.2750  -15.6790   20.2250 C   0  0  0  0  0  0  0  0  0  0  0  0
  -30.3420  -13.1460   19.3900 C   0  0  0  0  0  2  0  0  0  0  0  0
  -29.4420  -12.7770   18.1770 C   0  0  0  0  0  2  0  0  0  0  0  0
  -28.0160  -12.4350   18.6320 C   0  0  0  0  0  2  0  0  0  0  0  0
  -27.5220  -13.4220   19.7130 C   0  0  0  0  0  3  0  0  0  0  0  0
  -28.5610  -13.7080   20.8240 C   0  0  0  0  0  2  0  0  0  0  0  0
  -29.7380  -14.3210   20.1670 N   0  0  0  0  0  0  0  0  0  0  0  0
  -31.4990  -15.6060   20.0050 O   0  0  0  0  0  0  0  0  0  0  0  0
  -29.5330  -17.0470   20.3380 N   0  0  0  0  0  0  0  0  0  0  0  0
  -28.5610  -16.8260   20.5110 H   0  0  0  0  0  0  0  0  0  0  0  0
  -25.1630  -13.9460   20.4940 C   0  0  0  0  0  0  0  0  0  0  0  0
  -24.1090  -13.1620   20.8640 C   0  0  0  0  0  0  0  0  0  0  0  0
  -24.5820  -11.8140   20.8220 C   0  0  0  0  0  0  0  0  0  0  0  0
  -26.2090  -13.0800   20.2370 N   0  0  0  0  0  0  0  0  0  0  0  0
  -25.8730  -11.7890   20.5030 N   0  0  0  0  0  0  0  0  0  0  0  0
  -23.8590  -10.5470   21.0070 C   0  0  0  0  0  0  0  0  0  0  0  0
  -24.2880   -9.5800   21.9410 C   0  0  0  0  0  3  0  0  0  0  0  0
  -23.5590   -8.3830   22.1170 C   0  0  0  0  0  3  0  0  0  0  0  0
  -22.3880   -8.1460   21.3580 C   0  0  0  0  0  0  0  0  0  0  0  0
  -21.9790   -9.1020   20.4120 C   0  0  0  0  0  3  0  0  0  0  0  0
  -22.7080  -10.2900   20.2360 C   0  0  0  0  0  3  0  0  0  0  0  0
  -21.6320   -7.0010   21.4430 O   0  0  0  0  0  0  0  0  0  0  0  0
  -21.5700   -6.2630   22.5980 C   0  0  0  0  0  0  0  0  0  0  0  0
  -21.1090   -6.8160   23.8120 C   0  0  0  0  0  3  0  0  0  0  0  0
  -20.9950   -6.0040   24.9580 C   0  0  0  0  0  3  0  0  0  0  0  0
  -21.3320   -4.6400   24.8900 C   0  0  0  0  0  0  0  0  0  0  0  0
  -21.7870   -4.0850   23.6810 C   0  0  0  0  0  3  0  0  0  0  0  0
  -21.9020   -4.8950   22.5370 C   0  0  0  0  0  0  0  0  0  0  0  0
  -22.3200   -4.3510   21.3690 F   0  0  0  0  0  0  0  0  0  0  0  0
  -21.2170   -3.8570   25.9890 F   0  0  0  0  0  0  0  0  0  0  0  0
  -22.7110  -13.6330   21.1370 C   0  0  0  0  0  0  0  0  0  0  0  0
  -21.9860  -12.9330   22.0010 N   0  0  0  0  0  0  0  0  0  0  0  0
  -22.2720  -14.6590   20.6190 O   0  0  0  0  0  0  0  0  0  0  0  0
  -22.3550  -12.1030   22.4410 H   0  0  0  0  0  0  0  0  0  0  0  0
  -21.0470  -13.2310   22.2260 H   0  0  0  0  0  0  0  0  0  0  0  0
  -25.3160  -15.3190   20.3220 N   0  0  0  0  0  0  0  0  0  0  0  0
  -24.5420  -15.9650   20.4370 H   0  0  0  0  0  0  0  0  0  0  0  0
  -26.1490  -15.7600   19.9560 H   0  0  0  0  0  0  0  0  0  0  0  0
  -28.1150  -23.8780   20.0120 C   0  0  0  0  0  2  0  0  0  0  0  0
  -28.1780  -25.5940   20.4030 O   0  0  0  0  0  0  0  0  0  0  0  0
  -24.6570  -31.8680   23.2590 C   0  0  0  0  0  0  0  0  0  0  0  0
  -27.2070  -26.7990   20.2930 C   0  0  0  0  0  0  0  0  0  0  0  0
  -23.4790  -30.4670   21.6170 C   0  0  0  0  0  3  0  0  0  0  0  0
  -24.9370  -28.8200   20.2130 C   0  0  0  0  0  0  0  0  0  0  0  0
  -26.0560  -30.6140   21.5110 C   0  0  0  0  0  2  0  0  0  0  0  0
  -26.1250  -29.1820   20.8570 C   0  0  0  0  0  0  0  0  0  0  0  0
  -27.2420  -28.1970   20.8690 C   0  0  0  0  0  3  0  0  0  0  0  0
  -25.9890  -26.6470   19.5830 C   0  0  0  0  0  3  0  0  0  0  0  0
  -24.9070  -27.5790   19.5510 C   0  0  0  0  0  3  0  0  0  0  0  0
  -23.7270  -29.7690   20.2480 C   0  0  0  0  0  2  0  0  0  0  0  0
  -24.7540  -31.0160   22.1820 N   0  0  0  0  0  0  0  0  0  0  0  0
  -23.5600  -32.1690   23.7630 O   0  0  0  0  0  0  0  0  0  0  0  0
  -22.7580  -29.4910   22.5850 C   0  0  0  0  0  0  0  0  0  0  0  0
  -21.4270  -29.3350   22.4510 N   0  0  0  0  0  0  0  0  0  0  0  0
  -23.4090  -28.8710   23.4300 O   0  0  0  0  0  0  0  0  0  0  0  0
  -20.9530  -29.8850   21.7490 H   0  0  0  0  0  0  0  0  0  0  0  0
  -18.0360  -28.1280   22.9480 C   0  0  0  0  0  0  0  0  0  0  0  0
  -20.5950  -28.4010   23.2210 C   0  0  0  0  0  3  0  0  0  0  0  0
  -20.6990  -26.9670   22.6520 C   0  0  0  0  0  2  0  0  0  0  0  0
  -19.6040  -26.6400   21.6320 C   0  0  0  0  0  2  0  0  0  0  0  0
  -18.2190  -26.7800   22.2700 C   0  0  0  0  0  2  0  0  0  0  0  0
  -19.1510  -28.8950   23.3800 C   0  0  0  0  0  0  0  0  0  0  0  0
  -18.9230  -30.1520   23.9810 C   0  0  0  0  0  3  0  0  0  0  0  0
  -17.6140  -30.6430   24.1500 C   0  0  0  0  0  3  0  0  0  0  0  0
  -16.5150  -29.8740   23.7310 C   0  0  0  0  0  3  0  0  0  0  0  0
  -16.7270  -28.6170   23.1370 C   0  0  0  0  0  3  0  0  0  0  0  0
  -25.9160  -32.5200   23.9070 C   0  0  0  0  0  3  0  0  0  0  0  0
  -25.5980  -33.9270   24.2180 N   0  0  0  0  0  0  0  0  0  0  0  0
  -25.9290  -34.9810   23.4590 C   0  0  0  0  0  0  0  0  0  0  0  0
  -26.5920  -34.8700   22.4250 O   0  0  0  0  0  0  0  0  0  0  0  0
  -25.0050  -34.0860   25.0200 H   0  0  0  0  0  0  0  0  0  0  0  0
  -24.1930  -36.7790   23.1320 C   0  0  0  0  0  1  0  0  0  0  0  0
  -25.4540  -36.3770   23.9160 C   0  0  0  0  0  3  0  0  0  0  0  0
  -27.6020  -37.2810   24.6930 C   0  0  0  0  0  1  0  0  0  0  0  0
  -26.4830  -37.4310   23.7670 N   0  0  0  0  0  0  0  0  0  0  0  0
  -26.0780  -38.3530   23.9060 H   0  0  0  0  0  0  0  0  0  0  0  0
  -26.3900  -31.7770   25.2180 C   0  0  1  0  0  0  0  0  0  0  0  0
  -25.2680  -31.5750   26.2630 C   0  0  0  0  0  1  0  0  0  0  0  0
  -26.9730  -30.3850   24.8890 C   0  0  0  0  0  1  0  0  0  0  0  0
  -27.5310  -32.5780   25.8900 C   0  0  0  0  0  1  0  0  0  0  0  0
  1  2  2  0
  1  3  1  0
  4  5  1  0
  4  6  1  0
  5 18  1  0
  5  1  1  0
  6 48  1  0
  6  7  1  0
  7  9  1  0
  7  3  1  0
  8  7  1  0
 10 18  1  0
 11 16  1  0
 12 13  1  0
 12 11  1  0
 14 13  1  0
 14 23  1  0
 14 15  1  0
 16 10  1  0
 16 15  1  0
 17 10  2  0
 18 19  1  0
 20 21  2  0
 21 40  1  0
 22 21  1  0
 22 25  1  0
 23 20  1  0
 23 24  1  0
 24 22  2  0
 25 26  1  0
 26 27  2  0
 28 31  1  0
 28 27  1  0
 29 28  2  0
 30 29  1  0
 30 25  2  0
 31 32  1  0
 32 33  1  0
 33 34  2  0
 35 34  1  0
 35 39  1  0
 36 35  2  0
 37 32  2  0
 37 36  1  0
 38 37  1  0
 40 41  1  0
 41 44  1  0
 41 43  1  0
 42 40  2  0
 45 46  1  0
 45 20  1  0
 47 45  1  0
 48 49  1  0
 50 61  2  0
 51 49  1  0
 51 56  1  0
 52 60  1  0
 52 62  1  0
 53 59  1  0
 53 55  1  0
 54 60  1  0
 55 56  2  0
 55 54  1  0
 57 51  2  0
 58 57  1  0
 58 53  2  0
 59 52  1  0
 60 50  1  0
 62 64  2  0
 63 62  1  0
 65 63  1  0
 66 75  2  0
 66 71  1  0
 67 63  1  0
 67 71  1  0
 68 67  1  0
 69 70  1  0
 69 68  1  0
 70 66  1  0
 71 72  2  0
 72 73  1  0
 74 73  2  0
 75 74  1  0
 76 50  1  0
 76 77  1  0
 76 86  1  0
 77 80  1  0
 78 82  1  0
 78 77  1  0
 79 78  2  0
 82 81  1  0
 84 85  1  0
 84 82  1  0
 84 83  1  0
 86 89  1  1
 86 87  1  0
 88 86  1  0
M  ISO  4  10 100  18 100  48 101  49 101
M  END
>  <TORSDO>  (22) 
F 17

>  <SCORE>  (22) 
-16.738

>  <name>  (22) 
22

>  <ligand_id>  (22) 
22

>  <original_smiles>  (22) 
[H]C([H])=C1C([H])(N([H])C(=O)N2C([H])([H])C([H])([H])C([H])([H])C([H])(n3nc(-c4c([H])c([H])c(Oc5c([H])c([H])c(F)c([H])c5F)c([H])c4[H])c(C(=O)N([H])[H])c3N([H])[H])C2([H])[H])C([H])([H])C([H])(C([H])([H])Oc2c([H])c([H])c3c(c2[H])C([H])([H])N(C(=O)C([H])(N([H])C(=O)C([H])(N([H])C([H])([H])[H])C([H])([H])[H])C(C([H])([H])[H])(C([H])([H])[H])C([H])([H])[H])C([H])(C(=O)N([H])C2([H])c4c([H])c([H])c([H])c([H])c4C([H])([H])C([H])([H])C2([H])[H])C3([H])[H])[N+]([H])([H])C1([H])[H]

>  <smiles>  (22) 
[H]C([H])=C1C([H])(N([H])C(=O)N2C([H])([H])C([H])([H])C([H])([H])C([H])(n3nc(-c4c([H])c([H])c(Oc5c([H])c([H])c(F)c([H])c5F)c([H])c4[H])c(C(=O)N([H])[H])c3N([H])[H])C2([H])[H])C([H])([H])C([H])(C([H])([H])Oc2c([H])c([H])c3c(c2[H])C([H])([H])N(C(=O)C([H])(N([H])C(=O)C([H])(N([H])C([H])([H])[H])C([H])([H])[H])C(C([H])([H])[H])(C([H])([H])[H])C([H])([H])[H])C([H])(C(=O)N([H])C2([H])c4c([H])c([H])c([H])c([H])c4C([H])([H])C([H])([H])C2([H])[H])C3([H])[H])[N+]([H])([H])C1([H])[H]

$$$$
23:0:0
     RDKit          3D

 91 99  0  0  1  0  0  0  0  0999 V2000
  -29.1450  -19.7490   20.4660 C   0  0  0  0  0  0  0  0  0  0  0  0
  -31.3420  -20.7850   18.7210 C   0  0  0  0  0  2  0  0  0  0  0  0
  -30.3370  -18.4060   18.4400 C   0  0  0  0  0  2  0  0  0  0  0  0
  -29.9120  -21.3730   18.7160 C   0  0  0  0  0  2  0  0  0  0  0  0
  -29.9610  -18.2760   19.9340 C   0  0  0  0  0  3  0  0  0  0  0  0
  -31.4910  -19.3820   18.0740 C   0  0  2  0  0  0  0  0  0  0  0  0
  -32.8480  -18.7810   18.5010 C   0  0  0  0  0  1  0  0  0  0  0  0
  -31.5130  -19.5270   16.5380 C   0  0  0  0  0  1  0  0  0  0  0  0
  -29.1890  -21.1680   19.9770 N   0  0  0  0  0  0  0  0  0  0  0  0
  -28.4450  -19.5590   21.4640 O   0  0  0  0  0  0  0  0  0  0  0  0
  -30.4390  -15.3540   20.0550 C   0  0  0  0  0  0  0  0  0  0  0  0
  -30.3570  -12.9350   19.1090 C   0  0  0  0  0  2  0  0  0  0  0  0
  -29.3860  -12.7510   17.9140 C   0  0  0  0  0  2  0  0  0  0  0  0
  -27.9540  -12.4780   18.4070 C   0  0  0  0  0  2  0  0  0  0  0  0
  -27.5560  -13.4180   19.5700 C   0  0  0  0  0  3  0  0  0  0  0  0
  -28.6490  -13.5310   20.6560 C   0  0  0  0  0  2  0  0  0  0  0  0
  -29.8520  -14.0560   19.9880 N   0  0  0  0  0  0  0  0  0  0  0  0
  -31.6450  -15.3400   19.7760 O   0  0  0  0  0  0  0  0  0  0  0  0
  -29.6960  -16.6360   20.1940 N   0  0  0  0  0  0  0  0  0  0  0  0
  -28.7320  -16.4660   20.4360 H   0  0  0  0  0  0  0  0  0  0  0  0
  -25.2100  -13.9660   20.3960 C   0  0  0  0  0  0  0  0  0  0  0  0
  -24.1600  -13.1850   20.7930 C   0  0  0  0  0  0  0  0  0  0  0  0
  -24.6290  -11.8380   20.7420 C   0  0  0  0  0  0  0  0  0  0  0  0
  -26.2450  -13.0960   20.1180 N   0  0  0  0  0  0  0  0  0  0  0  0
  -25.9130  -11.8080   20.3950 N   0  0  0  0  0  0  0  0  0  0  0  0
  -23.9110  -10.5720   20.9450 C   0  0  0  0  0  0  0  0  0  0  0  0
  -24.3620   -9.6050   21.8700 C   0  0  0  0  0  3  0  0  0  0  0  0
  -23.6380   -8.4070   22.0640 C   0  0  0  0  0  3  0  0  0  0  0  0
  -22.4500   -8.1680   21.3320 C   0  0  0  0  0  0  0  0  0  0  0  0
  -22.0180   -9.1250   20.3960 C   0  0  0  0  0  3  0  0  0  0  0  0
  -22.7420  -10.3140   20.2010 C   0  0  0  0  0  3  0  0  0  0  0  0
  -21.6970   -7.0240   21.4370 O   0  0  0  0  0  0  0  0  0  0  0  0
  -21.6690   -6.2830   22.5910 C   0  0  0  0  0  0  0  0  0  0  0  0
  -21.2420   -6.8340   23.8180 C   0  0  0  0  0  3  0  0  0  0  0  0
  -21.1610   -6.0190   24.9650 C   0  0  0  0  0  3  0  0  0  0  0  0
  -21.4990   -4.6550   24.8860 C   0  0  0  0  0  0  0  0  0  0  0  0
  -21.9210   -4.1040   23.6630 C   0  0  0  0  0  3  0  0  0  0  0  0
  -22.0030   -4.9160   22.5180 C   0  0  0  0  0  0  0  0  0  0  0  0
  -22.3870   -4.3750   21.3370 F   0  0  0  0  0  0  0  0  0  0  0  0
  -21.4160   -3.8700   25.9860 F   0  0  0  0  0  0  0  0  0  0  0  0
  -22.7710  -13.6590   21.0990 C   0  0  0  0  0  0  0  0  0  0  0  0
  -22.0700  -12.9620   21.9860 N   0  0  0  0  0  0  0  0  0  0  0  0
  -22.3190  -14.6850   20.5900 O   0  0  0  0  0  0  0  0  0  0  0  0
  -22.4520  -12.1340   22.4170 H   0  0  0  0  0  0  0  0  0  0  0  0
  -21.1390  -13.2630   22.2370 H   0  0  0  0  0  0  0  0  0  0  0  0
  -25.3640  -15.3370   20.2150 N   0  0  0  0  0  0  0  0  0  0  0  0
  -24.5960  -15.9900   20.3300 H   0  0  0  0  0  0  0  0  0  0  0  0
  -26.1900  -15.7670   19.8210 H   0  0  0  0  0  0  0  0  0  0  0  0
  -28.7100  -22.6700   20.5890 C   0  0  0  0  0  2  0  0  0  0  0  0
  -28.1630  -24.2590   19.8750 C   0  0  0  0  0  2  0  0  0  0  0  0
  -28.2190  -25.8720   20.2980 O   0  0  0  0  0  0  0  0  0  0  0  0
  -24.6210  -31.8540   23.1920 C   0  0  0  0  0  0  0  0  0  0  0  0
  -27.2100  -26.9760   20.1770 C   0  0  0  0  0  0  0  0  0  0  0  0
  -23.4430  -30.4620   21.5370 C   0  0  0  0  0  3  0  0  0  0  0  0
  -24.9070  -28.8670   20.1120 C   0  0  0  0  0  0  0  0  0  0  0  0
  -26.0110  -30.6720   21.4170 C   0  0  0  0  0  2  0  0  0  0  0  0
  -26.0860  -29.2650   20.7510 C   0  0  0  0  0  0  0  0  0  0  0  0
  -27.2280  -28.3400   20.7620 C   0  0  0  0  0  3  0  0  0  0  0  0
  -26.0040  -26.7380   19.4780 C   0  0  0  0  0  3  0  0  0  0  0  0
  -24.8930  -27.6250   19.4520 C   0  0  0  0  0  3  0  0  0  0  0  0
  -23.6850  -29.7870   20.1580 C   0  0  0  0  0  2  0  0  0  0  0  0
  -24.7120  -31.0250   22.1020 N   0  0  0  0  0  0  0  0  0  0  0  0
  -23.5280  -32.1390   23.7080 O   0  0  0  0  0  0  0  0  0  0  0  0
  -22.7420  -29.4620   22.4930 C   0  0  0  0  0  0  0  0  0  0  0  0
  -21.4120  -29.3010   22.3630 N   0  0  0  0  0  0  0  0  0  0  0  0
  -23.4030  -28.8310   23.3200 O   0  0  0  0  0  0  0  0  0  0  0  0
  -20.9310  -29.8620   21.6740 H   0  0  0  0  0  0  0  0  0  0  0  0
  -18.0280  -28.0920   22.8610 C   0  0  0  0  0  0  0  0  0  0  0  0
  -20.5870  -28.3580   23.1280 C   0  0  0  0  0  3  0  0  0  0  0  0
  -20.6890  -26.9280   22.5460 C   0  0  0  0  0  2  0  0  0  0  0  0
  -19.5880  -26.6140   21.5280 C   0  0  0  0  0  2  0  0  0  0  0  0
  -18.2060  -26.7510   22.1710 C   0  0  0  0  0  2  0  0  0  0  0  0
  -19.1460  -28.8540   23.2970 C   0  0  0  0  0  0  0  0  0  0  0  0
  -18.9210  -30.1060   23.9080 C   0  0  0  0  0  3  0  0  0  0  0  0
  -17.6150  -30.6000   24.0850 C   0  0  0  0  0  3  0  0  0  0  0  0
  -16.5120  -29.8360   23.6630 C   0  0  0  0  0  3  0  0  0  0  0  0
  -16.7190  -28.5850   23.0570 C   0  0  0  0  0  3  0  0  0  0  0  0
  -25.8850  -32.4990   23.8350 C   0  0  0  0  0  3  0  0  0  0  0  0
  -25.5650  -33.9010   24.1580 N   0  0  0  0  0  0  0  0  0  0  0  0
  -25.9050  -34.9610   23.4120 C   0  0  0  0  0  0  0  0  0  0  0  0
  -26.5840  -34.8600   22.3890 O   0  0  0  0  0  0  0  0  0  0  0  0
  -24.9580  -34.0500   24.9520 H   0  0  0  0  0  0  0  0  0  0  0  0
  -24.1860  -36.7660   23.0530 C   0  0  0  0  0  1  0  0  0  0  0  0
  -25.4180  -36.3500   23.8720 C   0  0  0  0  0  3  0  0  0  0  0  0
  -27.5440  -37.2320   24.7300 C   0  0  0  0  0  1  0  0  0  0  0  0
  -26.4530  -37.4030   23.7750 N   0  0  0  0  0  0  0  0  0  0  0  0
  -26.0460  -38.3220   23.9210 H   0  0  0  0  0  0  0  0  0  0  0  0
  -26.3720  -31.7430   25.1350 C   0  0  1  0  0  0  0  0  0  0  0  0
  -25.2550  -31.5250   26.1830 C   0  0  0  0  0  1  0  0  0  0  0  0
  -26.9600  -30.3590   24.7850 C   0  0  0  0  0  1  0  0  0  0  0  0
  -27.5100  -32.5450   25.8080 C   0  0  0  0  0  1  0  0  0  0  0  0
  1 10  2  0
  3  5  1  0
  4  2  1  0
  4  9  1  0
  5 19  1  0
  5  1  1  0
  6  3  1  0
  6  7  1  1
  6  2  1  0
  8  6  1  0
  9  1  1  0
  9 49  1  0
 11 19  1  0
 12 17  1  0
 13 14  1  0
 13 12  1  0
 15 14  1  0
 15 24  1  0
 15 16  1  0
 17 11  1  0
 17 16  1  0
 18 11  2  0
 19 20  1  0
 21 22  2  0
 22 41  1  0
 23 22  1  0
 23 26  1  0
 24 25  1  0
 24 21  1  0
 25 23  2  0
 26 27  1  0
 27 28  2  0
 29 32  1  0
 29 28  1  0
 30 29  2  0
 31 30  1  0
 31 26  2  0
 32 33  1  0
 33 34  1  0
 34 35  2  0
 36 35  1  0
 36 40  1  0
 37 36  2  0
 38 33  2  0
 38 37  1  0
 39 38  1  0
 41 42  1  0
 42 45  1  0
 42 44  1  0
 43 41  2  0
 46 47  1  0
 46 21  1  0
 48 46  1  0
 50 51  1  0
 50 49  1  0
 52 63  2  0
 53 51  1  0
 53 58  1  0
 54 62  1  0
 54 64  1  0
 55 61  1  0
 55 57  1  0
 56 62  1  0
 57 58  2  0
 57 56  1  0
 59 53  2  0
 60 59  1  0
 60 55  2  0
 61 54  1  0
 62 52  1  0
 64 66  2  0
 65 64  1  0
 67 65  1  0
 68 77  2  0
 68 73  1  0
 69 65  1  0
 69 73  1  0
 70 69  1  0
 71 72  1  0
 71 70  1  0
 72 68  1  0
 73 74  2  0
 74 75  1  0
 76 75  2  0
 77 76  1  0
 78 52  1  0
 78 79  1  0
 78 88  1  0
 79 82  1  0
 80 84  1  0
 80 79  1  0
 81 80  2  0
 84 83  1  0
 86 84  1  0
 86 87  1  0
 86 85  1  0
 88 91  1  1
 88 89  1  0
 90 88  1  0
M  ISO  4  11 100  19 100  50 101  51 101
M  END
>  <TORSDO>  (23) 
F 18

>  <SCORE>  (23) 
-16.043

>  <name>  (23) 
23

>  <ligand_id>  (23) 
23

>  <original_smiles>  (23) 
[H]c1c([H])c([H])c2c(c1[H])C([H])([H])C([H])([H])C([H])([H])C2([H])N([H])C(=O)C1([H])N(C(=O)C([H])(N([H])C(=O)C([H])(N([H])C([H])([H])[H])C([H])([H])[H])C(C([H])([H])[H])(C([H])([H])[H])C([H])([H])[H])C([H])([H])c2c([H])c(OC([H])([H])C([H])([H])N3C(=O)C([H])(N([H])C(=O)N4C([H])([H])C([H])([H])C([H])([H])C([H])(n5nc(-c6c([H])c([H])c(Oc7c([H])c([H])c(F)c([H])c7F)c([H])c6[H])c(C(=O)N([H])[H])c5N([H])[H])C4([H])[H])C([H])([H])C(C([H])([H])[H])(C([H])([H])[H])C([H])([H])C3([H])[H])c([H])c([H])c2C1([H])[H]

>  <smiles>  (23) 
[H]c1c([H])c([H])c2c(c1[H])C([H])([H])C([H])([H])C([H])([H])C2([H])N([H])C(=O)C1([H])N(C(=O)C([H])(N([H])C(=O)C([H])(N([H])C([H])([H])[H])C([H])([H])[H])C(C([H])([H])[H])(C([H])([H])[H])C([H])([H])[H])C([H])([H])c2c([H])c(OC([H])([H])C([H])([H])N3C(=O)C([H])(N([H])C(=O)N4C([H])([H])C([H])([H])C([H])([H])C([H])(n5nc(-c6c([H])c([H])c(Oc7c([H])c([H])c(F)c([H])c7F)c([H])c6[H])c(C(=O)N([H])[H])c5N([H])[H])C4([H])[H])C([H])([H])C(C([H])([H])[H])(C([H])([H])[H])C([H])([H])C3([H])[H])c([H])c([H])c2C1([H])[H]

$$$$
24:0:0
     RDKit          3D

 83 86  0  0  1  0  0  0  0  0999 V2000
  -28.1260  -23.4380   19.9410 C   0  0  0  0  0  1  0  0  0  0  0  0
  -28.8110  -21.6170   20.5490 C   0  0  0  0  0  2  0  0  0  0  0  0
  -29.0240  -21.6670   21.7950 N   0  0  0  0  0  0  0  0  0  0  0  0
  -29.3680  -20.7800   22.1480 H   0  0  0  0  0  0  0  0  0  0  0  0
  -29.2880  -19.7420   19.9160 C   0  0  0  0  0 15  0  0  0  0  0  0
  -29.4620  -17.7680   20.4880 C   0  0  0  0  0 15  0  0  0  0  0  0
  -30.2000  -15.9660   20.1270 C   0  0  0  0  0  2  0  0  0  0  0  0
  -30.3850  -13.3400   19.3410 C   0  0  0  0  0  2  0  0  0  0  0  0
  -29.5060  -12.8410   18.1470 C   0  0  0  0  0  2  0  0  0  0  0  0
  -28.1060  -12.4290   18.6170 C   0  0  0  0  0  2  0  0  0  0  0  0
  -27.5730  -13.4340   19.6580 C   0  0  0  0  0  3  0  0  0  0  0  0
  -28.5970  -13.8360   20.7520 C   0  0  0  0  0  2  0  0  0  0  0  0
  -29.7410  -14.5360   20.0990 N   0  0  0  0  0  0  0  0  0  0  0  0
  -31.4160  -15.8550   19.8460 O   0  0  0  0  0  1  0  0  0  0  0  0
  -25.2220  -13.9270   20.4590 C   0  0  0  0  0  0  0  0  0  0  0  0
  -24.1740  -13.1380   20.8360 C   0  0  0  0  0  0  0  0  0  0  0  0
  -24.6560  -11.7930   20.7970 C   0  0  0  0  0  0  0  0  0  0  0  0
  -26.2710  -13.0680   20.1980 N   0  0  0  0  0  0  0  0  0  0  0  0
  -25.9460  -11.7740   20.4670 N   0  0  0  0  0  0  0  0  0  0  0  0
  -23.9360  -10.5250   20.9960 C   0  0  0  0  0  0  0  0  0  0  0  0
  -24.3800   -9.5570   21.9240 C   0  0  0  0  0  3  0  0  0  0  0  0
  -23.6550   -8.3600   22.1130 C   0  0  0  0  0  3  0  0  0  0  0  0
  -22.4710   -8.1220   21.3740 C   0  0  0  0  0  0  0  0  0  0  0  0
  -22.0450   -9.0780   20.4360 C   0  0  0  0  0  3  0  0  0  0  0  0
  -22.7710  -10.2660   20.2450 C   0  0  0  0  0  3  0  0  0  0  0  0
  -21.7170   -6.9770   21.4730 O   0  0  0  0  0  0  0  0  0  0  0  0
  -21.6850   -6.2320   22.6250 C   0  0  0  0  0  0  0  0  0  0  0  0
  -21.2710   -6.7830   23.8570 C   0  0  0  0  0  3  0  0  0  0  0  0
  -21.1880   -5.9640   25.0010 C   0  0  0  0  0  3  0  0  0  0  0  0
  -21.5070   -4.5960   24.9140 C   0  0  0  0  0  0  0  0  0  0  0  0
  -21.9140   -4.0440   23.6870 C   0  0  0  0  0  3  0  0  0  0  0  0
  -22.0000   -4.8590   22.5450 C   0  0  0  0  0  0  0  0  0  0  0  0
  -22.3710   -4.3190   21.3600 F   0  0  0  0  0  0  0  0  0  0  0  0
  -21.4200   -3.8070   26.0110 F   0  0  0  0  0  0  0  0  0  0  0  0
  -22.7770  -13.6060   21.1160 C   0  0  0  0  0  0  0  0  0  0  0  0
  -22.0610  -12.9070   21.9900 N   0  0  0  0  0  0  0  0  0  0  0  0
  -22.3310  -14.6280   20.5980 O   0  0  0  0  0  0  0  0  0  0  0  0
  -22.4360  -12.0810   22.4310 H   0  0  0  0  0  0  0  0  0  0  0  0
  -21.1230  -13.2030   22.2200 H   0  0  0  0  0  0  0  0  0  0  0  0
  -25.3690  -15.3010   20.2810 N   0  0  0  0  0  0  0  0  0  0  0  0
  -24.5970  -15.9470   20.4060 H   0  0  0  0  0  0  0  0  0  0  0  0
  -26.2120  -15.7500   19.9460 H   0  0  0  0  0  0  0  0  0  0  0  0
  -28.1350  -25.2460   20.3710 O   0  0  0  0  0  0  0  0  0  0  0  0
  -24.6560  -31.8110   23.1640 C   0  0  0  0  0  0  0  0  0  0  0  0
  -27.2000  -26.5520   20.2500 C   0  0  0  0  0  0  0  0  0  0  0  0
  -23.4890  -30.3940   21.5330 C   0  0  0  0  0  3  0  0  0  0  0  0
  -24.9490  -28.7020   20.1500 C   0  0  0  0  0  0  0  0  0  0  0  0
  -26.0750  -30.4840   21.4520 C   0  0  0  0  0  2  0  0  0  0  0  0
  -26.1420  -29.0270   20.8070 C   0  0  0  0  0  0  0  0  0  0  0  0
  -27.2380  -27.9850   20.8230 C   0  0  0  0  0  3  0  0  0  0  0  0
  -25.9760  -26.4900   19.5220 C   0  0  0  0  0  3  0  0  0  0  0  0
  -24.9170  -27.4620   19.4830 C   0  0  0  0  0  3  0  0  0  0  0  0
  -23.7470  -29.6720   20.1750 C   0  0  0  0  0  2  0  0  0  0  0  0
  -24.7660  -30.9350   22.1010 N   0  0  0  0  0  0  0  0  0  0  0  0
  -23.5560  -32.1230   23.6550 O   0  0  0  0  0  0  0  0  0  0  0  0
  -22.7480  -29.4410   22.5130 C   0  0  0  0  0  0  0  0  0  0  0  0
  -21.4120  -29.3090   22.3920 N   0  0  0  0  0  0  0  0  0  0  0  0
  -23.3920  -28.8160   23.3580 O   0  0  0  0  0  0  0  0  0  0  0  0
  -20.9390  -29.8620   21.6920 H   0  0  0  0  0  0  0  0  0  0  0  0
  -18.0110  -28.1300   22.9260 C   0  0  0  0  0  0  0  0  0  0  0  0
  -20.5760  -28.3830   23.1700 C   0  0  0  0  0  3  0  0  0  0  0  0
  -20.6620  -26.9470   22.6020 C   0  0  0  0  0  2  0  0  0  0  0  0
  -19.5540  -26.6310   21.5920 C   0  0  0  0  0  2  0  0  0  0  0  0
  -18.1760  -26.7830   22.2430 C   0  0  0  0  0  2  0  0  0  0  0  0
  -19.1360  -28.8890   23.3460 C   0  0  0  0  0  0  0  0  0  0  0  0
  -18.9230  -30.1450   23.9510 C   0  0  0  0  0  3  0  0  0  0  0  0
  -17.6210  -30.6460   24.1360 C   0  0  0  0  0  3  0  0  0  0  0  0
  -16.5110  -29.8870   23.7270 C   0  0  0  0  0  3  0  0  0  0  0  0
  -16.7070  -28.6300   23.1280 C   0  0  0  0  0  3  0  0  0  0  0  0
  -25.9070  -32.4780   23.8150 C   0  0  0  0  0  3  0  0  0  0  0  0
  -26.3910  -31.7340   25.1220 C   0  0  1  0  0  0  0  0  0  0  0  0
  -25.2740  -31.5220   26.1720 C   0  0  0  0  0  1  0  0  0  0  0  0
  -26.9810  -30.3470   24.7890 C   0  0  0  0  0  1  0  0  0  0  0  0
  -27.5280  -32.5410   25.7930 C   0  0  0  0  0  1  0  0  0  0  0  0
  -25.5730  -33.8810   24.1410 N   0  0  0  0  0  0  0  0  0  0  0  0
  -25.9120  -34.9510   23.4080 C   0  0  0  0  0  0  0  0  0  0  0  0
  -26.5910  -34.8610   22.3830 O   0  0  0  0  0  0  0  0  0  0  0  0
  -24.9670  -34.0220   24.9370 H   0  0  0  0  0  0  0  0  0  0  0  0
  -24.1850  -36.7590   23.0800 C   0  0  0  0  0  1  0  0  0  0  0  0
  -25.4250  -36.3390   23.8840 C   0  0  0  0  0  3  0  0  0  0  0  0
  -27.5580  -37.2260   24.7250 C   0  0  0  0  0  1  0  0  0  0  0  0
  -26.4570  -37.3950   23.7800 N   0  0  0  0  0  0  0  0  0  0  0  0
  -26.0490  -38.3140   23.9310 H   0  0  0  0  0  0  0  0  0  0  0  0
  1 43  1  0
  2  3  2  0
  3  4  1  0
  8 13  1  0
  9 10  1  0
  9  8  1  0
 11 10  1  0
 11 18  1  0
 11 12  1  0
 13  7  1  0
 13 12  1  0
 14  7  1  0
 15 16  2  0
 16 35  1  0
 17 16  1  0
 17 20  1  0
 18 15  1  0
 18 19  1  0
 19 17  2  0
 20 21  1  0
 21 22  2  0
 23 26  1  0
 23 22  1  0
 24 23  2  0
 25 24  1  0
 25 20  2  0
 26 27  1  0
 27 28  1  0
 28 29  2  0
 30 29  1  0
 30 34  1  0
 31 30  2  0
 32 27  2  0
 32 31  1  0
 33 32  1  0
 35 36  1  0
 36 39  1  0
 36 38  1  0
 37 35  2  0
 40 41  1  0
 40 15  1  0
 42 40  1  0
 44 55  2  0
 45 43  1  0
 45 50  1  0
 46 54  1  0
 46 56  1  0
 47 53  1  0
 47 49  1  0
 48 54  1  0
 49 50  2  0
 49 48  1  0
 51 45  2  0
 52 51  1  0
 52 47  2  0
 53 46  1  0
 54 44  1  0
 56 58  2  0
 57 56  1  0
 59 57  1  0
 60 69  2  0
 60 65  1  0
 61 57  1  0
 61 65  1  0
 62 61  1  0
 63 64  1  0
 63 62  1  0
 64 60  1  0
 65 66  2  0
 66 67  1  0
 68 67  2  0
 69 68  1  0
 70 44  1  0
 70 75  1  0
 70 71  1  0
 71 74  1  1
 71 72  1  0
 73 71  1  0
 75 78  1  0
 76 80  1  0
 76 75  1  0
 77 76  2  0
 80 79  1  0
 82 80  1  0
 82 83  1  0
 82 81  1  0
M  ISO  4   1 101   6 100   7 100  43 101
M  END
>  <TORSDO>  (24) 
F 19

>  <SCORE>  (24) 
-16.323

>  <name>  (24) 
24

>  <ligand_id>  (24) 
24

>  <original_smiles>  (24) 
[H]N=C(C([H])([H])Oc1c([H])c([H])c2c(c1[H])C([H])([H])N(C(=O)C([H])(N([H])C(=O)C([H])(N([H])C([H])([H])[H])C([H])([H])[H])C(C([H])([H])[H])(C([H])([H])[H])C([H])([H])[H])C([H])(C(=O)N([H])C1([H])c3c([H])c([H])c([H])c([H])c3C([H])([H])C([H])([H])C1([H])[H])C2([H])[H])C([H])([H])C([H])([H])C(=O)N1C([H])([H])C([H])([H])C([H])([H])C([H])(n2nc(-c3c([H])c([H])c(Oc4c([H])c([H])c(F)c([H])c4F)c([H])c3[H])c(C(=O)N([H])[H])c2N([H])[H])C1([H])[H]

>  <smiles>  (24) 
[H]N=C(C([H])([H])Oc1c([H])c([H])c2c(c1[H])C([H])([H])N(C(=O)C([H])(N([H])C(=O)C([H])(N([H])C([H])([H])[H])C([H])([H])[H])C(C([H])([H])[H])(C([H])([H])[H])C([H])([H])[H])C([H])(C(=O)N([H])C1([H])c3c([H])c([H])c([H])c([H])c3C([H])([H])C([H])([H])C1([H])[H])C2([H])[H])C([H])([H])C([H])([H])C(=O)N1C([H])([H])C([H])([H])C([H])([H])C([H])(n2nc(-c3c([H])c([H])c(Oc4c([H])c([H])c(F)c([H])c4F)c([H])c3[H])c(C(=O)N([H])[H])c2N([H])[H])C1([H])[H]

$$$$
25:0:0
     RDKit          3D

 80 84  0  0  1  0  0  0  0  0999 V2000
  -24.7480  -31.7400   23.0800 C   0  0  0  0  0  0  0  0  0  0  0  0
  -27.2100  -26.0510   20.1390 C   0  0  0  0  0  0  0  0  0  0  0  0
  -23.5690  -30.3190   21.4690 C   0  0  0  0  0  3  0  0  0  0  0  0
  -25.0040  -28.5230   20.0910 C   0  0  0  0  0  0  0  0  0  0  0  0
  -26.1690  -30.2560   21.4010 C   0  0  0  0  0  2  0  0  0  0  0  0
  -26.2180  -28.7450   20.7470 C   0  0  0  0  0  0  0  0  0  0  0  0
  -27.2650  -27.5660   20.7200 C   0  0  0  0  0  3  0  0  0  0  0  0
  -25.9540  -26.2210   19.4220 C   0  0  0  0  0  3  0  0  0  0  0  0
  -24.9530  -27.2900   19.4000 C   0  0  0  0  0  3  0  0  0  0  0  0
  -23.8280  -29.5580   20.1230 C   0  0  0  0  0  2  0  0  0  0  0  0
  -24.8630  -30.8220   22.0350 N   0  0  0  0  0  0  0  0  0  0  0  0
  -23.6460  -32.0720   23.5630 O   0  0  0  0  0  0  0  0  0  0  0  0
  -22.7940  -29.4120   22.4690 C   0  0  0  0  0  0  0  0  0  0  0  0
  -21.4510  -29.3090   22.3680 N   0  0  0  0  0  0  0  0  0  0  0  0
  -23.4280  -28.7880   23.3230 O   0  0  0  0  0  0  0  0  0  0  0  0
  -20.9800  -29.8600   21.6650 H   0  0  0  0  0  0  0  0  0  0  0  0
  -18.0460  -28.1260   22.9500 C   0  0  0  0  0  0  0  0  0  0  0  0
  -20.6160  -28.3860   23.1560 C   0  0  0  0  0  3  0  0  0  0  0  0
  -20.6930  -26.9490   22.5850 C   0  0  0  0  0  2  0  0  0  0  0  0
  -19.5730  -26.6360   21.5880 C   0  0  0  0  0  2  0  0  0  0  0  0
  -18.2040  -26.7830   22.2560 C   0  0  0  0  0  2  0  0  0  0  0  0
  -19.1760  -28.8870   23.3550 C   0  0  0  0  0  0  0  0  0  0  0  0
  -18.9680  -30.1380   23.9760 C   0  0  0  0  0  3  0  0  0  0  0  0
  -17.6650  -30.6310   24.1850 C   0  0  0  0  0  3  0  0  0  0  0  0
  -16.5530  -29.8700   23.7880 C   0  0  0  0  0  3  0  0  0  0  0  0
  -16.7440  -28.6190   23.1770 C   0  0  0  0  0  3  0  0  0  0  0  0
  -25.9840  -32.4300   23.7380 C   0  0  0  0  0  3  0  0  0  0  0  0
  -25.6400  -33.8350   24.0750 N   0  0  0  0  0  0  0  0  0  0  0  0
  -25.9710  -34.9220   23.3610 C   0  0  0  0  0  0  0  0  0  0  0  0
  -26.6370  -34.8480   22.3270 O   0  0  0  0  0  0  0  0  0  0  0  0
  -25.0400  -33.9640   24.8780 H   0  0  0  0  0  0  0  0  0  0  0  0
  -24.2330  -36.7370   23.1040 C   0  0  0  0  0  1  0  0  0  0  0  0
  -25.4980  -36.3070   23.8640 C   0  0  0  0  0  3  0  0  0  0  0  0
  -27.6540  -37.1970   24.6470 C   0  0  0  0  0  1  0  0  0  0  0  0
  -26.5240  -37.3690   23.7390 N   0  0  0  0  0  0  0  0  0  0  0  0
  -26.1160  -38.2840   23.9110 H   0  0  0  0  0  0  0  0  0  0  0  0
  -26.4690  -31.6980   25.0520 C   0  0  1  0  0  0  0  0  0  0  0  0
  -25.3550  -31.4970   26.1070 C   0  0  0  0  0  1  0  0  0  0  0  0
  -27.0520  -30.3050   24.7340 C   0  0  0  0  0  1  0  0  0  0  0  0
  -27.6130  -32.5040   25.7120 C   0  0  0  0  0  1  0  0  0  0  0  0
  -28.1080  -24.5210   20.1470 O   0  0  0  0  0  1  0  0  0  0  0  0
  -28.0860  -22.3840   20.0340 C   0  0  0  0  0 15  0  0  0  0  0  0
  -29.0280  -18.5880   20.0510 C   0  0  0  0  0  1  0  0  0  0  0  0
  -29.0520  -20.3530   20.0390 C   0  0  0  0  0  1  0  0  0  0  0  0
  -29.8590  -16.7530   20.0000 C   0  0  0  0  0  2  0  0  0  0  0  0
  -30.2630  -13.9400   19.2970 C   0  0  0  0  0  2  0  0  0  0  0  0
  -29.5080  -13.0700   18.2010 C   0  0  0  0  0  2  0  0  0  0  0  0
  -28.1940  -12.4790   18.7170 C   0  0  0  0  0  2  0  0  0  0  0  0
  -27.5340  -13.5200   19.6300 C   0  0  0  0  0  3  0  0  0  0  0  0
  -28.4780  -14.2630   20.6500 C   0  0  0  0  0  2  0  0  0  0  0  0
  -29.4770  -15.1930   19.9450 N   0  0  0  0  0  0  0  0  0  0  0  0
  -31.1040  -16.5070   19.8820 O   0  0  0  0  0  1  0  0  0  0  0  0
  -25.1900  -13.9110   20.4580 C   0  0  0  0  0  0  0  0  0  0  0  0
  -24.1590  -13.1030   20.8340 C   0  0  0  0  0  0  0  0  0  0  0  0
  -24.6610  -11.7640   20.7800 C   0  0  0  0  0  0  0  0  0  0  0  0
  -26.2580  -13.0820   20.1950 N   0  0  0  0  0  0  0  0  0  0  0  0
  -25.9540  -11.7720   20.4400 N   0  0  0  0  0  0  0  0  0  0  0  0
  -23.9490  -10.4870   20.9760 C   0  0  0  0  0  0  0  0  0  0  0  0
  -24.3880   -9.5240   21.9110 C   0  0  0  0  0  3  0  0  0  0  0  0
  -23.6650   -8.3260   22.1030 C   0  0  0  0  0  3  0  0  0  0  0  0
  -22.4850   -8.0780   21.3600 C   0  0  0  0  0  0  0  0  0  0  0  0
  -22.0610   -9.0300   20.4170 C   0  0  0  0  0  3  0  0  0  0  0  0
  -22.7850  -10.2200   20.2240 C   0  0  0  0  0  3  0  0  0  0  0  0
  -21.7350   -6.9300   21.4600 O   0  0  0  0  0  0  0  0  0  0  0  0
  -21.6930   -6.1920   22.6160 C   0  0  0  0  0  0  0  0  0  0  0  0
  -21.2860   -6.7560   23.8460 C   0  0  0  0  0  3  0  0  0  0  0  0
  -21.1910   -5.9460   24.9950 C   0  0  0  0  0  3  0  0  0  0  0  0
  -21.4920   -4.5740   24.9170 C   0  0  0  0  0  0  0  0  0  0  0  0
  -21.8920   -4.0090   23.6930 C   0  0  0  0  0  3  0  0  0  0  0  0
  -21.9880   -4.8150   22.5450 C   0  0  0  0  0  0  0  0  0  0  0  0
  -22.3530   -4.2610   21.3640 F   0  0  0  0  0  0  0  0  0  0  0  0
  -21.3940   -3.7940   26.0190 F   0  0  0  0  0  0  0  0  0  0  0  0
  -22.7580  -13.5540   21.1210 C   0  0  0  0  0  0  0  0  0  0  0  0
  -22.0570  -12.8530   22.0020 N   0  0  0  0  0  0  0  0  0  0  0  0
  -22.2990  -14.5710   20.6020 O   0  0  0  0  0  0  0  0  0  0  0  0
  -22.4430  -12.0330   22.4450 H   0  0  0  0  0  0  0  0  0  0  0  0
  -21.1170  -13.1400   22.2390 H   0  0  0  0  0  0  0  0  0  0  0  0
  -25.3070  -15.2870   20.2780 N   0  0  0  0  0  0  0  0  0  0  0  0
  -24.5180  -15.9150   20.3990 H   0  0  0  0  0  0  0  0  0  0  0  0
  -26.1360  -15.7520   19.9320 H   0  0  0  0  0  0  0  0  0  0  0  0
  1 12  2  0
  2 41  1  0
  2  7  1  0
  3 11  1  0
  3 13  1  0
  4 10  1  0
  4  6  1  0
  5 11  1  0
  6  5  1  0
  7  6  2  0
  8  2  2  0
  9  8  1  0
  9  4  2  0
 10  3  1  0
 11  1  1  0
 13 15  2  0
 14 13  1  0
 16 14  1  0
 17 26  2  0
 17 22  1  0
 18 14  1  0
 18 22  1  0
 19 18  1  0
 20 21  1  0
 20 19  1  0
 21 17  1  0
 22 23  2  0
 23 24  1  0
 25 24  2  0
 26 25  1  0
 27  1  1  0
 27 28  1  0
 27 37  1  0
 28 31  1  0
 29 33  1  0
 29 28  1  0
 30 29  2  0
 33 32  1  0
 35 33  1  0
 35 36  1  0
 35 34  1  0
 37 40  1  1
 37 38  1  0
 39 37  1  0
 44 43  1  0
 46 51  1  0
 47 48  1  0
 47 46  1  0
 49 48  1  0
 49 56  1  0
 49 50  1  0
 51 45  1  0
 51 50  1  0
 52 45  1  0
 53 54  2  0
 54 73  1  0
 55 54  1  0
 55 58  1  0
 56 57  1  0
 56 53  1  0
 57 55  2  0
 58 59  1  0
 59 60  2  0
 61 64  1  0
 61 60  1  0
 62 61  2  0
 63 62  1  0
 63 58  2  0
 64 65  1  0
 65 66  1  0
 66 67  2  0
 68 67  1  0
 68 72  1  0
 69 68  2  0
 70 65  2  0
 70 69  1  0
 71 70  1  0
 73 74  1  0
 74 77  1  0
 74 76  1  0
 75 73  2  0
 78 79  1  0
 78 53  1  0
 80 78  1  0
M  ISO  4  41 101  42 101  43 100  45 100
M  END
>  <TORSDO>  (25) 
F 17

>  <SCORE>  (25) 
-16.039

>  <name>  (25) 
25

>  <ligand_id>  (25) 
25

>  <original_smiles>  (25) 
[H]C(C(=O)N1C([H])([H])C([H])([H])C([H])([H])C([H])(n2nc(-c3c([H])c([H])c(Oc4c([H])c([H])c(F)c([H])c4F)c([H])c3[H])c(C(=O)N([H])[H])c2N([H])[H])C1([H])[H])=C([H])C([H])([H])Oc1c([H])c([H])c2c(c1[H])C([H])([H])N(C(=O)C([H])(N([H])C(=O)C([H])(N([H])C([H])([H])[H])C([H])([H])[H])C(C([H])([H])[H])(C([H])([H])[H])C([H])([H])[H])C([H])(C(=O)N([H])C1([H])c3c([H])c([H])c([H])c([H])c3C([H])([H])C([H])([H])C1([H])[H])C2([H])[H]

>  <smiles>  (25) 
[H]C(C(=O)N1C([H])([H])C([H])([H])C([H])([H])C([H])(n2nc(-c3c([H])c([H])c(Oc4c([H])c([H])c(F)c([H])c4F)c([H])c3[H])c(C(=O)N([H])[H])c2N([H])[H])C1([H])[H])=C([H])C([H])([H])Oc1c([H])c([H])c2c(c1[H])C([H])([H])N(C(=O)C([H])(N([H])C(=O)C([H])(N([H])C([H])([H])[H])C([H])([H])[H])C(C([H])([H])[H])(C([H])([H])[H])C([H])([H])[H])C([H])(C(=O)N([H])C1([H])c3c([H])c([H])c([H])c([H])c3C([H])([H])C([H])([H])C1([H])[H])C2([H])[H]

$$$$
26:0:0
     RDKit          3D

 85 90  0  0  1  0  0  0  0  0999 V2000
  -28.6630  -21.5380   19.5360 C   0  0  0  0  0  2  0  0  0  0  0  0
  -29.3730  -20.6660   21.6260 C   0  0  0  0  0  2  0  0  0  0  0  0
  -29.0940  -22.3600   21.5900 C   0  0  0  0  0  2  0  0  0  0  0  0
  -29.1170  -19.7680   20.3050 C   0  0  0  0  0  1  0  0  0  0  0  0
  -28.2290  -23.1530   20.4330 C   0  0  0  0  0  2  0  0  0  0  0  0
  -28.6640  -21.6190   18.3040 O   0  0  0  0  0  1  0  0  0  0  0  0
  -30.1430  -16.3210   20.0540 C   0  0  0  0  0  0  0  0  0  0  0  0
  -30.3960  -13.6590   19.2310 C   0  0  0  0  0  2  0  0  0  0  0  0
  -29.5390  -12.9800   18.1020 C   0  0  0  0  0  2  0  0  0  0  0  0
  -28.1840  -12.4950   18.6280 C   0  0  0  0  0  2  0  0  0  0  0  0
  -27.6140  -13.5190   19.6260 C   0  0  0  0  0  3  0  0  0  0  0  0
  -28.6380  -14.0610   20.6680 C   0  0  0  0  0  2  0  0  0  0  0  0
  -29.6800  -14.8670   19.9340 N   0  0  0  0  0  0  0  0  0  0  0  0
  -31.3910  -16.1680   19.9800 O   0  0  0  0  0  0  0  0  0  0  0  0
  -29.3740  -17.8190   20.0710 N   0  0  0  0  0  2  0  0  0  0  0  0
  -28.4210  -17.5090   19.9320 H   0  0  0  0  0  0  0  0  0  0  0  0
  -25.2870  -13.9770   20.4970 C   0  0  0  0  0  0  0  0  0  0  0  0
  -24.2480  -13.1780   20.8780 C   0  0  0  0  0  0  0  0  0  0  0  0
  -24.7320  -11.8340   20.8000 C   0  0  0  0  0  0  0  0  0  0  0  0
  -26.3340  -13.1280   20.2010 N   0  0  0  0  0  0  0  0  0  0  0  0
  -26.0160  -11.8260   20.4440 N   0  0  0  0  0  0  0  0  0  0  0  0
  -24.0150  -10.5630   20.9840 C   0  0  0  0  0  0  0  0  0  0  0  0
  -24.4570   -9.5890   21.9080 C   0  0  0  0  0  3  0  0  0  0  0  0
  -23.7340   -8.3900   22.0870 C   0  0  0  0  0  3  0  0  0  0  0  0
  -22.5520   -8.1530   21.3430 C   0  0  0  0  0  0  0  0  0  0  0  0
  -22.1280   -9.1160   20.4100 C   0  0  0  0  0  3  0  0  0  0  0  0
  -22.8520  -10.3060   20.2290 C   0  0  0  0  0  3  0  0  0  0  0  0
  -21.8010   -7.0070   21.4310 O   0  0  0  0  0  0  0  0  0  0  0  0
  -21.7410   -6.2710   22.5890 C   0  0  0  0  0  0  0  0  0  0  0  0
  -21.2630   -6.8240   23.7970 C   0  0  0  0  0  3  0  0  0  0  0  0
  -21.1520   -6.0150   24.9460 C   0  0  0  0  0  3  0  0  0  0  0  0
  -21.5080   -4.6540   24.8870 C   0  0  0  0  0  0  0  0  0  0  0  0
  -21.9780   -4.1010   23.6830 C   0  0  0  0  0  3  0  0  0  0  0  0
  -22.0900   -4.9070   22.5370 C   0  0  0  0  0  0  0  0  0  0  0  0
  -22.5220   -4.3630   21.3740 F   0  0  0  0  0  0  0  0  0  0  0  0
  -21.3950   -3.8750   25.9880 F   0  0  0  0  0  0  0  0  0  0  0  0
  -22.8560  -13.6380   21.1920 C   0  0  0  0  0  0  0  0  0  0  0  0
  -22.1620  -12.9320   22.0760 N   0  0  0  0  0  0  0  0  0  0  0  0
  -22.3970  -14.6640   20.6910 O   0  0  0  0  0  0  0  0  0  0  0  0
  -22.5500  -12.1030   22.5030 H   0  0  0  0  0  0  0  0  0  0  0  0
  -21.2280  -13.2240   22.3300 H   0  0  0  0  0  0  0  0  0  0  0  0
  -25.4240  -15.3530   20.3390 N   0  0  0  0  0  0  0  0  0  0  0  0
  -24.6490  -15.9920   20.4830 H   0  0  0  0  0  0  0  0  0  0  0  0
  -26.2510  -15.8060   19.9750 H   0  0  0  0  0  0  0  0  0  0  0  0
  -28.2040  -25.1000   20.2130 O   0  0  0  0  0  1  0  0  0  0  0  0
  -24.6680  -31.8340   23.1630 C   0  0  0  0  0  0  0  0  0  0  0  0
  -27.2400  -26.4560   20.2470 C   0  0  0  0  0  0  0  0  0  0  0  0
  -23.5130  -30.4080   21.5340 C   0  0  0  0  0  3  0  0  0  0  0  0
  -24.9840  -28.6950   20.1630 C   0  0  0  0  0  0  0  0  0  0  0  0
  -26.1070  -30.4730   21.4610 C   0  0  0  0  0  2  0  0  0  0  0  0
  -26.1840  -28.9980   20.8140 C   0  0  0  0  0  0  0  0  0  0  0  0
  -27.2790  -27.9210   20.8070 C   0  0  0  0  0  3  0  0  0  0  0  0
  -25.9940  -26.4570   19.5370 C   0  0  0  0  0  3  0  0  0  0  0  0
  -24.9490  -27.4540   19.4970 C   0  0  0  0  0  3  0  0  0  0  0  0
  -23.7840  -29.6790   20.1800 C   0  0  0  0  0  2  0  0  0  0  0  0
  -24.7910  -30.9470   22.1040 N   0  0  0  0  0  0  0  0  0  0  0  0
  -23.5620  -32.1390   23.6490 O   0  0  0  0  0  0  0  0  0  0  0  0
  -22.7680  -29.4600   22.5150 C   0  0  0  0  0  0  0  0  0  0  0  0
  -21.4330  -29.3200   22.3940 N   0  0  0  0  0  0  0  0  0  0  0  0
  -23.4130  -28.8420   23.3650 O   0  0  0  0  0  0  0  0  0  0  0  0
  -20.9560  -29.8680   21.6910 H   0  0  0  0  0  0  0  0  0  0  0  0
  -18.0410  -28.1010   22.9300 C   0  0  0  0  0  0  0  0  0  0  0  0
  -20.6040  -28.3850   23.1710 C   0  0  0  0  0  3  0  0  0  0  0  0
  -20.7050  -26.9500   22.5980 C   0  0  0  0  0  2  0  0  0  0  0  0
  -19.5990  -26.6260   21.5880 C   0  0  0  0  0  2  0  0  0  0  0  0
  -18.2200  -26.7580   22.2410 C   0  0  0  0  0  2  0  0  0  0  0  0
  -19.1590  -28.8720   23.3510 C   0  0  0  0  0  0  0  0  0  0  0  0
  -18.9310  -30.1240   23.9630 C   0  0  0  0  0  3  0  0  0  0  0  0
  -17.6230  -30.6070   24.1520 C   0  0  0  0  0  3  0  0  0  0  0  0
  -16.5220  -29.8360   23.7410 C   0  0  0  0  0  3  0  0  0  0  0  0
  -16.7320  -28.5840   23.1360 C   0  0  0  0  0  3  0  0  0  0  0  0
  -25.9050  -32.5190   23.8200 C   0  0  0  0  0  3  0  0  0  0  0  0
  -25.5550  -33.9200   24.1450 N   0  0  0  0  0  0  0  0  0  0  0  0
  -25.8780  -34.9950   23.4120 C   0  0  0  0  0  0  0  0  0  0  0  0
  -26.5520  -34.9120   22.3830 O   0  0  0  0  0  0  0  0  0  0  0  0
  -24.9530  -34.0550   24.9440 H   0  0  0  0  0  0  0  0  0  0  0  0
  -24.1310  -36.7890   23.1020 C   0  0  0  0  0  1  0  0  0  0  0  0
  -25.3850  -36.3800   23.8920 C   0  0  0  0  0  3  0  0  0  0  0  0
  -27.5150  -37.2940   24.7130 C   0  0  0  0  0  1  0  0  0  0  0  0
  -26.4050  -37.4460   23.7760 N   0  0  0  0  0  0  0  0  0  0  0  0
  -25.9890  -38.3610   23.9250 H   0  0  0  0  0  0  0  0  0  0  0  0
  -26.3870  -31.7850   25.1350 C   0  0  1  0  0  0  0  0  0  0  0  0
  -25.2650  -31.5650   26.1770 C   0  0  0  0  0  1  0  0  0  0  0  0
  -26.9940  -30.4030   24.8120 C   0  0  0  0  0  1  0  0  0  0  0  0
  -27.5120  -32.6050   25.8100 C   0  0  0  0  0  1  0  0  0  0  0  0
  1  5  1  0
  3  2  1  0
  4  2  1  0
  5  3  1  0
  6  1  1  0
  7 15  1  0
  8 13  1  0
  9 10  1  0
  9  8  1  0
 11 10  1  0
 11 20  1  0
 11 12  1  0
 13  7  1  0
 13 12  1  0
 14  7  2  0
 16 15  1  0
 17 18  2  0
 18 37  1  0
 19 18  1  0
 19 22  1  0
 20 21  1  0
 20 17  1  0
 21 19  2  0
 22 23  1  0
 23 24  2  0
 25 28  1  0
 25 24  1  0
 26 25  2  0
 27 26  1  0
 27 22  2  0
 28 29  1  0
 29 30  1  0
 30 31  2  0
 32 31  1  0
 32 36  1  0
 33 32  2  0
 34 29  2  0
 34 33  1  0
 35 34  1  0
 37 38  1  0
 38 41  1  0
 38 40  1  0
 39 37  2  0
 42 43  1  0
 42 17  1  0
 44 42  1  0
 45 47  1  0
 46 57  2  0
 47 52  1  0
 48 56  1  0
 48 58  1  0
 49 55  1  0
 49 51  1  0
 50 56  1  0
 51 50  1  0
 52 51  2  0
 53 47  2  0
 54 53  1  0
 54 49  2  0
 55 48  1  0
 56 46  1  0
 58 60  2  0
 59 58  1  0
 61 59  1  0
 62 71  2  0
 62 67  1  0
 63 59  1  0
 63 67  1  0
 64 63  1  0
 65 66  1  0
 65 64  1  0
 66 62  1  0
 67 68  2  0
 68 69  1  0
 70 69  2  0
 71 70  1  0
 72 46  1  0
 72 73  1  0
 72 82  1  0
 73 76  1  0
 74 78  1  0
 74 73  1  0
 75 74  2  0
 78 77  1  0
 80 78  1  0
 80 81  1  0
 80 79  1  0
 82 85  1  1
 82 83  1  0
 84 82  1  0
M  ISO  4   5 101   7 100  15 100  45 101
M  END
>  <TORSDO>  (26) 
F 16

>  <SCORE>  (26) 
-16.553

>  <name>  (26) 
26

>  <ligand_id>  (26) 
26

>  <original_smiles>  (26) 
[H]c1c([H])c([H])c2c(c1[H])C([H])([H])C([H])([H])C([H])([H])C2([H])N([H])C(=O)C1([H])N(C(=O)C([H])(N([H])C(=O)C([H])(N([H])C([H])([H])[H])C([H])([H])[H])C(C([H])([H])[H])(C([H])([H])[H])C([H])([H])[H])C([H])([H])c2c([H])c(OC3([H])C(=O)C([H])(N([H])C(=O)N4C([H])([H])C([H])([H])C([H])([H])C([H])(n5nc(-c6c([H])c([H])c(Oc7c([H])c([H])c(F)c([H])c7F)c([H])c6[H])c(C(=O)N([H])[H])c5N([H])[H])C4([H])[H])C([H])([H])C3([H])[H])c([H])c([H])c2C1([H])[H]

>  <smiles>  (26) 
[H]c1c([H])c([H])c2c(c1[H])C([H])([H])C([H])([H])C([H])([H])C2([H])N([H])C(=O)C1([H])N(C(=O)C([H])(N([H])C(=O)C([H])(N([H])C([H])([H])[H])C([H])([H])[H])C(C([H])([H])[H])(C([H])([H])[H])C([H])([H])[H])C([H])([H])c2c([H])c(OC3([H])C(=O)C([H])(N([H])C(=O)N4C([H])([H])C([H])([H])C([H])([H])C([H])(n5nc(-c6c([H])c([H])c(Oc7c([H])c([H])c(F)c([H])c7F)c([H])c6[H])c(C(=O)N([H])[H])c5N([H])[H])C4([H])[H])C([H])([H])C3([H])[H])c([H])c([H])c2C1([H])[H]

$$$$
27:0:0
     RDKit          3D

 86 94  0  0  1  0  0  0  0  0999 V2000
  -30.6280  -21.8010   21.8760 C   0  0  0  0  0  3  0  0  0  0  0  0
  -30.4630  -20.4340   21.5130 C   0  0  0  0  0  3  0  0  0  0  0  0
  -29.8230  -22.8660   21.4010 C   0  0  0  0  0  3  0  0  0  0  0  0
  -28.6560  -21.1530   20.1230 C   0  0  0  0  0  3  0  0  0  0  0  0
  -29.4940  -19.9270   20.6140 C   0  0  0  0  0  0  0  0  0  0  0  0
  -28.7680  -22.6710   20.4970 C   0  0  0  0  0  0  0  0  0  0  0  0
  -29.8790  -18.2580   20.3120 C   0  0  0  0  0  3  0  0  0  0  0  0
  -29.5560  -16.8270   20.5630 C   0  0  0  0  0  3  0  0  0  0  0  0
  -30.3490  -15.3970   20.3150 C   0  0  0  0  0  0  0  0  0  0  0  0
  -30.3720  -12.9090   19.4850 C   0  0  0  0  0  2  0  0  0  0  0  0
  -29.4790  -12.6730   18.2360 C   0  0  0  0  0  2  0  0  0  0  0  0
  -28.0220  -12.3950   18.6490 C   0  0  0  0  0  2  0  0  0  0  0  0
  -27.5460  -13.3630   19.7570 C   0  0  0  0  0  3  0  0  0  0  0  0
  -28.5690  -13.5460   20.8910 C   0  0  0  0  0  2  0  0  0  0  0  0
  -29.8090  -14.0680   20.2950 N   0  0  0  0  0  0  0  0  0  0  0  0
  -31.5590  -15.3640   20.0500 O   0  0  0  0  0  0  0  0  0  0  0  0
  -25.1600  -13.8920   20.4840 C   0  0  0  0  0  0  0  0  0  0  0  0
  -24.1020  -13.1090   20.8490 C   0  0  0  0  0  0  0  0  0  0  0  0
  -24.5840  -11.7640   20.8360 C   0  0  0  0  0  0  0  0  0  0  0  0
  -26.2170  -13.0310   20.2560 N   0  0  0  0  0  0  0  0  0  0  0  0
  -25.8800  -11.7430   20.5350 N   0  0  0  0  0  0  0  0  0  0  0  0
  -23.8650  -10.4960   21.0290 C   0  0  0  0  0  0  0  0  0  0  0  0
  -24.3010   -9.5310   21.9680 C   0  0  0  0  0  3  0  0  0  0  0  0
  -23.5790   -8.3320   22.1520 C   0  0  0  0  0  3  0  0  0  0  0  0
  -22.4070   -8.0860   21.3980 C   0  0  0  0  0  0  0  0  0  0  0  0
  -21.9890   -9.0350   20.4490 C   0  0  0  0  0  3  0  0  0  0  0  0
  -22.7140  -10.2260   20.2610 C   0  0  0  0  0  3  0  0  0  0  0  0
  -21.6600   -6.9360   21.4830 O   0  0  0  0  0  0  0  0  0  0  0  0
  -21.6140   -6.1920   22.6350 C   0  0  0  0  0  0  0  0  0  0  0  0
  -21.1870   -6.7460   23.8630 C   0  0  0  0  0  3  0  0  0  0  0  0
  -21.0920   -5.9310   25.0080 C   0  0  0  0  0  3  0  0  0  0  0  0
  -21.4120   -4.5640   24.9280 C   0  0  0  0  0  0  0  0  0  0  0  0
  -21.8330   -4.0090   23.7060 C   0  0  0  0  0  3  0  0  0  0  0  0
  -21.9310   -4.8210   22.5620 C   0  0  0  0  0  0  0  0  0  0  0  0
  -22.3160   -4.2780   21.3810 F   0  0  0  0  0  0  0  0  0  0  0  0
  -21.3150   -3.7790   26.0240 F   0  0  0  0  0  0  0  0  0  0  0  0
  -22.6940  -13.5690   21.0950 C   0  0  0  0  0  0  0  0  0  0  0  0
  -21.9600  -12.8770   21.9580 N   0  0  0  0  0  0  0  0  0  0  0  0
  -22.2560  -14.5840   20.5540 O   0  0  0  0  0  0  0  0  0  0  0  0
  -22.3260  -12.0570   22.4170 H   0  0  0  0  0  0  0  0  0  0  0  0
  -21.0170  -13.1700   22.1670 H   0  0  0  0  0  0  0  0  0  0  0  0
  -25.3110  -15.2630   20.2980 N   0  0  0  0  0  0  0  0  0  0  0  0
  -24.5340  -15.9070   20.3930 H   0  0  0  0  0  0  0  0  0  0  0  0
  -26.1530  -15.7140   19.9650 H   0  0  0  0  0  0  0  0  0  0  0  0
  -27.8750  -24.1460   20.1010 C   0  0  0  0  0  2  0  0  0  0  0  0
  -28.1270  -25.7820   20.3750 O   0  0  0  0  0  0  0  0  0  0  0  0
  -24.6340  -31.8820   23.2540 C   0  0  0  0  0  0  0  0  0  0  0  0
  -27.1500  -26.9260   20.2760 C   0  0  0  0  0  0  0  0  0  0  0  0
  -23.4360  -30.4830   21.6230 C   0  0  0  0  0  3  0  0  0  0  0  0
  -24.8750  -28.8580   20.2060 C   0  0  0  0  0  0  0  0  0  0  0  0
  -26.0050  -30.6650   21.4860 C   0  0  0  0  0  2  0  0  0  0  0  0
  -26.0660  -29.2460   20.8320 C   0  0  0  0  0  0  0  0  0  0  0  0
  -27.1950  -28.3000   20.8440 C   0  0  0  0  0  3  0  0  0  0  0  0
  -25.9330  -26.7050   19.5930 C   0  0  0  0  0  3  0  0  0  0  0  0
  -24.8390  -27.6120   19.5620 C   0  0  0  0  0  3  0  0  0  0  0  0
  -23.6640  -29.7960   20.2480 C   0  0  0  0  0  2  0  0  0  0  0  0
  -24.7150  -31.0380   22.1740 N   0  0  0  0  0  0  0  0  0  0  0  0
  -23.5450  -32.1810   23.7700 O   0  0  0  0  0  0  0  0  0  0  0  0
  -22.7280  -29.5020   22.5930 C   0  0  0  0  0  0  0  0  0  0  0  0
  -21.3990  -29.3460   22.4660 N   0  0  0  0  0  0  0  0  0  0  0  0
  -23.3830  -28.8790   23.4310 O   0  0  0  0  0  0  0  0  0  0  0  0
  -20.9210  -29.8970   21.7680 H   0  0  0  0  0  0  0  0  0  0  0  0
  -18.0060  -28.1430   22.9610 C   0  0  0  0  0  0  0  0  0  0  0  0
  -20.5670  -28.4190   23.2410 C   0  0  0  0  0  3  0  0  0  0  0  0
  -20.6750  -26.9790   22.6870 C   0  0  0  0  0  2  0  0  0  0  0  0
  -19.5820  -26.6410   21.6670 C   0  0  0  0  0  2  0  0  0  0  0  0
  -18.1940  -26.7850   22.2970 C   0  0  0  0  0  2  0  0  0  0  0  0
  -19.1200  -28.9140   23.3890 C   0  0  0  0  0  0  0  0  0  0  0  0
  -18.8920  -30.1780   23.9770 C   0  0  0  0  0  3  0  0  0  0  0  0
  -17.5850  -30.6740   24.1320 C   0  0  0  0  0  3  0  0  0  0  0  0
  -16.4870  -29.9010   23.7200 C   0  0  0  0  0  3  0  0  0  0  0  0
  -16.6980  -28.6360   23.1420 C   0  0  0  0  0  3  0  0  0  0  0  0
  -25.9050  -32.5250   23.8860 C   0  0  0  0  0  3  0  0  0  0  0  0
  -25.5920  -33.9240   24.2210 N   0  0  0  0  0  0  0  0  0  0  0  0
  -25.9040  -34.9860   23.4640 C   0  0  0  0  0  0  0  0  0  0  0  0
  -26.5480  -34.8890   22.4190 O   0  0  0  0  0  0  0  0  0  0  0  0
  -25.0110  -34.0700   25.0340 H   0  0  0  0  0  0  0  0  0  0  0  0
  -24.1510  -36.7760   23.1890 C   0  0  0  0  0  1  0  0  0  0  0  0
  -25.4300  -36.3770   23.9430 C   0  0  0  0  0  3  0  0  0  0  0  0
  -27.5870  -37.2860   24.6810 C   0  0  0  0  0  1  0  0  0  0  0  0
  -26.4520  -37.4350   23.7780 N   0  0  0  0  0  0  0  0  0  0  0  0
  -26.0480  -38.3570   23.9210 H   0  0  0  0  0  0  0  0  0  0  0  0
  -26.4030  -31.7620   25.1770 C   0  0  1  0  0  0  0  0  0  0  0  0
  -25.3000  -31.5440   26.2400 C   0  0  0  0  0  1  0  0  0  0  0  0
  -26.9810  -30.3760   24.8140 C   0  0  0  0  0  1  0  0  0  0  0  0
  -27.5550  -32.5560   25.8410 C   0  0  0  0  0  1  0  0  0  0  0  0
  2  1  1  0
  3  1  2  0
  4  6  2  0
  4  5  1  0
  5  2  2  0
  6  3  1  0
  7  8  2  0
  7  5  1  0
  9  8  1  0
 10 15  1  0
 11 12  1  0
 11 10  1  0
 13 12  1  0
 13 20  1  0
 13 14  1  0
 15  9  1  0
 15 14  1  0
 16  9  2  0
 17 18  2  0
 18 37  1  0
 19 18  1  0
 19 22  1  0
 20 17  1  0
 20 21  1  0
 21 19  2  0
 22 23  1  0
 23 24  2  0
 25 28  1  0
 25 24  1  0
 26 25  2  0
 27 26  1  0
 27 22  2  0
 28 29  1  0
 29 30  1  0
 30 31  2  0
 32 31  1  0
 32 36  1  0
 33 32  2  0
 34 29  2  0
 34 33  1  0
 35 34  1  0
 37 38  1  0
 38 41  1  0
 38 40  1  0
 39 37  2  0
 42 43  1  0
 42 17  1  0
 44 42  1  0
 45 46  1  0
 45  6  1  0
 47 58  2  0
 48 46  1  0
 48 53  1  0
 49 57  1  0
 49 59  1  0
 50 56  1  0
 50 52  1  0
 51 57  1  0
 52 53  2  0
 52 51  1  0
 54 48  2  0
 55 54  1  0
 55 50  2  0
 56 49  1  0
 57 47  1  0
 59 61  2  0
 60 59  1  0
 62 60  1  0
 63 72  2  0
 63 68  1  0
 64 60  1  0
 64 68  1  0
 65 64  1  0
 66 67  1  0
 66 65  1  0
 67 63  1  0
 68 69  2  0
 69 70  1  0
 71 70  2  0
 72 71  1  0
 73 47  1  0
 73 74  1  0
 73 83  1  0
 74 77  1  0
 75 79  1  0
 75 74  1  0
 76 75  2  0
 79 78  1  0
 81 82  1  0
 81 79  1  0
 81 80  1  0
 83 86  1  1
 83 84  1  0
 85 83  1  0
M  ISO  4   8 100   9 100  45 101  46 101
M  END
>  <TORSDO>  (27) 
F 18

>  <SCORE>  (27) 
-16.147

>  <name>  (27) 
27

>  <ligand_id>  (27) 
27

>  <original_smiles>  (27) 
[H]C(C(=O)N1C([H])([H])C([H])([H])C([H])([H])C([H])(n2nc(-c3c([H])c([H])c(Oc4c([H])c([H])c(F)c([H])c4F)c([H])c3[H])c(C(=O)N([H])[H])c2N([H])[H])C1([H])[H])=C([H])c1c([H])c([H])c([H])c(C([H])([H])Oc2c([H])c([H])c3c(c2[H])C([H])([H])N(C(=O)C([H])(N([H])C(=O)C([H])(N([H])C([H])([H])[H])C([H])([H])[H])C(C([H])([H])[H])(C([H])([H])[H])C([H])([H])[H])C([H])(C(=O)N([H])C2([H])c4c([H])c([H])c([H])c([H])c4C([H])([H])C([H])([H])C2([H])[H])C3([H])[H])c1[H]

>  <smiles>  (27) 
[H]C(C(=O)N1C([H])([H])C([H])([H])C([H])([H])C([H])(n2nc(-c3c([H])c([H])c(Oc4c([H])c([H])c(F)c([H])c4F)c([H])c3[H])c(C(=O)N([H])[H])c2N([H])[H])C1([H])[H])=C([H])c1c([H])c([H])c([H])c(C([H])([H])Oc2c([H])c([H])c3c(c2[H])C([H])([H])N(C(=O)C([H])(N([H])C(=O)C([H])(N([H])C([H])([H])[H])C([H])([H])[H])C(C([H])([H])[H])(C([H])([H])[H])C([H])([H])[H])C([H])(C(=O)N([H])C2([H])c4c([H])c([H])c([H])c([H])c4C([H])([H])C([H])([H])C2([H])[H])C3([H])[H])c1[H]

$$$$
28:0:0
     RDKit          3D

 94101  0  0  1  0  0  0  0  0999 V2000
  -29.5680  -20.5740   20.9240 C   0  0  0  0  0  0  0  0  0  0  0  0
  -29.7250  -21.9180   20.8510 N   0  0  0  0  0  0  0  0  0  0  0  0
  -28.4530  -20.0470   20.8960 O   0  0  0  0  0  0  0  0  0  0  0  0
  -30.6790  -22.2540   20.8640 H   0  0  0  0  0  0  0  0  0  0  0  0
  -27.8650  -22.9270   22.1310 C   0  0  0  0  0  1  0  0  0  0  0  0
  -28.6550  -22.9390   20.8010 C   0  0  0  0  0  3  0  0  0  0  0  0
  -29.1900  -24.3800   20.4970 C   0  0  0  0  0  2  0  0  0  0  0  0
  -28.0910  -25.3270   19.9360 C   0  0  0  0  0  2  0  0  0  0  0  0
  -28.3130  -26.7540   20.0720 O   0  0  0  0  0  0  0  0  0  0  0  0
  -24.5880  -31.9510   23.2650 C   0  0  0  0  0  0  0  0  0  0  0  0
  -27.1680  -27.5430   20.0470 C   0  0  0  0  0  0  0  0  0  0  0  0
  -23.3600  -30.5880   21.6130 C   0  0  0  0  0  3  0  0  0  0  0  0
  -24.7870  -29.0930   20.1180 C   0  0  0  0  0  0  0  0  0  0  0  0
  -25.8870  -30.9410   21.3870 C   0  0  0  0  0  2  0  0  0  0  0  0
  -25.9600  -29.5840   20.7090 C   0  0  0  0  0  0  0  0  0  0  0  0
  -27.1540  -28.8170   20.6690 C   0  0  0  0  0  3  0  0  0  0  0  0
  -25.9750  -27.0930   19.4310 C   0  0  0  0  0  3  0  0  0  0  0  0
  -24.7930  -27.8490   19.4710 C   0  0  0  0  0  3  0  0  0  0  0  0
  -23.5470  -29.9550   20.2100 C   0  0  0  0  0  2  0  0  0  0  0  0
  -24.6310  -31.1720   22.1460 N   0  0  0  0  0  0  0  0  0  0  0  0
  -23.5140  -32.2090   23.8250 O   0  0  0  0  0  0  0  0  0  0  0  0
  -22.7230  -29.5400   22.5570 C   0  0  0  0  0  0  0  0  0  0  0  0
  -21.4030  -29.3320   22.4210 N   0  0  0  0  0  0  0  0  0  0  0  0
  -23.4130  -28.9240   23.3730 O   0  0  0  0  0  0  0  0  0  0  0  0
  -20.9070  -29.8860   21.7350 H   0  0  0  0  0  0  0  0  0  0  0  0
  -18.0530  -28.0410   22.8610 C   0  0  0  0  0  0  0  0  0  0  0  0
  -20.5980  -28.3720   23.1770 C   0  0  0  0  0  3  0  0  0  0  0  0
  -20.7530  -26.9450   22.6050 C   0  0  0  0  0  2  0  0  0  0  0  0
  -19.6780  -26.5880   21.5740 C   0  0  0  0  0  2  0  0  0  0  0  0
  -18.2800  -26.6960   22.1920 C   0  0  0  0  0  2  0  0  0  0  0  0
  -19.1410  -28.8350   23.3090 C   0  0  0  0  0  0  0  0  0  0  0  0
  -18.8770  -30.0920   23.8960 C   0  0  0  0  0  3  0  0  0  0  0  0
  -17.5560  -30.5570   24.0370 C   0  0  0  0  0  3  0  0  0  0  0  0
  -16.4810  -29.7600   23.6050 C   0  0  0  0  0  3  0  0  0  0  0  0
  -16.7300  -28.5040   23.0210 C   0  0  0  0  0  3  0  0  0  0  0  0
  -25.8820  -32.5710   23.8760 C   0  0  0  0  0  3  0  0  0  0  0  0
  -26.3870  -31.8080   25.1620 C   0  0  1  0  0  0  0  0  0  0  0  0
  -25.2900  -31.5890   26.2300 C   0  0  0  0  0  1  0  0  0  0  0  0
  -26.9560  -30.4220   24.7790 C   0  0  0  0  0  1  0  0  0  0  0  0
  -27.5480  -32.5940   25.8140 C   0  0  0  0  0  1  0  0  0  0  0  0
  -25.5910  -33.9770   24.1870 N   0  0  0  0  0  0  0  0  0  0  0  0
  -25.9370  -35.0150   23.4120 C   0  0  0  0  0  0  0  0  0  0  0  0
  -26.6060  -34.8870   22.3810 O   0  0  0  0  0  0  0  0  0  0  0  0
  -25.0020  -34.1500   24.9880 H   0  0  0  0  0  0  0  0  0  0  0  0
  -24.2430  -36.8310   23.0220 C   0  0  0  0  0  1  0  0  0  0  0  0
  -25.4720  -36.4170   23.8480 C   0  0  0  0  0  3  0  0  0  0  0  0
  -27.6110  -37.2810   24.6900 C   0  0  0  0  0  1  0  0  0  0  0  0
  -26.5240  -37.4510   23.7300 N   0  0  0  0  0  0  0  0  0  0  0  0
  -26.1320  -38.3800   23.8570 H   0  0  0  0  0  0  0  0  0  0  0  0
  -30.8360  -19.6710   21.0110 C   0  0  0  0  0  3  0  0  0  0  0  0
  -30.3290  -17.1130   21.2420 C   0  0  0  0  0  0  0  0  0  0  0  0
  -30.5240  -18.2790   20.5750 N   0  0  0  0  0  0  0  0  0  0  0  0
  -30.6340  -16.9480   22.4240 O   0  0  0  0  0  0  0  0  0  0  0  0
  -30.1760  -18.2610   19.6260 H   0  0  0  0  0  0  0  0  0  0  0  0
  -29.5870  -15.9770   20.4950 C   0  0  0  0  0  2  0  0  0  0  0  0
  -30.4800  -14.7310   20.1900 C   0  0  0  0  0  0  0  0  0  0  0  0
  -30.2580  -12.5200   19.1080 C   0  0  0  0  0  2  0  0  0  0  0  0
  -29.2630  -12.6790   17.9360 C   0  0  0  0  0  2  0  0  0  0  0  0
  -27.8100  -12.4950   18.4220 C   0  0  0  0  0  2  0  0  0  0  0  0
  -27.4910  -13.3300   19.6880 C   0  0  0  0  0  3  0  0  0  0  0  0
  -28.5960  -13.1480   20.7520 C   0  0  0  0  0  2  0  0  0  0  0  0
  -29.8890  -13.5020   20.1420 N   0  0  0  0  0  0  0  0  0  0  0  0
  -31.6200  -14.9110   19.7470 O   0  0  0  0  0  0  0  0  0  0  0  0
  -25.1110  -13.8700   20.5100 C   0  0  0  0  0  0  0  0  0  0  0  0
  -24.0780  -13.0670   20.9130 C   0  0  0  0  0  0  0  0  0  0  0  0
  -24.5680  -11.7260   20.8400 C   0  0  0  0  0  0  0  0  0  0  0  0
  -26.1650  -13.0170   20.2190 N   0  0  0  0  0  0  0  0  0  0  0  0
  -25.8440  -11.7230   20.4740 N   0  0  0  0  0  0  0  0  0  0  0  0
  -23.8800  -10.4440   21.0400 C   0  0  0  0  0  0  0  0  0  0  0  0
  -24.3560   -9.4860   21.9620 C   0  0  0  0  0  3  0  0  0  0  0  0
  -23.6650   -8.2700   22.1490 C   0  0  0  0  0  3  0  0  0  0  0  0
  -22.4840   -8.0030   21.4150 C   0  0  0  0  0  0  0  0  0  0  0  0
  -22.0300   -8.9510   20.4800 C   0  0  0  0  0  3  0  0  0  0  0  0
  -22.7220  -10.1590   20.2910 C   0  0  0  0  0  3  0  0  0  0  0  0
  -21.7640   -6.8370   21.5120 O   0  0  0  0  0  0  0  0  0  0  0  0
  -21.7350   -6.1020   22.6700 C   0  0  0  0  0  0  0  0  0  0  0  0
  -21.2490   -6.6410   23.8810 C   0  0  0  0  0  3  0  0  0  0  0  0
  -21.1680   -5.8300   25.0300 C   0  0  0  0  0  3  0  0  0  0  0  0
  -21.5660   -4.4810   24.9720 C   0  0  0  0  0  0  0  0  0  0  0  0
  -22.0480   -3.9420   23.7650 C   0  0  0  0  0  3  0  0  0  0  0  0
  -22.1290   -4.7490   22.6170 C   0  0  0  0  0  0  0  0  0  0  0  0
  -22.5720   -4.2180   21.4520 F   0  0  0  0  0  0  0  0  0  0  0  0
  -21.4830   -3.7010   26.0740 F   0  0  0  0  0  0  0  0  0  0  0  0
  -22.6840  -13.5050   21.2580 C   0  0  0  0  0  0  0  0  0  0  0  0
  -22.0140  -12.7760   22.1430 N   0  0  0  0  0  0  0  0  0  0  0  0
  -22.1980  -14.5290   20.7780 O   0  0  0  0  0  0  0  0  0  0  0  0
  -22.4220  -11.9470   22.5500 H   0  0  0  0  0  0  0  0  0  0  0  0
  -21.0820  -13.0490   22.4220 H   0  0  0  0  0  0  0  0  0  0  0  0
  -25.2400  -15.2470   20.3490 N   0  0  0  0  0  0  0  0  0  0  0  0
  -24.4710  -15.8890   20.5130 H   0  0  0  0  0  0  0  0  0  0  0  0
  -26.0740  -15.7100   20.0100 H   0  0  0  0  0  0  0  0  0  0  0  0
  -33.2170  -19.5960   22.0090 C   0  0  0  0  0  1  0  0  0  0  0  0
  -31.5450  -21.0710   23.1410 C   0  0  0  0  0  1  0  0  0  0  0  0
  -31.7140  -19.7800   22.3120 C   0  0  0  0  0  3  0  0  0  0  0  0
  2  4  1  0
  2  1  1  0
  3  1  2  0
  6  2  1  0
  6  5  1  0
  7  6  1  0
  8  9  1  0
  8  7  1  0
 10 21  2  0
 11  9  1  0
 11 16  1  0
 12 20  1  0
 12 22  1  0
 13 19  1  0
 13 15  1  0
 14 20  1  0
 15 14  1  0
 16 15  2  0
 17 18  1  0
 17 11  2  0
 18 13  2  0
 19 12  1  0
 20 10  1  0
 22 24  2  0
 23 22  1  0
 25 23  1  0
 26 35  2  0
 26 31  1  0
 27 23  1  0
 27 31  1  0
 28 27  1  0
 29 30  1  0
 29 28  1  0
 30 26  1  0
 31 32  2  0
 32 33  1  0
 34 33  2  0
 35 34  1  0
 36 10  1  0
 36 41  1  0
 36 37  1  0
 37 40  1  1
 37 38  1  0
 39 37  1  0
 41 44  1  0
 42 46  1  0
 42 41  1  0
 43 42  2  0
 46 45  1  0
 48 46  1  0
 48 49  1  0
 48 47  1  0
 50  1  1  0
 50 94  1  0
 51 53  2  0
 52 50  1  0
 52 51  1  0
 54 52  1  0
 55 51  1  0
 56 55  1  0
 57 62  1  0
 58 59  1  0
 58 57  1  0
 60 59  1  0
 60 67  1  0
 60 61  1  0
 62 56  1  0
 62 61  1  0
 63 56  2  0
 64 65  2  0
 65 84  1  0
 66 65  1  0
 66 69  1  0
 67 68  1  0
 67 64  1  0
 68 66  2  0
 69 70  1  0
 70 71  2  0
 72 75  1  0
 72 71  1  0
 73 72  2  0
 74 73  1  0
 74 69  2  0
 75 76  1  0
 76 77  1  0
 77 78  2  0
 79 78  1  0
 79 83  1  0
 80 79  2  0
 81 76  2  0
 81 80  1  0
 82 81  1  0
 84 85  1  0
 85 88  1  0
 85 87  1  0
 86 84  2  0
 89 64  1  0
 89 90  1  0
 91 89  1  0
 92 94  1  0
 94 93  1  0
M  ISO  4   8 101   9 101  55 100  56 100
M  END
>  <TORSDO>  (28) 
F 23

>  <SCORE>  (28) 
-13.156

>  <name>  (28) 
28

>  <ligand_id>  (28) 
28

>  <original_smiles>  (28) 
[H]c1c([H])c([H])c2c(c1[H])C([H])([H])C([H])([H])C([H])([H])C2([H])N([H])C(=O)C1([H])N(C(=O)C([H])(N([H])C(=O)C([H])(N([H])C([H])([H])[H])C([H])([H])[H])C(C([H])([H])[H])(C([H])([H])[H])C([H])([H])[H])C([H])([H])c2c([H])c(OC([H])([H])C([H])([H])C([H])(N([H])C(=O)C([H])(N([H])C(=O)C([H])([H])C(=O)N3C([H])([H])C([H])([H])C([H])([H])C([H])(n4nc(-c5c([H])c([H])c(Oc6c([H])c([H])c(F)c([H])c6F)c([H])c5[H])c(C(=O)N([H])[H])c4N([H])[H])C3([H])[H])C([H])(C([H])([H])[H])C([H])([H])[H])C([H])([H])[H])c([H])c([H])c2C1([H])[H]

>  <smiles>  (28) 
[H]c1c([H])c([H])c2c(c1[H])C([H])([H])C([H])([H])C([H])([H])C2([H])N([H])C(=O)C1([H])N(C(=O)C([H])(N([H])C(=O)C([H])(N([H])C([H])([H])[H])C([H])([H])[H])C(C([H])([H])[H])(C([H])([H])[H])C([H])([H])[H])C([H])([H])c2c([H])c(OC([H])([H])C([H])([H])C([H])(N([H])C(=O)C([H])(N([H])C(=O)C([H])([H])C(=O)N3C([H])([H])C([H])([H])C([H])([H])C([H])(n4nc(-c5c([H])c([H])c(Oc6c([H])c([H])c(F)c([H])c6F)c([H])c5[H])c(C(=O)N([H])[H])c4N([H])[H])C3([H])[H])C([H])(C([H])([H])[H])C([H])([H])[H])C([H])([H])[H])c([H])c([H])c2C1([H])[H]

$$$$
29:0:0
     RDKit          3D

 89 96  0  0  1  0  0  0  0  0999 V2000
  -29.2070  -21.9820   20.1270 C   0  0  0  0  0  0  0  0  0  0  0  0
  -28.9070  -20.6080   20.3350 N   0  0  0  0  0  0  0  0  0  0  0  0
  -30.3540  -22.2620   19.7790 O   0  0  0  0  0  0  0  0  0  0  0  0
  -28.0050  -20.4540   20.7660 H   0  0  0  0  0  0  0  0  0  0  0  0
  -28.6110  -18.8920   18.5420 C   0  0  0  0  0  1  0  0  0  0  0  0
  -29.5210  -19.2810   19.7200 C   0  0  0  0  0  3  0  0  0  0  0  0
  -30.0020  -17.9050   20.5650 C   0  0  0  0  0  0  0  0  0  0  0  0
  -31.2820  -19.3030   22.0050 C   0  0  0  0  0  1  0  0  0  0  0  0
  -30.7610  -18.0130   21.5880 N   0  0  0  0  0  0  0  0  0  0  0  0
  -29.5560  -16.3370   20.1980 C   0  0  0  0  0  2  0  0  0  0  0  0
  -30.5050  -14.9660   20.1650 C   0  0  0  0  0  0  0  0  0  0  0  0
  -30.4130  -12.6160   19.2140 C   0  0  0  0  0  2  0  0  0  0  0  0
  -29.4640  -12.6450   17.9910 C   0  0  0  0  0  2  0  0  0  0  0  0
  -27.9940  -12.4540   18.4230 C   0  0  0  0  0  2  0  0  0  0  0  0
  -27.6180  -13.3260   19.6490 C   0  0  0  0  0  3  0  0  0  0  0  0
  -28.6900  -13.2650   20.7520 C   0  0  0  0  0  2  0  0  0  0  0  0
  -29.9660  -13.6790   20.1550 N   0  0  0  0  0  0  0  0  0  0  0  0
  -31.7080  -15.0560   19.8940 O   0  0  0  0  0  0  0  0  0  0  0  0
  -25.2460  -13.9020   20.4210 C   0  0  0  0  0  0  0  0  0  0  0  0
  -24.1880  -13.1250   20.8080 C   0  0  0  0  0  0  0  0  0  0  0  0
  -24.6560  -11.7740   20.7730 C   0  0  0  0  0  0  0  0  0  0  0  0
  -26.2860  -13.0250   20.1650 N   0  0  0  0  0  0  0  0  0  0  0  0
  -25.9420  -11.7400   20.4420 N   0  0  0  0  0  0  0  0  0  0  0  0
  -23.9330  -10.5120   20.9760 C   0  0  0  0  0  0  0  0  0  0  0  0
  -24.3740   -9.5510   21.9140 C   0  0  0  0  0  3  0  0  0  0  0  0
  -23.6510   -8.3550   22.1070 C   0  0  0  0  0  3  0  0  0  0  0  0
  -22.4720   -8.1090   21.3610 C   0  0  0  0  0  0  0  0  0  0  0  0
  -22.0510   -9.0580   20.4140 C   0  0  0  0  0  3  0  0  0  0  0  0
  -22.7740  -10.2460   20.2200 C   0  0  0  0  0  3  0  0  0  0  0  0
  -21.7230   -6.9610   21.4610 O   0  0  0  0  0  0  0  0  0  0  0  0
  -21.6810   -6.2260   22.6180 C   0  0  0  0  0  0  0  0  0  0  0  0
  -21.2550   -6.7870   23.8410 C   0  0  0  0  0  3  0  0  0  0  0  0
  -21.1620   -5.9790   24.9920 C   0  0  0  0  0  3  0  0  0  0  0  0
  -21.4810   -4.6100   24.9200 C   0  0  0  0  0  0  0  0  0  0  0  0
  -21.8970   -4.0480   23.7000 C   0  0  0  0  0  3  0  0  0  0  0  0
  -21.9950   -4.8540   22.5530 C   0  0  0  0  0  0  0  0  0  0  0  0
  -22.3780   -4.3020   21.3750 F   0  0  0  0  0  0  0  0  0  0  0  0
  -21.3840   -3.8320   26.0230 F   0  0  0  0  0  0  0  0  0  0  0  0
  -22.7930  -13.6000   21.0960 C   0  0  0  0  0  0  0  0  0  0  0  0
  -22.0760  -12.9060   21.9720 N   0  0  0  0  0  0  0  0  0  0  0  0
  -22.3470  -14.6220   20.5780 O   0  0  0  0  0  0  0  0  0  0  0  0
  -22.4540  -12.0820   22.4150 H   0  0  0  0  0  0  0  0  0  0  0  0
  -21.1370  -13.2010   22.1990 H   0  0  0  0  0  0  0  0  0  0  0  0
  -25.4070  -15.2730   20.2410 N   0  0  0  0  0  0  0  0  0  0  0  0
  -24.6400  -15.9270   20.3590 H   0  0  0  0  0  0  0  0  0  0  0  0
  -26.2470  -15.7110   19.8860 H   0  0  0  0  0  0  0  0  0  0  0  0
  -28.1390  -23.2500   20.1730 C   0  0  0  0  0  2  0  0  0  0  0  0
  -28.3560  -24.7940   20.8240 C   0  0  0  0  0  2  0  0  0  0  0  0
  -28.3290  -26.2290   20.2220 O   0  0  0  0  0  0  0  0  0  0  0  0
  -24.6140  -31.8650   23.2480 C   0  0  0  0  0  0  0  0  0  0  0  0
  -27.2270  -27.1500   20.2700 C   0  0  0  0  0  0  0  0  0  0  0  0
  -23.4270  -30.4560   21.6090 C   0  0  0  0  0  3  0  0  0  0  0  0
  -24.8860  -28.8660   20.2110 C   0  0  0  0  0  0  0  0  0  0  0  0
  -25.9780  -30.7310   21.4530 C   0  0  0  0  0  2  0  0  0  0  0  0
  -26.0610  -29.3330   20.8170 C   0  0  0  0  0  0  0  0  0  0  0  0
  -27.2350  -28.4940   20.8200 C   0  0  0  0  0  3  0  0  0  0  0  0
  -26.0260  -26.7690   19.6420 C   0  0  0  0  0  3  0  0  0  0  0  0
  -24.8810  -27.5980   19.6060 C   0  0  0  0  0  3  0  0  0  0  0  0
  -23.6590  -29.7640   20.2380 C   0  0  0  0  0  2  0  0  0  0  0  0
  -24.6930  -31.0400   22.1590 N   0  0  0  0  0  0  0  0  0  0  0  0
  -23.5250  -32.1480   23.7690 O   0  0  0  0  0  0  0  0  0  0  0  0
  -22.7450  -29.4540   22.5740 C   0  0  0  0  0  0  0  0  0  0  0  0
  -21.4180  -29.2840   22.4430 N   0  0  0  0  0  0  0  0  0  0  0  0
  -23.4130  -28.8320   23.4040 O   0  0  0  0  0  0  0  0  0  0  0  0
  -20.9350  -29.8400   21.7490 H   0  0  0  0  0  0  0  0  0  0  0  0
  -18.0340  -28.0790   22.9270 C   0  0  0  0  0  0  0  0  0  0  0  0
  -20.5910  -28.3500   23.2110 C   0  0  0  0  0  3  0  0  0  0  0  0
  -20.7000  -26.9140   22.6460 C   0  0  0  0  0  2  0  0  0  0  0  0
  -19.6060  -26.5820   21.6260 C   0  0  0  0  0  2  0  0  0  0  0  0
  -18.2200  -26.7270   22.2600 C   0  0  0  0  0  2  0  0  0  0  0  0
  -19.1490  -28.8480   23.3600 C   0  0  0  0  0  0  0  0  0  0  0  0
  -18.9220  -30.1110   23.9470 C   0  0  0  0  0  3  0  0  0  0  0  0
  -17.6130  -30.6090   24.1030 C   0  0  0  0  0  3  0  0  0  0  0  0
  -16.5150  -29.8380   23.6860 C   0  0  0  0  0  3  0  0  0  0  0  0
  -16.7250  -28.5740   23.1050 C   0  0  0  0  0  3  0  0  0  0  0  0
  -25.8870  -32.5060   23.8800 C   0  0  0  0  0  3  0  0  0  0  0  0
  -25.5710  -33.9080   24.1980 N   0  0  0  0  0  0  0  0  0  0  0  0
  -25.9110  -34.9590   23.4400 C   0  0  0  0  0  0  0  0  0  0  0  0
  -26.5880  -34.8510   22.4150 O   0  0  0  0  0  0  0  0  0  0  0  0
  -24.9710  -34.0650   24.9940 H   0  0  0  0  0  0  0  0  0  0  0  0
  -24.1880  -36.7570   23.0700 C   0  0  0  0  0  1  0  0  0  0  0  0
  -25.4240  -36.3520   23.8890 C   0  0  0  0  0  3  0  0  0  0  0  0
  -27.5550  -37.2400   24.7270 C   0  0  0  0  0  1  0  0  0  0  0  0
  -26.4580  -37.4040   23.7780 N   0  0  0  0  0  0  0  0  0  0  0  0
  -26.0530  -38.3260   23.9170 H   0  0  0  0  0  0  0  0  0  0  0  0
  -26.3860  -31.7480   25.1730 C   0  0  1  0  0  0  0  0  0  0  0  0
  -25.2790  -31.5260   26.2310 C   0  0  0  0  0  1  0  0  0  0  0  0
  -26.9700  -30.3650   24.8070 C   0  0  0  0  0  1  0  0  0  0  0  0
  -27.5310  -32.5470   25.8390 C   0  0  0  0  0  1  0  0  0  0  0  0
  1 47  1  0
  1  2  1  0
  2  4  1  0
  3  1  2  0
  6  5  1  0
  6  2  1  0
  6  7  1  0
  7  9  2  0
  9  8  1  0
 10  7  1  0
 11 10  1  0
 12 17  1  0
 13 14  1  0
 13 12  1  0
 15 14  1  0
 15 22  1  0
 15 16  1  0
 17 11  1  0
 17 16  1  0
 18 11  2  0
 19 20  2  0
 20 39  1  0
 21 20  1  0
 21 24  1  0
 22 19  1  0
 22 23  1  0
 23 21  2  0
 24 25  1  0
 25 26  2  0
 27 30  1  0
 27 26  1  0
 28 27  2  0
 29 28  1  0
 29 24  2  0
 30 31  1  0
 31 32  1  0
 32 33  2  0
 34 33  1  0
 34 38  1  0
 35 34  2  0
 36 31  2  0
 36 35  1  0
 37 36  1  0
 39 40  1  0
 40 43  1  0
 40 42  1  0
 41 39  2  0
 44 45  1  0
 44 19  1  0
 46 44  1  0
 47 48  1  0
 49 51  1  0
 49 48  1  0
 50 61  2  0
 51 56  1  0
 52 60  1  0
 52 62  1  0
 53 59  1  0
 53 55  1  0
 54 60  1  0
 55 56  2  0
 55 54  1  0
 57 51  2  0
 58 57  1  0
 58 53  2  0
 59 52  1  0
 60 50  1  0
 62 64  2  0
 63 62  1  0
 65 63  1  0
 66 75  2  0
 66 71  1  0
 67 63  1  0
 67 71  1  0
 68 67  1  0
 69 70  1  0
 69 68  1  0
 70 66  1  0
 71 72  2  0
 72 73  1  0
 74 73  2  0
 75 74  1  0
 76 50  1  0
 76 77  1  0
 76 86  1  0
 77 80  1  0
 78 82  1  0
 78 77  1  0
 79 78  2  0
 82 81  1  0
 84 82  1  0
 84 85  1  0
 84 83  1  0
 86 89  1  1
 86 87  1  0
 88 86  1  0
M  ISO  4  10 100  11 100  48 101  49 101
M  END
>  <TORSDO>  (29) 
F 21

>  <SCORE>  (29) 
-13.554

>  <name>  (29) 
29

>  <ligand_id>  (29) 
29

>  <original_smiles>  (29) 
[H]c1c([H])c([H])c2c(c1[H])C([H])([H])C([H])([H])C([H])([H])C2([H])N([H])C(=O)C1([H])N(C(=O)C([H])(N([H])C(=O)C([H])(N([H])C([H])([H])[H])C([H])([H])[H])C(C([H])([H])[H])(C([H])([H])[H])C([H])([H])[H])C([H])([H])c2c([H])c(OC([H])([H])C([H])([H])C(=O)N([H])C([H])(C(=NC([H])([H])[H])C([H])([H])C(=O)N3C([H])([H])C([H])([H])C([H])([H])C([H])(n4nc(-c5c([H])c([H])c(Oc6c([H])c([H])c(F)c([H])c6F)c([H])c5[H])c(C(=O)N([H])[H])c4N([H])[H])C3([H])[H])C([H])([H])[H])c([H])c([H])c2C1([H])[H]

>  <smiles>  (29) 
[H]c1c([H])c([H])c2c(c1[H])C([H])([H])C([H])([H])C([H])([H])C2([H])N([H])C(=O)C1([H])N(C(=O)C([H])(N([H])C(=O)C([H])(N([H])C([H])([H])[H])C([H])([H])[H])C(C([H])([H])[H])(C([H])([H])[H])C([H])([H])[H])C([H])([H])c2c([H])c(OC([H])([H])C([H])([H])C(=O)N([H])C([H])(C(=NC([H])([H])[H])C([H])([H])C(=O)N3C([H])([H])C([H])([H])C([H])([H])C([H])(n4nc(-c5c([H])c([H])c(Oc6c([H])c([H])c(F)c([H])c6F)c([H])c5[H])c(C(=O)N([H])[H])c4N([H])[H])C3([H])[H])C([H])([H])[H])c([H])c([H])c2C1([H])[H]

$$$$
30:0:0
     RDKit          3D

 97104  0  0  1  0  0  0  0  0999 V2000
  -29.7190  -20.6170   20.2180 C   0  0  0  0  0  0  0  0  0  0  0  0
  -29.5690  -19.2820   20.6770 N   0  0  0  0  0  0  0  0  0  0  0  0
  -30.5120  -20.7980   19.2950 O   0  0  0  0  0  0  0  0  0  0  0  0
  -28.9090  -19.1400   21.4310 H   0  0  0  0  0  0  0  0  0  0  0  0
  -30.1500  -17.9430   20.0700 C   0  0  0  0  0  3  0  0  0  0  0  0
  -29.6580  -17.8190   18.5970 C   0  0  0  0  0  0  0  0  0  0  0  0
  -28.6560  -18.6410   18.2200 N   0  0  0  0  0  0  0  0  0  0  0  0
  -30.2020  -17.0240   17.8330 O   0  0  0  0  0  0  0  0  0  0  0  0
  -28.2810  -19.1820   18.9850 H   0  0  0  0  0  0  0  0  0  0  0  0
  -29.0090  -18.9030   15.7190 C   0  0  0  0  0  1  0  0  0  0  0  0
  -27.3230  -20.2740   17.0270 C   0  0  0  0  0  1  0  0  0  0  0  0
  -28.0280  -18.9100   16.9150 C   0  0  0  0  0  3  0  0  0  0  0  0
  -29.8660  -16.4620   20.7970 C   0  0  0  0  0  2  0  0  0  0  0  0
  -30.6780  -15.0600   20.4780 C   0  0  0  0  0  0  0  0  0  0  0  0
  -30.6350  -12.6880   19.6110 C   0  0  0  0  0  2  0  0  0  0  0  0
  -29.7570  -12.6500   18.3400 C   0  0  0  0  0  2  0  0  0  0  0  0
  -28.2650  -12.4740   18.6890 C   0  0  0  0  0  2  0  0  0  0  0  0
  -27.8200  -13.3820   19.8620 C   0  0  0  0  0  3  0  0  0  0  0  0
  -28.8290  -13.3850   21.0260 C   0  0  0  0  0  2  0  0  0  0  0  0
  -30.1260  -13.7850   20.4750 N   0  0  0  0  0  0  0  0  0  0  0  0
  -31.8750  -15.1410   20.1730 O   0  0  0  0  0  0  0  0  0  0  0  0
  -25.4250  -13.9530   20.5380 C   0  0  0  0  0  0  0  0  0  0  0  0
  -24.3490  -13.1720   20.8690 C   0  0  0  0  0  0  0  0  0  0  0  0
  -24.8110  -11.8210   20.8300 C   0  0  0  0  0  0  0  0  0  0  0  0
  -26.4710  -13.0760   20.3160 N   0  0  0  0  0  0  0  0  0  0  0  0
  -26.1100  -11.7870   20.5530 N   0  0  0  0  0  0  0  0  0  0  0  0
  -24.0730  -10.5560   20.9790 C   0  0  0  0  0  0  0  0  0  0  0  0
  -24.4730   -9.5610   21.8970 C   0  0  0  0  0  3  0  0  0  0  0  0
  -23.7300   -8.3700   22.0360 C   0  0  0  0  0  3  0  0  0  0  0  0
  -22.5730   -8.1620   21.2480 C   0  0  0  0  0  0  0  0  0  0  0  0
  -22.1880   -9.1440   20.3170 C   0  0  0  0  0  3  0  0  0  0  0  0
  -22.9340  -10.3290   20.1780 C   0  0  0  0  0  3  0  0  0  0  0  0
  -21.8030   -7.0250   21.2920 O   0  0  0  0  0  0  0  0  0  0  0  0
  -21.7390   -6.2410   22.4170 C   0  0  0  0  0  0  0  0  0  0  0  0
  -21.3150   -6.7620   23.6590 C   0  0  0  0  0  3  0  0  0  0  0  0
  -21.2010   -5.9130   24.7780 C   0  0  0  0  0  3  0  0  0  0  0  0
  -21.4950   -4.5410   24.6500 C   0  0  0  0  0  0  0  0  0  0  0  0
  -21.9110   -4.0200   23.4130 C   0  0  0  0  0  3  0  0  0  0  0  0
  -22.0300   -4.8680   22.2990 C   0  0  0  0  0  0  0  0  0  0  0  0
  -22.4140   -4.3590   21.1020 F   0  0  0  0  0  0  0  0  0  0  0  0
  -21.3730   -3.7210   25.7190 F   0  0  0  0  0  0  0  0  0  0  0  0
  -22.9490  -13.6560   21.1020 C   0  0  0  0  0  0  0  0  0  0  0  0
  -22.1890  -12.9560   21.9380 N   0  0  0  0  0  0  0  0  0  0  0  0
  -22.5310  -14.6870   20.5790 O   0  0  0  0  0  0  0  0  0  0  0  0
  -22.5380  -12.1260   22.3930 H   0  0  0  0  0  0  0  0  0  0  0  0
  -21.2400  -13.2550   22.1140 H   0  0  0  0  0  0  0  0  0  0  0  0
  -25.5840  -15.3250   20.3800 N   0  0  0  0  0  0  0  0  0  0  0  0
  -24.7830  -15.9470   20.3930 H   0  0  0  0  0  0  0  0  0  0  0  0
  -26.4270  -15.7830   20.0600 H   0  0  0  0  0  0  0  0  0  0  0  0
  -28.9590  -21.9520   20.8320 C   0  0  0  0  0  3  0  0  0  0  0  0
  -29.1470  -21.9530   22.2960 N   0  0  0  0  0  4  0  0  0  0  0  0
  -30.1090  -22.1540   22.5130 H   0  0  0  0  0  0  0  0  0  0  0  0
  -28.9230  -21.0600   22.6910 H   0  0  0  0  0  0  0  0  0  0  0  0
  -28.5670  -22.6460   22.7370 H   0  0  0  0  0  0  0  0  0  0  0  0
  -29.1750  -23.5270   20.2670 C   0  0  0  0  0  3  0  0  0  0  0  0
  -28.1250  -24.8080   20.5520 C   0  0  0  0  0  3  0  0  0  0  0  0
  -28.3530  -26.3390   20.4010 O   0  0  0  0  0  0  0  0  0  0  0  0
  -24.5800  -31.9910   23.2940 C   0  0  0  0  0  0  0  0  0  0  0  0
  -27.2590  -27.2780   20.3670 C   0  0  0  0  0  0  0  0  0  0  0  0
  -23.4170  -30.5640   21.6520 C   0  0  0  0  0  3  0  0  0  0  0  0
  -24.9000  -28.9780   20.2850 C   0  0  0  0  0  0  0  0  0  0  0  0
  -25.9690  -30.8550   21.5230 C   0  0  0  0  0  2  0  0  0  0  0  0
  -26.0650  -29.4530   20.9020 C   0  0  0  0  0  0  0  0  0  0  0  0
  -27.2460  -28.6170   20.9270 C   0  0  0  0  0  3  0  0  0  0  0  0
  -26.0660  -26.9070   19.7080 C   0  0  0  0  0  3  0  0  0  0  0  0
  -24.9100  -27.7160   19.6770 C   0  0  0  0  0  3  0  0  0  0  0  0
  -23.6670  -29.8680   20.2880 C   0  0  0  0  0  2  0  0  0  0  0  0
  -24.6720  -31.1640   22.2090 N   0  0  0  0  0  0  0  0  0  0  0  0
  -23.4820  -32.2710   23.8040 O   0  0  0  0  0  0  0  0  0  0  0  0
  -22.7360  -29.5670   22.6220 C   0  0  0  0  0  0  0  0  0  0  0  0
  -21.4120  -29.3790   22.4770 N   0  0  0  0  0  0  0  0  0  0  0  0
  -23.3980  -28.9640   23.4720 O   0  0  0  0  0  0  0  0  0  0  0  0
  -20.9320  -29.9060   21.7600 H   0  0  0  0  0  0  0  0  0  0  0  0
  -18.0410  -28.1420   22.9530 C   0  0  0  0  0  0  0  0  0  0  0  0
  -20.5930  -28.4460   23.2500 C   0  0  0  0  0  3  0  0  0  0  0  0
  -20.7260  -27.0080   22.7010 C   0  0  0  0  0  2  0  0  0  0  0  0
  -19.6420  -26.6540   21.6760 C   0  0  0  0  0  2  0  0  0  0  0  0
  -18.2460  -26.7850   22.2970 C   0  0  0  0  0  2  0  0  0  0  0  0
  -19.1430  -28.9250   23.3870 C   0  0  0  0  0  0  0  0  0  0  0  0
  -18.9020  -30.1900   23.9640 C   0  0  0  0  0  3  0  0  0  0  0  0
  -17.5880  -30.6780   24.1060 C   0  0  0  0  0  3  0  0  0  0  0  0
  -16.4990  -29.8950   23.6850 C   0  0  0  0  0  3  0  0  0  0  0  0
  -16.7260  -28.6290   23.1150 C   0  0  0  0  0  3  0  0  0  0  0  0
  -25.8450  -32.6430   23.9290 C   0  0  0  0  0  3  0  0  0  0  0  0
  -26.3370  -31.9040   25.2370 C   0  0  1  0  0  0  0  0  0  0  0  0
  -25.2190  -31.6720   26.2800 C   0  0  0  0  0  1  0  0  0  0  0  0
  -26.9470  -30.5220   24.8980 C   0  0  0  0  0  1  0  0  0  0  0  0
  -27.4500  -32.7350   25.9200 C   0  0  0  0  0  1  0  0  0  0  0  0
  -25.5160  -34.0470   24.2230 N   0  0  0  0  0  0  0  0  0  0  0  0
  -25.8690  -35.0950   23.4650 C   0  0  0  0  0  0  0  0  0  0  0  0
  -26.5740  -34.9810   22.4580 O   0  0  0  0  0  0  0  0  0  0  0  0
  -24.8860  -34.2030   24.9930 H   0  0  0  0  0  0  0  0  0  0  0  0
  -24.1450  -36.8890   23.0490 C   0  0  0  0  0  1  0  0  0  0  0  0
  -25.3640  -36.4870   23.8930 C   0  0  0  0  0  3  0  0  0  0  0  0
  -27.4740  -37.4020   24.7650 C   0  0  0  0  0  1  0  0  0  0  0  0
  -26.3940  -37.5440   23.7910 N   0  0  0  0  0  0  0  0  0  0  0  0
  -25.9780  -38.4610   23.9110 H   0  0  0  0  0  0  0  0  0  0  0  0
  1  2  1  0
  1 50  1  0
  2  4  1  0
  3  1  2  0
  5  2  1  0
  5 13  1  0
  6  5  1  0
  7  6  1  0
  7  9  1  0
  8  6  2  0
 10 12  1  0
 12 11  1  0
 12  7  1  0
 14 13  1  0
 15 20  1  0
 16 17  1  0
 16 15  1  0
 18 17  1  0
 18 25  1  0
 18 19  1  0
 20 14  1  0
 20 19  1  0
 21 14  2  0
 22 23  2  0
 23 42  1  0
 24 23  1  0
 24 27  1  0
 25 22  1  0
 25 26  1  0
 26 24  2  0
 27 28  1  0
 28 29  2  0
 30 33  1  0
 30 29  1  0
 31 30  2  0
 32 31  1  0
 32 27  2  0
 33 34  1  0
 34 35  1  0
 35 36  2  0
 37 36  1  0
 37 41  1  0
 38 37  2  0
 39 34  2  0
 39 38  1  0
 40 39  1  0
 42 43  1  0
 43 46  1  0
 43 45  1  0
 44 42  2  0
 47 48  1  0
 47 22  1  0
 49 47  1  0
 50 55  1  0
 50 51  1  0
 51 52  1  0
 51 53  1  0
 51 54  1  0
 55 56  2  0
 57 56  1  0
 58 69  2  0
 59 57  1  0
 59 64  1  0
 60 68  1  0
 60 70  1  0
 61 67  1  0
 61 63  1  0
 62 68  1  0
 63 64  2  0
 63 62  1  0
 65 59  2  0
 66 65  1  0
 66 61  2  0
 67 60  1  0
 68 58  1  0
 70 72  2  0
 71 70  1  0
 73 71  1  0
 74 83  2  0
 74 79  1  0
 75 71  1  0
 75 79  1  0
 76 75  1  0
 77 78  1  0
 77 76  1  0
 78 74  1  0
 79 80  2  0
 80 81  1  0
 82 81  2  0
 83 82  1  0
 84 58  1  0
 84 89  1  0
 84 85  1  0
 85 88  1  1
 85 86  1  0
 87 85  1  0
 89 92  1  0
 90 94  1  0
 90 89  1  0
 91 90  2  0
 94 93  1  0
 96 94  1  0
 96 97  1  0
 96 95  1  0
M  ISO  4  13 100  14 100  56 101  57 101
M  END
>  <TORSDO>  (30) 
F 24

>  <SCORE>  (30) 
-12.663

>  <name>  (30) 
30

>  <ligand_id>  (30) 
30

>  <original_smiles>  (30) 
[H]c1c([H])c([H])c2c(c1[H])C([H])([H])C([H])([H])C([H])([H])C2([H])N([H])C(=O)C1([H])N(C(=O)C([H])(N([H])C(=O)C([H])(N([H])C([H])([H])[H])C([H])([H])[H])C(C([H])([H])[H])(C([H])([H])[H])C([H])([H])[H])C([H])([H])c2c([H])c(OC([H])([H])C([H])([H])C([H])(C(=O)N([H])C([H])(C(=O)N([H])C([H])(C([H])([H])[H])C([H])([H])[H])C([H])([H])C(=O)N3C([H])([H])C([H])([H])C([H])([H])C([H])(n4nc(-c5c([H])c([H])c(Oc6c([H])c([H])c(F)c([H])c6F)c([H])c5[H])c(C(=O)N([H])[H])c4N([H])[H])C3([H])[H])[N+]([H])([H])[H])c([H])c([H])c2C1([H])[H]

>  <smiles>  (30) 
[H]c1c([H])c([H])c2c(c1[H])C([H])([H])C([H])([H])C([H])([H])C2([H])N([H])C(=O)C1([H])N(C(=O)C([H])(N([H])C(=O)C([H])(N([H])C([H])([H])[H])C([H])([H])[H])C(C([H])([H])[H])(C([H])([H])[H])C([H])([H])[H])C([H])([H])c2c([H])c(OC([H])([H])C([H])([H])C([H])(C(=O)N([H])C([H])(C(=O)N([H])C([H])(C([H])([H])[H])C([H])([H])[H])C([H])([H])C(=O)N3C([H])([H])C([H])([H])C([H])([H])C([H])(n4nc(-c5c([H])c([H])c(Oc6c([H])c([H])c(F)c([H])c6F)c([H])c5[H])c(C(=O)N([H])[H])c4N([H])[H])C3([H])[H])[N+]([H])([H])[H])c([H])c([H])c2C1([H])[H]

$$$$
31:0:0
     RDKit          3D

103112  0  0  1  0  0  0  0  0999 V2000
  -30.6080  -21.8570   20.0880 N   0  0  0  0  0  4  0  0  0  0  0  0
  -29.7940  -22.0450   19.5250 H   0  0  0  0  0  0  0  0  0  0  0  0
  -31.3880  -21.7020   19.4700 H   0  0  0  0  0  0  0  0  0  0  0  0
  -30.3750  -20.6240   20.8810 C   0  0  0  0  0  2  0  0  0  0  0  0
  -29.1970  -17.9400   18.2240 C   0  0  0  0  0  2  0  0  0  0  0  0
  -29.1340  -19.2360   19.0760 C   0  0  0  0  0  2  0  0  0  0  0  0
  -30.2500  -18.0960   21.0210 C   0  0  0  0  0  2  0  0  0  0  0  0
  -31.6280  -19.1240   19.1930 C   0  0  0  0  0  2  0  0  0  0  0  0
  -29.9930  -16.7550   20.2690 C   0  0  0  0  0  3  0  0  0  0  0  0
  -30.3010  -16.9910   18.7570 C   0  0  0  0  0  3  0  0  0  0  0  0
  -31.6920  -17.6840   18.6120 C   0  0  0  0  0  3  0  0  0  0  0  0
  -30.3430  -19.3110   20.0460 C   0  0  2  0  0  0  0  0  0  0  0  0
  -32.2240  -17.6440   17.2350 N   0  0  0  0  0  4  0  0  0  0  0  0
  -31.6620  -18.1750   16.5950 H   0  0  0  0  0  0  0  0  0  0  0  0
  -32.2720  -16.6970   16.9060 H   0  0  0  0  0  0  0  0  0  0  0  0
  -33.1590  -18.0130   17.2180 H   0  0  0  0  0  0  0  0  0  0  0  0
  -30.8050  -15.4530   22.2890 C   0  0  0  0  0  2  0  0  0  0  0  0
  -30.6340  -15.5250   20.9540 C   0  0  0  0  0  0  0  0  0  0  0  0
  -31.1530  -14.4220   20.1460 C   0  0  0  0  0  0  0  0  0  0  0  0
  -30.6250  -12.3660   18.9040 C   0  0  0  0  0  2  0  0  0  0  0  0
  -29.6560  -12.7040   17.7520 C   0  0  0  0  0  2  0  0  0  0  0  0
  -28.1970  -12.6220   18.2370 C   0  0  0  0  0  2  0  0  0  0  0  0
  -27.9580  -13.3990   19.5580 C   0  0  0  0  0  3  0  0  0  0  0  0
  -29.0490  -13.0730   20.6050 C   0  0  0  0  0  2  0  0  0  0  0  0
  -30.3670  -13.3170   19.9970 N   0  0  0  0  0  0  0  0  0  0  0  0
  -32.2220  -14.5420   19.5490 O   0  0  0  0  0  0  0  0  0  0  0  0
  -25.6030  -14.0580   20.3720 C   0  0  0  0  0  0  0  0  0  0  0  0
  -24.5260  -13.3110   20.7720 C   0  0  0  0  0  0  0  0  0  0  0  0
  -24.9480  -11.9470   20.7040 C   0  0  0  0  0  0  0  0  0  0  0  0
  -26.6150  -13.1520   20.0860 N   0  0  0  0  0  0  0  0  0  0  0  0
  -26.2230  -11.8760   20.3420 N   0  0  0  0  0  0  0  0  0  0  0  0
  -24.1920  -10.7030   20.9130 C   0  0  0  0  0  0  0  0  0  0  0  0
  -24.6140   -9.7280   21.8460 C   0  0  0  0  0  3  0  0  0  0  0  0
  -23.8620   -8.5490   22.0380 C   0  0  0  0  0  3  0  0  0  0  0  0
  -22.6750   -8.3360   21.3000 C   0  0  0  0  0  0  0  0  0  0  0  0
  -22.2720   -9.2990   20.3570 C   0  0  0  0  0  3  0  0  0  0  0  0
  -23.0240  -10.4680   20.1610 C   0  0  0  0  0  3  0  0  0  0  0  0
  -21.8970   -7.2070   21.4010 O   0  0  0  0  0  0  0  0  0  0  0  0
  -21.8190   -6.4880   22.5660 C   0  0  0  0  0  0  0  0  0  0  0  0
  -21.4050   -7.0790   23.7800 C   0  0  0  0  0  3  0  0  0  0  0  0
  -21.2730   -6.2890   24.9390 C   0  0  0  0  0  3  0  0  0  0  0  0
  -21.5450   -4.9100   24.8870 C   0  0  0  0  0  0  0  0  0  0  0  0
  -21.9520   -4.3160   23.6780 C   0  0  0  0  0  3  0  0  0  0  0  0
  -22.0870   -5.1040   22.5200 C   0  0  0  0  0  0  0  0  0  0  0  0
  -22.4610   -4.5260   21.3530 F   0  0  0  0  0  0  0  0  0  0  0  0
  -21.4090   -4.1480   25.9970 F   0  0  0  0  0  0  0  0  0  0  0  0
  -23.1550  -13.8230   21.1040 C   0  0  0  0  0  0  0  0  0  0  0  0
  -22.4460  -13.1520   22.0060 N   0  0  0  0  0  0  0  0  0  0  0  0
  -22.7210  -14.8610   20.6020 O   0  0  0  0  0  0  0  0  0  0  0  0
  -22.8110  -12.3170   22.4400 H   0  0  0  0  0  0  0  0  0  0  0  0
  -21.5270  -13.4770   22.2650 H   0  0  0  0  0  0  0  0  0  0  0  0
  -25.7960  -15.4250   20.2080 N   0  0  0  0  0  0  0  0  0  0  0  0
  -25.0470  -16.0890   20.3630 H   0  0  0  0  0  0  0  0  0  0  0  0
  -26.6440  -15.8510   19.8580 H   0  0  0  0  0  0  0  0  0  0  0  0
  -30.9020  -23.0470   20.9210 C   0  0  0  0  0  2  0  0  0  0  0  0
  -31.3370  -24.2850   20.0980 C   0  0  0  0  0  2  0  0  0  0  0  0
  -31.8550  -25.4580   20.9700 C   0  0  0  0  0  2  0  0  0  0  0  0
  -30.7870  -26.3000   21.5710 N   0  0  0  0  0  4  0  0  0  0  0  0
  -31.0800  -26.4950   22.5160 H   0  0  0  0  0  0  0  0  0  0  0  0
  -29.9140  -25.8010   21.6410 H   0  0  0  0  0  0  0  0  0  0  0  0
  -30.5290  -27.6190   20.9320 C   0  0  0  0  0  2  0  0  0  0  0  0
  -29.6010  -27.5110   19.7050 C   0  0  0  0  0  2  0  0  0  0  0  0
  -28.4030  -26.8050   20.0520 O   0  0  0  0  0  0  0  0  0  0  0  0
  -24.5530  -31.9310   23.2360 C   0  0  0  0  0  0  0  0  0  0  0  0
  -27.2400  -27.5380   20.1350 C   0  0  0  0  0  0  0  0  0  0  0  0
  -23.3450  -30.5190   21.5990 C   0  0  0  0  0  3  0  0  0  0  0  0
  -24.8040  -28.9710   20.1860 C   0  0  0  0  0  0  0  0  0  0  0  0
  -25.8620  -30.8950   21.3880 C   0  0  0  0  0  2  0  0  0  0  0  0
  -25.9570  -29.5230   20.7610 C   0  0  0  0  0  0  0  0  0  0  0  0
  -27.1760  -28.8140   20.7390 C   0  0  0  0  0  3  0  0  0  0  0  0
  -26.0670  -26.9780   19.5900 C   0  0  0  0  0  3  0  0  0  0  0  0
  -24.8520  -27.6930   19.6020 C   0  0  0  0  0  3  0  0  0  0  0  0
  -23.5530  -29.8200   20.2270 C   0  0  0  0  0  2  0  0  0  0  0  0
  -24.6060  -31.1290   22.1340 N   0  0  0  0  0  0  0  0  0  0  0  0
  -23.4730  -32.2080   23.7730 O   0  0  0  0  0  0  0  0  0  0  0  0
  -22.6950  -29.5070   22.5700 C   0  0  0  0  0  0  0  0  0  0  0  0
  -21.3720  -29.3150   22.4360 N   0  0  0  0  0  0  0  0  0  0  0  0
  -23.3770  -28.8910   23.3930 O   0  0  0  0  0  0  0  0  0  0  0  0
  -20.8840  -29.8650   21.7420 H   0  0  0  0  0  0  0  0  0  0  0  0
  -18.0040  -28.1130   22.9200 C   0  0  0  0  0  0  0  0  0  0  0  0
  -20.5570  -28.3790   23.2070 C   0  0  0  0  0  3  0  0  0  0  0  0
  -20.6680  -26.9480   22.6360 C   0  0  0  0  0  2  0  0  0  0  0  0
  -19.5710  -26.6160   21.6170 C   0  0  0  0  0  2  0  0  0  0  0  0
  -18.1860  -26.7600   22.2540 C   0  0  0  0  0  2  0  0  0  0  0  0
  -19.1170  -28.8820   23.3530 C   0  0  0  0  0  0  0  0  0  0  0  0
  -18.8920  -30.1480   23.9350 C   0  0  0  0  0  3  0  0  0  0  0  0
  -17.5860  -30.6470   24.0920 C   0  0  0  0  0  3  0  0  0  0  0  0
  -16.4870  -29.8750   23.6780 C   0  0  0  0  0  3  0  0  0  0  0  0
  -16.6960  -28.6110   23.0980 C   0  0  0  0  0  3  0  0  0  0  0  0
  -25.8430  -32.5580   23.8540 C   0  0  0  0  0  3  0  0  0  0  0  0
  -26.3670  -31.7820   25.1260 C   0  0  1  0  0  0  0  0  0  0  0  0
  -25.2770  -31.5390   26.1960 C   0  0  0  0  0  1  0  0  0  0  0  0
  -26.9490  -30.4060   24.7250 C   0  0  0  0  0  1  0  0  0  0  0  0
  -27.5250  -32.5710   25.7830 C   0  0  0  0  0  1  0  0  0  0  0  0
  -25.5370  -33.9560   24.1840 N   0  0  0  0  0  0  0  0  0  0  0  0
  -25.8840  -35.0080   23.4320 C   0  0  0  0  0  0  0  0  0  0  0  0
  -26.5690  -34.9040   22.4090 O   0  0  0  0  0  0  0  0  0  0  0  0
  -24.9260  -34.1080   24.9730 H   0  0  0  0  0  0  0  0  0  0  0  0
  -24.1770  -36.8160   23.0460 C   0  0  0  0  0  1  0  0  0  0  0  0
  -25.3970  -36.3980   23.8830 C   0  0  0  0  0  3  0  0  0  0  0  0
  -27.5230  -37.2660   24.7580 C   0  0  0  0  0  1  0  0  0  0  0  0
  -26.4390  -37.4430   23.7950 N   0  0  0  0  0  0  0  0  0  0  0  0
  -26.0370  -38.3670   23.9340 H   0  0  0  0  0  0  0  0  0  0  0  0
  1  4  1  0
  1 55  1  0
  2  1  1  0
  3  1  1  0
  5  6  1  0
  6 12  1  0
  8 12  1  0
  9 18  1  0
  9  7  1  0
 10  5  1  0
 10  9  1  0
 11 13  1  0
 11 10  1  0
 11  8  1  0
 12  4  1  1
 12  7  1  0
 14 13  1  0
 15 13  1  0
 16 13  1  0
 18 17  2  0
 19 18  1  0
 20 25  1  0
 21 22  1  0
 21 20  1  0
 23 22  1  0
 23 30  1  0
 23 24  1  0
 25 19  1  0
 25 24  1  0
 26 19  2  0
 27 28  2  0
 28 47  1  0
 29 28  1  0
 29 32  1  0
 30 31  1  0
 30 27  1  0
 31 29  2  0
 32 33  1  0
 33 34  2  0
 35 38  1  0
 35 34  1  0
 36 35  2  0
 37 36  1  0
 37 32  2  0
 38 39  1  0
 39 40  1  0
 40 41  2  0
 42 41  1  0
 42 46  1  0
 43 42  2  0
 44 39  2  0
 44 43  1  0
 45 44  1  0
 47 48  1  0
 48 51  1  0
 48 50  1  0
 49 47  2  0
 52 53  1  0
 52 27  1  0
 54 52  1  0
 56 55  1  0
 56 57  1  0
 57 58  1  0
 58 60  1  0
 58 59  1  0
 61 58  1  0
 62 63  1  0
 62 61  1  0
 63 65  1  0
 64 75  2  0
 65 70  1  0
 66 74  1  0
 66 76  1  0
 67 73  1  0
 67 69  1  0
 68 74  1  0
 69 68  1  0
 70 69  2  0
 71 72  1  0
 71 65  2  0
 72 67  2  0
 73 66  1  0
 74 64  1  0
 76 78  2  0
 77 76  1  0
 79 77  1  0
 80 89  2  0
 80 85  1  0
 81 77  1  0
 81 85  1  0
 82 81  1  0
 83 84  1  0
 83 82  1  0
 84 80  1  0
 85 86  2  0
 86 87  1  0
 88 87  2  0
 89 88  1  0
 90 64  1  0
 90 95  1  0
 90 91  1  0
 91 94  1  1
 91 92  1  0
 93 91  1  0
 95 98  1  0
 96100  1  0
 96 95  1  0
 97 96  2  0
100 99  1  0
102100  1  0
102103  1  0
102101  1  0
M  ISO  4  18 100  19 100  62 101  63 101
M  END
>  <TORSDO>  (31) 
F 26

>  <SCORE>  (31) 
-11.808

>  <name>  (31) 
31

>  <ligand_id>  (31) 
31

>  <original_smiles>  (31) 
[H]C([H])=C(C(=O)N1C([H])([H])C([H])([H])C([H])([H])C([H])(n2nc(-c3c([H])c([H])c(Oc4c([H])c([H])c(F)c([H])c4F)c([H])c3[H])c(C(=O)N([H])[H])c2N([H])[H])C1([H])[H])C1([H])C([H])([H])C2(C([H])([H])[N+]([H])([H])C([H])([H])C([H])([H])C([H])([H])[N+]([H])([H])C([H])([H])C([H])([H])Oc3c([H])c([H])c4c(c3[H])C([H])([H])N(C(=O)C([H])(N([H])C(=O)C([H])(N([H])C([H])([H])[H])C([H])([H])[H])C(C([H])([H])[H])(C([H])([H])[H])C([H])([H])[H])C([H])(C(=O)N([H])C3([H])c5c([H])c([H])c([H])c([H])c5C([H])([H])C([H])([H])C3([H])[H])C4([H])[H])C([H])([H])C([H])([H])C1([H])C([H])([N+]([H])([H])[H])C2([H])[H]

>  <smiles>  (31) 
[H]C([H])=C(C(=O)N1C([H])([H])C([H])([H])C([H])([H])C([H])(n2nc(-c3c([H])c([H])c(Oc4c([H])c([H])c(F)c([H])c4F)c([H])c3[H])c(C(=O)N([H])[H])c2N([H])[H])C1([H])[H])C1([H])C([H])([H])C2(C([H])([H])[N+]([H])([H])C([H])([H])C([H])([H])C([H])([H])[N+]([H])([H])C([H])([H])C([H])([H])Oc3c([H])c([H])c4c(c3[H])C([H])([H])N(C(=O)C([H])(N([H])C(=O)C([H])(N([H])C([H])([H])[H])C([H])([H])[H])C(C([H])([H])[H])(C([H])([H])[H])C([H])([H])[H])C([H])(C(=O)N([H])C3([H])c5c([H])c([H])c([H])c([H])c5C([H])([H])C([H])([H])C3([H])[H])C4([H])[H])C([H])([H])C([H])([H])C1([H])C([H])([N+]([H])([H])[H])C2([H])[H]

$$$$
32:0:0
     RDKit          3D

 88 93  0  0  1  0  0  0  0  0999 V2000
  -26.4910  -21.8210   20.2600 C   0  0  0  0  0  2  0  0  0  0  0  0
  -27.6810  -21.1480   20.9450 C   0  0  0  0  0  2  0  0  0  0  0  0
  -26.8120  -23.3070   20.0490 C   0  0  0  0  0  2  0  0  0  0  0  0
  -28.9240  -21.5600   20.1640 C   0  0  0  0  0  1  0  0  0  0  0  0
  -28.2740  -23.5020   19.5980 C   0  0  0  0  0  1  0  0  0  0  0  0
  -30.4120  -16.4020   19.7690 C   0  0  0  0  0  0  0  0  0  0  0  0
  -30.6120  -13.7320   19.0530 C   0  0  0  0  0  2  0  0  0  0  0  0
  -29.7270  -13.1140   17.9150 C   0  0  0  0  0  2  0  0  0  0  0  0
  -28.3600  -12.6690   18.4440 C   0  0  0  0  0  2  0  0  0  0  0  0
  -27.8290  -13.6990   19.4610 C   0  0  0  0  0  3  0  0  0  0  0  0
  -28.8700  -14.2050   20.5020 C   0  0  0  0  0  2  0  0  0  0  0  0
  -29.9460  -14.9540   19.7740 N   0  0  0  0  0  0  0  0  0  0  0  0
  -31.6330  -16.2870   19.4780 O   0  0  0  0  0  0  0  0  0  0  0  0
  -29.6950  -19.7470   19.6540 C   0  0  0  0  0  2  0  0  0  0  0  0
  -29.6140  -18.1010   19.9400 N   0  0  0  0  0  0  0  0  0  0  0  0
  -30.6900  -20.0110   18.7880 N   0  0  0  0  0  0  0  0  0  0  0  0
  -28.7040  -18.0120   20.3620 H   0  0  0  0  0  0  0  0  0  0  0  0
  -30.8860  -20.9670   18.5170 H   0  0  0  0  0  0  0  0  0  0  0  0
  -31.2730  -19.2910   18.3870 H   0  0  0  0  0  0  0  0  0  0  0  0
  -25.5430  -14.1780   20.4300 C   0  0  0  0  0  0  0  0  0  0  0  0
  -24.5020  -13.3860   20.8200 C   0  0  0  0  0  0  0  0  0  0  0  0
  -24.9480  -12.0380   20.6660 C   0  0  0  0  0  0  0  0  0  0  0  0
  -26.5550  -13.3180   20.0550 N   0  0  0  0  0  0  0  0  0  0  0  0
  -26.2160  -12.0150   20.2580 N   0  0  0  0  0  0  0  0  0  0  0  0
  -24.2100  -10.7750   20.8240 C   0  0  0  0  0  0  0  0  0  0  0  0
  -24.6210   -9.7860   21.7430 C   0  0  0  0  0  3  0  0  0  0  0  0
  -23.8780   -8.5950   21.8950 C   0  0  0  0  0  3  0  0  0  0  0  0
  -22.7070   -8.3840   21.1270 C   0  0  0  0  0  0  0  0  0  0  0  0
  -22.3150   -9.3620   20.1960 C   0  0  0  0  0  3  0  0  0  0  0  0
  -23.0570  -10.5450   20.0430 C   0  0  0  0  0  3  0  0  0  0  0  0
  -21.9370   -7.2480   21.1880 O   0  0  0  0  0  0  0  0  0  0  0  0
  -21.7800   -6.5450   22.3560 C   0  0  0  0  0  0  0  0  0  0  0  0
  -21.2090   -7.1300   23.5080 C   0  0  0  0  0  3  0  0  0  0  0  0
  -21.0060   -6.3520   24.6650 C   0  0  0  0  0  3  0  0  0  0  0  0
  -21.3610   -4.9900   24.6700 C   0  0  0  0  0  0  0  0  0  0  0  0
  -21.9230   -4.4040   23.5240 C   0  0  0  0  0  3  0  0  0  0  0  0
  -22.1300   -5.1790   22.3690 C   0  0  0  0  0  0  0  0  0  0  0  0
  -22.6530   -4.6040   21.2590 F   0  0  0  0  0  0  0  0  0  0  0  0
  -21.1570   -4.2400   25.7800 F   0  0  0  0  0  0  0  0  0  0  0  0
  -23.1340  -13.8650   21.2070 C   0  0  0  0  0  0  0  0  0  0  0  0
  -22.4620  -13.1450   22.0980 N   0  0  0  0  0  0  0  0  0  0  0  0
  -22.6750  -14.9130   20.7570 O   0  0  0  0  0  0  0  0  0  0  0  0
  -22.8510  -12.2990   22.4860 H   0  0  0  0  0  0  0  0  0  0  0  0
  -21.5440  -13.4440   22.3940 H   0  0  0  0  0  0  0  0  0  0  0  0
  -25.7090  -15.5570   20.3280 N   0  0  0  0  0  0  0  0  0  0  0  0
  -24.9480  -16.1970   20.5220 H   0  0  0  0  0  0  0  0  0  0  0  0
  -26.5090  -16.0050   19.9020 H   0  0  0  0  0  0  0  0  0  0  0  0
  -28.2640  -25.4030   19.8270 O   0  0  0  0  0  1  0  0  0  0  0  0
  -24.7320  -31.8590   23.0320 C   0  0  0  0  0  0  0  0  0  0  0  0
  -27.2970  -26.7260   19.8040 C   0  0  0  0  0  0  0  0  0  0  0  0
  -23.5420  -30.4770   21.3870 C   0  0  0  0  0  3  0  0  0  0  0  0
  -24.9960  -28.8700   19.8850 C   0  0  0  0  0  0  0  0  0  0  0  0
  -26.1260  -30.6160   21.2240 C   0  0  0  0  0  2  0  0  0  0  0  0
  -26.2050  -29.1810   20.5160 C   0  0  0  0  0  0  0  0  0  0  0  0
  -27.3190  -28.1440   20.4440 C   0  0  0  0  0  3  0  0  0  0  0  0
  -26.0490  -26.7120   19.1040 C   0  0  0  0  0  3  0  0  0  0  0  0
  -24.9720  -27.6690   19.1510 C   0  0  0  0  0  3  0  0  0  0  0  0
  -23.7740  -29.8140   19.9940 C   0  0  0  0  0  2  0  0  0  0  0  0
  -24.8270  -31.0230   21.9320 N   0  0  0  0  0  0  0  0  0  0  0  0
  -23.6400  -32.1200   23.5720 O   0  0  0  0  0  0  0  0  0  0  0  0
  -22.8590  -29.4710   22.3540 C   0  0  0  0  0  0  0  0  0  0  0  0
  -21.5240  -29.3010   22.2710 N   0  0  0  0  0  0  0  0  0  0  0  0
  -23.5480  -28.8340   23.1540 O   0  0  0  0  0  0  0  0  0  0  0  0
  -21.0110  -29.8650   21.6080 H   0  0  0  0  0  0  0  0  0  0  0  0
  -18.1810  -27.9880   22.8700 C   0  0  0  0  0  0  0  0  0  0  0  0
  -20.7440  -28.3200   23.0390 C   0  0  0  0  0  3  0  0  0  0  0  0
  -20.8560  -26.9100   22.4140 C   0  0  0  0  0  2  0  0  0  0  0  0
  -19.7260  -26.5950   21.4280 C   0  0  0  0  0  2  0  0  0  0  0  0
  -18.3680  -26.6740   22.1280 C   0  0  0  0  0  2  0  0  0  0  0  0
  -19.2950  -28.7670   23.2830 C   0  0  0  0  0  0  0  0  0  0  0  0
  -19.0610  -29.9920   23.9460 C   0  0  0  0  0  3  0  0  0  0  0  0
  -17.7500  -30.4390   24.1930 C   0  0  0  0  0  3  0  0  0  0  0  0
  -16.6520  -29.6590   23.7900 C   0  0  0  0  0  3  0  0  0  0  0  0
  -16.8690  -28.4330   23.1360 C   0  0  0  0  0  3  0  0  0  0  0  0
  -25.9840  -32.5370   23.6690 C   0  0  0  0  0  3  0  0  0  0  0  0
  -25.6310  -33.9260   24.0390 N   0  0  0  0  0  0  0  0  0  0  0  0
  -25.9340  -35.0210   23.3290 C   0  0  0  0  0  0  0  0  0  0  0  0
  -26.5920  -34.9710   22.2870 O   0  0  0  0  0  0  0  0  0  0  0  0
  -25.0410  -34.0350   24.8510 H   0  0  0  0  0  0  0  0  0  0  0  0
  -24.1690  -36.8080   23.0890 C   0  0  0  0  0  1  0  0  0  0  0  0
  -25.4360  -36.3890   23.8520 C   0  0  0  0  0  3  0  0  0  0  0  0
  -27.5660  -37.2980   24.6760 C   0  0  0  0  0  1  0  0  0  0  0  0
  -26.4480  -37.4650   23.7520 N   0  0  0  0  0  0  0  0  0  0  0  0
  -26.0250  -38.3730   23.9280 H   0  0  0  0  0  0  0  0  0  0  0  0
  -26.5150  -31.7740   24.9470 C   0  0  1  0  0  0  0  0  0  0  0  0
  -25.4300  -31.5270   26.0230 C   0  0  0  0  0  1  0  0  0  0  0  0
  -27.1150  -30.4020   24.5710 C   0  0  0  0  0  1  0  0  0  0  0  0
  -27.6610  -32.5830   25.6020 C   0  0  0  0  0  1  0  0  0  0  0  0
  1  2  1  0
  3  1  1  0
  4  2  1  0
  5  3  1  0
  6 12  1  0
  6 15  1  0
  7 12  1  0
  8  9  1  0
  8  7  1  0
 10  9  1  0
 10 23  1  0
 10 11  1  0
 12 11  1  0
 13  6  2  0
 14 15  1  0
 15 17  1  0
 16 14  1  0
 18 16  1  0
 19 16  1  0
 20 21  2  0
 21 40  1  0
 22 21  1  0
 22 25  1  0
 23 24  1  0
 23 20  1  0
 24 22  2  0
 25 26  1  0
 26 27  2  0
 28 31  1  0
 28 27  1  0
 29 28  2  0
 30 29  1  0
 30 25  2  0
 31 32  1  0
 32 37  2  0
 32 33  1  0
 33 34  2  0
 34 35  1  0
 35 39  1  0
 36 35  2  0
 37 36  1  0
 38 37  1  0
 40 41  1  0
 41 44  1  0
 41 43  1  0
 42 40  2  0
 45 20  1  0
 45 46  1  0
 47 45  1  0
 49 60  2  0
 50 48  1  0
 50 55  1  0
 51 59  1  0
 51 61  1  0
 52 58  1  0
 52 54  1  0
 53 59  1  0
 54 53  1  0
 55 54  2  0
 56 57  1  0
 56 50  2  0
 57 52  2  0
 58 51  1  0
 59 49  1  0
 61 63  2  0
 62 61  1  0
 64 62  1  0
 65 74  2  0
 65 70  1  0
 66 62  1  0
 66 70  1  0
 67 66  1  0
 68 69  1  0
 68 67  1  0
 69 65  1  0
 70 71  2  0
 71 72  1  0
 73 72  2  0
 74 73  1  0
 75 49  1  0
 75 76  1  0
 75 85  1  0
 76 79  1  0
 77 81  1  0
 77 76  1  0
 78 77  2  0
 81 80  1  0
 83 81  1  0
 83 84  1  0
 83 82  1  0
 85 88  1  1
 85 86  1  0
 87 85  1  0
M  ISO  4   5 101   6 100  15 100  48 101
M  END
>  <TORSDO>  (32) 
F 16

>  <SCORE>  (32) 
-14.827

>  <name>  (32) 
32

>  <ligand_id>  (32) 
32

>  <original_smiles>  (32) 
[H]c1c([H])c([H])c2c(c1[H])C([H])([H])C([H])([H])C([H])([H])C2([H])N([H])C(=O)C1([H])N(C(=O)C([H])(N([H])C(=O)C([H])(N([H])C([H])([H])[H])C([H])([H])[H])C(C([H])([H])[H])(C([H])([H])[H])C([H])([H])[H])C([H])([H])c2c([H])c(OC3([H])C([H])([H])C([H])([H])C([H])([H])C3([H])C(N([H])C(=O)N3C([H])([H])C([H])([H])C([H])([H])C([H])(n4nc(-c5c([H])c([H])c(Oc6c([H])c([H])c(F)c([H])c6F)c([H])c5[H])c(C(=O)N([H])[H])c4N([H])[H])C3([H])[H])=[N+]([H])[H])c([H])c([H])c2C1([H])[H]

>  <smiles>  (32) 
[H]c1c([H])c([H])c2c(c1[H])C([H])([H])C([H])([H])C([H])([H])C2([H])N([H])C(=O)C1([H])N(C(=O)C([H])(N([H])C(=O)C([H])(N([H])C([H])([H])[H])C([H])([H])[H])C(C([H])([H])[H])(C([H])([H])[H])C([H])([H])[H])C([H])([H])c2c([H])c(OC3([H])C([H])([H])C([H])([H])C([H])([H])C3([H])C(N([H])C(=O)N3C([H])([H])C([H])([H])C([H])([H])C([H])(n4nc(-c5c([H])c([H])c(Oc6c([H])c([H])c(F)c([H])c6F)c([H])c5[H])c(C(=O)N([H])[H])c4N([H])[H])C3([H])[H])=[N+]([H])[H])c([H])c([H])c2C1([H])[H]

$$$$
33:0:0
     RDKit          3D

 86 91  0  0  1  0  0  0  0  0999 V2000
  -26.8770  -19.9250   19.3080 C   0  0  0  0  0  2  0  0  0  0  0  0
  -27.3320  -19.9070   20.7890 C   0  0  0  0  0  2  0  0  0  0  0  0
  -27.6380  -20.9460   18.4240 C   0  0  0  0  0  2  0  0  0  0  0  0
  -28.8260  -19.5490   21.0170 C   0  0  0  0  0  2  0  0  0  0  0  0
  -28.9380  -21.4290   19.0890 C   0  0  0  0  0  1  0  0  0  0  0  0
  -29.6460  -19.5540   19.7140 C   0  0  0  0  0  2  0  0  0  0  0  0
  -30.5260  -16.2070   19.4970 C   0  0  0  0  0  0  0  0  0  0  0  0
  -30.7150  -13.5460   18.8050 C   0  0  0  0  0  2  0  0  0  0  0  0
  -29.7880  -12.8460   17.7550 C   0  0  0  0  0  2  0  0  0  0  0  0
  -28.4470  -12.4310   18.3710 C   0  0  0  0  0  2  0  0  0  0  0  0
  -27.9330  -13.5260   19.3230 C   0  0  0  0  0  3  0  0  0  0  0  0
  -29.0140  -14.0660   20.2990 C   0  0  0  0  0  2  0  0  0  0  0  0
  -30.0420  -14.7800   19.4730 N   0  0  0  0  0  0  0  0  0  0  0  0
  -31.7720  -16.0720   19.4250 O   0  0  0  0  0  0  0  0  0  0  0  0
  -29.7620  -17.6640   19.4110 N   0  0  0  0  0  0  0  0  0  0  0  0
  -28.8090  -17.3790   19.2330 H   0  0  0  0  0  0  0  0  0  0  0  0
  -25.6760  -14.0680   20.3300 C   0  0  0  0  0  0  0  0  0  0  0  0
  -24.6270  -13.3020   20.7480 C   0  0  0  0  0  0  0  0  0  0  0  0
  -25.0520  -11.9420   20.6170 C   0  0  0  0  0  0  0  0  0  0  0  0
  -26.6700  -13.1860   19.9620 N   0  0  0  0  0  0  0  0  0  0  0  0
  -26.3120  -11.8920   20.1940 N   0  0  0  0  0  0  0  0  0  0  0  0
  -24.3000  -10.6940   20.8130 C   0  0  0  0  0  0  0  0  0  0  0  0
  -24.6900   -9.7350   21.7730 C   0  0  0  0  0  3  0  0  0  0  0  0
  -23.9310   -8.5590   21.9610 C   0  0  0  0  0  3  0  0  0  0  0  0
  -22.7660   -8.3340   21.1890 C   0  0  0  0  0  0  0  0  0  0  0  0
  -22.3950   -9.2800   20.2170 C   0  0  0  0  0  3  0  0  0  0  0  0
  -23.1550  -10.4480   20.0280 C   0  0  0  0  0  3  0  0  0  0  0  0
  -21.9840   -7.2080   21.2840 O   0  0  0  0  0  0  0  0  0  0  0  0
  -21.7690   -6.5790   22.4850 C   0  0  0  0  0  0  0  0  0  0  0  0
  -21.1800   -7.2470   23.5800 C   0  0  0  0  0  3  0  0  0  0  0  0
  -20.9150   -6.5440   24.7720 C   0  0  0  0  0  3  0  0  0  0  0  0
  -21.2290   -5.1750   24.8690 C   0  0  0  0  0  0  0  0  0  0  0  0
  -21.8110   -4.5070   23.7770 C   0  0  0  0  0  3  0  0  0  0  0  0
  -22.0780   -5.2070   22.5860 C   0  0  0  0  0  0  0  0  0  0  0  0
  -22.6190   -4.5550   21.5310 F   0  0  0  0  0  0  0  0  0  0  0  0
  -20.9680   -4.4980   26.0110 F   0  0  0  0  0  0  0  0  0  0  0  0
  -23.2720  -13.8050   21.1470 C   0  0  0  0  0  0  0  0  0  0  0  0
  -22.6090  -13.1070   22.0630 N   0  0  0  0  0  0  0  0  0  0  0  0
  -22.8170  -14.8500   20.6850 O   0  0  0  0  0  0  0  0  0  0  0  0
  -22.9950  -12.2590   22.4530 H   0  0  0  0  0  0  0  0  0  0  0  0
  -21.7040  -13.4190   22.3820 H   0  0  0  0  0  0  0  0  0  0  0  0
  -25.8550  -15.4430   20.1960 N   0  0  0  0  0  0  0  0  0  0  0  0
  -25.1120  -16.1030   20.3980 H   0  0  0  0  0  0  0  0  0  0  0  0
  -26.6870  -15.8840   19.8310 H   0  0  0  0  0  0  0  0  0  0  0  0
  -28.4400  -23.4120   19.6370 C   0  0  0  0  0 15  0  0  0  0  0  0
  -28.2690  -25.2680   19.2620 O   0  0  0  0  0  1  0  0  0  0  0  0
  -24.6860  -31.5680   22.7800 C   0  0  0  0  0  0  0  0  0  0  0  0
  -27.2660  -26.5440   19.4240 C   0  0  0  0  0  0  0  0  0  0  0  0
  -23.5030  -30.2340   21.0950 C   0  0  0  0  0  3  0  0  0  0  0  0
  -24.9600  -28.6700   19.5600 C   0  0  0  0  0  0  0  0  0  0  0  0
  -26.0860  -30.3900   20.9350 C   0  0  0  0  0  2  0  0  0  0  0  0
  -26.1730  -28.9740   20.1900 C   0  0  0  0  0  0  0  0  0  0  0  0
  -27.2990  -27.9540   20.0760 C   0  0  0  0  0  3  0  0  0  0  0  0
  -26.0010  -26.5160   18.7610 C   0  0  0  0  0  3  0  0  0  0  0  0
  -24.9270  -27.4740   18.8200 C   0  0  0  0  0  3  0  0  0  0  0  0
  -23.7390  -29.6140   19.6850 C   0  0  0  0  0  2  0  0  0  0  0  0
  -24.7870  -30.7660   21.6580 N   0  0  0  0  0  0  0  0  0  0  0  0
  -23.5940  -31.8150   23.3240 O   0  0  0  0  0  0  0  0  0  0  0  0
  -22.8150  -29.1980   22.0280 C   0  0  0  0  0  0  0  0  0  0  0  0
  -21.4740  -29.0660   21.9740 N   0  0  0  0  0  0  0  0  0  0  0  0
  -23.5060  -28.5080   22.7790 O   0  0  0  0  0  0  0  0  0  0  0  0
  -20.9570  -29.6790   21.3590 H   0  0  0  0  0  0  0  0  0  0  0  0
  -18.1100  -27.8290   22.6200 C   0  0  0  0  0  0  0  0  0  0  0  0
  -20.6870  -28.0600   22.7060 C   0  0  0  0  0  3  0  0  0  0  0  0
  -20.7250  -26.6930   21.9830 C   0  0  0  0  0  2  0  0  0  0  0  0
  -19.5410  -26.4780   21.0350 C   0  0  0  0  0  2  0  0  0  0  0  0
  -18.2190  -26.5530   21.8030 C   0  0  0  0  0  2  0  0  0  0  0  0
  -19.2670  -28.5420   23.0350 C   0  0  0  0  0  0  0  0  0  0  0  0
  -19.1040  -29.7290   23.7830 C   0  0  0  0  0  3  0  0  0  0  0  0
  -17.8200  -30.2120   24.1000 C   0  0  0  0  0  3  0  0  0  0  0  0
  -16.6800  -29.5010   23.6880 C   0  0  0  0  0  3  0  0  0  0  0  0
  -16.8280  -28.3080   22.9590 C   0  0  0  0  0  3  0  0  0  0  0  0
  -25.9360  -32.2290   23.4390 C   0  0  0  0  0  3  0  0  0  0  0  0
  -25.5540  -33.5710   23.9320 N   0  0  0  0  0  0  0  0  0  0  0  0
  -25.8200  -34.7310   23.3140 C   0  0  0  0  0  0  0  0  0  0  0  0
  -26.4620  -34.7870   22.2640 O   0  0  0  0  0  0  0  0  0  0  0  0
  -24.9740  -33.5950   24.7580 H   0  0  0  0  0  0  0  0  0  0  0  0
  -23.9950  -36.4720   23.2660 C   0  0  0  0  0  1  0  0  0  0  0  0
  -25.2970  -36.0350   23.9580 C   0  0  0  0  0  3  0  0  0  0  0  0
  -27.4220  -36.9440   24.7920 C   0  0  0  0  0  1  0  0  0  0  0  0
  -26.2700  -37.1480   23.9190 N   0  0  0  0  0  0  0  0  0  0  0  0
  -25.8260  -38.0250   24.1800 H   0  0  0  0  0  0  0  0  0  0  0  0
  -26.5200  -31.3790   24.6360 C   0  0  1  0  0  0  0  0  0  0  0  0
  -25.4730  -31.0120   25.7130 C   0  0  0  0  0  1  0  0  0  0  0  0
  -27.1420  -30.0590   24.1300 C   0  0  0  0  0  1  0  0  0  0  0  0
  -27.6650  -32.1610   25.3240 C   0  0  0  0  0  1  0  0  0  0  0  0
  1  2  1  0
  2  4  1  0
  3  5  1  0
  3  1  1  0
  6  4  1  0
  8 13  1  0
  9 10  1  0
  9  8  1  0
 11 10  1  0
 11 20  1  0
 11 12  1  0
 13  7  1  0
 13 12  1  0
 14  7  2  0
 15  7  1  0
 15  6  1  0
 16 15  1  0
 17 18  2  0
 18 37  1  0
 19 18  1  0
 19 22  1  0
 20 21  1  0
 20 17  1  0
 21 19  2  0
 22 23  1  0
 23 24  2  0
 25 28  1  0
 25 24  1  0
 26 25  2  0
 27 26  1  0
 27 22  2  0
 28 29  1  0
 29 34  2  0
 29 30  1  0
 30 31  2  0
 31 32  1  0
 32 36  1  0
 33 32  2  0
 34 33  1  0
 35 34  1  0
 37 38  1  0
 38 41  1  0
 38 40  1  0
 39 37  2  0
 42 17  1  0
 42 43  1  0
 44 42  1  0
 46 48  1  0
 47 58  2  0
 48 53  1  0
 49 57  1  0
 49 59  1  0
 50 56  1  0
 50 52  1  0
 51 57  1  0
 52 51  1  0
 53 52  2  0
 54 55  1  0
 54 48  2  0
 55 50  2  0
 56 49  1  0
 57 47  1  0
 59 61  2  0
 60 59  1  0
 62 60  1  0
 63 72  2  0
 63 68  1  0
 64 60  1  0
 64 68  1  0
 65 64  1  0
 66 67  1  0
 66 65  1  0
 67 63  1  0
 68 69  2  0
 69 70  1  0
 71 70  2  0
 72 71  1  0
 73 47  1  0
 73 74  1  0
 73 83  1  0
 74 77  1  0
 75 74  1  0
 75 79  1  0
 76 75  2  0
 79 78  1  0
 81 79  1  0
 81 82  1  0
 81 80  1  0
 83 86  1  1
 83 84  1  0
 85 83  1  0
M  ISO  4   7 100  15 100  45 101  46 101
M  END
>  <TORSDO>  (33) 
F 17

>  <SCORE>  (33) 
-13.396

>  <name>  (33) 
33

>  <ligand_id>  (33) 
33

>  <original_smiles>  (33) 
[H]c1c([H])c([H])c2c(c1[H])C([H])([H])C([H])([H])C([H])([H])C2([H])N([H])C(=O)C1([H])N(C(=O)C([H])(N([H])C(=O)C([H])(N([H])C([H])([H])[H])C([H])([H])[H])C(C([H])([H])[H])(C([H])([H])[H])C([H])([H])[H])C([H])([H])c2c([H])c(OC([H])([H])C3([H])C([H])([H])C([H])([H])C([H])([H])C([H])([H])C3([H])N([H])C(=O)N3C([H])([H])C([H])([H])C([H])([H])C([H])(n4nc(-c5c([H])c([H])c(Oc6c([H])c([H])c(F)c([H])c6F)c([H])c5[H])c(C(=O)N([H])[H])c4N([H])[H])C3([H])[H])c([H])c([H])c2C1([H])[H]

>  <smiles>  (33) 
[H]c1c([H])c([H])c2c(c1[H])C([H])([H])C([H])([H])C([H])([H])C2([H])N([H])C(=O)C1([H])N(C(=O)C([H])(N([H])C(=O)C([H])(N([H])C([H])([H])[H])C([H])([H])[H])C(C([H])([H])[H])(C([H])([H])[H])C([H])([H])[H])C([H])([H])c2c([H])c(OC([H])([H])C3([H])C([H])([H])C([H])([H])C([H])([H])C([H])([H])C3([H])N([H])C(=O)N3C([H])([H])C([H])([H])C([H])([H])C([H])(n4nc(-c5c([H])c([H])c(Oc6c([H])c([H])c(F)c([H])c6F)c([H])c5[H])c(C(=O)N([H])[H])c4N([H])[H])C3([H])[H])c([H])c([H])c2C1([H])[H]

$$$$
34:0:0
     RDKit          3D

 94101  0  0  1  0  0  0  0  0999 V2000
  -31.4120  -20.7560   19.1040 C   0  0  0  0  0  1  0  0  0  0  0  0
  -30.0630  -20.3470   19.7470 C   0  0  0  0  0  3  0  0  0  0  0  0
  -28.6410  -18.4550   20.5730 C   0  0  0  0  0  1  0  0  0  0  0  0
  -29.8900  -18.8080   19.8440 N   0  0  2  0  0  4  0  0  0  0  0  0
  -29.7260  -18.5000   18.8970 H   0  0  0  0  0  0  0  0  0  0  0  0
  -31.9690  -18.8590   21.2840 C   0  0  0  0  0  1  0  0  0  0  0  0
  -31.1090  -17.9880   20.3110 C   0  0  0  0  0  3  0  0  0  0  0  0
  -30.2460  -16.3880   22.2580 C   0  0  0  0  0  1  0  0  0  0  0  0
  -32.4180  -15.9470   21.2540 C   0  0  0  0  0  1  0  0  0  0  0  0
  -30.9840  -16.4520   20.8960 C   0  0  2  0  0  0  0  0  0  0  0  0
  -30.8530  -14.2890   19.4220 C   0  0  0  0  0  0  0  0  0  0  0  0
  -30.3350  -12.0760   18.4000 C   0  0  0  0  0  2  0  0  0  0  0  0
  -29.2360  -12.2150   17.3270 C   0  0  0  0  0  2  0  0  0  0  0  0
  -27.8360  -12.1270   17.9670 C   0  0  0  0  0  2  0  0  0  0  0  0
  -27.6920  -13.0380   19.2130 C   0  0  0  0  0  3  0  0  0  0  0  0
  -28.8890  -12.8720   20.1740 C   0  0  0  0  0  2  0  0  0  0  0  0
  -30.1130  -13.1370   19.4030 N   0  0  0  0  0  0  0  0  0  0  0  0
  -31.9260  -14.3680   18.8200 O   0  0  0  0  0  0  0  0  0  0  0  0
  -30.3180  -15.3720   20.0740 N   0  0  0  0  0  0  0  0  0  0  0  0
  -29.3560  -15.2110   20.3330 H   0  0  0  0  0  0  0  0  0  0  0  0
  -25.4790  -13.7650   20.2960 C   0  0  0  0  0  0  0  0  0  0  0  0
  -24.4280  -13.0500   20.8040 C   0  0  0  0  0  0  0  0  0  0  0  0
  -24.7880  -11.6730   20.6760 C   0  0  0  0  0  0  0  0  0  0  0  0
  -26.4150  -12.8270   19.8890 N   0  0  0  0  0  0  0  0  0  0  0  0
  -26.0130  -11.5620   20.1770 N   0  0  0  0  0  0  0  0  0  0  0  0
  -24.0130  -10.4560   20.9440 C   0  0  0  0  0  0  0  0  0  0  0  0
  -24.4400   -9.5030   21.8940 C   0  0  0  0  0  3  0  0  0  0  0  0
  -23.6680   -8.3490   22.1480 C   0  0  0  0  0  3  0  0  0  0  0  0
  -22.4530   -8.1390   21.4520 C   0  0  0  0  0  0  0  0  0  0  0  0
  -22.0450   -9.0790   20.4900 C   0  0  0  0  0  3  0  0  0  0  0  0
  -22.8170  -10.2240   20.2340 C   0  0  0  0  0  3  0  0  0  0  0  0
  -21.6520   -7.0360   21.6150 O   0  0  0  0  0  0  0  0  0  0  0  0
  -21.5520   -6.3890   22.8210 C   0  0  0  0  0  0  0  0  0  0  0  0
  -21.0770   -7.0430   23.9790 C   0  0  0  0  0  3  0  0  0  0  0  0
  -20.9260   -6.3230   25.1810 C   0  0  0  0  0  3  0  0  0  0  0  0
  -21.2380   -4.9500   25.2250 C   0  0  0  0  0  0  0  0  0  0  0  0
  -21.7060   -4.2970   24.0720 C   0  0  0  0  0  3  0  0  0  0  0  0
  -21.8590   -5.0150   22.8720 C   0  0  0  0  0  0  0  0  0  0  0  0
  -22.2900   -4.3760   21.7570 F   0  0  0  0  0  0  0  0  0  0  0  0
  -21.0850   -4.2570   26.3770 F   0  0  0  0  0  0  0  0  0  0  0  0
  -23.1220  -13.6080   21.2900 C   0  0  0  0  0  0  0  0  0  0  0  0
  -22.4880  -12.9380   22.2460 N   0  0  0  0  0  0  0  0  0  0  0  0
  -22.6800  -14.6710   20.8570 O   0  0  0  0  0  0  0  0  0  0  0  0
  -22.8610  -12.0770   22.6170 H   0  0  0  0  0  0  0  0  0  0  0  0
  -21.6160  -13.2930   22.6140 H   0  0  0  0  0  0  0  0  0  0  0  0
  -25.7070  -15.1270   20.1230 N   0  0  0  0  0  0  0  0  0  0  0  0
  -24.9990  -15.8180   20.3400 H   0  0  0  0  0  0  0  0  0  0  0  0
  -26.5000  -15.5150   19.6290 H   0  0  0  0  0  0  0  0  0  0  0  0
  -28.9360  -21.1300   18.9720 C   0  0  0  0  0  0  0  0  0  0  0  0
  -28.2760  -20.2820   17.8980 C   0  0  0  0  0  1  0  0  0  0  0  0
  -28.5140  -22.3620   19.0430 N   0  0  0  0  0  0  0  0  0  0  0  0
  -28.9720  -23.5340   19.8420 C   0  0  0  0  0  2  0  0  0  0  0  0
  -28.0380  -24.7770   19.4920 C   0  0  0  0  0  2  0  0  0  0  0  0
  -28.2780  -26.1850   19.8870 O   0  0  0  0  0  0  0  0  0  0  0  0
  -24.5320  -31.5400   22.9720 C   0  0  0  0  0  0  0  0  0  0  0  0
  -27.1710  -27.0540   19.8290 C   0  0  0  0  0  0  0  0  0  0  0  0
  -23.3450  -30.1830   21.2880 C   0  0  0  0  0  3  0  0  0  0  0  0
  -24.8090  -28.6750   19.8380 C   0  0  0  0  0  0  0  0  0  0  0  0
  -25.8890  -30.5010   21.1420 C   0  0  0  0  0  2  0  0  0  0  0  0
  -25.9730  -29.1410   20.4630 C   0  0  0  0  0  0  0  0  0  0  0  0
  -27.1560  -28.3400   20.4530 C   0  0  0  0  0  3  0  0  0  0  0  0
  -25.9810  -26.6580   19.1660 C   0  0  0  0  0  3  0  0  0  0  0  0
  -24.8150  -27.4400   19.1820 C   0  0  0  0  0  3  0  0  0  0  0  0
  -23.5730  -29.5490   19.8940 C   0  0  0  0  0  2  0  0  0  0  0  0
  -24.6070  -30.7570   21.8580 N   0  0  0  0  0  0  0  0  0  0  0  0
  -23.4430  -31.8070   23.4990 O   0  0  0  0  0  0  0  0  0  0  0  0
  -22.6730  -29.1410   22.2140 C   0  0  0  0  0  0  0  0  0  0  0  0
  -21.3430  -28.9910   22.0890 N   0  0  0  0  0  0  0  0  0  0  0  0
  -23.3460  -28.4750   23.0050 O   0  0  0  0  0  0  0  0  0  0  0  0
  -20.8600  -29.5820   21.4250 H   0  0  0  0  0  0  0  0  0  0  0  0
  -17.9410  -27.8750   22.6070 C   0  0  0  0  0  0  0  0  0  0  0  0
  -20.5110  -28.0430   22.8320 C   0  0  0  0  0  3  0  0  0  0  0  0
  -20.5570  -26.6370   22.1900 C   0  0  0  0  0  2  0  0  0  0  0  0
  -19.4240  -26.3950   21.1870 C   0  0  0  0  0  2  0  0  0  0  0  0
  -18.0610  -26.5530   21.8670 C   0  0  0  0  0  2  0  0  0  0  0  0
  -19.0910  -28.5820   23.0470 C   0  0  0  0  0  0  0  0  0  0  0  0
  -18.9240  -29.8220   23.7000 C   0  0  0  0  0  3  0  0  0  0  0  0
  -17.6380  -30.3540   23.9180 C   0  0  0  0  0  3  0  0  0  0  0  0
  -16.5030  -29.6430   23.4930 C   0  0  0  0  0  3  0  0  0  0  0  0
  -16.6550  -28.4050   22.8440 C   0  0  0  0  0  3  0  0  0  0  0  0
  -25.8090  -32.1570   23.6220 C   0  0  0  0  0  3  0  0  0  0  0  0
  -25.4830  -33.5320   24.0240 N   0  0  0  0  0  0  0  0  0  0  0  0
  -25.8080  -34.6280   23.3240 C   0  0  0  0  0  0  0  0  0  0  0  0
  -26.4840  -34.5870   22.2930 O   0  0  0  0  0  0  0  0  0  0  0  0
  -24.8860  -33.6370   24.8310 H   0  0  0  0  0  0  0  0  0  0  0  0
  -24.0500  -36.4100   23.0680 C   0  0  0  0  0  1  0  0  0  0  0  0
  -25.3010  -35.9840   23.8530 C   0  0  0  0  0  3  0  0  0  0  0  0
  -27.4200  -36.8640   24.7300 C   0  0  0  0  0  1  0  0  0  0  0  0
  -26.3180  -37.0560   23.7900 N   0  0  0  0  0  0  0  0  0  0  0  0
  -25.8980  -37.9630   23.9760 H   0  0  0  0  0  0  0  0  0  0  0  0
  -26.3400  -31.3270   24.8550 C   0  0  1  0  0  0  0  0  0  0  0  0
  -25.2520  -31.0160   25.9100 C   0  0  0  0  0  1  0  0  0  0  0  0
  -26.9450  -29.9820   24.3920 C   0  0  0  0  0  1  0  0  0  0  0  0
  -27.4780  -32.1050   25.5580 C   0  0  0  0  0  1  0  0  0  0  0  0
  2  1  1  0
  2  4  1  0
  4  7  1  0
  4  3  1  0
  4  5  1  6
  7 10  1  0
  7  6  1  0
 10  9  1  1
 10  8  1  0
 11 19  1  0
 12 17  1  0
 13 14  1  0
 13 12  1  0
 15 14  1  0
 15 24  1  0
 15 16  1  0
 17 11  1  0
 17 16  1  0
 18 11  2  0
 19 20  1  0
 19 10  1  0
 21 22  2  0
 22 41  1  0
 23 22  1  0
 23 26  1  0
 24 25  1  0
 24 21  1  0
 25 23  2  0
 26 27  1  0
 27 28  2  0
 29 32  1  0
 29 28  1  0
 30 29  2  0
 31 30  1  0
 31 26  2  0
 32 33  1  0
 33 38  2  0
 33 34  1  0
 34 35  2  0
 35 36  1  0
 36 40  1  0
 37 36  2  0
 38 37  1  0
 39 38  1  0
 41 42  1  0
 42 45  1  0
 42 44  1  0
 43 41  2  0
 46 21  1  0
 46 47  1  0
 48 46  1  0
 49 51  2  0
 49  2  1  0
 50 49  1  0
 51 52  1  0
 53 52  1  0
 53 54  1  0
 55 66  2  0
 56 54  1  0
 56 61  1  0
 57 65  1  0
 57 67  1  0
 58 64  1  0
 58 60  1  0
 59 65  1  0
 60 59  1  0
 61 60  2  0
 62 63  1  0
 62 56  2  0
 63 58  2  0
 64 57  1  0
 65 55  1  0
 67 69  2  0
 68 67  1  0
 70 68  1  0
 71 80  2  0
 71 76  1  0
 72 68  1  0
 72 76  1  0
 73 72  1  0
 74 75  1  0
 74 73  1  0
 75 71  1  0
 76 77  2  0
 77 78  1  0
 79 78  2  0
 80 79  1  0
 81 55  1  0
 81 82  1  0
 81 91  1  0
 82 85  1  0
 83 87  1  0
 83 82  1  0
 84 83  2  0
 87 86  1  0
 89 87  1  0
 89 90  1  0
 89 88  1  0
 91 94  1  1
 91 92  1  0
 93 91  1  0
M  ISO  4  11 100  19 100  53 101  54 101
M  END
>  <TORSDO>  (34) 
F 22

>  <SCORE>  (34) 
-10.763

>  <name>  (34) 
34

>  <ligand_id>  (34) 
34

>  <original_smiles>  (34) 
[H]c1c([H])c([H])c2c(c1[H])C([H])([H])C([H])([H])C([H])([H])C2([H])N([H])C(=O)C1([H])N(C(=O)C([H])(N([H])C(=O)C([H])(N([H])C([H])([H])[H])C([H])([H])[H])C(C([H])([H])[H])(C([H])([H])[H])C([H])([H])[H])C([H])([H])c2c([H])c(OC([H])([H])C([H])([H])N=C(C([H])([H])[H])C([H])(C([H])([H])[H])[N+]([H])(C([H])([H])[H])C([H])(C([H])([H])[H])C(N([H])C(=O)N3C([H])([H])C([H])([H])C([H])([H])C([H])(n4nc(-c5c([H])c([H])c(Oc6c([H])c([H])c(F)c([H])c6F)c([H])c5[H])c(C(=O)N([H])[H])c4N([H])[H])C3([H])[H])(C([H])([H])[H])C([H])([H])[H])c([H])c([H])c2C1([H])[H]

>  <smiles>  (34) 
[H]c1c([H])c([H])c2c(c1[H])C([H])([H])C([H])([H])C([H])([H])C2([H])N([H])C(=O)C1([H])N(C(=O)C([H])(N([H])C(=O)C([H])(N([H])C([H])([H])[H])C([H])([H])[H])C(C([H])([H])[H])(C([H])([H])[H])C([H])([H])[H])C([H])([H])c2c([H])c(OC([H])([H])C([H])([H])N=C(C([H])([H])[H])C([H])(C([H])([H])[H])[N+]([H])(C([H])([H])[H])C([H])(C([H])([H])[H])C(N([H])C(=O)N3C([H])([H])C([H])([H])C([H])([H])C([H])(n4nc(-c5c([H])c([H])c(Oc6c([H])c([H])c(F)c([H])c6F)c([H])c5[H])c(C(=O)N([H])[H])c4N([H])[H])C3([H])[H])(C([H])([H])[H])C([H])([H])[H])c([H])c([H])c2C1([H])[H]

$$$$
35:0:0
     RDKit          3D

 84 89  0  0  1  0  0  0  0  0999 V2000
  -28.6270  -20.5870   21.4730 C   0  0  0  0  0  2  0  0  0  0  0  0
  -28.6040  -22.2960   21.5330 C   0  0  0  0  0  2  0  0  0  0  0  0
  -28.7560  -21.5140   19.4840 C   0  0  0  0  0  1  0  0  0  0  0  0
  -29.3200  -19.7830   20.2300 C   0  0  0  0  0  2  0  0  0  0  0  0
  -28.1280  -23.2150   20.2640 C   0  0  0  0  0  1  0  0  0  0  0  0
  -30.0860  -16.3310   19.9820 C   0  0  0  0  0  0  0  0  0  0  0  0
  -30.3220  -13.6770   19.1520 C   0  0  0  0  0  2  0  0  0  0  0  0
  -29.4470  -13.0170   18.0300 C   0  0  0  0  0  2  0  0  0  0  0  0
  -28.0990  -12.5300   18.5730 C   0  0  0  0  0  2  0  0  0  0  0  0
  -27.5460  -13.5450   19.5890 C   0  0  0  0  0  3  0  0  0  0  0  0
  -28.5860  -14.0770   20.6210 C   0  0  0  0  0  2  0  0  0  0  0  0
  -29.6190  -14.8790   19.8770 N   0  0  0  0  0  0  0  0  0  0  0  0
  -31.3290  -16.1850   19.8540 O   0  0  0  0  0  0  0  0  0  0  0  0
  -29.3300  -17.8310   20.0460 N   0  0  0  0  0  2  0  0  0  0  0  0
  -28.3520  -17.5730   20.0140 H   0  0  0  0  0  0  0  0  0  0  0  0
  -25.2330  -13.9900   20.5040 C   0  0  0  0  0  0  0  0  0  0  0  0
  -24.2040  -13.1840   20.8970 C   0  0  0  0  0  0  0  0  0  0  0  0
  -24.6900  -11.8420   20.8000 C   0  0  0  0  0  0  0  0  0  0  0  0
  -26.2770  -13.1460   20.1820 N   0  0  0  0  0  0  0  0  0  0  0  0
  -25.9680  -11.8420   20.4210 N   0  0  0  0  0  0  0  0  0  0  0  0
  -23.9820  -10.5670   20.9880 C   0  0  0  0  0  0  0  0  0  0  0  0
  -24.4370   -9.5930   21.9030 C   0  0  0  0  0  3  0  0  0  0  0  0
  -23.7210   -8.3890   22.0840 C   0  0  0  0  0  3  0  0  0  0  0  0
  -22.5340   -8.1500   21.3510 C   0  0  0  0  0  0  0  0  0  0  0  0
  -22.0960   -9.1130   20.4250 C   0  0  0  0  0  3  0  0  0  0  0  0
  -22.8130  -10.3080   20.2420 C   0  0  0  0  0  3  0  0  0  0  0  0
  -21.7890   -6.9980   21.4430 O   0  0  0  0  0  0  0  0  0  0  0  0
  -21.7370   -6.2640   22.6010 C   0  0  0  0  0  0  0  0  0  0  0  0
  -21.2640   -6.8150   23.8110 C   0  0  0  0  0  3  0  0  0  0  0  0
  -21.1610   -6.0060   24.9610 C   0  0  0  0  0  3  0  0  0  0  0  0
  -21.5220   -4.6470   24.9000 C   0  0  0  0  0  0  0  0  0  0  0  0
  -21.9880   -4.0950   23.6940 C   0  0  0  0  0  3  0  0  0  0  0  0
  -22.0920   -4.9000   22.5470 C   0  0  0  0  0  0  0  0  0  0  0  0
  -22.5200   -4.3580   21.3820 F   0  0  0  0  0  0  0  0  0  0  0  0
  -21.4170   -3.8670   26.0020 F   0  0  0  0  0  0  0  0  0  0  0  0
  -22.8170  -13.6380   21.2410 C   0  0  0  0  0  0  0  0  0  0  0  0
  -22.1390  -12.9170   22.1260 N   0  0  0  0  0  0  0  0  0  0  0  0
  -22.3470  -14.6690   20.7610 O   0  0  0  0  0  0  0  0  0  0  0  0
  -22.5350  -12.0840   22.5350 H   0  0  0  0  0  0  0  0  0  0  0  0
  -21.2090  -13.2030   22.4000 H   0  0  0  0  0  0  0  0  0  0  0  0
  -25.3640  -15.3670   20.3550 N   0  0  0  0  0  0  0  0  0  0  0  0
  -24.5900  -16.0040   20.5180 H   0  0  0  0  0  0  0  0  0  0  0  0
  -26.1840  -15.8270   19.9830 H   0  0  0  0  0  0  0  0  0  0  0  0
  -28.1260  -25.1640   20.2380 O   0  0  0  0  0  1  0  0  0  0  0  0
  -24.6820  -31.8990   23.2040 C   0  0  0  0  0  0  0  0  0  0  0  0
  -27.1710  -26.5200   20.2450 C   0  0  0  0  0  0  0  0  0  0  0  0
  -23.4940  -30.4850   21.5880 C   0  0  0  0  0  3  0  0  0  0  0  0
  -24.9310  -28.7650   20.1920 C   0  0  0  0  0  0  0  0  0  0  0  0
  -26.0850  -30.5330   21.4800 C   0  0  0  0  0  2  0  0  0  0  0  0
  -26.1410  -29.0600   20.8290 C   0  0  0  0  0  0  0  0  0  0  0  0
  -27.2280  -27.9800   20.8100 C   0  0  0  0  0  3  0  0  0  0  0  0
  -25.9180  -26.5220   19.5490 C   0  0  0  0  0  3  0  0  0  0  0  0
  -24.8790  -27.5250   19.5260 C   0  0  0  0  0  3  0  0  0  0  0  0
  -23.7380  -29.7570   20.2300 C   0  0  0  0  0  2  0  0  0  0  0  0
  -24.7830  -31.0140   22.1420 N   0  0  0  0  0  0  0  0  0  0  0  0
  -23.5870  -32.2140   23.7050 O   0  0  0  0  0  0  0  0  0  0  0  0
  -22.7550  -29.5410   22.5780 C   0  0  0  0  0  0  0  0  0  0  0  0
  -21.4220  -29.3850   22.4530 N   0  0  0  0  0  0  0  0  0  0  0  0
  -23.4020  -28.9410   23.4390 O   0  0  0  0  0  0  0  0  0  0  0  0
  -20.9440  -29.9190   21.7410 H   0  0  0  0  0  0  0  0  0  0  0  0
  -18.0450  -28.1210   22.9690 C   0  0  0  0  0  0  0  0  0  0  0  0
  -20.5990  -28.4510   23.2380 C   0  0  0  0  0  3  0  0  0  0  0  0
  -20.7310  -27.0080   22.6960 C   0  0  0  0  0  2  0  0  0  0  0  0
  -19.6440  -26.6450   21.6790 C   0  0  0  0  0  2  0  0  0  0  0  0
  -18.2550  -26.7680   22.3100 C   0  0  0  0  0  2  0  0  0  0  0  0
  -19.1430  -28.9190   23.3890 C   0  0  0  0  0  0  0  0  0  0  0  0
  -18.8880  -30.1790   23.9730 C   0  0  0  0  0  3  0  0  0  0  0  0
  -17.5690  -30.6440   24.1350 C   0  0  0  0  0  3  0  0  0  0  0  0
  -16.4870  -29.8470   23.7260 C   0  0  0  0  0  3  0  0  0  0  0  0
  -16.7250  -28.5860   23.1500 C   0  0  0  0  0  3  0  0  0  0  0  0
  -25.9360  -32.5700   23.8450 C   0  0  0  0  0  3  0  0  0  0  0  0
  -25.6030  -33.9750   24.1750 N   0  0  0  0  0  0  0  0  0  0  0  0
  -25.9200  -35.0470   23.4340 C   0  0  0  0  0  0  0  0  0  0  0  0
  -26.5710  -34.9570   22.3900 O   0  0  0  0  0  0  0  0  0  0  0  0
  -25.0180  -34.1160   24.9860 H   0  0  0  0  0  0  0  0  0  0  0  0
  -24.1750  -36.8480   23.1610 C   0  0  0  0  0  1  0  0  0  0  0  0
  -25.4460  -36.4360   23.9200 C   0  0  0  0  0  3  0  0  0  0  0  0
  -27.6010  -37.3420   24.6820 C   0  0  0  0  0  1  0  0  0  0  0  0
  -26.4680  -37.4970   23.7740 N   0  0  0  0  0  0  0  0  0  0  0  0
  -26.0610  -38.4150   23.9300 H   0  0  0  0  0  0  0  0  0  0  0  0
  -26.4280  -31.8320   25.1520 C   0  0  1  0  0  0  0  0  0  0  0  0
  -25.3180  -31.6200   26.2090 C   0  0  0  0  0  1  0  0  0  0  0  0
  -27.0190  -30.4450   24.8200 C   0  0  0  0  0  1  0  0  0  0  0  0
  -27.5680  -32.6420   25.8140 C   0  0  0  0  0  1  0  0  0  0  0  0
  1  2  1  0
  3  4  1  0
  4  1  1  0
  5  2  1  0
  6 14  1  0
  7 12  1  0
  8  9  1  0
  8  7  1  0
 10  9  1  0
 10 19  1  0
 10 11  1  0
 12  6  1  0
 12 11  1  0
 13  6  2  0
 15 14  1  0
 16 17  2  0
 17 36  1  0
 18 17  1  0
 18 21  1  0
 19 20  1  0
 19 16  1  0
 20 18  2  0
 21 22  1  0
 22 23  2  0
 24 27  1  0
 24 23  1  0
 25 24  2  0
 26 25  1  0
 26 21  2  0
 27 28  1  0
 28 29  1  0
 29 30  2  0
 31 30  1  0
 31 35  1  0
 32 31  2  0
 33 28  2  0
 33 32  1  0
 34 33  1  0
 36 37  1  0
 37 40  1  0
 37 39  1  0
 38 36  2  0
 41 16  1  0
 41 42  1  0
 43 41  1  0
 44 46  1  0
 45 56  2  0
 46 51  1  0
 47 55  1  0
 47 57  1  0
 48 54  1  0
 48 50  1  0
 49 55  1  0
 50 49  1  0
 51 50  2  0
 52 46  2  0
 53 52  1  0
 53 48  2  0
 54 47  1  0
 55 45  1  0
 57 59  2  0
 58 57  1  0
 60 58  1  0
 61 70  2  0
 61 66  1  0
 62 58  1  0
 62 66  1  0
 63 62  1  0
 64 65  1  0
 64 63  1  0
 65 61  1  0
 66 67  2  0
 67 68  1  0
 69 68  2  0
 70 69  1  0
 71 45  1  0
 71 72  1  0
 71 81  1  0
 72 75  1  0
 73 77  1  0
 73 72  1  0
 74 73  2  0
 77 76  1  0
 79 77  1  0
 79 80  1  0
 79 78  1  0
 81 84  1  1
 81 82  1  0
 83 81  1  0
M  ISO  4   5 101   6 100  14 100  44 101
M  END
>  <TORSDO>  (35) 
F 16

>  <SCORE>  (35) 
-16.194

>  <name>  (35) 
35

>  <ligand_id>  (35) 
35

>  <original_smiles>  (35) 
[H]c1c([H])c([H])c2c(c1[H])C([H])([H])C([H])([H])C([H])([H])C2([H])N([H])C(=O)C1([H])N(C(=O)C([H])(N([H])C(=O)C([H])(N([H])C([H])([H])[H])C([H])([H])[H])C(C([H])([H])[H])(C([H])([H])[H])C([H])([H])[H])C([H])([H])c2c([H])c(OC3([H])C([H])([H])C([H])([H])C([H])(N([H])C(=O)N4C([H])([H])C([H])([H])C([H])([H])C([H])(n5nc(-c6c([H])c([H])c(Oc7c([H])c([H])c(F)c([H])c7F)c([H])c6[H])c(C(=O)N([H])[H])c5N([H])[H])C4([H])[H])C3([H])[H])c([H])c([H])c2C1([H])[H]

>  <smiles>  (35) 
[H]c1c([H])c([H])c2c(c1[H])C([H])([H])C([H])([H])C([H])([H])C2([H])N([H])C(=O)C1([H])N(C(=O)C([H])(N([H])C(=O)C([H])(N([H])C([H])([H])[H])C([H])([H])[H])C(C([H])([H])[H])(C([H])([H])[H])C([H])([H])[H])C([H])([H])c2c([H])c(OC3([H])C([H])([H])C([H])([H])C([H])(N([H])C(=O)N4C([H])([H])C([H])([H])C([H])([H])C([H])(n5nc(-c6c([H])c([H])c(Oc7c([H])c([H])c(F)c([H])c7F)c([H])c6[H])c(C(=O)N([H])[H])c5N([H])[H])C4([H])[H])C3([H])[H])c([H])c([H])c2C1([H])[H]

$$$$
36:0:0
     RDKit          3D

 94102  0  0  1  0  0  0  0  0999 V2000
  -31.3070  -20.8620   19.4830 C   0  0  0  0  0  0  0  0  0  0  0  0
  -31.2110  -22.1750   19.7600 N   0  0  0  0  0  0  0  0  0  0  0  0
  -30.7000  -20.3430   18.5440 O   0  0  0  0  0  0  0  0  0  0  0  0
  -31.8080  -22.5550   20.4850 H   0  0  0  0  0  0  0  0  0  0  0  0
  -32.1790  -19.9930   20.4100 C   0  0  0  0  0  2  0  0  0  0  0  0
  -29.4120  -17.9300   22.1470 C   0  0  0  0  0  3  0  0  0  0  0  0
  -29.7250  -16.6790   21.8020 C   0  0  0  0  0  3  0  0  0  0  0  0
  -30.0250  -19.1030   21.4180 C   0  0  0  0  0  2  0  0  0  0  0  0
  -31.8840  -17.4790   20.7000 C   0  0  0  0  0  2  0  0  0  0  0  0
  -30.7380  -16.4240   20.7040 C   0  0  0  0  0  3  0  0  0  0  0  0
  -31.4730  -18.8690   21.1050 N   0  0  1  0  0  4  0  0  0  0  0  0
  -31.8850  -18.9140   22.0260 H   0  0  0  0  0  0  0  0  0  0  0  0
  -31.5520  -14.2570   19.7340 C   0  0  0  0  0  0  0  0  0  0  0  0
  -31.1160  -12.1240   18.5660 C   0  0  0  0  0  2  0  0  0  0  0  0
  -30.0260  -12.3330   17.4970 C   0  0  0  0  0  2  0  0  0  0  0  0
  -28.6160  -12.1910   18.1090 C   0  0  0  0  0  2  0  0  0  0  0  0
  -28.4420  -13.0370   19.3960 C   0  0  0  0  0  3  0  0  0  0  0  0
  -29.6170  -12.7780   20.3630 C   0  0  0  0  0  2  0  0  0  0  0  0
  -30.8850  -13.0770   19.6600 N   0  0  0  0  0  0  0  0  0  0  0  0
  -32.4250  -14.6130   18.9370 O   0  0  0  0  0  0  0  0  0  0  0  0
  -31.1580  -15.0220   20.7580 N   0  0  0  0  0  0  0  0  0  0  0  0
  -30.6580  -14.4820   21.4490 H   0  0  0  0  0  0  0  0  0  0  0  0
  -26.1960  -13.6900   20.4830 C   0  0  0  0  0  0  0  0  0  0  0  0
  -25.1480  -12.9350   20.9360 C   0  0  0  0  0  0  0  0  0  0  0  0
  -25.5200  -11.5720   20.7200 C   0  0  0  0  0  0  0  0  0  0  0  0
  -27.1480  -12.7880   20.0300 N   0  0  0  0  0  0  0  0  0  0  0  0
  -26.7490  -11.5050   20.2250 N   0  0  0  0  0  0  0  0  0  0  0  0
  -24.7570  -10.3320   20.9100 C   0  0  0  0  0  0  0  0  0  0  0  0
  -25.0920   -9.4080   21.9240 C   0  0  0  0  0  3  0  0  0  0  0  0
  -24.3360   -8.2300   22.0970 C   0  0  0  0  0  3  0  0  0  0  0  0
  -23.2290   -7.9660   21.2550 C   0  0  0  0  0  0  0  0  0  0  0  0
  -22.9140   -8.8780   20.2340 C   0  0  0  0  0  3  0  0  0  0  0  0
  -23.6700  -10.0490   20.0580 C   0  0  0  0  0  3  0  0  0  0  0  0
  -22.4540   -6.8340   21.3320 O   0  0  0  0  0  0  0  0  0  0  0  0
  -22.0360   -6.3300   22.5380 C   0  0  0  0  0  0  0  0  0  0  0  0
  -21.2740   -7.1000   23.4440 C   0  0  0  0  0  3  0  0  0  0  0  0
  -20.8040   -6.5210   24.6390 C   0  0  0  0  0  3  0  0  0  0  0  0
  -21.0840   -5.1710   24.9270 C   0  0  0  0  0  0  0  0  0  0  0  0
  -21.8360   -4.4010   24.0230 C   0  0  0  0  0  3  0  0  0  0  0  0
  -22.3080   -4.9790   22.8310 C   0  0  0  0  0  0  0  0  0  0  0  0
  -23.0150   -4.2250   21.9550 F   0  0  0  0  0  0  0  0  0  0  0  0
  -20.6260   -4.6130   26.0730 F   0  0  0  0  0  0  0  0  0  0  0  0
  -23.8330  -13.4460   21.4540 C   0  0  0  0  0  0  0  0  0  0  0  0
  -23.2230  -12.7290   22.3910 N   0  0  0  0  0  0  0  0  0  0  0  0
  -23.3630  -14.5150   21.0670 O   0  0  0  0  0  0  0  0  0  0  0  0
  -23.6210  -11.8620   22.7240 H   0  0  0  0  0  0  0  0  0  0  0  0
  -22.3480  -13.0480   22.7830 H   0  0  0  0  0  0  0  0  0  0  0  0
  -26.4120  -15.0630   20.4030 N   0  0  0  0  0  0  0  0  0  0  0  0
  -25.7030  -15.7370   20.6660 H   0  0  0  0  0  0  0  0  0  0  0  0
  -27.2350  -15.4890   19.9990 H   0  0  0  0  0  0  0  0  0  0  0  0
  -30.2110  -23.0790   19.1770 C   0  0  0  0  0  2  0  0  0  0  0  0
  -30.0600  -24.3980   19.9750 C   0  0  0  0  0  2  0  0  0  0  0  0
  -28.7840  -25.1820   19.6040 C   0  0  0  0  0  2  0  0  0  0  0  0
  -28.7280  -26.4790   20.2220 O   0  0  0  0  0  0  0  0  0  0  0  0
  -24.6850  -31.5230   23.2240 C   0  0  0  0  0  0  0  0  0  0  0  0
  -27.5240  -27.1640   20.1820 C   0  0  0  0  0  0  0  0  0  0  0  0
  -23.5560  -30.0990   21.5420 C   0  0  0  0  0  3  0  0  0  0  0  0
  -25.0850  -28.6140   20.1450 C   0  0  0  0  0  0  0  0  0  0  0  0
  -26.0750  -30.5260   21.4100 C   0  0  0  0  0  2  0  0  0  0  0  0
  -26.2130  -29.1590   20.7680 C   0  0  0  0  0  0  0  0  0  0  0  0
  -27.4310  -28.4410   20.7880 C   0  0  0  0  0  3  0  0  0  0  0  0
  -26.3680  -26.6350   19.5570 C   0  0  0  0  0  3  0  0  0  0  0  0
  -25.1560  -27.3490   19.5420 C   0  0  0  0  0  3  0  0  0  0  0  0
  -23.8190  -29.4410   20.1600 C   0  0  0  0  0  2  0  0  0  0  0  0
  -24.7880  -30.7310   22.1190 N   0  0  0  0  0  0  0  0  0  0  0  0
  -23.5840  -31.7670   23.7360 O   0  0  0  0  0  0  0  0  0  0  0  0
  -22.9100  -29.0540   22.4770 C   0  0  0  0  0  0  0  0  0  0  0  0
  -21.6110  -28.7900   22.2690 N   0  0  0  0  0  0  0  0  0  0  0  0
  -23.5760  -28.4870   23.3480 O   0  0  0  0  0  0  0  0  0  0  0  0
  -21.1360  -29.2990   21.5370 H   0  0  0  0  0  0  0  0  0  0  0  0
  -18.2890  -27.4070   22.5690 C   0  0  0  0  0  0  0  0  0  0  0  0
  -20.8030  -27.8200   23.0060 C   0  0  0  0  0  3  0  0  0  0  0  0
  -21.0290  -26.3900   22.4630 C   0  0  0  0  0  2  0  0  0  0  0  0
  -20.0180  -25.9860   21.3870 C   0  0  0  0  0  2  0  0  0  0  0  0
  -18.5900  -26.0600   21.9330 C   0  0  0  0  0  2  0  0  0  0  0  0
  -19.3300  -28.2390   23.0580 C   0  0  0  0  0  0  0  0  0  0  0  0
  -18.9990  -29.4970   23.6070 C   0  0  0  0  0  3  0  0  0  0  0  0
  -17.6590  -29.9230   23.6800 C   0  0  0  0  0  3  0  0  0  0  0  0
  -16.6310  -29.0880   23.2090 C   0  0  0  0  0  3  0  0  0  0  0  0
  -16.9470  -27.8320   22.6590 C   0  0  0  0  0  3  0  0  0  0  0  0
  -25.9420  -32.1810   23.8780 C   0  0  0  0  0  3  0  0  0  0  0  0
  -25.6080  -33.5770   24.1810 N   0  0  0  0  0  0  0  0  0  0  0  0
  -25.9130  -34.6190   23.3950 C   0  0  0  0  0  0  0  0  0  0  0  0
  -26.5850  -34.5090   22.3650 O   0  0  0  0  0  0  0  0  0  0  0  0
  -25.0210  -33.7420   24.9870 H   0  0  0  0  0  0  0  0  0  0  0  0
  -24.1430  -36.3520   22.9950 C   0  0  0  0  0  1  0  0  0  0  0  0
  -25.3910  -36.0020   23.8200 C   0  0  0  0  0  3  0  0  0  0  0  0
  -27.4890  -36.9610   24.6560 C   0  0  0  0  0  1  0  0  0  0  0  0
  -26.3980  -37.0770   23.6900 N   0  0  0  0  0  0  0  0  0  0  0  0
  -25.9660  -37.9890   23.8120 H   0  0  0  0  0  0  0  0  0  0  0  0
  -26.4300  -31.4300   25.1770 C   0  0  1  0  0  0  0  0  0  0  0  0
  -25.2970  -31.1480   26.1890 C   0  0  0  0  0  1  0  0  0  0  0  0
  -27.0840  -30.0790   24.8120 C   0  0  0  0  0  1  0  0  0  0  0  0
  -27.5200  -32.2670   25.8920 C   0  0  0  0  0  1  0  0  0  0  0  0
  1  2  1  0
  1  5  1  0
  2  4  1  0
  3  1  2  0
  5 11  1  0
  7  6  2  0
  8  6  1  0
  9 10  1  0
  9 11  1  0
 10 21  1  0
 10  7  1  0
 11  8  1  0
 11 12  1  1
 13 21  1  0
 14 19  1  0
 15 16  1  0
 15 14  1  0
 17 16  1  0
 17 26  1  0
 17 18  1  0
 19 13  1  0
 19 18  1  0
 20 13  2  0
 21 22  1  0
 23 24  2  0
 24 43  1  0
 25 28  1  0
 25 24  1  0
 26 27  1  0
 26 23  1  0
 27 25  2  0
 28 29  1  0
 29 30  2  0
 31 34  1  0
 31 30  1  0
 32 31  2  0
 33 32  1  0
 33 28  2  0
 34 35  1  0
 35 40  2  0
 35 36  1  0
 36 37  2  0
 37 38  1  0
 38 42  1  0
 39 38  2  0
 40 39  1  0
 41 40  1  0
 43 44  1  0
 44 46  1  0
 44 47  1  0
 45 43  2  0
 48 23  1  0
 48 49  1  0
 50 48  1  0
 51  2  1  0
 51 52  1  0
 53 52  1  0
 53 54  1  0
 55 66  2  0
 56 54  1  0
 56 61  1  0
 57 65  1  0
 57 67  1  0
 58 64  1  0
 58 60  1  0
 59 65  1  0
 60 61  2  0
 60 59  1  0
 62 56  2  0
 63 62  1  0
 63 58  2  0
 64 57  1  0
 65 55  1  0
 67 69  2  0
 68 67  1  0
 70 68  1  0
 71 80  2  0
 71 76  1  0
 72 68  1  0
 72 76  1  0
 73 72  1  0
 74 75  1  0
 74 73  1  0
 75 71  1  0
 76 77  2  0
 77 78  1  0
 79 78  2  0
 80 79  1  0
 81 55  1  0
 81 82  1  0
 81 91  1  0
 82 85  1  0
 83 87  1  0
 83 82  1  0
 84 83  2  0
 87 86  1  0
 89 90  1  0
 89 87  1  0
 89 88  1  0
 91 94  1  1
 91 92  1  0
 93 91  1  0
M  ISO  4  13 100  21 100  53 101  54 101
M  END
>  <TORSDO>  (36) 
F 21

>  <SCORE>  (36) 
-9.594

>  <name>  (36) 
36

>  <ligand_id>  (36) 
36

>  <original_smiles>  (36) 
[H]C1=C([H])C([H])([H])[N+]([H])(C([H])([H])C(=O)N([H])C([H])([H])C([H])([H])C([H])([H])Oc2c([H])c([H])c3c(c2[H])C([H])([H])N(C(=O)C([H])(N([H])C(=O)C([H])(N([H])C([H])([H])[H])C([H])([H])[H])C(C([H])([H])[H])(C([H])([H])[H])C([H])([H])[H])C([H])(C(=O)N([H])C2([H])c4c([H])c([H])c([H])c([H])c4C([H])([H])C([H])([H])C2([H])[H])C3([H])[H])C([H])([H])C1([H])N([H])C(=O)N1C([H])([H])C([H])([H])C([H])([H])C([H])(n2nc(-c3c([H])c([H])c(Oc4c([H])c([H])c(F)c([H])c4F)c([H])c3[H])c(C(=O)N([H])[H])c2N([H])[H])C1([H])[H]

>  <smiles>  (36) 
[H]C1=C([H])C([H])([H])[N+]([H])(C([H])([H])C(=O)N([H])C([H])([H])C([H])([H])C([H])([H])Oc2c([H])c([H])c3c(c2[H])C([H])([H])N(C(=O)C([H])(N([H])C(=O)C([H])(N([H])C([H])([H])[H])C([H])([H])[H])C(C([H])([H])[H])(C([H])([H])[H])C([H])([H])[H])C([H])(C(=O)N([H])C2([H])c4c([H])c([H])c([H])c([H])c4C([H])([H])C([H])([H])C2([H])[H])C3([H])[H])C([H])([H])C1([H])N([H])C(=O)N1C([H])([H])C([H])([H])C([H])([H])C([H])(n2nc(-c3c([H])c([H])c(Oc4c([H])c([H])c(F)c([H])c4F)c([H])c3[H])c(C(=O)N([H])[H])c2N([H])[H])C1([H])[H]

$$$$
37:0:0
     RDKit          3D

 87 97  0  0  1  0  0  0  0  0999 V2000
  -29.4070  -19.5070   18.5510 C   0  0  0  0  0  2  0  0  0  0  0  0
  -30.0670  -18.9530   19.8700 C   0  0  0  0  0  3  0  0  0  0  0  0
  -28.5660  -20.8560   18.9250 C   0  0  2  0  0  0  0  0  0  0  0  0
  -29.3550  -20.4710   20.5620 C   0  0  1  0  0  0  0  0  0  0  0  0
  -27.8490  -20.5420   20.2560 C   0  0  0  0  0  3  0  0  0  0  0  0
  -29.1940  -22.1060   19.7610 C   0  0  0  0  0  3  0  0  0  0  0  0
  -26.9560  -19.3080   20.4040 C   0  0  0  0  0  1  0  0  0  0  0  0
  -29.4870  -17.0320   21.5500 C   0  0  0  0  0  2  0  0  0  0  0  0
  -30.0840  -17.1590   20.3490 C   0  0  0  0  0  0  0  0  0  0  0  0
  -30.7450  -15.6480   19.8560 C   0  0  0  0  0  0  0  0  0  0  0  0
  -30.7180  -13.1120   18.9770 C   0  0  0  0  0  2  0  0  0  0  0  0
  -29.7660  -12.8170   17.7780 C   0  0  0  0  0  2  0  0  0  0  0  0
  -28.3540  -12.4700   18.2730 C   0  0  0  0  0  2  0  0  0  0  0  0
  -27.9280  -13.4330   19.4050 C   0  0  0  0  0  3  0  0  0  0  0  0
  -29.0160  -13.6520   20.4810 C   0  0  0  0  0  2  0  0  0  0  0  0
  -30.1960  -14.2810   19.8310 N   0  0  0  0  0  0  0  0  0  0  0  0
  -31.9140  -15.5520   19.4350 O   0  0  0  0  0  0  0  0  0  0  0  0
  -25.6520  -13.9780   20.3820 C   0  0  0  0  0  0  0  0  0  0  0  0
  -24.6070  -13.2030   20.8020 C   0  0  0  0  0  0  0  0  0  0  0  0
  -25.0390  -11.8500   20.6730 C   0  0  0  0  0  0  0  0  0  0  0  0
  -26.6450  -13.0960   20.0020 N   0  0  0  0  0  0  0  0  0  0  0  0
  -26.2990  -11.8050   20.2510 N   0  0  0  0  0  0  0  0  0  0  0  0
  -24.2980  -10.5960   20.8670 C   0  0  0  0  0  0  0  0  0  0  0  0
  -24.7110   -9.6360   21.8180 C   0  0  0  0  0  3  0  0  0  0  0  0
  -23.9710   -8.4460   22.0030 C   0  0  0  0  0  3  0  0  0  0  0  0
  -22.8030   -8.2120   21.2370 C   0  0  0  0  0  0  0  0  0  0  0  0
  -22.4080   -9.1640   20.2800 C   0  0  0  0  0  3  0  0  0  0  0  0
  -23.1500  -10.3430   20.0940 C   0  0  0  0  0  3  0  0  0  0  0  0
  -22.0340   -7.0770   21.3250 O   0  0  0  0  0  0  0  0  0  0  0  0
  -21.8570   -6.4230   22.5160 C   0  0  0  0  0  0  0  0  0  0  0  0
  -21.2630   -7.0490   23.6350 C   0  0  0  0  0  3  0  0  0  0  0  0
  -21.0380   -6.3140   24.8160 C   0  0  0  0  0  3  0  0  0  0  0  0
  -21.3940   -4.9510   24.8780 C   0  0  0  0  0  0  0  0  0  0  0  0
  -21.9850   -4.3280   23.7640 C   0  0  0  0  0  3  0  0  0  0  0  0
  -22.2120   -5.0610   22.5870 C   0  0  0  0  0  0  0  0  0  0  0  0
  -22.7580   -4.4470   21.5070 F   0  0  0  0  0  0  0  0  0  0  0  0
  -21.1740   -4.2420   26.0090 F   0  0  0  0  0  0  0  0  0  0  0  0
  -23.2480  -13.6970   21.1990 C   0  0  0  0  0  0  0  0  0  0  0  0
  -22.5830  -12.9930   22.1090 N   0  0  0  0  0  0  0  0  0  0  0  0
  -22.7860  -14.7400   20.7370 O   0  0  0  0  0  0  0  0  0  0  0  0
  -22.9780  -12.1530   22.5080 H   0  0  0  0  0  0  0  0  0  0  0  0
  -21.6660  -13.2960   22.4080 H   0  0  0  0  0  0  0  0  0  0  0  0
  -25.8300  -15.3510   20.2650 N   0  0  0  0  0  0  0  0  0  0  0  0
  -25.0870  -16.0060   20.4770 H   0  0  0  0  0  0  0  0  0  0  0  0
  -26.6780  -15.7950   19.9330 H   0  0  0  0  0  0  0  0  0  0  0  0
  -28.2530  -23.7980   19.9750 C   0  0  0  0  0  2  0  0  0  0  0  0
  -28.3940  -25.5380   19.8490 O   0  0  0  0  0  0  0  0  0  0  0  0
  -24.6240  -31.5880   22.8920 C   0  0  0  0  0  0  0  0  0  0  0  0
  -27.3640  -26.6930   19.8350 C   0  0  0  0  0  0  0  0  0  0  0  0
  -23.5010  -30.1920   21.2090 C   0  0  0  0  0  3  0  0  0  0  0  0
  -25.0220  -28.6280   19.7850 C   0  0  0  0  0  0  0  0  0  0  0  0
  -26.0770  -30.4320   21.1230 C   0  0  0  0  0  2  0  0  0  0  0  0
  -26.1970  -29.0190   20.4370 C   0  0  0  0  0  0  0  0  0  0  0  0
  -27.3550  -28.0840   20.4230 C   0  0  0  0  0  3  0  0  0  0  0  0
  -26.1480  -26.5040   19.1320 C   0  0  0  0  0  3  0  0  0  0  0  0
  -25.0360  -27.3990   19.1040 C   0  0  0  0  0  3  0  0  0  0  0  0
  -23.7830  -29.5340   19.8280 C   0  0  0  0  0  2  0  0  0  0  0  0
  -24.7560  -30.7680   21.7940 N   0  0  0  0  0  0  0  0  0  0  0  0
  -23.5150  -31.8380   23.3950 O   0  0  0  0  0  0  0  0  0  0  0  0
  -22.8060  -29.1670   22.1450 C   0  0  0  0  0  0  0  0  0  0  0  0
  -21.4700  -29.0250   22.0440 N   0  0  0  0  0  0  0  0  0  0  0  0
  -23.4780  -28.5020   22.9360 O   0  0  0  0  0  0  0  0  0  0  0  0
  -20.9770  -29.6190   21.3900 H   0  0  0  0  0  0  0  0  0  0  0  0
  -18.0790  -27.8670   22.6510 C   0  0  0  0  0  0  0  0  0  0  0  0
  -20.6560  -28.0560   22.7910 C   0  0  0  0  0  3  0  0  0  0  0  0
  -20.6850  -26.6650   22.1150 C   0  0  0  0  0  2  0  0  0  0  0  0
  -19.5260  -26.4430   21.1400 C   0  0  0  0  0  2  0  0  0  0  0  0
  -18.1830  -26.5690   21.8660 C   0  0  0  0  0  2  0  0  0  0  0  0
  -19.2380  -28.5730   23.0720 C   0  0  0  0  0  0  0  0  0  0  0  0
  -19.0820  -29.7860   23.7760 C   0  0  0  0  0  3  0  0  0  0  0  0
  -17.7990  -30.2950   24.0580 C   0  0  0  0  0  3  0  0  0  0  0  0
  -16.6560  -29.5860   23.6490 C   0  0  0  0  0  3  0  0  0  0  0  0
  -16.7980  -28.3730   22.9520 C   0  0  0  0  0  3  0  0  0  0  0  0
  -25.8550  -32.2640   23.5680 C   0  0  0  0  0  3  0  0  0  0  0  0
  -25.4660  -33.6270   23.9780 N   0  0  0  0  0  0  0  0  0  0  0  0
  -25.7520  -34.7470   23.3020 C   0  0  0  0  0  0  0  0  0  0  0  0
  -26.4330  -34.7440   22.2730 O   0  0  0  0  0  0  0  0  0  0  0  0
  -24.8600  -33.6980   24.7810 H   0  0  0  0  0  0  0  0  0  0  0  0
  -23.9560  -36.4990   23.0620 C   0  0  0  0  0  1  0  0  0  0  0  0
  -25.2070  -36.0840   23.8540 C   0  0  0  0  0  3  0  0  0  0  0  0
  -27.2890  -37.0090   24.7760 C   0  0  0  0  0  1  0  0  0  0  0  0
  -26.1980  -37.1830   23.8210 N   0  0  0  0  0  0  0  0  0  0  0  0
  -25.7530  -38.0780   24.0090 H   0  0  0  0  0  0  0  0  0  0  0  0
  -26.3930  -31.4590   24.8180 C   0  0  1  0  0  0  0  0  0  0  0  0
  -25.3050  -31.1320   25.8680 C   0  0  0  0  0  1  0  0  0  0  0  0
  -27.0370  -30.1210   24.3870 C   0  0  0  0  0  1  0  0  0  0  0  0
  -27.5010  -32.2720   25.5250 C   0  0  0  0  0  1  0  0  0  0  0  0
  1  2  1  0
  2  9  1  0
  4  2  1  6
  3  1  1  1
  3  6  1  0
  3  5  1  0
  3  4  1  0
  5  7  1  0
  5  4  1  0
  6 46  1  0
  6  4  1  0
  9  8  2  0
 10  9  1  0
 11 16  1  0
 12 13  1  0
 12 11  1  0
 13 14  1  0
 14 21  1  0
 14 15  1  0
 16 10  1  0
 16 15  1  0
 17 10  2  0
 18 19  2  0
 19 38  1  0
 20 19  1  0
 20 23  1  0
 21 22  1  0
 21 18  1  0
 22 20  2  0
 23 24  1  0
 24 25  2  0
 26 29  1  0
 26 25  1  0
 27 26  2  0
 28 27  1  0
 28 23  2  0
 29 30  1  0
 30 35  2  0
 30 31  1  0
 31 32  2  0
 32 33  1  0
 33 37  1  0
 34 33  2  0
 35 34  1  0
 36 35  1  0
 38 39  1  0
 39 42  1  0
 39 41  1  0
 40 38  2  0
 43 18  1  0
 43 44  1  0
 45 43  1  0
 47 46  1  0
 48 59  2  0
 48 74  1  0
 49 47  1  0
 49 54  1  0
 50 58  1  0
 50 60  1  0
 51 57  1  0
 51 53  1  0
 52 58  1  0
 53 52  1  0
 54 53  2  0
 55 49  2  0
 56 55  1  0
 56 51  2  0
 57 50  1  0
 58 48  1  0
 60 62  2  0
 61 60  1  0
 61 65  1  0
 63 61  1  0
 64 73  2  0
 64 69  1  0
 65 69  1  0
 66 65  1  0
 67 68  1  0
 67 66  1  0
 68 64  1  0
 69 70  2  0
 70 71  1  0
 72 71  2  0
 73 72  1  0
 74 75  1  0
 74 84  1  0
 75 78  1  0
 76 80  1  0
 76 75  1  0
 77 76  2  0
 79 80  1  0
 82 80  1  0
 82 83  1  0
 82 81  1  0
 84 87  1  1
 84 85  1  0
 86 84  1  0
M  ISO  4   9 100  10 100  46 101  47 101
M  END
>  <TORSDO>  (37) 
F 18

>  <SCORE>  (37) 
-14.672

>  <name>  (37) 
37

>  <ligand_id>  (37) 
37

>  <original_smiles>  (37) 
[H]C([H])=C(C(=O)N1C([H])([H])C([H])([H])C([H])([H])C([H])(n2nc(-c3c([H])c([H])c(Oc4c([H])c([H])c(F)c([H])c4F)c([H])c3[H])c(C(=O)N([H])[H])c2N([H])[H])C1([H])[H])C1([H])C([H])([H])C2([H])C([H])(C([H])([H])[H])C1([H])C2([H])C([H])([H])Oc1c([H])c([H])c2c(c1[H])C([H])([H])N(C(=O)C([H])(N([H])C(=O)C([H])(N([H])C([H])([H])[H])C([H])([H])[H])C(C([H])([H])[H])(C([H])([H])[H])C([H])([H])[H])C([H])(C(=O)N([H])C1([H])c3c([H])c([H])c([H])c([H])c3C([H])([H])C([H])([H])C1([H])[H])C2([H])[H]

>  <smiles>  (37) 
[H]C([H])=C(C(=O)N1C([H])([H])C([H])([H])C([H])([H])C([H])(n2nc(-c3c([H])c([H])c(Oc4c([H])c([H])c(F)c([H])c4F)c([H])c3[H])c(C(=O)N([H])[H])c2N([H])[H])C1([H])[H])C1([H])C([H])([H])C2([H])C([H])(C([H])([H])[H])C1([H])C2([H])C([H])([H])Oc1c([H])c([H])c2c(c1[H])C([H])([H])N(C(=O)C([H])(N([H])C(=O)C([H])(N([H])C([H])([H])[H])C([H])([H])[H])C(C([H])([H])[H])(C([H])([H])[H])C([H])([H])[H])C([H])(C(=O)N([H])C1([H])c3c([H])c([H])c([H])c([H])c3C([H])([H])C([H])([H])C1([H])[H])C2([H])[H]

$$$$
38:0:0
     RDKit          3D

 82 86  0  0  1  0  0  0  0  0999 V2000
  -28.1950  -25.0660   20.2230 O   0  0  0  0  0  1  0  0  0  0  0  0
  -24.7130  -31.7650   23.1270 C   0  0  0  0  0  0  0  0  0  0  0  0
  -27.2360  -26.3970   20.2550 C   0  0  0  0  0  0  0  0  0  0  0  0
  -23.5520  -30.3540   21.4890 C   0  0  0  0  0  3  0  0  0  0  0  0
  -25.0100  -28.6270   20.1370 C   0  0  0  0  0  0  0  0  0  0  0  0
  -26.1450  -30.3990   21.4360 C   0  0  0  0  0  2  0  0  0  0  0  0
  -26.2060  -28.9270   20.7980 C   0  0  0  0  0  0  0  0  0  0  0  0
  -27.2930  -27.8540   20.8080 C   0  0  0  0  0  3  0  0  0  0  0  0
  -26.0000  -26.3830   19.5360 C   0  0  0  0  0  3  0  0  0  0  0  0
  -24.9630  -27.3830   19.4800 C   0  0  0  0  0  3  0  0  0  0  0  0
  -23.8230  -29.6210   20.1400 C   0  0  0  0  0  2  0  0  0  0  0  0
  -24.8300  -30.8800   22.0690 N   0  0  0  0  0  0  0  0  0  0  0  0
  -23.6080  -32.0870   23.6030 O   0  0  0  0  0  0  0  0  0  0  0  0
  -22.7890  -29.4140   22.4640 C   0  0  0  0  0  0  0  0  0  0  0  0
  -21.4510  -29.3000   22.3380 N   0  0  0  0  0  0  0  0  0  0  0  0
  -23.4190  -28.7780   23.3130 O   0  0  0  0  0  0  0  0  0  0  0  0
  -20.9890  -29.8610   21.6360 H   0  0  0  0  0  0  0  0  0  0  0  0
  -18.0360  -28.1440   22.8440 C   0  0  0  0  0  0  0  0  0  0  0  0
  -20.6010  -28.3810   23.1090 C   0  0  0  0  0  3  0  0  0  0  0  0
  -20.6810  -26.9440   22.5410 C   0  0  0  0  0  2  0  0  0  0  0  0
  -19.5790  -26.6360   21.5220 C   0  0  0  0  0  2  0  0  0  0  0  0
  -18.1970  -26.7960   22.1610 C   0  0  0  0  0  2  0  0  0  0  0  0
  -19.1630  -28.8950   23.2740 C   0  0  0  0  0  0  0  0  0  0  0  0
  -18.9530  -30.1530   23.8790 C   0  0  0  0  0  3  0  0  0  0  0  0
  -17.6520  -30.6610   24.0540 C   0  0  0  0  0  3  0  0  0  0  0  0
  -16.5400  -29.9090   23.6360 C   0  0  0  0  0  3  0  0  0  0  0  0
  -16.7330  -28.6510   23.0370 C   0  0  0  0  0  3  0  0  0  0  0  0
  -25.9560  -32.4300   23.7930 C   0  0  0  0  0  3  0  0  0  0  0  0
  -25.6020  -33.8140   24.1780 N   0  0  0  0  0  0  0  0  0  0  0  0
  -25.9160  -34.9190   23.4880 C   0  0  0  0  0  0  0  0  0  0  0  0
  -26.5840  -34.8830   22.4530 O   0  0  0  0  0  0  0  0  0  0  0  0
  -25.0020  -33.9130   24.9840 H   0  0  0  0  0  0  0  0  0  0  0  0
  -24.1500  -36.7080   23.2660 C   0  0  0  0  0  1  0  0  0  0  0  0
  -25.4160  -36.2800   24.0260 C   0  0  0  0  0  3  0  0  0  0  0  0
  -27.5550  -37.1700   24.8470 C   0  0  0  0  0  1  0  0  0  0  0  0
  -26.4260  -37.3590   23.9410 N   0  0  0  0  0  0  0  0  0  0  0  0
  -26.0060  -38.2620   24.1420 H   0  0  0  0  0  0  0  0  0  0  0  0
  -26.4640  -31.6460   25.0670 C   0  0  1  0  0  0  0  0  0  0  0  0
  -25.3630  -31.3860   26.1230 C   0  0  0  0  0  1  0  0  0  0  0  0
  -27.0630  -30.2770   24.6780 C   0  0  0  0  0  1  0  0  0  0  0  0
  -27.6030  -32.4390   25.7510 C   0  0  0  0  0  1  0  0  0  0  0  0
  -28.2650  -23.1700   20.5350 C   0  0  0  0  0 15  0  0  0  0  0  0
  -29.5190  -21.5020   18.6560 C   0  0  0  0  0  1  0  0  0  0  0  0
  -28.7290  -21.1800   19.9290 C   0  0  0  0  0  1  0  0  0  0  0  0
  -29.3330  -17.7170   20.1520 C   0  0  0  0  0  2  0  0  0  0  0  0
  -29.4440  -19.3330   20.3500 C   0  0  0  0  0  1  0  0  0  0  0  0
  -30.1400  -16.0690   20.2880 C   0  0  0  0  0  0  0  0  0  0  0  0
  -30.3900  -13.4040   19.5480 C   0  0  0  0  0  2  0  0  0  0  0  0
  -29.5700  -12.7720   18.3710 C   0  0  0  0  0  2  0  0  0  0  0  0
  -28.1780  -12.3210   18.8290 C   0  0  0  0  0  2  0  0  0  0  0  0
  -27.5790  -13.3580   19.7980 C   0  0  0  0  0  3  0  0  0  0  0  0
  -28.5580  -13.8790   20.8850 C   0  0  0  0  0  2  0  0  0  0  0  0
  -29.6730  -14.6250   20.2140 N   0  0  0  0  0  0  0  0  0  0  0  0
  -31.3850  -15.9020   20.2420 O   0  0  0  0  0  0  0  0  0  0  0  0
  -25.2260  -13.8360   20.5840 C   0  0  0  0  0  0  0  0  0  0  0  0
  -24.1690  -13.0440   20.9300 C   0  0  0  0  0  0  0  0  0  0  0  0
  -24.6460  -11.6980   20.8740 C   0  0  0  0  0  0  0  0  0  0  0  0
  -26.2750  -12.9790   20.3240 N   0  0  0  0  0  0  0  0  0  0  0  0
  -25.9420  -11.6800   20.5640 N   0  0  0  0  0  0  0  0  0  0  0  0
  -23.9170  -10.4300   21.0370 C   0  0  0  0  0  0  0  0  0  0  0  0
  -24.3690   -9.4210   21.9160 C   0  0  0  0  0  3  0  0  0  0  0  0
  -23.6330   -8.2260   22.0750 C   0  0  0  0  0  3  0  0  0  0  0  0
  -22.4310   -8.0300   21.3540 C   0  0  0  0  0  0  0  0  0  0  0  0
  -21.9970   -9.0280   20.4640 C   0  0  0  0  0  3  0  0  0  0  0  0
  -22.7320  -10.2140   20.3030 C   0  0  0  0  0  3  0  0  0  0  0  0
  -21.6660   -6.8900   21.4240 O   0  0  0  0  0  0  0  0  0  0  0  0
  -21.6870   -6.0750   22.5280 C   0  0  0  0  0  0  0  0  0  0  0  0
  -21.4020   -6.5650   23.8210 C   0  0  0  0  0  3  0  0  0  0  0  0
  -21.3660   -5.6800   24.9170 C   0  0  0  0  0  3  0  0  0  0  0  0
  -21.6040   -4.3060   24.7220 C   0  0  0  0  0  0  0  0  0  0  0  0
  -21.8820   -3.8160   23.4340 C   0  0  0  0  0  3  0  0  0  0  0  0
  -21.9200   -4.6970   22.3400 C   0  0  0  0  0  0  0  0  0  0  0  0
  -22.1660   -4.2160   21.0980 F   0  0  0  0  0  0  0  0  0  0  0  0
  -21.5630   -3.4540   25.7730 F   0  0  0  0  0  0  0  0  0  0  0  0
  -22.7690  -13.5140   21.1940 C   0  0  0  0  0  0  0  0  0  0  0  0
  -22.0380  -12.8100   22.0490 N   0  0  0  0  0  0  0  0  0  0  0  0
  -22.3350  -14.5430   20.6770 O   0  0  0  0  0  0  0  0  0  0  0  0
  -22.4040  -11.9780   22.4880 H   0  0  0  0  0  0  0  0  0  0  0  0
  -21.0980  -13.1070   22.2690 H   0  0  0  0  0  0  0  0  0  0  0  0
  -25.3790  -15.2110   20.4320 N   0  0  0  0  0  0  0  0  0  0  0  0
  -24.6080  -15.8580   20.5580 H   0  0  0  0  0  0  0  0  0  0  0  0
  -26.2300  -15.6640   20.1240 H   0  0  0  0  0  0  0  0  0  0  0  0
  1  3  1  0
  2 13  2  0
  3  8  1  0
  4 12  1  0
  4 14  1  0
  5 11  1  0
  5  7  1  0
  6 12  1  0
  7  8  2  0
  7  6  1  0
  9  3  2  0
 10  9  1  0
 10  5  2  0
 11  4  1  0
 12  2  1  0
 14 16  2  0
 15 14  1  0
 17 15  1  0
 18 27  2  0
 18 23  1  0
 19 15  1  0
 19 23  1  0
 20 19  1  0
 21 22  1  0
 21 20  1  0
 22 18  1  0
 23 24  2  0
 24 25  1  0
 26 25  2  0
 27 26  1  0
 28  2  1  0
 28 29  1  0
 28 38  1  0
 29 32  1  0
 30 34  1  0
 30 29  1  0
 31 30  2  0
 34 33  1  0
 36 34  1  0
 36 37  1  0
 36 35  1  0
 38 41  1  1
 38 39  1  0
 40 38  1  0
 43 44  1  0
 45 47  1  0
 45 46  1  0
 48 53  1  0
 49 50  1  0
 49 48  1  0
 51 50  1  0
 51 58  1  0
 51 52  1  0
 53 47  1  0
 53 52  1  0
 54 47  2  0
 55 56  2  0
 56 75  1  0
 57 56  1  0
 57 60  1  0
 58 59  1  0
 58 55  1  0
 59 57  2  0
 60 61  1  0
 61 62  2  0
 63 66  1  0
 63 62  1  0
 64 63  2  0
 65 64  1  0
 65 60  2  0
 66 67  1  0
 67 68  1  0
 68 69  2  0
 70 69  1  0
 70 74  1  0
 71 70  2  0
 72 67  2  0
 72 71  1  0
 73 72  1  0
 75 76  1  0
 76 79  1  0
 76 78  1  0
 77 75  2  0
 80 81  1  0
 80 55  1  0
 82 80  1  0
M  ISO  4   1 101  42 101  45 100  47 100
M  END
>  <TORSDO>  (38) 
F 18

>  <SCORE>  (38) 
-15.872

>  <name>  (38) 
38

>  <ligand_id>  (38) 
38

>  <original_smiles>  (38) 
[H]C(C(=O)N1C([H])([H])C([H])([H])C([H])([H])C([H])(n2nc(-c3c([H])c([H])c(Oc4c([H])c([H])c(F)c([H])c4F)c([H])c3[H])c(C(=O)N([H])[H])c2N([H])[H])C1([H])[H])=C([H])C([H])(C([H])([H])[H])C([H])([H])Oc1c([H])c([H])c2c(c1[H])C([H])([H])N(C(=O)C([H])(N([H])C(=O)C([H])(N([H])C([H])([H])[H])C([H])([H])[H])C(C([H])([H])[H])(C([H])([H])[H])C([H])([H])[H])C([H])(C(=O)N([H])C1([H])c3c([H])c([H])c([H])c([H])c3C([H])([H])C([H])([H])C1([H])[H])C2([H])[H]

>  <smiles>  (38) 
[H]C(C(=O)N1C([H])([H])C([H])([H])C([H])([H])C([H])(n2nc(-c3c([H])c([H])c(Oc4c([H])c([H])c(F)c([H])c4F)c([H])c3[H])c(C(=O)N([H])[H])c2N([H])[H])C1([H])[H])=C([H])C([H])(C([H])([H])[H])C([H])([H])Oc1c([H])c([H])c2c(c1[H])C([H])([H])N(C(=O)C([H])(N([H])C(=O)C([H])(N([H])C([H])([H])[H])C([H])([H])[H])C(C([H])([H])[H])(C([H])([H])[H])C([H])([H])[H])C([H])(C(=O)N([H])C1([H])c3c([H])c([H])c([H])c([H])c3C([H])([H])C([H])([H])C1([H])[H])C2([H])[H]

$$$$
39:0:0
     RDKit          3D

 94101  0  0  1  0  0  0  0  0999 V2000
  -29.0720  -21.9430   20.9160 C   0  0  0  0  0  3  0  0  0  0  0  0
  -29.4690  -20.5490   20.1260 C   0  0  0  0  0  0  0  0  0  0  0  0
  -29.5450  -19.2450   20.6950 N   0  0  0  0  0  0  0  0  0  0  0  0
  -29.8270  -20.6940   18.9590 O   0  0  0  0  0  0  0  0  0  0  0  0
  -29.1900  -19.1850   21.6410 H   0  0  0  0  0  0  0  0  0  0  0  0
  -30.0870  -17.8580   20.1300 C   0  0  0  0  0  3  0  0  0  0  0  0
  -29.7490  -17.6910   18.6400 C   0  0  0  0  0  0  0  0  0  0  0  0
  -30.9160  -17.5440   17.6750 C   0  0  0  0  0  1  0  0  0  0  0  0
  -28.5890  -17.6430   18.2230 O   0  0  0  0  0  0  0  0  0  0  0  0
  -29.8490  -16.3710   20.8680 C   0  0  0  0  0  2  0  0  0  0  0  0
  -30.5950  -14.9710   20.3980 C   0  0  0  0  0  0  0  0  0  0  0  0
  -30.4390  -12.6560   19.3780 C   0  0  0  0  0  2  0  0  0  0  0  0
  -29.5060  -12.6980   18.1460 C   0  0  0  0  0  2  0  0  0  0  0  0
  -28.0390  -12.4960   18.5660 C   0  0  0  0  0  2  0  0  0  0  0  0
  -27.6520  -13.3890   19.7740 C   0  0  0  0  0  3  0  0  0  0  0  0
  -28.7050  -13.3300   20.9020 C   0  0  0  0  0  2  0  0  0  0  0  0
  -29.9980  -13.7170   20.3240 N   0  0  0  0  0  0  0  0  0  0  0  0
  -31.7700  -15.0480   20.0160 O   0  0  0  0  0  0  0  0  0  0  0  0
  -25.2710  -13.9810   20.4950 C   0  0  0  0  0  0  0  0  0  0  0  0
  -24.2020  -13.2090   20.8560 C   0  0  0  0  0  0  0  0  0  0  0  0
  -24.6640  -11.8550   20.8310 C   0  0  0  0  0  0  0  0  0  0  0  0
  -26.3110  -13.0990   20.2620 N   0  0  0  0  0  0  0  0  0  0  0  0
  -25.9560  -11.8170   20.5300 N   0  0  0  0  0  0  0  0  0  0  0  0
  -23.9340  -10.5950   21.0170 C   0  0  0  0  0  0  0  0  0  0  0  0
  -24.3540   -9.6290   21.9570 C   0  0  0  0  0  3  0  0  0  0  0  0
  -23.6220   -8.4360   22.1350 C   0  0  0  0  0  3  0  0  0  0  0  0
  -22.4560   -8.1990   21.3700 C   0  0  0  0  0  0  0  0  0  0  0  0
  -22.0540   -9.1520   20.4170 C   0  0  0  0  0  3  0  0  0  0  0  0
  -22.7890  -10.3380   20.2380 C   0  0  0  0  0  3  0  0  0  0  0  0
  -21.6960   -7.0590   21.4560 O   0  0  0  0  0  0  0  0  0  0  0  0
  -21.6370   -6.3160   22.6080 C   0  0  0  0  0  0  0  0  0  0  0  0
  -21.2010   -6.8720   23.8310 C   0  0  0  0  0  3  0  0  0  0  0  0
  -21.0890   -6.0560   24.9750 C   0  0  0  0  0  3  0  0  0  0  0  0
  -21.4040   -4.6870   24.8960 C   0  0  0  0  0  0  0  0  0  0  0  0
  -21.8350   -4.1300   23.6790 C   0  0  0  0  0  3  0  0  0  0  0  0
  -21.9470   -4.9430   22.5370 C   0  0  0  0  0  0  0  0  0  0  0  0
  -22.3420   -4.3970   21.3600 F   0  0  0  0  0  0  0  0  0  0  0  0
  -21.2890   -3.9000   25.9930 F   0  0  0  0  0  0  0  0  0  0  0  0
  -22.8010  -13.6880   21.1140 C   0  0  0  0  0  0  0  0  0  0  0  0
  -22.0660  -12.9910   21.9720 N   0  0  0  0  0  0  0  0  0  0  0  0
  -22.3660  -14.7140   20.5930 O   0  0  0  0  0  0  0  0  0  0  0  0
  -22.4370  -12.1650   22.4190 H   0  0  0  0  0  0  0  0  0  0  0  0
  -21.1240  -13.2900   22.1890 H   0  0  0  0  0  0  0  0  0  0  0  0
  -25.4440  -15.3520   20.3180 N   0  0  0  0  0  0  0  0  0  0  0  0
  -24.6780  -16.0120   20.4010 H   0  0  0  0  0  0  0  0  0  0  0  0
  -26.2900  -15.7790   19.9650 H   0  0  0  0  0  0  0  0  0  0  0  0
  -30.1550  -22.0950   21.9170 N   0  0  0  0  0  4  0  0  0  0  0  0
  -30.8680  -21.4400   21.6360 H   0  0  0  0  0  0  0  0  0  0  0  0
  -30.5630  -23.0130   21.8350 H   0  0  0  0  0  0  0  0  0  0  0  0
  -31.0660  -21.5220   24.1780 C   0  0  0  0  0  1  0  0  0  0  0  0
  -29.8130  -21.8110   23.3270 C   0  0  0  0  0  2  0  0  0  0  0  0
  -28.8500  -23.4300   20.1300 C   0  0  0  0  0  2  0  0  0  0  0  0
  -28.1390  -24.8160   20.7700 C   0  0  0  0  0  2  0  0  0  0  0  0
  -28.3070  -26.2940   20.3220 O   0  0  0  0  0  0  0  0  0  0  0  0
  -24.6010  -31.9430   23.2570 C   0  0  0  0  0  0  0  0  0  0  0  0
  -27.2170  -27.2310   20.3020 C   0  0  0  0  0  0  0  0  0  0  0  0
  -23.4090  -30.5210   21.6310 C   0  0  0  0  0  3  0  0  0  0  0  0
  -24.8700  -28.9360   20.2280 C   0  0  0  0  0  0  0  0  0  0  0  0
  -25.9570  -30.8100   21.4600 C   0  0  0  0  0  2  0  0  0  0  0  0
  -26.0440  -29.4090   20.8310 C   0  0  0  0  0  0  0  0  0  0  0  0
  -27.2180  -28.5730   20.8480 C   0  0  0  0  0  3  0  0  0  0  0  0
  -26.0160  -26.8440   19.6690 C   0  0  0  0  0  3  0  0  0  0  0  0
  -24.8650  -27.6640   19.6370 C   0  0  0  0  0  3  0  0  0  0  0  0
  -23.6340  -29.8260   20.2600 C   0  0  0  0  0  2  0  0  0  0  0  0
  -24.6760  -31.1130   22.1720 N   0  0  0  0  0  0  0  0  0  0  0  0
  -23.5130  -32.2300   23.7810 O   0  0  0  0  0  0  0  0  0  0  0  0
  -22.7360  -29.5220   22.6020 C   0  0  0  0  0  0  0  0  0  0  0  0
  -21.4110  -29.3430   22.4720 N   0  0  0  0  0  0  0  0  0  0  0  0
  -23.4090  -28.9100   23.4360 O   0  0  0  0  0  0  0  0  0  0  0  0
  -20.9250  -29.8850   21.7700 H   0  0  0  0  0  0  0  0  0  0  0  0
  -18.0340  -28.1350   22.9670 C   0  0  0  0  0  0  0  0  0  0  0  0
  -20.5900  -28.4110   23.2490 C   0  0  0  0  0  3  0  0  0  0  0  0
  -20.7030  -26.9740   22.6900 C   0  0  0  0  0  2  0  0  0  0  0  0
  -19.6080  -26.6370   21.6730 C   0  0  0  0  0  2  0  0  0  0  0  0
  -18.2210  -26.7810   22.3040 C   0  0  0  0  0  2  0  0  0  0  0  0
  -19.1460  -28.9080   23.3950 C   0  0  0  0  0  0  0  0  0  0  0  0
  -18.9190  -30.1750   23.9750 C   0  0  0  0  0  3  0  0  0  0  0  0
  -17.6110  -30.6720   24.1300 C   0  0  0  0  0  3  0  0  0  0  0  0
  -16.5120  -29.8960   23.7190 C   0  0  0  0  0  3  0  0  0  0  0  0
  -16.7250  -28.6290   23.1460 C   0  0  0  0  0  3  0  0  0  0  0  0
  -25.8760  -32.5860   23.8780 C   0  0  0  0  0  3  0  0  0  0  0  0
  -25.5640  -33.9890   24.1860 N   0  0  0  0  0  0  0  0  0  0  0  0
  -25.9090  -35.0340   23.4200 C   0  0  0  0  0  0  0  0  0  0  0  0
  -26.5890  -34.9180   22.3980 O   0  0  0  0  0  0  0  0  0  0  0  0
  -24.9570  -34.1560   24.9740 H   0  0  0  0  0  0  0  0  0  0  0  0
  -24.1920  -36.8320   23.0280 C   0  0  0  0  0  1  0  0  0  0  0  0
  -25.4220  -36.4310   23.8570 C   0  0  0  0  0  3  0  0  0  0  0  0
  -27.5480  -37.3190   24.7040 C   0  0  0  0  0  1  0  0  0  0  0  0
  -26.4600  -37.4800   23.7450 N   0  0  0  0  0  0  0  0  0  0  0  0
  -26.0540  -38.4050   23.8770 H   0  0  0  0  0  0  0  0  0  0  0  0
  -26.3790  -31.8370   25.1730 C   0  0  1  0  0  0  0  0  0  0  0  0
  -25.2750  -31.6210   26.2350 C   0  0  0  0  0  1  0  0  0  0  0  0
  -26.9650  -30.4520   24.8150 C   0  0  0  0  0  1  0  0  0  0  0  0
  -27.5230  -32.6440   25.8320 C   0  0  0  0  0  1  0  0  0  0  0  0
  1 52  1  0
  1 47  1  0
  2  3  1  0
  2  1  1  0
  3  5  1  0
  4  2  2  0
  6  3  1  0
  6 10  1  0
  7  6  1  0
  8  7  1  0
  9  7  2  0
 11 10  1  0
 12 17  1  0
 13 14  1  0
 13 12  1  0
 15 14  1  0
 15 22  1  0
 15 16  1  0
 17 11  1  0
 17 16  1  0
 18 11  2  0
 19 20  2  0
 20 39  1  0
 21 20  1  0
 21 24  1  0
 22 19  1  0
 22 23  1  0
 23 21  2  0
 24 25  1  0
 25 26  2  0
 27 30  1  0
 27 26  1  0
 28 27  2  0
 29 28  1  0
 29 24  2  0
 30 31  1  0
 31 32  1  0
 32 33  2  0
 34 33  1  0
 34 38  1  0
 35 34  2  0
 36 31  2  0
 36 35  1  0
 37 36  1  0
 39 40  1  0
 40 43  1  0
 40 42  1  0
 41 39  2  0
 44 45  1  0
 44 19  1  0
 46 44  1  0
 47 51  1  0
 48 47  1  0
 49 47  1  0
 51 50  1  0
 52 53  1  0
 54 53  1  0
 55 66  2  0
 56 54  1  0
 56 61  1  0
 57 65  1  0
 57 67  1  0
 58 64  1  0
 58 60  1  0
 59 65  1  0
 60 61  2  0
 60 59  1  0
 62 56  2  0
 63 62  1  0
 63 58  2  0
 64 57  1  0
 65 55  1  0
 67 69  2  0
 68 67  1  0
 70 68  1  0
 71 80  2  0
 71 76  1  0
 72 68  1  0
 72 76  1  0
 73 72  1  0
 74 75  1  0
 74 73  1  0
 75 71  1  0
 76 77  2  0
 77 78  1  0
 79 78  2  0
 80 79  1  0
 81 55  1  0
 81 82  1  0
 81 91  1  0
 82 85  1  0
 83 87  1  0
 83 82  1  0
 84 83  2  0
 87 86  1  0
 89 87  1  0
 89 90  1  0
 89 88  1  0
 91 94  1  1
 91 92  1  0
 93 91  1  0
M  ISO  4  10 100  11 100  53 101  54 101
M  END
>  <TORSDO>  (39) 
F 24

>  <SCORE>  (39) 
-13.481

>  <name>  (39) 
39

>  <ligand_id>  (39) 
39

>  <original_smiles>  (39) 
[H]c1c([H])c([H])c2c(c1[H])C([H])([H])C([H])([H])C([H])([H])C2([H])N([H])C(=O)C1([H])N(C(=O)C([H])(N([H])C(=O)C([H])(N([H])C([H])([H])[H])C([H])([H])[H])C(C([H])([H])[H])(C([H])([H])[H])C([H])([H])[H])C([H])([H])c2c([H])c(OC([H])([H])C([H])([H])C([H])(C(=O)N([H])C([H])(C(=O)C([H])([H])[H])C([H])([H])C(=O)N3C([H])([H])C([H])([H])C([H])([H])C([H])(n4nc(-c5c([H])c([H])c(Oc6c([H])c([H])c(F)c([H])c6F)c([H])c5[H])c(C(=O)N([H])[H])c4N([H])[H])C3([H])[H])[N+]([H])([H])C([H])([H])C([H])([H])[H])c([H])c([H])c2C1([H])[H]

>  <smiles>  (39) 
[H]c1c([H])c([H])c2c(c1[H])C([H])([H])C([H])([H])C([H])([H])C2([H])N([H])C(=O)C1([H])N(C(=O)C([H])(N([H])C(=O)C([H])(N([H])C([H])([H])[H])C([H])([H])[H])C(C([H])([H])[H])(C([H])([H])[H])C([H])([H])[H])C([H])([H])c2c([H])c(OC([H])([H])C([H])([H])C([H])(C(=O)N([H])C([H])(C(=O)C([H])([H])[H])C([H])([H])C(=O)N3C([H])([H])C([H])([H])C([H])([H])C([H])(n4nc(-c5c([H])c([H])c(Oc6c([H])c([H])c(F)c([H])c6F)c([H])c5[H])c(C(=O)N([H])[H])c4N([H])[H])C3([H])[H])[N+]([H])([H])C([H])([H])C([H])([H])[H])c([H])c([H])c2C1([H])[H]

$$$$
40:0:0
     RDKit          3D

 90 98  0  0  1  0  0  0  0  0999 V2000
  -29.6060  -21.2400   19.8840 N   0  0  0  0  0  4  0  0  0  0  0  0
  -29.1290  -21.1260   19.0040 H   0  0  0  0  0  0  0  0  0  0  0  0
  -30.5480  -21.5220   19.6650 H   0  0  0  0  0  0  0  0  0  0  0  0
  -28.8160  -17.5970   20.9700 C   0  0  0  0  0  2  0  0  0  0  0  0
  -28.4090  -19.0610   20.6370 C   0  0  0  0  0  2  0  0  0  0  0  0
  -30.6440  -18.7850   19.9020 C   0  0  0  0  0  2  0  0  0  0  0  0
  -30.2630  -17.3450   20.4680 C   0  0  0  0  0  3  0  0  0  0  0  0
  -29.7110  -19.8740   20.5650 C   0  0  0  0  0  3  0  0  0  0  0  0
  -29.8800  -16.2690   18.2550 C   0  0  0  0  0  2  0  0  0  0  0  0
  -30.3910  -16.1140   19.4910 C   0  0  0  0  0  0  0  0  0  0  0  0
  -31.1430  -14.8290   19.7710 C   0  0  0  0  0  0  0  0  0  0  0  0
  -30.8300  -12.4820   19.0030 C   0  0  0  0  0  2  0  0  0  0  0  0
  -29.8620  -12.4450   17.8000 C   0  0  0  0  0  2  0  0  0  0  0  0
  -28.3970  -12.3630   18.2770 C   0  0  0  0  0  2  0  0  0  0  0  0
  -28.0620  -13.3540   19.4220 C   0  0  0  0  0  3  0  0  0  0  0  0
  -29.1610  -13.3970   20.5040 C   0  0  0  0  0  2  0  0  0  0  0  0
  -30.4520  -13.6370   19.8450 N   0  0  0  0  0  0  0  0  0  0  0  0
  -32.3620  -14.8010   19.5990 O   0  0  0  0  0  0  0  0  0  0  0  0
  -25.7540  -14.0660   20.2700 C   0  0  0  0  0  0  0  0  0  0  0  0
  -24.6650  -13.3450   20.6720 C   0  0  0  0  0  0  0  0  0  0  0  0
  -25.0570  -11.9720   20.6110 C   0  0  0  0  0  0  0  0  0  0  0  0
  -26.7380  -13.1330   19.9820 N   0  0  0  0  0  0  0  0  0  0  0  0
  -26.3310  -11.8690   20.2530 N   0  0  0  0  0  0  0  0  0  0  0  0
  -24.2780  -10.7460   20.8130 C   0  0  0  0  0  0  0  0  0  0  0  0
  -24.6560   -9.7810   21.7720 C   0  0  0  0  0  3  0  0  0  0  0  0
  -23.8810   -8.6180   21.9610 C   0  0  0  0  0  3  0  0  0  0  0  0
  -22.7110   -8.4130   21.1910 C   0  0  0  0  0  0  0  0  0  0  0  0
  -22.3520   -9.3660   20.2220 C   0  0  0  0  0  3  0  0  0  0  0  0
  -23.1280  -10.5200   20.0310 C   0  0  0  0  0  3  0  0  0  0  0  0
  -21.9090   -7.3020   21.2900 O   0  0  0  0  0  0  0  0  0  0  0  0
  -21.7590   -6.6260   22.4740 C   0  0  0  0  0  0  0  0  0  0  0  0
  -21.2570   -7.2560   23.6330 C   0  0  0  0  0  3  0  0  0  0  0  0
  -21.0520   -6.5080   24.8100 C   0  0  0  0  0  3  0  0  0  0  0  0
  -21.3420   -5.1300   24.8270 C   0  0  0  0  0  0  0  0  0  0  0  0
  -21.8380   -4.5000   23.6720 C   0  0  0  0  0  3  0  0  0  0  0  0
  -22.0430   -5.2460   22.4990 C   0  0  0  0  0  0  0  0  0  0  0  0
  -22.5010   -4.6300   21.3820 F   0  0  0  0  0  0  0  0  0  0  0  0
  -21.1390   -4.4090   25.9550 F   0  0  0  0  0  0  0  0  0  0  0  0
  -23.3050  -13.8890   21.0010 C   0  0  0  0  0  0  0  0  0  0  0  0
  -22.5820  -13.2270   21.8970 N   0  0  0  0  0  0  0  0  0  0  0  0
  -22.8960  -14.9340   20.4970 O   0  0  0  0  0  0  0  0  0  0  0  0
  -22.9270  -12.3800   22.3240 H   0  0  0  0  0  0  0  0  0  0  0  0
  -21.6700  -13.5740   22.1630 H   0  0  0  0  0  0  0  0  0  0  0  0
  -25.9840  -15.4300   20.1000 N   0  0  0  0  0  0  0  0  0  0  0  0
  -25.2630  -16.1250   20.2560 H   0  0  0  0  0  0  0  0  0  0  0  0
  -26.8530  -15.8230   19.7620 H   0  0  0  0  0  0  0  0  0  0  0  0
  -28.9650  -22.4080   20.6300 C   0  0  0  0  0  2  0  0  0  0  0  0
  -29.0540  -23.8760   19.9740 C   0  0  0  0  0  3  0  0  0  0  0  0
  -28.2970  -25.0810   20.7090 C   0  0  0  0  0  3  0  0  0  0  0  0
  -28.4790  -26.4860   20.2560 O   0  0  0  0  0  0  0  0  0  0  0  0
  -24.6110  -31.8260   23.2140 C   0  0  0  0  0  0  0  0  0  0  0  0
  -27.3490  -27.3140   20.2190 C   0  0  0  0  0  0  0  0  0  0  0  0
  -23.4590  -30.4150   21.5430 C   0  0  0  0  0  3  0  0  0  0  0  0
  -24.9610  -28.8830   20.1500 C   0  0  0  0  0  0  0  0  0  0  0  0
  -25.9940  -30.7730   21.4110 C   0  0  0  0  0  2  0  0  0  0  0  0
  -26.1080  -29.3950   20.7690 C   0  0  0  0  0  0  0  0  0  0  0  0
  -27.3090  -28.6240   20.7900 C   0  0  0  0  0  3  0  0  0  0  0  0
  -26.1810  -26.8510   19.5760 C   0  0  0  0  0  3  0  0  0  0  0  0
  -24.9980  -27.6160   19.5440 C   0  0  0  0  0  3  0  0  0  0  0  0
  -23.7110  -29.7400   20.1690 C   0  0  0  0  0  2  0  0  0  0  0  0
  -24.7060  -31.0220   22.1140 N   0  0  0  0  0  0  0  0  0  0  0  0
  -23.5140  -32.0890   23.7270 O   0  0  0  0  0  0  0  0  0  0  0  0
  -22.7890  -29.3900   22.4900 C   0  0  0  0  0  0  0  0  0  0  0  0
  -21.4690  -29.1920   22.3310 N   0  0  0  0  0  0  0  0  0  0  0  0
  -23.4570  -28.7750   23.3260 O   0  0  0  0  0  0  0  0  0  0  0  0
  -20.9900  -29.7420   21.6320 H   0  0  0  0  0  0  0  0  0  0  0  0
  -18.1010  -27.9390   22.7410 C   0  0  0  0  0  0  0  0  0  0  0  0
  -20.6460  -28.2430   23.0810 C   0  0  0  0  0  3  0  0  0  0  0  0
  -20.7880  -26.8120   22.5130 C   0  0  0  0  0  2  0  0  0  0  0  0
  -19.7190  -26.4680   21.4700 C   0  0  0  0  0  2  0  0  0  0  0  0
  -18.3190  -26.5920   22.0750 C   0  0  0  0  0  2  0  0  0  0  0  0
  -19.1950  -28.7220   23.2000 C   0  0  0  0  0  0  0  0  0  0  0  0
  -18.9380  -29.9820   23.7810 C   0  0  0  0  0  3  0  0  0  0  0  0
  -17.6210  -30.4620   23.9110 C   0  0  0  0  0  3  0  0  0  0  0  0
  -16.5420  -29.6770   23.4690 C   0  0  0  0  0  3  0  0  0  0  0  0
  -16.7820  -28.4180   22.8900 C   0  0  0  0  0  3  0  0  0  0  0  0
  -25.8740  -32.4730   23.8630 C   0  0  0  0  0  3  0  0  0  0  0  0
  -25.5400  -33.8670   24.1910 N   0  0  0  0  0  0  0  0  0  0  0  0
  -25.8720  -34.9250   23.4410 C   0  0  0  0  0  0  0  0  0  0  0  0
  -26.5610  -34.8340   22.4210 O   0  0  0  0  0  0  0  0  0  0  0  0
  -24.9280  -34.0110   24.9810 H   0  0  0  0  0  0  0  0  0  0  0  0
  -24.1250  -36.6970   23.0650 C   0  0  0  0  0  1  0  0  0  0  0  0
  -25.3610  -36.3080   23.8930 C   0  0  0  0  0  3  0  0  0  0  0  0
  -27.4670  -37.2260   24.7610 C   0  0  0  0  0  1  0  0  0  0  0  0
  -26.3800  -37.3740   23.7950 N   0  0  0  0  0  0  0  0  0  0  0  0
  -25.9600  -38.2890   23.9300 H   0  0  0  0  0  0  0  0  0  0  0  0
  -26.3730  -31.7040   25.1490 C   0  0  1  0  0  0  0  0  0  0  0  0
  -25.2600  -31.4450   26.1900 C   0  0  0  0  0  1  0  0  0  0  0  0
  -26.9870  -30.3370   24.7670 C   0  0  0  0  0  1  0  0  0  0  0  0
  -27.4940  -32.5140   25.8410 C   0  0  0  0  0  1  0  0  0  0  0  0
  1 47  1  0
  2  1  1  0
  3  1  1  0
  5  4  1  0
  6  7  1  0
  6  8  1  0
  7 10  1  0
  7  4  1  0
  8  1  1  0
  8  5  1  0
  9 10  2  0
 10 11  1  0
 11 17  1  0
 12 17  1  0
 13 14  1  0
 13 12  1  0
 15 14  1  0
 15 22  1  0
 15 16  1  0
 17 16  1  0
 18 11  2  0
 19 20  2  0
 20 39  1  0
 21 20  1  0
 21 24  1  0
 22 23  1  0
 22 19  1  0
 23 21  2  0
 24 25  1  0
 25 26  2  0
 27 30  1  0
 27 26  1  0
 28 27  2  0
 29 28  1  0
 29 24  2  0
 30 31  1  0
 31 36  2  0
 31 32  1  0
 32 33  2  0
 33 34  1  0
 34 38  1  0
 35 34  2  0
 36 35  1  0
 37 36  1  0
 39 40  1  0
 40 43  1  0
 40 42  1  0
 41 39  2  0
 44 45  1  0
 44 19  1  0
 46 44  1  0
 48 47  1  0
 48 49  2  0
 50 49  1  0
 51 62  2  0
 52 50  1  0
 52 57  1  0
 53 61  1  0
 53 63  1  0
 54 60  1  0
 54 56  1  0
 55 61  1  0
 56 57  2  0
 56 55  1  0
 58 52  2  0
 59 58  1  0
 59 54  2  0
 60 53  1  0
 61 51  1  0
 63 65  2  0
 64 63  1  0
 66 64  1  0
 67 76  2  0
 67 72  1  0
 68 64  1  0
 68 72  1  0
 69 68  1  0
 70 71  1  0
 70 69  1  0
 71 67  1  0
 72 73  2  0
 73 74  1  0
 75 74  2  0
 76 75  1  0
 77 51  1  0
 77 78  1  0
 77 87  1  0
 78 81  1  0
 79 83  1  0
 79 78  1  0
 80 79  2  0
 83 82  1  0
 85 83  1  0
 85 86  1  0
 85 84  1  0
 87 90  1  1
 87 88  1  0
 89 87  1  0
M  ISO  4  10 100  11 100  49 101  50 101
M  END
>  <TORSDO>  (40) 
F 21

>  <SCORE>  (40) 
-12.372

>  <name>  (40) 
40

>  <ligand_id>  (40) 
40

>  <original_smiles>  (40) 
[H]C([H])=C(C(=O)N1C([H])([H])C([H])([H])C([H])([H])C([H])(n2nc(-c3c([H])c([H])c(Oc4c([H])c([H])c(F)c([H])c4F)c([H])c3[H])c(C(=O)N([H])[H])c2N([H])[H])C1([H])[H])C1([H])C([H])([H])C([H])([H])C([H])([N+]([H])([H])C([H])([H])C([H])([H])C([H])([H])Oc2c([H])c([H])c3c(c2[H])C([H])([H])N(C(=O)C([H])(N([H])C(=O)C([H])(N([H])C([H])([H])[H])C([H])([H])[H])C(C([H])([H])[H])(C([H])([H])[H])C([H])([H])[H])C([H])(C(=O)N([H])C2([H])c4c([H])c([H])c([H])c([H])c4C([H])([H])C([H])([H])C2([H])[H])C3([H])[H])C1([H])[H]

>  <smiles>  (40) 
[H]C([H])=C(C(=O)N1C([H])([H])C([H])([H])C([H])([H])C([H])(n2nc(-c3c([H])c([H])c(Oc4c([H])c([H])c(F)c([H])c4F)c([H])c3[H])c(C(=O)N([H])[H])c2N([H])[H])C1([H])[H])C1([H])C([H])([H])C([H])([H])C([H])([N+]([H])([H])C([H])([H])C([H])([H])C([H])([H])Oc2c([H])c([H])c3c(c2[H])C([H])([H])N(C(=O)C([H])(N([H])C(=O)C([H])(N([H])C([H])([H])[H])C([H])([H])[H])C(C([H])([H])[H])(C([H])([H])[H])C([H])([H])[H])C([H])(C(=O)N([H])C2([H])c4c([H])c([H])c([H])c([H])c4C([H])([H])C([H])([H])C2([H])[H])C3([H])[H])C1([H])[H]

$$$$
41:0:0
     RDKit          3D

 89 96  0  0  1  0  0  0  0  0999 V2000
  -28.9350  -20.5580   20.4420 C   0  0  0  0  0  0  0  0  0  0  0  0
  -27.7320  -20.1470   20.8580 N   0  0  0  0  0  4  0  0  0  0  0  0
  -29.0910  -21.9740   20.2390 N   0  0  0  0  0  0  0  0  0  0  0  0
  -27.5610  -19.1760   21.0580 H   0  0  0  0  0  0  0  0  0  0  0  0
  -26.9880  -20.8040   21.0260 H   0  0  0  0  0  0  0  0  0  0  0  0
  -29.9810  -22.2100   19.8230 H   0  0  0  0  0  0  0  0  0  0  0  0
  -30.0320  -19.5290   20.3080 C   0  0  0  0  0  3  0  0  0  0  0  0
  -30.4000  -18.1300   20.2810 C   0  0  0  0  0  0  0  0  0  0  0  0
  -31.9140  -17.9730   20.1110 C   0  0  0  0  0  1  0  0  0  0  0  0
  -29.7280  -16.5960   20.3910 C   0  0  0  0  0  2  0  0  0  0  0  0
  -30.5000  -15.0900   20.1720 C   0  0  0  0  0  0  0  0  0  0  0  0
  -30.3860  -12.7200   19.2440 C   0  0  0  0  0  2  0  0  0  0  0  0
  -29.4560  -12.6910   18.0100 C   0  0  0  0  0  2  0  0  0  0  0  0
  -27.9920  -12.4730   18.4410 C   0  0  0  0  0  2  0  0  0  0  0  0
  -27.5870  -13.3720   19.6410 C   0  0  0  0  0  3  0  0  0  0  0  0
  -28.6510  -13.3920   20.7540 C   0  0  0  0  0  2  0  0  0  0  0  0
  -29.9170  -13.8160   20.1480 N   0  0  0  0  0  0  0  0  0  0  0  0
  -31.6990  -15.0790   19.8730 O   0  0  0  0  0  0  0  0  0  0  0  0
  -25.2230  -13.9150   20.4410 C   0  0  0  0  0  0  0  0  0  0  0  0
  -24.1740  -13.1290   20.8280 C   0  0  0  0  0  0  0  0  0  0  0  0
  -24.6500  -11.7840   20.7800 C   0  0  0  0  0  0  0  0  0  0  0  0
  -26.2650  -13.0490   20.1660 N   0  0  0  0  0  0  0  0  0  0  0  0
  -25.9340  -11.7610   20.4410 N   0  0  0  0  0  0  0  0  0  0  0  0
  -23.9370  -10.5140   20.9800 C   0  0  0  0  0  0  0  0  0  0  0  0
  -24.3800   -9.5570   21.9180 C   0  0  0  0  0  3  0  0  0  0  0  0
  -23.6660   -8.3550   22.1080 C   0  0  0  0  0  3  0  0  0  0  0  0
  -22.4930   -8.1000   21.3580 C   0  0  0  0  0  0  0  0  0  0  0  0
  -22.0670   -9.0470   20.4130 C   0  0  0  0  0  3  0  0  0  0  0  0
  -22.7810  -10.2410   20.2220 C   0  0  0  0  0  3  0  0  0  0  0  0
  -21.7480   -6.9480   21.4590 O   0  0  0  0  0  0  0  0  0  0  0  0
  -21.7020   -6.2190   22.6190 C   0  0  0  0  0  0  0  0  0  0  0  0
  -21.2530   -6.7790   23.8340 C   0  0  0  0  0  3  0  0  0  0  0  0
  -21.1500   -5.9710   24.9850 C   0  0  0  0  0  3  0  0  0  0  0  0
  -21.4880   -4.6060   24.9220 C   0  0  0  0  0  0  0  0  0  0  0  0
  -21.9330   -4.0470   23.7110 C   0  0  0  0  0  3  0  0  0  0  0  0
  -22.0360   -4.8510   22.5620 C   0  0  0  0  0  0  0  0  0  0  0  0
  -22.4420   -4.3000   21.3920 F   0  0  0  0  0  0  0  0  0  0  0  0
  -21.3850   -3.8300   26.0250 F   0  0  0  0  0  0  0  0  0  0  0  0
  -22.7780  -13.5940   21.1210 C   0  0  0  0  0  0  0  0  0  0  0  0
  -22.0660  -12.8930   21.9990 N   0  0  0  0  0  0  0  0  0  0  0  0
  -22.3290  -14.6170   20.6100 O   0  0  0  0  0  0  0  0  0  0  0  0
  -22.4440  -12.0710   22.4450 H   0  0  0  0  0  0  0  0  0  0  0  0
  -21.1270  -13.1900   22.2270 H   0  0  0  0  0  0  0  0  0  0  0  0
  -25.3650  -15.2880   20.2720 N   0  0  0  0  0  0  0  0  0  0  0  0
  -24.5780  -15.9160   20.3950 H   0  0  0  0  0  0  0  0  0  0  0  0
  -26.1930  -15.7550   19.9250 H   0  0  0  0  0  0  0  0  0  0  0  0
  -28.2480  -23.2870   20.5950 C   0  0  0  0  0  2  0  0  0  0  0  0
  -28.4860  -24.8020   19.8710 C   0  0  0  0  0  2  0  0  0  0  0  0
  -28.3540  -26.2640   20.4070 O   0  0  0  0  0  0  0  0  0  0  0  0
  -24.6230  -31.8970   23.2310 C   0  0  0  0  0  0  0  0  0  0  0  0
  -27.2700  -27.2000   20.2650 C   0  0  0  0  0  0  0  0  0  0  0  0
  -23.4470  -30.4890   21.5760 C   0  0  0  0  0  3  0  0  0  0  0  0
  -24.9220  -28.9120   20.1780 C   0  0  0  0  0  0  0  0  0  0  0  0
  -25.9960  -30.7790   21.4410 C   0  0  0  0  0  2  0  0  0  0  0  0
  -26.0840  -29.3810   20.8010 C   0  0  0  0  0  0  0  0  0  0  0  0
  -27.2520  -28.5360   20.8390 C   0  0  0  0  0  3  0  0  0  0  0  0
  -26.0840  -26.8250   19.5980 C   0  0  0  0  0  3  0  0  0  0  0  0
  -24.9320  -27.6450   19.5680 C   0  0  0  0  0  3  0  0  0  0  0  0
  -23.6840  -29.7940   20.2040 C   0  0  0  0  0  2  0  0  0  0  0  0
  -24.7060  -31.0790   22.1350 N   0  0  0  0  0  0  0  0  0  0  0  0
  -23.5300  -32.1760   23.7480 O   0  0  0  0  0  0  0  0  0  0  0  0
  -22.7640  -29.4870   22.5390 C   0  0  0  0  0  0  0  0  0  0  0  0
  -21.4380  -29.3180   22.4130 N   0  0  0  0  0  0  0  0  0  0  0  0
  -23.4350  -28.8610   23.3640 O   0  0  0  0  0  0  0  0  0  0  0  0
  -20.9490  -29.8800   21.7310 H   0  0  0  0  0  0  0  0  0  0  0  0
  -18.0580  -28.1250   22.9270 C   0  0  0  0  0  0  0  0  0  0  0  0
  -20.6190  -28.3770   23.1810 C   0  0  0  0  0  3  0  0  0  0  0  0
  -20.7100  -26.9480   22.5990 C   0  0  0  0  0  2  0  0  0  0  0  0
  -19.6030  -26.6340   21.5870 C   0  0  0  0  0  2  0  0  0  0  0  0
  -18.2260  -26.7790   22.2390 C   0  0  0  0  0  2  0  0  0  0  0  0
  -19.1800  -28.8800   23.3560 C   0  0  0  0  0  0  0  0  0  0  0  0
  -18.9690  -30.1370   23.9620 C   0  0  0  0  0  3  0  0  0  0  0  0
  -17.6650  -30.6410   24.1380 C   0  0  0  0  0  3  0  0  0  0  0  0
  -16.5580  -29.8830   23.7220 C   0  0  0  0  0  3  0  0  0  0  0  0
  -16.7540  -28.6260   23.1240 C   0  0  0  0  0  3  0  0  0  0  0  0
  -25.8930  -32.5380   23.8690 C   0  0  0  0  0  3  0  0  0  0  0  0
  -26.3940  -31.7800   25.1610 C   0  0  1  0  0  0  0  0  0  0  0  0
  -25.2870  -31.5550   26.2170 C   0  0  0  0  0  1  0  0  0  0  0  0
  -26.9890  -30.3990   24.8010 C   0  0  0  0  0  1  0  0  0  0  0  0
  -27.5360  -32.5800   25.8290 C   0  0  0  0  0  1  0  0  0  0  0  0
  -25.5760  -33.9400   24.1910 N   0  0  0  0  0  0  0  0  0  0  0  0
  -25.9130  -34.9920   23.4350 C   0  0  0  0  0  0  0  0  0  0  0  0
  -26.5910  -34.8850   22.4090 O   0  0  0  0  0  0  0  0  0  0  0  0
  -24.9770  -34.0970   24.9880 H   0  0  0  0  0  0  0  0  0  0  0  0
  -24.1900  -36.7870   23.0620 C   0  0  0  0  0  1  0  0  0  0  0  0
  -25.4230  -36.3840   23.8860 C   0  0  0  0  0  3  0  0  0  0  0  0
  -27.5480  -37.2740   24.7370 C   0  0  0  0  0  1  0  0  0  0  0  0
  -26.4570  -37.4340   23.7780 N   0  0  0  0  0  0  0  0  0  0  0  0
  -26.0500  -38.3560   23.9070 H   0  0  0  0  0  0  0  0  0  0  0  0
  1  2  2  0
  2  5  1  0
  2  4  1  0
  3  1  1  0
  3 47  1  0
  6  3  1  0
  7  1  1  0
  8  7  2  0
  8 10  1  0
  9  8  1  0
 11 10  1  0
 12 17  1  0
 13 14  1  0
 13 12  1  0
 15 14  1  0
 15 22  1  0
 15 16  1  0
 17 11  1  0
 17 16  1  0
 18 11  2  0
 19 20  2  0
 20 39  1  0
 21 20  1  0
 21 24  1  0
 22 19  1  0
 22 23  1  0
 23 21  2  0
 24 25  1  0
 25 26  2  0
 27 30  1  0
 27 26  1  0
 28 27  2  0
 29 28  1  0
 29 24  2  0
 30 31  1  0
 31 32  1  0
 32 33  2  0
 34 33  1  0
 34 38  1  0
 35 34  2  0
 36 31  2  0
 36 35  1  0
 37 36  1  0
 39 40  1  0
 40 43  1  0
 40 42  1  0
 41 39  2  0
 44 45  1  0
 44 19  1  0
 46 44  1  0
 48 49  1  0
 48 47  1  0
 50 61  2  0
 51 49  1  0
 51 56  1  0
 52 60  1  0
 52 62  1  0
 53 59  1  0
 53 55  1  0
 54 60  1  0
 55 56  2  0
 55 54  1  0
 57 51  2  0
 58 57  1  0
 58 53  2  0
 59 52  1  0
 60 50  1  0
 62 64  2  0
 63 62  1  0
 65 63  1  0
 66 75  2  0
 66 71  1  0
 67 63  1  0
 67 71  1  0
 68 67  1  0
 69 70  1  0
 69 68  1  0
 70 66  1  0
 71 72  2  0
 72 73  1  0
 74 73  2  0
 75 74  1  0
 76 50  1  0
 76 81  1  0
 76 77  1  0
 77 80  1  1
 77 78  1  0
 79 77  1  0
 81 84  1  0
 82 86  1  0
 82 81  1  0
 83 82  2  0
 86 85  1  0
 88 86  1  0
 88 89  1  0
 88 87  1  0
M  ISO  4  10 100  11 100  48 101  49 101
M  END
>  <TORSDO>  (41) 
F 20

>  <SCORE>  (41) 
-15.250

>  <name>  (41) 
41

>  <ligand_id>  (41) 
41

>  <original_smiles>  (41) 
[H]C(=C(C([H])([H])[H])C([H])([H])C(=O)N1C([H])([H])C([H])([H])C([H])([H])C([H])(n2nc(-c3c([H])c([H])c(Oc4c([H])c([H])c(F)c([H])c4F)c([H])c3[H])c(C(=O)N([H])[H])c2N([H])[H])C1([H])[H])C(N([H])[H])=[N+]([H])C([H])([H])C([H])([H])Oc1c([H])c([H])c2c(c1[H])C([H])([H])N(C(=O)C([H])(N([H])C(=O)C([H])(N([H])C([H])([H])[H])C([H])([H])[H])C(C([H])([H])[H])(C([H])([H])[H])C([H])([H])[H])C([H])(C(=O)N([H])C1([H])c3c([H])c([H])c([H])c([H])c3C([H])([H])C([H])([H])C1([H])[H])C2([H])[H]

>  <smiles>  (41) 
[H]C(=C(C([H])([H])[H])C([H])([H])C(=O)N1C([H])([H])C([H])([H])C([H])([H])C([H])(n2nc(-c3c([H])c([H])c(Oc4c([H])c([H])c(F)c([H])c4F)c([H])c3[H])c(C(=O)N([H])[H])c2N([H])[H])C1([H])[H])C(N([H])[H])=[N+]([H])C([H])([H])C([H])([H])Oc1c([H])c([H])c2c(c1[H])C([H])([H])N(C(=O)C([H])(N([H])C(=O)C([H])(N([H])C([H])([H])[H])C([H])([H])[H])C(C([H])([H])[H])(C([H])([H])[H])C([H])([H])[H])C([H])(C(=O)N([H])C1([H])c3c([H])c([H])c([H])c([H])c3C([H])([H])C([H])([H])C1([H])[H])C2([H])[H]

$$$$
42:0:0
     RDKit          3D

 83 89  0  0  1  0  0  0  0  0999 V2000
  -30.0590  -16.3750   20.2730 C   0  0  0  0  0  0  0  0  0  0  0  0
  -30.3100  -13.6790   19.4880 C   0  0  0  0  0  2  0  0  0  0  0  0
  -29.5340  -12.9300   18.3430 C   0  0  0  0  0  2  0  0  0  0  0  0
  -28.1760  -12.4150   18.8230 C   0  0  0  0  0  2  0  0  0  0  0  0
  -27.5440  -13.4530   19.7640 C   0  0  0  0  0  3  0  0  0  0  0  0
  -28.5020  -14.0770   20.8330 C   0  0  0  0  0  2  0  0  0  0  0  0
  -29.5470  -14.9180   20.1280 N   0  0  0  0  0  0  0  0  0  0  0  0
  -31.2960  -16.1070   20.2320 O   0  0  0  0  0  0  0  0  0  0  0  0
  -28.6850  -21.4680   20.2840 C   0  0  0  0  0  3  0  0  0  0  0  0
  -30.1830  -20.9140   20.2990 C   0  0  0  0  0  3  0  0  0  0  0  0
  -28.4310  -19.4860   20.3070 C   0  0  0  0  0  1  0  0  0  0  0  0
  -30.5430  -19.2360   20.0960 C   0  0  0  0  0  2  0  0  0  0  0  0
  -27.9510  -22.9390   20.2860 N   0  0  0  0  0  1  0  0  0  0  0  0
  -29.5610  -18.0350   20.2510 N   0  0  0  0  0  0  0  0  0  0  0  0
  -25.1710  -13.8920   20.4960 C   0  0  0  0  0  0  0  0  0  0  0  0
  -24.1240  -13.0910   20.8420 C   0  0  0  0  0  0  0  0  0  0  0  0
  -24.6250  -11.7510   20.8280 C   0  0  0  0  0  0  0  0  0  0  0  0
  -26.2420  -13.0520   20.2840 N   0  0  0  0  0  0  0  0  0  0  0  0
  -25.9290  -11.7510   20.5420 N   0  0  0  0  0  0  0  0  0  0  0  0
  -23.9120  -10.4760   21.0100 C   0  0  0  0  0  0  0  0  0  0  0  0
  -24.3260   -9.5250   21.9700 C   0  0  0  0  0  3  0  0  0  0  0  0
  -23.6050   -8.3240   22.1460 C   0  0  0  0  0  3  0  0  0  0  0  0
  -22.4550   -8.0630   21.3630 C   0  0  0  0  0  0  0  0  0  0  0  0
  -22.0600   -9.0010   20.3950 C   0  0  0  0  0  3  0  0  0  0  0  0
  -22.7820  -10.1950   20.2170 C   0  0  0  0  0  3  0  0  0  0  0  0
  -21.7100   -6.9110   21.4460 O   0  0  0  0  0  0  0  0  0  0  0  0
  -21.6240   -6.1890   22.6110 C   0  0  0  0  0  0  0  0  0  0  0  0
  -21.1350   -6.7590   23.8060 C   0  0  0  0  0  3  0  0  0  0  0  0
  -21.0000   -5.9640   24.9620 C   0  0  0  0  0  3  0  0  0  0  0  0
  -21.3420   -4.5990   24.9220 C   0  0  0  0  0  0  0  0  0  0  0  0
  -21.8230   -4.0290   23.7310 C   0  0  0  0  0  3  0  0  0  0  0  0
  -21.9610   -4.8210   22.5790 C   0  0  0  0  0  0  0  0  0  0  0  0
  -22.4050   -4.2600   21.4270 F   0  0  0  0  0  0  0  0  0  0  0  0
  -21.2050   -3.8330   26.0300 F   0  0  0  0  0  0  0  0  0  0  0  0
  -22.7120  -13.5420   21.0680 C   0  0  0  0  0  0  0  0  0  0  0  0
  -21.9780  -12.8520   21.9310 N   0  0  0  0  0  0  0  0  0  0  0  0
  -22.2710  -14.5500   20.5160 O   0  0  0  0  0  0  0  0  0  0  0  0
  -22.3500  -12.0390   22.4000 H   0  0  0  0  0  0  0  0  0  0  0  0
  -21.0300  -13.1390   22.1260 H   0  0  0  0  0  0  0  0  0  0  0  0
  -25.3010  -15.2660   20.3060 N   0  0  0  0  0  0  0  0  0  0  0  0
  -24.5140  -15.9000   20.3920 H   0  0  0  0  0  0  0  0  0  0  0  0
  -26.1470  -15.7230   19.9930 H   0  0  0  0  0  0  0  0  0  0  0  0
  -28.1440  -24.9030   20.2940 O   0  0  0  0  0  1  0  0  0  0  0  0
  -24.6750  -31.8080   23.1470 C   0  0  0  0  0  0  0  0  0  0  0  0
  -27.1880  -26.2990   20.2910 C   0  0  0  0  0  0  0  0  0  0  0  0
  -23.5170  -30.3840   21.5190 C   0  0  0  0  0  3  0  0  0  0  0  0
  -24.9740  -28.6230   20.1710 C   0  0  0  0  0  0  0  0  0  0  0  0
  -26.1110  -30.3830   21.4820 C   0  0  0  0  0  2  0  0  0  0  0  0
  -26.1680  -28.8930   20.8470 C   0  0  0  0  0  0  0  0  0  0  0  0
  -27.2330  -27.7730   20.8660 C   0  0  0  0  0  3  0  0  0  0  0  0
  -25.9630  -26.3620   19.5390 C   0  0  0  0  0  3  0  0  0  0  0  0
  -24.9380  -27.3870   19.4920 C   0  0  0  0  0  3  0  0  0  0  0  0
  -23.7920  -29.6340   20.1750 C   0  0  0  0  0  2  0  0  0  0  0  0
  -24.7970  -30.9030   22.1000 N   0  0  0  0  0  0  0  0  0  0  0  0
  -23.5680  -32.1360   23.6170 O   0  0  0  0  0  0  0  0  0  0  0  0
  -22.7440  -29.4610   22.5030 C   0  0  0  0  0  0  0  0  0  0  0  0
  -21.4060  -29.3430   22.3740 N   0  0  0  0  0  0  0  0  0  0  0  0
  -23.3700  -28.8400   23.3660 O   0  0  0  0  0  0  0  0  0  0  0  0
  -20.9450  -29.8940   21.6630 H   0  0  0  0  0  0  0  0  0  0  0  0
  -17.9900  -28.1970   22.9140 C   0  0  0  0  0  0  0  0  0  0  0  0
  -20.5580  -28.4260   23.1510 C   0  0  0  0  0  3  0  0  0  0  0  0
  -20.6260  -26.9910   22.5780 C   0  0  0  0  0  2  0  0  0  0  0  0
  -19.5130  -26.6920   21.5680 C   0  0  0  0  0  2  0  0  0  0  0  0
  -18.1400  -26.8520   22.2230 C   0  0  0  0  0  2  0  0  0  0  0  0
  -19.1230  -28.9440   23.3340 C   0  0  0  0  0  0  0  0  0  0  0  0
  -18.9230  -30.1990   23.9500 C   0  0  0  0  0  3  0  0  0  0  0  0
  -17.6240  -30.7080   24.1430 C   0  0  0  0  0  3  0  0  0  0  0  0
  -16.5070  -29.9610   23.7320 C   0  0  0  0  0  3  0  0  0  0  0  0
  -16.6900  -28.7060   23.1240 C   0  0  0  0  0  3  0  0  0  0  0  0
  -25.9120  -32.4840   23.8130 C   0  0  0  0  0  3  0  0  0  0  0  0
  -25.5670  -33.8870   24.1460 N   0  0  0  0  0  0  0  0  0  0  0  0
  -25.9070  -34.9690   23.4310 C   0  0  0  0  0  0  0  0  0  0  0  0
  -26.5890  -34.8920   22.4070 O   0  0  0  0  0  0  0  0  0  0  0  0
  -24.9580  -34.0180   24.9410 H   0  0  0  0  0  0  0  0  0  0  0  0
  -24.1780  -36.7840   23.1250 C   0  0  0  0  0  1  0  0  0  0  0  0
  -25.4220  -36.3530   23.9210 C   0  0  0  0  0  3  0  0  0  0  0  0
  -27.5500  -37.2420   24.7710 C   0  0  0  0  0  1  0  0  0  0  0  0
  -26.4530  -37.4120   23.8230 N   0  0  0  0  0  0  0  0  0  0  0  0
  -26.0430  -38.3290   23.9720 H   0  0  0  0  0  0  0  0  0  0  0  0
  -26.3880  -31.7430   25.1240 C   0  0  1  0  0  0  0  0  0  0  0  0
  -25.2630  -31.5280   26.1660 C   0  0  0  0  0  1  0  0  0  0  0  0
  -26.9830  -30.3560   24.7990 C   0  0  0  0  0  1  0  0  0  0  0  0
  -27.5190  -32.5510   25.8040 C   0  0  0  0  0  1  0  0  0  0  0  0
  2  7  1  0
  3  4  1  0
  3  2  1  0
  5  4  1  0
  5 18  1  0
  5  6  1  0
  7  1  1  0
  7  6  1  0
  8  1  2  0
  9 13  1  0
  9 10  2  0
 12 14  1  0
 12 10  1  0
 14  1  1  0
 14 11  1  0
 15 16  2  0
 16 35  1  0
 17 16  1  0
 17 20  1  0
 18 15  1  0
 18 19  1  0
 19 17  2  0
 20 21  1  0
 21 22  2  0
 23 26  1  0
 23 22  1  0
 24 23  2  0
 25 24  1  0
 25 20  2  0
 26 27  1  0
 27 28  1  0
 28 29  2  0
 30 29  1  0
 30 34  1  0
 31 30  2  0
 32 27  2  0
 32 31  1  0
 33 32  1  0
 35 36  1  0
 36 39  1  0
 36 38  1  0
 37 35  2  0
 40 41  1  0
 40 15  1  0
 42 40  1  0
 44 55  2  0
 45 43  1  0
 45 50  1  0
 46 54  1  0
 46 56  1  0
 47 53  1  0
 47 49  1  0
 48 54  1  0
 49 50  2  0
 49 48  1  0
 51 45  2  0
 52 51  1  0
 52 47  2  0
 53 46  1  0
 54 44  1  0
 56 58  2  0
 57 56  1  0
 59 57  1  0
 60 69  2  0
 60 65  1  0
 61 57  1  0
 61 65  1  0
 62 61  1  0
 63 64  1  0
 63 62  1  0
 64 60  1  0
 65 66  2  0
 66 67  1  0
 68 67  2  0
 69 68  1  0
 70 44  1  0
 70 71  1  0
 70 80  1  0
 71 74  1  0
 72 76  1  0
 72 71  1  0
 73 72  2  0
 76 75  1  0
 78 76  1  0
 78 79  1  0
 78 77  1  0
 80 83  1  1
 80 81  1  0
 82 80  1  0
M  ISO  4   1 100  13 101  14 100  43 101
M  END
>  <TORSDO>  (42) 
F 15

>  <SCORE>  (42) 
-16.437

>  <name>  (42) 
42

>  <ligand_id>  (42) 
42

>  <original_smiles>  (42) 
[H]c1c([H])c([H])c2c(c1[H])C([H])([H])C([H])([H])C([H])([H])C2([H])N([H])C(=O)C1([H])N(C(=O)C([H])(N([H])C(=O)C([H])(N([H])C([H])([H])[H])C([H])([H])[H])C(C([H])([H])[H])(C([H])([H])[H])C([H])([H])[H])C([H])([H])c2c([H])c(ON=C3C([H])([H])N(C(=O)N4C([H])([H])C([H])([H])C([H])([H])C([H])(n5nc(-c6c([H])c([H])c(Oc7c([H])c([H])c(F)c([H])c7F)c([H])c6[H])c(C(=O)N([H])[H])c5N([H])[H])C4([H])[H])C([H])([H])C3([H])[H])c([H])c([H])c2C1([H])[H]

>  <smiles>  (42) 
[H]c1c([H])c([H])c2c(c1[H])C([H])([H])C([H])([H])C([H])([H])C2([H])N([H])C(=O)C1([H])N(C(=O)C([H])(N([H])C(=O)C([H])(N([H])C([H])([H])[H])C([H])([H])[H])C(C([H])([H])[H])(C([H])([H])[H])C([H])([H])[H])C([H])([H])c2c([H])c(ON=C3C([H])([H])N(C(=O)N4C([H])([H])C([H])([H])C([H])([H])C([H])(n5nc(-c6c([H])c([H])c(Oc7c([H])c([H])c(F)c([H])c7F)c([H])c6[H])c(C(=O)N([H])[H])c5N([H])[H])C4([H])[H])C([H])([H])C3([H])[H])c([H])c([H])c2C1([H])[H]

$$$$
43:0:0
     RDKit          3D

 85 93  0  0  1  0  0  0  0  0999 V2000
  -29.0360  -21.2170   20.0910 C   0  0  0  0  0  0  0  0  0  0  0  0
  -28.9070  -22.7150   19.9540 C   0  0  0  0  0  3  0  0  0  0  0  0
  -29.8710  -20.0680   19.2790 C   0  0  0  0  0  2  0  0  0  0  0  0
  -28.4160  -19.9120   20.8280 C   0  0  0  0  0  2  0  0  0  0  0  0
  -29.6250  -18.8290   20.3620 C   0  0  2  0  0  0  0  0  0  0  0  0
  -30.7440  -18.7760   21.4020 C   0  0  0  0  0  1  0  0  0  0  0  0
  -27.9920  -24.1600   20.4370 C   0  0  0  0  0  2  0  0  0  0  0  0
  -28.2490  -25.8170   20.2660 O   0  0  0  0  0  0  0  0  0  0  0  0
  -24.6390  -31.8720   23.2130 C   0  0  0  0  0  0  0  0  0  0  0  0
  -27.2360  -26.9400   20.2390 C   0  0  0  0  0  0  0  0  0  0  0  0
  -23.4660  -30.4630   21.5720 C   0  0  0  0  0  3  0  0  0  0  0  0
  -24.9330  -28.8520   20.1680 C   0  0  0  0  0  0  0  0  0  0  0  0
  -26.0370  -30.6720   21.4470 C   0  0  0  0  0  2  0  0  0  0  0  0
  -26.1190  -29.2530   20.7960 C   0  0  0  0  0  0  0  0  0  0  0  0
  -27.2640  -28.3220   20.8000 C   0  0  0  0  0  3  0  0  0  0  0  0
  -26.0170  -26.7080   19.5620 C   0  0  0  0  0  3  0  0  0  0  0  0
  -24.9110  -27.6020   19.5300 C   0  0  0  0  0  3  0  0  0  0  0  0
  -23.7120  -29.7730   20.2010 C   0  0  0  0  0  2  0  0  0  0  0  0
  -24.7360  -31.0310   22.1300 N   0  0  0  0  0  0  0  0  0  0  0  0
  -23.5430  -32.1580   23.7230 O   0  0  0  0  0  0  0  0  0  0  0  0
  -22.7660  -29.4710   22.5370 C   0  0  0  0  0  0  0  0  0  0  0  0
  -21.4360  -29.3000   22.4040 N   0  0  0  0  0  0  0  0  0  0  0  0
  -23.4260  -28.8540   23.3750 O   0  0  0  0  0  0  0  0  0  0  0  0
  -20.9550  -29.8490   21.7050 H   0  0  0  0  0  0  0  0  0  0  0  0
  -18.0550  -28.0780   22.9060 C   0  0  0  0  0  0  0  0  0  0  0  0
  -20.6140  -28.3590   23.1730 C   0  0  0  0  0  3  0  0  0  0  0  0
  -20.7230  -26.9270   22.5990 C   0  0  0  0  0  2  0  0  0  0  0  0
  -19.6230  -26.5990   21.5820 C   0  0  0  0  0  2  0  0  0  0  0  0
  -18.2410  -26.7330   22.2250 C   0  0  0  0  0  2  0  0  0  0  0  0
  -19.1690  -28.8490   23.3370 C   0  0  0  0  0  0  0  0  0  0  0  0
  -18.9380  -30.1050   23.9390 C   0  0  0  0  0  3  0  0  0  0  0  0
  -17.6290  -30.5930   24.1110 C   0  0  0  0  0  3  0  0  0  0  0  0
  -16.5310  -29.8200   23.6940 C   0  0  0  0  0  3  0  0  0  0  0  0
  -16.7450  -28.5640   23.0980 C   0  0  0  0  0  3  0  0  0  0  0  0
  -25.9000  -32.5260   23.8550 C   0  0  0  0  0  3  0  0  0  0  0  0
  -25.5700  -33.9260   24.1800 N   0  0  0  0  0  0  0  0  0  0  0  0
  -25.8940  -34.9880   23.4300 C   0  0  0  0  0  0  0  0  0  0  0  0
  -26.5630  -34.8930   22.3980 O   0  0  0  0  0  0  0  0  0  0  0  0
  -24.9730  -34.0720   24.9810 H   0  0  0  0  0  0  0  0  0  0  0  0
  -24.1540  -36.7790   23.0940 C   0  0  0  0  0  1  0  0  0  0  0  0
  -25.4020  -36.3740   23.8950 C   0  0  0  0  0  3  0  0  0  0  0  0
  -27.5330  -37.2780   24.7220 C   0  0  0  0  0  1  0  0  0  0  0  0
  -26.4280  -37.4350   23.7780 N   0  0  0  0  0  0  0  0  0  0  0  0
  -26.0160  -38.3530   23.9230 H   0  0  0  0  0  0  0  0  0  0  0  0
  -26.3950  -31.7730   25.1520 C   0  0  1  0  0  0  0  0  0  0  0  0
  -25.2840  -31.5440   26.2040 C   0  0  0  0  0  1  0  0  0  0  0  0
  -26.9910  -30.3920   24.7960 C   0  0  0  0  0  1  0  0  0  0  0  0
  -27.5310  -32.5810   25.8230 C   0  0  0  0  0  1  0  0  0  0  0  0
  -29.3970  -17.0030   20.0730 C   0  0  0  0  0  2  0  0  0  0  0  0
  -30.3130  -15.4550   19.9790 C   0  0  0  0  0  0  0  0  0  0  0  0
  -30.3410  -12.9680   19.1370 C   0  0  0  0  0  2  0  0  0  0  0  0
  -29.3720  -12.7260   17.9470 C   0  0  0  0  0  2  0  0  0  0  0  0
  -27.9450  -12.4320   18.4450 C   0  0  0  0  0  2  0  0  0  0  0  0
  -27.5270  -13.3970   19.5790 C   0  0  0  0  0  3  0  0  0  0  0  0
  -28.6170  -13.5700   20.6550 C   0  0  0  0  0  2  0  0  0  0  0  0
  -29.8160  -14.1070   19.9870 N   0  0  0  0  0  0  0  0  0  0  0  0
  -31.5270  -15.4640   19.7110 O   0  0  0  0  0  0  0  0  0  0  0  0
  -25.2030  -13.9450   20.4670 C   0  0  0  0  0  0  0  0  0  0  0  0
  -24.1550  -13.1650   20.8710 C   0  0  0  0  0  0  0  0  0  0  0  0
  -24.6140  -11.8140   20.7900 C   0  0  0  0  0  0  0  0  0  0  0  0
  -26.2260  -13.0700   20.1500 N   0  0  0  0  0  0  0  0  0  0  0  0
  -25.8880  -11.7800   20.4130 N   0  0  0  0  0  0  0  0  0  0  0  0
  -23.8880  -10.5510   20.9900 C   0  0  0  0  0  0  0  0  0  0  0  0
  -24.3440   -9.5710   21.8990 C   0  0  0  0  0  3  0  0  0  0  0  0
  -23.6150   -8.3760   22.0890 C   0  0  0  0  0  3  0  0  0  0  0  0
  -22.4160   -8.1540   21.3700 C   0  0  0  0  0  0  0  0  0  0  0  0
  -21.9780   -9.1230   20.4510 C   0  0  0  0  0  3  0  0  0  0  0  0
  -22.7070  -10.3080   20.2590 C   0  0  0  0  0  3  0  0  0  0  0  0
  -21.6570   -7.0130   21.4710 O   0  0  0  0  0  0  0  0  0  0  0  0
  -21.6230   -6.2700   22.6250 C   0  0  0  0  0  0  0  0  0  0  0  0
  -21.1990   -6.8200   23.8530 C   0  0  0  0  0  3  0  0  0  0  0  0
  -21.1120   -6.0030   24.9980 C   0  0  0  0  0  3  0  0  0  0  0  0
  -21.4410   -4.6370   24.9160 C   0  0  0  0  0  0  0  0  0  0  0  0
  -21.8590   -4.0860   23.6920 C   0  0  0  0  0  3  0  0  0  0  0  0
  -21.9460   -4.9000   22.5490 C   0  0  0  0  0  0  0  0  0  0  0  0
  -22.3290   -4.3580   21.3670 F   0  0  0  0  0  0  0  0  0  0  0  0
  -21.3510   -3.8500   26.0140 F   0  0  0  0  0  0  0  0  0  0  0  0
  -22.7760  -13.6440   21.2150 C   0  0  0  0  0  0  0  0  0  0  0  0
  -22.0860  -12.9370   22.1030 N   0  0  0  0  0  0  0  0  0  0  0  0
  -22.3210  -14.6810   20.7320 O   0  0  0  0  0  0  0  0  0  0  0  0
  -22.4670  -12.0990   22.5150 H   0  0  0  0  0  0  0  0  0  0  0  0
  -21.1610  -13.2400   22.3750 H   0  0  0  0  0  0  0  0  0  0  0  0
  -25.3640  -15.3190   20.3120 N   0  0  0  0  0  0  0  0  0  0  0  0
  -24.6090  -15.9730   20.4820 H   0  0  0  0  0  0  0  0  0  0  0  0
  -26.2000  -15.7630   19.9540 H   0  0  0  0  0  0  0  0  0  0  0  0
  1  4  1  0
  2  1  2  0
  2  7  1  0
  3  1  1  0
  3  5  1  0
  5  4  1  0
  5  6  1  1
  8  7  1  0
  9 20  2  0
 10  8  1  0
 10 15  1  0
 11 19  1  0
 11 21  1  0
 12 18  1  0
 12 14  1  0
 13 19  1  0
 14 15  2  0
 14 13  1  0
 16 10  2  0
 17 16  1  0
 17 12  2  0
 18 11  1  0
 19  9  1  0
 21 23  2  0
 22 21  1  0
 24 22  1  0
 25 34  2  0
 25 30  1  0
 26 22  1  0
 26 30  1  0
 27 26  1  0
 28 29  1  0
 28 27  1  0
 29 25  1  0
 30 31  2  0
 31 32  1  0
 33 32  2  0
 34 33  1  0
 35  9  1  0
 35 36  1  0
 35 45  1  0
 36 39  1  0
 37 41  1  0
 37 36  1  0
 38 37  2  0
 41 40  1  0
 43 41  1  0
 43 44  1  0
 43 42  1  0
 45 48  1  1
 45 46  1  0
 47 45  1  0
 49  5  1  0
 50 56  1  0
 50 49  1  0
 51 56  1  0
 52 53  1  0
 52 51  1  0
 54 53  1  0
 54 61  1  0
 54 55  1  0
 56 55  1  0
 57 50  2  0
 58 59  2  0
 59 78  1  0
 60 59  1  0
 60 63  1  0
 61 62  1  0
 61 58  1  0
 62 60  2  0
 63 64  1  0
 64 65  2  0
 66 69  1  0
 66 65  1  0
 67 66  2  0
 68 67  1  0
 68 63  2  0
 69 70  1  0
 70 71  1  0
 71 72  2  0
 73 72  1  0
 73 77  1  0
 74 73  2  0
 75 70  2  0
 75 74  1  0
 76 75  1  0
 78 79  1  0
 79 82  1  0
 79 81  1  0
 80 78  2  0
 83 58  1  0
 83 84  1  0
 85 83  1  0
M  ISO  4   7 101   8 101  49 100  50 100
M  END
>  <TORSDO>  (43) 
F 18

>  <SCORE>  (43) 
-16.465

>  <name>  (43) 
43

>  <ligand_id>  (43) 
43

>  <original_smiles>  (43) 
[H]C(=C1C([H])([H])C(C([H])([H])[H])(C([H])([H])C(=O)N2C([H])([H])C([H])([H])C([H])([H])C([H])(n3nc(-c4c([H])c([H])c(Oc5c([H])c([H])c(F)c([H])c5F)c([H])c4[H])c(C(=O)N([H])[H])c3N([H])[H])C2([H])[H])C1([H])[H])C([H])([H])Oc1c([H])c([H])c2c(c1[H])C([H])([H])N(C(=O)C([H])(N([H])C(=O)C([H])(N([H])C([H])([H])[H])C([H])([H])[H])C(C([H])([H])[H])(C([H])([H])[H])C([H])([H])[H])C([H])(C(=O)N([H])C1([H])c3c([H])c([H])c([H])c([H])c3C([H])([H])C([H])([H])C1([H])[H])C2([H])[H]

>  <smiles>  (43) 
[H]C(=C1C([H])([H])C(C([H])([H])[H])(C([H])([H])C(=O)N2C([H])([H])C([H])([H])C([H])([H])C([H])(n3nc(-c4c([H])c([H])c(Oc5c([H])c([H])c(F)c([H])c5F)c([H])c4[H])c(C(=O)N([H])[H])c3N([H])[H])C2([H])[H])C1([H])[H])C([H])([H])Oc1c([H])c([H])c2c(c1[H])C([H])([H])N(C(=O)C([H])(N([H])C(=O)C([H])(N([H])C([H])([H])[H])C([H])([H])[H])C(C([H])([H])[H])(C([H])([H])[H])C([H])([H])[H])C([H])(C(=O)N([H])C1([H])c3c([H])c([H])c([H])c([H])c3C([H])([H])C([H])([H])C1([H])[H])C2([H])[H]

$$$$
44:0:0
     RDKit          3D

 91 99  0  0  1  0  0  0  0  0999 V2000
  -29.6820  -22.0460   19.5450 N   0  0  0  0  0  4  0  0  0  0  0  0
  -30.5050  -22.0850   20.1260 H   0  0  0  0  0  0  0  0  0  0  0  0
  -30.0220  -22.1760   18.6060 H   0  0  0  0  0  0  0  0  0  0  0  0
  -30.2110  -19.1950   19.7620 C   0  0  0  0  0  0  0  0  0  0  0  0
  -27.3450  -18.9610   20.4550 C   0  0  0  0  0  2  0  0  0  0  0  0
  -28.2710  -17.7510   20.7140 C   0  0  0  0  0  2  0  0  0  0  0  0
  -28.0400  -20.3330   20.6230 C   0  0  0  0  0  2  0  0  0  0  0  0
  -29.5230  -17.6590   19.8040 C   0  0  0  0  0  3  0  0  0  0  0  0
  -29.1710  -20.5360   19.5920 C   0  0  0  0  0  3  0  0  0  0  0  0
  -31.4300  -19.3470   19.8880 O   0  0  0  0  0  0  0  0  0  0  0  0
  -30.9180  -15.0790   19.5610 C   0  0  0  0  0  0  0  0  0  0  0  0
  -30.8770  -12.6280   18.8530 C   0  0  0  0  0  2  0  0  0  0  0  0
  -29.8760  -12.4440   17.6840 C   0  0  0  0  0  2  0  0  0  0  0  0
  -28.4400  -12.2470   18.2100 C   0  0  0  0  0  2  0  0  0  0  0  0
  -28.0780  -13.2770   19.3110 C   0  0  0  0  0  3  0  0  0  0  0  0
  -29.1870  -13.3820   20.3810 C   0  0  0  0  0  2  0  0  0  0  0  0
  -30.4240  -13.7770   19.6900 N   0  0  0  0  0  0  0  0  0  0  0  0
  -32.0420  -15.2220   19.0630 O   0  0  0  0  0  0  0  0  0  0  0  0
  -30.0420  -16.1410   19.9050 N   0  0  0  0  0  0  0  0  0  0  0  0
  -29.3030  -15.6530   20.3860 H   0  0  0  0  0  0  0  0  0  0  0  0
  -25.7870  -13.9320   20.2480 C   0  0  0  0  0  0  0  0  0  0  0  0
  -24.7230  -13.1890   20.6780 C   0  0  0  0  0  0  0  0  0  0  0  0
  -25.1210  -11.8210   20.5650 C   0  0  0  0  0  0  0  0  0  0  0  0
  -26.7680  -13.0190   19.8960 N   0  0  0  0  0  0  0  0  0  0  0  0
  -26.3780  -11.7420   20.1460 N   0  0  0  0  0  0  0  0  0  0  0  0
  -24.3560  -10.5850   20.7720 C   0  0  0  0  0  0  0  0  0  0  0  0
  -24.6600   -9.6950   21.8270 C   0  0  0  0  0  3  0  0  0  0  0  0
  -23.8970   -8.5230   22.0170 C   0  0  0  0  0  3  0  0  0  0  0  0
  -22.8170   -8.2310   21.1500 C   0  0  0  0  0  0  0  0  0  0  0  0
  -22.5330   -9.1090   20.0880 C   0  0  0  0  0  3  0  0  0  0  0  0
  -23.2970  -10.2720   19.8970 C   0  0  0  0  0  3  0  0  0  0  0  0
  -22.0370   -7.1030   21.2420 O   0  0  0  0  0  0  0  0  0  0  0  0
  -21.6430   -6.5970   22.4560 C   0  0  0  0  0  0  0  0  0  0  0  0
  -20.8870   -7.3620   23.3720 C   0  0  0  0  0  3  0  0  0  0  0  0
  -20.4440   -6.7810   24.5760 C   0  0  0  0  0  3  0  0  0  0  0  0
  -20.7480   -5.4370   24.8650 C   0  0  0  0  0  0  0  0  0  0  0  0
  -21.4990   -4.6750   23.9530 C   0  0  0  0  0  3  0  0  0  0  0  0
  -21.9430   -5.2530   22.7510 C   0  0  0  0  0  0  0  0  0  0  0  0
  -22.6470   -4.5060   21.8660 F   0  0  0  0  0  0  0  0  0  0  0  0
  -20.3160   -4.8760   26.0180 F   0  0  0  0  0  0  0  0  0  0  0  0
  -23.3750  -13.7140   21.0790 C   0  0  0  0  0  0  0  0  0  0  0  0
  -22.7090  -13.0410   22.0110 N   0  0  0  0  0  0  0  0  0  0  0  0
  -22.9260  -14.7560   20.6010 O   0  0  0  0  0  0  0  0  0  0  0  0
  -23.0890  -12.1970   22.4150 H   0  0  0  0  0  0  0  0  0  0  0  0
  -21.8080  -13.3710   22.3250 H   0  0  0  0  0  0  0  0  0  0  0  0
  -25.9990  -15.3000   20.1010 N   0  0  0  0  0  0  0  0  0  0  0  0
  -25.2660  -15.9770   20.2780 H   0  0  0  0  0  0  0  0  0  0  0  0
  -26.8120  -15.7050   19.6580 H   0  0  0  0  0  0  0  0  0  0  0  0
  -28.7850  -23.3270   19.9160 C   0  0  0  0  0  2  0  0  0  0  0  0
  -28.9660  -24.8690   19.2220 C   0  0  0  0  0  2  0  0  0  0  0  0
  -28.7140  -26.3130   19.7790 O   0  0  0  0  0  0  0  0  0  0  0  0
  -24.6210  -31.5050   22.9320 C   0  0  0  0  0  0  0  0  0  0  0  0
  -27.5580  -27.1730   19.6770 C   0  0  0  0  0  0  0  0  0  0  0  0
  -23.5270  -30.1130   21.2110 C   0  0  0  0  0  3  0  0  0  0  0  0
  -25.0930  -28.7290   19.7050 C   0  0  0  0  0  0  0  0  0  0  0  0
  -26.0490  -30.5870   21.0650 C   0  0  0  0  0  2  0  0  0  0  0  0
  -26.2280  -29.2410   20.3420 C   0  0  0  0  0  0  0  0  0  0  0  0
  -27.4530  -28.4780   20.3120 C   0  0  0  0  0  3  0  0  0  0  0  0
  -26.3940  -26.7600   18.9950 C   0  0  0  0  0  3  0  0  0  0  0  0
  -25.1890  -27.5060   19.0130 C   0  0  0  0  0  3  0  0  0  0  0  0
  -23.7970  -29.5210   19.7990 C   0  0  0  0  0  2  0  0  0  0  0  0
  -24.7510  -30.7550   21.7930 N   0  0  0  0  0  0  0  0  0  0  0  0
  -23.5190  -31.6770   23.4710 O   0  0  0  0  0  0  0  0  0  0  0  0
  -22.9250  -29.0120   22.1200 C   0  0  0  0  0  0  0  0  0  0  0  0
  -21.6120  -28.7550   21.9840 N   0  0  0  0  0  0  0  0  0  0  0  0
  -23.6420  -28.3890   22.9080 O   0  0  0  0  0  0  0  0  0  0  0  0
  -21.0890  -29.3100   21.3220 H   0  0  0  0  0  0  0  0  0  0  0  0
  -18.3210  -27.3170   22.4530 C   0  0  0  0  0  0  0  0  0  0  0  0
  -20.8630  -27.7200   22.7010 C   0  0  0  0  0  3  0  0  0  0  0  0
  -21.0440  -26.3390   22.0290 C   0  0  0  0  0  2  0  0  0  0  0  0
  -19.9460  -26.0180   21.0110 C   0  0  0  0  0  2  0  0  0  0  0  0
  -18.5680  -26.0330   21.6810 C   0  0  0  0  0  2  0  0  0  0  0  0
  -19.3990  -28.1170   22.9200 C   0  0  0  0  0  0  0  0  0  0  0  0
  -19.1120  -29.3170   23.6050 C   0  0  0  0  0  3  0  0  0  0  0  0
  -17.7830  -29.7220   23.8260 C   0  0  0  0  0  3  0  0  0  0  0  0
  -16.7190  -28.9190   23.3740 C   0  0  0  0  0  3  0  0  0  0  0  0
  -16.9910  -27.7200   22.6940 C   0  0  0  0  0  3  0  0  0  0  0  0
  -25.8490  -32.1990   23.6000 C   0  0  0  0  0  3  0  0  0  0  0  0
  -26.4260  -31.3920   24.8300 C   0  0  1  0  0  0  0  0  0  0  0  0
  -25.3530  -30.9960   25.8730 C   0  0  0  0  0  1  0  0  0  0  0  0
  -27.1220  -30.0960   24.3580 C   0  0  0  0  0  1  0  0  0  0  0  0
  -27.5060  -32.2340   25.5480 C   0  0  0  0  0  1  0  0  0  0  0  0
  -25.4310  -33.5440   24.0220 N   0  0  0  0  0  0  0  0  0  0  0  0
  -25.6820  -34.6710   23.3420 C   0  0  0  0  0  0  0  0  0  0  0  0
  -26.3540  -34.6900   22.3080 O   0  0  0  0  0  0  0  0  0  0  0  0
  -24.8300  -33.6000   24.8310 H   0  0  0  0  0  0  0  0  0  0  0  0
  -23.8280  -36.3570   23.1090 C   0  0  0  0  0  1  0  0  0  0  0  0
  -25.0950  -35.9860   23.8970 C   0  0  0  0  0  3  0  0  0  0  0  0
  -27.1520  -36.9710   24.8080 C   0  0  0  0  0  1  0  0  0  0  0  0
  -26.0480  -37.1170   23.8630 N   0  0  0  0  0  0  0  0  0  0  0  0
  -25.5750  -37.9950   24.0590 H   0  0  0  0  0  0  0  0  0  0  0  0
  1 49  1  0
  1  2  1  0
  3  1  1  0
  4  8  1  0
  4 10  2  0
  5  7  1  0
  5  6  1  0
  8 19  1  0
  8  6  1  0
  9  1  1  0
  9  4  1  0
  9  7  1  0
 11 17  1  0
 11 19  1  0
 12 17  1  0
 13 14  1  0
 13 12  1  0
 15 14  1  0
 15 24  1  0
 15 16  1  0
 17 16  1  0
 18 11  2  0
 19 20  1  0
 21 22  2  0
 22 41  1  0
 23 22  1  0
 23 26  1  0
 24 25  1  0
 24 21  1  0
 25 23  2  0
 26 27  1  0
 27 28  2  0
 29 32  1  0
 29 28  1  0
 30 29  2  0
 31 30  1  0
 31 26  2  0
 32 33  1  0
 33 38  2  0
 33 34  1  0
 34 35  2  0
 35 36  1  0
 36 40  1  0
 37 36  2  0
 38 37  1  0
 39 38  1  0
 41 42  1  0
 42 45  1  0
 42 44  1  0
 43 41  2  0
 46 21  1  0
 46 47  1  0
 48 46  1  0
 50 51  1  0
 50 49  1  0
 52 63  2  0
 53 51  1  0
 53 58  1  0
 54 62  1  0
 54 64  1  0
 55 61  1  0
 55 57  1  0
 56 62  1  0
 57 56  1  0
 58 57  2  0
 59 60  1  0
 59 53  2  0
 60 55  2  0
 61 54  1  0
 62 52  1  0
 64 66  2  0
 65 64  1  0
 67 65  1  0
 68 77  2  0
 68 73  1  0
 69 65  1  0
 69 73  1  0
 70 69  1  0
 71 72  1  0
 71 70  1  0
 72 68  1  0
 73 74  2  0
 74 75  1  0
 76 75  2  0
 77 76  1  0
 78 52  1  0
 78 83  1  0
 78 79  1  0
 79 82  1  1
 79 80  1  0
 81 79  1  0
 83 86  1  0
 84 88  1  0
 84 83  1  0
 85 84  2  0
 88 87  1  0
 90 88  1  0
 90 91  1  0
 90 89  1  0
M  ISO  4  11 100  19 100  50 101  51 101
M  END
>  <TORSDO>  (44) 
F 19

>  <SCORE>  (44) 
-12.121

>  <name>  (44) 
44

>  <ligand_id>  (44) 
44

>  <original_smiles>  (44) 
[H]c1c([H])c([H])c2c(c1[H])C([H])([H])C([H])([H])C([H])([H])C2([H])N([H])C(=O)C1([H])N(C(=O)C([H])(N([H])C(=O)C([H])(N([H])C([H])([H])[H])C([H])([H])[H])C(C([H])([H])[H])(C([H])([H])[H])C([H])([H])[H])C([H])([H])c2c([H])c(OC([H])([H])C([H])([H])[N+]([H])([H])C3([H])C(=O)C([H])(N([H])C(=O)N4C([H])([H])C([H])([H])C([H])([H])C([H])(n5nc(-c6c([H])c([H])c(Oc7c([H])c([H])c(F)c([H])c7F)c([H])c6[H])c(C(=O)N([H])[H])c5N([H])[H])C4([H])[H])C([H])([H])C([H])([H])C3([H])[H])c([H])c([H])c2C1([H])[H]

>  <smiles>  (44) 
[H]c1c([H])c([H])c2c(c1[H])C([H])([H])C([H])([H])C([H])([H])C2([H])N([H])C(=O)C1([H])N(C(=O)C([H])(N([H])C(=O)C([H])(N([H])C([H])([H])[H])C([H])([H])[H])C(C([H])([H])[H])(C([H])([H])[H])C([H])([H])[H])C([H])([H])c2c([H])c(OC([H])([H])C([H])([H])[N+]([H])([H])C3([H])C(=O)C([H])(N([H])C(=O)N4C([H])([H])C([H])([H])C([H])([H])C([H])(n5nc(-c6c([H])c([H])c(Oc7c([H])c([H])c(F)c([H])c7F)c([H])c6[H])c(C(=O)N([H])[H])c5N([H])[H])C4([H])[H])C([H])([H])C([H])([H])C3([H])[H])c([H])c([H])c2C1([H])[H]

$$$$
45:0:0
     RDKit          3D

101109  0  0  1  0  0  0  0  0999 V2000
  -30.3330  -22.1010   23.3290 C   0  0  0  0  0  0  0  0  0  0  0  0
  -30.8370  -18.6520   24.5310 C   0  0  0  0  0  2  0  0  0  0  0  0
  -29.4220  -20.5100   25.0600 C   0  0  0  0  0  2  0  0  0  0  0  0
  -30.9520  -19.6820   23.3940 C   0  0  0  0  0  3  0  0  0  0  0  0
  -29.4930  -18.9810   25.1640 C   0  0  0  0  0  3  0  0  0  0  0  0
  -30.1870  -20.8570   23.8550 N   0  0  0  0  0  0  0  0  0  0  0  0
  -31.0740  -22.3130   22.3620 O   0  0  0  0  0  0  0  0  0  0  0  0
  -29.3120  -18.4560   26.5300 N   0  0  0  0  0  4  0  0  0  0  0  0
  -30.0180  -18.8070   27.1520 H   0  0  0  0  0  0  0  0  0  0  0  0
  -29.3700  -17.4510   26.5300 H   0  0  0  0  0  0  0  0  0  0  0  0
  -28.4110  -18.7070   26.8990 H   0  0  0  0  0  0  0  0  0  0  0  0
  -30.4380  -19.1220   22.0710 C   0  0  0  0  0  3  0  0  0  0  0  0
  -30.9490  -18.0260   21.4840 C   0  0  0  0  0  3  0  0  0  0  0  0
  -30.4690  -17.4310   20.1770 C   0  0  0  0  0  2  0  0  0  0  0  0
  -30.7430  -14.9880   19.8200 C   0  0  0  0  0  0  0  0  0  0  0  0
  -30.6470  -12.5710   19.3430 C   0  0  0  0  0  2  0  0  0  0  0  0
  -29.7510  -12.2960   18.1210 C   0  0  0  0  0  2  0  0  0  0  0  0
  -28.2730  -12.1650   18.5410 C   0  0  0  0  0  2  0  0  0  0  0  0
  -27.8080  -13.3300   19.4560 C   0  0  0  0  0  3  0  0  0  0  0  0
  -28.8170  -13.5580   20.6040 C   0  0  0  0  0  2  0  0  0  0  0  0
  -30.1490  -13.7820   20.0110 N   0  0  0  0  0  0  0  0  0  0  0  0
  -31.7860  -15.1400   19.1780 O   0  0  0  0  0  0  0  0  0  0  0  0
  -30.0990  -16.0310   20.3590 N   0  0  0  0  0  0  0  0  0  0  0  0
  -29.2490  -15.8320   20.8640 H   0  0  0  0  0  0  0  0  0  0  0  0
  -25.4440  -14.0160   20.2130 C   0  0  0  0  0  0  0  0  0  0  0  0
  -24.3610  -13.2790   20.6110 C   0  0  0  0  0  0  0  0  0  0  0  0
  -24.7780  -11.9130   20.5730 C   0  0  0  0  0  0  0  0  0  0  0  0
  -26.4560  -13.1020   19.9630 N   0  0  0  0  0  0  0  0  0  0  0  0
  -26.0590  -11.8310   20.2330 N   0  0  0  0  0  0  0  0  0  0  0  0
  -24.0190  -10.6740   20.7830 C   0  0  0  0  0  0  0  0  0  0  0  0
  -24.5060   -9.6410   21.6140 C   0  0  0  0  0  3  0  0  0  0  0  0
  -23.7490   -8.4670   21.8140 C   0  0  0  0  0  3  0  0  0  0  0  0
  -22.4900   -8.3170   21.1860 C   0  0  0  0  0  0  0  0  0  0  0  0
  -22.0200   -9.3370   20.3410 C   0  0  0  0  0  3  0  0  0  0  0  0
  -22.7770  -10.5040   20.1370 C   0  0  0  0  0  3  0  0  0  0  0  0
  -21.6960   -7.2010   21.3030 O   0  0  0  0  0  0  0  0  0  0  0  0
  -21.7030   -6.4290   22.4370 C   0  0  0  0  0  0  0  0  0  0  0  0
  -21.4560   -6.9780   23.7150 C   0  0  0  0  0  3  0  0  0  0  0  0
  -21.4030   -6.1380   24.8440 C   0  0  0  0  0  3  0  0  0  0  0  0
  -21.5880   -4.7500   24.6980 C   0  0  0  0  0  0  0  0  0  0  0  0
  -21.8290   -4.2000   23.4270 C   0  0  0  0  0  3  0  0  0  0  0  0
  -21.8830   -5.0380   22.2990 C   0  0  0  0  0  0  0  0  0  0  0  0
  -22.0940   -4.5010   21.0740 F   0  0  0  0  0  0  0  0  0  0  0  0
  -21.5300   -3.9400   25.7820 F   0  0  0  0  0  0  0  0  0  0  0  0
  -22.9860  -13.7990   20.9170 C   0  0  0  0  0  0  0  0  0  0  0  0
  -22.2560  -13.1230   21.7980 N   0  0  0  0  0  0  0  0  0  0  0  0
  -22.5710  -14.8410   20.4120 O   0  0  0  0  0  0  0  0  0  0  0  0
  -22.6040  -12.2790   22.2300 H   0  0  0  0  0  0  0  0  0  0  0  0
  -21.3330  -13.4520   22.0420 H   0  0  0  0  0  0  0  0  0  0  0  0
  -25.6490  -15.3790   20.0260 N   0  0  0  0  0  0  0  0  0  0  0  0
  -24.9010  -16.0570   20.1210 H   0  0  0  0  0  0  0  0  0  0  0  0
  -26.4990  -15.7780   19.6490 H   0  0  0  0  0  0  0  0  0  0  0  0
  -30.4570  -24.0370   24.9750 C   0  0  0  0  0  1  0  0  0  0  0  0
  -29.5760  -23.3040   23.9390 C   0  0  0  0  0  3  0  0  0  0  0  0
  -29.1620  -24.2700   22.8880 N   0  0  0  0  0  4  0  0  0  0  0  0
  -28.8240  -25.0990   23.3490 H   0  0  0  0  0  0  0  0  0  0  0  0
  -29.9980  -24.5030   22.3710 H   0  0  0  0  0  0  0  0  0  0  0  0
  -28.1450  -23.8000   21.9170 C   0  0  0  0  0  2  0  0  0  0  0  0
  -27.4850  -24.9480   21.1180 C   0  0  0  0  0  2  0  0  0  0  0  0
  -28.4600  -25.9590   20.4720 C   0  0  0  0  0  2  0  0  0  0  0  0
  -27.9060  -26.6240   19.3350 O   0  0  0  0  0  0  0  0  0  0  0  0
  -24.7770  -31.6780   23.2710 C   0  0  0  0  0  0  0  0  0  0  0  0
  -26.7980  -27.3980   19.5760 C   0  0  0  0  0  0  0  0  0  0  0  0
  -23.3220  -30.5100   21.6460 C   0  0  0  0  0  3  0  0  0  0  0  0
  -24.5220  -29.0180   19.9620 C   0  0  0  0  0  0  0  0  0  0  0  0
  -25.8360  -30.7300   21.2260 C   0  0  0  0  0  2  0  0  0  0  0  0
  -25.7630  -29.4210   20.4710 C   0  0  0  0  0  0  0  0  0  0  0  0
  -26.9070  -28.6150   20.2820 C   0  0  0  0  0  3  0  0  0  0  0  0
  -25.5470  -27.0090   19.0560 C   0  0  0  0  0  3  0  0  0  0  0  0
  -24.4050  -27.8070   19.2560 C   0  0  0  0  0  3  0  0  0  0  0  0
  -23.3510  -29.9430   20.2020 C   0  0  0  0  0  2  0  0  0  0  0  0
  -24.6690  -30.9810   22.1040 N   0  0  0  0  0  0  0  0  0  0  0  0
  -23.7760  -31.9660   23.9400 O   0  0  0  0  0  0  0  0  0  0  0  0
  -22.6970  -29.4460   22.5770 C   0  0  0  0  0  0  0  0  0  0  0  0
  -21.3860  -29.2080   22.4160 N   0  0  0  0  0  0  0  0  0  0  0  0
  -23.3890  -28.8390   23.4000 O   0  0  0  0  0  0  0  0  0  0  0  0
  -20.8870  -29.7510   21.7250 H   0  0  0  0  0  0  0  0  0  0  0  0
  -18.0920  -27.7550   22.7090 C   0  0  0  0  0  0  0  0  0  0  0  0
  -20.5940  -28.2250   23.1550 C   0  0  0  0  0  3  0  0  0  0  0  0
  -20.8530  -26.7960   22.6280 C   0  0  0  0  0  2  0  0  0  0  0  0
  -19.8570  -26.3610   21.5480 C   0  0  0  0  0  2  0  0  0  0  0  0
  -18.4240  -26.4090   22.0870 C   0  0  0  0  0  2  0  0  0  0  0  0
  -19.1120  -28.6150   23.1950 C   0  0  0  0  0  0  0  0  0  0  0  0
  -18.7520  -29.8710   23.7300 C   0  0  0  0  0  3  0  0  0  0  0  0
  -17.4040  -30.2690   23.7880 C   0  0  0  0  0  3  0  0  0  0  0  0
  -16.3970  -29.4080   23.3210 C   0  0  0  0  0  3  0  0  0  0  0  0
  -16.7400  -28.1530   22.7870 C   0  0  0  0  0  3  0  0  0  0  0  0
  -26.1580  -32.1680   23.8060 C   0  0  0  0  0  3  0  0  0  0  0  0
  -25.9720  -33.5240   24.3430 N   0  0  0  0  0  0  0  0  0  0  0  0
  -26.3700  -34.6460   23.7290 C   0  0  0  0  0  0  0  0  0  0  0  0
  -27.0060  -34.6400   22.6700 O   0  0  0  0  0  0  0  0  0  0  0  0
  -25.4140  -33.6060   25.1810 H   0  0  0  0  0  0  0  0  0  0  0  0
  -24.8300  -36.6310   23.6370 C   0  0  0  0  0  1  0  0  0  0  0  0
  -26.0030  -35.9860   24.3930 C   0  0  0  0  0  3  0  0  0  0  0  0
  -28.1800  -36.5200   25.3940 C   0  0  0  0  0  1  0  0  0  0  0  0
  -27.1330  -36.9370   24.4640 N   0  0  0  0  0  0  0  0  0  0  0  0
  -26.8100  -37.8600   24.7430 H   0  0  0  0  0  0  0  0  0  0  0  0
  -26.7750  -31.2140   24.9030 C   0  0  1  0  0  0  0  0  0  0  0  0
  -25.8030  -30.8880   26.0590 C   0  0  0  0  0  1  0  0  0  0  0  0
  -27.2230  -29.8750   24.2720 C   0  0  0  0  0  1  0  0  0  0  0  0
  -28.0420  -31.8610   25.5110 C   0  0  0  0  0  1  0  0  0  0  0  0
  1  6  1  0
  1 54  1  0
  2  5  1  0
  3  5  1  0
  4 12  1  0
  4  6  1  0
  4  2  1  0
  5  8  1  0
  6  3  1  0
  7  1  2  0
  8 11  1  0
  8  9  1  0
 10  8  1  0
 13 12  2  0
 14 23  1  0
 14 13  1  0
 15 21  1  0
 15 23  1  0
 16 21  1  0
 17 18  1  0
 17 16  1  0
 19 18  1  0
 19 28  1  0
 19 20  1  0
 21 20  1  0
 22 15  2  0
 23 24  1  0
 25 26  2  0
 26 45  1  0
 27 26  1  0
 27 30  1  0
 28 25  1  0
 28 29  1  0
 29 27  2  0
 30 31  1  0
 31 32  2  0
 33 36  1  0
 33 32  1  0
 34 33  2  0
 35 34  1  0
 35 30  2  0
 36 37  1  0
 37 38  1  0
 38 39  2  0
 40 39  1  0
 40 44  1  0
 41 40  2  0
 42 37  2  0
 42 41  1  0
 43 42  1  0
 45 46  1  0
 46 49  1  0
 46 48  1  0
 47 45  2  0
 50 51  1  0
 50 25  1  0
 52 50  1  0
 54 53  1  0
 55 56  1  0
 55 54  1  0
 57 55  1  0
 58 55  1  0
 59 58  1  0
 60 59  1  0
 61 63  1  0
 61 60  1  0
 62 73  2  0
 63 68  1  0
 64 72  1  0
 64 74  1  0
 65 71  1  0
 65 67  1  0
 66 72  1  0
 67 66  1  0
 68 67  2  0
 69 70  1  0
 69 63  2  0
 70 65  2  0
 71 64  1  0
 72 62  1  0
 74 76  2  0
 75 74  1  0
 77 75  1  0
 78 87  2  0
 78 83  1  0
 79 75  1  0
 79 83  1  0
 80 79  1  0
 81 82  1  0
 81 80  1  0
 82 78  1  0
 83 84  2  0
 84 85  1  0
 86 85  2  0
 87 86  1  0
 88 62  1  0
 88 89  1  0
 88 98  1  0
 89 92  1  0
 90 89  1  0
 90 94  1  0
 91 90  2  0
 94 93  1  0
 94 96  1  0
 96 97  1  0
 96 95  1  0
 98101  1  1
 98 99  1  0
100 98  1  0
M  ISO  4  15 100  23 100  60 101  61 101
M  END
>  <TORSDO>  (45) 
F 24

>  <SCORE>  (45) 
-4.800

>  <name>  (45) 
45

>  <ligand_id>  (45) 
45

>  <original_smiles>  (45) 
[H]C(=C([H])C1([H])N(C(=O)C([H])(C([H])([H])[H])[N+]([H])([H])C([H])([H])C([H])([H])C([H])([H])Oc2c([H])c([H])c3c(c2[H])C([H])([H])N(C(=O)C([H])(N([H])C(=O)C([H])(N([H])C([H])([H])[H])C([H])([H])[H])C(C([H])([H])[H])(C([H])([H])[H])C([H])([H])[H])C([H])(C(=O)N([H])C2([H])c4c([H])c([H])c([H])c([H])c4C([H])([H])C([H])([H])C2([H])[H])C3([H])[H])C([H])([H])C([H])([N+]([H])([H])[H])C1([H])[H])C([H])([H])N([H])C(=O)N1C([H])([H])C([H])([H])C([H])([H])C([H])(n2nc(-c3c([H])c([H])c(Oc4c([H])c([H])c(F)c([H])c4F)c([H])c3[H])c(C(=O)N([H])[H])c2N([H])[H])C1([H])[H]

>  <smiles>  (45) 
[H]C(=C([H])C1([H])N(C(=O)C([H])(C([H])([H])[H])[N+]([H])([H])C([H])([H])C([H])([H])C([H])([H])Oc2c([H])c([H])c3c(c2[H])C([H])([H])N(C(=O)C([H])(N([H])C(=O)C([H])(N([H])C([H])([H])[H])C([H])([H])[H])C(C([H])([H])[H])(C([H])([H])[H])C([H])([H])[H])C([H])(C(=O)N([H])C2([H])c4c([H])c([H])c([H])c([H])c4C([H])([H])C([H])([H])C2([H])[H])C3([H])[H])C([H])([H])C([H])([N+]([H])([H])[H])C1([H])[H])C([H])([H])N([H])C(=O)N1C([H])([H])C([H])([H])C([H])([H])C([H])(n2nc(-c3c([H])c([H])c(Oc4c([H])c([H])c(F)c([H])c4F)c([H])c3[H])c(C(=O)N([H])[H])c2N([H])[H])C1([H])[H]

$$$$
46:0:0
     RDKit          3D

 84 92  0  0  1  0  0  0  0  0999 V2000
  -27.5660  -21.2390   20.3610 C   0  0  0  0  0  3  0  0  0  0  0  0
  -27.2100  -22.7650   20.3780 C   0  0  0  0  0  3  0  0  0  0  0  0
  -28.8760  -20.6670   20.2350 C   0  0  0  0  0  0  0  0  0  0  0  0
  -28.1340  -23.8570   20.2730 C   0  0  0  0  0  0  0  0  0  0  0  0
  -29.6050  -22.5230   20.1470 S   0  0  0  0  0  0  0  0  0  0  0  0
  -29.5520  -19.0180   20.1760 C   0  0  0  0  0  3  0  0  0  0  0  0
  -29.3830  -17.4540   20.2440 C   0  0  0  0  0  3  0  0  0  0  0  0
  -30.2380  -15.9190   20.1220 C   0  0  0  0  0  0  0  0  0  0  0  0
  -30.3980  -13.3280   19.3410 C   0  0  0  0  0  2  0  0  0  0  0  0
  -29.5040  -12.8610   18.1500 C   0  0  0  0  0  2  0  0  0  0  0  0
  -28.1020  -12.4610   18.6330 C   0  0  0  0  0  2  0  0  0  0  0  0
  -27.5810  -13.4630   19.6840 C   0  0  0  0  0  3  0  0  0  0  0  0
  -28.6170  -13.8450   20.7700 C   0  0  0  0  0  2  0  0  0  0  0  0
  -29.7610  -14.5140   20.0990 N   0  0  0  0  0  0  0  0  0  0  0  0
  -31.4670  -15.8290   19.9080 O   0  0  0  0  0  0  0  0  0  0  0  0
  -25.2460  -13.9450   20.5430 C   0  0  0  0  0  0  0  0  0  0  0  0
  -24.2040  -13.1470   20.9210 C   0  0  0  0  0  0  0  0  0  0  0  0
  -24.6840  -11.8030   20.8410 C   0  0  0  0  0  0  0  0  0  0  0  0
  -26.2870  -13.0900   20.2400 N   0  0  0  0  0  0  0  0  0  0  0  0
  -25.9680  -11.7910   20.4870 N   0  0  0  0  0  0  0  0  0  0  0  0
  -23.9690  -10.5300   21.0200 C   0  0  0  0  0  0  0  0  0  0  0  0
  -24.4080   -9.5560   21.9450 C   0  0  0  0  0  3  0  0  0  0  0  0
  -23.6880   -8.3550   22.1160 C   0  0  0  0  0  3  0  0  0  0  0  0
  -22.5140   -8.1160   21.3620 C   0  0  0  0  0  0  0  0  0  0  0  0
  -22.0940   -9.0780   20.4270 C   0  0  0  0  0  3  0  0  0  0  0  0
  -22.8150  -10.2720   20.2550 C   0  0  0  0  0  3  0  0  0  0  0  0
  -21.7650   -6.9660   21.4430 O   0  0  0  0  0  0  0  0  0  0  0  0
  -21.6910   -6.2340   22.6020 C   0  0  0  0  0  0  0  0  0  0  0  0
  -21.1860   -6.7860   23.7990 C   0  0  0  0  0  3  0  0  0  0  0  0
  -21.0620   -5.9790   24.9480 C   0  0  0  0  0  3  0  0  0  0  0  0
  -21.4310   -4.6220   24.9000 C   0  0  0  0  0  0  0  0  0  0  0  0
  -21.9290   -4.0700   23.7060 C   0  0  0  0  0  3  0  0  0  0  0  0
  -22.0550   -4.8740   22.5600 C   0  0  0  0  0  0  0  0  0  0  0  0
  -22.5140   -4.3310   21.4070 F   0  0  0  0  0  0  0  0  0  0  0  0
  -21.3060   -3.8450   26.0010 F   0  0  0  0  0  0  0  0  0  0  0  0
  -22.8120  -13.6070   21.2370 C   0  0  0  0  0  0  0  0  0  0  0  0
  -22.1150  -12.8920   22.1130 N   0  0  0  0  0  0  0  0  0  0  0  0
  -22.3540  -14.6360   20.7440 O   0  0  0  0  0  0  0  0  0  0  0  0
  -22.5010  -12.0600   22.5340 H   0  0  0  0  0  0  0  0  0  0  0  0
  -21.1810  -13.1820   22.3680 H   0  0  0  0  0  0  0  0  0  0  0  0
  -25.3890  -15.3210   20.3960 N   0  0  0  0  0  0  0  0  0  0  0  0
  -24.6200  -15.9640   20.5490 H   0  0  0  0  0  0  0  0  0  0  0  0
  -26.2210  -15.7760   20.0440 H   0  0  0  0  0  0  0  0  0  0  0  0
  -28.1620  -25.4760   20.2770 O   0  0  0  0  0  0  0  0  0  0  0  0
  -24.6570  -31.8900   23.2320 C   0  0  0  0  0  0  0  0  0  0  0  0
  -27.1780  -26.7170   20.2680 C   0  0  0  0  0  0  0  0  0  0  0  0
  -23.4730  -30.4880   21.5970 C   0  0  0  0  0  3  0  0  0  0  0  0
  -24.9210  -28.8160   20.1980 C   0  0  0  0  0  0  0  0  0  0  0  0
  -26.0560  -30.5980   21.4910 C   0  0  0  0  0  2  0  0  0  0  0  0
  -26.1170  -29.1520   20.8430 C   0  0  0  0  0  0  0  0  0  0  0  0
  -27.2220  -28.1330   20.8450 C   0  0  0  0  0  3  0  0  0  0  0  0
  -25.9490  -26.6210   19.5570 C   0  0  0  0  0  3  0  0  0  0  0  0
  -24.8820  -27.5770   19.5310 C   0  0  0  0  0  3  0  0  0  0  0  0
  -23.7200  -29.7810   20.2320 C   0  0  0  0  0  2  0  0  0  0  0  0
  -24.7540  -31.0280   22.1590 N   0  0  0  0  0  0  0  0  0  0  0  0
  -23.5620  -32.1960   23.7350 O   0  0  0  0  0  0  0  0  0  0  0  0
  -22.7470  -29.5220   22.5720 C   0  0  0  0  0  0  0  0  0  0  0  0
  -21.4150  -29.3660   22.4410 N   0  0  0  0  0  0  0  0  0  0  0  0
  -23.3960  -28.9070   23.4220 O   0  0  0  0  0  0  0  0  0  0  0  0
  -20.9390  -29.9110   21.7370 H   0  0  0  0  0  0  0  0  0  0  0  0
  -18.0260  -28.1470   22.9500 C   0  0  0  0  0  0  0  0  0  0  0  0
  -20.5850  -28.4320   23.2150 C   0  0  0  0  0  3  0  0  0  0  0  0
  -20.6930  -26.9960   22.6500 C   0  0  0  0  0  2  0  0  0  0  0  0
  -19.5970  -26.6640   21.6330 C   0  0  0  0  0  2  0  0  0  0  0  0
  -18.2130  -26.7990   22.2730 C   0  0  0  0  0  2  0  0  0  0  0  0
  -19.1390  -28.9200   23.3770 C   0  0  0  0  0  0  0  0  0  0  0  0
  -18.9070  -30.1780   23.9760 C   0  0  0  0  0  3  0  0  0  0  0  0
  -17.5970  -30.6630   24.1480 C   0  0  0  0  0  3  0  0  0  0  0  0
  -16.4990  -29.8890   23.7320 C   0  0  0  0  0  3  0  0  0  0  0  0
  -16.7150  -28.6320   23.1400 C   0  0  0  0  0  3  0  0  0  0  0  0
  -25.9160  -32.5450   23.8760 C   0  0  0  0  0  3  0  0  0  0  0  0
  -25.5940  -33.9520   24.1990 N   0  0  0  0  0  0  0  0  0  0  0  0
  -25.9160  -35.0120   23.4460 C   0  0  0  0  0  0  0  0  0  0  0  0
  -26.5700  -34.9110   22.4050 O   0  0  0  0  0  0  0  0  0  0  0  0
  -25.0080  -34.1030   25.0060 H   0  0  0  0  0  0  0  0  0  0  0  0
  -24.1790  -36.8150   23.1430 C   0  0  0  0  0  1  0  0  0  0  0  0
  -25.4430  -36.4050   23.9170 C   0  0  0  0  0  3  0  0  0  0  0  0
  -27.5940  -37.3070   24.6930 C   0  0  0  0  0  1  0  0  0  0  0  0
  -26.4710  -37.4610   23.7720 N   0  0  0  0  0  0  0  0  0  0  0  0
  -26.0650  -38.3810   23.9180 H   0  0  0  0  0  0  0  0  0  0  0  0
  -26.3990  -31.8010   25.1830 C   0  0  1  0  0  0  0  0  0  0  0  0
  -25.2820  -31.5910   26.2330 C   0  0  0  0  0  1  0  0  0  0  0  0
  -26.9860  -30.4120   24.8480 C   0  0  0  0  0  1  0  0  0  0  0  0
  -27.5390  -32.6040   25.8540 C   0  0  0  0  0  1  0  0  0  0  0  0
  1  2  1  0
  3  1  2  0
  4 44  1  0
  4  2  2  0
  5  3  1  0
  5  4  1  0
  6  3  1  0
  6  7  2  0
  8  7  1  0
  9 14  1  0
 10 11  1  0
 10  9  1  0
 12 11  1  0
 12 19  1  0
 12 13  1  0
 14  8  1  0
 14 13  1  0
 15  8  2  0
 16 17  2  0
 17 36  1  0
 18 17  1  0
 18 21  1  0
 19 20  1  0
 19 16  1  0
 20 18  2  0
 21 22  1  0
 22 23  2  0
 24 27  1  0
 24 23  1  0
 25 24  2  0
 26 25  1  0
 26 21  2  0
 27 28  1  0
 28 29  1  0
 29 30  2  0
 31 30  1  0
 31 35  1  0
 32 31  2  0
 33 28  2  0
 33 32  1  0
 34 33  1  0
 36 37  1  0
 37 40  1  0
 37 39  1  0
 38 36  2  0
 41 16  1  0
 41 42  1  0
 43 41  1  0
 45 56  2  0
 46 44  1  0
 46 51  1  0
 47 55  1  0
 47 57  1  0
 48 54  1  0
 48 50  1  0
 49 55  1  0
 50 51  2  0
 50 49  1  0
 52 46  2  0
 53 52  1  0
 53 48  2  0
 54 47  1  0
 55 45  1  0
 57 59  2  0
 58 57  1  0
 60 58  1  0
 61 70  2  0
 61 66  1  0
 62 58  1  0
 62 66  1  0
 63 62  1  0
 64 65  1  0
 64 63  1  0
 65 61  1  0
 66 67  2  0
 67 68  1  0
 69 68  2  0
 70 69  1  0
 71 45  1  0
 71 72  1  0
 71 81  1  0
 72 75  1  0
 73 77  1  0
 73 72  1  0
 74 73  2  0
 77 76  1  0
 79 77  1  0
 79 80  1  0
 79 78  1  0
 81 84  1  1
 81 82  1  0
 83 81  1  0
M  ISO  4   4 101   7 100   8 100  44 101
M  END
>  <TORSDO>  (46) 
F 17

>  <SCORE>  (46) 
-15.440

>  <name>  (46) 
46

>  <ligand_id>  (46) 
46

>  <original_smiles>  (46) 
[H]C(C(=O)N1C([H])([H])C([H])([H])C([H])([H])C([H])(n2nc(-c3c([H])c([H])c(Oc4c([H])c([H])c(F)c([H])c4F)c([H])c3[H])c(C(=O)N([H])[H])c2N([H])[H])C1([H])[H])=C([H])c1sc(Oc2c([H])c([H])c3c(c2[H])C([H])([H])N(C(=O)C([H])(N([H])C(=O)C([H])(N([H])C([H])([H])[H])C([H])([H])[H])C(C([H])([H])[H])(C([H])([H])[H])C([H])([H])[H])C([H])(C(=O)N([H])C2([H])c4c([H])c([H])c([H])c([H])c4C([H])([H])C([H])([H])C2([H])[H])C3([H])[H])c([H])c1[H]

>  <smiles>  (46) 
[H]C(C(=O)N1C([H])([H])C([H])([H])C([H])([H])C([H])(n2nc(-c3c([H])c([H])c(Oc4c([H])c([H])c(F)c([H])c4F)c([H])c3[H])c(C(=O)N([H])[H])c2N([H])[H])C1([H])[H])=C([H])c1sc(Oc2c([H])c([H])c3c(c2[H])C([H])([H])N(C(=O)C([H])(N([H])C(=O)C([H])(N([H])C([H])([H])[H])C([H])([H])[H])C(C([H])([H])[H])(C([H])([H])[H])C([H])([H])[H])C([H])(C(=O)N([H])C2([H])c4c([H])c([H])c([H])c([H])c4C([H])([H])C([H])([H])C2([H])[H])C3([H])[H])c([H])c1[H]

$$$$
47:0:0
     RDKit          3D

 84 92  0  0  1  0  0  0  0  0999 V2000
  -28.7320  -21.1740   19.1650 C   0  0  0  0  0  2  0  0  0  0  0  0
  -28.7720  -20.2590   20.3720 C   0  0  0  0  0  3  0  0  0  0  0  0
  -28.8970  -22.1750   20.3000 C   0  0  0  0  0  3  0  0  0  0  0  0
  -29.4590  -17.1360   20.4330 C   0  0  0  0  0  3  0  0  0  0  0  0
  -29.6800  -18.6550   20.3110 C   0  0  0  0  0  0  0  0  0  0  0  0
  -31.1210  -19.0470   20.0380 C   0  0  0  0  0  1  0  0  0  0  0  0
  -30.3080  -15.6490   20.3530 C   0  0  0  0  0  0  0  0  0  0  0  0
  -30.4310  -13.0930   19.6000 C   0  0  0  0  0  2  0  0  0  0  0  0
  -29.5720  -12.7050   18.3630 C   0  0  0  0  0  2  0  0  0  0  0  0
  -28.1350  -12.3570   18.7780 C   0  0  0  0  0  2  0  0  0  0  0  0
  -27.5970  -13.3610   19.8240 C   0  0  0  0  0  3  0  0  0  0  0  0
  -28.5970  -13.6800   20.9570 C   0  0  0  0  0  2  0  0  0  0  0  0
  -29.8020  -14.2780   20.3400 N   0  0  0  0  0  0  0  0  0  0  0  0
  -31.5390  -15.5740   20.1720 O   0  0  0  0  0  0  0  0  0  0  0  0
  -25.2170  -13.8700   20.5470 C   0  0  0  0  0  0  0  0  0  0  0  0
  -24.1610  -13.0800   20.9010 C   0  0  0  0  0  0  0  0  0  0  0  0
  -24.6470  -11.7360   20.8870 C   0  0  0  0  0  0  0  0  0  0  0  0
  -26.2750  -13.0110   20.3230 N   0  0  0  0  0  0  0  0  0  0  0  0
  -25.9460  -11.7190   20.5970 N   0  0  0  0  0  0  0  0  0  0  0  0
  -23.9310  -10.4660   21.0720 C   0  0  0  0  0  0  0  0  0  0  0  0
  -24.3600   -9.5020   22.0100 C   0  0  0  0  0  3  0  0  0  0  0  0
  -23.6390   -8.3010   22.1850 C   0  0  0  0  0  3  0  0  0  0  0  0
  -22.4740   -8.0540   21.4210 C   0  0  0  0  0  0  0  0  0  0  0  0
  -22.0630   -9.0070   20.4720 C   0  0  0  0  0  3  0  0  0  0  0  0
  -22.7850  -10.2000   20.2960 C   0  0  0  0  0  3  0  0  0  0  0  0
  -21.7250   -6.9060   21.5050 O   0  0  0  0  0  0  0  0  0  0  0  0
  -21.6790   -6.1580   22.6540 C   0  0  0  0  0  0  0  0  0  0  0  0
  -21.2490   -6.7060   23.8830 C   0  0  0  0  0  3  0  0  0  0  0  0
  -21.1510   -5.8850   25.0240 C   0  0  0  0  0  3  0  0  0  0  0  0
  -21.4720   -4.5170   24.9380 C   0  0  0  0  0  0  0  0  0  0  0  0
  -21.8940   -3.9680   23.7130 C   0  0  0  0  0  3  0  0  0  0  0  0
  -21.9930   -4.7870   22.5750 C   0  0  0  0  0  0  0  0  0  0  0  0
  -22.3810   -4.2480   21.3930 F   0  0  0  0  0  0  0  0  0  0  0  0
  -21.3710   -3.7260   26.0320 F   0  0  0  0  0  0  0  0  0  0  0  0
  -22.7520  -13.5420   21.1350 C   0  0  0  0  0  0  0  0  0  0  0  0
  -22.0180  -12.8530   21.9990 N   0  0  0  0  0  0  0  0  0  0  0  0
  -22.3150  -14.5530   20.5880 O   0  0  0  0  0  0  0  0  0  0  0  0
  -22.3860  -12.0350   22.4640 H   0  0  0  0  0  0  0  0  0  0  0  0
  -21.0710  -13.1450   22.1990 H   0  0  0  0  0  0  0  0  0  0  0  0
  -25.3640  -15.2430   20.3640 N   0  0  0  0  0  0  0  0  0  0  0  0
  -24.5870  -15.8870   20.4610 H   0  0  0  0  0  0  0  0  0  0  0  0
  -26.2100  -15.6900   20.0380 H   0  0  0  0  0  0  0  0  0  0  0  0
  -27.9510  -23.8320   20.1820 C   0  0  0  0  0  2  0  0  0  0  0  0
  -28.1450  -25.5720   20.2700 O   0  0  0  0  0  0  0  0  0  0  0  0
  -24.6300  -31.8470   23.1590 C   0  0  0  0  0  0  0  0  0  0  0  0
  -27.1640  -26.7700   20.2070 C   0  0  0  0  0  0  0  0  0  0  0  0
  -23.4430  -30.4370   21.5310 C   0  0  0  0  0  3  0  0  0  0  0  0
  -24.8920  -28.7840   20.1310 C   0  0  0  0  0  0  0  0  0  0  0  0
  -26.0210  -30.5880   21.4070 C   0  0  0  0  0  2  0  0  0  0  0  0
  -26.0860  -29.1530   20.7610 C   0  0  0  0  0  0  0  0  0  0  0  0
  -27.2080  -28.1730   20.7650 C   0  0  0  0  0  3  0  0  0  0  0  0
  -25.9350  -26.6040   19.5210 C   0  0  0  0  0  3  0  0  0  0  0  0
  -24.8540  -27.5350   19.4870 C   0  0  0  0  0  3  0  0  0  0  0  0
  -23.6830  -29.7310   20.1650 C   0  0  0  0  0  2  0  0  0  0  0  0
  -24.7220  -30.9900   22.0850 N   0  0  0  0  0  0  0  0  0  0  0  0
  -23.5380  -32.1490   23.6680 O   0  0  0  0  0  0  0  0  0  0  0  0
  -22.7290  -29.4660   22.5090 C   0  0  0  0  0  0  0  0  0  0  0  0
  -21.3940  -29.3220   22.3950 N   0  0  0  0  0  0  0  0  0  0  0  0
  -23.3870  -28.8370   23.3420 O   0  0  0  0  0  0  0  0  0  0  0  0
  -20.9140  -29.8790   21.7020 H   0  0  0  0  0  0  0  0  0  0  0  0
  -18.0010  -28.1430   22.9390 C   0  0  0  0  0  0  0  0  0  0  0  0
  -20.5650  -28.3940   23.1750 C   0  0  0  0  0  3  0  0  0  0  0  0
  -20.6490  -26.9590   22.6040 C   0  0  0  0  0  2  0  0  0  0  0  0
  -19.5360  -26.6440   21.5990 C   0  0  0  0  0  2  0  0  0  0  0  0
  -18.1620  -26.7950   22.2560 C   0  0  0  0  0  2  0  0  0  0  0  0
  -19.1280  -28.9000   23.3560 C   0  0  0  0  0  0  0  0  0  0  0  0
  -18.9190  -30.1590   23.9610 C   0  0  0  0  0  3  0  0  0  0  0  0
  -17.6170  -30.6610   24.1480 C   0  0  0  0  0  3  0  0  0  0  0  0
  -16.5050  -29.9030   23.7430 C   0  0  0  0  0  3  0  0  0  0  0  0
  -16.6980  -28.6450   23.1450 C   0  0  0  0  0  3  0  0  0  0  0  0
  -25.8940  -32.5010   23.7960 C   0  0  0  0  0  3  0  0  0  0  0  0
  -25.5630  -33.8970   24.1460 N   0  0  0  0  0  0  0  0  0  0  0  0
  -25.8760  -34.9720   23.4110 C   0  0  0  0  0  0  0  0  0  0  0  0
  -26.5320  -34.8950   22.3690 O   0  0  0  0  0  0  0  0  0  0  0  0
  -24.9750  -34.0280   24.9550 H   0  0  0  0  0  0  0  0  0  0  0  0
  -24.1240  -36.7640   23.1350 C   0  0  0  0  0  1  0  0  0  0  0  0
  -25.3900  -36.3510   23.9050 C   0  0  0  0  0  3  0  0  0  0  0  0
  -27.5350  -37.2500   24.6970 C   0  0  0  0  0  1  0  0  0  0  0  0
  -26.4080  -37.4180   23.7820 N   0  0  0  0  0  0  0  0  0  0  0  0
  -25.9970  -38.3310   23.9520 H   0  0  0  0  0  0  0  0  0  0  0  0
  -26.4050  -31.7360   25.0790 C   0  0  1  0  0  0  0  0  0  0  0  0
  -25.3080  -31.5010   26.1450 C   0  0  0  0  0  1  0  0  0  0  0  0
  -26.9930  -30.3570   24.7070 C   0  0  0  0  0  1  0  0  0  0  0  0
  -27.5510  -32.5350   25.7440 C   0  0  0  0  0  1  0  0  0  0  0  0
  1  3  1  0
  1  2  1  0
  2  5  1  0
  3 43  1  0
  3  2  1  0
  5  4  2  0
  6  5  1  0
  7  4  1  0
  8 13  1  0
  9 10  1  0
  9  8  1  0
 11 10  1  0
 11 18  1  0
 11 12  1  0
 13  7  1  0
 13 12  1  0
 14  7  2  0
 15 16  2  0
 16 35  1  0
 17 16  1  0
 17 20  1  0
 18 15  1  0
 18 19  1  0
 19 17  2  0
 20 21  1  0
 21 22  2  0
 23 26  1  0
 23 22  1  0
 24 23  2  0
 25 24  1  0
 25 20  2  0
 26 27  1  0
 27 28  1  0
 28 29  2  0
 30 29  1  0
 30 34  1  0
 31 30  2  0
 32 27  2  0
 32 31  1  0
 33 32  1  0
 35 36  1  0
 36 39  1  0
 36 38  1  0
 37 35  2  0
 40 41  1  0
 40 15  1  0
 42 40  1  0
 43 44  1  0
 45 56  2  0
 46 44  1  0
 46 51  1  0
 47 55  1  0
 47 57  1  0
 48 54  1  0
 48 50  1  0
 49 55  1  0
 50 51  2  0
 50 49  1  0
 52 46  2  0
 53 52  1  0
 53 48  2  0
 54 47  1  0
 55 45  1  0
 57 59  2  0
 58 57  1  0
 60 58  1  0
 61 70  2  0
 61 66  1  0
 62 58  1  0
 62 66  1  0
 63 62  1  0
 64 65  1  0
 64 63  1  0
 65 61  1  0
 66 67  2  0
 67 68  1  0
 69 68  2  0
 70 69  1  0
 71 45  1  0
 71 72  1  0
 71 81  1  0
 72 75  1  0
 73 77  1  0
 73 72  1  0
 74 73  2  0
 77 76  1  0
 79 77  1  0
 79 80  1  0
 79 78  1  0
 81 84  1  1
 81 82  1  0
 83 81  1  0
M  ISO  4   4 100   7 100  43 101  44 101
M  END
>  <TORSDO>  (47) 
F 18

>  <SCORE>  (47) 
-16.441

>  <name>  (47) 
47

>  <ligand_id>  (47) 
47

>  <original_smiles>  (47) 
[H]C(C(=O)N1C([H])([H])C([H])([H])C([H])([H])C([H])(n2nc(-c3c([H])c([H])c(Oc4c([H])c([H])c(F)c([H])c4F)c([H])c3[H])c(C(=O)N([H])[H])c2N([H])[H])C1([H])[H])=C(C([H])([H])[H])C1([H])C([H])([H])C1([H])C([H])([H])Oc1c([H])c([H])c2c(c1[H])C([H])([H])N(C(=O)C([H])(N([H])C(=O)C([H])(N([H])C([H])([H])[H])C([H])([H])[H])C(C([H])([H])[H])(C([H])([H])[H])C([H])([H])[H])C([H])(C(=O)N([H])C1([H])c3c([H])c([H])c([H])c([H])c3C([H])([H])C([H])([H])C1([H])[H])C2([H])[H]

>  <smiles>  (47) 
[H]C(C(=O)N1C([H])([H])C([H])([H])C([H])([H])C([H])(n2nc(-c3c([H])c([H])c(Oc4c([H])c([H])c(F)c([H])c4F)c([H])c3[H])c(C(=O)N([H])[H])c2N([H])[H])C1([H])[H])=C(C([H])([H])[H])C1([H])C([H])([H])C1([H])C([H])([H])Oc1c([H])c([H])c2c(c1[H])C([H])([H])N(C(=O)C([H])(N([H])C(=O)C([H])(N([H])C([H])([H])[H])C([H])([H])[H])C(C([H])([H])[H])(C([H])([H])[H])C([H])([H])[H])C([H])(C(=O)N([H])C1([H])c3c([H])c([H])c([H])c([H])c3C([H])([H])C([H])([H])C1([H])[H])C2([H])[H]

$$$$
48:0:0
     RDKit          3D

 93101  0  0  1  0  0  0  0  0999 V2000
  -29.5880  -21.4640   18.6870 C   0  0  0  0  0  1  0  0  0  0  0  0
  -27.5320  -21.1530   20.1550 C   0  0  0  0  0  1  0  0  0  0  0  0
  -29.0520  -21.4400   20.1360 C   0  0  1  0  0  0  0  0  0  0  0  0
  -29.8210  -20.3520   21.0160 C   0  0  0  0  0  0  0  0  0  0  0  0
  -29.7780  -16.8480   19.3950 C   0  0  0  0  0  2  0  0  0  0  0  0
  -30.9900  -16.7670   21.5150 C   0  0  0  0  0  2  0  0  0  0  0  0
  -29.0710  -18.1820   19.8250 C   0  0  0  0  0  2  0  0  0  0  0  0
  -30.2640  -18.0790   21.9570 C   0  0  0  0  0  2  0  0  0  0  0  0
  -30.1490  -15.8900   20.5630 C   0  0  0  0  0  3  0  0  0  0  0  0
  -29.7890  -18.9710   20.8570 N   0  0  0  0  0  0  0  0  0  0  0  0
  -30.4670  -20.8310   21.9590 O   0  0  0  0  0  0  0  0  0  0  0  0
  -30.8790  -14.5680   20.0780 C   0  0  0  0  0  0  0  0  0  0  0  0
  -30.5370  -12.4070   18.9130 C   0  0  0  0  0  2  0  0  0  0  0  0
  -29.5270  -12.6530   17.7690 C   0  0  0  0  0  2  0  0  0  0  0  0
  -28.0780  -12.5140   18.2760 C   0  0  0  0  0  2  0  0  0  0  0  0
  -27.8260  -13.3060   19.5880 C   0  0  0  0  0  3  0  0  0  0  0  0
  -28.9430  -13.0370   20.6190 C   0  0  0  0  0  2  0  0  0  0  0  0
  -30.2270  -13.3690   19.9890 N   0  0  0  0  0  0  0  0  0  0  0  0
  -32.0210  -14.6900   19.6210 O   0  0  0  0  0  0  0  0  0  0  0  0
  -25.4880  -13.9300   20.4530 C   0  0  0  0  0  0  0  0  0  0  0  0
  -24.4300  -13.1650   20.8660 C   0  0  0  0  0  0  0  0  0  0  0  0
  -24.8650  -11.8080   20.7800 C   0  0  0  0  0  0  0  0  0  0  0  0
  -26.5010  -13.0370   20.1400 N   0  0  0  0  0  0  0  0  0  0  0  0
  -26.1350  -11.7550   20.3960 N   0  0  0  0  0  0  0  0  0  0  0  0
  -24.1290  -10.5540   20.9840 C   0  0  0  0  0  0  0  0  0  0  0  0
  -24.5760   -9.5770   21.9020 C   0  0  0  0  0  3  0  0  0  0  0  0
  -23.8410   -8.3870   22.0950 C   0  0  0  0  0  3  0  0  0  0  0  0
  -22.6460   -8.1650   21.3710 C   0  0  0  0  0  0  0  0  0  0  0  0
  -22.2190   -9.1300   20.4420 C   0  0  0  0  0  3  0  0  0  0  0  0
  -22.9520  -10.3120   20.2460 C   0  0  0  0  0  3  0  0  0  0  0  0
  -21.8810   -7.0290   21.4740 O   0  0  0  0  0  0  0  0  0  0  0  0
  -21.8200   -6.3050   22.6380 C   0  0  0  0  0  0  0  0  0  0  0  0
  -21.3810   -6.8800   23.8500 C   0  0  0  0  0  3  0  0  0  0  0  0
  -21.2680   -6.0830   25.0080 C   0  0  0  0  0  3  0  0  0  0  0  0
  -21.5830   -4.7120   24.9510 C   0  0  0  0  0  0  0  0  0  0  0  0
  -22.0130   -4.1360   23.7420 C   0  0  0  0  0  3  0  0  0  0  0  0
  -22.1290   -4.9310   22.5890 C   0  0  0  0  0  0  0  0  0  0  0  0
  -22.5240   -4.3680   21.4220 F   0  0  0  0  0  0  0  0  0  0  0  0
  -21.4670   -3.9430   26.0590 F   0  0  0  0  0  0  0  0  0  0  0  0
  -23.0600  -13.6590   21.2280 C   0  0  0  0  0  0  0  0  0  0  0  0
  -22.3710  -12.9590   22.1240 N   0  0  0  0  0  0  0  0  0  0  0  0
  -22.6090  -14.7010   20.7540 O   0  0  0  0  0  0  0  0  0  0  0  0
  -22.7490  -12.1160   22.5310 H   0  0  0  0  0  0  0  0  0  0  0  0
  -21.4530  -13.2710   22.4060 H   0  0  0  0  0  0  0  0  0  0  0  0
  -25.6670  -15.3010   20.2970 N   0  0  0  0  0  0  0  0  0  0  0  0
  -24.9170  -15.9630   20.4610 H   0  0  0  0  0  0  0  0  0  0  0  0
  -26.5070  -15.7340   19.9350 H   0  0  0  0  0  0  0  0  0  0  0  0
  -29.3620  -22.8020   20.7440 N   0  0  0  0  0  4  0  0  0  0  0  0
  -29.4950  -22.5370   21.7130 H   0  0  0  0  0  0  0  0  0  0  0  0
  -30.2870  -23.0780   20.4540 H   0  0  0  0  0  0  0  0  0  0  0  0
  -28.4250  -24.0050   20.7360 C   0  0  0  0  0  2  0  0  0  0  0  0
  -28.7800  -25.1990   19.7630 C   0  0  0  0  0  2  0  0  0  0  0  0
  -28.6330  -26.5710   20.2660 O   0  0  0  0  0  0  0  0  0  0  0  0
  -24.6710  -31.7900   23.1600 C   0  0  0  0  0  0  0  0  0  0  0  0
  -27.4520  -27.3080   20.1770 C   0  0  0  0  0  0  0  0  0  0  0  0
  -23.5340  -30.3710   21.4860 C   0  0  0  0  0  3  0  0  0  0  0  0
  -25.0470  -28.8410   20.1040 C   0  0  0  0  0  0  0  0  0  0  0  0
  -26.0670  -30.7410   21.3700 C   0  0  0  0  0  2  0  0  0  0  0  0
  -26.1840  -29.3650   20.7290 C   0  0  0  0  0  0  0  0  0  0  0  0
  -27.3850  -28.6070   20.7570 C   0  0  0  0  0  3  0  0  0  0  0  0
  -26.2890  -26.8140   19.5420 C   0  0  0  0  0  3  0  0  0  0  0  0
  -25.0990  -27.5700   19.5050 C   0  0  0  0  0  3  0  0  0  0  0  0
  -23.7950  -29.6920   20.1140 C   0  0  0  0  0  2  0  0  0  0  0  0
  -24.7740  -30.9850   22.0630 N   0  0  0  0  0  0  0  0  0  0  0  0
  -23.5690  -32.0510   23.6650 O   0  0  0  0  0  0  0  0  0  0  0  0
  -22.8630  -29.3450   22.4290 C   0  0  0  0  0  0  0  0  0  0  0  0
  -21.5410  -29.1610   22.2770 N   0  0  0  0  0  0  0  0  0  0  0  0
  -23.5310  -28.7190   23.2560 O   0  0  0  0  0  0  0  0  0  0  0  0
  -21.0630  -29.7210   21.5850 H   0  0  0  0  0  0  0  0  0  0  0  0
  -18.1590  -27.9630   22.7200 C   0  0  0  0  0  0  0  0  0  0  0  0
  -20.7140  -28.2160   23.0260 C   0  0  0  0  0  3  0  0  0  0  0  0
  -20.8200  -26.7900   22.4350 C   0  0  0  0  0  2  0  0  0  0  0  0
  -19.7310  -26.4810   21.4040 C   0  0  0  0  0  2  0  0  0  0  0  0
  -18.3420  -26.6210   22.0320 C   0  0  0  0  0  2  0  0  0  0  0  0
  -19.2730  -28.7180   23.1740 C   0  0  0  0  0  0  0  0  0  0  0  0
  -19.0480  -29.9760   23.7770 C   0  0  0  0  0  3  0  0  0  0  0  0
  -17.7420  -30.4760   23.9310 C   0  0  0  0  0  3  0  0  0  0  0  0
  -16.6420  -29.7180   23.4940 C   0  0  0  0  0  3  0  0  0  0  0  0
  -16.8510  -28.4630   22.8950 C   0  0  0  0  0  3  0  0  0  0  0  0
  -25.9270  -32.4420   23.8180 C   0  0  0  0  0  3  0  0  0  0  0  0
  -26.4260  -31.6710   25.1020 C   0  0  1  0  0  0  0  0  0  0  0  0
  -25.3120  -31.4060   26.1410 C   0  0  0  0  0  1  0  0  0  0  0  0
  -27.0440  -30.3070   24.7150 C   0  0  0  0  0  1  0  0  0  0  0  0
  -27.5460  -32.4810   25.7970 C   0  0  0  0  0  1  0  0  0  0  0  0
  -25.5840  -33.8320   24.1510 N   0  0  0  0  0  0  0  0  0  0  0  0
  -25.9130  -34.8950   23.4060 C   0  0  0  0  0  0  0  0  0  0  0  0
  -26.6070  -34.8120   22.3880 O   0  0  0  0  0  0  0  0  0  0  0  0
  -24.9690  -33.9690   24.9390 H   0  0  0  0  0  0  0  0  0  0  0  0
  -24.1580  -36.6570   23.0270 C   0  0  0  0  0  1  0  0  0  0  0  0
  -25.3910  -36.2720   23.8610 C   0  0  0  0  0  3  0  0  0  0  0  0
  -27.4910  -37.1930   24.7400 C   0  0  0  0  0  1  0  0  0  0  0  0
  -26.4050  -37.3450   23.7740 N   0  0  0  0  0  0  0  0  0  0  0  0
  -25.9790  -38.2570   23.9170 H   0  0  0  0  0  0  0  0  0  0  0  0
  3  1  1  6
  3  2  1  0
  3 48  1  0
  3  4  1  0
  4 11  2  0
  5  7  1  0
  5  9  1  0
  6  8  1  0
  7 10  1  0
  9 12  1  0
  9  6  1  0
 10  4  1  0
 10  8  1  0
 13 18  1  0
 14 15  1  0
 14 13  1  0
 16 15  1  0
 16 23  1  0
 16 17  1  0
 18 12  1  0
 18 17  1  0
 19 12  2  0
 20 21  2  0
 21 40  1  0
 22 21  1  0
 22 25  1  0
 23 24  1  0
 23 20  1  0
 24 22  2  0
 25 26  1  0
 26 27  2  0
 28 31  1  0
 28 27  1  0
 29 28  2  0
 30 29  1  0
 30 25  2  0
 31 32  1  0
 32 33  1  0
 33 34  2  0
 35 34  1  0
 35 39  1  0
 36 35  2  0
 37 32  2  0
 37 36  1  0
 38 37  1  0
 40 41  1  0
 41 44  1  0
 41 43  1  0
 42 40  2  0
 45 20  1  0
 45 46  1  0
 47 45  1  0
 48 49  1  0
 50 48  1  0
 51 48  1  0
 52 53  1  0
 52 51  1  0
 54 65  2  0
 55 53  1  0
 55 60  1  0
 56 64  1  0
 56 66  1  0
 57 63  1  0
 57 59  1  0
 58 64  1  0
 59 60  2  0
 59 58  1  0
 61 55  2  0
 62 61  1  0
 62 57  2  0
 63 56  1  0
 64 54  1  0
 66 68  2  0
 67 66  1  0
 69 67  1  0
 70 79  2  0
 70 75  1  0
 71 67  1  0
 71 75  1  0
 72 71  1  0
 73 74  1  0
 73 72  1  0
 74 70  1  0
 75 76  2  0
 76 77  1  0
 78 77  2  0
 79 78  1  0
 80 54  1  0
 80 85  1  0
 80 81  1  0
 81 84  1  1
 81 82  1  0
 83 81  1  0
 85 88  1  0
 86 90  1  0
 86 85  1  0
 87 86  2  0
 90 89  1  0
 92 90  1  0
 92 93  1  0
 92 91  1  0
M  ISO  4   9 100  12 100  52 101  53 101
M  END
>  <TORSDO>  (48) 
F 20

>  <SCORE>  (48) 
-13.468

>  <name>  (48) 
48

>  <ligand_id>  (48) 
48

>  <original_smiles>  (48) 
[H]c1c([H])c([H])c2c(c1[H])C([H])([H])C([H])([H])C([H])([H])C2([H])N([H])C(=O)C1([H])N(C(=O)C([H])(N([H])C(=O)C([H])(N([H])C([H])([H])[H])C([H])([H])[H])C(C([H])([H])[H])(C([H])([H])[H])C([H])([H])[H])C([H])([H])c2c([H])c(OC([H])([H])C([H])([H])[N+]([H])([H])C(C(=O)N3C([H])([H])C([H])([H])C([H])(C(=O)N4C([H])([H])C([H])([H])C([H])([H])C([H])(n5nc(-c6c([H])c([H])c(Oc7c([H])c([H])c(F)c([H])c7F)c([H])c6[H])c(C(=O)N([H])[H])c5N([H])[H])C4([H])[H])C([H])([H])C3([H])[H])(C([H])([H])[H])C([H])([H])[H])c([H])c([H])c2C1([H])[H]

>  <smiles>  (48) 
[H]c1c([H])c([H])c2c(c1[H])C([H])([H])C([H])([H])C([H])([H])C2([H])N([H])C(=O)C1([H])N(C(=O)C([H])(N([H])C(=O)C([H])(N([H])C([H])([H])[H])C([H])([H])[H])C(C([H])([H])[H])(C([H])([H])[H])C([H])([H])[H])C([H])([H])c2c([H])c(OC([H])([H])C([H])([H])[N+]([H])([H])C(C(=O)N3C([H])([H])C([H])([H])C([H])(C(=O)N4C([H])([H])C([H])([H])C([H])([H])C([H])(n5nc(-c6c([H])c([H])c(Oc7c([H])c([H])c(F)c([H])c7F)c([H])c6[H])c(C(=O)N([H])[H])c5N([H])[H])C4([H])[H])C([H])([H])C3([H])[H])(C([H])([H])[H])C([H])([H])[H])c([H])c([H])c2C1([H])[H]

$$$$
49:0:0
     RDKit          3D

 85 93  0  0  1  0  0  0  0  0999 V2000
  -29.0210  -18.8780   20.0940 C   0  0  0  0  0  0  0  0  0  0  0  0
  -28.2560  -21.5020   18.6770 C   0  0  0  0  0  2  0  0  0  0  0  0
  -29.6850  -20.9720   18.8770 C   0  0  0  0  0  2  0  0  0  0  0  0
  -28.3160  -21.9960   20.1260 C   0  0  0  0  0  3  0  0  0  0  0  0
  -29.2550  -20.5160   20.1950 N   0  0  0  0  0  0  0  0  0  0  0  0
  -28.0060  -18.5800   19.4620 O   0  0  0  0  0  0  0  0  0  0  0  0
  -29.7800  -17.3410   20.7840 C   0  0  0  0  0  2  0  0  0  0  0  0
  -30.3270  -15.6310   20.2750 C   0  0  0  0  0  0  0  0  0  0  0  0
  -30.3940  -13.0800   19.4830 C   0  0  0  0  0  2  0  0  0  0  0  0
  -29.5170  -12.7330   18.2470 C   0  0  0  0  0  2  0  0  0  0  0  0
  -28.0770  -12.4050   18.6660 C   0  0  0  0  0  2  0  0  0  0  0  0
  -27.5730  -13.3900   19.7460 C   0  0  0  0  0  3  0  0  0  0  0  0
  -28.5930  -13.6700   20.8780 C   0  0  0  0  0  2  0  0  0  0  0  0
  -29.8000  -14.2650   20.2600 N   0  0  0  0  0  0  0  0  0  0  0  0
  -31.5220  -15.5290   19.9350 O   0  0  0  0  0  0  0  0  0  0  0  0
  -25.2000  -13.9120   20.4840 C   0  0  0  0  0  0  0  0  0  0  0  0
  -24.1420  -13.1280   20.8470 C   0  0  0  0  0  0  0  0  0  0  0  0
  -24.6180  -11.7810   20.8250 C   0  0  0  0  0  0  0  0  0  0  0  0
  -26.2500  -13.0460   20.2520 N   0  0  0  0  0  0  0  0  0  0  0  0
  -25.9150  -11.7560   20.5240 N   0  0  0  0  0  0  0  0  0  0  0  0
  -23.8940  -10.5150   21.0140 C   0  0  0  0  0  0  0  0  0  0  0  0
  -24.3150   -9.5540   21.9600 C   0  0  0  0  0  3  0  0  0  0  0  0
  -23.5870   -8.3580   22.1410 C   0  0  0  0  0  3  0  0  0  0  0  0
  -22.4230   -8.1130   21.3740 C   0  0  0  0  0  0  0  0  0  0  0  0
  -22.0210   -9.0620   20.4170 C   0  0  0  0  0  3  0  0  0  0  0  0
  -22.7500  -10.2490   20.2350 C   0  0  0  0  0  3  0  0  0  0  0  0
  -21.6680   -6.9690   21.4620 O   0  0  0  0  0  0  0  0  0  0  0  0
  -21.6010   -6.2360   22.6200 C   0  0  0  0  0  0  0  0  0  0  0  0
  -21.1450   -6.7990   23.8330 C   0  0  0  0  0  3  0  0  0  0  0  0
  -21.0270   -5.9930   24.9830 C   0  0  0  0  0  3  0  0  0  0  0  0
  -21.3540   -4.6250   24.9220 C   0  0  0  0  0  0  0  0  0  0  0  0
  -21.8010   -4.0620   23.7140 C   0  0  0  0  0  3  0  0  0  0  0  0
  -21.9230   -4.8650   22.5670 C   0  0  0  0  0  0  0  0  0  0  0  0
  -22.3340   -4.3110   21.4010 F   0  0  0  0  0  0  0  0  0  0  0  0
  -21.2330   -3.8490   26.0240 F   0  0  0  0  0  0  0  0  0  0  0  0
  -22.7380  -13.5980   21.0950 C   0  0  0  0  0  0  0  0  0  0  0  0
  -22.0020  -12.9040   21.9540 N   0  0  0  0  0  0  0  0  0  0  0  0
  -22.3040  -14.6190   20.5620 O   0  0  0  0  0  0  0  0  0  0  0  0
  -22.3660  -12.0790   22.4080 H   0  0  0  0  0  0  0  0  0  0  0  0
  -21.0590  -13.2020   22.1610 H   0  0  0  0  0  0  0  0  0  0  0  0
  -25.3540  -15.2840   20.3020 N   0  0  0  0  0  0  0  0  0  0  0  0
  -24.5810  -15.9320   20.4010 H   0  0  0  0  0  0  0  0  0  0  0  0
  -26.2030  -15.7300   19.9770 H   0  0  0  0  0  0  0  0  0  0  0  0
  -28.3680  -23.9340   19.8740 C   0  0  0  0  0  2  0  0  0  0  0  0
  -28.1390  -25.5770   20.4280 O   0  0  0  0  0  0  0  0  0  0  0  0
  -24.6060  -31.8410   23.1770 C   0  0  0  0  0  0  0  0  0  0  0  0
  -27.1730  -26.7710   20.2460 C   0  0  0  0  0  0  0  0  0  0  0  0
  -23.4350  -30.4290   21.5370 C   0  0  0  0  0  3  0  0  0  0  0  0
  -24.9000  -28.7790   20.1420 C   0  0  0  0  0  0  0  0  0  0  0  0
  -26.0110  -30.5800   21.4420 C   0  0  0  0  0  2  0  0  0  0  0  0
  -26.0820  -29.1470   20.7950 C   0  0  0  0  0  0  0  0  0  0  0  0
  -27.1980  -28.1640   20.8230 C   0  0  0  0  0  3  0  0  0  0  0  0
  -25.9680  -26.6090   19.5180 C   0  0  0  0  0  3  0  0  0  0  0  0
  -24.8810  -27.5370   19.4810 C   0  0  0  0  0  3  0  0  0  0  0  0
  -23.6880  -29.7230   20.1730 C   0  0  0  0  0  2  0  0  0  0  0  0
  -24.7070  -30.9840   22.1040 N   0  0  0  0  0  0  0  0  0  0  0  0
  -23.5070  -32.1440   23.6750 O   0  0  0  0  0  0  0  0  0  0  0  0
  -22.7120  -29.4560   22.5090 C   0  0  0  0  0  0  0  0  0  0  0  0
  -21.3790  -29.3150   22.3870 N   0  0  0  0  0  0  0  0  0  0  0  0
  -23.3650  -28.8270   23.3460 O   0  0  0  0  0  0  0  0  0  0  0  0
  -20.9030  -29.8750   21.6940 H   0  0  0  0  0  0  0  0  0  0  0  0
  -17.9780  -28.1500   22.9200 C   0  0  0  0  0  0  0  0  0  0  0  0
  -20.5450  -28.3880   23.1630 C   0  0  0  0  0  3  0  0  0  0  0  0
  -20.6230  -26.9540   22.5860 C   0  0  0  0  0  2  0  0  0  0  0  0
  -19.5100  -26.6490   21.5770 C   0  0  0  0  0  2  0  0  0  0  0  0
  -18.1340  -26.8050   22.2310 C   0  0  0  0  0  2  0  0  0  0  0  0
  -19.1080  -28.9000   23.3420 C   0  0  0  0  0  0  0  0  0  0  0  0
  -18.9040  -30.1580   23.9520 C   0  0  0  0  0  3  0  0  0  0  0  0
  -17.6040  -30.6650   24.1380 C   0  0  0  0  0  3  0  0  0  0  0  0
  -16.4900  -29.9140   23.7270 C   0  0  0  0  0  3  0  0  0  0  0  0
  -16.6780  -28.6580   23.1250 C   0  0  0  0  0  3  0  0  0  0  0  0
  -25.8630  -32.4990   23.8240 C   0  0  0  0  0  3  0  0  0  0  0  0
  -25.5360  -33.9010   24.1440 N   0  0  0  0  0  0  0  0  0  0  0  0
  -25.8810  -34.9640   23.4030 C   0  0  0  0  0  0  0  0  0  0  0  0
  -26.5670  -34.8660   22.3830 O   0  0  0  0  0  0  0  0  0  0  0  0
  -24.9290  -34.0500   24.9370 H   0  0  0  0  0  0  0  0  0  0  0  0
  -24.1640  -36.7730   23.0440 C   0  0  0  0  0  1  0  0  0  0  0  0
  -25.3930  -36.3540   23.8660 C   0  0  0  0  0  3  0  0  0  0  0  0
  -27.5170  -37.2350   24.7320 C   0  0  0  0  0  1  0  0  0  0  0  0
  -26.4300  -37.4060   23.7720 N   0  0  0  0  0  0  0  0  0  0  0  0
  -26.0230  -38.3260   23.9170 H   0  0  0  0  0  0  0  0  0  0  0  0
  -26.3470  -31.7530   25.1310 C   0  0  1  0  0  0  0  0  0  0  0  0
  -25.2280  -31.5430   26.1790 C   0  0  0  0  0  1  0  0  0  0  0  0
  -26.9360  -30.3650   24.7940 C   0  0  0  0  0  1  0  0  0  0  0  0
  -27.4830  -32.5600   25.8010 C   0  0  0  0  0  1  0  0  0  0  0  0
  1  5  1  0
  1  7  1  0
  2  3  1  0
  2  4  1  0
  3  5  1  0
  4 44  1  0
  4  5  1  0
  6  1  2  0
  8  7  1  0
  9 14  1  0
 10 11  1  0
 10  9  1  0
 12 11  1  0
 12 19  1  0
 12 13  1  0
 14  8  1  0
 14 13  1  0
 15  8  2  0
 16 17  2  0
 17 36  1  0
 18 17  1  0
 18 21  1  0
 19 16  1  0
 19 20  1  0
 20 18  2  0
 21 22  1  0
 22 23  2  0
 24 27  1  0
 24 23  1  0
 25 24  2  0
 26 25  1  0
 26 21  2  0
 27 28  1  0
 28 29  1  0
 29 30  2  0
 31 30  1  0
 31 35  1  0
 32 31  2  0
 33 28  2  0
 33 32  1  0
 34 33  1  0
 36 37  1  0
 37 40  1  0
 37 39  1  0
 38 36  2  0
 41 42  1  0
 41 16  1  0
 43 41  1  0
 44 45  1  0
 46 57  2  0
 47 45  1  0
 47 52  1  0
 48 56  1  0
 48 58  1  0
 49 55  1  0
 49 51  1  0
 50 56  1  0
 51 52  2  0
 51 50  1  0
 53 47  2  0
 54 53  1  0
 54 49  2  0
 55 48  1  0
 56 46  1  0
 58 60  2  0
 59 58  1  0
 61 59  1  0
 62 71  2  0
 62 67  1  0
 63 59  1  0
 63 67  1  0
 64 63  1  0
 65 66  1  0
 65 64  1  0
 66 62  1  0
 67 68  2  0
 68 69  1  0
 70 69  2  0
 71 70  1  0
 72 46  1  0
 72 73  1  0
 72 82  1  0
 73 76  1  0
 74 78  1  0
 74 73  1  0
 75 74  2  0
 78 77  1  0
 80 78  1  0
 80 81  1  0
 80 79  1  0
 82 85  1  1
 82 83  1  0
 84 82  1  0
M  ISO  4   7 100   8 100  44 101  45 101
M  END
>  <TORSDO>  (49) 
F 18

>  <SCORE>  (49) 
-16.522

>  <name>  (49) 
49

>  <ligand_id>  (49) 
49

>  <original_smiles>  (49) 
[H]c1c([H])c([H])c2c(c1[H])C([H])([H])C([H])([H])C([H])([H])C2([H])N([H])C(=O)C1([H])N(C(=O)C([H])(N([H])C(=O)C([H])(N([H])C([H])([H])[H])C([H])([H])[H])C(C([H])([H])[H])(C([H])([H])[H])C([H])([H])[H])C([H])([H])c2c([H])c(OC([H])([H])C3([H])N(C(=O)C([H])([H])C(=O)N4C([H])([H])C([H])([H])C([H])([H])C([H])(n5nc(-c6c([H])c([H])c(Oc7c([H])c([H])c(F)c([H])c7F)c([H])c6[H])c(C(=O)N([H])[H])c5N([H])[H])C4([H])[H])C([H])([H])C3([H])[H])c([H])c([H])c2C1([H])[H]

>  <smiles>  (49) 
[H]c1c([H])c([H])c2c(c1[H])C([H])([H])C([H])([H])C([H])([H])C2([H])N([H])C(=O)C1([H])N(C(=O)C([H])(N([H])C(=O)C([H])(N([H])C([H])([H])[H])C([H])([H])[H])C(C([H])([H])[H])(C([H])([H])[H])C([H])([H])[H])C([H])([H])c2c([H])c(OC([H])([H])C3([H])N(C(=O)C([H])([H])C(=O)N4C([H])([H])C([H])([H])C([H])([H])C([H])(n5nc(-c6c([H])c([H])c(Oc7c([H])c([H])c(F)c([H])c7F)c([H])c6[H])c(C(=O)N([H])[H])c5N([H])[H])C4([H])[H])C([H])([H])C3([H])[H])c([H])c([H])c2C1([H])[H]

$$$$
50:0:0
     RDKit          3D

 87 96  0  0  1  0  0  0  0  0999 V2000
  -29.6250  -22.7880   20.8120 C   0  0  0  0  0  3  0  0  0  0  0  0
  -29.5540  -21.3010   21.1330 C   0  0  0  0  0  3  0  0  0  0  0  0
  -29.4660  -22.7450   19.2920 C   0  0  0  0  0  3  0  0  0  0  0  0
  -29.4170  -20.8610   19.7020 C   0  0  0  0  0  3  0  0  0  0  0  0
  -28.6090  -22.2740   21.8150 C   0  0  2  0  0  0  0  0  0  0  0  0
  -27.1230  -22.2670   21.4900 C   0  0  0  0  0  1  0  0  0  0  0  0
  -28.8140  -22.5750   23.2870 C   0  0  0  0  0  1  0  0  0  0  0  0
  -30.2330  -17.9540   19.8410 C   0  0  0  0  0  3  0  0  0  0  0  0
  -30.3990  -19.3970   19.5550 N   0  0  0  0  0  0  0  0  0  0  0  0
  -31.1200  -16.2830   19.7810 C   0  0  0  0  0  0  0  0  0  0  0  0
  -31.2110  -13.7060   19.1340 C   0  0  0  0  0  2  0  0  0  0  0  0
  -30.3020  -13.2810   17.9460 C   0  0  0  0  0  2  0  0  0  0  0  0
  -28.8810  -12.9530   18.4310 C   0  0  0  0  0  2  0  0  0  0  0  0
  -28.3860  -13.9950   19.4590 C   0  0  0  0  0  3  0  0  0  0  0  0
  -29.4300  -14.3500   20.5420 C   0  0  0  0  0  2  0  0  0  0  0  0
  -30.6110  -14.9170   19.8550 N   0  0  0  0  0  0  0  0  0  0  0  0
  -32.3420  -16.2260   19.5350 O   0  0  0  0  0  0  0  0  0  0  0  0
  -26.0620  -14.5410   20.3280 C   0  0  0  0  0  0  0  0  0  0  0  0
  -25.0100  -13.7670   20.7230 C   0  0  0  0  0  0  0  0  0  0  0  0
  -25.4640  -12.4130   20.6510 C   0  0  0  0  0  0  0  0  0  0  0  0
  -27.0860  -13.6640   20.0230 N   0  0  0  0  0  0  0  0  0  0  0  0
  -26.7430  -12.3750   20.2880 N   0  0  0  0  0  0  0  0  0  0  0  0
  -24.7300  -11.1560   20.8470 C   0  0  0  0  0  0  0  0  0  0  0  0
  -25.0810  -10.2430   21.8660 C   0  0  0  0  0  3  0  0  0  0  0  0
  -24.3420   -9.0530   22.0490 C   0  0  0  0  0  3  0  0  0  0  0  0
  -23.2390   -8.7670   21.2100 C   0  0  0  0  0  0  0  0  0  0  0  0
  -22.9080   -9.6670   20.1830 C   0  0  0  0  0  3  0  0  0  0  0  0
  -23.6460  -10.8480   19.9990 C   0  0  0  0  0  3  0  0  0  0  0  0
  -22.4810   -7.6240   21.2970 O   0  0  0  0  0  0  0  0  0  0  0  0
  -22.1110   -7.0940   22.5070 C   0  0  0  0  0  0  0  0  0  0  0  0
  -21.3270   -7.8220   23.4300 C   0  0  0  0  0  3  0  0  0  0  0  0
  -20.9100   -7.2150   24.6310 C   0  0  0  0  0  3  0  0  0  0  0  0
  -21.2660   -5.8830   24.9090 C   0  0  0  0  0  0  0  0  0  0  0  0
  -22.0420   -5.1550   23.9890 C   0  0  0  0  0  3  0  0  0  0  0  0
  -22.4600   -5.7590   22.7900 C   0  0  0  0  0  0  0  0  0  0  0  0
  -23.1890   -5.0460   21.8980 F   0  0  0  0  0  0  0  0  0  0  0  0
  -20.8610   -5.2970   26.0600 F   0  0  0  0  0  0  0  0  0  0  0  0
  -23.6290  -14.2540   21.0480 C   0  0  0  0  0  0  0  0  0  0  0  0
  -22.9370  -13.5750   21.9540 N   0  0  0  0  0  0  0  0  0  0  0  0
  -23.1750  -15.2750   20.5320 O   0  0  0  0  0  0  0  0  0  0  0  0
  -23.3190  -12.7490   22.3920 H   0  0  0  0  0  0  0  0  0  0  0  0
  -22.0110  -13.8860   22.2160 H   0  0  0  0  0  0  0  0  0  0  0  0
  -26.2300  -15.9140   20.1670 N   0  0  0  0  0  0  0  0  0  0  0  0
  -25.4710  -16.5680   20.3190 H   0  0  0  0  0  0  0  0  0  0  0  0
  -27.0590  -16.3520   19.7860 H   0  0  0  0  0  0  0  0  0  0  0  0
  -28.5600  -24.4490   19.0390 C   0  0  0  0  0  2  0  0  0  0  0  0
  -28.6300  -26.1690   19.3190 O   0  0  0  0  0  0  0  0  0  0  0  0
  -24.5540  -31.5610   23.0720 C   0  0  0  0  0  0  0  0  0  0  0  0
  -27.5490  -27.2680   19.4120 C   0  0  0  0  0  0  0  0  0  0  0  0
  -23.5040  -30.3230   21.2250 C   0  0  0  0  0  3  0  0  0  0  0  0
  -25.1020  -29.0480   19.6110 C   0  0  0  0  0  0  0  0  0  0  0  0
  -26.0570  -30.7240   21.1710 C   0  0  0  0  0  2  0  0  0  0  0  0
  -26.2550  -29.4220   20.3100 C   0  0  0  0  0  0  0  0  0  0  0  0
  -27.4620  -28.5620   20.1840 C   0  0  0  0  0  3  0  0  0  0  0  0
  -26.3450  -27.0960   18.6850 C   0  0  0  0  0  3  0  0  0  0  0  0
  -25.1810  -27.9170   18.7790 C   0  0  0  0  0  3  0  0  0  0  0  0
  -23.8120  -29.8650   19.7710 C   0  0  0  0  0  2  0  0  0  0  0  0
  -24.7260  -30.8950   21.8800 N   0  0  0  0  0  0  0  0  0  0  0  0
  -23.4360  -31.6820   23.6040 O   0  0  0  0  0  0  0  0  0  0  0  0
  -22.8790  -29.1500   22.0270 C   0  0  0  0  0  0  0  0  0  0  0  0
  -21.5670  -28.8960   21.8570 N   0  0  0  0  0  0  0  0  0  0  0  0
  -23.5860  -28.4720   22.7770 O   0  0  0  0  0  0  0  0  0  0  0  0
  -21.0420  -29.5010   21.2400 H   0  0  0  0  0  0  0  0  0  0  0  0
  -18.3010  -27.3290   22.1290 C   0  0  0  0  0  0  0  0  0  0  0  0
  -20.8260  -27.7860   22.4670 C   0  0  0  0  0  3  0  0  0  0  0  0
  -21.0580  -26.4690   21.6900 C   0  0  0  0  0  2  0  0  0  0  0  0
  -19.9930  -26.2030   20.6210 C   0  0  0  0  0  2  0  0  0  0  0  0
  -18.6030  -26.1220   21.2580 C   0  0  0  0  0  2  0  0  0  0  0  0
  -19.3430  -28.1190   22.6840 C   0  0  0  0  0  0  0  0  0  0  0  0
  -19.0040  -29.2470   23.4640 C   0  0  0  0  0  3  0  0  0  0  0  0
  -17.6570  -29.5880   23.6900 C   0  0  0  0  0  3  0  0  0  0  0  0
  -16.6300  -28.7960   23.1480 C   0  0  0  0  0  3  0  0  0  0  0  0
  -16.9530  -27.6670   22.3730 C   0  0  0  0  0  3  0  0  0  0  0  0
  -25.7510  -32.2180   23.8240 C   0  0  0  0  0  3  0  0  0  0  0  0
  -25.3810  -33.6100   24.1510 N   0  0  0  0  0  0  0  0  0  0  0  0
  -25.7060  -34.6860   23.4230 C   0  0  0  0  0  0  0  0  0  0  0  0
  -26.4060  -34.6140   22.4100 O   0  0  0  0  0  0  0  0  0  0  0  0
  -24.7590  -33.7360   24.9360 H   0  0  0  0  0  0  0  0  0  0  0  0
  -23.9200  -36.4310   23.0830 C   0  0  0  0  0  1  0  0  0  0  0  0
  -25.1760  -36.0590   23.8880 C   0  0  0  0  0  3  0  0  0  0  0  0
  -27.2650  -37.0330   24.7390 C   0  0  0  0  0  1  0  0  0  0  0  0
  -26.1710  -37.1480   23.7770 N   0  0  0  0  0  0  0  0  0  0  0  0
  -25.7310  -38.0540   23.9060 H   0  0  0  0  0  0  0  0  0  0  0  0
  -26.1500  -31.4460   25.1440 C   0  0  1  0  0  0  0  0  0  0  0  0
  -24.9650  -31.1990   26.1050 C   0  0  0  0  0  1  0  0  0  0  0  0
  -26.7770  -30.0730   24.8150 C   0  0  0  0  0  1  0  0  0  0  0  0
  -27.2310  -32.2460   25.9110 C   0  0  0  0  0  1  0  0  0  0  0  0
  1  2  1  0
  1  5  1  0
  2  5  1  0
  3 46  1  0
  3  4  1  0
  3  1  1  0
  4  9  1  0
  4  2  1  0
  5  7  1  1
  6  5  1  0
  9  8  2  0
 10  8  1  0
 10 16  1  0
 11 16  1  0
 12 13  1  0
 12 11  1  0
 14 13  1  0
 14 21  1  0
 14 15  1  0
 16 15  1  0
 17 10  2  0
 18 19  2  0
 19 38  1  0
 20 19  1  0
 20 23  1  0
 21 22  1  0
 21 18  1  0
 22 20  2  0
 23 24  1  0
 24 25  2  0
 26 29  1  0
 26 25  1  0
 27 26  2  0
 28 27  1  0
 28 23  2  0
 29 30  1  0
 30 35  2  0
 30 31  1  0
 31 32  2  0
 32 33  1  0
 33 37  1  0
 34 33  2  0
 35 34  1  0
 36 35  1  0
 38 39  1  0
 39 42  1  0
 39 41  1  0
 40 38  2  0
 43 44  1  0
 43 18  1  0
 45 43  1  0
 46 47  1  0
 47 49  1  0
 48 59  2  0
 49 54  1  0
 50 58  1  0
 50 60  1  0
 51 57  1  0
 51 53  1  0
 52 58  1  0
 53 52  1  0
 54 53  2  0
 55 56  1  0
 55 49  2  0
 56 51  2  0
 57 50  1  0
 58 48  1  0
 60 62  2  0
 61 60  1  0
 63 61  1  0
 64 73  2  0
 64 69  1  0
 65 61  1  0
 65 69  1  0
 66 65  1  0
 67 68  1  0
 67 66  1  0
 68 64  1  0
 69 70  2  0
 70 71  1  0
 72 71  2  0
 73 72  1  0
 74 48  1  0
 74 75  1  0
 74 84  1  0
 75 78  1  0
 76 80  1  0
 76 75  1  0
 77 76  2  0
 80 79  1  0
 82 80  1  0
 82 83  1  0
 82 81  1  0
 84 87  1  1
 84 85  1  0
 86 84  1  0
M  ISO  4   8 100  10 100  46 101  47 101
M  END
>  <TORSDO>  (50) 
F 18

>  <SCORE>  (50) 
-12.606

>  <name>  (50) 
50

>  <ligand_id>  (50) 
50

>  <original_smiles>  (50) 
[H]C(=NC1([H])C([H])(C([H])([H])Oc2c([H])c([H])c3c(c2[H])C([H])([H])N(C(=O)C([H])(N([H])C(=O)C([H])(N([H])C([H])([H])[H])C([H])([H])[H])C(C([H])([H])[H])(C([H])([H])[H])C([H])([H])[H])C([H])(C(=O)N([H])C2([H])c4c([H])c([H])c([H])c([H])c4C([H])([H])C([H])([H])C2([H])[H])C3([H])[H])C2([H])C1([H])C2(C([H])([H])[H])C([H])([H])[H])C(=O)N1C([H])([H])C([H])([H])C([H])([H])C([H])(n2nc(-c3c([H])c([H])c(Oc4c([H])c([H])c(F)c([H])c4F)c([H])c3[H])c(C(=O)N([H])[H])c2N([H])[H])C1([H])[H]

>  <smiles>  (50) 
[H]C(=NC1([H])C([H])(C([H])([H])Oc2c([H])c([H])c3c(c2[H])C([H])([H])N(C(=O)C([H])(N([H])C(=O)C([H])(N([H])C([H])([H])[H])C([H])([H])[H])C(C([H])([H])[H])(C([H])([H])[H])C([H])([H])[H])C([H])(C(=O)N([H])C2([H])c4c([H])c([H])c([H])c([H])c4C([H])([H])C([H])([H])C2([H])[H])C3([H])[H])C2([H])C1([H])C2(C([H])([H])[H])C([H])([H])[H])C(=O)N1C([H])([H])C([H])([H])C([H])([H])C([H])(n2nc(-c3c([H])c([H])c(Oc4c([H])c([H])c(F)c([H])c4F)c([H])c3[H])c(C(=O)N([H])[H])c2N([H])[H])C1([H])[H]

$$$$
51:0:0
     RDKit          3D

 86 94  0  0  1  0  0  0  0  0999 V2000
  -30.6280  -21.8010   21.8760 C   0  0  0  0  0  3  0  0  0  0  0  0
  -30.4630  -20.4340   21.5130 C   0  0  0  0  0  3  0  0  0  0  0  0
  -29.8230  -22.8660   21.4010 C   0  0  0  0  0  3  0  0  0  0  0  0
  -28.6560  -21.1530   20.1230 C   0  0  0  0  0  3  0  0  0  0  0  0
  -29.4940  -19.9270   20.6140 C   0  0  0  0  0  0  0  0  0  0  0  0
  -28.7680  -22.6710   20.4970 C   0  0  0  0  0  0  0  0  0  0  0  0
  -29.8790  -18.2580   20.3120 C   0  0  0  0  0  3  0  0  0  0  0  0
  -29.5560  -16.8270   20.5630 C   0  0  0  0  0  3  0  0  0  0  0  0
  -30.3490  -15.3970   20.3150 C   0  0  0  0  0  0  0  0  0  0  0  0
  -30.3720  -12.9090   19.4850 C   0  0  0  0  0  2  0  0  0  0  0  0
  -29.4790  -12.6730   18.2360 C   0  0  0  0  0  2  0  0  0  0  0  0
  -28.0220  -12.3950   18.6490 C   0  0  0  0  0  2  0  0  0  0  0  0
  -27.5460  -13.3630   19.7570 C   0  0  0  0  0  3  0  0  0  0  0  0
  -28.5690  -13.5460   20.8910 C   0  0  0  0  0  2  0  0  0  0  0  0
  -29.8090  -14.0680   20.2950 N   0  0  0  0  0  0  0  0  0  0  0  0
  -31.5590  -15.3640   20.0500 O   0  0  0  0  0  0  0  0  0  0  0  0
  -25.1600  -13.8920   20.4840 C   0  0  0  0  0  0  0  0  0  0  0  0
  -24.1020  -13.1090   20.8490 C   0  0  0  0  0  0  0  0  0  0  0  0
  -24.5840  -11.7640   20.8360 C   0  0  0  0  0  0  0  0  0  0  0  0
  -26.2170  -13.0310   20.2560 N   0  0  0  0  0  0  0  0  0  0  0  0
  -25.8800  -11.7430   20.5350 N   0  0  0  0  0  0  0  0  0  0  0  0
  -23.8650  -10.4960   21.0290 C   0  0  0  0  0  0  0  0  0  0  0  0
  -24.3010   -9.5310   21.9680 C   0  0  0  0  0  3  0  0  0  0  0  0
  -23.5790   -8.3320   22.1520 C   0  0  0  0  0  3  0  0  0  0  0  0
  -22.4070   -8.0860   21.3980 C   0  0  0  0  0  0  0  0  0  0  0  0
  -21.9890   -9.0350   20.4490 C   0  0  0  0  0  3  0  0  0  0  0  0
  -22.7140  -10.2260   20.2610 C   0  0  0  0  0  3  0  0  0  0  0  0
  -21.6600   -6.9360   21.4830 O   0  0  0  0  0  0  0  0  0  0  0  0
  -21.6140   -6.1920   22.6350 C   0  0  0  0  0  0  0  0  0  0  0  0
  -21.1870   -6.7460   23.8630 C   0  0  0  0  0  3  0  0  0  0  0  0
  -21.0920   -5.9310   25.0080 C   0  0  0  0  0  3  0  0  0  0  0  0
  -21.4120   -4.5640   24.9280 C   0  0  0  0  0  0  0  0  0  0  0  0
  -21.8330   -4.0090   23.7060 C   0  0  0  0  0  3  0  0  0  0  0  0
  -21.9310   -4.8210   22.5620 C   0  0  0  0  0  0  0  0  0  0  0  0
  -22.3160   -4.2780   21.3810 F   0  0  0  0  0  0  0  0  0  0  0  0
  -21.3150   -3.7790   26.0240 F   0  0  0  0  0  0  0  0  0  0  0  0
  -22.6940  -13.5690   21.0950 C   0  0  0  0  0  0  0  0  0  0  0  0
  -21.9600  -12.8770   21.9580 N   0  0  0  0  0  0  0  0  0  0  0  0
  -22.2560  -14.5840   20.5540 O   0  0  0  0  0  0  0  0  0  0  0  0
  -22.3260  -12.0570   22.4170 H   0  0  0  0  0  0  0  0  0  0  0  0
  -21.0170  -13.1700   22.1670 H   0  0  0  0  0  0  0  0  0  0  0  0
  -25.3110  -15.2630   20.2980 N   0  0  0  0  0  0  0  0  0  0  0  0
  -24.5340  -15.9070   20.3930 H   0  0  0  0  0  0  0  0  0  0  0  0
  -26.1530  -15.7140   19.9650 H   0  0  0  0  0  0  0  0  0  0  0  0
  -27.8750  -24.1460   20.1010 C   0  0  0  0  0  2  0  0  0  0  0  0
  -28.1270  -25.7820   20.3750 O   0  0  0  0  0  0  0  0  0  0  0  0
  -24.6340  -31.8820   23.2540 C   0  0  0  0  0  0  0  0  0  0  0  0
  -27.1500  -26.9260   20.2760 C   0  0  0  0  0  0  0  0  0  0  0  0
  -23.4360  -30.4830   21.6230 C   0  0  0  0  0  3  0  0  0  0  0  0
  -24.8750  -28.8580   20.2060 C   0  0  0  0  0  0  0  0  0  0  0  0
  -26.0050  -30.6650   21.4860 C   0  0  0  0  0  2  0  0  0  0  0  0
  -26.0660  -29.2460   20.8320 C   0  0  0  0  0  0  0  0  0  0  0  0
  -27.1950  -28.3000   20.8440 C   0  0  0  0  0  3  0  0  0  0  0  0
  -25.9330  -26.7050   19.5930 C   0  0  0  0  0  3  0  0  0  0  0  0
  -24.8390  -27.6120   19.5620 C   0  0  0  0  0  3  0  0  0  0  0  0
  -23.6640  -29.7960   20.2480 C   0  0  0  0  0  2  0  0  0  0  0  0
  -24.7150  -31.0380   22.1740 N   0  0  0  0  0  0  0  0  0  0  0  0
  -23.5450  -32.1810   23.7700 O   0  0  0  0  0  0  0  0  0  0  0  0
  -22.7280  -29.5020   22.5930 C   0  0  0  0  0  0  0  0  0  0  0  0
  -21.3990  -29.3460   22.4660 N   0  0  0  0  0  0  0  0  0  0  0  0
  -23.3830  -28.8790   23.4310 O   0  0  0  0  0  0  0  0  0  0  0  0
  -20.9210  -29.8970   21.7680 H   0  0  0  0  0  0  0  0  0  0  0  0
  -18.0060  -28.1430   22.9610 C   0  0  0  0  0  0  0  0  0  0  0  0
  -20.5670  -28.4190   23.2410 C   0  0  0  0  0  3  0  0  0  0  0  0
  -20.6750  -26.9790   22.6870 C   0  0  0  0  0  2  0  0  0  0  0  0
  -19.5820  -26.6410   21.6670 C   0  0  0  0  0  2  0  0  0  0  0  0
  -18.1940  -26.7850   22.2970 C   0  0  0  0  0  2  0  0  0  0  0  0
  -19.1200  -28.9140   23.3890 C   0  0  0  0  0  0  0  0  0  0  0  0
  -18.8920  -30.1780   23.9770 C   0  0  0  0  0  3  0  0  0  0  0  0
  -17.5850  -30.6740   24.1320 C   0  0  0  0  0  3  0  0  0  0  0  0
  -16.4870  -29.9010   23.7200 C   0  0  0  0  0  3  0  0  0  0  0  0
  -16.6980  -28.6360   23.1420 C   0  0  0  0  0  3  0  0  0  0  0  0
  -25.9050  -32.5250   23.8860 C   0  0  0  0  0  3  0  0  0  0  0  0
  -25.5920  -33.9240   24.2210 N   0  0  0  0  0  0  0  0  0  0  0  0
  -25.9040  -34.9860   23.4640 C   0  0  0  0  0  0  0  0  0  0  0  0
  -26.5480  -34.8890   22.4190 O   0  0  0  0  0  0  0  0  0  0  0  0
  -25.0110  -34.0700   25.0340 H   0  0  0  0  0  0  0  0  0  0  0  0
  -24.1510  -36.7760   23.1890 C   0  0  0  0  0  1  0  0  0  0  0  0
  -25.4300  -36.3770   23.9430 C   0  0  0  0  0  3  0  0  0  0  0  0
  -27.5870  -37.2860   24.6810 C   0  0  0  0  0  1  0  0  0  0  0  0
  -26.4520  -37.4350   23.7780 N   0  0  0  0  0  0  0  0  0  0  0  0
  -26.0480  -38.3570   23.9210 H   0  0  0  0  0  0  0  0  0  0  0  0
  -26.4030  -31.7620   25.1770 C   0  0  1  0  0  0  0  0  0  0  0  0
  -25.3000  -31.5440   26.2400 C   0  0  0  0  0  1  0  0  0  0  0  0
  -26.9810  -30.3760   24.8140 C   0  0  0  0  0  1  0  0  0  0  0  0
  -27.5550  -32.5560   25.8410 C   0  0  0  0  0  1  0  0  0  0  0  0
  2  1  1  0
  3  1  2  0
  4  6  2  0
  4  5  1  0
  5  2  2  0
  6  3  1  0
  7  8  2  0
  7  5  1  0
  9  8  1  0
 10 15  1  0
 11 12  1  0
 11 10  1  0
 13 12  1  0
 13 20  1  0
 13 14  1  0
 15  9  1  0
 15 14  1  0
 16  9  2  0
 17 18  2  0
 18 37  1  0
 19 18  1  0
 19 22  1  0
 20 17  1  0
 20 21  1  0
 21 19  2  0
 22 23  1  0
 23 24  2  0
 25 28  1  0
 25 24  1  0
 26 25  2  0
 27 26  1  0
 27 22  2  0
 28 29  1  0
 29 30  1  0
 30 31  2  0
 32 31  1  0
 32 36  1  0
 33 32  2  0
 34 29  2  0
 34 33  1  0
 35 34  1  0
 37 38  1  0
 38 41  1  0
 38 40  1  0
 39 37  2  0
 42 43  1  0
 42 17  1  0
 44 42  1  0
 45 46  1  0
 45  6  1  0
 47 58  2  0
 48 46  1  0
 48 53  1  0
 49 57  1  0
 49 59  1  0
 50 56  1  0
 50 52  1  0
 51 57  1  0
 52 53  2  0
 52 51  1  0
 54 48  2  0
 55 54  1  0
 55 50  2  0
 56 49  1  0
 57 47  1  0
 59 61  2  0
 60 59  1  0
 62 60  1  0
 63 72  2  0
 63 68  1  0
 64 60  1  0
 64 68  1  0
 65 64  1  0
 66 67  1  0
 66 65  1  0
 67 63  1  0
 68 69  2  0
 69 70  1  0
 71 70  2  0
 72 71  1  0
 73 47  1  0
 73 74  1  0
 73 83  1  0
 74 77  1  0
 75 79  1  0
 75 74  1  0
 76 75  2  0
 79 78  1  0
 81 82  1  0
 81 79  1  0
 81 80  1  0
 83 86  1  1
 83 84  1  0
 85 83  1  0
M  ISO  4   8 100   9 100  45 101  46 101
M  END
>  <TORSDO>  (51) 
F 18

>  <SCORE>  (51) 
-16.147

>  <name>  (51) 
51

>  <ligand_id>  (51) 
51

>  <original_smiles>  (51) 
[H]C(C(=O)N1C([H])([H])C([H])([H])C([H])([H])C([H])(n2nc(-c3c([H])c([H])c(Oc4c([H])c([H])c(F)c([H])c4F)c([H])c3[H])c(C(=O)N([H])[H])c2N([H])[H])C1([H])[H])=C([H])c1c([H])c([H])c([H])c(C([H])([H])Oc2c([H])c([H])c3c(c2[H])C([H])([H])N(C(=O)C([H])(N([H])C(=O)C([H])(N([H])C([H])([H])[H])C([H])([H])[H])C(C([H])([H])[H])(C([H])([H])[H])C([H])([H])[H])C([H])(C(=O)N([H])C2([H])c4c([H])c([H])c([H])c([H])c4C([H])([H])C([H])([H])C2([H])[H])C3([H])[H])c1[H]

>  <smiles>  (51) 
[H]C(C(=O)N1C([H])([H])C([H])([H])C([H])([H])C([H])(n2nc(-c3c([H])c([H])c(Oc4c([H])c([H])c(F)c([H])c4F)c([H])c3[H])c(C(=O)N([H])[H])c2N([H])[H])C1([H])[H])=C([H])c1c([H])c([H])c([H])c(C([H])([H])Oc2c([H])c([H])c3c(c2[H])C([H])([H])N(C(=O)C([H])(N([H])C(=O)C([H])(N([H])C([H])([H])[H])C([H])([H])[H])C(C([H])([H])[H])(C([H])([H])[H])C([H])([H])[H])C([H])(C(=O)N([H])C2([H])c4c([H])c([H])c([H])c([H])c4C([H])([H])C([H])([H])C2([H])[H])C3([H])[H])c1[H]

$$$$
52:0:0
     RDKit          3D

 89 96  0  0  1  0  0  0  0  0999 V2000
  -29.4030  -21.1750   20.8500 N   0  0  0  0  0  4  0  0  0  0  0  0
  -28.6580  -20.9540   21.4920 H   0  0  0  0  0  0  0  0  0  0  0  0
  -30.1820  -21.4810   21.4090 H   0  0  0  0  0  0  0  0  0  0  0  0
  -31.1050  -20.0730   19.3500 C   0  0  0  0  0  1  0  0  0  0  0  0
  -29.8110  -19.8650   20.1670 C   0  0  0  0  0  3  0  0  0  0  0  0
  -30.8010  -18.9000   22.3650 C   0  0  0  0  0  1  0  0  0  0  0  0
  -29.9370  -18.5720   21.1310 C   0  0  0  0  0  3  0  0  0  0  0  0
  -30.0130  -15.9270   20.7230 C   0  0  0  0  0  3  0  0  0  0  0  0
  -30.4890  -17.2120   20.5490 C   0  0  0  0  0  3  0  0  0  0  0  0
  -30.7230  -14.7100   20.2080 C   0  0  0  0  0  0  0  0  0  0  0  0
  -30.3960  -12.5050   19.0970 C   0  0  0  0  0  2  0  0  0  0  0  0
  -29.4220  -12.6800   17.9120 C   0  0  0  0  0  2  0  0  0  0  0  0
  -27.9590  -12.5440   18.3750 C   0  0  0  0  0  2  0  0  0  0  0  0
  -27.6590  -13.3700   19.6560 C   0  0  0  0  0  3  0  0  0  0  0  0
  -28.7500  -13.1710   20.7280 C   0  0  0  0  0  2  0  0  0  0  0  0
  -30.0450  -13.5140   20.1220 N   0  0  0  0  0  0  0  0  0  0  0  0
  -31.8690  -14.7830   19.7550 O   0  0  0  0  0  0  0  0  0  0  0  0
  -25.2920  -13.9780   20.4430 C   0  0  0  0  0  0  0  0  0  0  0  0
  -24.2290  -13.2100   20.8380 C   0  0  0  0  0  0  0  0  0  0  0  0
  -24.6810  -11.8560   20.7890 C   0  0  0  0  0  0  0  0  0  0  0  0
  -26.3230  -13.0930   20.1760 N   0  0  0  0  0  0  0  0  0  0  0  0
  -25.9640  -11.8110   20.4450 N   0  0  0  0  0  0  0  0  0  0  0  0
  -23.9500  -10.5980   20.9940 C   0  0  0  0  0  0  0  0  0  0  0  0
  -24.4030   -9.6220   21.9080 C   0  0  0  0  0  3  0  0  0  0  0  0
  -23.6740   -8.4290   22.1030 C   0  0  0  0  0  3  0  0  0  0  0  0
  -22.4770   -8.2040   21.3820 C   0  0  0  0  0  0  0  0  0  0  0  0
  -22.0420   -9.1680   20.4560 C   0  0  0  0  0  3  0  0  0  0  0  0
  -22.7730  -10.3530   20.2600 C   0  0  0  0  0  3  0  0  0  0  0  0
  -21.7170   -7.0630   21.4860 O   0  0  0  0  0  0  0  0  0  0  0  0
  -21.6960   -6.3140   22.6340 C   0  0  0  0  0  0  0  0  0  0  0  0
  -21.3200   -6.8660   23.8780 C   0  0  0  0  0  3  0  0  0  0  0  0
  -21.2470   -6.0440   25.0200 C   0  0  0  0  0  3  0  0  0  0  0  0
  -21.5370   -4.6700   24.9200 C   0  0  0  0  0  0  0  0  0  0  0  0
  -21.9060   -4.1170   23.6810 C   0  0  0  0  0  3  0  0  0  0  0  0
  -21.9820   -4.9370   22.5410 C   0  0  0  0  0  0  0  0  0  0  0  0
  -22.3170   -4.3950   21.3460 F   0  0  0  0  0  0  0  0  0  0  0  0
  -21.4590   -3.8790   26.0140 F   0  0  0  0  0  0  0  0  0  0  0  0
  -22.8440  -13.6970   21.1480 C   0  0  0  0  0  0  0  0  0  0  0  0
  -22.1350  -13.0060   22.0340 N   0  0  0  0  0  0  0  0  0  0  0  0
  -22.3980  -14.7260   20.6410 O   0  0  0  0  0  0  0  0  0  0  0  0
  -22.5080  -12.1750   22.4700 H   0  0  0  0  0  0  0  0  0  0  0  0
  -21.2050  -13.3150   22.2820 H   0  0  0  0  0  0  0  0  0  0  0  0
  -25.4620  -15.3470   20.2650 N   0  0  0  0  0  0  0  0  0  0  0  0
  -24.7080  -16.0110   20.4030 H   0  0  0  0  0  0  0  0  0  0  0  0
  -26.3100  -15.7780   19.9180 H   0  0  0  0  0  0  0  0  0  0  0  0
  -28.9060  -22.3580   20.0190 C   0  0  0  0  0  2  0  0  0  0  0  0
  -28.9480  -23.8330   20.6640 C   0  0  0  0  0  3  0  0  0  0  0  0
  -28.1390  -24.9920   19.9150 C   0  0  0  0  0  3  0  0  0  0  0  0
  -28.2780  -26.4310   20.2950 O   0  0  0  0  0  0  0  0  0  0  0  0
  -24.5860  -31.8930   23.2550 C   0  0  0  0  0  0  0  0  0  0  0  0
  -27.1720  -27.3030   20.2040 C   0  0  0  0  0  0  0  0  0  0  0  0
  -23.3760  -30.5020   21.6150 C   0  0  0  0  0  3  0  0  0  0  0  0
  -24.8190  -28.9480   20.1860 C   0  0  0  0  0  0  0  0  0  0  0  0
  -25.9190  -30.7970   21.4400 C   0  0  0  0  0  2  0  0  0  0  0  0
  -25.9890  -29.4180   20.7930 C   0  0  0  0  0  0  0  0  0  0  0  0
  -27.1650  -28.6060   20.7970 C   0  0  0  0  0  3  0  0  0  0  0  0
  -25.9830  -26.9070   19.5440 C   0  0  0  0  0  3  0  0  0  0  0  0
  -24.8200  -27.6970   19.5520 C   0  0  0  0  0  3  0  0  0  0  0  0
  -23.5870  -29.8270   20.2340 C   0  0  0  0  0  2  0  0  0  0  0  0
  -24.6450  -31.0830   22.1580 N   0  0  0  0  0  0  0  0  0  0  0  0
  -23.5040  -32.1770   23.7880 O   0  0  0  0  0  0  0  0  0  0  0  0
  -22.7060  -29.4880   22.5730 C   0  0  0  0  0  0  0  0  0  0  0  0
  -21.3800  -29.3110   22.4390 N   0  0  0  0  0  0  0  0  0  0  0  0
  -23.3790  -28.8630   23.3970 O   0  0  0  0  0  0  0  0  0  0  0  0
  -20.8960  -29.8670   21.7470 H   0  0  0  0  0  0  0  0  0  0  0  0
  -18.0010  -28.1120   22.9140 C   0  0  0  0  0  0  0  0  0  0  0  0
  -20.5550  -28.3790   23.2100 C   0  0  0  0  0  3  0  0  0  0  0  0
  -20.6660  -26.9430   22.6490 C   0  0  0  0  0  2  0  0  0  0  0  0
  -19.5770  -26.6080   21.6260 C   0  0  0  0  0  2  0  0  0  0  0  0
  -18.1880  -26.7570   22.2530 C   0  0  0  0  0  2  0  0  0  0  0  0
  -19.1140  -28.8810   23.3490 C   0  0  0  0  0  0  0  0  0  0  0  0
  -18.8840  -30.1490   23.9270 C   0  0  0  0  0  3  0  0  0  0  0  0
  -17.5770  -30.6480   24.0730 C   0  0  0  0  0  3  0  0  0  0  0  0
  -16.4780  -29.8770   23.6540 C   0  0  0  0  0  3  0  0  0  0  0  0
  -16.6920  -28.6110   23.0800 C   0  0  0  0  0  3  0  0  0  0  0  0
  -25.8720  -32.5180   23.8770 C   0  0  0  0  0  3  0  0  0  0  0  0
  -26.3840  -31.7440   25.1520 C   0  0  1  0  0  0  0  0  0  0  0  0
  -25.2890  -31.5140   26.2200 C   0  0  0  0  0  1  0  0  0  0  0  0
  -26.9590  -30.3620   24.7640 C   0  0  0  0  0  1  0  0  0  0  0  0
  -27.5390  -32.5320   25.8140 C   0  0  0  0  0  1  0  0  0  0  0  0
  -25.5670  -33.9180   24.2100 N   0  0  0  0  0  0  0  0  0  0  0  0
  -25.9000  -34.9700   23.4520 C   0  0  0  0  0  0  0  0  0  0  0  0
  -26.5670  -34.8680   22.4190 O   0  0  0  0  0  0  0  0  0  0  0  0
  -24.9710  -34.0710   25.0110 H   0  0  0  0  0  0  0  0  0  0  0  0
  -24.1750  -36.7700   23.1150 C   0  0  0  0  0  1  0  0  0  0  0  0
  -25.4220  -36.3590   23.9160 C   0  0  0  0  0  3  0  0  0  0  0  0
  -27.5650  -37.2370   24.7320 C   0  0  0  0  0  1  0  0  0  0  0  0
  -26.4560  -37.4100   23.7970 N   0  0  0  0  0  0  0  0  0  0  0  0
  -26.0540  -38.3300   23.9500 H   0  0  0  0  0  0  0  0  0  0  0  0
  1  3  1  0
  1  2  1  0
  5  4  1  0
  5  1  1  0
  5  7  1  0
  7  6  1  0
  9  8  2  0
  9  7  1  0
 10  8  1  0
 11 16  1  0
 12 13  1  0
 12 11  1  0
 14 13  1  0
 14 21  1  0
 14 15  1  0
 16 10  1  0
 16 15  1  0
 17 10  2  0
 18 19  2  0
 19 38  1  0
 20 19  1  0
 20 23  1  0
 21 18  1  0
 21 22  1  0
 22 20  2  0
 23 24  1  0
 24 25  2  0
 26 29  1  0
 26 25  1  0
 27 26  2  0
 28 27  1  0
 28 23  2  0
 29 30  1  0
 30 31  1  0
 31 32  2  0
 33 32  1  0
 33 37  1  0
 34 33  2  0
 35 30  2  0
 35 34  1  0
 36 35  1  0
 38 39  1  0
 39 42  1  0
 39 41  1  0
 40 38  2  0
 43 44  1  0
 43 18  1  0
 45 43  1  0
 46 47  1  0
 46  1  1  0
 48 49  1  0
 48 47  2  0
 50 61  2  0
 51 49  1  0
 51 56  1  0
 52 60  1  0
 52 62  1  0
 53 59  1  0
 53 55  1  0
 54 60  1  0
 55 56  2  0
 55 54  1  0
 57 58  1  0
 57 51  2  0
 58 53  2  0
 59 52  1  0
 60 50  1  0
 62 64  2  0
 63 62  1  0
 65 63  1  0
 66 75  2  0
 66 71  1  0
 67 63  1  0
 67 71  1  0
 68 67  1  0
 69 70  1  0
 69 68  1  0
 70 66  1  0
 71 72  2  0
 72 73  1  0
 74 73  2  0
 75 74  1  0
 76 50  1  0
 76 81  1  0
 76 77  1  0
 77 80  1  1
 77 78  1  0
 79 77  1  0
 81 84  1  0
 82 86  1  0
 82 81  1  0
 83 82  2  0
 86 85  1  0
 88 86  1  0
 88 89  1  0
 88 87  1  0
M  ISO  4   8 100  10 100  48 101  49 101
M  END
>  <TORSDO>  (52) 
F 22

>  <SCORE>  (52) 
-12.828

>  <name>  (52) 
52

>  <ligand_id>  (52) 
52

>  <original_smiles>  (52) 
[H]C(C(=O)N1C([H])([H])C([H])([H])C([H])([H])C([H])(n2nc(-c3c([H])c([H])c(Oc4c([H])c([H])c(F)c([H])c4F)c([H])c3[H])c(C(=O)N([H])[H])c2N([H])[H])C1([H])[H])=C([H])C([H])(C([H])([H])[H])C([H])(C([H])([H])[H])[N+]([H])([H])C([H])([H])C([H])([H])C([H])([H])Oc1c([H])c([H])c2c(c1[H])C([H])([H])N(C(=O)C([H])(N([H])C(=O)C([H])(N([H])C([H])([H])[H])C([H])([H])[H])C(C([H])([H])[H])(C([H])([H])[H])C([H])([H])[H])C([H])(C(=O)N([H])C1([H])c3c([H])c([H])c([H])c([H])c3C([H])([H])C([H])([H])C1([H])[H])C2([H])[H]

>  <smiles>  (52) 
[H]C(C(=O)N1C([H])([H])C([H])([H])C([H])([H])C([H])(n2nc(-c3c([H])c([H])c(Oc4c([H])c([H])c(F)c([H])c4F)c([H])c3[H])c(C(=O)N([H])[H])c2N([H])[H])C1([H])[H])=C([H])C([H])(C([H])([H])[H])C([H])(C([H])([H])[H])[N+]([H])([H])C([H])([H])C([H])([H])C([H])([H])Oc1c([H])c([H])c2c(c1[H])C([H])([H])N(C(=O)C([H])(N([H])C(=O)C([H])(N([H])C([H])([H])[H])C([H])([H])[H])C(C([H])([H])[H])(C([H])([H])[H])C([H])([H])[H])C([H])(C(=O)N([H])C1([H])c3c([H])c([H])c([H])c([H])c3C([H])([H])C([H])([H])C1([H])[H])C2([H])[H]

$$$$
53:0:0
     RDKit          3D

 90 98  0  0  1  0  0  0  0  0999 V2000
  -29.1920  -19.9060   20.5280 C   0  0  0  0  0  0  0  0  0  0  0  0
  -30.0620  -19.1720   18.4850 C   0  0  0  0  0  2  0  0  0  0  0  0
  -29.9420  -18.5170   19.8830 C   0  0  0  0  0  3  0  0  0  0  0  0
  -29.9120  -20.7760   18.5920 C   0  0  0  0  0  3  0  0  0  0  0  0
  -29.2100  -21.1970   19.8430 N   0  0  0  0  0  0  0  0  0  0  0  0
  -28.6810  -19.8080   21.6470 O   0  0  0  0  0  0  0  0  0  0  0  0
  -30.4830  -15.5470   19.8420 C   0  0  0  0  0  0  0  0  0  0  0  0
  -30.4200  -13.0950   18.9520 C   0  0  0  0  0  2  0  0  0  0  0  0
  -29.4400  -12.8740   17.7710 C   0  0  0  0  0  2  0  0  0  0  0  0
  -28.0220  -12.5800   18.2920 C   0  0  0  0  0  2  0  0  0  0  0  0
  -27.6230  -13.5370   19.4410 C   0  0  0  0  0  3  0  0  0  0  0  0
  -28.7280  -13.7050   20.5070 C   0  0  0  0  0  2  0  0  0  0  0  0
  -29.9130  -14.2350   19.8090 N   0  0  0  0  0  0  0  0  0  0  0  0
  -31.6870  -15.5330   19.5510 O   0  0  0  0  0  0  0  0  0  0  0  0
  -29.7320  -16.8360   19.9940 N   0  0  0  0  0  0  0  0  0  0  0  0
  -28.7700  -16.6320   20.2170 H   0  0  0  0  0  0  0  0  0  0  0  0
  -25.2950  -14.0730   20.3260 C   0  0  0  0  0  0  0  0  0  0  0  0
  -24.2570  -13.2880   20.7410 C   0  0  0  0  0  0  0  0  0  0  0  0
  -24.7280  -11.9400   20.6730 C   0  0  0  0  0  0  0  0  0  0  0  0
  -26.3270  -13.2050   20.0190 N   0  0  0  0  0  0  0  0  0  0  0  0
  -26.0020  -11.9150   20.2950 N   0  0  0  0  0  0  0  0  0  0  0  0
  -24.0160  -10.6730   20.8850 C   0  0  0  0  0  0  0  0  0  0  0  0
  -24.4660   -9.7190   21.8250 C   0  0  0  0  0  3  0  0  0  0  0  0
  -23.7500   -8.5200   22.0270 C   0  0  0  0  0  3  0  0  0  0  0  0
  -22.5690   -8.2660   21.2910 C   0  0  0  0  0  0  0  0  0  0  0  0
  -22.1370   -9.2080   20.3410 C   0  0  0  0  0  3  0  0  0  0  0  0
  -22.8540  -10.3990   20.1360 C   0  0  0  0  0  3  0  0  0  0  0  0
  -21.8210   -7.1190   21.4030 O   0  0  0  0  0  0  0  0  0  0  0  0
  -21.7570   -6.4140   22.5780 C   0  0  0  0  0  0  0  0  0  0  0  0
  -21.2290   -6.9820   23.7590 C   0  0  0  0  0  3  0  0  0  0  0  0
  -21.1150   -6.2000   24.9260 C   0  0  0  0  0  3  0  0  0  0  0  0
  -21.5180   -4.8510   24.9120 C   0  0  0  0  0  0  0  0  0  0  0  0
  -22.0390   -4.2840   23.7370 C   0  0  0  0  0  3  0  0  0  0  0  0
  -22.1550   -5.0610   22.5720 C   0  0  0  0  0  0  0  0  0  0  0  0
  -22.6380   -4.5020   21.4360 F   0  0  0  0  0  0  0  0  0  0  0  0
  -21.4030   -4.0990   26.0320 F   0  0  0  0  0  0  0  0  0  0  0  0
  -22.8750  -13.7570   21.0840 C   0  0  0  0  0  0  0  0  0  0  0  0
  -22.1990  -13.0610   21.9900 N   0  0  0  0  0  0  0  0  0  0  0  0
  -22.4060  -14.7800   20.5850 O   0  0  0  0  0  0  0  0  0  0  0  0
  -22.5920  -12.2350   22.4150 H   0  0  0  0  0  0  0  0  0  0  0  0
  -21.2740  -13.3610   22.2630 H   0  0  0  0  0  0  0  0  0  0  0  0
  -25.4370  -15.4470   20.1490 N   0  0  0  0  0  0  0  0  0  0  0  0
  -24.6580  -16.0820   20.2900 H   0  0  0  0  0  0  0  0  0  0  0  0
  -26.2390  -15.8930   19.7260 H   0  0  0  0  0  0  0  0  0  0  0  0
  -32.3880  -21.0920   19.0170 C   0  0  0  0  0  2  0  0  0  0  0  0
  -31.2480  -21.5060   18.4350 C   0  0  0  0  0  0  0  0  0  0  0  0
  -31.2300  -22.7340   17.5420 C   0  0  0  0  0  1  0  0  0  0  0  0
  -29.0490  -22.8310   20.3080 C   0  0  0  0  0  3  0  0  0  0  0  0
  -28.1560  -24.3420   19.7760 C   0  0  0  0  0  3  0  0  0  0  0  0
  -28.2540  -25.9780   20.1320 O   0  0  0  0  0  0  0  0  0  0  0  0
  -24.6350  -31.9040   23.1910 C   0  0  0  0  0  0  0  0  0  0  0  0
  -27.2260  -27.0770   20.0690 C   0  0  0  0  0  0  0  0  0  0  0  0
  -23.4450  -30.5170   21.5430 C   0  0  0  0  0  3  0  0  0  0  0  0
  -24.9000  -28.9480   20.0780 C   0  0  0  0  0  0  0  0  0  0  0  0
  -26.0090  -30.7530   21.3780 C   0  0  0  0  0  2  0  0  0  0  0  0
  -26.0890  -29.3530   20.6960 C   0  0  0  0  0  0  0  0  0  0  0  0
  -27.2410  -28.4390   20.6670 C   0  0  0  0  0  3  0  0  0  0  0  0
  -26.0040  -26.8340   19.4010 C   0  0  0  0  0  3  0  0  0  0  0  0
  -24.8840  -27.7110   19.4100 C   0  0  0  0  0  3  0  0  0  0  0  0
  -23.6700  -29.8560   20.1540 C   0  0  0  0  0  2  0  0  0  0  0  0
  -24.7190  -31.0870   22.0900 N   0  0  0  0  0  0  0  0  0  0  0  0
  -23.5470  -32.1720   23.7260 O   0  0  0  0  0  0  0  0  0  0  0  0
  -22.7720  -29.5000   22.5030 C   0  0  0  0  0  0  0  0  0  0  0  0
  -21.4450  -29.3130   22.3820 N   0  0  0  0  0  0  0  0  0  0  0  0
  -23.4520  -28.8790   23.3230 O   0  0  0  0  0  0  0  0  0  0  0  0
  -20.9470  -29.8640   21.6970 H   0  0  0  0  0  0  0  0  0  0  0  0
  -18.0870  -28.0360   22.9040 C   0  0  0  0  0  0  0  0  0  0  0  0
  -20.6440  -28.3500   23.1480 C   0  0  0  0  0  3  0  0  0  0  0  0
  -20.7670  -26.9280   22.5530 C   0  0  0  0  0  2  0  0  0  0  0  0
  -19.6630  -26.5970   21.5440 C   0  0  0  0  0  2  0  0  0  0  0  0
  -18.2850  -26.7030   22.2020 C   0  0  0  0  0  2  0  0  0  0  0  0
  -19.1940  -28.8170   23.3330 C   0  0  0  0  0  0  0  0  0  0  0  0
  -18.9520  -30.0610   23.9550 C   0  0  0  0  0  3  0  0  0  0  0  0
  -17.6370  -30.5270   24.1480 C   0  0  0  0  0  3  0  0  0  0  0  0
  -16.5460  -29.7450   23.7300 C   0  0  0  0  0  3  0  0  0  0  0  0
  -16.7720  -28.5010   23.1160 C   0  0  0  0  0  3  0  0  0  0  0  0
  -25.9020  -32.5570   23.8210 C   0  0  0  0  0  3  0  0  0  0  0  0
  -26.3950  -31.8160   25.1270 C   0  0  1  0  0  0  0  0  0  0  0  0
  -25.2820  -31.5990   26.1800 C   0  0  0  0  0  1  0  0  0  0  0  0
  -26.9900  -30.4320   24.7830 C   0  0  0  0  0  1  0  0  0  0  0  0
  -27.5330  -32.6270   25.7910 C   0  0  0  0  0  1  0  0  0  0  0  0
  -25.5820  -33.9620   24.1310 N   0  0  0  0  0  0  0  0  0  0  0  0
  -25.9160  -35.0130   23.3700 C   0  0  0  0  0  0  0  0  0  0  0  0
  -26.5830  -34.9020   22.3390 O   0  0  0  0  0  0  0  0  0  0  0  0
  -24.9840  -34.1220   24.9290 H   0  0  0  0  0  0  0  0  0  0  0  0
  -24.1940  -36.8170   23.0080 C   0  0  0  0  0  1  0  0  0  0  0  0
  -25.4340  -36.4080   23.8210 C   0  0  0  0  0  3  0  0  0  0  0  0
  -27.5600  -37.3060   24.6630 C   0  0  0  0  0  1  0  0  0  0  0  0
  -26.4690  -37.4580   23.7030 N   0  0  0  0  0  0  0  0  0  0  0  0
  -26.0630  -38.3820   23.8280 H   0  0  0  0  0  0  0  0  0  0  0  0
  1  6  2  0
  2  4  1  0
  2  3  1  0
  3 15  1  0
  3  1  1  0
  4 46  1  0
  4  5  1  0
  5 48  1  0
  5  1  1  0
  7 15  1  0
  8 13  1  0
  9 10  1  0
  9  8  1  0
 11 10  1  0
 11 20  1  0
 11 12  1  0
 13  7  1  0
 13 12  1  0
 14  7  2  0
 15 16  1  0
 17 18  2  0
 18 37  1  0
 19 18  1  0
 19 22  1  0
 20 21  1  0
 20 17  1  0
 21 19  2  0
 22 23  1  0
 23 24  2  0
 25 28  1  0
 25 24  1  0
 26 25  2  0
 27 26  1  0
 27 22  2  0
 28 29  1  0
 29 30  1  0
 30 31  2  0
 32 31  1  0
 32 36  1  0
 33 32  2  0
 34 29  2  0
 34 33  1  0
 35 34  1  0
 37 38  1  0
 38 41  1  0
 38 40  1  0
 39 37  2  0
 42 43  1  0
 42 17  1  0
 44 42  1  0
 46 45  2  0
 47 46  1  0
 49 50  1  0
 49 48  2  0
 51 62  2  0
 52 50  1  0
 52 57  1  0
 53 61  1  0
 53 63  1  0
 54 60  1  0
 54 56  1  0
 55 61  1  0
 56 55  1  0
 57 56  2  0
 58 59  1  0
 58 52  2  0
 59 54  2  0
 60 53  1  0
 61 51  1  0
 63 65  2  0
 64 63  1  0
 66 64  1  0
 67 76  2  0
 67 72  1  0
 68 64  1  0
 68 72  1  0
 69 68  1  0
 70 71  1  0
 70 69  1  0
 71 67  1  0
 72 73  2  0
 73 74  1  0
 75 74  2  0
 76 75  1  0
 77 51  1  0
 77 82  1  0
 77 78  1  0
 78 81  1  1
 78 79  1  0
 80 78  1  0
 82 85  1  0
 83 87  1  0
 83 82  1  0
 84 83  2  0
 87 86  1  0
 89 87  1  0
 89 90  1  0
 89 88  1  0
M  ISO  4   7 100  15 100  49 101  50 101
M  END
>  <TORSDO>  (53) 
F 19

>  <SCORE>  (53) 
-15.165

>  <name>  (53) 
53

>  <ligand_id>  (53) 
53

>  <original_smiles>  (53) 
[H]C([H])=C(C([H])([H])[H])C1([H])N(C([H])([H])C([H])([H])Oc2c([H])c([H])c3c(c2[H])C([H])([H])N(C(=O)C([H])(N([H])C(=O)C([H])(N([H])C([H])([H])[H])C([H])([H])[H])C(C([H])([H])[H])(C([H])([H])[H])C([H])([H])[H])C([H])(C(=O)N([H])C2([H])c4c([H])c([H])c([H])c([H])c4C([H])([H])C([H])([H])C2([H])[H])C3([H])[H])C(=O)C([H])(N([H])C(=O)N2C([H])([H])C([H])([H])C([H])([H])C([H])(n3nc(-c4c([H])c([H])c(Oc5c([H])c([H])c(F)c([H])c5F)c([H])c4[H])c(C(=O)N([H])[H])c3N([H])[H])C2([H])[H])C1([H])[H]

>  <smiles>  (53) 
[H]C([H])=C(C([H])([H])[H])C1([H])N(C([H])([H])C([H])([H])Oc2c([H])c([H])c3c(c2[H])C([H])([H])N(C(=O)C([H])(N([H])C(=O)C([H])(N([H])C([H])([H])[H])C([H])([H])[H])C(C([H])([H])[H])(C([H])([H])[H])C([H])([H])[H])C([H])(C(=O)N([H])C2([H])c4c([H])c([H])c([H])c([H])c4C([H])([H])C([H])([H])C2([H])[H])C3([H])[H])C(=O)C([H])(N([H])C(=O)N2C([H])([H])C([H])([H])C([H])([H])C([H])(n3nc(-c4c([H])c([H])c(Oc5c([H])c([H])c(F)c([H])c5F)c([H])c4[H])c(C(=O)N([H])[H])c3N([H])[H])C2([H])[H])C1([H])[H]

$$$$
54:0:0
     RDKit          3D

 91100  0  0  1  0  0  0  0  0999 V2000
  -28.9440  -19.8440   19.9180 C   0  0  0  0  0  0  0  0  0  0  0  0
  -29.0960  -21.2720   20.3150 N   0  0  0  0  0  0  0  0  0  0  0  0
  -27.9600  -19.5970   19.2220 O   0  0  0  0  0  0  0  0  0  0  0  0
  -29.8650  -21.3620   20.9700 H   0  0  0  0  0  0  0  0  0  0  0  0
  -30.4820  -15.4390   19.9980 C   0  0  0  0  0  0  0  0  0  0  0  0
  -30.3470  -13.0290   19.0410 C   0  0  0  0  0  2  0  0  0  0  0  0
  -29.3710  -12.8140   17.8650 C   0  0  0  0  0  2  0  0  0  0  0  0
  -27.9510  -12.5200   18.3850 C   0  0  0  0  0  2  0  0  0  0  0  0
  -27.5530  -13.4430   19.5630 C   0  0  0  0  0  3  0  0  0  0  0  0
  -28.6750  -13.6220   20.6070 C   0  0  0  0  0  2  0  0  0  0  0  0
  -29.8200  -14.1820   19.8620 N   0  0  0  0  0  0  0  0  0  0  0  0
  -31.7040  -15.2510   19.9760 O   0  0  0  0  0  0  0  0  0  0  0  0
  -30.5430  -16.9880   18.2980 C   0  0  0  0  0  2  0  0  0  0  0  0
  -30.0140  -18.4550   20.1420 C   0  0  0  0  0  3  0  0  0  0  0  0
  -31.5030  -18.1890   18.2930 C   0  0  0  0  0  3  0  0  0  0  0  0
  -31.2660  -19.0540   19.4580 C   0  0  0  0  0  3  0  0  0  0  0  0
  -32.6510  -18.4800   19.2810 C   0  0  1  0  0  0  0  0  0  0  0  0
  -33.1930  -17.6680   20.4460 C   0  0  0  0  0  1  0  0  0  0  0  0
  -33.7760  -19.3720   18.7730 C   0  0  0  0  0  1  0  0  0  0  0  0
  -29.9320  -16.8080   19.6490 N   0  0  0  0  0  0  0  0  0  0  0  0
  -25.2270  -13.9420   20.4740 C   0  0  0  0  0  0  0  0  0  0  0  0
  -24.1930  -13.1410   20.8750 C   0  0  0  0  0  0  0  0  0  0  0  0
  -24.6730  -11.7990   20.7820 C   0  0  0  0  0  0  0  0  0  0  0  0
  -26.2650  -13.0890   20.1510 N   0  0  0  0  0  0  0  0  0  0  0  0
  -25.9480  -11.7910   20.4010 N   0  0  0  0  0  0  0  0  0  0  0  0
  -23.9690  -10.5220   20.9750 C   0  0  0  0  0  0  0  0  0  0  0  0
  -24.4290   -9.5560   21.8970 C   0  0  0  0  0  3  0  0  0  0  0  0
  -23.7190   -8.3500   22.0840 C   0  0  0  0  0  3  0  0  0  0  0  0
  -22.5380   -8.0980   21.3470 C   0  0  0  0  0  0  0  0  0  0  0  0
  -22.0990   -9.0520   20.4130 C   0  0  0  0  0  3  0  0  0  0  0  0
  -22.8080  -10.2510   20.2240 C   0  0  0  0  0  3  0  0  0  0  0  0
  -21.8010   -6.9420   21.4410 O   0  0  0  0  0  0  0  0  0  0  0  0
  -21.7450   -6.2150   22.6030 C   0  0  0  0  0  0  0  0  0  0  0  0
  -21.2590   -6.7720   23.8050 C   0  0  0  0  0  3  0  0  0  0  0  0
  -21.1510   -5.9720   24.9600 C   0  0  0  0  0  3  0  0  0  0  0  0
  -21.5220   -4.6150   24.9140 C   0  0  0  0  0  0  0  0  0  0  0  0
  -22.0010   -4.0560   23.7150 C   0  0  0  0  0  3  0  0  0  0  0  0
  -22.1090   -4.8540   22.5630 C   0  0  0  0  0  0  0  0  0  0  0  0
  -22.5500   -4.3050   21.4050 F   0  0  0  0  0  0  0  0  0  0  0  0
  -21.4130   -3.8440   26.0210 F   0  0  0  0  0  0  0  0  0  0  0  0
  -22.8080  -13.5930   21.2320 C   0  0  0  0  0  0  0  0  0  0  0  0
  -22.1390  -12.8570   22.1140 N   0  0  0  0  0  0  0  0  0  0  0  0
  -22.3320  -14.6260   20.7670 O   0  0  0  0  0  0  0  0  0  0  0  0
  -22.5470  -12.0180   22.5000 H   0  0  0  0  0  0  0  0  0  0  0  0
  -21.2090  -13.1330   22.4030 H   0  0  0  0  0  0  0  0  0  0  0  0
  -25.3690  -15.3190   20.3260 N   0  0  0  0  0  0  0  0  0  0  0  0
  -24.6180  -15.9780   20.4980 H   0  0  0  0  0  0  0  0  0  0  0  0
  -26.2100  -15.7620   19.9740 H   0  0  0  0  0  0  0  0  0  0  0  0
  -28.6170  -22.7990   19.7890 C   0  0  0  0  0  2  0  0  0  0  0  0
  -28.0410  -24.3380   20.5540 C   0  0  0  0  0  2  0  0  0  0  0  0
  -28.2090  -25.9670   20.2870 O   0  0  0  0  0  0  0  0  0  0  0  0
  -24.6130  -31.9620   23.2500 C   0  0  0  0  0  0  0  0  0  0  0  0
  -27.1790  -27.0480   20.2890 C   0  0  0  0  0  0  0  0  0  0  0  0
  -23.4260  -30.5450   21.6260 C   0  0  0  0  0  3  0  0  0  0  0  0
  -24.8760  -28.9240   20.2270 C   0  0  0  0  0  0  0  0  0  0  0  0
  -25.9930  -30.7560   21.4840 C   0  0  0  0  0  2  0  0  0  0  0  0
  -26.0650  -29.3390   20.8400 C   0  0  0  0  0  0  0  0  0  0  0  0
  -27.2130  -28.4240   20.8390 C   0  0  0  0  0  3  0  0  0  0  0  0
  -25.9550  -26.7830   19.6370 C   0  0  0  0  0  3  0  0  0  0  0  0
  -24.8440  -27.6640   19.6070 C   0  0  0  0  0  3  0  0  0  0  0  0
  -23.6580  -29.8440   20.2590 C   0  0  0  0  0  2  0  0  0  0  0  0
  -24.6990  -31.1170   22.1710 N   0  0  0  0  0  0  0  0  0  0  0  0
  -23.5200  -32.2570   23.7640 O   0  0  0  0  0  0  0  0  0  0  0  0
  -22.7320  -29.5590   22.6030 C   0  0  0  0  0  0  0  0  0  0  0  0
  -21.4040  -29.3870   22.4730 N   0  0  0  0  0  0  0  0  0  0  0  0
  -23.3970  -28.9470   23.4420 O   0  0  0  0  0  0  0  0  0  0  0  0
  -20.9230  -29.9290   21.7680 H   0  0  0  0  0  0  0  0  0  0  0  0
  -18.0240  -28.1630   22.9750 C   0  0  0  0  0  0  0  0  0  0  0  0
  -20.5810  -28.4550   23.2500 C   0  0  0  0  0  3  0  0  0  0  0  0
  -20.6970  -27.0170   22.6970 C   0  0  0  0  0  2  0  0  0  0  0  0
  -19.6040  -26.6700   21.6810 C   0  0  0  0  0  2  0  0  0  0  0  0
  -18.2170  -26.8090   22.3140 C   0  0  0  0  0  2  0  0  0  0  0  0
  -19.1340  -28.9440   23.3980 C   0  0  0  0  0  0  0  0  0  0  0  0
  -18.8970  -30.2100   23.9780 C   0  0  0  0  0  3  0  0  0  0  0  0
  -17.5850  -30.6950   24.1370 C   0  0  0  0  0  3  0  0  0  0  0  0
  -16.4910  -29.9130   23.7280 C   0  0  0  0  0  3  0  0  0  0  0  0
  -16.7120  -28.6490   23.1530 C   0  0  0  0  0  3  0  0  0  0  0  0
  -25.8800  -32.6140   23.8790 C   0  0  0  0  0  3  0  0  0  0  0  0
  -25.5610  -34.0190   24.1890 N   0  0  0  0  0  0  0  0  0  0  0  0
  -25.8990  -35.0710   23.4320 C   0  0  0  0  0  0  0  0  0  0  0  0
  -26.5780  -34.9610   22.4070 O   0  0  0  0  0  0  0  0  0  0  0  0
  -24.9590  -34.1780   24.9840 H   0  0  0  0  0  0  0  0  0  0  0  0
  -24.1800  -36.8720   23.0550 C   0  0  0  0  0  1  0  0  0  0  0  0
  -25.4130  -36.4650   23.8800 C   0  0  0  0  0  3  0  0  0  0  0  0
  -27.5370  -37.3530   24.7370 C   0  0  0  0  0  1  0  0  0  0  0  0
  -26.4490  -37.5160   23.7740 N   0  0  0  0  0  0  0  0  0  0  0  0
  -26.0430  -38.4380   23.9080 H   0  0  0  0  0  0  0  0  0  0  0  0
  -26.3770  -31.8720   25.1820 C   0  0  1  0  0  0  0  0  0  0  0  0
  -25.2640  -31.6530   26.2340 C   0  0  0  0  0  1  0  0  0  0  0  0
  -26.9740  -30.4890   24.8390 C   0  0  0  0  0  1  0  0  0  0  0  0
  -27.5150  -32.6850   25.8440 C   0  0  0  0  0  1  0  0  0  0  0  0
  1  2  1  0
  2  4  1  0
  3  1  2  0
  6 11  1  0
  7  8  1  0
  7  6  1  0
  9  8  1  0
  9 24  1  0
  9 10  1  0
 11  5  1  0
 11 10  1  0
 12  5  2  0
 13 20  1  0
 14  1  1  0
 15 13  1  0
 15 17  1  0
 15 16  1  0
 16 17  1  0
 16 14  1  0
 17 18  1  1
 19 17  1  0
 20  5  1  0
 20 14  1  0
 21 22  2  0
 22 41  1  0
 23 22  1  0
 23 26  1  0
 24 25  1  0
 24 21  1  0
 25 23  2  0
 26 27  1  0
 27 28  2  0
 29 32  1  0
 29 28  1  0
 30 29  2  0
 31 30  1  0
 31 26  2  0
 32 33  1  0
 33 34  1  0
 34 35  2  0
 36 35  1  0
 36 40  1  0
 37 36  2  0
 38 33  2  0
 38 37  1  0
 39 38  1  0
 41 42  1  0
 42 45  1  0
 42 44  1  0
 43 41  2  0
 46 21  1  0
 46 47  1  0
 48 46  1  0
 49  2  1  0
 49 50  1  0
 51 53  1  0
 51 50  1  0
 52 63  2  0
 53 58  1  0
 54 62  1  0
 54 64  1  0
 55 61  1  0
 55 57  1  0
 56 62  1  0
 57 56  1  0
 58 57  2  0
 59 53  2  0
 60 59  1  0
 60 55  2  0
 61 54  1  0
 62 52  1  0
 64 66  2  0
 65 64  1  0
 67 65  1  0
 68 77  2  0
 68 73  1  0
 69 65  1  0
 69 73  1  0
 70 69  1  0
 71 72  1  0
 71 70  1  0
 72 68  1  0
 73 74  2  0
 74 75  1  0
 76 75  2  0
 77 76  1  0
 78 52  1  0
 78 79  1  0
 78 88  1  0
 79 82  1  0
 80 84  1  0
 80 79  1  0
 81 80  2  0
 84 83  1  0
 86 84  1  0
 86 87  1  0
 86 85  1  0
 88 91  1  1
 88 89  1  0
 90 88  1  0
M  ISO  4   5 100  20 100  50 101  51 101
M  END
>  <TORSDO>  (54) 
F 18

>  <SCORE>  (54) 
-16.357

>  <name>  (54) 
54

>  <ligand_id>  (54) 
54

>  <original_smiles>  (54) 
[H]c1c([H])c([H])c2c(c1[H])C([H])([H])C([H])([H])C([H])([H])C2([H])N([H])C(=O)C1([H])N(C(=O)C([H])(N([H])C(=O)C([H])(N([H])C([H])([H])[H])C([H])([H])[H])C(C([H])([H])[H])(C([H])([H])[H])C([H])([H])[H])C([H])([H])c2c([H])c(OC([H])([H])C([H])([H])N([H])C(=O)C3([H])N(C(=O)N4C([H])([H])C([H])([H])C([H])([H])C([H])(n5nc(-c6c([H])c([H])c(Oc7c([H])c([H])c(F)c([H])c7F)c([H])c6[H])c(C(=O)N([H])[H])c5N([H])[H])C4([H])[H])C([H])([H])C4([H])C3([H])C4(C([H])([H])[H])C([H])([H])[H])c([H])c([H])c2C1([H])[H]

>  <smiles>  (54) 
[H]c1c([H])c([H])c2c(c1[H])C([H])([H])C([H])([H])C([H])([H])C2([H])N([H])C(=O)C1([H])N(C(=O)C([H])(N([H])C(=O)C([H])(N([H])C([H])([H])[H])C([H])([H])[H])C(C([H])([H])[H])(C([H])([H])[H])C([H])([H])[H])C([H])([H])c2c([H])c(OC([H])([H])C([H])([H])N([H])C(=O)C3([H])N(C(=O)N4C([H])([H])C([H])([H])C([H])([H])C([H])(n5nc(-c6c([H])c([H])c(Oc7c([H])c([H])c(F)c([H])c7F)c([H])c6[H])c(C(=O)N([H])[H])c5N([H])[H])C4([H])[H])C([H])([H])C4([H])C3([H])C4(C([H])([H])[H])C([H])([H])[H])c([H])c([H])c2C1([H])[H]

$$$$
55:0:0
     RDKit          3D

 86 94  0  0  1  0  0  0  0  0999 V2000
  -28.7710  -22.8720   19.9160 C   0  0  0  0  0  2  0  0  0  0  0  0
  -28.9160  -21.3910   20.6340 N   0  0  0  0  0  4  0  0  0  0  0  0
  -29.6810  -21.4660   21.2850 H   0  0  0  0  0  0  0  0  0  0  0  0
  -28.0980  -21.3330   21.2200 H   0  0  0  0  0  0  0  0  0  0  0  0
  -30.3810  -19.3580   19.6210 C   0  0  0  0  0  2  0  0  0  0  0  0
  -29.6670  -18.3770   20.5460 C   0  0  0  0  0  3  0  0  0  0  0  0
  -28.9940  -19.8830   19.9580 C   0  0  0  0  0  3  0  0  0  0  0  0
  -29.4340  -16.6740   20.1770 C   0  0  0  0  0  2  0  0  0  0  0  0
  -30.3680  -15.2090   20.1850 C   0  0  0  0  0  0  0  0  0  0  0  0
  -30.3700  -12.7780   19.3120 C   0  0  0  0  0  2  0  0  0  0  0  0
  -29.4190  -12.6340   18.0950 C   0  0  0  0  0  2  0  0  0  0  0  0
  -27.9700  -12.3740   18.5520 C   0  0  0  0  0  2  0  0  0  0  0  0
  -27.5500  -13.3130   19.7100 C   0  0  0  0  0  3  0  0  0  0  0  0
  -28.6210  -13.4030   20.8140 C   0  0  0  0  0  2  0  0  0  0  0  0
  -29.8590  -13.8880   20.1870 N   0  0  0  0  0  0  0  0  0  0  0  0
  -31.5850  -15.2600   19.9510 O   0  0  0  0  0  0  0  0  0  0  0  0
  -25.1900  -13.8610   20.5130 C   0  0  0  0  0  0  0  0  0  0  0  0
  -24.1390  -13.0790   20.9000 C   0  0  0  0  0  0  0  0  0  0  0  0
  -24.6120  -11.7310   20.8540 C   0  0  0  0  0  0  0  0  0  0  0  0
  -26.2310  -12.9920   20.2410 N   0  0  0  0  0  0  0  0  0  0  0  0
  -25.8960  -11.7040   20.5160 N   0  0  0  0  0  0  0  0  0  0  0  0
  -23.8940  -10.4630   21.0550 C   0  0  0  0  0  0  0  0  0  0  0  0
  -24.3490   -9.4930   21.9750 C   0  0  0  0  0  3  0  0  0  0  0  0
  -23.6290   -8.2930   22.1630 C   0  0  0  0  0  3  0  0  0  0  0  0
  -22.4400   -8.0550   21.4330 C   0  0  0  0  0  0  0  0  0  0  0  0
  -22.0050   -9.0150   20.5020 C   0  0  0  0  0  3  0  0  0  0  0  0
  -22.7250  -10.2060   20.3110 C   0  0  0  0  0  3  0  0  0  0  0  0
  -21.6910   -6.9080   21.5310 O   0  0  0  0  0  0  0  0  0  0  0  0
  -21.6720   -6.1570   22.6790 C   0  0  0  0  0  0  0  0  0  0  0  0
  -21.2710   -6.7010   23.9180 C   0  0  0  0  0  3  0  0  0  0  0  0
  -21.1990   -5.8760   25.0580 C   0  0  0  0  0  3  0  0  0  0  0  0
  -21.5190   -4.5090   24.9600 C   0  0  0  0  0  0  0  0  0  0  0  0
  -21.9120   -3.9640   23.7250 C   0  0  0  0  0  3  0  0  0  0  0  0
  -21.9850   -4.7860   22.5870 C   0  0  0  0  0  0  0  0  0  0  0  0
  -22.3450   -4.2510   21.3960 F   0  0  0  0  0  0  0  0  0  0  0  0
  -21.4420   -3.7140   26.0540 F   0  0  0  0  0  0  0  0  0  0  0  0
  -22.7450  -13.5480   21.1970 C   0  0  0  0  0  0  0  0  0  0  0  0
  -22.0350  -12.8450   22.0730 N   0  0  0  0  0  0  0  0  0  0  0  0
  -22.2940  -14.5730   20.6890 O   0  0  0  0  0  0  0  0  0  0  0  0
  -22.4130  -12.0140   22.5050 H   0  0  0  0  0  0  0  0  0  0  0  0
  -21.0990  -13.1400   22.3150 H   0  0  0  0  0  0  0  0  0  0  0  0
  -25.3420  -15.2350   20.3400 N   0  0  0  0  0  0  0  0  0  0  0  0
  -24.5740  -15.8830   20.4750 H   0  0  0  0  0  0  0  0  0  0  0  0
  -26.1820  -15.6810   19.9970 H   0  0  0  0  0  0  0  0  0  0  0  0
  -28.0830  -24.3770   20.5630 C   0  0  0  0  0  2  0  0  0  0  0  0
  -28.2580  -25.9670   20.2350 O   0  0  0  0  0  0  0  0  0  0  0  0
  -24.6280  -31.8610   23.1940 C   0  0  0  0  0  0  0  0  0  0  0  0
  -27.2120  -27.0120   20.2290 C   0  0  0  0  0  0  0  0  0  0  0  0
  -23.4440  -30.4570   21.5550 C   0  0  0  0  0  3  0  0  0  0  0  0
  -24.9010  -28.8490   20.1560 C   0  0  0  0  0  0  0  0  0  0  0  0
  -26.0070  -30.6850   21.4180 C   0  0  0  0  0  2  0  0  0  0  0  0
  -26.0840  -29.2740   20.7760 C   0  0  0  0  0  0  0  0  0  0  0  0
  -27.2390  -28.3780   20.7810 C   0  0  0  0  0  3  0  0  0  0  0  0
  -25.9980  -26.7190   19.5710 C   0  0  0  0  0  3  0  0  0  0  0  0
  -24.8790  -27.5900   19.5350 C   0  0  0  0  0  3  0  0  0  0  0  0
  -23.6810  -29.7650   20.1850 C   0  0  0  0  0  2  0  0  0  0  0  0
  -24.7140  -31.0270   22.1100 N   0  0  0  0  0  0  0  0  0  0  0  0
  -23.5350  -32.1510   23.7080 O   0  0  0  0  0  0  0  0  0  0  0  0
  -22.7470  -29.4630   22.5210 C   0  0  0  0  0  0  0  0  0  0  0  0
  -21.4160  -29.3030   22.3920 N   0  0  0  0  0  0  0  0  0  0  0  0
  -23.4090  -28.8370   23.3520 O   0  0  0  0  0  0  0  0  0  0  0  0
  -20.9370  -29.8580   21.6980 H   0  0  0  0  0  0  0  0  0  0  0  0
  -18.0260  -28.1230   22.9040 C   0  0  0  0  0  0  0  0  0  0  0  0
  -20.5880  -28.3700   23.1630 C   0  0  0  0  0  3  0  0  0  0  0  0
  -20.6780  -26.9380   22.5860 C   0  0  0  0  0  2  0  0  0  0  0  0
  -19.5710  -26.6240   21.5730 C   0  0  0  0  0  2  0  0  0  0  0  0
  -18.1920  -26.7750   22.2210 C   0  0  0  0  0  2  0  0  0  0  0  0
  -19.1500  -28.8780   23.3310 C   0  0  0  0  0  0  0  0  0  0  0  0
  -18.9380  -30.1380   23.9330 C   0  0  0  0  0  3  0  0  0  0  0  0
  -17.6360  -30.6430   24.1090 C   0  0  0  0  0  3  0  0  0  0  0  0
  -16.5260  -29.8850   23.6950 C   0  0  0  0  0  3  0  0  0  0  0  0
  -16.7220  -28.6270   23.0990 C   0  0  0  0  0  3  0  0  0  0  0  0
  -25.8960  -32.5060   23.8320 C   0  0  0  0  0  3  0  0  0  0  0  0
  -26.3920  -31.7460   25.1250 C   0  0  1  0  0  0  0  0  0  0  0  0
  -25.2840  -31.5240   26.1820 C   0  0  0  0  0  1  0  0  0  0  0  0
  -26.9770  -30.3630   24.7620 C   0  0  0  0  0  1  0  0  0  0  0  0
  -27.5370  -32.5450   25.7930 C   0  0  0  0  0  1  0  0  0  0  0  0
  -25.5760  -33.9060   24.1570 N   0  0  0  0  0  0  0  0  0  0  0  0
  -25.9160  -34.9650   23.4090 C   0  0  0  0  0  0  0  0  0  0  0  0
  -26.5940  -34.8640   22.3840 O   0  0  0  0  0  0  0  0  0  0  0  0
  -24.9720  -34.0580   24.9530 H   0  0  0  0  0  0  0  0  0  0  0  0
  -24.1940  -36.7670   23.0520 C   0  0  0  0  0  1  0  0  0  0  0  0
  -25.4290  -36.3530   23.8690 C   0  0  0  0  0  3  0  0  0  0  0  0
  -27.5580  -37.2360   24.7200 C   0  0  0  0  0  1  0  0  0  0  0  0
  -26.4640  -37.4060   23.7670 N   0  0  0  0  0  0  0  0  0  0  0  0
  -26.0590  -38.3270   23.9120 H   0  0  0  0  0  0  0  0  0  0  0  0
  1 45  1  0
  1  2  1  0
  2  4  1  0
  2  3  1  0
  5  7  1  0
  5  6  1  0
  6  8  1  0
  7  6  1  0
  7  2  1  0
  8  9  1  0
  9 15  1  0
 10 15  1  0
 11 12  1  0
 11 10  1  0
 13 12  1  0
 13 20  1  0
 13 14  1  0
 15 14  1  0
 16  9  2  0
 17 18  2  0
 18 37  1  0
 19 18  1  0
 19 22  1  0
 20 17  1  0
 20 21  1  0
 21 19  2  0
 22 23  1  0
 23 24  2  0
 25 28  1  0
 25 24  1  0
 26 25  2  0
 27 26  1  0
 27 22  2  0
 28 29  1  0
 29 30  1  0
 30 31  2  0
 32 31  1  0
 32 36  1  0
 33 32  2  0
 34 29  2  0
 34 33  1  0
 35 34  1  0
 37 38  1  0
 38 41  1  0
 38 40  1  0
 39 37  2  0
 42 43  1  0
 42 17  1  0
 44 42  1  0
 46 45  1  0
 47 58  2  0
 48 46  1  0
 48 53  1  0
 49 57  1  0
 49 59  1  0
 50 56  1  0
 50 52  1  0
 51 57  1  0
 52 53  2  0
 52 51  1  0
 54 48  2  0
 55 54  1  0
 55 50  2  0
 56 49  1  0
 57 47  1  0
 59 61  2  0
 60 59  1  0
 62 60  1  0
 63 72  2  0
 63 68  1  0
 64 60  1  0
 64 68  1  0
 65 64  1  0
 66 67  1  0
 66 65  1  0
 67 63  1  0
 68 69  2  0
 69 70  1  0
 71 70  2  0
 72 71  1  0
 73 47  1  0
 73 78  1  0
 73 74  1  0
 74 77  1  1
 74 75  1  0
 76 74  1  0
 78 81  1  0
 79 83  1  0
 79 78  1  0
 80 79  2  0
 83 82  1  0
 85 83  1  0
 85 86  1  0
 85 84  1  0
M  ISO  4   8 100   9 100  45 101  46 101
M  END
>  <TORSDO>  (55) 
F 20

>  <SCORE>  (55) 
-15.233

>  <name>  (55) 
55

>  <ligand_id>  (55) 
55

>  <original_smiles>  (55) 
[H]c1c([H])c([H])c2c(c1[H])C([H])([H])C([H])([H])C([H])([H])C2([H])N([H])C(=O)C1([H])N(C(=O)C([H])(N([H])C(=O)C([H])(N([H])C([H])([H])[H])C([H])([H])[H])C(C([H])([H])[H])(C([H])([H])[H])C([H])([H])[H])C([H])([H])c2c([H])c(OC([H])([H])C([H])([H])[N+]([H])([H])C3([H])C([H])([H])C3([H])C([H])([H])C(=O)N3C([H])([H])C([H])([H])C([H])([H])C([H])(n4nc(-c5c([H])c([H])c(Oc6c([H])c([H])c(F)c([H])c6F)c([H])c5[H])c(C(=O)N([H])[H])c4N([H])[H])C3([H])[H])c([H])c([H])c2C1([H])[H]

>  <smiles>  (55) 
[H]c1c([H])c([H])c2c(c1[H])C([H])([H])C([H])([H])C([H])([H])C2([H])N([H])C(=O)C1([H])N(C(=O)C([H])(N([H])C(=O)C([H])(N([H])C([H])([H])[H])C([H])([H])[H])C(C([H])([H])[H])(C([H])([H])[H])C([H])([H])[H])C([H])([H])c2c([H])c(OC([H])([H])C([H])([H])[N+]([H])([H])C3([H])C([H])([H])C3([H])C([H])([H])C(=O)N3C([H])([H])C([H])([H])C([H])([H])C([H])(n4nc(-c5c([H])c([H])c(Oc6c([H])c([H])c(F)c([H])c6F)c([H])c5[H])c(C(=O)N([H])[H])c4N([H])[H])C3([H])[H])c([H])c([H])c2C1([H])[H]

$$$$
56:0:0
     RDKit          3D

 87 93  0  0  1  0  0  0  0  0999 V2000
  -30.1770  -16.2230   20.2860 C   0  0  0  0  0  0  0  0  0  0  0  0
  -30.3450  -13.5540   19.5300 C   0  0  0  0  0  2  0  0  0  0  0  0
  -29.5310  -12.8630   18.3830 C   0  0  0  0  0  2  0  0  0  0  0  0
  -28.1470  -12.4170   18.8610 C   0  0  0  0  0  2  0  0  0  0  0  0
  -27.5580  -13.4760   19.8110 C   0  0  0  0  0  3  0  0  0  0  0  0
  -28.5430  -14.0360   20.8820 C   0  0  0  0  0  2  0  0  0  0  0  0
  -29.6250  -14.8020   20.1670 N   0  0  0  0  0  0  0  0  0  0  0  0
  -31.4100  -15.9570   20.2680 O   0  0  0  0  0  0  0  0  0  0  0  0
  -31.0740  -21.4400   21.6070 C   0  0  0  0  0  2  0  0  0  0  0  0
  -28.6640  -21.3190   22.0120 C   0  0  0  0  0  2  0  0  0  0  0  0
  -30.6160  -18.9700   20.8510 C   0  0  0  0  0  2  0  0  0  0  0  0
  -28.6690  -19.2890   20.0310 C   0  0  0  0  0  1  0  0  0  0  0  0
  -30.3650  -20.6160   20.5140 C   0  0  0  0  0  3  0  0  0  0  0  0
  -29.9750  -21.8920   22.5840 C   0  0  0  0  0  3  0  0  0  0  0  0
  -28.8680  -21.2070   20.4850 C   0  0  0  0  0  2  0  0  0  0  0  0
  -30.2600  -21.5250   24.0560 C   0  0  0  0  0  1  0  0  0  0  0  0
  -29.6920  -17.8390   20.3670 N   0  0  0  0  0  0  0  0  0  0  0  0
  -25.2120  -13.9790   20.5910 C   0  0  0  0  0  0  0  0  0  0  0  0
  -24.1510  -13.2000   20.9490 C   0  0  0  0  0  0  0  0  0  0  0  0
  -24.6170  -11.8480   20.9090 C   0  0  0  0  0  0  0  0  0  0  0  0
  -26.2550  -13.1120   20.3440 N   0  0  0  0  0  0  0  0  0  0  0  0
  -25.9120  -11.8170   20.6000 N   0  0  0  0  0  0  0  0  0  0  0  0
  -23.8770  -10.5900   21.0880 C   0  0  0  0  0  0  0  0  0  0  0  0
  -24.2980   -9.6090   22.0120 C   0  0  0  0  0  3  0  0  0  0  0  0
  -23.5500   -8.4220   22.1860 C   0  0  0  0  0  3  0  0  0  0  0  0
  -22.3670   -8.2100   21.4380 C   0  0  0  0  0  0  0  0  0  0  0  0
  -21.9660   -9.1820   20.5040 C   0  0  0  0  0  3  0  0  0  0  0  0
  -22.7150  -10.3580   20.3270 C   0  0  0  0  0  3  0  0  0  0  0  0
  -21.5950   -7.0770   21.5230 O   0  0  0  0  0  0  0  0  0  0  0  0
  -21.5490   -6.3190   22.6650 C   0  0  0  0  0  0  0  0  0  0  0  0
  -21.1590   -6.8670   23.9070 C   0  0  0  0  0  3  0  0  0  0  0  0
  -21.0560   -6.0360   25.0420 C   0  0  0  0  0  3  0  0  0  0  0  0
  -21.3350   -4.6610   24.9360 C   0  0  0  0  0  0  0  0  0  0  0  0
  -21.7190   -4.1140   23.6990 C   0  0  0  0  0  3  0  0  0  0  0  0
  -21.8220   -4.9400   22.5670 C   0  0  0  0  0  0  0  0  0  0  0  0
  -22.1720   -4.4030   21.3730 F   0  0  0  0  0  0  0  0  0  0  0  0
  -21.2300   -3.8620   26.0230 F   0  0  0  0  0  0  0  0  0  0  0  0
  -22.7550  -13.6850   21.2050 C   0  0  0  0  0  0  0  0  0  0  0  0
  -22.0180  -12.9990   22.0680 N   0  0  0  0  0  0  0  0  0  0  0  0
  -22.3320  -14.7130   20.6770 O   0  0  0  0  0  0  0  0  0  0  0  0
  -22.3770  -12.1690   22.5180 H   0  0  0  0  0  0  0  0  0  0  0  0
  -21.0800  -13.3070   22.2840 H   0  0  0  0  0  0  0  0  0  0  0  0
  -25.3740  -15.3520   20.4200 N   0  0  0  0  0  0  0  0  0  0  0  0
  -24.6070  -16.0020   20.5400 H   0  0  0  0  0  0  0  0  0  0  0  0
  -26.2260  -15.7950   20.0970 H   0  0  0  0  0  0  0  0  0  0  0  0
  -28.2570  -23.2060   19.9400 C   0  0  0  0  0 15  0  0  0  0  0  0
  -28.2010  -25.1190   20.2190 O   0  0  0  0  0  1  0  0  0  0  0  0
  -24.6760  -31.8020   23.0240 C   0  0  0  0  0  0  0  0  0  0  0  0
  -27.2580  -26.4710   20.1090 C   0  0  0  0  0  0  0  0  0  0  0  0
  -23.5210  -30.3810   21.3890 C   0  0  0  0  0  3  0  0  0  0  0  0
  -24.9950  -28.6810   20.0040 C   0  0  0  0  0  0  0  0  0  0  0  0
  -26.1090  -30.4600   21.3140 C   0  0  0  0  0  2  0  0  0  0  0  0
  -26.1870  -28.9900   20.6680 C   0  0  0  0  0  0  0  0  0  0  0  0
  -27.2780  -27.9220   20.6850 C   0  0  0  0  0  3  0  0  0  0  0  0
  -26.0300  -26.4570   19.3670 C   0  0  0  0  0  3  0  0  0  0  0  0
  -24.9750  -27.4430   19.3280 C   0  0  0  0  0  3  0  0  0  0  0  0
  -23.7950  -29.6630   20.0280 C   0  0  0  0  0  2  0  0  0  0  0  0
  -24.7970  -30.9210   21.9620 N   0  0  0  0  0  0  0  0  0  0  0  0
  -23.5700  -32.1020   23.5140 O   0  0  0  0  0  0  0  0  0  0  0  0
  -22.7860  -29.4220   22.3690 C   0  0  0  0  0  0  0  0  0  0  0  0
  -21.4470  -29.2910   22.2650 N   0  0  0  0  0  0  0  0  0  0  0  0
  -23.4400  -28.7910   23.2040 O   0  0  0  0  0  0  0  0  0  0  0  0
  -20.9650  -29.8540   21.5760 H   0  0  0  0  0  0  0  0  0  0  0  0
  -18.0550  -28.1050   22.8390 C   0  0  0  0  0  0  0  0  0  0  0  0
  -20.6260  -28.3520   23.0420 C   0  0  0  0  0  3  0  0  0  0  0  0
  -20.7010  -26.9260   22.4470 C   0  0  0  0  0  2  0  0  0  0  0  0
  -19.5730  -26.6250   21.4550 C   0  0  0  0  0  2  0  0  0  0  0  0
  -18.2060  -26.7710   22.1280 C   0  0  0  0  0  2  0  0  0  0  0  0
  -19.1900  -28.8540   23.2540 C   0  0  0  0  0  0  0  0  0  0  0  0
  -18.9900  -30.1000   23.8880 C   0  0  0  0  0  3  0  0  0  0  0  0
  -17.6910  -30.5980   24.1040 C   0  0  0  0  0  3  0  0  0  0  0  0
  -16.5720  -29.8490   23.6980 C   0  0  0  0  0  3  0  0  0  0  0  0
  -16.7560  -28.6040   23.0730 C   0  0  0  0  0  3  0  0  0  0  0  0
  -25.9160  -32.4850   23.6770 C   0  0  0  0  0  3  0  0  0  0  0  0
  -25.5520  -33.8710   24.0440 N   0  0  0  0  0  0  0  0  0  0  0  0
  -25.8510  -34.9700   23.3380 C   0  0  0  0  0  0  0  0  0  0  0  0
  -26.5150  -34.9260   22.3000 O   0  0  0  0  0  0  0  0  0  0  0  0
  -24.9650  -33.9770   24.8590 H   0  0  0  0  0  0  0  0  0  0  0  0
  -24.0750  -36.7430   23.0970 C   0  0  0  0  0  1  0  0  0  0  0  0
  -25.3430  -36.3320   23.8620 C   0  0  0  0  0  3  0  0  0  0  0  0
  -27.4730  -37.2480   24.6790 C   0  0  0  0  0  1  0  0  0  0  0  0
  -26.3440  -37.4170   23.7680 N   0  0  0  0  0  0  0  0  0  0  0  0
  -25.9160  -38.3190   23.9580 H   0  0  0  0  0  0  0  0  0  0  0  0
  -26.4240  -31.7250   24.9640 C   0  0  1  0  0  0  0  0  0  0  0  0
  -25.3180  -31.4780   26.0180 C   0  0  0  0  0  1  0  0  0  0  0  0
  -27.0310  -30.3550   24.5930 C   0  0  0  0  0  1  0  0  0  0  0  0
  -27.5580  -32.5350   25.6340 C   0  0  0  0  0  1  0  0  0  0  0  0
  1 17  1  0
  2  7  1  0
  3  4  1  0
  3  2  1  0
  5  4  1  0
  5 21  1  0
  5  6  1  0
  7  1  1  0
  7  6  1  0
  8  1  2  0
  9 14  1  0
 10 14  1  0
 12 17  1  0
 13 11  1  0
 13  9  1  0
 14 16  1  0
 15 13  1  0
 15 10  1  0
 17 11  1  0
 18 19  2  0
 19 38  1  0
 20 19  1  0
 20 23  1  0
 21 18  1  0
 21 22  1  0
 22 20  2  0
 23 24  1  0
 24 25  2  0
 26 29  1  0
 26 25  1  0
 27 26  2  0
 28 27  1  0
 28 23  2  0
 29 30  1  0
 30 31  1  0
 31 32  2  0
 33 32  1  0
 33 37  1  0
 34 33  2  0
 35 30  2  0
 35 34  1  0
 36 35  1  0
 38 39  1  0
 39 42  1  0
 39 41  1  0
 40 38  2  0
 43 44  1  0
 43 18  1  0
 45 43  1  0
 48 59  2  0
 49 47  1  0
 49 54  1  0
 50 58  1  0
 50 60  1  0
 51 57  1  0
 51 53  1  0
 52 58  1  0
 53 54  2  0
 53 52  1  0
 55 49  2  0
 56 55  1  0
 56 51  2  0
 57 50  1  0
 58 48  1  0
 60 62  2  0
 61 60  1  0
 63 61  1  0
 64 73  2  0
 64 69  1  0
 65 61  1  0
 65 69  1  0
 66 65  1  0
 67 68  1  0
 67 66  1  0
 68 64  1  0
 69 70  2  0
 70 71  1  0
 72 71  2  0
 73 72  1  0
 74 48  1  0
 74 75  1  0
 74 84  1  0
 75 78  1  0
 76 80  1  0
 76 75  1  0
 77 76  2  0
 80 79  1  0
 82 80  1  0
 82 83  1  0
 82 81  1  0
 84 87  1  1
 84 85  1  0
 86 84  1  0
M  ISO  4   1 100  17 100  46 101  47 101
M  END
>  <TORSDO>  (56) 
F 16

>  <SCORE>  (56) 
-16.994

>  <name>  (56) 
56

>  <ligand_id>  (56) 
56

>  <original_smiles>  (56) 
[H]c1c([H])c([H])c2c(c1[H])C([H])([H])C([H])([H])C([H])([H])C2([H])N([H])C(=O)C1([H])N(C(=O)C([H])(N([H])C(=O)C([H])(N([H])C([H])([H])[H])C([H])([H])[H])C(C([H])([H])[H])(C([H])([H])[H])C([H])([H])[H])C([H])([H])c2c([H])c(OC([H])([H])C34C([H])([H])N(C(=O)N5C([H])([H])C([H])([H])C([H])([H])C([H])(n6nc(-c7c([H])c([H])c(Oc8c([H])c([H])c(F)c([H])c8F)c([H])c7[H])c(C(=O)N([H])[H])c6N([H])[H])C5([H])[H])C([H])([H])C3([H])C([H])([H])C([H])(C([H])([H])[H])C4([H])[H])c([H])c([H])c2C1([H])[H]

>  <smiles>  (56) 
[H]c1c([H])c([H])c2c(c1[H])C([H])([H])C([H])([H])C([H])([H])C2([H])N([H])C(=O)C1([H])N(C(=O)C([H])(N([H])C(=O)C([H])(N([H])C([H])([H])[H])C([H])([H])[H])C(C([H])([H])[H])(C([H])([H])[H])C([H])([H])[H])C([H])([H])c2c([H])c(OC([H])([H])C34C([H])([H])N(C(=O)N5C([H])([H])C([H])([H])C([H])([H])C([H])(n6nc(-c7c([H])c([H])c(Oc8c([H])c([H])c(F)c([H])c8F)c([H])c7[H])c(C(=O)N([H])[H])c6N([H])[H])C5([H])[H])C([H])([H])C3([H])C([H])([H])C([H])(C([H])([H])[H])C4([H])[H])c([H])c([H])c2C1([H])[H]

$$$$
57:0:0
     RDKit          3D

 91 98  0  0  1  0  0  0  0  0999 V2000
  -29.3310  -22.8620   19.7680 C   0  0  0  0  0  0  0  0  0  0  0  0
  -30.0910  -21.8880   20.3130 N   0  0  0  0  0  0  0  0  0  0  0  0
  -28.5760  -22.6220   18.8240 O   0  0  0  0  0  0  0  0  0  0  0  0
  -30.6700  -22.1130   21.1120 H   0  0  0  0  0  0  0  0  0  0  0  0
  -31.1830  -20.4600   18.6240 C   0  0  0  0  0  1  0  0  0  0  0  0
  -30.1980  -20.4980   19.8100 C   0  0  0  0  0  3  0  0  0  0  0  0
  -30.5520  -19.4530   20.9010 C   0  0  0  0  0  0  0  0  0  0  0  0
  -30.4480  -18.1380   20.5960 N   0  0  0  0  0  0  0  0  0  0  0  0
  -30.9500  -19.8410   22.0030 O   0  0  0  0  0  0  0  0  0  0  0  0
  -30.1320  -17.9120   19.6610 H   0  0  0  0  0  0  0  0  0  0  0  0
  -30.8640  -17.0140   21.4690 C   0  0  0  0  0  2  0  0  0  0  0  0
  -30.0910  -15.6590   21.2920 C   0  0  0  0  0  2  0  0  0  0  0  0
  -30.7460  -14.5170   20.4590 C   0  0  0  0  0  0  0  0  0  0  0  0
  -30.4320  -12.3850   19.2230 C   0  0  0  0  0  2  0  0  0  0  0  0
  -29.4740  -12.6030   18.0330 C   0  0  0  0  0  2  0  0  0  0  0  0
  -28.0030  -12.4620   18.4720 C   0  0  0  0  0  2  0  0  0  0  0  0
  -27.6850  -13.2830   19.7510 C   0  0  0  0  0  3  0  0  0  0  0  0
  -28.7470  -13.0340   20.8460 C   0  0  0  0  0  2  0  0  0  0  0  0
  -30.0690  -13.3460   20.2780 N   0  0  0  0  0  0  0  0  0  0  0  0
  -31.8420  -14.7180   19.9260 O   0  0  0  0  0  0  0  0  0  0  0  0
  -25.2910  -13.9120   20.4590 C   0  0  0  0  0  0  0  0  0  0  0  0
  -24.2180  -13.1500   20.8340 C   0  0  0  0  0  0  0  0  0  0  0  0
  -24.6690  -11.7960   20.8120 C   0  0  0  0  0  0  0  0  0  0  0  0
  -26.3310  -13.0220   20.2340 N   0  0  0  0  0  0  0  0  0  0  0  0
  -25.9590  -11.7440   20.5010 N   0  0  0  0  0  0  0  0  0  0  0  0
  -23.9340  -10.5400   21.0130 C   0  0  0  0  0  0  0  0  0  0  0  0
  -24.3700   -9.5710   21.9430 C   0  0  0  0  0  3  0  0  0  0  0  0
  -23.6380   -8.3790   22.1330 C   0  0  0  0  0  3  0  0  0  0  0  0
  -22.4550   -8.1470   21.3910 C   0  0  0  0  0  0  0  0  0  0  0  0
  -22.0370   -9.1060   20.4500 C   0  0  0  0  0  3  0  0  0  0  0  0
  -22.7690  -10.2890   20.2600 C   0  0  0  0  0  3  0  0  0  0  0  0
  -21.6940   -7.0070   21.4860 O   0  0  0  0  0  0  0  0  0  0  0  0
  -21.6570   -6.2620   22.6370 C   0  0  0  0  0  0  0  0  0  0  0  0
  -21.2660   -6.8190   23.8730 C   0  0  0  0  0  3  0  0  0  0  0  0
  -21.1750   -6.0020   25.0170 C   0  0  0  0  0  3  0  0  0  0  0  0
  -21.4660   -4.6270   24.9260 C   0  0  0  0  0  0  0  0  0  0  0  0
  -21.8500   -4.0690   23.6950 C   0  0  0  0  0  3  0  0  0  0  0  0
  -21.9430   -4.8830   22.5530 C   0  0  0  0  0  0  0  0  0  0  0  0
  -22.2920   -4.3360   21.3630 F   0  0  0  0  0  0  0  0  0  0  0  0
  -21.3720   -3.8390   26.0230 F   0  0  0  0  0  0  0  0  0  0  0  0
  -22.8240  -13.6390   21.1090 C   0  0  0  0  0  0  0  0  0  0  0  0
  -22.0970  -12.9530   21.9820 N   0  0  0  0  0  0  0  0  0  0  0  0
  -22.3880  -14.6630   20.5830 O   0  0  0  0  0  0  0  0  0  0  0  0
  -22.4630  -12.1260   22.4310 H   0  0  0  0  0  0  0  0  0  0  0  0
  -21.1620  -13.2600   22.2100 H   0  0  0  0  0  0  0  0  0  0  0  0
  -25.4650  -15.2800   20.2720 N   0  0  0  0  0  0  0  0  0  0  0  0
  -24.7070  -15.9440   20.3850 H   0  0  0  0  0  0  0  0  0  0  0  0
  -26.3240  -15.7120   19.9540 H   0  0  0  0  0  0  0  0  0  0  0  0
  -29.4340  -24.3130   20.3120 C   0  0  0  0  0  2  0  0  0  0  0  0
  -28.2410  -25.2220   19.8910 C   0  0  0  0  0  2  0  0  0  0  0  0
  -28.3620  -26.6330   20.2050 O   0  0  0  0  0  0  0  0  0  0  0  0
  -24.5830  -31.8760   23.2400 C   0  0  0  0  0  0  0  0  0  0  0  0
  -27.1990  -27.3970   20.1590 C   0  0  0  0  0  0  0  0  0  0  0  0
  -23.3670  -30.4750   21.6060 C   0  0  0  0  0  3  0  0  0  0  0  0
  -24.8120  -28.9390   20.1700 C   0  0  0  0  0  0  0  0  0  0  0  0
  -25.8980  -30.8240   21.3990 C   0  0  0  0  0  2  0  0  0  0  0  0
  -25.9780  -29.4520   20.7540 C   0  0  0  0  0  0  0  0  0  0  0  0
  -27.1740  -28.6900   20.7400 C   0  0  0  0  0  3  0  0  0  0  0  0
  -26.0100  -26.9160   19.5570 C   0  0  0  0  0  3  0  0  0  0  0  0
  -24.8270  -27.6730   19.5650 C   0  0  0  0  0  3  0  0  0  0  0  0
  -23.5710  -29.8030   20.2240 C   0  0  0  0  0  2  0  0  0  0  0  0
  -24.6350  -31.0730   22.1400 N   0  0  0  0  0  0  0  0  0  0  0  0
  -23.5040  -32.1520   23.7830 O   0  0  0  0  0  0  0  0  0  0  0  0
  -22.7150  -29.4570   22.5690 C   0  0  0  0  0  0  0  0  0  0  0  0
  -21.3890  -29.2770   22.4460 N   0  0  0  0  0  0  0  0  0  0  0  0
  -23.3980  -28.8320   23.3850 O   0  0  0  0  0  0  0  0  0  0  0  0
  -20.8980  -29.8360   21.7630 H   0  0  0  0  0  0  0  0  0  0  0  0
  -18.0140  -28.0800   22.9380 C   0  0  0  0  0  0  0  0  0  0  0  0
  -20.5710  -28.3410   23.2170 C   0  0  0  0  0  3  0  0  0  0  0  0
  -20.6760  -26.9070   22.6470 C   0  0  0  0  0  2  0  0  0  0  0  0
  -19.5780  -26.5800   21.6290 C   0  0  0  0  0  2  0  0  0  0  0  0
  -18.1940  -26.7270   22.2690 C   0  0  0  0  0  2  0  0  0  0  0  0
  -19.1310  -28.8450   23.3680 C   0  0  0  0  0  0  0  0  0  0  0  0
  -18.9110  -30.1110   23.9500 C   0  0  0  0  0  3  0  0  0  0  0  0
  -17.6060  -30.6130   24.1120 C   0  0  0  0  0  3  0  0  0  0  0  0
  -16.5040  -29.8460   23.6990 C   0  0  0  0  0  3  0  0  0  0  0  0
  -16.7070  -28.5820   23.1170 C   0  0  0  0  0  3  0  0  0  0  0  0
  -25.8730  -32.5040   23.8560 C   0  0  0  0  0  3  0  0  0  0  0  0
  -25.5670  -33.9030   24.1860 N   0  0  0  0  0  0  0  0  0  0  0  0
  -25.9020  -34.9540   23.4270 C   0  0  0  0  0  0  0  0  0  0  0  0
  -26.5710  -34.8480   22.3950 O   0  0  0  0  0  0  0  0  0  0  0  0
  -24.9710  -34.0600   24.9850 H   0  0  0  0  0  0  0  0  0  0  0  0
  -24.1780  -36.7530   23.0760 C   0  0  0  0  0  1  0  0  0  0  0  0
  -25.4180  -36.3430   23.8860 C   0  0  0  0  0  3  0  0  0  0  0  0
  -27.5580  -37.2210   24.7110 C   0  0  0  0  0  1  0  0  0  0  0  0
  -26.4520  -37.3950   23.7730 N   0  0  0  0  0  0  0  0  0  0  0  0
  -26.0480  -38.3150   23.9240 H   0  0  0  0  0  0  0  0  0  0  0  0
  -26.3940  -31.7300   25.1300 C   0  0  1  0  0  0  0  0  0  0  0  0
  -25.3090  -31.4960   26.2060 C   0  0  0  0  0  1  0  0  0  0  0  0
  -26.9680  -30.3480   24.7330 C   0  0  0  0  0  1  0  0  0  0  0  0
  -27.5470  -32.5210   25.7890 C   0  0  0  0  0  1  0  0  0  0  0  0
  1 49  1  0
  1  2  1  0
  2  4  1  0
  3  1  2  0
  6  5  1  0
  6  2  1  0
  6  7  1  0
  7  9  2  0
  8  7  1  0
  8 11  1  0
 10  8  1  0
 12 11  1  0
 13 12  1  0
 14 19  1  0
 15 16  1  0
 15 14  1  0
 17 16  1  0
 17 24  1  0
 17 18  1  0
 19 13  1  0
 19 18  1  0
 20 13  2  0
 21 22  2  0
 22 41  1  0
 23 22  1  0
 23 26  1  0
 24 21  1  0
 24 25  1  0
 25 23  2  0
 26 27  1  0
 27 28  2  0
 29 32  1  0
 29 28  1  0
 30 29  2  0
 31 30  1  0
 31 26  2  0
 32 33  1  0
 33 34  1  0
 34 35  2  0
 36 35  1  0
 36 40  1  0
 37 36  2  0
 38 33  2  0
 38 37  1  0
 39 38  1  0
 41 42  1  0
 42 45  1  0
 42 44  1  0
 43 41  2  0
 46 47  1  0
 46 21  1  0
 48 46  1  0
 50 51  1  0
 50 49  1  0
 52 63  2  0
 53 51  1  0
 53 58  1  0
 54 62  1  0
 54 64  1  0
 55 61  1  0
 55 57  1  0
 56 62  1  0
 57 56  1  0
 58 57  2  0
 59 60  1  0
 59 53  2  0
 60 55  2  0
 61 54  1  0
 62 52  1  0
 64 66  2  0
 65 64  1  0
 67 65  1  0
 68 77  2  0
 68 73  1  0
 69 65  1  0
 69 73  1  0
 70 69  1  0
 71 72  1  0
 71 70  1  0
 72 68  1  0
 73 74  2  0
 74 75  1  0
 76 75  2  0
 77 76  1  0
 78 52  1  0
 78 79  1  0
 78 88  1  0
 79 82  1  0
 80 84  1  0
 80 79  1  0
 81 80  2  0
 84 83  1  0
 86 84  1  0
 86 87  1  0
 86 85  1  0
 88 91  1  1
 88 89  1  0
 90 88  1  0
M  ISO  4  12 100  13 100  50 101  51 101
M  END
>  <TORSDO>  (57) 
F 22

>  <SCORE>  (57) 
-13.187

>  <name>  (57) 
57

>  <ligand_id>  (57) 
57

>  <original_smiles>  (57) 
[H]c1c([H])c([H])c2c(c1[H])C([H])([H])C([H])([H])C([H])([H])C2([H])N([H])C(=O)C1([H])N(C(=O)C([H])(N([H])C(=O)C([H])(N([H])C([H])([H])[H])C([H])([H])[H])C(C([H])([H])[H])(C([H])([H])[H])C([H])([H])[H])C([H])([H])c2c([H])c(OC([H])([H])C([H])([H])C(=O)N([H])C([H])(C(=O)N([H])C([H])([H])C([H])([H])C(=O)N3C([H])([H])C([H])([H])C([H])([H])C([H])(n4nc(-c5c([H])c([H])c(Oc6c([H])c([H])c(F)c([H])c6F)c([H])c5[H])c(C(=O)N([H])[H])c4N([H])[H])C3([H])[H])C([H])([H])[H])c([H])c([H])c2C1([H])[H]

>  <smiles>  (57) 
[H]c1c([H])c([H])c2c(c1[H])C([H])([H])C([H])([H])C([H])([H])C2([H])N([H])C(=O)C1([H])N(C(=O)C([H])(N([H])C(=O)C([H])(N([H])C([H])([H])[H])C([H])([H])[H])C(C([H])([H])[H])(C([H])([H])[H])C([H])([H])[H])C([H])([H])c2c([H])c(OC([H])([H])C([H])([H])C(=O)N([H])C([H])(C(=O)N([H])C([H])([H])C([H])([H])C(=O)N3C([H])([H])C([H])([H])C([H])([H])C([H])(n4nc(-c5c([H])c([H])c(Oc6c([H])c([H])c(F)c([H])c6F)c([H])c5[H])c(C(=O)N([H])[H])c4N([H])[H])C3([H])[H])C([H])([H])[H])c([H])c([H])c2C1([H])[H]

$$$$
58:0:0
     RDKit          3D

 90 98  0  0  1  0  0  0  0  0999 V2000
  -29.9700  -23.6930   22.3360 C   0  0  0  0  0  3  0  0  0  0  0  0
  -30.0660  -22.9590   21.2110 C   0  0  0  0  0  3  0  0  0  0  0  0
  -28.7150  -24.4290   22.7900 C   0  0  0  0  0  2  0  0  0  0  0  0
  -27.4920  -24.1730   21.8810 C   0  0  0  0  0  2  0  0  0  0  0  0
  -28.9180  -22.7590   20.2390 C   0  0  0  0  0  3  0  0  0  0  0  0
  -27.8980  -24.2510   20.4040 C   0  0  0  0  0  3  0  0  0  0  0  0
  -28.1570  -25.8850   20.2580 O   0  0  0  0  0  0  0  0  0  0  0  0
  -24.6380  -31.9000   23.2370 C   0  0  0  0  0  0  0  0  0  0  0  0
  -27.1460  -26.9860   20.2340 C   0  0  0  0  0  0  0  0  0  0  0  0
  -23.4320  -30.5040   21.6100 C   0  0  0  0  0  3  0  0  0  0  0  0
  -24.8610  -28.8840   20.1910 C   0  0  0  0  0  0  0  0  0  0  0  0
  -25.9990  -30.6960   21.4520 C   0  0  0  0  0  2  0  0  0  0  0  0
  -26.0560  -29.2830   20.8040 C   0  0  0  0  0  0  0  0  0  0  0  0
  -27.1950  -28.3570   20.7970 C   0  0  0  0  0  3  0  0  0  0  0  0
  -25.9210  -26.7390   19.5760 C   0  0  0  0  0  3  0  0  0  0  0  0
  -24.8190  -27.6320   19.5560 C   0  0  0  0  0  3  0  0  0  0  0  0
  -23.6520  -29.8170   20.2360 C   0  0  0  0  0  2  0  0  0  0  0  0
  -24.7120  -31.0610   22.1540 N   0  0  0  0  0  0  0  0  0  0  0  0
  -23.5510  -32.1980   23.7600 O   0  0  0  0  0  0  0  0  0  0  0  0
  -22.7360  -29.5150   22.5850 C   0  0  0  0  0  0  0  0  0  0  0  0
  -21.4050  -29.3520   22.4640 N   0  0  0  0  0  0  0  0  0  0  0  0
  -23.4000  -28.8950   23.4170 O   0  0  0  0  0  0  0  0  0  0  0  0
  -20.9200  -29.9070   21.7720 H   0  0  0  0  0  0  0  0  0  0  0  0
  -18.0220  -28.1370   22.9750 C   0  0  0  0  0  0  0  0  0  0  0  0
  -20.5810  -28.4200   23.2430 C   0  0  0  0  0  3  0  0  0  0  0  0
  -20.6900  -26.9800   22.6870 C   0  0  0  0  0  2  0  0  0  0  0  0
  -19.5930  -26.6410   21.6730 C   0  0  0  0  0  2  0  0  0  0  0  0
  -18.2070  -26.7840   22.3110 C   0  0  0  0  0  2  0  0  0  0  0  0
  -19.1350  -28.9130   23.3990 C   0  0  0  0  0  0  0  0  0  0  0  0
  -18.9050  -30.1760   23.9830 C   0  0  0  0  0  3  0  0  0  0  0  0
  -17.5950  -30.6670   24.1460 C   0  0  0  0  0  3  0  0  0  0  0  0
  -16.4970  -29.8900   23.7360 C   0  0  0  0  0  3  0  0  0  0  0  0
  -16.7120  -28.6280   23.1570 C   0  0  0  0  0  3  0  0  0  0  0  0
  -25.9140  -32.5430   23.8630 C   0  0  0  0  0  3  0  0  0  0  0  0
  -25.6000  -33.9430   24.2010 N   0  0  0  0  0  0  0  0  0  0  0  0
  -25.9090  -35.0040   23.4450 C   0  0  0  0  0  0  0  0  0  0  0  0
  -26.5520  -34.9080   22.3960 O   0  0  0  0  0  0  0  0  0  0  0  0
  -25.0270  -34.0900   25.0190 H   0  0  0  0  0  0  0  0  0  0  0  0
  -24.1590  -36.7950   23.1670 C   0  0  0  0  0  1  0  0  0  0  0  0
  -25.4340  -36.3930   23.9260 C   0  0  0  0  0  3  0  0  0  0  0  0
  -27.5940  -37.2920   24.6720 C   0  0  0  0  0  1  0  0  0  0  0  0
  -26.4540  -37.4510   23.7720 N   0  0  0  0  0  0  0  0  0  0  0  0
  -26.0490  -38.3700   23.9340 H   0  0  0  0  0  0  0  0  0  0  0  0
  -26.4240  -31.7780   25.1460 C   0  0  1  0  0  0  0  0  0  0  0  0
  -25.3290  -31.5500   26.2170 C   0  0  0  0  0  1  0  0  0  0  0  0
  -27.0040  -30.3950   24.7710 C   0  0  0  0  0  1  0  0  0  0  0  0
  -27.5780  -32.5710   25.8030 C   0  0  0  0  0  1  0  0  0  0  0  0
  -28.5690  -20.9750   20.3000 C   0  0  0  0  0  2  0  0  0  0  0  0
  -30.3990  -15.3520   20.2580 C   0  0  0  0  0  0  0  0  0  0  0  0
  -30.3640  -12.9050   19.3830 C   0  0  0  0  0  2  0  0  0  0  0  0
  -29.4410  -12.6750   18.1610 C   0  0  0  0  0  2  0  0  0  0  0  0
  -27.9930  -12.4090   18.6080 C   0  0  0  0  0  2  0  0  0  0  0  0
  -27.5440  -13.3620   19.7440 C   0  0  0  0  0  3  0  0  0  0  0  0
  -28.6020  -13.5270   20.8570 C   0  0  0  0  0  2  0  0  0  0  0  0
  -29.8140  -14.0490   20.2030 N   0  0  0  0  0  0  0  0  0  0  0  0
  -31.6230  -15.3200   20.0420 O   0  0  0  0  0  0  0  0  0  0  0  0
  -30.1010  -18.2420   20.2860 C   0  0  0  0  0  3  0  0  0  0  0  0
  -31.6050  -18.2760   20.2310 C   0  0  0  0  0  1  0  0  0  0  0  0
  -29.6280  -16.8170   20.3350 N   0  0  0  0  0  0  0  0  0  0  0  0
  -29.6570  -19.6930   20.2770 N   0  0  0  0  0  0  0  0  0  0  0  0
  -28.6250  -16.7960   20.4230 H   0  0  0  0  0  0  0  0  0  0  0  0
  -30.5280  -20.2010   20.2180 H   0  0  0  0  0  0  0  0  0  0  0  0
  -25.1800  -13.8930   20.5310 C   0  0  0  0  0  0  0  0  0  0  0  0
  -24.1280  -13.1050   20.9030 C   0  0  0  0  0  0  0  0  0  0  0  0
  -24.6030  -11.7580   20.8520 C   0  0  0  0  0  0  0  0  0  0  0  0
  -26.2260  -13.0290   20.2660 N   0  0  0  0  0  0  0  0  0  0  0  0
  -25.8930  -11.7370   20.5270 N   0  0  0  0  0  0  0  0  0  0  0  0
  -23.8850  -10.4900   21.0320 C   0  0  0  0  0  0  0  0  0  0  0  0
  -24.3100   -9.5250   21.9720 C   0  0  0  0  0  3  0  0  0  0  0  0
  -23.5870   -8.3250   22.1410 C   0  0  0  0  0  3  0  0  0  0  0  0
  -22.4250   -8.0800   21.3730 C   0  0  0  0  0  0  0  0  0  0  0  0
  -22.0180   -9.0350   20.4230 C   0  0  0  0  0  3  0  0  0  0  0  0
  -22.7420  -10.2270   20.2520 C   0  0  0  0  0  3  0  0  0  0  0  0
  -21.6720   -6.9330   21.4550 O   0  0  0  0  0  0  0  0  0  0  0  0
  -21.5920   -6.2060   22.6170 C   0  0  0  0  0  0  0  0  0  0  0  0
  -21.1150   -6.7730   23.8200 C   0  0  0  0  0  3  0  0  0  0  0  0
  -20.9830   -5.9730   24.9710 C   0  0  0  0  0  3  0  0  0  0  0  0
  -21.3170   -4.6060   24.9210 C   0  0  0  0  0  0  0  0  0  0  0  0
  -21.7830   -4.0390   23.7240 C   0  0  0  0  0  3  0  0  0  0  0  0
  -21.9180   -4.8370   22.5730 C   0  0  0  0  0  0  0  0  0  0  0  0
  -22.3510   -4.2790   21.4170 F   0  0  0  0  0  0  0  0  0  0  0  0
  -21.1800   -3.8350   26.0260 F   0  0  0  0  0  0  0  0  0  0  0  0
  -22.7300  -13.5710   21.1850 C   0  0  0  0  0  0  0  0  0  0  0  0
  -22.0090  -12.8630   22.0470 N   0  0  0  0  0  0  0  0  0  0  0  0
  -22.2870  -14.6000   20.6770 O   0  0  0  0  0  0  0  0  0  0  0  0
  -22.3790  -12.0310   22.4820 H   0  0  0  0  0  0  0  0  0  0  0  0
  -21.0700  -13.1580   22.2750 H   0  0  0  0  0  0  0  0  0  0  0  0
  -25.3270  -15.2670   20.3670 N   0  0  0  0  0  0  0  0  0  0  0  0
  -24.5450  -15.9020   20.4950 H   0  0  0  0  0  0  0  0  0  0  0  0
  -26.1410  -15.7210   19.9750 H   0  0  0  0  0  0  0  0  0  0  0  0
  1  3  1  0
  2  1  2  0
  4  3  1  0
  5 48  1  0
  5  6  1  0
  5  2  1  0
  6  7  1  0
  6  4  1  0
  8 19  2  0
  9  7  1  0
  9 14  1  0
 10 18  1  0
 10 20  1  0
 11 17  1  0
 11 13  1  0
 12 18  1  0
 13 12  1  0
 14 13  2  0
 15  9  2  0
 16 15  1  0
 16 11  2  0
 17 10  1  0
 18  8  1  0
 20 22  2  0
 21 20  1  0
 23 21  1  0
 24 33  2  0
 24 29  1  0
 25 21  1  0
 25 29  1  0
 26 25  1  0
 27 28  1  0
 27 26  1  0
 28 24  1  0
 29 30  2  0
 30 31  1  0
 32 31  2  0
 33 32  1  0
 34  8  1  0
 34 35  1  0
 34 44  1  0
 35 38  1  0
 36 40  1  0
 36 35  1  0
 37 36  2  0
 40 39  1  0
 42 40  1  0
 42 43  1  0
 42 41  1  0
 44 47  1  1
 44 45  1  0
 46 44  1  0
 49 59  1  0
 50 55  1  0
 51 52  1  0
 51 50  1  0
 53 52  1  0
 53 66  1  0
 53 54  1  0
 55 49  1  0
 55 54  1  0
 56 49  2  0
 57 58  1  0
 57 59  1  0
 59 61  1  0
 60 57  1  0
 60 48  1  0
 62 60  1  0
 63 64  2  0
 64 83  1  0
 65 64  1  0
 65 68  1  0
 66 67  1  0
 66 63  1  0
 67 65  2  0
 68 69  1  0
 69 70  2  0
 71 74  1  0
 71 70  1  0
 72 71  2  0
 73 72  1  0
 73 68  2  0
 74 75  1  0
 75 76  1  0
 76 77  2  0
 78 77  1  0
 78 82  1  0
 79 78  2  0
 80 75  2  0
 80 79  1  0
 81 80  1  0
 83 84  1  0
 84 87  1  0
 84 86  1  0
 85 83  2  0
 88 89  1  0
 88 63  1  0
 90 88  1  0
M  ISO  4   6 101   7 101  49 100  59 100
M  END
>  <TORSDO>  (58) 
F 17

>  <SCORE>  (58) 
-16.565

>  <name>  (58) 
58

>  <ligand_id>  (58) 
58

>  <original_smiles>  (58) 
[H]C1=C([H])C([H])(C([H])([H])[N+]([H])=C(N([H])C(=O)N2C([H])([H])C([H])([H])C([H])([H])C([H])(n3nc(-c4c([H])c([H])c(Oc5c([H])c([H])c(F)c([H])c5F)c([H])c4[H])c(C(=O)N([H])[H])c3N([H])[H])C2([H])[H])C([H])([H])[H])C([H])(Oc2c([H])c([H])c3c(c2[H])C([H])([H])N(C(=O)C([H])(N([H])C(=O)C([H])(N([H])C([H])([H])[H])C([H])([H])[H])C(C([H])([H])[H])(C([H])([H])[H])C([H])([H])[H])C([H])(C(=O)N([H])C2([H])c4c([H])c([H])c([H])c([H])c4C([H])([H])C([H])([H])C2([H])[H])C3([H])[H])C([H])([H])C1([H])[H]

>  <smiles>  (58) 
[H]C1=C([H])C([H])(C([H])([H])[N+]([H])=C(N([H])C(=O)N2C([H])([H])C([H])([H])C([H])([H])C([H])(n3nc(-c4c([H])c([H])c(Oc5c([H])c([H])c(F)c([H])c5F)c([H])c4[H])c(C(=O)N([H])[H])c3N([H])[H])C2([H])[H])C([H])([H])[H])C([H])(Oc2c([H])c([H])c3c(c2[H])C([H])([H])N(C(=O)C([H])(N([H])C(=O)C([H])(N([H])C([H])([H])[H])C([H])([H])[H])C(C([H])([H])[H])(C([H])([H])[H])C([H])([H])[H])C([H])(C(=O)N([H])C2([H])c4c([H])c([H])c([H])c([H])c4C([H])([H])C([H])([H])C2([H])[H])C3([H])[H])C([H])([H])C1([H])[H]

$$$$
59:0:0
     RDKit          3D

 96105  0  0  1  0  0  0  0  0999 V2000
  -29.1900  -23.1170   21.3220 C   0  0  0  0  0  0  0  0  0  0  0  0
  -29.4700  -18.8600   18.5230 C   0  0  0  0  0  2  0  0  0  0  0  0
  -29.1390  -17.4860   19.1430 C   0  0  0  0  0  2  0  0  0  0  0  0
  -29.9510  -18.1210   21.3860 C   0  0  0  0  0  2  0  0  0  0  0  0
  -28.7900  -21.1340   19.7310 C   0  0  0  0  0  2  0  0  0  0  0  0
  -29.7390  -20.7160   21.8420 C   0  0  0  0  0  2  0  0  0  0  0  0
  -29.8160  -19.9990   19.5230 C   0  0  0  0  0  3  0  0  0  0  0  0
  -30.2860  -19.5830   20.9310 C   0  0  0  0  0  3  0  0  0  0  0  0
  -30.1450  -17.0870   20.2420 C   0  0  0  0  0  3  0  0  0  0  0  0
  -29.2050  -21.7900   20.9770 N   0  0  0  0  0  0  0  0  0  0  0  0
  -29.5350  -23.4510   22.4620 O   0  0  0  0  0  0  0  0  0  0  0  0
  -30.7150  -14.6090   20.1830 C   0  0  0  0  0  0  0  0  0  0  0  0
  -30.4100  -12.4410   19.0410 C   0  0  0  0  0  2  0  0  0  0  0  0
  -29.4190  -12.6500   17.8760 C   0  0  0  0  0  2  0  0  0  0  0  0
  -27.9620  -12.5010   18.3600 C   0  0  0  0  0  2  0  0  0  0  0  0
  -27.6740  -13.3120   19.6510 C   0  0  0  0  0  3  0  0  0  0  0  0
  -28.7750  -13.0840   20.7110 C   0  0  0  0  0  2  0  0  0  0  0  0
  -30.0680  -13.4120   20.0960 N   0  0  0  0  0  0  0  0  0  0  0  0
  -31.8360  -14.7820   19.6980 O   0  0  0  0  0  0  0  0  0  0  0  0
  -29.9670  -15.6570   20.6200 N   0  0  0  0  0  0  0  0  0  0  0  0
  -29.0780  -15.4110   21.0270 H   0  0  0  0  0  0  0  0  0  0  0  0
  -25.3130  -13.9040   20.4810 C   0  0  0  0  0  0  0  0  0  0  0  0
  -24.2580  -13.1270   20.8770 C   0  0  0  0  0  0  0  0  0  0  0  0
  -24.7110  -11.7740   20.7920 C   0  0  0  0  0  0  0  0  0  0  0  0
  -26.3430  -13.0270   20.1810 N   0  0  0  0  0  0  0  0  0  0  0  0
  -25.9880  -11.7380   20.4270 N   0  0  0  0  0  0  0  0  0  0  0  0
  -23.9890  -10.5090   20.9820 C   0  0  0  0  0  0  0  0  0  0  0  0
  -24.4310   -9.5380   21.9060 C   0  0  0  0  0  3  0  0  0  0  0  0
  -23.7090   -8.3380   22.0830 C   0  0  0  0  0  3  0  0  0  0  0  0
  -22.5320   -8.1020   21.3370 C   0  0  0  0  0  0  0  0  0  0  0  0
  -22.1080   -9.0620   20.4010 C   0  0  0  0  0  3  0  0  0  0  0  0
  -22.8310  -10.2530   20.2220 C   0  0  0  0  0  3  0  0  0  0  0  0
  -21.7810   -6.9550   21.4250 O   0  0  0  0  0  0  0  0  0  0  0  0
  -21.7070   -6.2280   22.5870 C   0  0  0  0  0  0  0  0  0  0  0  0
  -21.2160   -6.7880   23.7860 C   0  0  0  0  0  3  0  0  0  0  0  0
  -21.0930   -5.9860   24.9380 C   0  0  0  0  0  3  0  0  0  0  0  0
  -21.4500   -4.6260   24.8920 C   0  0  0  0  0  0  0  0  0  0  0  0
  -21.9320   -4.0650   23.6970 C   0  0  0  0  0  3  0  0  0  0  0  0
  -22.0580   -4.8640   22.5470 C   0  0  0  0  0  0  0  0  0  0  0  0
  -22.5040   -4.3120   21.3910 F   0  0  0  0  0  0  0  0  0  0  0  0
  -21.3240   -3.8540   25.9970 F   0  0  0  0  0  0  0  0  0  0  0  0
  -22.8750  -13.6030   21.2220 C   0  0  0  0  0  0  0  0  0  0  0  0
  -22.1760  -12.8840   22.0930 N   0  0  0  0  0  0  0  0  0  0  0  0
  -22.4240  -14.6460   20.7520 O   0  0  0  0  0  0  0  0  0  0  0  0
  -22.5550  -12.0430   22.5010 H   0  0  0  0  0  0  0  0  0  0  0  0
  -21.2480  -13.1820   22.3570 H   0  0  0  0  0  0  0  0  0  0  0  0
  -25.4820  -15.2780   20.3310 N   0  0  0  0  0  0  0  0  0  0  0  0
  -24.7260  -15.9390   20.4770 H   0  0  0  0  0  0  0  0  0  0  0  0
  -26.3200  -15.7110   19.9650 H   0  0  0  0  0  0  0  0  0  0  0  0
  -28.7770  -24.2650   20.3220 C   0  0  0  0  0  3  0  0  0  0  0  0
  -29.2370  -24.8360   17.8380 C   0  0  0  0  0  1  0  0  0  0  0  0
  -31.0840  -25.2590   19.5610 C   0  0  0  0  0  1  0  0  0  0  0  0
  -29.8490  -24.4130   19.1890 C   0  0  0  0  0  3  0  0  0  0  0  0
  -28.4770  -25.5650   21.0390 N   0  0  0  0  0  0  0  0  0  0  0  0
  -27.5710  -25.5490   21.4930 H   0  0  0  0  0  0  0  0  0  0  0  0
  -28.4520  -26.6960   20.0970 O   0  0  0  0  0  0  0  0  0  0  0  0
  -24.6160  -31.9060   23.2250 C   0  0  0  0  0  0  0  0  0  0  0  0
  -27.2920  -27.4430   20.1740 C   0  0  0  0  0  0  0  0  0  0  0  0
  -23.4250  -30.4950   21.5820 C   0  0  0  0  0  3  0  0  0  0  0  0
  -24.8950  -28.9560   20.1690 C   0  0  0  0  0  0  0  0  0  0  0  0
  -25.9520  -30.8600   21.3930 C   0  0  0  0  0  2  0  0  0  0  0  0
  -26.0480  -29.4820   20.7640 C   0  0  0  0  0  0  0  0  0  0  0  0
  -27.2530  -28.7320   20.7650 C   0  0  0  0  0  3  0  0  0  0  0  0
  -26.1240  -26.9390   19.5700 C   0  0  0  0  0  3  0  0  0  0  0  0
  -24.9270  -27.6830   19.5700 C   0  0  0  0  0  3  0  0  0  0  0  0
  -23.6440  -29.8100   20.2060 C   0  0  0  0  0  2  0  0  0  0  0  0
  -24.6820  -31.1040   22.1240 N   0  0  0  0  0  0  0  0  0  0  0  0
  -23.5320  -32.1710   23.7630 O   0  0  0  0  0  0  0  0  0  0  0  0
  -22.7770  -29.4720   22.5430 C   0  0  0  0  0  0  0  0  0  0  0  0
  -21.4520  -29.2850   22.4170 N   0  0  0  0  0  0  0  0  0  0  0  0
  -23.4610  -28.8500   23.3580 O   0  0  0  0  0  0  0  0  0  0  0  0
  -20.9600  -29.8360   21.7270 H   0  0  0  0  0  0  0  0  0  0  0  0
  -18.0790  -28.0940   22.9360 C   0  0  0  0  0  0  0  0  0  0  0  0
  -20.6410  -28.3420   23.1860 C   0  0  0  0  0  3  0  0  0  0  0  0
  -20.7340  -26.9180   22.5950 C   0  0  0  0  0  2  0  0  0  0  0  0
  -19.6220  -26.6060   21.5900 C   0  0  0  0  0  2  0  0  0  0  0  0
  -18.2460  -26.7500   22.2460 C   0  0  0  0  0  2  0  0  0  0  0  0
  -19.2040  -28.8480   23.3640 C   0  0  0  0  0  0  0  0  0  0  0  0
  -18.9950  -30.1060   23.9680 C   0  0  0  0  0  3  0  0  0  0  0  0
  -17.6930  -30.6100   24.1510 C   0  0  0  0  0  3  0  0  0  0  0  0
  -16.5840  -29.8520   23.7420 C   0  0  0  0  0  3  0  0  0  0  0  0
  -16.7770  -28.5960   23.1390 C   0  0  0  0  0  3  0  0  0  0  0  0
  -25.8960  -32.5470   23.8480 C   0  0  0  0  0  3  0  0  0  0  0  0
  -26.4130  -31.7850   25.1290 C   0  0  1  0  0  0  0  0  0  0  0  0
  -25.3160  -31.5430   26.1920 C   0  0  0  0  0  1  0  0  0  0  0  0
  -27.0090  -30.4110   24.7440 C   0  0  0  0  0  1  0  0  0  0  0  0
  -27.5530  -32.5920   25.7930 C   0  0  0  0  0  1  0  0  0  0  0  0
  -25.5780  -33.9450   24.1700 N   0  0  0  0  0  0  0  0  0  0  0  0
  -25.9160  -34.9960   23.4110 C   0  0  0  0  0  0  0  0  0  0  0  0
  -26.5990  -34.8920   22.3890 O   0  0  0  0  0  0  0  0  0  0  0  0
  -24.9730  -34.0990   24.9630 H   0  0  0  0  0  0  0  0  0  0  0  0
  -24.1980  -36.7910   23.0150 C   0  0  0  0  0  1  0  0  0  0  0  0
  -25.4180  -36.3850   23.8580 C   0  0  0  0  0  3  0  0  0  0  0  0
  -27.5270  -37.2710   24.7490 C   0  0  0  0  0  1  0  0  0  0  0  0
  -26.4530  -37.4370   23.7730 N   0  0  0  0  0  0  0  0  0  0  0  0
  -26.0440  -38.3570   23.9070 H   0  0  0  0  0  0  0  0  0  0  0  0
  1 11  2  0
  2  3  1  0
  3  9  1  0
  5 10  1  0
  7  2  1  0
  7  5  1  0
  7  8  1  0
  8  4  1  0
  8  6  1  0
  9 20  1  0
  9  4  1  0
 10  1  1  0
 10  6  1  0
 12 20  1  0
 13 18  1  0
 14 15  1  0
 14 13  1  0
 16 15  1  0
 16 25  1  0
 16 17  1  0
 18 12  1  0
 18 17  1  0
 19 12  2  0
 20 21  1  0
 22 23  2  0
 23 42  1  0
 24 23  1  0
 24 27  1  0
 25 26  1  0
 25 22  1  0
 26 24  2  0
 27 28  1  0
 28 29  2  0
 30 33  1  0
 30 29  1  0
 31 30  2  0
 32 31  1  0
 32 27  2  0
 33 34  1  0
 34 35  1  0
 35 36  2  0
 37 36  1  0
 37 41  1  0
 38 37  2  0
 39 34  2  0
 39 38  1  0
 40 39  1  0
 42 43  1  0
 43 46  1  0
 43 45  1  0
 44 42  2  0
 47 48  1  0
 47 22  1  0
 49 47  1  0
 50 53  1  0
 50 54  1  0
 50  1  1  0
 51 53  1  0
 53 52  1  0
 54 55  1  0
 56 58  1  0
 56 54  1  0
 57 68  2  0
 58 63  1  0
 59 67  1  0
 59 69  1  0
 60 66  1  0
 60 62  1  0
 61 67  1  0
 62 63  2  0
 62 61  1  0
 64 58  2  0
 65 64  1  0
 65 60  2  0
 66 59  1  0
 67 57  1  0
 69 71  2  0
 70 69  1  0
 72 70  1  0
 73 82  2  0
 73 78  1  0
 74 70  1  0
 74 78  1  0
 75 74  1  0
 76 77  1  0
 76 75  1  0
 77 73  1  0
 78 79  2  0
 79 80  1  0
 81 80  2  0
 82 81  1  0
 83 57  1  0
 83 88  1  0
 83 84  1  0
 84 87  1  1
 84 85  1  0
 86 84  1  0
 88 91  1  0
 89 93  1  0
 89 88  1  0
 90 89  2  0
 93 92  1  0
 95 93  1  0
 95 96  1  0
 95 94  1  0
M  ISO  4  12 100  20 100  54 101  56 101
M  END
>  <TORSDO>  (59) 
F 19

>  <SCORE>  (59) 
-14.365

>  <name>  (59) 
59

>  <ligand_id>  (59) 
59

>  <original_smiles>  (59) 
[H]c1c([H])c([H])c2c(c1[H])C([H])([H])C([H])([H])C([H])([H])C2([H])N([H])C(=O)C1([H])N(C(=O)C([H])(N([H])C(=O)C([H])(N([H])C([H])([H])[H])C([H])([H])[H])C(C([H])([H])[H])(C([H])([H])[H])C([H])([H])[H])C([H])([H])c2c([H])c(ON([H])C([H])(C(=O)N3C([H])([H])C4([H])C([H])([H])C([H])([H])C([H])(N([H])C(=O)N5C([H])([H])C([H])([H])C([H])([H])C([H])(n6nc(-c7c([H])c([H])c(Oc8c([H])c([H])c(F)c([H])c8F)c([H])c7[H])c(C(=O)N([H])[H])c6N([H])[H])C5([H])[H])C([H])([H])C4([H])C3([H])[H])C([H])(C([H])([H])[H])C([H])([H])[H])c([H])c([H])c2C1([H])[H]

>  <smiles>  (59) 
[H]c1c([H])c([H])c2c(c1[H])C([H])([H])C([H])([H])C([H])([H])C2([H])N([H])C(=O)C1([H])N(C(=O)C([H])(N([H])C(=O)C([H])(N([H])C([H])([H])[H])C([H])([H])[H])C(C([H])([H])[H])(C([H])([H])[H])C([H])([H])[H])C([H])([H])c2c([H])c(ON([H])C([H])(C(=O)N3C([H])([H])C4([H])C([H])([H])C([H])([H])C([H])(N([H])C(=O)N5C([H])([H])C([H])([H])C([H])([H])C([H])(n6nc(-c7c([H])c([H])c(Oc8c([H])c([H])c(F)c([H])c8F)c([H])c7[H])c(C(=O)N([H])[H])c6N([H])[H])C5([H])[H])C([H])([H])C4([H])C3([H])[H])C([H])(C([H])([H])[H])C([H])([H])[H])c([H])c([H])c2C1([H])[H]

$$$$
60:0:0
     RDKit          3D

 88 96  0  0  1  0  0  0  0  0999 V2000
  -28.6720  -18.8330   19.0240 C   0  0  0  0  0  0  0  0  0  0  0  0
  -28.2580  -20.3820   19.0900 C   0  0  0  0  0  2  0  0  0  0  0  0
  -29.5000  -19.7670   20.9480 C   0  0  0  0  0  2  0  0  0  0  0  0
  -29.7520  -18.3230   20.0360 C   0  0  0  0  0  3  0  0  0  0  0  0
  -29.0970  -21.0960   20.1090 N   0  0  2  0  0  4  0  0  0  0  0  0
  -28.1280  -18.0760   18.2140 O   0  0  0  0  0  0  0  0  0  0  0  0
  -29.9460  -21.2920   19.5980 H   0  0  0  0  0  0  0  0  0  0  0  0
  -30.4460  -15.4050   20.2640 C   0  0  0  0  0  0  0  0  0  0  0  0
  -30.4700  -12.9340   19.4290 C   0  0  0  0  0  2  0  0  0  0  0  0
  -29.5620  -12.6920   18.1950 C   0  0  0  0  0  2  0  0  0  0  0  0
  -28.1200  -12.3910   18.6340 C   0  0  0  0  0  2  0  0  0  0  0  0
  -27.6470  -13.3570   19.7490 C   0  0  0  0  0  3  0  0  0  0  0  0
  -28.6870  -13.5470   20.8760 C   0  0  0  0  0  2  0  0  0  0  0  0
  -29.9090  -14.0780   20.2490 N   0  0  0  0  0  0  0  0  0  0  0  0
  -31.6490  -15.4180   19.9600 O   0  0  0  0  0  0  0  0  0  0  0  0
  -29.6810  -16.6760   20.4490 N   0  0  0  0  0  0  0  0  0  0  0  0
  -28.7470  -16.4490   20.7530 H   0  0  0  0  0  0  0  0  0  0  0  0
  -25.2710  -13.8820   20.5040 C   0  0  0  0  0  0  0  0  0  0  0  0
  -24.2200  -13.0910   20.8730 C   0  0  0  0  0  0  0  0  0  0  0  0
  -24.7030  -11.7470   20.8370 C   0  0  0  0  0  0  0  0  0  0  0  0
  -26.3250  -13.0200   20.2570 N   0  0  0  0  0  0  0  0  0  0  0  0
  -25.9950  -11.7290   20.5260 N   0  0  0  0  0  0  0  0  0  0  0  0
  -23.9900  -10.4750   21.0240 C   0  0  0  0  0  0  0  0  0  0  0  0
  -24.4150   -9.5200   21.9740 C   0  0  0  0  0  3  0  0  0  0  0  0
  -23.6990   -8.3170   22.1510 C   0  0  0  0  0  3  0  0  0  0  0  0
  -22.5420   -8.0590   21.3760 C   0  0  0  0  0  0  0  0  0  0  0  0
  -22.1360   -9.0030   20.4160 C   0  0  0  0  0  3  0  0  0  0  0  0
  -22.8540  -10.1970   20.2380 C   0  0  0  0  0  3  0  0  0  0  0  0
  -21.7990   -6.9060   21.4600 O   0  0  0  0  0  0  0  0  0  0  0  0
  -21.7150   -6.1870   22.6250 C   0  0  0  0  0  0  0  0  0  0  0  0
  -21.2010   -6.7510   23.8130 C   0  0  0  0  0  3  0  0  0  0  0  0
  -21.0680   -5.9560   24.9690 C   0  0  0  0  0  3  0  0  0  0  0  0
  -21.4380   -4.5980   24.9370 C   0  0  0  0  0  0  0  0  0  0  0  0
  -21.9450   -4.0340   23.7530 C   0  0  0  0  0  3  0  0  0  0  0  0
  -22.0790   -4.8250   22.6000 C   0  0  0  0  0  0  0  0  0  0  0  0
  -22.5480   -4.2720   21.4560 F   0  0  0  0  0  0  0  0  0  0  0  0
  -21.3030   -3.8320   26.0440 F   0  0  0  0  0  0  0  0  0  0  0  0
  -22.8170  -13.5520   21.1400 C   0  0  0  0  0  0  0  0  0  0  0  0
  -22.0920  -12.8420   21.9960 N   0  0  0  0  0  0  0  0  0  0  0  0
  -22.3730  -14.5770   20.6240 O   0  0  0  0  0  0  0  0  0  0  0  0
  -22.4650  -12.0130   22.4340 H   0  0  0  0  0  0  0  0  0  0  0  0
  -21.1510  -13.1330   22.2180 H   0  0  0  0  0  0  0  0  0  0  0  0
  -25.4140  -15.2540   20.3250 N   0  0  0  0  0  0  0  0  0  0  0  0
  -24.6280  -15.8880   20.4170 H   0  0  0  0  0  0  0  0  0  0  0  0
  -26.2320  -15.6970   19.9270 H   0  0  0  0  0  0  0  0  0  0  0  0
  -28.6780  -22.6370   20.6920 C   0  0  0  0  0  2  0  0  0  0  0  0
  -28.1700  -24.2210   19.9330 C   0  0  0  0  0  2  0  0  0  0  0  0
  -28.1890  -25.8440   20.3540 O   0  0  0  0  0  0  0  0  0  0  0  0
  -24.5750  -31.8500   23.2170 C   0  0  0  0  0  0  0  0  0  0  0  0
  -27.1780  -26.9510   20.2280 C   0  0  0  0  0  0  0  0  0  0  0  0
  -23.4060  -30.4540   21.5620 C   0  0  0  0  0  3  0  0  0  0  0  0
  -24.8770  -28.8500   20.1510 C   0  0  0  0  0  0  0  0  0  0  0  0
  -25.9750  -30.6600   21.4530 C   0  0  0  0  0  2  0  0  0  0  0  0
  -26.0550  -29.2480   20.7950 C   0  0  0  0  0  0  0  0  0  0  0  0
  -27.1940  -28.3190   20.8110 C   0  0  0  0  0  3  0  0  0  0  0  0
  -25.9730  -26.7180   19.5240 C   0  0  0  0  0  3  0  0  0  0  0  0
  -24.8640  -27.6060   19.4950 C   0  0  0  0  0  3  0  0  0  0  0  0
  -23.6560  -29.7710   20.1870 C   0  0  0  0  0  2  0  0  0  0  0  0
  -24.6730  -31.0160   22.1310 N   0  0  0  0  0  0  0  0  0  0  0  0
  -23.4780  -32.1380   23.7240 O   0  0  0  0  0  0  0  0  0  0  0  0
  -22.6990  -29.4570   22.5190 C   0  0  0  0  0  0  0  0  0  0  0  0
  -21.3680  -29.3040   22.3870 N   0  0  0  0  0  0  0  0  0  0  0  0
  -23.3560  -28.8240   23.3470 O   0  0  0  0  0  0  0  0  0  0  0  0
  -20.8920  -29.8670   21.6960 H   0  0  0  0  0  0  0  0  0  0  0  0
  -17.9730  -28.1250   22.8900 C   0  0  0  0  0  0  0  0  0  0  0  0
  -20.5360  -28.3660   23.1490 C   0  0  0  0  0  3  0  0  0  0  0  0
  -20.6220  -26.9400   22.5560 C   0  0  0  0  0  2  0  0  0  0  0  0
  -19.5150  -26.6410   21.5400 C   0  0  0  0  0  2  0  0  0  0  0  0
  -18.1360  -26.7860   22.1900 C   0  0  0  0  0  2  0  0  0  0  0  0
  -19.0990  -28.8750   23.3250 C   0  0  0  0  0  0  0  0  0  0  0  0
  -18.8900  -30.1260   23.9430 C   0  0  0  0  0  3  0  0  0  0  0  0
  -17.5880  -30.6310   24.1280 C   0  0  0  0  0  3  0  0  0  0  0  0
  -16.4770  -29.8800   23.7050 C   0  0  0  0  0  3  0  0  0  0  0  0
  -16.6710  -28.6290   23.0930 C   0  0  0  0  0  3  0  0  0  0  0  0
  -25.8360  -32.4950   23.8690 C   0  0  0  0  0  3  0  0  0  0  0  0
  -25.5200  -33.9040   24.1720 N   0  0  0  0  0  0  0  0  0  0  0  0
  -25.8830  -34.9520   23.4210 C   0  0  0  0  0  0  0  0  0  0  0  0
  -26.5790  -34.8350   22.4090 O   0  0  0  0  0  0  0  0  0  0  0  0
  -24.9030  -34.0680   24.9530 H   0  0  0  0  0  0  0  0  0  0  0  0
  -24.1890  -36.7720   23.0090 C   0  0  0  0  0  1  0  0  0  0  0  0
  -25.4010  -36.3510   23.8580 C   0  0  0  0  0  3  0  0  0  0  0  0
  -27.5150  -37.2240   24.7560 C   0  0  0  0  0  1  0  0  0  0  0  0
  -26.4490  -37.3910   23.7710 N   0  0  0  0  0  0  0  0  0  0  0  0
  -26.0480  -38.3180   23.8920 H   0  0  0  0  0  0  0  0  0  0  0  0
  -26.3040  -31.7530   25.1820 C   0  0  1  0  0  0  0  0  0  0  0  0
  -25.1750  -31.5530   26.2210 C   0  0  0  0  0  1  0  0  0  0  0  0
  -26.8850  -30.3600   24.8520 C   0  0  0  0  0  1  0  0  0  0  0  0
  -27.4410  -32.5530   25.8590 C   0  0  0  0  0  1  0  0  0  0  0  0
  1  2  1  0
  1  4  1  0
  2  5  1  0
  4 16  1  0
  4  3  1  0
  5 46  1  0
  5  3  1  0
  6  1  2  0
  5  7  1  6
  8 16  1  0
  9 14  1  0
 10 11  1  0
 10  9  1  0
 12 11  1  0
 12 21  1  0
 12 13  1  0
 14  8  1  0
 14 13  1  0
 15  8  2  0
 16 17  1  0
 18 19  2  0
 19 38  1  0
 20 19  1  0
 20 23  1  0
 21 18  1  0
 21 22  1  0
 22 20  2  0
 23 24  1  0
 24 25  2  0
 26 29  1  0
 26 25  1  0
 27 26  2  0
 28 27  1  0
 28 23  2  0
 29 30  1  0
 30 31  1  0
 31 32  2  0
 33 32  1  0
 33 37  1  0
 34 33  2  0
 35 30  2  0
 35 34  1  0
 36 35  1  0
 38 39  1  0
 39 42  1  0
 39 41  1  0
 40 38  2  0
 43 44  1  0
 43 18  1  0
 45 43  1  0
 47 48  1  0
 47 46  1  0
 49 60  2  0
 50 48  1  0
 50 55  1  0
 51 59  1  0
 51 61  1  0
 52 58  1  0
 52 54  1  0
 53 59  1  0
 54 55  2  0
 54 53  1  0
 56 50  2  0
 57 56  1  0
 57 52  2  0
 58 51  1  0
 59 49  1  0
 61 63  2  0
 62 61  1  0
 64 62  1  0
 65 74  2  0
 65 70  1  0
 66 62  1  0
 66 70  1  0
 67 66  1  0
 68 69  1  0
 68 67  1  0
 69 65  1  0
 70 71  2  0
 71 72  1  0
 73 72  2  0
 74 73  1  0
 75 49  1  0
 75 76  1  0
 75 85  1  0
 76 79  1  0
 77 81  1  0
 77 76  1  0
 78 77  2  0
 81 80  1  0
 83 81  1  0
 83 84  1  0
 83 82  1  0
 85 88  1  1
 85 86  1  0
 87 85  1  0
M  ISO  4   8 100  16 100  47 101  48 101
M  END
>  <TORSDO>  (60) 
F 18

>  <SCORE>  (60) 
-16.596

>  <name>  (60) 
60

>  <ligand_id>  (60) 
60

>  <original_smiles>  (60) 
[H]c1c([H])c([H])c2c(c1[H])C([H])([H])C([H])([H])C([H])([H])C2([H])N([H])C(=O)C1([H])N(C(=O)C([H])(N([H])C(=O)C([H])(N([H])C([H])([H])[H])C([H])([H])[H])C(C([H])([H])[H])(C([H])([H])[H])C([H])([H])[H])C([H])([H])c2c([H])c(OC([H])([H])C([H])([H])[N+]3([H])C([H])([H])C(=O)C([H])(N([H])C(=O)N4C([H])([H])C([H])([H])C([H])([H])C([H])(n5nc(-c6c([H])c([H])c(Oc7c([H])c([H])c(F)c([H])c7F)c([H])c6[H])c(C(=O)N([H])[H])c5N([H])[H])C4([H])[H])C3([H])[H])c([H])c([H])c2C1([H])[H]

>  <smiles>  (60) 
[H]c1c([H])c([H])c2c(c1[H])C([H])([H])C([H])([H])C([H])([H])C2([H])N([H])C(=O)C1([H])N(C(=O)C([H])(N([H])C(=O)C([H])(N([H])C([H])([H])[H])C([H])([H])[H])C(C([H])([H])[H])(C([H])([H])[H])C([H])([H])[H])C([H])([H])c2c([H])c(OC([H])([H])C([H])([H])[N+]3([H])C([H])([H])C(=O)C([H])(N([H])C(=O)N4C([H])([H])C([H])([H])C([H])([H])C([H])(n5nc(-c6c([H])c([H])c(Oc7c([H])c([H])c(F)c([H])c7F)c([H])c6[H])c(C(=O)N([H])[H])c5N([H])[H])C4([H])[H])C3([H])[H])c([H])c([H])c2C1([H])[H]

$$$$
61:0:0
     RDKit          3D

 89 97  0  0  1  0  0  0  0  0999 V2000
  -28.9940  -23.3540   20.2660 C   0  0  0  0  0  0  0  0  0  0  0  0
  -28.7120  -21.9500   20.1120 N   0  0  0  0  0  0  0  0  0  0  0  0
  -30.1560  -23.6720   20.5250 O   0  0  0  0  0  0  0  0  0  0  0  0
  -27.7370  -21.7770   19.9080 H   0  0  0  0  0  0  0  0  0  0  0  0
  -30.0780  -20.1200   21.5330 C   0  0  0  0  0  2  0  0  0  0  0  0
  -30.5070  -18.5880   21.5010 C   0  0  0  0  0  2  0  0  0  0  0  0
  -29.1340  -19.1020   19.6340 C   0  0  0  0  0  2  0  0  0  0  0  0
  -29.5980  -20.6100   20.1410 C   0  0  0  0  0  3  0  0  0  0  0  0
  -30.1560  -17.9020   20.1470 C   0  0  0  0  0  3  0  0  0  0  0  0
  -30.6310  -15.1310   20.0910 C   0  0  0  0  0  0  0  0  0  0  0  0
  -30.5350  -12.7410   19.2120 C   0  0  0  0  0  2  0  0  0  0  0  0
  -29.5680  -12.6240   18.0120 C   0  0  0  0  0  2  0  0  0  0  0  0
  -28.1260  -12.3870   18.4980 C   0  0  0  0  0  2  0  0  0  0  0  0
  -27.7300  -13.3370   19.6580 C   0  0  0  0  0  3  0  0  0  0  0  0
  -28.8190  -13.4200   20.7480 C   0  0  0  0  0  2  0  0  0  0  0  0
  -30.0540  -13.8560   20.0840 N   0  0  0  0  0  0  0  0  0  0  0  0
  -31.8290  -15.1890   19.7920 O   0  0  0  0  0  0  0  0  0  0  0  0
  -29.8470  -16.3270   20.2280 N   0  0  0  0  0  0  0  0  0  0  0  0
  -28.8760  -16.1210   20.4120 H   0  0  0  0  0  0  0  0  0  0  0  0
  -25.3880  -13.8900   20.5200 C   0  0  0  0  0  0  0  0  0  0  0  0
  -24.3390  -13.1050   20.9100 C   0  0  0  0  0  0  0  0  0  0  0  0
  -24.7990  -11.7560   20.8180 C   0  0  0  0  0  0  0  0  0  0  0  0
  -26.4180  -13.0210   20.2070 N   0  0  0  0  0  0  0  0  0  0  0  0
  -26.0770  -11.7280   20.4530 N   0  0  0  0  0  0  0  0  0  0  0  0
  -24.0780  -10.4880   20.9970 C   0  0  0  0  0  0  0  0  0  0  0  0
  -24.4980   -9.5250   21.9410 C   0  0  0  0  0  3  0  0  0  0  0  0
  -23.7740   -8.3250   22.1100 C   0  0  0  0  0  3  0  0  0  0  0  0
  -22.6160   -8.0790   21.3340 C   0  0  0  0  0  0  0  0  0  0  0  0
  -22.2140   -9.0320   20.3800 C   0  0  0  0  0  3  0  0  0  0  0  0
  -22.9400  -10.2220   20.2100 C   0  0  0  0  0  3  0  0  0  0  0  0
  -21.8650   -6.9310   21.4110 O   0  0  0  0  0  0  0  0  0  0  0  0
  -21.7370   -6.2330   22.5850 C   0  0  0  0  0  0  0  0  0  0  0  0
  -21.1700   -6.8140   23.7400 C   0  0  0  0  0  3  0  0  0  0  0  0
  -20.9920   -6.0390   24.9030 C   0  0  0  0  0  3  0  0  0  0  0  0
  -21.3730   -4.6840   24.9120 C   0  0  0  0  0  0  0  0  0  0  0  0
  -21.9330   -4.1020   23.7620 C   0  0  0  0  0  3  0  0  0  0  0  0
  -22.1120   -4.8740   22.6010 C   0  0  0  0  0  0  0  0  0  0  0  0
  -22.6320   -4.3030   21.4880 F   0  0  0  0  0  0  0  0  0  0  0  0
  -21.1960   -3.9380   26.0280 F   0  0  0  0  0  0  0  0  0  0  0  0
  -22.9560  -13.5750   21.2500 C   0  0  0  0  0  0  0  0  0  0  0  0
  -22.2610  -12.8560   22.1250 N   0  0  0  0  0  0  0  0  0  0  0  0
  -22.5010  -14.6150   20.7770 O   0  0  0  0  0  0  0  0  0  0  0  0
  -22.6440  -12.0140   22.5290 H   0  0  0  0  0  0  0  0  0  0  0  0
  -21.3350  -13.1530   22.3950 H   0  0  0  0  0  0  0  0  0  0  0  0
  -25.5450  -15.2660   20.3760 N   0  0  0  0  0  0  0  0  0  0  0  0
  -24.7780  -15.9120   20.5340 H   0  0  0  0  0  0  0  0  0  0  0  0
  -26.3640  -15.7140   19.9860 H   0  0  0  0  0  0  0  0  0  0  0  0
  -27.9010  -24.6200   20.1070 C   0  0  0  0  0  2  0  0  0  0  0  0
  -28.2310  -26.1520   20.3220 O   0  0  0  0  0  0  0  0  0  0  0  0
  -24.6290  -31.9110   23.3100 C   0  0  0  0  0  0  0  0  0  0  0  0
  -27.2000  -27.1780   20.2550 C   0  0  0  0  0  0  0  0  0  0  0  0
  -23.4360  -30.5360   21.6510 C   0  0  0  0  0  3  0  0  0  0  0  0
  -24.8870  -28.9660   20.2190 C   0  0  0  0  0  0  0  0  0  0  0  0
  -25.9950  -30.7810   21.5080 C   0  0  0  0  0  2  0  0  0  0  0  0
  -26.0670  -29.3910   20.8430 C   0  0  0  0  0  0  0  0  0  0  0  0
  -27.2240  -28.5150   20.8410 C   0  0  0  0  0  3  0  0  0  0  0  0
  -25.9930  -26.8690   19.5890 C   0  0  0  0  0  3  0  0  0  0  0  0
  -24.8660  -27.7200   19.5760 C   0  0  0  0  0  3  0  0  0  0  0  0
  -23.6650  -29.8720   20.2670 C   0  0  0  0  0  2  0  0  0  0  0  0
  -24.7070  -31.0980   22.2110 N   0  0  0  0  0  0  0  0  0  0  0  0
  -23.5410  -32.1960   23.8320 O   0  0  0  0  0  0  0  0  0  0  0  0
  -22.7430  -29.5250   22.6000 C   0  0  0  0  0  0  0  0  0  0  0  0
  -21.4180  -29.3490   22.4520 N   0  0  0  0  0  0  0  0  0  0  0  0
  -23.4030  -28.9010   23.4350 O   0  0  0  0  0  0  0  0  0  0  0  0
  -20.9410  -29.9040   21.7540 H   0  0  0  0  0  0  0  0  0  0  0  0
  -18.0330  -28.1350   22.9050 C   0  0  0  0  0  0  0  0  0  0  0  0
  -20.5880  -28.4060   23.2070 C   0  0  0  0  0  3  0  0  0  0  0  0
  -20.7020  -26.9770   22.6290 C   0  0  0  0  0  2  0  0  0  0  0  0
  -19.6150  -26.6540   21.5980 C   0  0  0  0  0  2  0  0  0  0  0  0
  -18.2240  -26.7910   22.2240 C   0  0  0  0  0  2  0  0  0  0  0  0
  -19.1440  -28.9000   23.3530 C   0  0  0  0  0  0  0  0  0  0  0  0
  -18.9100  -30.1580   23.9510 C   0  0  0  0  0  3  0  0  0  0  0  0
  -17.6010  -30.6510   24.1050 C   0  0  0  0  0  3  0  0  0  0  0  0
  -16.5050  -29.8830   23.6720 C   0  0  0  0  0  3  0  0  0  0  0  0
  -16.7230  -28.6270   23.0790 C   0  0  0  0  0  3  0  0  0  0  0  0
  -25.9040  -32.5380   23.9520 C   0  0  0  0  0  3  0  0  0  0  0  0
  -25.6040  -33.9440   24.2680 N   0  0  0  0  0  0  0  0  0  0  0  0
  -25.9220  -34.9870   23.4900 C   0  0  0  0  0  0  0  0  0  0  0  0
  -26.5650  -34.8670   22.4430 O   0  0  0  0  0  0  0  0  0  0  0  0
  -25.0290  -34.1100   25.0800 H   0  0  0  0  0  0  0  0  0  0  0  0
  -24.1760  -36.7760   23.1850 C   0  0  0  0  0  1  0  0  0  0  0  0
  -25.4560  -36.3860   23.9430 C   0  0  0  0  0  3  0  0  0  0  0  0
  -27.6170  -37.3020   24.6650 C   0  0  0  0  0  1  0  0  0  0  0  0
  -26.4810  -37.4360   23.7570 N   0  0  0  0  0  0  0  0  0  0  0  0
  -26.0790  -38.3610   23.8850 H   0  0  0  0  0  0  0  0  0  0  0  0
  -26.3820  -31.7760   25.2490 C   0  0  1  0  0  0  0  0  0  0  0  0
  -25.2630  -31.5610   26.2950 C   0  0  0  0  0  1  0  0  0  0  0  0
  -26.9600  -30.3860   24.8910 C   0  0  0  0  0  1  0  0  0  0  0  0
  -27.5260  -32.5660   25.9290 C   0  0  0  0  0  1  0  0  0  0  0  0
  1  3  2  0
  2  1  1  0
  4  2  1  0
  6  5  1  0
  7  8  1  0
  7  9  1  0
  8  2  1  0
  8  5  1  0
  9 18  1  0
  9  6  1  0
 10 18  1  0
 11 16  1  0
 12 13  1  0
 12 11  1  0
 14 13  1  0
 14 23  1  0
 14 15  1  0
 16 10  1  0
 16 15  1  0
 17 10  2  0
 18 19  1  0
 20 21  2  0
 21 40  1  0
 22 21  1  0
 22 25  1  0
 23 24  1  0
 23 20  1  0
 24 22  2  0
 25 26  1  0
 26 27  2  0
 28 31  1  0
 28 27  1  0
 29 28  2  0
 30 29  1  0
 30 25  2  0
 31 32  1  0
 32 37  2  0
 32 33  1  0
 33 34  2  0
 34 35  1  0
 35 39  1  0
 36 35  2  0
 37 36  1  0
 38 37  1  0
 40 41  1  0
 41 44  1  0
 41 43  1  0
 42 40  2  0
 45 20  1  0
 45 46  1  0
 47 45  1  0
 48  1  1  0
 48 49  1  0
 50 61  2  0
 51 49  1  0
 51 56  1  0
 52 60  1  0
 52 62  1  0
 53 59  1  0
 53 55  1  0
 54 60  1  0
 55 54  1  0
 56 55  2  0
 57 51  2  0
 58 57  1  0
 58 53  2  0
 59 52  1  0
 60 50  1  0
 62 64  2  0
 63 62  1  0
 65 63  1  0
 66 75  2  0
 66 71  1  0
 67 63  1  0
 67 71  1  0
 68 67  1  0
 69 70  1  0
 69 68  1  0
 70 66  1  0
 71 72  2  0
 72 73  1  0
 74 73  2  0
 75 74  1  0
 76 50  1  0
 76 77  1  0
 76 86  1  0
 77 80  1  0
 78 82  1  0
 78 77  1  0
 79 78  2  0
 82 81  1  0
 84 85  1  0
 84 82  1  0
 84 83  1  0
 86 89  1  1
 86 87  1  0
 88 86  1  0
M  ISO  4  10 100  18 100  48 101  49 101
M  END
>  <TORSDO>  (61) 
F 18

>  <SCORE>  (61) 
-14.288

>  <name>  (61) 
61

>  <ligand_id>  (61) 
61

>  <original_smiles>  (61) 
[H]c1c([H])c([H])c2c(c1[H])C([H])([H])C([H])([H])C([H])([H])C2([H])N([H])C(=O)C1([H])N(C(=O)C([H])(N([H])C(=O)C([H])(N([H])C([H])([H])[H])C([H])([H])[H])C(C([H])([H])[H])(C([H])([H])[H])C([H])([H])[H])C([H])([H])c2c([H])c(OC([H])([H])C(=O)N([H])C3([H])C([H])([H])C([H])([H])C([H])(N([H])C(=O)N4C([H])([H])C([H])([H])C([H])([H])C([H])(n5nc(-c6c([H])c([H])c(Oc7c([H])c([H])c(F)c([H])c7F)c([H])c6[H])c(C(=O)N([H])[H])c5N([H])[H])C4([H])[H])C3([H])[H])c([H])c([H])c2C1([H])[H]

>  <smiles>  (61) 
[H]c1c([H])c([H])c2c(c1[H])C([H])([H])C([H])([H])C([H])([H])C2([H])N([H])C(=O)C1([H])N(C(=O)C([H])(N([H])C(=O)C([H])(N([H])C([H])([H])[H])C([H])([H])[H])C(C([H])([H])[H])(C([H])([H])[H])C([H])([H])[H])C([H])([H])c2c([H])c(OC([H])([H])C(=O)N([H])C3([H])C([H])([H])C([H])([H])C([H])(N([H])C(=O)N4C([H])([H])C([H])([H])C([H])([H])C([H])(n5nc(-c6c([H])c([H])c(Oc7c([H])c([H])c(F)c([H])c7F)c([H])c6[H])c(C(=O)N([H])[H])c5N([H])[H])C4([H])[H])C3([H])[H])c([H])c([H])c2C1([H])[H]

$$$$
62:0:0
     RDKit          3D

 91 99  0  0  1  0  0  0  0  0999 V2000
  -29.4210  -21.8960   18.7570 C   0  0  0  0  0  0  0  0  0  0  0  0
  -29.1760  -22.5340   17.6000 C   0  0  0  0  0  2  0  0  0  0  0  0
  -29.9070  -20.4480   18.9050 C   0  0  0  0  0  2  0  0  0  0  0  0
  -28.9890  -21.2050   20.9920 C   0  0  0  0  0  2  0  0  0  0  0  0
  -29.2030  -19.8700   20.1380 C   0  0  0  0  0  3  0  0  0  0  0  0
  -29.2200  -22.4460   20.1430 N   0  0  2  0  0  4  0  0  0  0  0  0
  -30.1360  -22.7530   20.4440 H   0  0  0  0  0  0  0  0  0  0  0  0
  -29.8760  -18.5770   20.8080 C   0  0  0  0  0  0  0  0  0  0  0  0
  -29.8370  -17.3160   20.2400 N   0  0  0  0  0  0  0  0  0  0  0  0
  -30.3780  -18.7150   21.9230 O   0  0  0  0  0  0  0  0  0  0  0  0
  -29.4670  -17.2580   19.3010 H   0  0  0  0  0  0  0  0  0  0  0  0
  -30.0610  -15.9700   20.9340 C   0  0  0  0  0  2  0  0  0  0  0  0
  -30.7380  -14.7050   20.2150 C   0  0  0  0  0  0  0  0  0  0  0  0
  -30.5110  -12.4720   19.0990 C   0  0  0  0  0  2  0  0  0  0  0  0
  -29.5380  -12.6270   17.9060 C   0  0  0  0  0  2  0  0  0  0  0  0
  -28.0700  -12.4760   18.3610 C   0  0  0  0  0  2  0  0  0  0  0  0
  -27.7560  -13.2980   19.6400 C   0  0  0  0  0  3  0  0  0  0  0  0
  -28.8410  -13.0880   20.7190 C   0  0  0  0  0  2  0  0  0  0  0  0
  -30.1290  -13.4700   20.1240 N   0  0  0  0  0  0  0  0  0  0  0  0
  -31.8570  -14.8580   19.7120 O   0  0  0  0  0  0  0  0  0  0  0  0
  -25.3820  -13.9080   20.4070 C   0  0  0  0  0  0  0  0  0  0  0  0
  -24.3170  -13.1430   20.7980 C   0  0  0  0  0  0  0  0  0  0  0  0
  -24.7680  -11.7890   20.7560 C   0  0  0  0  0  0  0  0  0  0  0  0
  -26.4150  -13.0220   20.1500 N   0  0  0  0  0  0  0  0  0  0  0  0
  -26.0520  -11.7400   20.4180 N   0  0  0  0  0  0  0  0  0  0  0  0
  -24.0360  -10.5320   20.9600 C   0  0  0  0  0  0  0  0  0  0  0  0
  -24.4730   -9.5670   21.8950 C   0  0  0  0  0  3  0  0  0  0  0  0
  -23.7430   -8.3740   22.0850 C   0  0  0  0  0  3  0  0  0  0  0  0
  -22.5610   -8.1390   21.3440 C   0  0  0  0  0  0  0  0  0  0  0  0
  -22.1440   -9.0930   20.3990 C   0  0  0  0  0  3  0  0  0  0  0  0
  -22.8740  -10.2770   20.2060 C   0  0  0  0  0  3  0  0  0  0  0  0
  -21.7980   -7.0000   21.4450 O   0  0  0  0  0  0  0  0  0  0  0  0
  -21.7450   -6.2710   22.6060 C   0  0  0  0  0  0  0  0  0  0  0  0
  -21.3050   -6.8370   23.8230 C   0  0  0  0  0  3  0  0  0  0  0  0
  -21.2000   -6.0340   24.9750 C   0  0  0  0  0  3  0  0  0  0  0  0
  -21.5250   -4.6650   24.9130 C   0  0  0  0  0  0  0  0  0  0  0  0
  -21.9570   -4.0980   23.7000 C   0  0  0  0  0  3  0  0  0  0  0  0
  -22.0650   -4.9000   22.5500 C   0  0  0  0  0  0  0  0  0  0  0  0
  -22.4620   -4.3430   21.3800 F   0  0  0  0  0  0  0  0  0  0  0  0
  -21.4180   -3.8920   26.0180 F   0  0  0  0  0  0  0  0  0  0  0  0
  -22.9300  -13.6300   21.1040 C   0  0  0  0  0  0  0  0  0  0  0  0
  -22.2170  -12.9380   21.9850 N   0  0  0  0  0  0  0  0  0  0  0  0
  -22.4900  -14.6620   20.5970 O   0  0  0  0  0  0  0  0  0  0  0  0
  -22.5870  -12.1050   22.4180 H   0  0  0  0  0  0  0  0  0  0  0  0
  -21.2850  -13.2440   22.2290 H   0  0  0  0  0  0  0  0  0  0  0  0
  -25.5530  -15.2790   20.2290 N   0  0  0  0  0  0  0  0  0  0  0  0
  -24.7940  -15.9390   20.3600 H   0  0  0  0  0  0  0  0  0  0  0  0
  -26.4020  -15.7150   19.8930 H   0  0  0  0  0  0  0  0  0  0  0  0
  -28.3330  -23.6890   20.4330 C   0  0  0  0  0  2  0  0  0  0  0  0
  -28.6100  -25.1060   19.7000 C   0  0  0  0  0  2  0  0  0  0  0  0
  -28.4170  -26.4420   20.3480 O   0  0  0  0  0  0  0  0  0  0  0  0
  -24.6080  -31.8610   23.2160 C   0  0  0  0  0  0  0  0  0  0  0  0
  -27.2740  -27.2590   20.2360 C   0  0  0  0  0  0  0  0  0  0  0  0
  -23.4310  -30.4470   21.5660 C   0  0  0  0  0  3  0  0  0  0  0  0
  -24.9040  -28.8790   20.1730 C   0  0  0  0  0  0  0  0  0  0  0  0
  -25.9710  -30.7620   21.4200 C   0  0  0  0  0  2  0  0  0  0  0  0
  -26.0610  -29.3750   20.7860 C   0  0  0  0  0  0  0  0  0  0  0  0
  -27.2420  -28.5730   20.8080 C   0  0  0  0  0  3  0  0  0  0  0  0
  -26.0920  -26.8140   19.6040 C   0  0  0  0  0  3  0  0  0  0  0  0
  -24.9230  -27.6050   19.5750 C   0  0  0  0  0  3  0  0  0  0  0  0
  -23.6670  -29.7560   20.1950 C   0  0  0  0  0  2  0  0  0  0  0  0
  -24.6880  -31.0430   22.1240 N   0  0  0  0  0  0  0  0  0  0  0  0
  -23.5160  -32.1430   23.7320 O   0  0  0  0  0  0  0  0  0  0  0  0
  -22.7510  -29.4420   22.5270 C   0  0  0  0  0  0  0  0  0  0  0  0
  -21.4250  -29.2730   22.3880 N   0  0  0  0  0  0  0  0  0  0  0  0
  -23.4170  -28.8170   23.3560 O   0  0  0  0  0  0  0  0  0  0  0  0
  -20.9470  -29.8280   21.6930 H   0  0  0  0  0  0  0  0  0  0  0  0
  -18.0360  -28.1030   22.8630 C   0  0  0  0  0  0  0  0  0  0  0  0
  -20.5940  -28.3440   23.1560 C   0  0  0  0  0  3  0  0  0  0  0  0
  -20.6910  -26.9110   22.5850 C   0  0  0  0  0  2  0  0  0  0  0  0
  -19.5960  -26.5940   21.5610 C   0  0  0  0  0  2  0  0  0  0  0  0
  -18.2100  -26.7520   22.1910 C   0  0  0  0  0  2  0  0  0  0  0  0
  -19.1560  -28.8580   23.3010 C   0  0  0  0  0  0  0  0  0  0  0  0
  -18.9420  -30.1240   23.8890 C   0  0  0  0  0  3  0  0  0  0  0  0
  -17.6390  -30.6340   24.0420 C   0  0  0  0  0  3  0  0  0  0  0  0
  -16.5330  -29.8760   23.6200 C   0  0  0  0  0  3  0  0  0  0  0  0
  -16.7330  -28.6130   23.0360 C   0  0  0  0  0  3  0  0  0  0  0  0
  -25.8810  -32.4990   23.8540 C   0  0  0  0  0  3  0  0  0  0  0  0
  -26.3800  -31.7350   25.1410 C   0  0  1  0  0  0  0  0  0  0  0  0
  -25.2730  -31.5030   26.1950 C   0  0  0  0  0  1  0  0  0  0  0  0
  -26.9710  -30.3560   24.7650 C   0  0  0  0  0  1  0  0  0  0  0  0
  -27.5180  -32.5350   25.8170 C   0  0  0  0  0  1  0  0  0  0  0  0
  -25.5640  -33.8980   24.1750 N   0  0  0  0  0  0  0  0  0  0  0  0
  -25.8980  -34.9500   23.4150 C   0  0  0  0  0  0  0  0  0  0  0  0
  -26.5720  -34.8450   22.3870 O   0  0  0  0  0  0  0  0  0  0  0  0
  -24.9660  -34.0540   24.9730 H   0  0  0  0  0  0  0  0  0  0  0  0
  -24.1630  -36.7350   23.0520 C   0  0  0  0  0  1  0  0  0  0  0  0
  -25.4050  -36.3380   23.8660 C   0  0  0  0  0  3  0  0  0  0  0  0
  -27.5330  -37.2390   24.6980 C   0  0  0  0  0  1  0  0  0  0  0  0
  -26.4340  -37.3960   23.7490 N   0  0  0  0  0  0  0  0  0  0  0  0
  -26.0220  -38.3140   23.8890 H   0  0  0  0  0  0  0  0  0  0  0  0
  1  3  1  0
  1  6  1  0
  2  1  2  0
  3  5  1  0
  5  8  1  0
  5  4  1  0
  6 49  1  0
  6  7  1  1
  6  4  1  0
  8 10  2  0
  9  8  1  0
  9 12  1  0
 11  9  1  0
 13 12  1  0
 14 19  1  0
 15 16  1  0
 15 14  1  0
 17 16  1  0
 17 24  1  0
 17 18  1  0
 19 13  1  0
 19 18  1  0
 20 13  2  0
 21 22  2  0
 22 41  1  0
 23 22  1  0
 23 26  1  0
 24 21  1  0
 24 25  1  0
 25 23  2  0
 26 27  1  0
 27 28  2  0
 29 32  1  0
 29 28  1  0
 30 29  2  0
 31 30  1  0
 31 26  2  0
 32 33  1  0
 33 34  1  0
 34 35  2  0
 36 35  1  0
 36 40  1  0
 37 36  2  0
 38 33  2  0
 38 37  1  0
 39 38  1  0
 41 42  1  0
 42 45  1  0
 42 44  1  0
 43 41  2  0
 46 47  1  0
 46 21  1  0
 48 46  1  0
 50 51  1  0
 50 49  1  0
 52 63  2  0
 53 51  1  0
 53 58  1  0
 54 62  1  0
 54 64  1  0
 55 61  1  0
 55 57  1  0
 56 62  1  0
 57 58  2  0
 57 56  1  0
 59 53  2  0
 60 59  1  0
 60 55  2  0
 61 54  1  0
 62 52  1  0
 64 66  2  0
 65 64  1  0
 67 65  1  0
 68 77  2  0
 68 73  1  0
 69 65  1  0
 69 73  1  0
 70 69  1  0
 71 72  1  0
 71 70  1  0
 72 68  1  0
 73 74  2  0
 74 75  1  0
 76 75  2  0
 77 76  1  0
 78 52  1  0
 78 83  1  0
 78 79  1  0
 79 82  1  1
 79 80  1  0
 81 79  1  0
 83 86  1  0
 84 88  1  0
 84 83  1  0
 85 84  2  0
 88 87  1  0
 90 88  1  0
 90 91  1  0
 90 89  1  0
M  ISO  4  12 100  13 100  50 101  51 101
M  END
>  <TORSDO>  (62) 
F 20

>  <SCORE>  (62) 
-13.774

>  <name>  (62) 
62

>  <ligand_id>  (62) 
62

>  <original_smiles>  (62) 
[H]C([H])=C1C([H])([H])C([H])(C(=O)N([H])C([H])([H])C(=O)N2C([H])([H])C([H])([H])C([H])([H])C([H])(n3nc(-c4c([H])c([H])c(Oc5c([H])c([H])c(F)c([H])c5F)c([H])c4[H])c(C(=O)N([H])[H])c3N([H])[H])C2([H])[H])C([H])([H])[N+]1([H])C([H])([H])C([H])([H])Oc1c([H])c([H])c2c(c1[H])C([H])([H])N(C(=O)C([H])(N([H])C(=O)C([H])(N([H])C([H])([H])[H])C([H])([H])[H])C(C([H])([H])[H])(C([H])([H])[H])C([H])([H])[H])C([H])(C(=O)N([H])C1([H])c3c([H])c([H])c([H])c([H])c3C([H])([H])C([H])([H])C1([H])[H])C2([H])[H]

>  <smiles>  (62) 
[H]C([H])=C1C([H])([H])C([H])(C(=O)N([H])C([H])([H])C(=O)N2C([H])([H])C([H])([H])C([H])([H])C([H])(n3nc(-c4c([H])c([H])c(Oc5c([H])c([H])c(F)c([H])c5F)c([H])c4[H])c(C(=O)N([H])[H])c3N([H])[H])C2([H])[H])C([H])([H])[N+]1([H])C([H])([H])C([H])([H])Oc1c([H])c([H])c2c(c1[H])C([H])([H])N(C(=O)C([H])(N([H])C(=O)C([H])(N([H])C([H])([H])[H])C([H])([H])[H])C(C([H])([H])[H])(C([H])([H])[H])C([H])([H])[H])C([H])(C(=O)N([H])C1([H])c3c([H])c([H])c([H])c([H])c3C([H])([H])C([H])([H])C1([H])[H])C2([H])[H]

$$$$
64:0:0
     RDKit          3D

 90 98  0  0  1  0  0  0  0  0999 V2000
  -28.8530  -20.6190   20.2050 C   0  0  0  0  0  3  0  0  0  0  0  0
  -27.4520  -20.2190   20.6080 C   0  0  0  0  0  1  0  0  0  0  0  0
  -29.1740  -21.9480   20.1260 N   0  0  0  0  0  2  0  0  0  0  0  0
  -30.1000  -17.7820   20.3730 C   0  0  0  0  0  3  0  0  0  0  0  0
  -29.8200  -16.4370   19.9570 C   0  0  0  0  0  2  0  0  0  0  0  0
  -31.2560  -18.1030   21.3020 C   0  0  0  0  0  2  0  0  0  0  0  0
  -31.2110  -19.7030   19.4940 C   0  0  0  0  0  2  0  0  0  0  0  0
  -29.7530  -19.2630   19.6990 C   0  0  0  0  0  3  0  0  0  0  0  0
  -31.9570  -19.2480   20.6850 N   0  0  0  0  0  4  0  0  0  0  0  0
  -32.8980  -18.9960   20.4300 H   0  0  0  0  0  0  0  0  0  0  0  0
  -32.0080  -19.9960   21.3570 H   0  0  0  0  0  0  0  0  0  0  0  0
  -30.6360  -15.1020   20.1220 C   0  0  0  0  0  0  0  0  0  0  0  0
  -30.5130  -12.7210   19.2340 C   0  0  0  0  0  2  0  0  0  0  0  0
  -29.5770  -12.6340   18.0080 C   0  0  0  0  0  2  0  0  0  0  0  0
  -28.1170  -12.4170   18.4520 C   0  0  0  0  0  2  0  0  0  0  0  0
  -27.7060  -13.3660   19.6060 C   0  0  0  0  0  3  0  0  0  0  0  0
  -28.7670  -13.4340   20.7200 C   0  0  0  0  0  2  0  0  0  0  0  0
  -30.0300  -13.8410   20.0950 N   0  0  0  0  0  0  0  0  0  0  0  0
  -31.8620  -15.0900   19.9610 O   0  0  0  0  0  0  0  0  0  0  0  0
  -25.3410  -13.9410   20.3820 C   0  0  0  0  0  0  0  0  0  0  0  0
  -24.2810  -13.1670   20.7680 C   0  0  0  0  0  0  0  0  0  0  0  0
  -24.7490  -11.8170   20.7440 C   0  0  0  0  0  0  0  0  0  0  0  0
  -26.3810  -13.0630   20.1320 N   0  0  0  0  0  0  0  0  0  0  0  0
  -26.0380  -11.7800   20.4200 N   0  0  0  0  0  0  0  0  0  0  0  0
  -24.0260  -10.5540   20.9500 C   0  0  0  0  0  0  0  0  0  0  0  0
  -24.4590   -9.6000   21.8970 C   0  0  0  0  0  3  0  0  0  0  0  0
  -23.7330   -8.4040   22.0920 C   0  0  0  0  0  3  0  0  0  0  0  0
  -22.5610   -8.1550   21.3390 C   0  0  0  0  0  0  0  0  0  0  0  0
  -22.1480   -9.0970   20.3810 C   0  0  0  0  0  3  0  0  0  0  0  0
  -22.8740  -10.2840   20.1850 C   0  0  0  0  0  3  0  0  0  0  0  0
  -21.8070   -7.0110   21.4420 O   0  0  0  0  0  0  0  0  0  0  0  0
  -21.7520   -6.2880   22.6070 C   0  0  0  0  0  0  0  0  0  0  0  0
  -21.2980   -6.8570   23.8160 C   0  0  0  0  0  3  0  0  0  0  0  0
  -21.1910   -6.0600   24.9730 C   0  0  0  0  0  3  0  0  0  0  0  0
  -21.5270   -4.6940   24.9210 C   0  0  0  0  0  0  0  0  0  0  0  0
  -21.9720   -4.1240   23.7160 C   0  0  0  0  0  3  0  0  0  0  0  0
  -22.0810   -4.9170   22.5610 C   0  0  0  0  0  0  0  0  0  0  0  0
  -22.4910   -4.3580   21.3970 F   0  0  0  0  0  0  0  0  0  0  0  0
  -21.4160   -3.9260   26.0300 F   0  0  0  0  0  0  0  0  0  0  0  0
  -22.8860  -13.6430   21.0430 C   0  0  0  0  0  0  0  0  0  0  0  0
  -22.1660  -12.9550   21.9210 N   0  0  0  0  0  0  0  0  0  0  0  0
  -22.4440  -14.6620   20.5140 O   0  0  0  0  0  0  0  0  0  0  0  0
  -22.5380  -12.1330   22.3720 H   0  0  0  0  0  0  0  0  0  0  0  0
  -21.2280  -13.2560   22.1470 H   0  0  0  0  0  0  0  0  0  0  0  0
  -25.5020  -15.3110   20.1950 N   0  0  0  0  0  0  0  0  0  0  0  0
  -24.7380  -15.9670   20.3170 H   0  0  0  0  0  0  0  0  0  0  0  0
  -26.3530  -15.7500   19.8720 H   0  0  0  0  0  0  0  0  0  0  0  0
  -28.2260  -23.2360   20.0020 C   0  0  0  0  0  2  0  0  0  0  0  0
  -28.4650  -24.7540   20.7420 C   0  0  0  0  0  2  0  0  0  0  0  0
  -28.4000  -26.2440   20.2390 O   0  0  0  0  0  0  0  0  0  0  0  0
  -24.6590  -31.8980   23.2690 C   0  0  0  0  0  0  0  0  0  0  0  0
  -27.2950  -27.1720   20.2950 C   0  0  0  0  0  0  0  0  0  0  0  0
  -23.4840  -30.4880   21.6250 C   0  0  0  0  0  3  0  0  0  0  0  0
  -24.9530  -28.9060   20.2280 C   0  0  0  0  0  0  0  0  0  0  0  0
  -26.0370  -30.7680   21.4780 C   0  0  0  0  0  2  0  0  0  0  0  0
  -26.1260  -29.3690   20.8390 C   0  0  0  0  0  0  0  0  0  0  0  0
  -27.2990  -28.5210   20.8450 C   0  0  0  0  0  3  0  0  0  0  0  0
  -26.0930  -26.8040   19.6580 C   0  0  0  0  0  3  0  0  0  0  0  0
  -24.9510  -27.6390   19.6210 C   0  0  0  0  0  3  0  0  0  0  0  0
  -23.7220  -29.8010   20.2530 C   0  0  0  0  0  2  0  0  0  0  0  0
  -24.7460  -31.0750   22.1790 N   0  0  0  0  0  0  0  0  0  0  0  0
  -23.5670  -32.1760   23.7880 O   0  0  0  0  0  0  0  0  0  0  0  0
  -22.8030  -29.4810   22.5850 C   0  0  0  0  0  0  0  0  0  0  0  0
  -21.4760  -29.3050   22.4530 N   0  0  0  0  0  0  0  0  0  0  0  0
  -23.4730  -28.8580   23.4130 O   0  0  0  0  0  0  0  0  0  0  0  0
  -20.9920  -29.8600   21.7610 H   0  0  0  0  0  0  0  0  0  0  0  0
  -18.0960  -28.0970   22.9450 C   0  0  0  0  0  0  0  0  0  0  0  0
  -20.6540  -28.3650   23.2190 C   0  0  0  0  0  3  0  0  0  0  0  0
  -20.7600  -26.9340   22.6420 C   0  0  0  0  0  2  0  0  0  0  0  0
  -19.6610  -26.6120   21.6230 C   0  0  0  0  0  2  0  0  0  0  0  0
  -18.2780  -26.7500   22.2640 C   0  0  0  0  0  2  0  0  0  0  0  0
  -19.2120  -28.8610   23.3790 C   0  0  0  0  0  0  0  0  0  0  0  0
  -18.9870  -30.1200   23.9770 C   0  0  0  0  0  3  0  0  0  0  0  0
  -17.6800  -30.6160   24.1450 C   0  0  0  0  0  3  0  0  0  0  0  0
  -16.5790  -29.8480   23.7260 C   0  0  0  0  0  3  0  0  0  0  0  0
  -16.7880  -28.5910   23.1320 C   0  0  0  0  0  3  0  0  0  0  0  0
  -25.9260  -32.5460   23.9070 C   0  0  0  0  0  3  0  0  0  0  0  0
  -26.4180  -31.7950   25.2060 C   0  0  1  0  0  0  0  0  0  0  0  0
  -25.3050  -31.5730   26.2570 C   0  0  0  0  0  1  0  0  0  0  0  0
  -27.0100  -30.4120   24.8500 C   0  0  0  0  0  1  0  0  0  0  0  0
  -27.5560  -32.6010   25.8770 C   0  0  0  0  0  1  0  0  0  0  0  0
  -25.6040  -33.9480   24.2180 N   0  0  0  0  0  0  0  0  0  0  0  0
  -25.9420  -34.9980   23.4570 C   0  0  0  0  0  0  0  0  0  0  0  0
  -26.6220  -34.8860   22.4330 O   0  0  0  0  0  0  0  0  0  0  0  0
  -25.0010  -34.1070   25.0110 H   0  0  0  0  0  0  0  0  0  0  0  0
  -24.2160  -36.7900   23.0720 C   0  0  0  0  0  1  0  0  0  0  0  0
  -25.4490  -36.3900   23.8990 C   0  0  0  0  0  3  0  0  0  0  0  0
  -27.5710  -37.2890   24.7500 C   0  0  0  0  0  1  0  0  0  0  0  0
  -26.4820  -37.4440   23.7890 N   0  0  0  0  0  0  0  0  0  0  0  0
  -26.0730  -38.3640   23.9190 H   0  0  0  0  0  0  0  0  0  0  0  0
  1  2  1  0
  3  1  1  0
  4  5  1  0
  4  6  1  0
  5 12  1  0
  7  8  1  0
  7  9  1  0
  8  1  1  0
  8  4  1  0
  9  6  1  0
  9 11  1  0
 10  9  1  0
 13 18  1  0
 14 15  1  0
 14 13  1  0
 16 15  1  0
 16 23  1  0
 16 17  1  0
 18 12  1  0
 18 17  1  0
 19 12  2  0
 20 21  2  0
 21 40  1  0
 22 21  1  0
 22 25  1  0
 23 20  1  0
 23 24  1  0
 24 22  2  0
 25 26  1  0
 26 27  2  0
 28 31  1  0
 28 27  1  0
 29 28  2  0
 30 29  1  0
 30 25  2  0
 31 32  1  0
 32 33  1  0
 33 34  2  0
 35 34  1  0
 35 39  1  0
 36 35  2  0
 37 32  2  0
 37 36  1  0
 38 37  1  0
 40 41  1  0
 41 44  1  0
 41 43  1  0
 42 40  2  0
 45 46  1  0
 45 20  1  0
 47 45  1  0
 48  3  1  0
 48 49  1  0
 50 52  1  0
 50 49  1  0
 51 62  2  0
 52 57  1  0
 53 61  1  0
 53 63  1  0
 54 60  1  0
 54 56  1  0
 55 61  1  0
 56 57  2  0
 56 55  1  0
 58 52  2  0
 59 58  1  0
 59 54  2  0
 60 53  1  0
 61 51  1  0
 63 65  2  0
 64 63  1  0
 66 64  1  0
 67 76  2  0
 67 72  1  0
 68 64  1  0
 68 72  1  0
 69 68  1  0
 70 71  1  0
 70 69  1  0
 71 67  1  0
 72 73  2  0
 73 74  1  0
 75 74  2  0
 76 75  1  0
 77 51  1  0
 77 82  1  0
 77 78  1  0
 78 81  1  1
 78 79  1  0
 80 78  1  0
 82 85  1  0
 83 87  1  0
 83 82  1  0
 84 83  2  0
 87 86  1  0
 89 87  1  0
 89 90  1  0
 89 88  1  0
M  ISO  4   5 100  12 100  49 101  50 101
M  END
>  <TORSDO>  (63) 
F 19

>  <SCORE>  (63) 
-14.900

>  <name>  (63) 
64

>  <ligand_id>  (63) 
64

>  <original_smiles>  (63) 
[H]C(C(=O)N1C([H])([H])C([H])([H])C([H])([H])C([H])(n2nc(-c3c([H])c([H])c(Oc4c([H])c([H])c(F)c([H])c4F)c([H])c3[H])c(C(=O)N([H])[H])c2N([H])[H])C1([H])[H])=C1C([H])(C(=NC([H])([H])C([H])([H])Oc2c([H])c([H])c3c(c2[H])C([H])([H])N(C(=O)C([H])(N([H])C(=O)C([H])(N([H])C([H])([H])[H])C([H])([H])[H])C(C([H])([H])[H])(C([H])([H])[H])C([H])([H])[H])C([H])(C(=O)N([H])C2([H])c4c([H])c([H])c([H])c([H])c4C([H])([H])C([H])([H])C2([H])[H])C3([H])[H])C([H])([H])[H])C([H])([H])[N+]([H])([H])C1([H])[H]

>  <smiles>  (63) 
[H]C(C(=O)N1C([H])([H])C([H])([H])C([H])([H])C([H])(n2nc(-c3c([H])c([H])c(Oc4c([H])c([H])c(F)c([H])c4F)c([H])c3[H])c(C(=O)N([H])[H])c2N([H])[H])C1([H])[H])=C1C([H])(C(=NC([H])([H])C([H])([H])Oc2c([H])c([H])c3c(c2[H])C([H])([H])N(C(=O)C([H])(N([H])C(=O)C([H])(N([H])C([H])([H])[H])C([H])([H])[H])C(C([H])([H])[H])(C([H])([H])[H])C([H])([H])[H])C([H])(C(=O)N([H])C2([H])c4c([H])c([H])c([H])c([H])c4C([H])([H])C([H])([H])C2([H])[H])C3([H])[H])C([H])([H])[H])C([H])([H])[N+]([H])([H])C1([H])[H]

$$$$
65:0:0
     RDKit          3D

 97105  0  0  1  0  0  0  0  0999 V2000
  -28.4000  -23.0770   20.7610 C   0  0  0  0  0  0  0  0  0  0  0  0
  -27.7940  -22.8420   21.9440 N   0  0  0  0  0  4  0  0  0  0  0  0
  -28.6710  -22.0570   19.9190 N   0  0  0  0  0  0  0  0  0  0  0  0
  -27.5440  -23.5960   22.5690 H   0  0  0  0  0  0  0  0  0  0  0  0
  -27.5480  -21.9160   22.2590 H   0  0  0  0  0  0  0  0  0  0  0  0
  -29.0670  -22.2850   19.0140 H   0  0  0  0  0  0  0  0  0  0  0  0
  -26.9880  -19.1570   18.6350 C   0  0  0  0  0  2  0  0  0  0  0  0
  -28.2670  -18.4700   19.1000 C   0  0  0  0  0  2  0  0  0  0  0  0
  -26.8690  -20.4020   19.5160 C   0  0  0  0  0  2  0  0  0  0  0  0
  -29.2170  -19.6230   19.4670 C   0  0  0  0  0  3  0  0  0  0  0  0
  -28.2650  -20.6560   20.1150 C   0  0  0  0  0  3  0  0  0  0  0  0
  -31.6390  -20.0790   20.2240 C   0  0  0  0  0  1  0  0  0  0  0  0
  -30.4010  -19.1760   20.3670 C   0  0  0  0  0  3  0  0  0  0  0  0
  -30.7570  -17.7660   20.0800 N   0  0  0  0  0  4  0  0  0  0  0  0
  -29.8780  -17.2910   19.9460 H   0  0  0  0  0  0  0  0  0  0  0  0
  -31.2680  -17.7040   19.2130 H   0  0  0  0  0  0  0  0  0  0  0  0
  -31.4770  -17.0520   21.1620 C   0  0  0  0  0  2  0  0  0  0  0  0
  -30.9500  -15.6140   21.3540 C   0  0  0  0  0  2  0  0  0  0  0  0
  -31.3240  -14.6170   20.2430 C   0  0  0  0  0  0  0  0  0  0  0  0
  -30.9380  -12.4780   19.0630 C   0  0  0  0  0  2  0  0  0  0  0  0
  -29.9570  -12.6440   17.8850 C   0  0  0  0  0  2  0  0  0  0  0  0
  -28.4910  -12.5520   18.3560 C   0  0  0  0  0  2  0  0  0  0  0  0
  -28.2080  -13.4380   19.5980 C   0  0  0  0  0  3  0  0  0  0  0  0
  -29.2850  -13.1890   20.6800 C   0  0  0  0  0  2  0  0  0  0  0  0
  -30.6010  -13.4760   20.0850 N   0  0  0  0  0  0  0  0  0  0  0  0
  -32.3070  -14.8720   19.5400 O   0  0  0  0  0  0  0  0  0  0  0  0
  -25.8760  -14.1490   20.4370 C   0  0  0  0  0  0  0  0  0  0  0  0
  -24.7770  -13.4200   20.8070 C   0  0  0  0  0  0  0  0  0  0  0  0
  -25.1480  -12.0490   20.6580 C   0  0  0  0  0  0  0  0  0  0  0  0
  -26.8560  -13.2220   20.1100 N   0  0  0  0  0  0  0  0  0  0  0  0
  -26.4180  -11.9500   20.2890 N   0  0  0  0  0  0  0  0  0  0  0  0
  -24.3490  -10.8250   20.7950 C   0  0  0  0  0  0  0  0  0  0  0  0
  -24.7610   -9.7670   21.6350 C   0  0  0  0  0  3  0  0  0  0  0  0
  -23.9680   -8.6060   21.7620 C   0  0  0  0  0  3  0  0  0  0  0  0
  -22.7510   -8.4960   21.0490 C   0  0  0  0  0  0  0  0  0  0  0  0
  -22.3590   -9.5430   20.1960 C   0  0  0  0  0  3  0  0  0  0  0  0
  -23.1490  -10.6950   20.0650 C   0  0  0  0  0  3  0  0  0  0  0  0
  -21.9280   -7.3970   21.0920 O   0  0  0  0  0  0  0  0  0  0  0  0
  -21.8440   -6.6040   22.2080 C   0  0  0  0  0  0  0  0  0  0  0  0
  -21.4850   -7.1300   23.4680 C   0  0  0  0  0  3  0  0  0  0  0  0
  -21.3420   -6.2690   24.5750 C   0  0  0  0  0  3  0  0  0  0  0  0
  -21.5470   -4.8850   24.4210 C   0  0  0  0  0  0  0  0  0  0  0  0
  -21.9000   -4.3600   23.1670 C   0  0  0  0  0  3  0  0  0  0  0  0
  -22.0440   -5.2180   22.0620 C   0  0  0  0  0  0  0  0  0  0  0  0
  -22.3630   -4.7030   20.8490 F   0  0  0  0  0  0  0  0  0  0  0  0
  -21.4010   -4.0570   25.4820 F   0  0  0  0  0  0  0  0  0  0  0  0
  -23.4270  -13.9650   21.1740 C   0  0  0  0  0  0  0  0  0  0  0  0
  -22.6970  -13.2670   22.0380 N   0  0  0  0  0  0  0  0  0  0  0  0
  -23.0280  -15.0420   20.7290 O   0  0  0  0  0  0  0  0  0  0  0  0
  -23.0310  -12.3940   22.4170 H   0  0  0  0  0  0  0  0  0  0  0  0
  -21.7920  -13.6100   22.3200 H   0  0  0  0  0  0  0  0  0  0  0  0
  -26.1130  -15.5140   20.3320 N   0  0  0  0  0  0  0  0  0  0  0  0
  -25.3560  -16.1800   20.4490 H   0  0  0  0  0  0  0  0  0  0  0  0
  -26.9100  -15.9050   19.8480 H   0  0  0  0  0  0  0  0  0  0  0  0
  -28.7760  -24.4750   20.3230 C   0  0  0  0  0  2  0  0  0  0  0  0
  -28.5140  -25.5400   21.4060 C   0  0  0  0  0  2  0  0  0  0  0  0
  -28.7140  -26.8690   20.9210 O   0  0  0  0  0  0  0  0  0  0  0  0
  -24.6180  -32.0210   23.5860 C   0  0  0  0  0  0  0  0  0  0  0  0
  -27.5480  -27.5800   20.8060 C   0  0  0  0  0  0  0  0  0  0  0  0
  -23.5530  -30.5600   21.8950 C   0  0  0  0  0  3  0  0  0  0  0  0
  -25.1310  -29.0170   20.6160 C   0  0  0  0  0  0  0  0  0  0  0  0
  -26.0800  -30.9620   21.8710 C   0  0  0  0  0  2  0  0  0  0  0  0
  -26.2330  -29.5820   21.2720 C   0  0  0  0  0  0  0  0  0  0  0  0
  -27.4470  -28.8700   21.3650 C   0  0  0  0  0  3  0  0  0  0  0  0
  -26.4350  -27.0160   20.1510 C   0  0  0  0  0  3  0  0  0  0  0  0
  -25.2250  -27.7300   20.0550 C   0  0  0  0  0  3  0  0  0  0  0  0
  -23.8720  -29.8500   20.5510 C   0  0  0  0  0  2  0  0  0  0  0  0
  -24.7640  -31.1960   22.5090 N   0  0  0  0  0  0  0  0  0  0  0  0
  -23.4980  -32.2900   24.0410 O   0  0  0  0  0  0  0  0  0  0  0  0
  -22.8470  -29.5520   22.8290 C   0  0  0  0  0  0  0  0  0  0  0  0
  -21.5460  -29.3200   22.5850 N   0  0  0  0  0  0  0  0  0  0  0  0
  -23.4720  -28.9780   23.7260 O   0  0  0  0  0  0  0  0  0  0  0  0
  -21.1040  -29.8330   21.8350 H   0  0  0  0  0  0  0  0  0  0  0  0
  -18.1860  -28.0270   22.8070 C   0  0  0  0  0  0  0  0  0  0  0  0
  -20.6920  -28.3860   23.3160 C   0  0  0  0  0  3  0  0  0  0  0  0
  -20.8980  -26.9380   22.8140 C   0  0  0  0  0  2  0  0  0  0  0  0
  -19.9130  -26.5370   21.7120 C   0  0  0  0  0  2  0  0  0  0  0  0
  -18.4710  -26.6590   22.2100 C   0  0  0  0  0  2  0  0  0  0  0  0
  -19.2320  -28.8440   23.3110 C   0  0  0  0  0  0  0  0  0  0  0  0
  -18.9190  -30.1210   23.8270 C   0  0  0  0  0  3  0  0  0  0  0  0
  -17.5910  -30.5830   23.8460 C   0  0  0  0  0  3  0  0  0  0  0  0
  -16.5560  -29.7660   23.3590 C   0  0  0  0  0  3  0  0  0  0  0  0
  -16.8540  -28.4910   22.8450 C   0  0  0  0  0  3  0  0  0  0  0  0
  -25.8510  -32.6800   24.2830 C   0  0  0  0  0  3  0  0  0  0  0  0
  -25.5510  -34.1070   24.4520 N   0  0  0  0  0  0  0  0  0  0  0  0
  -25.9670  -35.0770   23.6260 C   0  0  0  0  0  0  0  0  0  0  0  0
  -26.7180  -34.8640   22.6700 O   0  0  0  0  0  0  0  0  0  0  0  0
  -24.8940  -34.3470   25.1800 H   0  0  0  0  0  0  0  0  0  0  0  0
  -24.3000  -36.8390   22.9630 C   0  0  0  0  0  1  0  0  0  0  0  0
  -25.4720  -36.5080   23.9020 C   0  0  0  0  0  3  0  0  0  0  0  0
  -27.5620  -37.4420   24.7910 C   0  0  0  0  0  1  0  0  0  0  0  0
  -26.5290  -37.5330   23.7630 N   0  0  0  0  0  0  0  0  0  0  0  0
  -26.1320  -38.4680   23.7960 H   0  0  0  0  0  0  0  0  0  0  0  0
  -26.2150  -32.0170   25.6680 C   0  0  1  0  0  0  0  0  0  0  0  0
  -25.0000  -31.8490   26.6100 C   0  0  0  0  0  1  0  0  0  0  0  0
  -26.8490  -30.6210   25.4570 C   0  0  0  0  0  1  0  0  0  0  0  0
  -27.2720  -32.8790   26.3990 C   0  0  0  0  0  1  0  0  0  0  0  0
  1  2  2  0
  2  5  1  0
  2  4  1  0
  3  1  1  0
  6  3  1  0
  7  8  1  0
  7  9  1  0
  8 10  1  0
  9 11  1  0
 10 11  1  0
 10 13  1  0
 11  3  1  0
 13 12  1  0
 14 13  1  0
 14 17  1  0
 15 14  1  0
 16 14  1  0
 17 18  1  0
 19 18  1  0
 20 25  1  0
 21 22  1  0
 21 20  1  0
 23 22  1  0
 23 30  1  0
 23 24  1  0
 25 19  1  0
 25 24  1  0
 26 19  2  0
 27 28  2  0
 28 47  1  0
 29 32  1  0
 29 28  1  0
 30 31  1  0
 30 27  1  0
 31 29  2  0
 32 33  1  0
 33 34  2  0
 35 38  1  0
 35 34  1  0
 36 35  2  0
 37 36  1  0
 37 32  2  0
 38 39  1  0
 39 40  1  0
 40 41  2  0
 42 41  1  0
 42 46  1  0
 43 42  2  0
 44 39  2  0
 44 43  1  0
 45 44  1  0
 47 48  1  0
 48 51  1  0
 48 50  1  0
 49 47  2  0
 52 27  1  0
 52 53  1  0
 54 52  1  0
 55  1  1  0
 55 56  1  0
 57 56  1  0
 58 69  2  0
 59 57  1  0
 59 64  1  0
 60 68  1  0
 60 70  1  0
 61 63  1  0
 62 68  1  0
 63 64  2  0
 63 62  1  0
 65 59  2  0
 66 65  1  0
 66 61  2  0
 67 61  1  0
 67 60  1  0
 68 58  1  0
 70 72  2  0
 71 70  1  0
 73 71  1  0
 74 83  2  0
 74 79  1  0
 75 71  1  0
 76 75  1  0
 77 78  1  0
 77 76  1  0
 78 74  1  0
 79 75  1  0
 79 80  2  0
 80 81  1  0
 82 81  2  0
 83 82  1  0
 84 58  1  0
 84 85  1  0
 84 94  1  0
 85 88  1  0
 86 90  1  0
 86 85  1  0
 87 86  2  0
 90 89  1  0
 92 93  1  0
 92 90  1  0
 92 91  1  0
 94 97  1  1
 94 95  1  0
 96 94  1  0
M  ISO  4  18 100  19 100  56 101  57 101
M  END
>  <TORSDO>  (64) 
F 23

>  <SCORE>  (64) 
-11.735

>  <name>  (64) 
65

>  <ligand_id>  (64) 
65

>  <original_smiles>  (64) 
[H]c1c([H])c([H])c2c(c1[H])C([H])([H])C([H])([H])C([H])([H])C2([H])N([H])C(=O)C1([H])N(C(=O)C([H])(N([H])C(=O)C([H])(N([H])C([H])([H])[H])C([H])([H])[H])C(C([H])([H])[H])(C([H])([H])[H])C([H])([H])[H])C([H])([H])c2c([H])c(OC([H])([H])C([H])([H])C(N([H])[H])=[N+]([H])C3([H])C([H])([H])C([H])([H])C([H])([H])C3([H])C([H])(C([H])([H])[H])[N+]([H])([H])C([H])([H])C([H])([H])C(=O)N3C([H])([H])C([H])([H])C([H])([H])C([H])(n4nc(-c5c([H])c([H])c(Oc6c([H])c([H])c(F)c([H])c6F)c([H])c5[H])c(C(=O)N([H])[H])c4N([H])[H])C3([H])[H])c([H])c([H])c2C1([H])[H]

>  <smiles>  (64) 
[H]c1c([H])c([H])c2c(c1[H])C([H])([H])C([H])([H])C([H])([H])C2([H])N([H])C(=O)C1([H])N(C(=O)C([H])(N([H])C(=O)C([H])(N([H])C([H])([H])[H])C([H])([H])[H])C(C([H])([H])[H])(C([H])([H])[H])C([H])([H])[H])C([H])([H])c2c([H])c(OC([H])([H])C([H])([H])C(N([H])[H])=[N+]([H])C3([H])C([H])([H])C([H])([H])C([H])([H])C3([H])C([H])(C([H])([H])[H])[N+]([H])([H])C([H])([H])C([H])([H])C(=O)N3C([H])([H])C([H])([H])C([H])([H])C([H])(n4nc(-c5c([H])c([H])c(Oc6c([H])c([H])c(F)c([H])c6F)c([H])c5[H])c(C(=O)N([H])[H])c4N([H])[H])C3([H])[H])c([H])c([H])c2C1([H])[H]

$$$$
66:0:0
     RDKit          3D

 94101  0  0  1  0  0  0  0  0999 V2000
  -31.5000  -21.2840   21.5520 C   0  0  0  0  0  1  0  0  0  0  0  0
  -30.1490  -20.9210   19.4340 C   0  0  0  0  0  1  0  0  0  0  0  0
  -30.1200  -20.8860   20.9790 C   0  0  1  0  0  0  0  0  0  0  0  0
  -29.8150  -19.4390   21.5050 C   0  0  0  0  0  0  0  0  0  0  0  0
  -30.2040  -18.3490   20.7910 N   0  0  0  0  0  0  0  0  0  0  0  0
  -29.2580  -19.3250   22.6010 O   0  0  0  0  0  0  0  0  0  0  0  0
  -30.5980  -18.5420   19.8800 H   0  0  0  0  0  0  0  0  0  0  0  0
  -31.3140  -16.6560   22.2230 C   0  0  0  0  0  1  0  0  0  0  0  0
  -30.1910  -16.9110   21.1980 C   0  0  0  0  0  3  0  0  0  0  0  0
  -29.5850  -16.3110   18.8430 C   0  0  0  0  0  2  0  0  0  0  0  0
  -30.2140  -15.9420   19.9760 C   0  0  0  0  0  0  0  0  0  0  0  0
  -30.9920  -14.6710   19.8980 C   0  0  0  0  0  0  0  0  0  0  0  0
  -30.6420  -12.4090   18.9360 C   0  0  0  0  0  2  0  0  0  0  0  0
  -29.6520  -12.5070   17.7550 C   0  0  0  0  0  2  0  0  0  0  0  0
  -28.1970  -12.3830   18.2540 C   0  0  0  0  0  2  0  0  0  0  0  0
  -27.8980  -13.2910   19.4760 C   0  0  0  0  0  3  0  0  0  0  0  0
  -29.0160  -13.2170   20.5410 C   0  0  0  0  0  2  0  0  0  0  0  0
  -30.3010  -13.4880   19.8850 N   0  0  0  0  0  0  0  0  0  0  0  0
  -32.1720  -14.7030   19.5460 O   0  0  0  0  0  0  0  0  0  0  0  0
  -25.5720  -13.9370   20.3430 C   0  0  0  0  0  0  0  0  0  0  0  0
  -24.5070  -13.1820   20.7540 C   0  0  0  0  0  0  0  0  0  0  0  0
  -24.9360  -11.8200   20.6760 C   0  0  0  0  0  0  0  0  0  0  0  0
  -26.5790  -13.0340   20.0390 N   0  0  0  0  0  0  0  0  0  0  0  0
  -26.2070  -11.7570   20.3030 N   0  0  0  0  0  0  0  0  0  0  0  0
  -24.1930  -10.5700   20.8830 C   0  0  0  0  0  0  0  0  0  0  0  0
  -24.5980   -9.6220   21.8480 C   0  0  0  0  0  3  0  0  0  0  0  0
  -23.8550   -8.4360   22.0410 C   0  0  0  0  0  3  0  0  0  0  0  0
  -22.6990   -8.1880   21.2640 C   0  0  0  0  0  0  0  0  0  0  0  0
  -22.3160   -9.1250   20.2870 C   0  0  0  0  0  3  0  0  0  0  0  0
  -23.0570  -10.3020   20.0960 C   0  0  0  0  0  3  0  0  0  0  0  0
  -21.9300   -7.0540   21.3620 O   0  0  0  0  0  0  0  0  0  0  0  0
  -21.7830   -6.3870   22.5510 C   0  0  0  0  0  0  0  0  0  0  0  0
  -21.2560   -7.0190   23.6970 C   0  0  0  0  0  3  0  0  0  0  0  0
  -21.0610   -6.2790   24.8810 C   0  0  0  0  0  3  0  0  0  0  0  0
  -21.3770   -4.9070   24.9170 C   0  0  0  0  0  0  0  0  0  0  0  0
  -21.8950   -4.2760   23.7740 C   0  0  0  0  0  3  0  0  0  0  0  0
  -22.0930   -5.0130   22.5930 C   0  0  0  0  0  0  0  0  0  0  0  0
  -22.5740   -4.3930   21.4880 F   0  0  0  0  0  0  0  0  0  0  0  0
  -21.1770   -4.1970   26.0530 F   0  0  0  0  0  0  0  0  0  0  0  0
  -23.1380  -13.6820   21.1050 C   0  0  0  0  0  0  0  0  0  0  0  0
  -22.4410  -12.9770   21.9890 N   0  0  0  0  0  0  0  0  0  0  0  0
  -22.6970  -14.7280   20.6320 O   0  0  0  0  0  0  0  0  0  0  0  0
  -22.8190  -12.1280   22.3880 H   0  0  0  0  0  0  0  0  0  0  0  0
  -21.5270  -13.2910   22.2800 H   0  0  0  0  0  0  0  0  0  0  0  0
  -25.7610  -15.3050   20.1810 N   0  0  0  0  0  0  0  0  0  0  0  0
  -25.0270  -15.9830   20.3550 H   0  0  0  0  0  0  0  0  0  0  0  0
  -26.6190  -15.7180   19.8350 H   0  0  0  0  0  0  0  0  0  0  0  0
  -29.0250  -21.7840   21.4780 N   0  0  0  0  0  4  0  0  0  0  0  0
  -28.2210  -21.7260   20.8760 H   0  0  0  0  0  0  0  0  0  0  0  0
  -28.7500  -21.2860   22.3180 H   0  0  0  0  0  0  0  0  0  0  0  0
  -29.2700  -23.2070   21.9070 C   0  0  0  0  0  2  0  0  0  0  0  0
  -29.3750  -24.3370   20.8110 C   0  0  0  0  0  3  0  0  0  0  0  0
  -28.1850  -25.3510   20.7580 C   0  0  0  0  0  3  0  0  0  0  0  0
  -28.4170  -26.6080   20.0530 O   0  0  0  0  0  0  0  0  0  0  0  0
  -24.6620  -31.8000   23.1880 C   0  0  0  0  0  0  0  0  0  0  0  0
  -27.2960  -27.4210   19.9990 C   0  0  0  0  0  0  0  0  0  0  0  0
  -23.4540  -30.4410   21.5130 C   0  0  0  0  0  3  0  0  0  0  0  0
  -24.9080  -28.9530   20.0300 C   0  0  0  0  0  0  0  0  0  0  0  0
  -25.9790  -30.8110   21.3110 C   0  0  0  0  0  2  0  0  0  0  0  0
  -26.0690  -29.4570   20.6290 C   0  0  0  0  0  0  0  0  0  0  0  0
  -27.2700  -28.7020   20.6040 C   0  0  0  0  0  3  0  0  0  0  0  0
  -26.1250  -26.9530   19.3640 C   0  0  0  0  0  3  0  0  0  0  0  0
  -24.9350  -27.7040   19.3850 C   0  0  0  0  0  3  0  0  0  0  0  0
  -23.6590  -29.8050   20.1110 C   0  0  0  0  0  2  0  0  0  0  0  0
  -24.7170  -31.0310   22.0630 N   0  0  0  0  0  0  0  0  0  0  0  0
  -23.5840  -32.0500   23.7430 O   0  0  0  0  0  0  0  0  0  0  0  0
  -22.8110  -29.3900   22.4480 C   0  0  0  0  0  0  0  0  0  0  0  0
  -21.4860  -29.2060   22.3280 N   0  0  0  0  0  0  0  0  0  0  0  0
  -23.5030  -28.7440   23.2400 O   0  0  0  0  0  0  0  0  0  0  0  0
  -20.9870  -29.7800   21.6630 H   0  0  0  0  0  0  0  0  0  0  0  0
  -18.1200  -27.9860   22.8250 C   0  0  0  0  0  0  0  0  0  0  0  0
  -20.6800  -28.2420   23.0770 C   0  0  0  0  0  3  0  0  0  0  0  0
  -20.7790  -26.8290   22.4550 C   0  0  0  0  0  2  0  0  0  0  0  0
  -19.6670  -26.5360   21.4430 C   0  0  0  0  0  2  0  0  0  0  0  0
  -18.2930  -26.6580   22.1070 C   0  0  0  0  0  2  0  0  0  0  0  0
  -19.2410  -28.7360   23.2670 C   0  0  0  0  0  0  0  0  0  0  0  0
  -19.0270  -29.9800   23.9010 C   0  0  0  0  0  3  0  0  0  0  0  0
  -17.7230  -30.4720   24.0980 C   0  0  0  0  0  3  0  0  0  0  0  0
  -16.6160  -29.7170   23.6710 C   0  0  0  0  0  3  0  0  0  0  0  0
  -16.8160  -28.4770   23.0410 C   0  0  0  0  0  3  0  0  0  0  0  0
  -25.9490  -32.4210   23.8150 C   0  0  0  0  0  3  0  0  0  0  0  0
  -25.6480  -33.8210   24.1460 N   0  0  0  0  0  0  0  0  0  0  0  0
  -26.0040  -34.8740   23.3970 C   0  0  0  0  0  0  0  0  0  0  0  0
  -26.6900  -34.7680   22.3770 O   0  0  0  0  0  0  0  0  0  0  0  0
  -25.0400  -33.9780   24.9370 H   0  0  0  0  0  0  0  0  0  0  0  0
  -24.3100  -36.6930   23.0100 C   0  0  0  0  0  1  0  0  0  0  0  0
  -25.5220  -36.2640   23.8530 C   0  0  0  0  0  3  0  0  0  0  0  0
  -27.6440  -37.1140   24.7530 C   0  0  0  0  0  1  0  0  0  0  0  0
  -26.5730  -37.3030   23.7780 N   0  0  0  0  0  0  0  0  0  0  0  0
  -26.1730  -38.2280   23.9220 H   0  0  0  0  0  0  0  0  0  0  0  0
  -26.4560  -31.6440   25.0900 C   0  0  1  0  0  0  0  0  0  0  0  0
  -25.3580  -31.4100   26.1530 C   0  0  0  0  0  1  0  0  0  0  0  0
  -27.0360  -30.2640   24.6980 C   0  0  0  0  0  1  0  0  0  0  0  0
  -27.6080  -32.4290   25.7630 C   0  0  0  0  0  1  0  0  0  0  0  0
  3  2  1  6
  3 48  1  0
  3  4  1  0
  3  1  1  0
  4  6  2  0
  5  9  1  0
  5  4  1  0
  7  5  1  0
  9  8  1  0
 10 11  2  0
 11  9  1  0
 12 11  1  0
 13 18  1  0
 14 15  1  0
 14 13  1  0
 16 15  1  0
 16 23  1  0
 16 17  1  0
 18 12  1  0
 18 17  1  0
 19 12  2  0
 20 21  2  0
 21 40  1  0
 22 21  1  0
 22 25  1  0
 23 24  1  0
 23 20  1  0
 24 22  2  0
 25 26  1  0
 26 27  2  0
 28 31  1  0
 28 27  1  0
 29 28  2  0
 30 29  1  0
 30 25  2  0
 31 32  1  0
 32 37  2  0
 32 33  1  0
 33 34  2  0
 34 35  1  0
 35 39  1  0
 36 35  2  0
 37 36  1  0
 38 37  1  0
 40 41  1  0
 41 44  1  0
 41 43  1  0
 42 40  2  0
 45 20  1  0
 45 46  1  0
 47 45  1  0
 48 51  1  0
 48 50  1  0
 49 48  1  0
 52 51  1  0
 53 52  2  0
 54 53  1  0
 55 66  2  0
 56 54  1  0
 56 61  1  0
 57 65  1  0
 57 67  1  0
 58 64  1  0
 58 60  1  0
 59 65  1  0
 60 59  1  0
 61 60  2  0
 62 63  1  0
 62 56  2  0
 63 58  2  0
 64 57  1  0
 65 55  1  0
 67 69  2  0
 68 67  1  0
 70 68  1  0
 71 80  2  0
 71 76  1  0
 72 68  1  0
 72 76  1  0
 73 72  1  0
 74 75  1  0
 74 73  1  0
 75 71  1  0
 76 77  2  0
 77 78  1  0
 79 78  2  0
 80 79  1  0
 81 55  1  0
 81 82  1  0
 81 91  1  0
 82 85  1  0
 83 87  1  0
 83 82  1  0
 84 83  2  0
 87 86  1  0
 89 87  1  0
 89 90  1  0
 89 88  1  0
 91 94  1  1
 91 92  1  0
 93 91  1  0
M  ISO  4  11 100  12 100  53 101  54 101
M  END
>  <TORSDO>  (65) 
F 23

>  <SCORE>  (65) 
-10.499

>  <name>  (65) 
66

>  <ligand_id>  (65) 
66

>  <original_smiles>  (65) 
[H]C([H])=C(C(=O)N1C([H])([H])C([H])([H])C([H])([H])C([H])(n2nc(-c3c([H])c([H])c(Oc4c([H])c([H])c(F)c([H])c4F)c([H])c3[H])c(C(=O)N([H])[H])c2N([H])[H])C1([H])[H])C([H])(N([H])C(=O)C(C([H])([H])[H])(C([H])([H])[H])[N+]([H])([H])C([H])([H])C([H])([H])C([H])([H])Oc1c([H])c([H])c2c(c1[H])C([H])([H])N(C(=O)C([H])(N([H])C(=O)C([H])(N([H])C([H])([H])[H])C([H])([H])[H])C(C([H])([H])[H])(C([H])([H])[H])C([H])([H])[H])C([H])(C(=O)N([H])C1([H])c3c([H])c([H])c([H])c([H])c3C([H])([H])C([H])([H])C1([H])[H])C2([H])[H])C([H])([H])[H]

>  <smiles>  (65) 
[H]C([H])=C(C(=O)N1C([H])([H])C([H])([H])C([H])([H])C([H])(n2nc(-c3c([H])c([H])c(Oc4c([H])c([H])c(F)c([H])c4F)c([H])c3[H])c(C(=O)N([H])[H])c2N([H])[H])C1([H])[H])C([H])(N([H])C(=O)C(C([H])([H])[H])(C([H])([H])[H])[N+]([H])([H])C([H])([H])C([H])([H])C([H])([H])Oc1c([H])c([H])c2c(c1[H])C([H])([H])N(C(=O)C([H])(N([H])C(=O)C([H])(N([H])C([H])([H])[H])C([H])([H])[H])C(C([H])([H])[H])(C([H])([H])[H])C([H])([H])[H])C([H])(C(=O)N([H])C1([H])c3c([H])c([H])c([H])c([H])c3C([H])([H])C([H])([H])C1([H])[H])C2([H])[H])C([H])([H])[H]

$$$$
67:0:0
     RDKit          3D

 97106  0  0  1  0  0  0  0  0999 V2000
  -27.5680  -20.4190   19.7240 C   0  0  0  0  0  2  0  0  0  0  0  0
  -27.6930  -21.9310   19.4640 C   0  0  0  0  0  2  0  0  0  0  0  0
  -29.8320  -21.0200   19.9710 C   0  0  0  0  0  2  0  0  0  0  0  0
  -28.9630  -19.7740   19.5340 C   0  0  0  0  0  3  0  0  0  0  0  0
  -29.1310  -22.2720   19.4800 N   0  0  2  0  0  4  0  0  0  0  0  0
  -29.3860  -22.3340   18.5040 H   0  0  0  0  0  0  0  0  0  0  0  0
  -29.4780  -23.6400   20.0750 C   0  0  0  0  0  3  0  0  0  0  0  0
  -28.5370  -24.8510   19.6310 C   0  0  0  0  0  3  0  0  0  0  0  0
  -28.7410  -26.2390   20.1170 O   0  0  0  0  0  0  0  0  0  0  0  0
  -24.9920  -31.4730   23.3860 C   0  0  0  0  0  0  0  0  0  0  0  0
  -27.6390  -27.1140   20.0810 C   0  0  0  0  0  0  0  0  0  0  0  0
  -23.8240  -30.2160   21.6140 C   0  0  0  0  0  3  0  0  0  0  0  0
  -25.2980  -28.7600   20.1220 C   0  0  0  0  0  0  0  0  0  0  0  0
  -26.3740  -30.5060   21.5360 C   0  0  0  0  0  2  0  0  0  0  0  0
  -26.4550  -29.1810   20.7920 C   0  0  0  0  0  0  0  0  0  0  0  0
  -27.6270  -28.3700   20.7660 C   0  0  0  0  0  3  0  0  0  0  0  0
  -26.4610  -26.7580   19.3810 C   0  0  0  0  0  3  0  0  0  0  0  0
  -25.3030  -27.5530   19.4110 C   0  0  0  0  0  3  0  0  0  0  0  0
  -24.0750  -29.6510   20.1920 C   0  0  0  0  0  2  0  0  0  0  0  0
  -25.0820  -30.7430   22.2370 N   0  0  0  0  0  0  0  0  0  0  0  0
  -23.8950  -31.7280   23.9040 O   0  0  0  0  0  0  0  0  0  0  0  0
  -23.1180  -29.1370   22.4680 C   0  0  0  0  0  0  0  0  0  0  0  0
  -21.8070  -28.9440   22.2420 N   0  0  0  0  0  0  0  0  0  0  0  0
  -23.7520  -28.4800   23.2990 O   0  0  0  0  0  0  0  0  0  0  0  0
  -21.3520  -29.5210   21.5470 H   0  0  0  0  0  0  0  0  0  0  0  0
  -18.4280  -27.6770   22.4490 C   0  0  0  0  0  0  0  0  0  0  0  0
  -20.9550  -27.9620   22.9140 C   0  0  0  0  0  3  0  0  0  0  0  0
  -21.1220  -26.5580   22.2890 C   0  0  0  0  0  2  0  0  0  0  0  0
  -20.1030  -26.2650   21.1850 C   0  0  0  0  0  2  0  0  0  0  0  0
  -18.6760  -26.3670   21.7250 C   0  0  0  0  0  2  0  0  0  0  0  0
  -19.4980  -28.4370   22.9940 C   0  0  0  0  0  0  0  0  0  0  0  0
  -19.2140  -29.6690   23.6210 C   0  0  0  0  0  3  0  0  0  0  0  0
  -17.8920  -30.1430   23.7110 C   0  0  0  0  0  3  0  0  0  0  0  0
  -16.8350  -29.3820   23.1840 C   0  0  0  0  0  3  0  0  0  0  0  0
  -17.1030  -28.1480   22.5630 C   0  0  0  0  0  3  0  0  0  0  0  0
  -26.2620  -32.0390   24.0910 C   0  0  0  0  0  3  0  0  0  0  0  0
  -25.9820  -33.4350   24.4530 N   0  0  0  0  0  0  0  0  0  0  0  0
  -26.3770  -34.4990   23.7400 C   0  0  0  0  0  0  0  0  0  0  0  0
  -27.0830  -34.4050   22.7320 O   0  0  0  0  0  0  0  0  0  0  0  0
  -25.3570  -33.5860   25.2310 H   0  0  0  0  0  0  0  0  0  0  0  0
  -24.7240  -36.3620   23.3760 C   0  0  0  0  0  1  0  0  0  0  0  0
  -25.9160  -35.8890   24.2220 C   0  0  0  0  0  3  0  0  0  0  0  0
  -28.0420  -36.6720   25.1700 C   0  0  0  0  0  1  0  0  0  0  0  0
  -26.9870  -36.9090   24.1880 N   0  0  0  0  0  0  0  0  0  0  0  0
  -26.6060  -37.8370   24.3520 H   0  0  0  0  0  0  0  0  0  0  0  0
  -26.6860  -31.2070   25.3630 C   0  0  1  0  0  0  0  0  0  0  0  0
  -25.5290  -30.9560   26.3560 C   0  0  0  0  0  1  0  0  0  0  0  0
  -27.2600  -29.8310   24.9540 C   0  0  0  0  0  1  0  0  0  0  0  0
  -27.8120  -31.9480   26.1210 C   0  0  0  0  0  1  0  0  0  0  0  0
  -29.1210  -18.3010   20.2090 C   0  0  0  0  0  3  0  0  0  0  0  0
  -27.3050  -16.6580   20.7750 C   0  0  0  0  0  0  0  0  0  0  0  0
  -25.8920  -16.2040   20.4320 C   0  0  0  0  0  2  0  0  0  0  0  0
  -27.8730  -17.5580   19.9560 N   0  0  0  0  0  0  0  0  0  0  0  0
  -27.8690  -16.2120   21.7750 O   0  0  0  0  0  0  0  0  0  0  0  0
  -27.3090  -17.8590   19.1730 H   0  0  0  0  0  0  0  0  0  0  0  0
  -30.3560  -17.2980   19.9020 C   0  0  0  0  0  3  0  0  0  0  0  0
  -31.5210  -18.1200   17.8090 C   0  0  0  0  0  1  0  0  0  0  0  0
  -30.5920  -17.1520   18.4400 N   0  0  0  0  0  4  0  0  0  0  0  0
  -31.0190  -16.2540   18.2890 H   0  0  0  0  0  0  0  0  0  0  0  0
  -29.7210  -17.1500   17.9330 H   0  0  0  0  0  0  0  0  0  0  0  0
  -30.2320  -15.8370   20.5790 C   0  0  0  0  0  2  0  0  0  0  0  0
  -30.9670  -14.5660   19.9800 C   0  0  0  0  0  0  0  0  0  0  0  0
  -30.6960  -12.3620   18.8480 C   0  0  0  0  0  2  0  0  0  0  0  0
  -29.6900  -12.5320   17.6870 C   0  0  0  0  0  2  0  0  0  0  0  0
  -28.2400  -12.3660   18.1820 C   0  0  0  0  0  2  0  0  0  0  0  0
  -27.9490  -13.1830   19.4690 C   0  0  0  0  0  3  0  0  0  0  0  0
  -29.0640  -12.9800   20.5190 C   0  0  0  0  0  2  0  0  0  0  0  0
  -30.3430  -13.3450   19.8920 N   0  0  0  0  0  0  0  0  0  0  0  0
  -32.0850  -14.7300   19.4860 O   0  0  0  0  0  0  0  0  0  0  0  0
  -25.5760  -13.7580   20.2630 C   0  0  0  0  0  0  0  0  0  0  0  0
  -24.5380  -12.9800   20.6910 C   0  0  0  0  0  0  0  0  0  0  0  0
  -25.0210  -11.6340   20.6700 C   0  0  0  0  0  0  0  0  0  0  0  0
  -26.6260  -12.8910   20.0100 N   0  0  0  0  0  0  0  0  0  0  0  0
  -26.3000  -11.6090   20.3130 N   0  0  0  0  0  0  0  0  0  0  0  0
  -24.3220  -10.3660   20.9110 C   0  0  0  0  0  0  0  0  0  0  0  0
  -24.7180   -9.4920   21.9470 C   0  0  0  0  0  3  0  0  0  0  0  0
  -24.0190   -8.2860   22.1710 C   0  0  0  0  0  3  0  0  0  0  0  0
  -22.9110   -7.9470   21.3600 C   0  0  0  0  0  0  0  0  0  0  0  0
  -22.5360   -8.8090   20.3160 C   0  0  0  0  0  3  0  0  0  0  0  0
  -23.2350  -10.0060   20.0890 C   0  0  0  0  0  3  0  0  0  0  0  0
  -22.1880   -6.7860   21.4900 O   0  0  0  0  0  0  0  0  0  0  0  0
  -21.9580   -6.2140   22.7150 C   0  0  0  0  0  0  0  0  0  0  0  0
  -21.3320   -6.9240   23.7640 C   0  0  0  0  0  3  0  0  0  0  0  0
  -21.0550   -6.2770   24.9850 C   0  0  0  0  0  3  0  0  0  0  0  0
  -21.3920   -4.9220   25.1560 C   0  0  0  0  0  0  0  0  0  0  0  0
  -22.0100   -4.2110   24.1120 C   0  0  0  0  0  3  0  0  0  0  0  0
  -22.2900   -4.8560   22.8940 C   0  0  0  0  0  0  0  0  0  0  0  0
  -22.8670   -4.1620   21.8840 F   0  0  0  0  0  0  0  0  0  0  0  0
  -21.1200   -4.2970   26.3260 F   0  0  0  0  0  0  0  0  0  0  0  0
  -23.1440  -13.4400   21.0050 C   0  0  0  0  0  0  0  0  0  0  0  0
  -22.4720  -12.7750   21.9360 N   0  0  0  0  0  0  0  0  0  0  0  0
  -22.6600  -14.4280   20.4540 O   0  0  0  0  0  0  0  0  0  0  0  0
  -22.8750  -11.9720   22.3970 H   0  0  0  0  0  0  0  0  0  0  0  0
  -21.5410  -13.0700   22.1890 H   0  0  0  0  0  0  0  0  0  0  0  0
  -25.7090  -15.1260   20.0400 N   0  0  0  0  0  4  0  0  0  0  0  0
  -24.9170  -15.7490   20.1400 H   0  0  0  0  0  0  0  0  0  0  0  0
  -26.4890  -15.5400   19.5570 H   0  0  0  0  0  0  0  0  0  0  0  0
  2  5  1  0
  2  1  1  0
  4  1  1  0
  4  3  1  0
  4 50  1  0
  5  3  1  0
  5  7  1  0
  5  6  1  6
  8  7  2  0
  8  9  1  0
 10 21  2  0
 11  9  1  0
 11 16  1  0
 12 20  1  0
 12 22  1  0
 13 19  1  0
 13 15  1  0
 14 20  1  0
 15 14  1  0
 16 15  2  0
 17 18  1  0
 17 11  2  0
 18 13  2  0
 19 12  1  0
 20 10  1  0
 22 24  2  0
 23 22  1  0
 25 23  1  0
 26 35  2  0
 26 31  1  0
 27 23  1  0
 27 31  1  0
 28 27  1  0
 29 30  1  0
 29 28  1  0
 30 26  1  0
 31 32  2  0
 32 33  1  0
 34 33  2  0
 35 34  1  0
 36 10  1  0
 36 37  1  0
 36 46  1  0
 37 40  1  0
 38 42  1  0
 38 37  1  0
 39 38  2  0
 42 41  1  0
 44 42  1  0
 44 45  1  0
 44 43  1  0
 46 49  1  1
 46 47  1  0
 48 46  1  0
 50 53  1  0
 51 54  2  0
 52 51  1  0
 53 51  1  0
 55 53  1  0
 56 58  1  0
 56 50  1  0
 56 61  1  0
 57 58  1  0
 59 58  1  0
 60 58  1  0
 62 61  1  0
 63 68  1  0
 64 65  1  0
 64 63  1  0
 66 65  1  0
 66 73  1  0
 66 67  1  0
 68 62  1  0
 68 67  1  0
 69 62  2  0
 70 71  2  0
 71 90  1  0
 72 71  1  0
 72 75  1  0
 73 70  1  0
 73 74  1  0
 74 72  2  0
 75 76  1  0
 76 77  2  0
 78 81  1  0
 78 77  1  0
 79 78  2  0
 80 79  1  0
 80 75  2  0
 81 82  1  0
 82 87  2  0
 82 83  1  0
 83 84  2  0
 84 85  1  0
 85 89  1  0
 86 85  2  0
 87 86  1  0
 88 87  1  0
 90 91  1  0
 91 94  1  0
 91 93  1  0
 92 90  2  0
 95 96  1  0
 95 70  1  0
 95 52  1  0
 97 95  1  0
M  ISO  4   8 101   9 101  61 100  62 100
M  END
>  <TORSDO>  (66) 
F 23

>  <SCORE>  (66) 
-9.955

>  <name>  (66) 
67

>  <ligand_id>  (66) 
67

>  <original_smiles>  (66) 
[H]c1c([H])c([H])c2c(c1[H])C([H])([H])C([H])([H])C([H])([H])C2([H])N([H])C(=O)C1([H])N(C(=O)C([H])(N([H])C(=O)C([H])(N([H])C([H])([H])[H])C([H])([H])[H])C(C([H])([H])[H])(C([H])([H])[H])C([H])([H])[H])C([H])([H])c2c([H])c(OC([H])([H])C([H])([H])[N+]3([H])C([H])([H])C([H])([H])C([H])(C([H])(N([H])C(=O)C([H])([H])[H])C([H])(C([H])([H])C(=O)N4C([H])([H])C([H])([H])C([H])([H])C([H])(n5nc(-c6c([H])c([H])c(Oc7c([H])c([H])c(F)c([H])c7F)c([H])c6[H])c(C(=O)N([H])[H])c5N([H])[H])C4([H])[H])[N+]([H])([H])C([H])([H])[H])C3([H])[H])c([H])c([H])c2C1([H])[H]

>  <smiles>  (66) 
[H]c1c([H])c([H])c2c(c1[H])C([H])([H])C([H])([H])C([H])([H])C2([H])N([H])C(=O)C1([H])N(C(=O)C([H])(N([H])C(=O)C([H])(N([H])C([H])([H])[H])C([H])([H])[H])C(C([H])([H])[H])(C([H])([H])[H])C([H])([H])[H])C([H])([H])c2c([H])c(OC([H])([H])C([H])([H])[N+]3([H])C([H])([H])C([H])([H])C([H])(C([H])(N([H])C(=O)C([H])([H])[H])C([H])(C([H])([H])C(=O)N4C([H])([H])C([H])([H])C([H])([H])C([H])(n5nc(-c6c([H])c([H])c(Oc7c([H])c([H])c(F)c([H])c7F)c([H])c6[H])c(C(=O)N([H])[H])c5N([H])[H])C4([H])[H])[N+]([H])([H])C([H])([H])[H])C3([H])[H])c([H])c([H])c2C1([H])[H]

$$$$
68:0:0
     RDKit          3D

 86 91  0  0  1  0  0  0  0  0999 V2000
  -27.4200  -22.6430   22.0300 C   0  0  0  0  0  2  0  0  0  0  0  0
  -28.3220  -21.4220   21.7390 C   0  0  0  0  0  2  0  0  0  0  0  0
  -26.8920  -23.2510   20.7160 C   0  0  0  0  0  2  0  0  0  0  0  0
  -28.6510  -21.4100   20.2430 C   0  0  0  0  0  1  0  0  0  0  0  0
  -28.1090  -23.4180   19.7970 C   0  0  0  0  0  1  0  0  0  0  0  0
  -29.6010  -18.0320   20.0600 C   0  0  0  0  0  0  0  0  0  0  0  0
  -29.5430  -19.6620   19.8270 C   0  0  0  0  0  3  0  0  0  0  0  0
  -30.3330  -16.3410   19.9450 C   0  0  0  0  0  0  0  0  0  0  0  0
  -30.5540  -13.6680   19.2600 C   0  0  0  0  0  2  0  0  0  0  0  0
  -29.6980  -13.0450   18.1050 C   0  0  0  0  0  2  0  0  0  0  0  0
  -28.3320  -12.5790   18.6170 C   0  0  0  0  0  2  0  0  0  0  0  0
  -27.7610  -13.6120   19.6070 C   0  0  0  0  0  3  0  0  0  0  0  0
  -28.7690  -14.1550   20.6620 C   0  0  0  0  0  2  0  0  0  0  0  0
  -29.8670  -14.8930   19.9600 N   0  0  0  0  0  0  0  0  0  0  0  0
  -31.5620  -16.1570   19.7420 O   0  0  0  0  0  0  0  0  0  0  0  0
  -25.4440  -14.0660   20.5050 C   0  0  0  0  0  0  0  0  0  0  0  0
  -24.4090  -13.2640   20.8880 C   0  0  0  0  0  0  0  0  0  0  0  0
  -24.8900  -11.9200   20.7920 C   0  0  0  0  0  0  0  0  0  0  0  0
  -26.4840  -13.2180   20.1830 N   0  0  0  0  0  0  0  0  0  0  0  0
  -26.1690  -11.9130   20.4180 N   0  0  0  0  0  0  0  0  0  0  0  0
  -24.1750  -10.6460   20.9700 C   0  0  0  0  0  0  0  0  0  0  0  0
  -24.5830   -9.6960   21.9310 C   0  0  0  0  0  3  0  0  0  0  0  0
  -23.8610   -8.4950   22.1020 C   0  0  0  0  0  3  0  0  0  0  0  0
  -22.7160   -8.2340   21.3120 C   0  0  0  0  0  0  0  0  0  0  0  0
  -22.3260   -9.1740   20.3420 C   0  0  0  0  0  3  0  0  0  0  0  0
  -23.0490  -10.3660   20.1690 C   0  0  0  0  0  3  0  0  0  0  0  0
  -21.9700   -7.0830   21.3890 O   0  0  0  0  0  0  0  0  0  0  0  0
  -21.8040   -6.4100   22.5730 C   0  0  0  0  0  0  0  0  0  0  0  0
  -21.2000   -7.0160   23.6970 C   0  0  0  0  0  3  0  0  0  0  0  0
  -20.9860   -6.2670   24.8710 C   0  0  0  0  0  3  0  0  0  0  0  0
  -21.3660   -4.9110   24.9220 C   0  0  0  0  0  0  0  0  0  0  0  0
  -21.9630   -4.3050   23.8030 C   0  0  0  0  0  3  0  0  0  0  0  0
  -22.1780   -5.0530   22.6310 C   0  0  0  0  0  0  0  0  0  0  0  0
  -22.7340   -4.4570   21.5490 F   0  0  0  0  0  0  0  0  0  0  0  0
  -21.1560   -4.1900   26.0470 F   0  0  0  0  0  0  0  0  0  0  0  0
  -23.0220  -13.7220   21.2270 C   0  0  0  0  0  0  0  0  0  0  0  0
  -22.3370  -13.0030   22.1050 N   0  0  0  0  0  0  0  0  0  0  0  0
  -22.5590  -14.7570   20.7480 O   0  0  0  0  0  0  0  0  0  0  0  0
  -22.7290  -12.1670   22.5140 H   0  0  0  0  0  0  0  0  0  0  0  0
  -21.4050  -13.2900   22.3740 H   0  0  0  0  0  0  0  0  0  0  0  0
  -25.5860  -15.4440   20.3680 N   0  0  0  0  0  0  0  0  0  0  0  0
  -24.8210  -16.0870   20.5430 H   0  0  0  0  0  0  0  0  0  0  0  0
  -26.4270  -15.9060   20.0450 H   0  0  0  0  0  0  0  0  0  0  0  0
  -30.4980  -20.1620   19.0190 O   0  0  0  0  0  0  0  0  0  0  0  0
  -31.0480  -19.4500   18.7170 H   0  0  0  0  0  0  0  0  0  0  0  0
  -28.1650  -25.3170   20.0060 O   0  0  0  0  0  1  0  0  0  0  0  0
  -24.6200  -31.8730   23.0210 C   0  0  0  0  0  0  0  0  0  0  0  0
  -27.2110  -26.6480   19.9580 C   0  0  0  0  0  0  0  0  0  0  0  0
  -23.4570  -30.4650   21.3790 C   0  0  0  0  0  3  0  0  0  0  0  0
  -24.9280  -28.8130   19.9450 C   0  0  0  0  0  0  0  0  0  0  0  0
  -26.0450  -30.5810   21.2700 C   0  0  0  0  0  2  0  0  0  0  0  0
  -26.1280  -29.1300   20.5910 C   0  0  0  0  0  0  0  0  0  0  0  0
  -27.2350  -28.0830   20.5620 C   0  0  0  0  0  3  0  0  0  0  0  0
  -25.9700  -26.6200   19.2470 C   0  0  0  0  0  3  0  0  0  0  0  0
  -24.9040  -27.5910   19.2470 C   0  0  0  0  0  3  0  0  0  0  0  0
  -23.7130  -29.7740   20.0040 C   0  0  0  0  0  2  0  0  0  0  0  0
  -24.7350  -31.0130   21.9420 N   0  0  0  0  0  0  0  0  0  0  0  0
  -23.5180  -32.1570   23.5280 O   0  0  0  0  0  0  0  0  0  0  0  0
  -22.7450  -29.4830   22.3520 C   0  0  0  0  0  0  0  0  0  0  0  0
  -21.4140  -29.3060   22.2270 N   0  0  0  0  0  0  0  0  0  0  0  0
  -23.4060  -28.8780   23.1970 O   0  0  0  0  0  0  0  0  0  0  0  0
  -20.9230  -29.8490   21.5300 H   0  0  0  0  0  0  0  0  0  0  0  0
  -18.0570  -27.9840   22.7300 C   0  0  0  0  0  0  0  0  0  0  0  0
  -20.6090  -28.3430   22.9930 C   0  0  0  0  0  3  0  0  0  0  0  0
  -20.7560  -26.9140   22.4180 C   0  0  0  0  0  2  0  0  0  0  0  0
  -19.6680  -26.5580   21.3980 C   0  0  0  0  0  2  0  0  0  0  0  0
  -18.2830  -26.6490   22.0410 C   0  0  0  0  0  2  0  0  0  0  0  0
  -19.1490  -28.7880   23.1600 C   0  0  0  0  0  0  0  0  0  0  0  0
  -18.8790  -30.0310   23.7720 C   0  0  0  0  0  3  0  0  0  0  0  0
  -17.5540  -30.4760   23.9500 C   0  0  0  0  0  3  0  0  0  0  0  0
  -16.4800  -29.6720   23.5300 C   0  0  0  0  0  3  0  0  0  0  0  0
  -16.7330  -28.4270   22.9260 C   0  0  0  0  0  3  0  0  0  0  0  0
  -25.8630  -32.5550   23.6730 C   0  0  0  0  0  3  0  0  0  0  0  0
  -25.5060  -33.9490   24.0200 N   0  0  0  0  0  0  0  0  0  0  0  0
  -25.8190  -35.0350   23.2990 C   0  0  0  0  0  0  0  0  0  0  0  0
  -26.4890  -34.9710   22.2660 O   0  0  0  0  0  0  0  0  0  0  0  0
  -24.9050  -34.0700   24.8210 H   0  0  0  0  0  0  0  0  0  0  0  0
  -24.0630  -36.8250   23.0130 C   0  0  0  0  0  1  0  0  0  0  0  0
  -25.3170  -36.4090   23.8000 C   0  0  0  0  0  3  0  0  0  0  0  0
  -27.4380  -37.3210   24.6450 C   0  0  0  0  0  1  0  0  0  0  0  0
  -26.3320  -37.4830   23.7050 N   0  0  0  0  0  0  0  0  0  0  0  0
  -25.9090  -38.3920   23.8690 H   0  0  0  0  0  0  0  0  0  0  0  0
  -26.3660  -31.8060   24.9700 C   0  0  1  0  0  0  0  0  0  0  0  0
  -25.2570  -31.5550   26.0200 C   0  0  0  0  0  1  0  0  0  0  0  0
  -26.9870  -30.4370   24.6180 C   0  0  0  0  0  1  0  0  0  0  0  0
  -27.4860  -32.6310   25.6480 C   0  0  0  0  0  1  0  0  0  0  0  0
  2  1  1  0
  3  1  1  0
  4  2  1  0
  5  3  1  0
  7  6  2  0
  8 14  1  0
  8  6  2  0
  9 14  1  0
 10 11  1  0
 10  9  1  0
 12 11  1  0
 12 19  1  0
 12 13  1  0
 14 13  1  0
 15  8  2  0
 16 17  2  0
 17 36  1  0
 18 17  1  0
 18 21  1  0
 19 20  1  0
 19 16  1  0
 20 18  2  0
 21 22  1  0
 22 23  2  0
 24 27  1  0
 24 23  1  0
 25 24  2  0
 26 25  1  0
 26 21  2  0
 27 28  1  0
 28 33  2  0
 28 29  1  0
 29 30  2  0
 30 31  1  0
 31 35  1  0
 32 31  2  0
 33 32  1  0
 34 33  1  0
 36 37  1  0
 37 40  1  0
 37 39  1  0
 38 36  2  0
 41 16  1  0
 41 42  1  0
 43 41  1  0
 44  7  1  0
 45 44  1  0
 47 58  2  0
 48 46  1  0
 48 53  1  0
 49 57  1  0
 49 59  1  0
 50 56  1  0
 50 52  1  0
 51 57  1  0
 52 51  1  0
 53 52  2  0
 54 55  1  0
 54 48  2  0
 55 50  2  0
 56 49  1  0
 57 47  1  0
 59 61  2  0
 60 59  1  0
 62 60  1  0
 63 72  2  0
 63 68  1  0
 64 60  1  0
 64 68  1  0
 65 64  1  0
 66 67  1  0
 66 65  1  0
 67 63  1  0
 68 69  2  0
 69 70  1  0
 71 70  2  0
 72 71  1  0
 73 47  1  0
 73 74  1  0
 73 83  1  0
 74 77  1  0
 75 79  1  0
 75 74  1  0
 76 75  2  0
 79 78  1  0
 81 79  1  0
 81 82  1  0
 81 80  1  0
 83 86  1  1
 83 84  1  0
 85 83  1  0
M  ISO  4   5 101   6 100   8 100  46 101
M  END
>  <TORSDO>  (67) 
F 18

>  <SCORE>  (67) 
-15.449

>  <name>  (67) 
68

>  <ligand_id>  (67) 
68

>  <original_smiles>  (67) 
[H]OC(=C([H])C(=O)N1C([H])([H])C([H])([H])C([H])([H])C([H])(n2nc(-c3c([H])c([H])c(Oc4c([H])c([H])c(F)c([H])c4F)c([H])c3[H])c(C(=O)N([H])[H])c2N([H])[H])C1([H])[H])C1([H])C([H])([H])C([H])([H])C([H])([H])C1([H])Oc1c([H])c([H])c2c(c1[H])C([H])([H])N(C(=O)C([H])(N([H])C(=O)C([H])(N([H])C([H])([H])[H])C([H])([H])[H])C(C([H])([H])[H])(C([H])([H])[H])C([H])([H])[H])C([H])(C(=O)N([H])C1([H])c3c([H])c([H])c([H])c([H])c3C([H])([H])C([H])([H])C1([H])[H])C2([H])[H]

>  <smiles>  (67) 
[H]OC(=C([H])C(=O)N1C([H])([H])C([H])([H])C([H])([H])C([H])(n2nc(-c3c([H])c([H])c(Oc4c([H])c([H])c(F)c([H])c4F)c([H])c3[H])c(C(=O)N([H])[H])c2N([H])[H])C1([H])[H])C1([H])C([H])([H])C([H])([H])C([H])([H])C1([H])Oc1c([H])c([H])c2c(c1[H])C([H])([H])N(C(=O)C([H])(N([H])C(=O)C([H])(N([H])C([H])([H])[H])C([H])([H])[H])C(C([H])([H])[H])(C([H])([H])[H])C([H])([H])[H])C([H])(C(=O)N([H])C1([H])c3c([H])c([H])c([H])c([H])c3C([H])([H])C([H])([H])C1([H])[H])C2([H])[H]

$$$$
69:0:0
     RDKit          3D

 83 88  0  0  1  0  0  0  0  0999 V2000
  -28.3170  -23.3270   19.9290 C   0  0  0  0  0 15  0  0  0  0  0  0
  -29.7520  -20.5380   20.9540 C   0  0  0  0  0  2  0  0  0  0  0  0
  -28.5480  -21.2930   20.3530 C   0  0  0  0  0  1  0  0  0  0  0  0
  -29.3610  -19.4370   19.9410 C   0  0  0  0  0  2  0  0  0  0  0  0
  -30.1240  -16.1020   20.0990 C   0  0  0  0  0  0  0  0  0  0  0  0
  -30.3220  -13.4570   19.3220 C   0  0  0  0  0  2  0  0  0  0  0  0
  -29.4560  -12.8890   18.1470 C   0  0  0  0  0  2  0  0  0  0  0  0
  -28.0740  -12.4450   18.6360 C   0  0  0  0  0  2  0  0  0  0  0  0
  -27.5260  -13.4570   19.6610 C   0  0  0  0  0  3  0  0  0  0  0  0
  -28.5460  -13.9210   20.7410 C   0  0  0  0  0  2  0  0  0  0  0  0
  -29.6510  -14.6650   20.0560 N   0  0  0  0  0  0  0  0  0  0  0  0
  -31.3470  -15.9840   19.8450 O   0  0  0  0  0  0  0  0  0  0  0  0
  -29.3750  -17.5650   20.2650 N   0  0  0  0  0  0  0  0  0  0  0  0
  -28.4370  -17.3230   20.5590 H   0  0  0  0  0  0  0  0  0  0  0  0
  -25.1830  -13.9320   20.4800 C   0  0  0  0  0  0  0  0  0  0  0  0
  -24.1400  -13.1390   20.8610 C   0  0  0  0  0  0  0  0  0  0  0  0
  -24.6240  -11.7940   20.8110 C   0  0  0  0  0  0  0  0  0  0  0  0
  -26.2320  -13.0780   20.2100 N   0  0  0  0  0  0  0  0  0  0  0  0
  -25.9140  -11.7810   20.4720 N   0  0  0  0  0  0  0  0  0  0  0  0
  -23.9080  -10.5250   21.0050 C   0  0  0  0  0  0  0  0  0  0  0  0
  -24.3560   -9.5540   21.9290 C   0  0  0  0  0  3  0  0  0  0  0  0
  -23.6320   -8.3560   22.1180 C   0  0  0  0  0  3  0  0  0  0  0  0
  -22.4470   -8.1190   21.3840 C   0  0  0  0  0  0  0  0  0  0  0  0
  -22.0160   -9.0770   20.4490 C   0  0  0  0  0  3  0  0  0  0  0  0
  -22.7410  -10.2670   20.2580 C   0  0  0  0  0  3  0  0  0  0  0  0
  -21.6940   -6.9720   21.4810 O   0  0  0  0  0  0  0  0  0  0  0  0
  -21.6630   -6.2270   22.6320 C   0  0  0  0  0  0  0  0  0  0  0  0
  -21.2350   -6.7720   23.8620 C   0  0  0  0  0  3  0  0  0  0  0  0
  -21.1520   -5.9520   25.0050 C   0  0  0  0  0  3  0  0  0  0  0  0
  -21.4880   -4.5880   24.9200 C   0  0  0  0  0  0  0  0  0  0  0  0
  -21.9100   -4.0410   23.6950 C   0  0  0  0  0  3  0  0  0  0  0  0
  -21.9940   -4.8580   22.5540 C   0  0  0  0  0  0  0  0  0  0  0  0
  -22.3800   -4.3220   21.3710 F   0  0  0  0  0  0  0  0  0  0  0  0
  -21.4010   -3.7980   26.0160 F   0  0  0  0  0  0  0  0  0  0  0  0
  -22.7440  -13.6020   21.1520 C   0  0  0  0  0  0  0  0  0  0  0  0
  -22.0360  -12.9010   22.0300 N   0  0  0  0  0  0  0  0  0  0  0  0
  -22.2930  -14.6240   20.6380 O   0  0  0  0  0  0  0  0  0  0  0  0
  -22.4170  -12.0750   22.4670 H   0  0  0  0  0  0  0  0  0  0  0  0
  -21.1010  -13.1950   22.2700 H   0  0  0  0  0  0  0  0  0  0  0  0
  -25.3220  -15.3060   20.3060 N   0  0  0  0  0  0  0  0  0  0  0  0
  -24.5450  -15.9470   20.4320 H   0  0  0  0  0  0  0  0  0  0  0  0
  -26.1500  -15.7530   19.9340 H   0  0  0  0  0  0  0  0  0  0  0  0
  -28.1270  -25.1680   20.3850 O   0  0  0  0  0  1  0  0  0  0  0  0
  -24.6630  -31.8230   23.1810 C   0  0  0  0  0  0  0  0  0  0  0  0
  -27.1910  -26.5010   20.2510 C   0  0  0  0  0  0  0  0  0  0  0  0
  -23.4890  -30.4020   21.5570 C   0  0  0  0  0  3  0  0  0  0  0  0
  -24.9430  -28.6970   20.1670 C   0  0  0  0  0  0  0  0  0  0  0  0
  -26.0770  -30.4720   21.4680 C   0  0  0  0  0  2  0  0  0  0  0  0
  -26.1390  -29.0070   20.8220 C   0  0  0  0  0  0  0  0  0  0  0  0
  -27.2280  -27.9430   20.8310 C   0  0  0  0  0  3  0  0  0  0  0  0
  -25.9620  -26.4740   19.5220 C   0  0  0  0  0  3  0  0  0  0  0  0
  -24.9090  -27.4600   19.4910 C   0  0  0  0  0  3  0  0  0  0  0  0
  -23.7430  -29.6740   20.1990 C   0  0  0  0  0  2  0  0  0  0  0  0
  -24.7710  -30.9400   22.1200 N   0  0  0  0  0  0  0  0  0  0  0  0
  -23.5640  -32.1350   23.6740 O   0  0  0  0  0  0  0  0  0  0  0  0
  -22.7510  -29.4540   22.5430 C   0  0  0  0  0  0  0  0  0  0  0  0
  -21.4150  -29.3140   22.4240 N   0  0  0  0  0  0  0  0  0  0  0  0
  -23.3960  -28.8400   23.3960 O   0  0  0  0  0  0  0  0  0  0  0  0
  -20.9390  -29.8590   21.7180 H   0  0  0  0  0  0  0  0  0  0  0  0
  -18.0240  -28.1010   22.9570 C   0  0  0  0  0  0  0  0  0  0  0  0
  -20.5850  -28.3860   23.2060 C   0  0  0  0  0  3  0  0  0  0  0  0
  -20.6870  -26.9470   22.6490 C   0  0  0  0  0  2  0  0  0  0  0  0
  -19.5860  -26.6120   21.6380 C   0  0  0  0  0  2  0  0  0  0  0  0
  -18.2040  -26.7520   22.2840 C   0  0  0  0  0  2  0  0  0  0  0  0
  -19.1390  -28.8760   23.3750 C   0  0  0  0  0  0  0  0  0  0  0  0
  -18.9110  -30.1350   23.9720 C   0  0  0  0  0  3  0  0  0  0  0  0
  -17.6010  -30.6210   24.1500 C   0  0  0  0  0  3  0  0  0  0  0  0
  -16.5010  -29.8470   23.7440 C   0  0  0  0  0  3  0  0  0  0  0  0
  -16.7130  -28.5880   23.1530 C   0  0  0  0  0  3  0  0  0  0  0  0
  -25.9130  -32.4950   23.8270 C   0  0  0  0  0  3  0  0  0  0  0  0
  -25.5770  -33.8970   24.1560 N   0  0  0  0  0  0  0  0  0  0  0  0
  -25.8970  -34.9690   23.4170 C   0  0  0  0  0  0  0  0  0  0  0  0
  -26.5560  -34.8810   22.3790 O   0  0  0  0  0  0  0  0  0  0  0  0
  -24.9850  -34.0370   24.9610 H   0  0  0  0  0  0  0  0  0  0  0  0
  -24.1500  -36.7670   23.1310 C   0  0  0  0  0  1  0  0  0  0  0  0
  -25.4170  -36.3560   23.9000 C   0  0  0  0  0  3  0  0  0  0  0  0
  -27.5620  -37.2660   24.6810 C   0  0  0  0  0  1  0  0  0  0  0  0
  -26.4390  -37.4190   23.7610 N   0  0  0  0  0  0  0  0  0  0  0  0
  -26.0280  -38.3360   23.9100 H   0  0  0  0  0  0  0  0  0  0  0  0
  -26.4050  -31.7530   25.1340 C   0  0  1  0  0  0  0  0  0  0  0  0
  -25.2910  -31.5350   26.1860 C   0  0  0  0  0  1  0  0  0  0  0  0
  -27.0020  -30.3690   24.8000 C   0  0  0  0  0  1  0  0  0  0  0  0
  -27.5390  -32.5670   25.8020 C   0  0  0  0  0  1  0  0  0  0  0  0
  3  2  1  0
  4 13  1  0
  4  2  1  0
  5 13  1  0
  6 11  1  0
  7  8  1  0
  7  6  1  0
  9  8  1  0
  9 18  1  0
  9 10  1  0
 11  5  1  0
 11 10  1  0
 12  5  2  0
 13 14  1  0
 15 16  2  0
 16 35  1  0
 17 16  1  0
 17 20  1  0
 18 19  1  0
 18 15  1  0
 19 17  2  0
 20 21  1  0
 21 22  2  0
 23 26  1  0
 23 22  1  0
 24 23  2  0
 25 24  1  0
 25 20  2  0
 26 27  1  0
 27 28  1  0
 28 29  2  0
 30 29  1  0
 30 34  1  0
 31 30  2  0
 32 27  2  0
 32 31  1  0
 33 32  1  0
 35 36  1  0
 36 39  1  0
 36 38  1  0
 37 35  2  0
 40 41  1  0
 40 15  1  0
 42 40  1  0
 44 55  2  0
 45 43  1  0
 45 50  1  0
 46 54  1  0
 46 56  1  0
 47 53  1  0
 47 49  1  0
 48 54  1  0
 49 50  2  0
 49 48  1  0
 51 45  2  0
 52 51  1  0
 52 47  2  0
 53 46  1  0
 54 44  1  0
 56 58  2  0
 57 56  1  0
 59 57  1  0
 60 69  2  0
 60 65  1  0
 61 57  1  0
 61 65  1  0
 62 61  1  0
 63 64  1  0
 63 62  1  0
 64 60  1  0
 65 66  2  0
 66 67  1  0
 68 67  2  0
 69 68  1  0
 70 44  1  0
 70 71  1  0
 70 80  1  0
 71 74  1  0
 72 76  1  0
 72 71  1  0
 73 72  2  0
 76 75  1  0
 78 76  1  0
 78 79  1  0
 78 77  1  0
 80 83  1  1
 80 81  1  0
 82 80  1  0
M  ISO  4   1 101   5 100  13 100  43 101
M  END
>  <TORSDO>  (68) 
F 17

>  <SCORE>  (68) 
-16.259

>  <name>  (68) 
69

>  <ligand_id>  (68) 
69

>  <original_smiles>  (68) 
[H]c1c([H])c([H])c2c(c1[H])C([H])([H])C([H])([H])C([H])([H])C2([H])N([H])C(=O)C1([H])N(C(=O)C([H])(N([H])C(=O)C([H])(N([H])C([H])([H])[H])C([H])([H])[H])C(C([H])([H])[H])(C([H])([H])[H])C([H])([H])[H])C([H])([H])c2c([H])c(OC([H])([H])C3([H])C([H])([H])C3([H])N([H])C(=O)N3C([H])([H])C([H])([H])C([H])([H])C([H])(n4nc(-c5c([H])c([H])c(Oc6c([H])c([H])c(F)c([H])c6F)c([H])c5[H])c(C(=O)N([H])[H])c4N([H])[H])C3([H])[H])c([H])c([H])c2C1([H])[H]

>  <smiles>  (68) 
[H]c1c([H])c([H])c2c(c1[H])C([H])([H])C([H])([H])C([H])([H])C2([H])N([H])C(=O)C1([H])N(C(=O)C([H])(N([H])C(=O)C([H])(N([H])C([H])([H])[H])C([H])([H])[H])C(C([H])([H])[H])(C([H])([H])[H])C([H])([H])[H])C([H])([H])c2c([H])c(OC([H])([H])C3([H])C([H])([H])C3([H])N([H])C(=O)N3C([H])([H])C([H])([H])C([H])([H])C([H])(n4nc(-c5c([H])c([H])c(Oc6c([H])c([H])c(F)c([H])c6F)c([H])c5[H])c(C(=O)N([H])[H])c4N([H])[H])C3([H])[H])c([H])c([H])c2C1([H])[H]

$$$$
70:0:0
     RDKit          3D

 91 99  0  0  1  0  0  0  0  0999 V2000
  -28.9930  -23.4760   20.4750 C   0  0  0  0  0  3  0  0  0  0  0  0
  -29.6770  -23.7430   21.7610 N   0  0  0  0  0  4  0  0  0  0  0  0
  -29.0380  -23.6990   22.5370 H   0  0  0  0  0  0  0  0  0  0  0  0
  -30.0850  -24.6630   21.7530 H   0  0  0  0  0  0  0  0  0  0  0  0
  -30.4200  -23.0840   21.9210 H   0  0  0  0  0  0  0  0  0  0  0  0
  -28.5300  -21.8580   20.4170 C   0  0  0  0  0  2  0  0  0  0  0  0
  -29.5510  -20.5690   20.4520 C   0  0  0  0  0  0  0  0  0  0  0  0
  -29.1610  -19.2110   20.4890 N   0  0  0  0  0  0  0  0  0  0  0  0
  -30.7540  -20.8360   20.4210 O   0  0  0  0  0  0  0  0  0  0  0  0
  -28.1610  -19.0740   20.5510 H   0  0  0  0  0  0  0  0  0  0  0  0
  -29.3890  -16.9660   19.3210 C   0  0  0  0  0  2  0  0  0  0  0  0
  -29.6100  -16.3010   20.6520 C   0  0  0  0  0  3  0  0  0  0  0  0
  -29.9810  -17.9040   20.3440 C   0  0  0  0  0  3  0  0  0  0  0  0
  -30.5010  -14.9510   20.4980 C   0  0  0  0  0  0  0  0  0  0  0  0
  -30.4120  -12.6130   19.5520 C   0  0  0  0  0  2  0  0  0  0  0  0
  -29.5020  -12.6130   18.3020 C   0  0  0  0  0  2  0  0  0  0  0  0
  -28.0260  -12.4120   18.6970 C   0  0  0  0  0  2  0  0  0  0  0  0
  -27.6030  -13.3220   19.8810 C   0  0  0  0  0  3  0  0  0  0  0  0
  -28.6340  -13.2900   21.0280 C   0  0  0  0  0  2  0  0  0  0  0  0
  -29.9330  -13.6830   20.4680 N   0  0  0  0  0  0  0  0  0  0  0  0
  -31.7020  -15.0310   20.2110 O   0  0  0  0  0  0  0  0  0  0  0  0
  -25.2030  -13.9000   20.5650 C   0  0  0  0  0  0  0  0  0  0  0  0
  -24.1320  -13.1250   20.9140 C   0  0  0  0  0  0  0  0  0  0  0  0
  -24.6000  -11.7740   20.8970 C   0  0  0  0  0  0  0  0  0  0  0  0
  -26.2520  -13.0250   20.3470 N   0  0  0  0  0  0  0  0  0  0  0  0
  -25.8970  -11.7410   20.6130 N   0  0  0  0  0  0  0  0  0  0  0  0
  -23.8720  -10.5100   21.0740 C   0  0  0  0  0  0  0  0  0  0  0  0
  -24.2890   -9.5410   22.0130 C   0  0  0  0  0  3  0  0  0  0  0  0
  -23.5610   -8.3440   22.1770 C   0  0  0  0  0  3  0  0  0  0  0  0
  -22.4010   -8.1060   21.4030 C   0  0  0  0  0  0  0  0  0  0  0  0
  -22.0020   -9.0640   20.4530 C   0  0  0  0  0  3  0  0  0  0  0  0
  -22.7320  -10.2530   20.2870 C   0  0  0  0  0  3  0  0  0  0  0  0
  -21.6450   -6.9610   21.4760 O   0  0  0  0  0  0  0  0  0  0  0  0
  -21.5790   -6.2140   22.6250 C   0  0  0  0  0  0  0  0  0  0  0  0
  -21.1190   -6.7600   23.8430 C   0  0  0  0  0  3  0  0  0  0  0  0
  -21.0010   -5.9390   24.9820 C   0  0  0  0  0  3  0  0  0  0  0  0
  -21.3350   -4.5740   24.9050 C   0  0  0  0  0  0  0  0  0  0  0  0
  -21.7890   -4.0270   23.6920 C   0  0  0  0  0  3  0  0  0  0  0  0
  -21.9080   -4.8450   22.5550 C   0  0  0  0  0  0  0  0  0  0  0  0
  -22.3250   -4.3080   21.3830 F   0  0  0  0  0  0  0  0  0  0  0  0
  -21.2150   -3.7840   25.9980 F   0  0  0  0  0  0  0  0  0  0  0  0
  -22.7290  -13.5990   21.1550 C   0  0  0  0  0  0  0  0  0  0  0  0
  -21.9830  -12.9030   22.0060 N   0  0  0  0  0  0  0  0  0  0  0  0
  -22.2990  -14.6210   20.6220 O   0  0  0  0  0  0  0  0  0  0  0  0
  -22.3420  -12.0760   22.4600 H   0  0  0  0  0  0  0  0  0  0  0  0
  -21.0410  -13.2030   22.2100 H   0  0  0  0  0  0  0  0  0  0  0  0
  -25.3700  -15.2720   20.3910 N   0  0  0  0  0  0  0  0  0  0  0  0
  -24.6060  -15.9300   20.4900 H   0  0  0  0  0  0  0  0  0  0  0  0
  -26.2310  -15.7070   20.0830 H   0  0  0  0  0  0  0  0  0  0  0  0
  -27.9370  -24.7380   20.1860 C   0  0  0  0  0  2  0  0  0  0  0  0
  -28.2320  -26.2540   20.2970 O   0  0  0  0  0  0  0  0  0  0  0  0
  -24.6160  -31.8980   23.2950 C   0  0  0  0  0  0  0  0  0  0  0  0
  -27.1700  -27.2190   20.2330 C   0  0  0  0  0  0  0  0  0  0  0  0
  -23.4020  -30.5090   21.6590 C   0  0  0  0  0  3  0  0  0  0  0  0
  -24.8380  -28.9440   20.2190 C   0  0  0  0  0  0  0  0  0  0  0  0
  -25.9510  -30.7850   21.4720 C   0  0  0  0  0  2  0  0  0  0  0  0
  -26.0210  -29.3960   20.8180 C   0  0  0  0  0  0  0  0  0  0  0  0
  -27.1900  -28.5500   20.8070 C   0  0  0  0  0  3  0  0  0  0  0  0
  -25.9600  -26.8630   19.5940 C   0  0  0  0  0  3  0  0  0  0  0  0
  -24.8180  -27.6900   19.5930 C   0  0  0  0  0  3  0  0  0  0  0  0
  -23.6100  -29.8370   20.2770 C   0  0  0  0  0  2  0  0  0  0  0  0
  -24.6770  -31.0850   22.1980 N   0  0  0  0  0  0  0  0  0  0  0  0
  -23.5350  -32.1820   23.8320 O   0  0  0  0  0  0  0  0  0  0  0  0
  -22.7310  -29.4990   22.6220 C   0  0  0  0  0  0  0  0  0  0  0  0
  -21.4050  -29.3140   22.4910 N   0  0  0  0  0  0  0  0  0  0  0  0
  -23.4060  -28.8820   23.4510 O   0  0  0  0  0  0  0  0  0  0  0  0
  -20.9170  -29.8670   21.8020 H   0  0  0  0  0  0  0  0  0  0  0  0
  -18.0360  -28.0750   22.9710 C   0  0  0  0  0  0  0  0  0  0  0  0
  -20.5890  -28.3730   23.2620 C   0  0  0  0  0  3  0  0  0  0  0  0
  -20.7150  -26.9360   22.7040 C   0  0  0  0  0  2  0  0  0  0  0  0
  -19.6290  -26.5880   21.6810 C   0  0  0  0  0  2  0  0  0  0  0  0
  -18.2380  -26.7210   22.3100 C   0  0  0  0  0  2  0  0  0  0  0  0
  -19.1400  -28.8560   23.4030 C   0  0  0  0  0  0  0  0  0  0  0  0
  -18.8980  -30.1190   23.9830 C   0  0  0  0  0  3  0  0  0  0  0  0
  -17.5850  -30.6030   24.1360 C   0  0  0  0  0  3  0  0  0  0  0  0
  -16.4950  -29.8200   23.7190 C   0  0  0  0  0  3  0  0  0  0  0  0
  -16.7220  -28.5570   23.1410 C   0  0  0  0  0  3  0  0  0  0  0  0
  -25.9000  -32.5310   23.9140 C   0  0  0  0  0  3  0  0  0  0  0  0
  -25.5980  -33.9360   24.2300 N   0  0  0  0  0  0  0  0  0  0  0  0
  -25.9230  -34.9800   23.4570 C   0  0  0  0  0  0  0  0  0  0  0  0
  -26.5750  -34.8620   22.4160 O   0  0  0  0  0  0  0  0  0  0  0  0
  -25.0150  -34.1000   25.0380 H   0  0  0  0  0  0  0  0  0  0  0  0
  -24.1930  -36.7790   23.1250 C   0  0  0  0  0  1  0  0  0  0  0  0
  -25.4520  -36.3760   23.9110 C   0  0  0  0  0  3  0  0  0  0  0  0
  -27.6050  -37.2680   24.6840 C   0  0  0  0  0  1  0  0  0  0  0  0
  -26.4840  -37.4250   23.7600 N   0  0  0  0  0  0  0  0  0  0  0  0
  -26.0830  -38.3480   23.9020 H   0  0  0  0  0  0  0  0  0  0  0  0
  -26.4040  -31.7720   25.2030 C   0  0  1  0  0  0  0  0  0  0  0  0
  -25.3050  -31.5610   26.2720 C   0  0  0  0  0  1  0  0  0  0  0  0
  -26.9770  -30.3850   24.8350 C   0  0  0  0  0  1  0  0  0  0  0  0
  -27.5590  -32.5670   25.8590 C   0  0  0  0  0  1  0  0  0  0  0  0
  1 50  1  0
  1  2  1  0
  2  5  1  0
  2  3  1  0
  4  2  1  0
  6  7  1  0
  6  1  1  0
  7  8  1  0
  8 10  1  0
  9  7  2  0
 11 13  1  0
 11 12  1  0
 12 14  1  0
 13  8  1  0
 13 12  1  0
 15 20  1  0
 16 17  1  0
 16 15  1  0
 18 17  1  0
 18 25  1  0
 18 19  1  0
 20 14  1  0
 20 19  1  0
 21 14  2  0
 22 23  2  0
 23 42  1  0
 24 23  1  0
 24 27  1  0
 25 22  1  0
 25 26  1  0
 26 24  2  0
 27 28  1  0
 28 29  2  0
 30 33  1  0
 30 29  1  0
 31 30  2  0
 32 31  1  0
 32 27  2  0
 33 34  1  0
 34 35  1  0
 35 36  2  0
 37 36  1  0
 37 41  1  0
 38 37  2  0
 39 34  2  0
 39 38  1  0
 40 39  1  0
 42 43  1  0
 43 46  1  0
 43 45  1  0
 44 42  2  0
 47 48  1  0
 47 22  1  0
 49 47  1  0
 50 51  1  0
 52 63  2  0
 53 51  1  0
 53 58  1  0
 54 62  1  0
 54 64  1  0
 55 61  1  0
 55 57  1  0
 56 62  1  0
 57 56  1  0
 58 57  2  0
 59 53  2  0
 60 59  1  0
 60 55  2  0
 61 54  1  0
 62 52  1  0
 64 66  2  0
 65 64  1  0
 67 65  1  0
 68 77  2  0
 68 73  1  0
 69 65  1  0
 69 73  1  0
 70 69  1  0
 71 72  1  0
 71 70  1  0
 72 68  1  0
 73 74  2  0
 74 75  1  0
 76 75  2  0
 77 76  1  0
 78 52  1  0
 78 79  1  0
 78 88  1  0
 79 82  1  0
 80 84  1  0
 80 79  1  0
 81 80  2  0
 84 83  1  0
 86 87  1  0
 86 84  1  0
 86 85  1  0
 88 91  1  1
 88 89  1  0
 90 88  1  0
M  ISO  4  12 100  14 100  50 101  51 101
M  END
>  <TORSDO>  (69) 
F 21

>  <SCORE>  (69) 
-13.613

>  <name>  (69) 
70

>  <ligand_id>  (69) 
70

>  <original_smiles>  (69) 
[H]c1c([H])c([H])c2c(c1[H])C([H])([H])C([H])([H])C([H])([H])C2([H])N([H])C(=O)C1([H])N(C(=O)C([H])(N([H])C(=O)C([H])(N([H])C([H])([H])[H])C([H])([H])[H])C(C([H])([H])[H])(C([H])([H])[H])C([H])([H])[H])C([H])([H])c2c([H])c(OC([H])([H])C([H])(C([H])([H])C(=O)N([H])C3([H])C([H])([H])C3([H])C(=O)N3C([H])([H])C([H])([H])C([H])([H])C([H])(n4nc(-c5c([H])c([H])c(Oc6c([H])c([H])c(F)c([H])c6F)c([H])c5[H])c(C(=O)N([H])[H])c4N([H])[H])C3([H])[H])[N+]([H])([H])[H])c([H])c([H])c2C1([H])[H]

>  <smiles>  (69) 
[H]c1c([H])c([H])c2c(c1[H])C([H])([H])C([H])([H])C([H])([H])C2([H])N([H])C(=O)C1([H])N(C(=O)C([H])(N([H])C(=O)C([H])(N([H])C([H])([H])[H])C([H])([H])[H])C(C([H])([H])[H])(C([H])([H])[H])C([H])([H])[H])C([H])([H])c2c([H])c(OC([H])([H])C([H])(C([H])([H])C(=O)N([H])C3([H])C([H])([H])C3([H])C(=O)N3C([H])([H])C([H])([H])C([H])([H])C([H])(n4nc(-c5c([H])c([H])c(Oc6c([H])c([H])c(F)c([H])c6F)c([H])c5[H])c(C(=O)N([H])[H])c4N([H])[H])C3([H])[H])[N+]([H])([H])[H])c([H])c([H])c2C1([H])[H]

$$$$
71:0:0
     RDKit          3D

 88 96  0  0  1  0  0  0  0  0999 V2000
  -30.2240  -15.8200   20.3200 C   0  0  0  0  0  0  0  0  0  0  0  0
  -30.3710  -13.2530   19.4820 C   0  0  0  0  0  2  0  0  0  0  0  0
  -29.5100  -12.7570   18.2820 C   0  0  0  0  0  2  0  0  0  0  0  0
  -28.0950  -12.3690   18.7330 C   0  0  0  0  0  2  0  0  0  0  0  0
  -27.5450  -13.3800   19.7620 C   0  0  0  0  0  3  0  0  0  0  0  0
  -28.5570  -13.7650   20.8690 C   0  0  0  0  0  2  0  0  0  0  0  0
  -29.6960  -14.4430   20.1930 N   0  0  0  0  0  0  0  0  0  0  0  0
  -31.4720  -15.7200   20.2770 O   0  0  0  0  0  0  0  0  0  0  0  0
  -29.7390  -18.9920   20.5500 C   0  0  0  0  0  0  0  0  0  0  0  0
  -29.8090  -23.1770   20.9190 C   0  0  0  0  0  2  0  0  0  0  0  0
  -30.0750  -21.5950   21.2560 C   0  0  0  0  0  2  0  0  0  0  0  0
  -28.2330  -21.8600   19.9910 C   0  0  0  0  0  2  0  0  0  0  0  0
  -28.3290  -23.6360   20.6210 C   0  0  0  0  0  3  0  0  0  0  0  0
  -29.2610  -20.5540   20.4900 N   0  0  0  0  0  0  0  0  0  0  0  0
  -29.4480  -17.4430   20.2840 N   0  0  0  0  0  0  0  0  0  0  0  0
  -30.9650  -18.9920   21.1020 N   0  0  0  0  0  4  0  0  0  0  0  0
  -28.4650  -17.4150   20.0640 H   0  0  0  0  0  0  0  0  0  0  0  0
  -31.4080  -19.8580   21.3660 H   0  0  0  0  0  0  0  0  0  0  0  0
  -31.5050  -18.1440   21.2030 H   0  0  0  0  0  0  0  0  0  0  0  0
  -25.1760  -13.8830   20.5090 C   0  0  0  0  0  0  0  0  0  0  0  0
  -24.1200  -13.0920   20.8630 C   0  0  0  0  0  0  0  0  0  0  0  0
  -24.6070  -11.7490   20.8430 C   0  0  0  0  0  0  0  0  0  0  0  0
  -26.2320  -13.0230   20.2790 N   0  0  0  0  0  0  0  0  0  0  0  0
  -25.9050  -11.7310   20.5470 N   0  0  0  0  0  0  0  0  0  0  0  0
  -23.8880  -10.4800   21.0230 C   0  0  0  0  0  0  0  0  0  0  0  0
  -24.3040   -9.5230   21.9760 C   0  0  0  0  0  3  0  0  0  0  0  0
  -23.5800   -8.3220   22.1480 C   0  0  0  0  0  3  0  0  0  0  0  0
  -22.4260   -8.0700   21.3680 C   0  0  0  0  0  0  0  0  0  0  0  0
  -22.0300   -9.0150   20.4060 C   0  0  0  0  0  3  0  0  0  0  0  0
  -22.7540  -10.2070   20.2320 C   0  0  0  0  0  3  0  0  0  0  0  0
  -21.6770   -6.9210   21.4490 O   0  0  0  0  0  0  0  0  0  0  0  0
  -21.5930   -6.1970   22.6110 C   0  0  0  0  0  0  0  0  0  0  0  0
  -21.1170   -6.7670   23.8110 C   0  0  0  0  0  3  0  0  0  0  0  0
  -20.9800   -5.9680   24.9640 C   0  0  0  0  0  3  0  0  0  0  0  0
  -21.3090   -4.6000   24.9180 C   0  0  0  0  0  0  0  0  0  0  0  0
  -21.7790   -4.0300   23.7220 C   0  0  0  0  0  3  0  0  0  0  0  0
  -21.9160   -4.8260   22.5710 C   0  0  0  0  0  0  0  0  0  0  0  0
  -22.3490   -4.2650   21.4160 F   0  0  0  0  0  0  0  0  0  0  0  0
  -21.1720   -3.8320   26.0230 F   0  0  0  0  0  0  0  0  0  0  0  0
  -22.7140  -13.5560   21.1030 C   0  0  0  0  0  0  0  0  0  0  0  0
  -21.9790  -12.8650   21.9660 N   0  0  0  0  0  0  0  0  0  0  0  0
  -22.2760  -14.5700   20.5600 O   0  0  0  0  0  0  0  0  0  0  0  0
  -22.3480  -12.0470   22.4280 H   0  0  0  0  0  0  0  0  0  0  0  0
  -21.0350  -13.1580   22.1700 H   0  0  0  0  0  0  0  0  0  0  0  0
  -25.3200  -15.2550   20.3270 N   0  0  0  0  0  0  0  0  0  0  0  0
  -24.5370  -15.8940   20.4180 H   0  0  0  0  0  0  0  0  0  0  0  0
  -26.1560  -15.7000   19.9700 H   0  0  0  0  0  0  0  0  0  0  0  0
  -28.2130  -25.4280   20.3010 O   0  0  0  0  0  0  0  0  0  0  0  0
  -24.6680  -31.8630   23.1890 C   0  0  0  0  0  0  0  0  0  0  0  0
  -27.2090  -26.6500   20.3260 C   0  0  0  0  0  0  0  0  0  0  0  0
  -23.4970  -30.4410   21.5620 C   0  0  0  0  0  3  0  0  0  0  0  0
  -24.9540  -28.7460   20.2070 C   0  0  0  0  0  0  0  0  0  0  0  0
  -26.0820  -30.5500   21.4760 C   0  0  0  0  0  2  0  0  0  0  0  0
  -26.1480  -29.0940   20.8480 C   0  0  0  0  0  0  0  0  0  0  0  0
  -27.2580  -28.0810   20.8630 C   0  0  0  0  0  3  0  0  0  0  0  0
  -25.9750  -26.5320   19.6300 C   0  0  0  0  0  3  0  0  0  0  0  0
  -24.9120  -27.4900   19.5730 C   0  0  0  0  0  3  0  0  0  0  0  0
  -23.7560  -29.7130   20.2110 C   0  0  0  0  0  2  0  0  0  0  0  0
  -24.7730  -30.9870   22.1280 N   0  0  0  0  0  0  0  0  0  0  0  0
  -23.5670  -32.1770   23.6780 O   0  0  0  0  0  0  0  0  0  0  0  0
  -22.7590  -29.4890   22.5440 C   0  0  0  0  0  0  0  0  0  0  0  0
  -21.4250  -29.3530   22.4160 N   0  0  0  0  0  0  0  0  0  0  0  0
  -23.4020  -28.8670   23.3920 O   0  0  0  0  0  0  0  0  0  0  0  0
  -20.9550  -29.9040   21.7110 H   0  0  0  0  0  0  0  0  0  0  0  0
  -18.0170  -28.1960   22.9470 C   0  0  0  0  0  0  0  0  0  0  0  0
  -20.5830  -28.4340   23.1960 C   0  0  0  0  0  3  0  0  0  0  0  0
  -20.6630  -26.9960   22.6310 C   0  0  0  0  0  2  0  0  0  0  0  0
  -19.5530  -26.6830   21.6210 C   0  0  0  0  0  2  0  0  0  0  0  0
  -18.1760  -26.8440   22.2690 C   0  0  0  0  0  2  0  0  0  0  0  0
  -19.1470  -28.9490   23.3660 C   0  0  0  0  0  0  0  0  0  0  0  0
  -18.9420  -30.2100   23.9660 C   0  0  0  0  0  3  0  0  0  0  0  0
  -17.6410  -30.7200   24.1460 C   0  0  0  0  0  3  0  0  0  0  0  0
  -16.5280  -29.9660   23.7380 C   0  0  0  0  0  3  0  0  0  0  0  0
  -16.7170  -28.7050   23.1450 C   0  0  0  0  0  3  0  0  0  0  0  0
  -25.9210  -32.5250   23.8380 C   0  0  0  0  0  3  0  0  0  0  0  0
  -25.5880  -33.9270   24.1630 N   0  0  0  0  0  0  0  0  0  0  0  0
  -25.9200  -34.9940   23.4230 C   0  0  0  0  0  0  0  0  0  0  0  0
  -26.5910  -34.9010   22.3920 O   0  0  0  0  0  0  0  0  0  0  0  0
  -24.9880  -34.0710   24.9620 H   0  0  0  0  0  0  0  0  0  0  0  0
  -24.1820  -36.7930   23.1030 C   0  0  0  0  0  1  0  0  0  0  0  0
  -25.4340  -36.3820   23.8940 C   0  0  0  0  0  3  0  0  0  0  0  0
  -27.5730  -37.2800   24.7050 C   0  0  0  0  0  1  0  0  0  0  0  0
  -26.4610  -37.4410   23.7720 N   0  0  0  0  0  0  0  0  0  0  0  0
  -26.0510  -38.3600   23.9240 H   0  0  0  0  0  0  0  0  0  0  0  0
  -26.4060  -31.7790   25.1430 C   0  0  1  0  0  0  0  0  0  0  0  0
  -25.2900  -31.5660   26.1930 C   0  0  0  0  0  1  0  0  0  0  0  0
  -26.9940  -30.3910   24.8040 C   0  0  0  0  0  1  0  0  0  0  0  0
  -27.5450  -32.5830   25.8130 C   0  0  0  0  0  1  0  0  0  0  0  0
  2  7  1  0
  3  4  1  0
  3  2  1  0
  5  4  1  0
  5 23  1  0
  5  6  1  0
  7  1  1  0
  7  6  1  0
  8  1  2  0
  9 16  2  0
 10 11  1  0
 12 14  1  0
 12 13  1  0
 13 48  1  0
 13 10  1  0
 14  9  1  0
 14 11  1  0
 15  1  1  0
 15  9  1  0
 16 19  1  0
 16 18  1  0
 17 15  1  0
 20 21  2  0
 21 40  1  0
 22 21  1  0
 22 25  1  0
 23 20  1  0
 23 24  1  0
 24 22  2  0
 25 26  1  0
 26 27  2  0
 28 31  1  0
 28 27  1  0
 29 28  2  0
 30 29  1  0
 30 25  2  0
 31 32  1  0
 32 33  1  0
 33 34  2  0
 35 34  1  0
 35 39  1  0
 36 35  2  0
 37 32  2  0
 37 36  1  0
 38 37  1  0
 40 41  1  0
 41 44  1  0
 41 43  1  0
 42 40  2  0
 45 46  1  0
 45 20  1  0
 47 45  1  0
 48 50  1  0
 49 60  2  0
 50 55  1  0
 51 59  1  0
 51 61  1  0
 52 58  1  0
 52 54  1  0
 53 59  1  0
 54 55  2  0
 54 53  1  0
 56 50  2  0
 57 56  1  0
 57 52  2  0
 58 51  1  0
 59 49  1  0
 61 63  2  0
 62 61  1  0
 64 62  1  0
 65 74  2  0
 65 70  1  0
 66 62  1  0
 66 70  1  0
 67 66  1  0
 68 69  1  0
 68 67  1  0
 69 65  1  0
 70 71  2  0
 71 72  1  0
 73 72  2  0
 74 73  1  0
 75 49  1  0
 75 76  1  0
 75 85  1  0
 76 79  1  0
 77 81  1  0
 77 76  1  0
 78 77  2  0
 81 80  1  0
 83 81  1  0
 83 84  1  0
 83 82  1  0
 85 88  1  1
 85 86  1  0
 87 85  1  0
M  ISO  4   1 100  13 101  15 100  48 101
M  END
>  <TORSDO>  (70) 
F 15

>  <SCORE>  (70) 
-16.455

>  <name>  (70) 
71

>  <ligand_id>  (70) 
71

>  <original_smiles>  (70) 
[H]c1c([H])c([H])c2c(c1[H])C([H])([H])C([H])([H])C([H])([H])C2([H])N([H])C(=O)C1([H])N(C(=O)C([H])(N([H])C(=O)C([H])(N([H])C([H])([H])[H])C([H])([H])[H])C(C([H])([H])[H])(C([H])([H])[H])C([H])([H])[H])C([H])([H])c2c([H])c(OC3([H])C([H])([H])N(C(N([H])C(=O)N4C([H])([H])C([H])([H])C([H])([H])C([H])(n5nc(-c6c([H])c([H])c(Oc7c([H])c([H])c(F)c([H])c7F)c([H])c6[H])c(C(=O)N([H])[H])c5N([H])[H])C4([H])[H])=[N+]([H])[H])C([H])([H])C3([H])[H])c([H])c([H])c2C1([H])[H]

>  <smiles>  (70) 
[H]c1c([H])c([H])c2c(c1[H])C([H])([H])C([H])([H])C([H])([H])C2([H])N([H])C(=O)C1([H])N(C(=O)C([H])(N([H])C(=O)C([H])(N([H])C([H])([H])[H])C([H])([H])[H])C(C([H])([H])[H])(C([H])([H])[H])C([H])([H])[H])C([H])([H])c2c([H])c(OC3([H])C([H])([H])N(C(N([H])C(=O)N4C([H])([H])C([H])([H])C([H])([H])C([H])(n5nc(-c6c([H])c([H])c(Oc7c([H])c([H])c(F)c([H])c7F)c([H])c6[H])c(C(=O)N([H])[H])c5N([H])[H])C4([H])[H])=[N+]([H])[H])C([H])([H])C3([H])[H])c([H])c([H])c2C1([H])[H]

$$$$
72:0:0
     RDKit          3D

 89 97  0  0  1  0  0  0  0  0999 V2000
  -29.3140  -19.8030   19.3970 C   0  0  0  0  0  0  0  0  0  0  0  0
  -30.9580  -20.6830   20.6030 C   0  0  0  0  0  2  0  0  0  0  0  0
  -30.2920  -18.4180   19.6250 C   0  0  0  0  0  3  0  0  0  0  0  0
  -31.0940  -19.0850   20.7760 C   0  0  2  0  0  0  0  0  0  0  0  0
  -30.4840  -18.6820   22.1350 C   0  0  0  0  0  1  0  0  0  0  0  0
  -32.5720  -18.6560   20.7430 C   0  0  0  0  0  1  0  0  0  0  0  0
  -29.6960  -21.1050   19.9390 N   0  0  0  0  0  0  0  0  0  0  0  0
  -28.3080  -19.6890   18.6950 O   0  0  0  0  0  0  0  0  0  0  0  0
  -30.8330  -15.4440   19.6670 C   0  0  0  0  0  0  0  0  0  0  0  0
  -30.7760  -12.9300   18.9580 C   0  0  0  0  0  2  0  0  0  0  0  0
  -29.7890  -12.6070   17.8060 C   0  0  0  0  0  2  0  0  0  0  0  0
  -28.3730  -12.3580   18.3510 C   0  0  0  0  0  2  0  0  0  0  0  0
  -27.9750  -13.4030   19.4230 C   0  0  0  0  0  3  0  0  0  0  0  0
  -29.0860  -13.6540   20.4660 C   0  0  0  0  0  2  0  0  0  0  0  0
  -30.2630  -14.1320   19.7200 N   0  0  0  0  0  0  0  0  0  0  0  0
  -32.0490  -15.4070   19.4210 O   0  0  0  0  0  0  0  0  0  0  0  0
  -30.0740  -16.7340   19.6880 N   0  0  0  0  0  0  0  0  0  0  0  0
  -29.0900  -16.5330   19.7880 H   0  0  0  0  0  0  0  0  0  0  0  0
  -25.7050  -14.0310   20.3910 C   0  0  0  0  0  0  0  0  0  0  0  0
  -24.6400  -13.2880   20.8150 C   0  0  0  0  0  0  0  0  0  0  0  0
  -25.0390  -11.9200   20.6980 C   0  0  0  0  0  0  0  0  0  0  0  0
  -26.6830  -13.1220   20.0310 N   0  0  0  0  0  0  0  0  0  0  0  0
  -26.3010  -11.8420   20.2840 N   0  0  0  0  0  0  0  0  0  0  0  0
  -24.2710  -10.6850   20.8970 C   0  0  0  0  0  0  0  0  0  0  0  0
  -24.6790   -9.6990   21.8220 C   0  0  0  0  0  3  0  0  0  0  0  0
  -23.9090   -8.5320   22.0120 C   0  0  0  0  0  3  0  0  0  0  0  0
  -22.7140   -8.3420   21.2770 C   0  0  0  0  0  0  0  0  0  0  0  0
  -22.3220   -9.3170   20.3430 C   0  0  0  0  0  3  0  0  0  0  0  0
  -23.0930  -10.4750   20.1500 C   0  0  0  0  0  3  0  0  0  0  0  0
  -21.9150   -7.2280   21.3780 O   0  0  0  0  0  0  0  0  0  0  0  0
  -21.7950   -6.5330   22.5530 C   0  0  0  0  0  0  0  0  0  0  0  0
  -21.2950   -7.1360   23.7290 C   0  0  0  0  0  3  0  0  0  0  0  0
  -21.1220   -6.3670   24.8960 C   0  0  0  0  0  3  0  0  0  0  0  0
  -21.4390   -4.9950   24.8900 C   0  0  0  0  0  0  0  0  0  0  0  0
  -21.9300   -4.3900   23.7190 C   0  0  0  0  0  3  0  0  0  0  0  0
  -22.1040   -5.1570   22.5540 C   0  0  0  0  0  0  0  0  0  0  0  0
  -22.5590   -4.5660   21.4230 F   0  0  0  0  0  0  0  0  0  0  0  0
  -21.2650   -4.2540   26.0100 F   0  0  0  0  0  0  0  0  0  0  0  0
  -23.2920  -13.8160   21.2060 C   0  0  0  0  0  0  0  0  0  0  0  0
  -22.6060  -13.1320   22.1150 N   0  0  0  0  0  0  0  0  0  0  0  0
  -22.8590  -14.8700   20.7420 O   0  0  0  0  0  0  0  0  0  0  0  0
  -22.9710  -12.2780   22.5100 H   0  0  0  0  0  0  0  0  0  0  0  0
  -21.7040  -13.4670   22.4220 H   0  0  0  0  0  0  0  0  0  0  0  0
  -25.9130  -15.4010   20.2480 N   0  0  0  0  0  0  0  0  0  0  0  0
  -25.1800  -16.0750   20.4390 H   0  0  0  0  0  0  0  0  0  0  0  0
  -26.7320  -15.8170   19.8280 H   0  0  0  0  0  0  0  0  0  0  0  0
  -29.4400  -22.7530   19.5820 C   0  0  0  0  0  2  0  0  0  0  0  0
  -28.5280  -24.1930   20.2480 C   0  0  0  0  0  2  0  0  0  0  0  0
  -28.6530  -25.8620   20.1300 O   0  0  0  0  0  0  0  0  0  0  0  0
  -24.7500  -31.6750   23.1250 C   0  0  0  0  0  0  0  0  0  0  0  0
  -27.5830  -26.9190   20.1100 C   0  0  0  0  0  0  0  0  0  0  0  0
  -23.6570  -30.2540   21.4400 C   0  0  0  0  0  3  0  0  0  0  0  0
  -25.2060  -28.7230   20.0360 C   0  0  0  0  0  0  0  0  0  0  0  0
  -26.2170  -30.5660   21.3600 C   0  0  0  0  0  2  0  0  0  0  0  0
  -26.3640  -29.1650   20.6870 C   0  0  0  0  0  0  0  0  0  0  0  0
  -27.5460  -28.2870   20.6930 C   0  0  0  0  0  3  0  0  0  0  0  0
  -26.3840  -26.6370   19.4170 C   0  0  0  0  0  3  0  0  0  0  0  0
  -25.2420  -27.4810   19.3790 C   0  0  0  0  0  3  0  0  0  0  0  0
  -23.9490  -29.5970   20.0630 C   0  0  0  0  0  2  0  0  0  0  0  0
  -24.8940  -30.8590   22.0290 N   0  0  0  0  0  0  0  0  0  0  0  0
  -23.6360  -31.9120   23.6220 O   0  0  0  0  0  0  0  0  0  0  0  0
  -22.9790  -29.2190   22.3750 C   0  0  0  0  0  0  0  0  0  0  0  0
  -21.6550  -29.0160   22.2310 N   0  0  0  0  0  0  0  0  0  0  0  0
  -23.6520  -28.5960   23.2000 O   0  0  0  0  0  0  0  0  0  0  0  0
  -21.1640  -29.5710   21.5440 H   0  0  0  0  0  0  0  0  0  0  0  0
  -18.3040  -27.6990   22.6830 C   0  0  0  0  0  0  0  0  0  0  0  0
  -20.8530  -28.0360   22.9710 C   0  0  0  0  0  3  0  0  0  0  0  0
  -21.0010  -26.6220   22.3620 C   0  0  0  0  0  2  0  0  0  0  0  0
  -19.9170  -26.2940   21.3310 C   0  0  0  0  0  2  0  0  0  0  0  0
  -18.5260  -26.3770   21.9690 C   0  0  0  0  0  2  0  0  0  0  0  0
  -19.3960  -28.4850   23.1390 C   0  0  0  0  0  0  0  0  0  0  0  0
  -19.1330  -29.7200   23.7710 C   0  0  0  0  0  3  0  0  0  0  0  0
  -17.8100  -30.1710   23.9480 C   0  0  0  0  0  3  0  0  0  0  0  0
  -16.7330  -29.3820   23.5060 C   0  0  0  0  0  3  0  0  0  0  0  0
  -16.9810  -28.1490   22.8790 C   0  0  0  0  0  3  0  0  0  0  0  0
  -25.9740  -32.3640   23.7990 C   0  0  0  0  0  3  0  0  0  0  0  0
  -25.5870  -33.7450   24.1420 N   0  0  0  0  0  0  0  0  0  0  0  0
  -25.8720  -34.8290   23.4090 C   0  0  0  0  0  0  0  0  0  0  0  0
  -26.5500  -34.7740   22.3800 O   0  0  0  0  0  0  0  0  0  0  0  0
  -24.9810  -33.8550   24.9420 H   0  0  0  0  0  0  0  0  0  0  0  0
  -24.0500  -36.5420   23.1040 C   0  0  0  0  0  1  0  0  0  0  0  0
  -25.3230  -36.1880   23.8900 C   0  0  0  0  0  3  0  0  0  0  0  0
  -27.4150  -37.1830   24.7070 C   0  0  0  0  0  1  0  0  0  0  0  0
  -26.2990  -37.2950   23.7720 N   0  0  0  0  0  0  0  0  0  0  0  0
  -25.8460  -38.1920   23.9250 H   0  0  0  0  0  0  0  0  0  0  0  0
  -26.4750  -31.6070   25.0920 C   0  0  1  0  0  0  0  0  0  0  0  0
  -25.3550  -31.3150   26.1180 C   0  0  0  0  0  1  0  0  0  0  0  0
  -27.1330  -30.2580   24.7220 C   0  0  0  0  0  1  0  0  0  0  0  0
  -27.5650  -32.4460   25.7990 C   0  0  0  0  0  1  0  0  0  0  0  0
  1  3  1  0
  1  7  1  0
  2  4  1  0
  3 17  1  0
  3  4  1  0
  4  5  1  1
  6  4  1  0
  7  2  1  0
  8  1  2  0
  9 17  1  0
  9 15  1  0
 10 15  1  0
 11 12  1  0
 11 10  1  0
 13 12  1  0
 13 22  1  0
 13 14  1  0
 15 14  1  0
 16  9  2  0
 17 18  1  0
 19 20  2  0
 20 39  1  0
 21 20  1  0
 21 24  1  0
 22 23  1  0
 22 19  1  0
 23 21  2  0
 24 25  1  0
 25 26  2  0
 27 30  1  0
 27 26  1  0
 28 27  2  0
 29 28  1  0
 29 24  2  0
 30 31  1  0
 31 36  2  0
 31 32  1  0
 32 33  2  0
 34 33  1  0
 34 38  1  0
 35 34  2  0
 36 35  1  0
 37 36  1  0
 39 40  1  0
 40 43  1  0
 40 42  1  0
 41 39  2  0
 44 19  1  0
 44 45  1  0
 46 44  1  0
 47  7  1  0
 47 48  1  0
 49 48  1  0
 50 61  2  0
 51 49  1  0
 51 56  1  0
 52 60  1  0
 52 62  1  0
 53 59  1  0
 53 55  1  0
 54 60  1  0
 55 56  2  0
 55 54  1  0
 57 51  2  0
 58 57  1  0
 58 53  2  0
 59 52  1  0
 60 50  1  0
 62 64  2  0
 63 62  1  0
 65 63  1  0
 66 75  2  0
 66 71  1  0
 67 63  1  0
 67 71  1  0
 68 67  1  0
 69 70  1  0
 69 68  1  0
 70 66  1  0
 71 72  2  0
 72 73  1  0
 74 73  2  0
 75 74  1  0
 76 50  1  0
 76 77  1  0
 76 86  1  0
 77 80  1  0
 78 82  1  0
 78 77  1  0
 79 78  2  0
 82 81  1  0
 84 82  1  0
 84 85  1  0
 84 83  1  0
 86 89  1  1
 86 87  1  0
 88 86  1  0
M  ISO  4   9 100  17 100  48 101  49 101
M  END
>  <TORSDO>  (71) 
F 18

>  <SCORE>  (71) 
-15.874

>  <name>  (71) 
72

>  <ligand_id>  (71) 
72

>  <original_smiles>  (71) 
[H]c1c([H])c([H])c2c(c1[H])C([H])([H])C([H])([H])C([H])([H])C2([H])N([H])C(=O)C1([H])N(C(=O)C([H])(N([H])C(=O)C([H])(N([H])C([H])([H])[H])C([H])([H])[H])C(C([H])([H])[H])(C([H])([H])[H])C([H])([H])[H])C([H])([H])c2c([H])c(OC([H])([H])C([H])([H])N3C(=O)C([H])(N([H])C(=O)N4C([H])([H])C([H])([H])C([H])([H])C([H])(n5nc(-c6c([H])c([H])c(Oc7c([H])c([H])c(F)c([H])c7F)c([H])c6[H])c(C(=O)N([H])[H])c5N([H])[H])C4([H])[H])C(C([H])([H])[H])(C([H])([H])[H])C3([H])[H])c([H])c([H])c2C1([H])[H]

>  <smiles>  (71) 
[H]c1c([H])c([H])c2c(c1[H])C([H])([H])C([H])([H])C([H])([H])C2([H])N([H])C(=O)C1([H])N(C(=O)C([H])(N([H])C(=O)C([H])(N([H])C([H])([H])[H])C([H])([H])[H])C(C([H])([H])[H])(C([H])([H])[H])C([H])([H])[H])C([H])([H])c2c([H])c(OC([H])([H])C([H])([H])N3C(=O)C([H])(N([H])C(=O)N4C([H])([H])C([H])([H])C([H])([H])C([H])(n5nc(-c6c([H])c([H])c(Oc7c([H])c([H])c(F)c([H])c7F)c([H])c6[H])c(C(=O)N([H])[H])c5N([H])[H])C4([H])[H])C(C([H])([H])[H])(C([H])([H])[H])C3([H])[H])c([H])c([H])c2C1([H])[H]

$$$$
73:0:0
     RDKit          3D

 90100  0  0  1  0  0  0  0  0999 V2000
  -29.5900  -19.0480   21.4510 C   0  0  0  0  0  2  0  0  0  0  0  0
  -29.2140  -19.0540   19.1500 C   0  0  0  0  0  2  0  0  0  0  0  0
  -30.8620  -20.9180   20.0470 C   0  0  0  0  0  2  0  0  0  0  0  0
  -29.9170  -18.0560   20.2220 C   0  0  0  0  0  3  0  0  0  0  0  0
  -29.8930  -20.6540   21.2070 C   0  0  2  0  0  0  0  0  0  0  0  0
  -29.5600  -20.6800   19.2830 C   0  0  1  0  0  0  0  0  0  0  0  0
  -28.9240  -21.5740   20.3950 N   0  0  2  0  0  4  0  0  0  0  0  0
  -27.9560  -21.3300   20.5580 H   0  0  0  0  0  0  0  0  0  0  0  0
  -30.4360  -15.2320   20.1050 C   0  0  0  0  0  0  0  0  0  0  0  0
  -30.3410  -12.8510   19.1600 C   0  0  0  0  0  2  0  0  0  0  0  0
  -29.3640  -12.7400   17.9650 C   0  0  0  0  0  2  0  0  0  0  0  0
  -27.9340  -12.4680   18.4650 C   0  0  0  0  0  2  0  0  0  0  0  0
  -27.5400  -13.3990   19.6400 C   0  0  0  0  0  3  0  0  0  0  0  0
  -28.6370  -13.4750   20.7240 C   0  0  0  0  0  2  0  0  0  0  0  0
  -29.8610  -13.9490   20.0610 N   0  0  0  0  0  0  0  0  0  0  0  0
  -31.6330  -15.2820   19.7980 O   0  0  0  0  0  0  0  0  0  0  0  0
  -29.6580  -16.4460   20.2900 N   0  0  0  0  0  0  0  0  0  0  0  0
  -28.6960  -16.2250   20.4990 H   0  0  0  0  0  0  0  0  0  0  0  0
  -25.1940  -13.9350   20.5010 C   0  0  0  0  0  0  0  0  0  0  0  0
  -24.1540  -13.1420   20.9000 C   0  0  0  0  0  0  0  0  0  0  0  0
  -24.6280  -11.7980   20.8150 C   0  0  0  0  0  0  0  0  0  0  0  0
  -26.2320  -13.0730   20.1940 N   0  0  0  0  0  0  0  0  0  0  0  0
  -25.9050  -11.7790   20.4510 N   0  0  0  0  0  0  0  0  0  0  0  0
  -23.9170  -10.5260   21.0030 C   0  0  0  0  0  0  0  0  0  0  0  0
  -24.3690   -9.5550   21.9240 C   0  0  0  0  0  3  0  0  0  0  0  0
  -23.6590   -8.3490   22.1010 C   0  0  0  0  0  3  0  0  0  0  0  0
  -22.4790   -8.1020   21.3570 C   0  0  0  0  0  0  0  0  0  0  0  0
  -22.0470   -9.0620   20.4240 C   0  0  0  0  0  3  0  0  0  0  0  0
  -22.7590  -10.2610   20.2460 C   0  0  0  0  0  3  0  0  0  0  0  0
  -21.7380   -6.9500   21.4430 O   0  0  0  0  0  0  0  0  0  0  0  0
  -21.6770   -6.2200   22.6050 C   0  0  0  0  0  0  0  0  0  0  0  0
  -21.1670   -6.7660   23.8020 C   0  0  0  0  0  3  0  0  0  0  0  0
  -21.0570   -5.9590   24.9540 C   0  0  0  0  0  3  0  0  0  0  0  0
  -21.4450   -4.6070   24.9070 C   0  0  0  0  0  0  0  0  0  0  0  0
  -21.9470   -4.0600   23.7130 C   0  0  0  0  0  3  0  0  0  0  0  0
  -22.0600   -4.8640   22.5650 C   0  0  0  0  0  0  0  0  0  0  0  0
  -22.5230   -4.3250   21.4110 F   0  0  0  0  0  0  0  0  0  0  0  0
  -21.3330   -3.8300   26.0090 F   0  0  0  0  0  0  0  0  0  0  0  0
  -22.7660  -13.6020   21.2360 C   0  0  0  0  0  0  0  0  0  0  0  0
  -22.0740  -12.8790   22.1100 N   0  0  0  0  0  0  0  0  0  0  0  0
  -22.3050  -14.6390   20.7600 O   0  0  0  0  0  0  0  0  0  0  0  0
  -22.4580  -12.0420   22.5230 H   0  0  0  0  0  0  0  0  0  0  0  0
  -21.1440  -13.1710   22.3760 H   0  0  0  0  0  0  0  0  0  0  0  0
  -25.3360  -15.3110   20.3440 N   0  0  0  0  0  0  0  0  0  0  0  0
  -24.5560  -15.9450   20.4860 H   0  0  0  0  0  0  0  0  0  0  0  0
  -26.1430  -15.7650   19.9350 H   0  0  0  0  0  0  0  0  0  0  0  0
  -29.7930  -23.6440   21.7710 C   0  0  0  0  0  1  0  0  0  0  0  0
  -29.1230  -23.2310   20.4380 C   0  0  0  0  0  3  0  0  0  0  0  0
  -27.9820  -24.5240   20.1580 C   0  0  0  0  0  2  0  0  0  0  0  0
  -28.2010  -26.1160   20.3150 O   0  0  0  0  0  0  0  0  0  0  0  0
  -24.6330  -31.9750   23.2840 C   0  0  0  0  0  0  0  0  0  0  0  0
  -27.1620  -27.1520   20.2600 C   0  0  0  0  0  0  0  0  0  0  0  0
  -23.4230  -30.5860   21.6500 C   0  0  0  0  0  3  0  0  0  0  0  0
  -24.8570  -28.9780   20.2280 C   0  0  0  0  0  0  0  0  0  0  0  0
  -25.9860  -30.8040   21.4870 C   0  0  0  0  0  2  0  0  0  0  0  0
  -26.0450  -29.4000   20.8360 C   0  0  0  0  0  0  0  0  0  0  0  0
  -27.1960  -28.5070   20.8280 C   0  0  0  0  0  3  0  0  0  0  0  0
  -25.9420  -26.8540   19.6160 C   0  0  0  0  0  3  0  0  0  0  0  0
  -24.8230  -27.7220   19.6010 C   0  0  0  0  0  3  0  0  0  0  0  0
  -23.6410  -29.8990   20.2750 C   0  0  0  0  0  2  0  0  0  0  0  0
  -24.7020  -31.1470   22.1950 N   0  0  0  0  0  0  0  0  0  0  0  0
  -23.5480  -32.2700   23.8090 O   0  0  0  0  0  0  0  0  0  0  0  0
  -22.7300  -29.5920   22.6180 C   0  0  0  0  0  0  0  0  0  0  0  0
  -21.4030  -29.4200   22.4820 N   0  0  0  0  0  0  0  0  0  0  0  0
  -23.3910  -28.9760   23.4570 O   0  0  0  0  0  0  0  0  0  0  0  0
  -20.9240  -29.9680   21.7810 H   0  0  0  0  0  0  0  0  0  0  0  0
  -18.0190  -28.2070   22.9620 C   0  0  0  0  0  0  0  0  0  0  0  0
  -20.5740  -28.4880   23.2530 C   0  0  0  0  0  3  0  0  0  0  0  0
  -20.6890  -27.0500   22.6950 C   0  0  0  0  0  2  0  0  0  0  0  0
  -19.6000  -26.7100   21.6710 C   0  0  0  0  0  2  0  0  0  0  0  0
  -18.2110  -26.8540   22.2990 C   0  0  0  0  0  2  0  0  0  0  0  0
  -19.1290  -28.9820   23.3950 C   0  0  0  0  0  0  0  0  0  0  0  0
  -18.8940  -30.2460   23.9760 C   0  0  0  0  0  3  0  0  0  0  0  0
  -17.5850  -30.7380   24.1280 C   0  0  0  0  0  3  0  0  0  0  0  0
  -16.4900  -29.9620   23.7090 C   0  0  0  0  0  3  0  0  0  0  0  0
  -16.7070  -28.6980   23.1330 C   0  0  0  0  0  3  0  0  0  0  0  0
  -25.9120  -32.6070   23.9130 C   0  0  0  0  0  3  0  0  0  0  0  0
  -25.6060  -34.0110   24.2400 N   0  0  0  0  0  0  0  0  0  0  0  0
  -25.9210  -35.0640   23.4730 C   0  0  0  0  0  0  0  0  0  0  0  0
  -26.5630  -34.9550   22.4250 O   0  0  0  0  0  0  0  0  0  0  0  0
  -25.0310  -34.1670   25.0560 H   0  0  0  0  0  0  0  0  0  0  0  0
  -24.1810  -36.8590   23.1760 C   0  0  0  0  0  1  0  0  0  0  0  0
  -25.4530  -36.4580   23.9400 C   0  0  0  0  0  3  0  0  0  0  0  0
  -27.6110  -37.3590   24.6890 C   0  0  0  0  0  1  0  0  0  0  0  0
  -26.4800  -37.5100   23.7780 N   0  0  0  0  0  0  0  0  0  0  0  0
  -26.0780  -38.4320   23.9210 H   0  0  0  0  0  0  0  0  0  0  0  0
  -26.4080  -31.8430   25.2020 C   0  0  1  0  0  0  0  0  0  0  0  0
  -25.3020  -31.6160   26.2600 C   0  0  0  0  0  1  0  0  0  0  0  0
  -26.9930  -30.4620   24.8310 C   0  0  0  0  0  1  0  0  0  0  0  0
  -27.5540  -32.6390   25.8710 C   0  0  0  0  0  1  0  0  0  0  0  0
  2  4  1  0
  4 17  1  0
  4  1  1  0
  5  3  1  6
  5  1  1  0
  6  2  1  1
  6  3  1  0
  6  7  1  0
  6  5  1  0
  7 48  1  0
  7  8  1  1
  7  5  1  0
  9 17  1  0
 10 15  1  0
 11 12  1  0
 11 10  1  0
 13 12  1  0
 13 22  1  0
 13 14  1  0
 15  9  1  0
 15 14  1  0
 16  9  2  0
 17 18  1  0
 19 20  2  0
 20 39  1  0
 21 20  1  0
 21 24  1  0
 22 23  1  0
 22 19  1  0
 23 21  2  0
 24 25  1  0
 25 26  2  0
 27 30  1  0
 27 26  1  0
 28 27  2  0
 29 28  1  0
 29 24  2  0
 30 31  1  0
 31 32  1  0
 32 33  2  0
 34 33  1  0
 34 38  1  0
 35 34  2  0
 36 31  2  0
 36 35  1  0
 37 36  1  0
 39 40  1  0
 40 43  1  0
 40 42  1  0
 41 39  2  0
 44 45  1  0
 44 19  1  0
 46 44  1  0
 48 47  1  0
 49 50  1  0
 49 48  1  0
 51 62  2  0
 52 50  1  0
 52 57  1  0
 53 61  1  0
 53 63  1  0
 54 60  1  0
 54 56  1  0
 55 61  1  0
 56 55  1  0
 57 56  2  0
 58 52  2  0
 59 58  1  0
 59 54  2  0
 60 53  1  0
 61 51  1  0
 63 65  2  0
 64 63  1  0
 66 64  1  0
 67 76  2  0
 67 72  1  0
 68 64  1  0
 68 72  1  0
 69 68  1  0
 70 71  1  0
 70 69  1  0
 71 67  1  0
 72 73  2  0
 73 74  1  0
 75 74  2  0
 76 75  1  0
 77 51  1  0
 77 78  1  0
 77 87  1  0
 78 81  1  0
 79 83  1  0
 79 78  1  0
 80 79  2  0
 83 82  1  0
 85 86  1  0
 85 83  1  0
 85 84  1  0
 87 90  1  1
 87 88  1  0
 89 87  1  0
M  ISO  4   9 100  17 100  49 101  50 101
M  END
>  <TORSDO>  (72) 
F 18

>  <SCORE>  (72) 
-14.892

>  <name>  (72) 
73

>  <ligand_id>  (72) 
73

>  <original_smiles>  (72) 
[H]c1c([H])c([H])c2c(c1[H])C([H])([H])C([H])([H])C([H])([H])C2([H])N([H])C(=O)C1([H])N(C(=O)C([H])(N([H])C(=O)C([H])(N([H])C([H])([H])[H])C([H])([H])[H])C(C([H])([H])[H])(C([H])([H])[H])C([H])([H])[H])C([H])([H])c2c([H])c(OC([H])([H])C([H])(C([H])([H])[H])[N+]3([H])C4([H])C([H])([H])C([H])(N([H])C(=O)N5C([H])([H])C([H])([H])C([H])([H])C([H])(n6nc(-c7c([H])c([H])c(Oc8c([H])c([H])c(F)c([H])c8F)c([H])c7[H])c(C(=O)N([H])[H])c6N([H])[H])C5([H])[H])C([H])([H])C3([H])C4([H])[H])c([H])c([H])c2C1([H])[H]

>  <smiles>  (72) 
[H]c1c([H])c([H])c2c(c1[H])C([H])([H])C([H])([H])C([H])([H])C2([H])N([H])C(=O)C1([H])N(C(=O)C([H])(N([H])C(=O)C([H])(N([H])C([H])([H])[H])C([H])([H])[H])C(C([H])([H])[H])(C([H])([H])[H])C([H])([H])[H])C([H])([H])c2c([H])c(OC([H])([H])C([H])(C([H])([H])[H])[N+]3([H])C4([H])C([H])([H])C([H])(N([H])C(=O)N5C([H])([H])C([H])([H])C([H])([H])C([H])(n6nc(-c7c([H])c([H])c(Oc8c([H])c([H])c(F)c([H])c8F)c([H])c7[H])c(C(=O)N([H])[H])c6N([H])[H])C5([H])[H])C([H])([H])C3([H])C4([H])[H])c([H])c([H])c2C1([H])[H]

$$$$
74:0:0
     RDKit          3D

 90 98  0  0  1  0  0  0  0  0999 V2000
  -28.8630  -23.8760   19.8300 C   0  0  0  0  0  0  0  0  0  0  0  0
  -29.5440  -24.2900   18.7530 N   0  0  0  0  0  4  0  0  0  0  0  0
  -28.8540  -22.5230   20.1790 N   0  0  0  0  0  0  0  0  0  0  0  0
  -29.5530  -25.2780   18.5480 H   0  0  0  0  0  0  0  0  0  0  0  0
  -30.0450  -23.6640   18.1450 H   0  0  0  0  0  0  0  0  0  0  0  0
  -28.3340  -22.2740   21.0090 H   0  0  0  0  0  0  0  0  0  0  0  0
  -28.6200  -20.3580   18.7820 C   0  0  0  0  0  2  0  0  0  0  0  0
  -29.7380  -19.7890   19.6230 C   0  0  0  0  0  3  0  0  0  0  0  0
  -29.5380  -21.3760   19.4280 C   0  0  0  0  0  3  0  0  0  0  0  0
  -29.4300  -18.7420   20.7570 C   0  0  0  0  0  2  0  0  0  0  0  0
  -29.8010  -15.8640   20.9440 C   0  0  0  0  0  3  0  0  0  0  0  0
  -29.8970  -17.2120   20.5670 C   0  0  0  0  0  3  0  0  0  0  0  0
  -30.5750  -14.7090   20.3650 C   0  0  0  0  0  0  0  0  0  0  0  0
  -30.3800  -12.4540   19.3020 C   0  0  0  0  0  2  0  0  0  0  0  0
  -29.4300  -12.5680   18.0850 C   0  0  0  0  0  2  0  0  0  0  0  0
  -27.9570  -12.4070   18.5140 C   0  0  0  0  0  2  0  0  0  0  0  0
  -27.6040  -13.2610   19.7590 C   0  0  0  0  0  3  0  0  0  0  0  0
  -28.6640  -13.0830   20.8640 C   0  0  0  0  0  2  0  0  0  0  0  0
  -29.9650  -13.4720   20.2970 N   0  0  0  0  0  0  0  0  0  0  0  0
  -31.7130  -14.8430   19.9020 O   0  0  0  0  0  0  0  0  0  0  0  0
  -25.2130  -13.8650   20.4800 C   0  0  0  0  0  0  0  0  0  0  0  0
  -24.1460  -13.0940   20.8560 C   0  0  0  0  0  0  0  0  0  0  0  0
  -24.6080  -11.7420   20.8310 C   0  0  0  0  0  0  0  0  0  0  0  0
  -26.2550  -12.9810   20.2470 N   0  0  0  0  0  0  0  0  0  0  0  0
  -25.8960  -11.7010   20.5180 N   0  0  0  0  0  0  0  0  0  0  0  0
  -23.8800  -10.4820   21.0320 C   0  0  0  0  0  0  0  0  0  0  0  0
  -24.3270   -9.5080   21.9530 C   0  0  0  0  0  3  0  0  0  0  0  0
  -23.5990   -8.3130   22.1390 C   0  0  0  0  0  3  0  0  0  0  0  0
  -22.4120   -8.0830   21.4050 C   0  0  0  0  0  0  0  0  0  0  0  0
  -21.9840   -9.0460   20.4740 C   0  0  0  0  0  3  0  0  0  0  0  0
  -22.7120  -10.2310   20.2850 C   0  0  0  0  0  3  0  0  0  0  0  0
  -21.6550   -6.9400   21.5010 O   0  0  0  0  0  0  0  0  0  0  0  0
  -21.6390   -6.1810   22.6440 C   0  0  0  0  0  0  0  0  0  0  0  0
  -21.2690   -6.7240   23.8940 C   0  0  0  0  0  3  0  0  0  0  0  0
  -21.1980   -5.8940   25.0300 C   0  0  0  0  0  3  0  0  0  0  0  0
  -21.4870   -4.5210   24.9180 C   0  0  0  0  0  0  0  0  0  0  0  0
  -21.8500   -3.9770   23.6730 C   0  0  0  0  0  3  0  0  0  0  0  0
  -21.9220   -4.8050   22.5390 C   0  0  0  0  0  0  0  0  0  0  0  0
  -22.2520   -4.2720   21.3380 F   0  0  0  0  0  0  0  0  0  0  0  0
  -21.4130   -3.7200   26.0070 F   0  0  0  0  0  0  0  0  0  0  0  0
  -22.7510  -13.5760   21.1320 C   0  0  0  0  0  0  0  0  0  0  0  0
  -22.0230  -12.8860   22.0030 N   0  0  0  0  0  0  0  0  0  0  0  0
  -22.3130  -14.6010   20.6100 O   0  0  0  0  0  0  0  0  0  0  0  0
  -22.3880  -12.0580   22.4510 H   0  0  0  0  0  0  0  0  0  0  0  0
  -21.0860  -13.1920   22.2290 H   0  0  0  0  0  0  0  0  0  0  0  0
  -25.3800  -15.2350   20.2970 N   0  0  0  0  0  0  0  0  0  0  0  0
  -24.6190  -15.8940   20.4170 H   0  0  0  0  0  0  0  0  0  0  0  0
  -26.2380  -15.6710   19.9850 H   0  0  0  0  0  0  0  0  0  0  0  0
  -28.1200  -25.0100   20.6010 C   0  0  0  0  0  2  0  0  0  0  0  0
  -28.3280  -26.4290   20.1630 O   0  0  0  0  0  0  0  0  0  0  0  0
  -24.6180  -31.8730   23.2040 C   0  0  0  0  0  0  0  0  0  0  0  0
  -27.2200  -27.2950   20.1510 C   0  0  0  0  0  0  0  0  0  0  0  0
  -23.4110  -30.4720   21.5650 C   0  0  0  0  0  3  0  0  0  0  0  0
  -24.8590  -28.9170   20.1380 C   0  0  0  0  0  0  0  0  0  0  0  0
  -25.9510  -30.7880   21.3780 C   0  0  0  0  0  2  0  0  0  0  0  0
  -26.0300  -29.4040   20.7360 C   0  0  0  0  0  0  0  0  0  0  0  0
  -27.2150  -28.6040   20.7320 C   0  0  0  0  0  3  0  0  0  0  0  0
  -26.0290  -26.8690   19.5240 C   0  0  0  0  0  3  0  0  0  0  0  0
  -24.8620  -27.6570   19.5240 C   0  0  0  0  0  3  0  0  0  0  0  0
  -23.6240  -29.7960   20.1850 C   0  0  0  0  0  2  0  0  0  0  0  0
  -24.6790  -31.0640   22.1060 N   0  0  0  0  0  0  0  0  0  0  0  0
  -23.5350  -32.1500   23.7400 O   0  0  0  0  0  0  0  0  0  0  0  0
  -22.7500  -29.4590   22.5290 C   0  0  0  0  0  0  0  0  0  0  0  0
  -21.4230  -29.2840   22.4050 N   0  0  0  0  0  0  0  0  0  0  0  0
  -23.4300  -28.8300   23.3450 O   0  0  0  0  0  0  0  0  0  0  0  0
  -20.9320  -29.8420   21.7210 H   0  0  0  0  0  0  0  0  0  0  0  0
  -18.0460  -28.0860   22.9090 C   0  0  0  0  0  0  0  0  0  0  0  0
  -20.6050  -28.3470   23.1790 C   0  0  0  0  0  3  0  0  0  0  0  0
  -20.7070  -26.9150   22.6060 C   0  0  0  0  0  2  0  0  0  0  0  0
  -19.6060  -26.5900   21.5920 C   0  0  0  0  0  2  0  0  0  0  0  0
  -18.2240  -26.7350   22.2360 C   0  0  0  0  0  2  0  0  0  0  0  0
  -19.1640  -28.8500   23.3360 C   0  0  0  0  0  0  0  0  0  0  0  0
  -18.9460  -30.1130   23.9270 C   0  0  0  0  0  3  0  0  0  0  0  0
  -17.6410  -30.6150   24.0940 C   0  0  0  0  0  3  0  0  0  0  0  0
  -16.5360  -29.8470   23.6810 C   0  0  0  0  0  3  0  0  0  0  0  0
  -16.7390  -28.5860   23.0940 C   0  0  0  0  0  3  0  0  0  0  0  0
  -25.9020  -32.5070   23.8240 C   0  0  0  0  0  3  0  0  0  0  0  0
  -26.4280  -31.7260   25.0910 C   0  0  1  0  0  0  0  0  0  0  0  0
  -25.3430  -31.4820   26.1660 C   0  0  0  0  0  1  0  0  0  0  0  0
  -27.0100  -30.3520   24.6880 C   0  0  0  0  0  1  0  0  0  0  0  0
  -27.5810  -32.5180   25.7530 C   0  0  0  0  0  1  0  0  0  0  0  0
  -25.5890  -33.9000   24.1680 N   0  0  0  0  0  0  0  0  0  0  0  0
  -25.9100  -34.9610   23.4180 C   0  0  0  0  0  0  0  0  0  0  0  0
  -26.5720  -34.8710   22.3790 O   0  0  0  0  0  0  0  0  0  0  0  0
  -25.0030  -34.0450   24.9790 H   0  0  0  0  0  0  0  0  0  0  0  0
  -24.1690  -36.7490   23.0970 C   0  0  0  0  0  1  0  0  0  0  0  0
  -25.4220  -36.3440   23.8920 C   0  0  0  0  0  3  0  0  0  0  0  0
  -27.5610  -37.2300   24.7060 C   0  0  0  0  0  1  0  0  0  0  0  0
  -26.4470  -37.4030   23.7760 N   0  0  0  0  0  0  0  0  0  0  0  0
  -26.0380  -38.3180   23.9390 H   0  0  0  0  0  0  0  0  0  0  0  0
  1  3  1  0
  1 49  1  0
  2  1  2  0
  3  6  1  0
  4  2  1  0
  5  2  1  0
  7  9  1  0
  7  8  1  0
  8 10  1  0
  9  8  1  0
  9  3  1  0
 12 10  1  0
 12 11  2  0
 13 11  1  0
 14 19  1  0
 15 16  1  0
 15 14  1  0
 17 16  1  0
 17 24  1  0
 17 18  1  0
 19 13  1  0
 19 18  1  0
 20 13  2  0
 21 22  2  0
 22 41  1  0
 23 22  1  0
 23 26  1  0
 24 21  1  0
 24 25  1  0
 25 23  2  0
 26 27  1  0
 27 28  2  0
 29 32  1  0
 29 28  1  0
 30 29  2  0
 31 30  1  0
 31 26  2  0
 32 33  1  0
 33 34  1  0
 34 35  2  0
 36 35  1  0
 36 40  1  0
 37 36  2  0
 38 33  2  0
 38 37  1  0
 39 38  1  0
 41 42  1  0
 42 45  1  0
 42 44  1  0
 43 41  2  0
 46 47  1  0
 46 21  1  0
 48 46  1  0
 50 49  1  0
 51 62  2  0
 52 50  1  0
 52 57  1  0
 53 61  1  0
 53 63  1  0
 54 60  1  0
 54 56  1  0
 55 61  1  0
 56 55  1  0
 57 56  2  0
 58 52  2  0
 59 58  1  0
 59 54  2  0
 60 53  1  0
 61 51  1  0
 63 65  2  0
 64 63  1  0
 66 64  1  0
 67 76  2  0
 67 72  1  0
 68 64  1  0
 68 72  1  0
 69 68  1  0
 70 71  1  0
 70 69  1  0
 71 67  1  0
 72 73  2  0
 73 74  1  0
 75 74  2  0
 76 75  1  0
 77 51  1  0
 77 82  1  0
 77 78  1  0
 78 81  1  1
 78 79  1  0
 80 78  1  0
 82 85  1  0
 83 87  1  0
 83 82  1  0
 84 83  2  0
 87 86  1  0
 89 87  1  0
 89 90  1  0
 89 88  1  0
M  ISO  4  11 100  13 100  49 101  50 101
M  END
>  <TORSDO>  (73) 
F 20

>  <SCORE>  (73) 
-13.665

>  <name>  (73) 
74

>  <ligand_id>  (73) 
74

>  <original_smiles>  (73) 
[H]C(C(=O)N1C([H])([H])C([H])([H])C([H])([H])C([H])(n2nc(-c3c([H])c([H])c(Oc4c([H])c([H])c(F)c([H])c4F)c([H])c3[H])c(C(=O)N([H])[H])c2N([H])[H])C1([H])[H])=C([H])C([H])([H])C1([H])C([H])([H])C1([H])[N+]([H])=C(N([H])[H])C([H])([H])Oc1c([H])c([H])c2c(c1[H])C([H])([H])N(C(=O)C([H])(N([H])C(=O)C([H])(N([H])C([H])([H])[H])C([H])([H])[H])C(C([H])([H])[H])(C([H])([H])[H])C([H])([H])[H])C([H])(C(=O)N([H])C1([H])c3c([H])c([H])c([H])c([H])c3C([H])([H])C([H])([H])C1([H])[H])C2([H])[H]

>  <smiles>  (73) 
[H]C(C(=O)N1C([H])([H])C([H])([H])C([H])([H])C([H])(n2nc(-c3c([H])c([H])c(Oc4c([H])c([H])c(F)c([H])c4F)c([H])c3[H])c(C(=O)N([H])[H])c2N([H])[H])C1([H])[H])=C([H])C([H])([H])C1([H])C([H])([H])C1([H])[N+]([H])=C(N([H])[H])C([H])([H])Oc1c([H])c([H])c2c(c1[H])C([H])([H])N(C(=O)C([H])(N([H])C(=O)C([H])(N([H])C([H])([H])[H])C([H])([H])[H])C(C([H])([H])[H])(C([H])([H])[H])C([H])([H])[H])C([H])(C(=O)N([H])C1([H])c3c([H])c([H])c([H])c([H])c3C([H])([H])C([H])([H])C1([H])[H])C2([H])[H]

$$$$
75:0:0
     RDKit          3D

 89 97  0  0  1  0  0  0  0  0999 V2000
  -29.7930  -19.0050   21.1860 C   0  0  0  0  0  0  0  0  0  0  0  0
  -29.8930  -20.6370   21.1100 C   0  0  0  0  0  2  0  0  0  0  0  0
  -28.8340  -18.9270   19.0490 C   0  0  0  0  0  2  0  0  0  0  0  0
  -28.9090  -20.5860   18.9500 C   0  0  0  0  0  2  0  0  0  0  0  0
  -29.9110  -18.0610   19.8910 C   0  0  0  0  0  3  0  0  0  0  0  0
  -28.9040  -21.4410   20.2300 N   0  0  2  0  0  4  0  0  0  0  0  0
  -29.6050  -18.4900   22.2930 O   0  0  0  0  0  0  0  0  0  0  0  0
  -28.0020  -21.3080   20.6630 H   0  0  0  0  0  0  0  0  0  0  0  0
  -30.5150  -15.2210   19.8990 C   0  0  0  0  0  0  0  0  0  0  0  0
  -30.4290  -12.8080   19.0110 C   0  0  0  0  0  2  0  0  0  0  0  0
  -29.4200  -12.6540   17.8470 C   0  0  0  0  0  2  0  0  0  0  0  0
  -28.0030  -12.3880   18.3870 C   0  0  0  0  0  2  0  0  0  0  0  0
  -27.6380  -13.3320   19.5610 C   0  0  0  0  0  3  0  0  0  0  0  0
  -28.7650  -13.4410   20.6090 C   0  0  0  0  0  2  0  0  0  0  0  0
  -29.9580  -13.9240   19.8990 N   0  0  0  0  0  0  0  0  0  0  0  0
  -31.7090  -15.2690   19.5750 O   0  0  0  0  0  0  0  0  0  0  0  0
  -29.7180  -16.4340   20.0330 N   0  0  0  0  0  0  0  0  0  0  0  0
  -28.7710  -16.2030   20.2930 H   0  0  0  0  0  0  0  0  0  0  0  0
  -25.3370  -13.8680   20.5300 C   0  0  0  0  0  0  0  0  0  0  0  0
  -24.3040  -13.0770   20.9480 C   0  0  0  0  0  0  0  0  0  0  0  0
  -24.7560  -11.7290   20.8110 C   0  0  0  0  0  0  0  0  0  0  0  0
  -26.3500  -13.0020   20.1580 N   0  0  0  0  0  0  0  0  0  0  0  0
  -26.0170  -11.7050   20.3930 N   0  0  0  0  0  0  0  0  0  0  0  0
  -24.0370  -10.4610   20.9930 C   0  0  0  0  0  0  0  0  0  0  0  0
  -24.4700   -9.4920   21.9250 C   0  0  0  0  0  3  0  0  0  0  0  0
  -23.7480   -8.2910   22.0970 C   0  0  0  0  0  3  0  0  0  0  0  0
  -22.5780   -8.0510   21.3380 C   0  0  0  0  0  0  0  0  0  0  0  0
  -22.1630   -9.0090   20.3960 C   0  0  0  0  0  3  0  0  0  0  0  0
  -22.8860  -10.2000   20.2220 C   0  0  0  0  0  3  0  0  0  0  0  0
  -21.8270   -6.9030   21.4200 O   0  0  0  0  0  0  0  0  0  0  0  0
  -21.6920   -6.2140   22.5990 C   0  0  0  0  0  0  0  0  0  0  0  0
  -21.0940   -6.7960   23.7380 C   0  0  0  0  0  3  0  0  0  0  0  0
  -20.9120   -6.0300   24.9070 C   0  0  0  0  0  3  0  0  0  0  0  0
  -21.3180   -4.6830   24.9370 C   0  0  0  0  0  0  0  0  0  0  0  0
  -21.9100   -4.1000   23.8020 C   0  0  0  0  0  3  0  0  0  0  0  0
  -22.0930   -4.8640   22.6360 C   0  0  0  0  0  0  0  0  0  0  0  0
  -22.6440   -4.2910   21.5380 F   0  0  0  0  0  0  0  0  0  0  0  0
  -21.1360   -3.9450   26.0570 F   0  0  0  0  0  0  0  0  0  0  0  0
  -22.9360  -13.5460   21.3520 C   0  0  0  0  0  0  0  0  0  0  0  0
  -22.2790  -12.8170   22.2470 N   0  0  0  0  0  0  0  0  0  0  0  0
  -22.4640  -14.5920   20.9100 O   0  0  0  0  0  0  0  0  0  0  0  0
  -22.6770  -11.9700   22.6240 H   0  0  0  0  0  0  0  0  0  0  0  0
  -21.3660  -13.1120   22.5610 H   0  0  0  0  0  0  0  0  0  0  0  0
  -25.4920  -15.2450   20.4080 N   0  0  0  0  0  0  0  0  0  0  0  0
  -24.7300  -15.8850   20.6010 H   0  0  0  0  0  0  0  0  0  0  0  0
  -26.2870  -15.6990   19.9770 H   0  0  0  0  0  0  0  0  0  0  0  0
  -29.1400  -23.0760   20.1480 C   0  0  0  0  0  3  0  0  0  0  0  0
  -28.0200  -24.4280   20.0490 C   0  0  0  0  0  3  0  0  0  0  0  0
  -28.2630  -26.0280   20.1550 O   0  0  0  0  0  0  0  0  0  0  0  0
  -24.6970  -31.8710   23.1910 C   0  0  0  0  0  0  0  0  0  0  0  0
  -27.2270  -27.0740   20.1140 C   0  0  0  0  0  0  0  0  0  0  0  0
  -23.4830  -30.4880   21.5560 C   0  0  0  0  0  3  0  0  0  0  0  0
  -24.9160  -28.9020   20.1090 C   0  0  0  0  0  0  0  0  0  0  0  0
  -26.0440  -30.7190   21.3770 C   0  0  0  0  0  2  0  0  0  0  0  0
  -26.1080  -29.3210   20.7140 C   0  0  0  0  0  0  0  0  0  0  0  0
  -27.2600  -28.4260   20.6920 C   0  0  0  0  0  3  0  0  0  0  0  0
  -26.0030  -26.7870   19.4700 C   0  0  0  0  0  3  0  0  0  0  0  0
  -24.8840  -27.6530   19.4690 C   0  0  0  0  0  3  0  0  0  0  0  0
  -23.6960  -29.8160   20.1720 C   0  0  0  0  0  2  0  0  0  0  0  0
  -24.7630  -31.0510   22.0960 N   0  0  0  0  0  0  0  0  0  0  0  0
  -23.6150  -32.1570   23.7280 O   0  0  0  0  0  0  0  0  0  0  0  0
  -22.8040  -29.4820   22.5210 C   0  0  0  0  0  0  0  0  0  0  0  0
  -21.4780  -29.2970   22.3890 N   0  0  0  0  0  0  0  0  0  0  0  0
  -23.4760  -28.8680   23.3530 O   0  0  0  0  0  0  0  0  0  0  0  0
  -20.9880  -29.8440   21.6950 H   0  0  0  0  0  0  0  0  0  0  0  0
  -18.1050  -28.0660   22.9050 C   0  0  0  0  0  0  0  0  0  0  0  0
  -20.6640  -28.3520   23.1610 C   0  0  0  0  0  3  0  0  0  0  0  0
  -20.7740  -26.9210   22.5840 C   0  0  0  0  0  2  0  0  0  0  0  0
  -19.6720  -26.5920   21.5730 C   0  0  0  0  0  2  0  0  0  0  0  0
  -18.2910  -26.7220   22.2220 C   0  0  0  0  0  2  0  0  0  0  0  0
  -19.2190  -28.8380   23.3310 C   0  0  0  0  0  0  0  0  0  0  0  0
  -18.9890  -30.0950   23.9330 C   0  0  0  0  0  3  0  0  0  0  0  0
  -17.6790  -30.5800   24.1100 C   0  0  0  0  0  3  0  0  0  0  0  0
  -16.5820  -29.8060   23.6960 C   0  0  0  0  0  3  0  0  0  0  0  0
  -16.7950  -28.5520   23.0990 C   0  0  0  0  0  3  0  0  0  0  0  0
  -25.9790  -32.5070   23.8130 C   0  0  0  0  0  3  0  0  0  0  0  0
  -25.6690  -33.9050   24.1560 N   0  0  0  0  0  0  0  0  0  0  0  0
  -25.9510  -34.9640   23.3850 C   0  0  0  0  0  0  0  0  0  0  0  0
  -26.5630  -34.8670   22.3180 O   0  0  0  0  0  0  0  0  0  0  0  0
  -25.1170  -34.0540   24.9870 H   0  0  0  0  0  0  0  0  0  0  0  0
  -24.1750  -36.7360   23.1580 C   0  0  0  0  0  1  0  0  0  0  0  0
  -25.4810  -36.3500   23.8710 C   0  0  0  0  0  3  0  0  0  0  0  0
  -27.6500  -37.2860   24.5450 C   0  0  0  0  0  1  0  0  0  0  0  0
  -26.4870  -37.4170   23.6720 N   0  0  0  0  0  0  0  0  0  0  0  0
  -26.0760  -38.3340   23.8280 H   0  0  0  0  0  0  0  0  0  0  0  0
  -26.4950  -31.7350   25.0910 C   0  0  1  0  0  0  0  0  0  0  0  0
  -25.3990  -31.4850   26.1540 C   0  0  0  0  0  1  0  0  0  0  0  0
  -27.0920  -30.3630   24.7030 C   0  0  0  0  0  1  0  0  0  0  0  0
  -27.6360  -32.5360   25.7610 C   0  0  0  0  0  1  0  0  0  0  0  0
  1  7  2  0
  2  1  1  0
  3  5  1  0
  4  3  1  0
  4  6  1  0
  5 17  1  0
  5  1  1  0
  6  8  1  1
  6  2  1  0
  9 17  1  0
 10 15  1  0
 11 12  1  0
 11 10  1  0
 13 12  1  0
 13 22  1  0
 13 14  1  0
 15  9  1  0
 15 14  1  0
 16  9  2  0
 17 18  1  0
 19 20  2  0
 20 39  1  0
 21 20  1  0
 21 24  1  0
 22 23  1  0
 22 19  1  0
 23 21  2  0
 24 25  1  0
 25 26  2  0
 27 30  1  0
 27 26  1  0
 28 27  2  0
 29 28  1  0
 29 24  2  0
 30 31  1  0
 31 36  2  0
 31 32  1  0
 32 33  2  0
 33 34  1  0
 34 38  1  0
 35 34  2  0
 36 35  1  0
 37 36  1  0
 39 40  1  0
 40 43  1  0
 40 42  1  0
 41 39  2  0
 44 19  1  0
 44 45  1  0
 46 44  1  0
 47  6  1  0
 48 47  2  0
 48 49  1  0
 50 61  2  0
 51 49  1  0
 51 56  1  0
 52 60  1  0
 52 62  1  0
 53 59  1  0
 53 55  1  0
 54 60  1  0
 55 54  1  0
 56 55  2  0
 57 51  2  0
 58 57  1  0
 58 53  2  0
 59 52  1  0
 60 50  1  0
 62 64  2  0
 63 62  1  0
 65 63  1  0
 66 75  2  0
 66 71  1  0
 67 63  1  0
 67 71  1  0
 68 67  1  0
 69 70  1  0
 69 68  1  0
 70 66  1  0
 71 72  2  0
 72 73  1  0
 74 73  2  0
 75 74  1  0
 76 50  1  0
 76 77  1  0
 76 86  1  0
 77 80  1  0
 78 82  1  0
 78 77  1  0
 79 78  2  0
 82 81  1  0
 84 85  1  0
 84 82  1  0
 84 83  1  0
 86 89  1  1
 86 87  1  0
 88 86  1  0
M  ISO  4   9 100  17 100  48 101  49 101
M  END
>  <TORSDO>  (74) 
F 18

>  <SCORE>  (74) 
-14.078

>  <name>  (74) 
75

>  <ligand_id>  (74) 
75

>  <original_smiles>  (74) 
[H]c1c([H])c([H])c2c(c1[H])C([H])([H])C([H])([H])C([H])([H])C2([H])N([H])C(=O)C1([H])N(C(=O)C([H])(N([H])C(=O)C([H])(N([H])C([H])([H])[H])C([H])([H])[H])C(C([H])([H])[H])(C([H])([H])[H])C([H])([H])[H])C([H])([H])c2c([H])c(OC([H])([H])C([H])([H])[N+]3([H])C([H])([H])C(=O)C([H])(N([H])C(=O)N4C([H])([H])C([H])([H])C([H])([H])C([H])(n5nc(-c6c([H])c([H])c(Oc7c([H])c([H])c(F)c([H])c7F)c([H])c6[H])c(C(=O)N([H])[H])c5N([H])[H])C4([H])[H])C([H])([H])C3([H])[H])c([H])c([H])c2C1([H])[H]

>  <smiles>  (74) 
[H]c1c([H])c([H])c2c(c1[H])C([H])([H])C([H])([H])C([H])([H])C2([H])N([H])C(=O)C1([H])N(C(=O)C([H])(N([H])C(=O)C([H])(N([H])C([H])([H])[H])C([H])([H])[H])C(C([H])([H])[H])(C([H])([H])[H])C([H])([H])[H])C([H])([H])c2c([H])c(OC([H])([H])C([H])([H])[N+]3([H])C([H])([H])C(=O)C([H])(N([H])C(=O)N4C([H])([H])C([H])([H])C([H])([H])C([H])(n5nc(-c6c([H])c([H])c(Oc7c([H])c([H])c(F)c([H])c7F)c([H])c6[H])c(C(=O)N([H])[H])c5N([H])[H])C4([H])[H])C([H])([H])C3([H])[H])c([H])c([H])c2C1([H])[H]

$$$$
76:0:0
     RDKit          3D

 88 96  0  0  1  0  0  0  0  0999 V2000
  -27.4270  -22.6360   20.0560 C   0  0  0  0  0  2  0  0  0  0  0  0
  -28.8810  -22.3090   20.2480 C   0  0  0  0  0  3  0  0  0  0  0  0
  -28.3980  -23.7770   19.7960 C   0  0  0  0  0  3  0  0  0  0  0  0
  -29.5850  -21.2240   19.3250 C   0  0  0  0  0  0  0  0  0  0  0  0
  -30.0040  -21.8620   18.0160 C   0  0  0  0  0  1  0  0  0  0  0  0
  -29.8840  -19.9450   19.4230 N   0  0  0  0  0  0  0  0  0  0  0  0
  -30.2850  -19.2860   21.7910 C   0  0  0  0  0  1  0  0  0  0  0  0
  -29.6610  -18.8750   20.4500 C   0  0  0  0  0  3  0  0  0  0  0  0
  -30.2730  -17.4650   19.9440 C   0  0  0  0  0  3  0  0  0  0  0  0
  -29.9640  -16.0630   20.6800 C   0  0  0  0  0  3  0  0  0  0  0  0
  -30.6760  -14.7340   20.1490 C   0  0  0  0  0  0  0  0  0  0  0  0
  -30.3920  -12.5040   19.0610 C   0  0  0  0  0  2  0  0  0  0  0  0
  -29.4080  -12.6560   17.8800 C   0  0  0  0  0  2  0  0  0  0  0  0
  -27.9500  -12.5060   18.3580 C   0  0  0  0  0  2  0  0  0  0  0  0
  -27.6490  -13.3520   19.6250 C   0  0  0  0  0  3  0  0  0  0  0  0
  -28.7470  -13.1860   20.6980 C   0  0  0  0  0  2  0  0  0  0  0  0
  -30.0360  -13.5190   20.0760 N   0  0  0  0  0  0  0  0  0  0  0  0
  -31.8170  -14.8430   19.6900 O   0  0  0  0  0  0  0  0  0  0  0  0
  -25.2920  -13.9660   20.4370 C   0  0  0  0  0  0  0  0  0  0  0  0
  -24.2320  -13.2020   20.8410 C   0  0  0  0  0  0  0  0  0  0  0  0
  -24.6790  -11.8450   20.7850 C   0  0  0  0  0  0  0  0  0  0  0  0
  -26.3190  -13.0780   20.1580 N   0  0  0  0  0  0  0  0  0  0  0  0
  -25.9570  -11.7970   20.4280 N   0  0  0  0  0  0  0  0  0  0  0  0
  -23.9460  -10.5890   20.9950 C   0  0  0  0  0  0  0  0  0  0  0  0
  -24.4060   -9.6090   21.9030 C   0  0  0  0  0  3  0  0  0  0  0  0
  -23.6750   -8.4190   22.1010 C   0  0  0  0  0  3  0  0  0  0  0  0
  -22.4680   -8.1990   21.3940 C   0  0  0  0  0  0  0  0  0  0  0  0
  -22.0280   -9.1670   20.4740 C   0  0  0  0  0  3  0  0  0  0  0  0
  -22.7600  -10.3510   20.2730 C   0  0  0  0  0  3  0  0  0  0  0  0
  -21.7070   -7.0600   21.4990 O   0  0  0  0  0  0  0  0  0  0  0  0
  -21.6960   -6.3060   22.6450 C   0  0  0  0  0  0  0  0  0  0  0  0
  -21.3440   -6.8570   23.8970 C   0  0  0  0  0  3  0  0  0  0  0  0
  -21.2800   -6.0300   25.0370 C   0  0  0  0  0  3  0  0  0  0  0  0
  -21.5550   -4.6550   24.9260 C   0  0  0  0  0  0  0  0  0  0  0  0
  -21.9010   -4.1030   23.6800 C   0  0  0  0  0  3  0  0  0  0  0  0
  -21.9680   -4.9270   22.5430 C   0  0  0  0  0  0  0  0  0  0  0  0
  -22.2800   -4.3860   21.3400 F   0  0  0  0  0  0  0  0  0  0  0  0
  -21.4870   -3.8590   26.0200 F   0  0  0  0  0  0  0  0  0  0  0  0
  -22.8490  -13.6910   21.1640 C   0  0  0  0  0  0  0  0  0  0  0  0
  -22.1500  -13.0030   22.0570 N   0  0  0  0  0  0  0  0  0  0  0  0
  -22.4030  -14.7210   20.6600 O   0  0  0  0  0  0  0  0  0  0  0  0
  -22.5290  -12.1730   22.4900 H   0  0  0  0  0  0  0  0  0  0  0  0
  -21.2210  -13.3060   22.3090 H   0  0  0  0  0  0  0  0  0  0  0  0
  -25.4640  -15.3370   20.2610 N   0  0  0  0  0  0  0  0  0  0  0  0
  -24.7060  -15.9970   20.3980 H   0  0  0  0  0  0  0  0  0  0  0  0
  -26.3060  -15.7750   19.9070 H   0  0  0  0  0  0  0  0  0  0  0  0
  -28.2250  -25.0920   20.6690 C   0  0  0  0  0  2  0  0  0  0  0  0
  -28.3550  -26.4680   20.1070 O   0  0  0  0  0  0  0  0  0  0  0  0
  -24.6320  -31.8590   23.1990 C   0  0  0  0  0  0  0  0  0  0  0  0
  -27.2350  -27.3130   20.1150 C   0  0  0  0  0  0  0  0  0  0  0  0
  -23.4230  -30.4720   21.5520 C   0  0  0  0  0  3  0  0  0  0  0  0
  -24.8710  -28.9250   20.1120 C   0  0  0  0  0  0  0  0  0  0  0  0
  -25.9610  -30.7910   21.3610 C   0  0  0  0  0  2  0  0  0  0  0  0
  -26.0410  -29.4130   20.7090 C   0  0  0  0  0  0  0  0  0  0  0  0
  -27.2290  -28.6210   20.6950 C   0  0  0  0  0  3  0  0  0  0  0  0
  -26.0440  -26.8710   19.5050 C   0  0  0  0  0  3  0  0  0  0  0  0
  -24.8760  -27.6610   19.4980 C   0  0  0  0  0  3  0  0  0  0  0  0
  -23.6350  -29.8020   20.1670 C   0  0  0  0  0  2  0  0  0  0  0  0
  -24.6910  -31.0590   22.0940 N   0  0  0  0  0  0  0  0  0  0  0  0
  -23.5500  -32.1320   23.7380 O   0  0  0  0  0  0  0  0  0  0  0  0
  -22.7640  -29.4490   22.5100 C   0  0  0  0  0  0  0  0  0  0  0  0
  -21.4380  -29.2680   22.3800 N   0  0  0  0  0  0  0  0  0  0  0  0
  -23.4460  -28.8210   23.3260 O   0  0  0  0  0  0  0  0  0  0  0  0
  -20.9500  -29.8300   21.6960 H   0  0  0  0  0  0  0  0  0  0  0  0
  -18.0680  -28.0390   22.8530 C   0  0  0  0  0  0  0  0  0  0  0  0
  -20.6220  -28.3240   23.1450 C   0  0  0  0  0  3  0  0  0  0  0  0
  -20.7430  -26.8930   22.5720 C   0  0  0  0  0  2  0  0  0  0  0  0
  -19.6530  -26.5580   21.5490 C   0  0  0  0  0  2  0  0  0  0  0  0
  -18.2640  -26.6900   22.1810 C   0  0  0  0  0  2  0  0  0  0  0  0
  -19.1760  -28.8120   23.2910 C   0  0  0  0  0  0  0  0  0  0  0  0
  -18.9400  -30.0750   23.8800 C   0  0  0  0  0  3  0  0  0  0  0  0
  -17.6290  -30.5620   24.0350 C   0  0  0  0  0  3  0  0  0  0  0  0
  -16.5350  -29.7860   23.6110 C   0  0  0  0  0  3  0  0  0  0  0  0
  -16.7560  -28.5270   23.0260 C   0  0  0  0  0  3  0  0  0  0  0  0
  -25.9150  -32.4890   23.8240 C   0  0  0  0  0  3  0  0  0  0  0  0
  -25.6040  -33.8810   24.1750 N   0  0  0  0  0  0  0  0  0  0  0  0
  -25.9270  -34.9460   23.4290 C   0  0  0  0  0  0  0  0  0  0  0  0
  -26.5880  -34.8590   22.3900 O   0  0  0  0  0  0  0  0  0  0  0  0
  -25.0180  -34.0230   24.9840 H   0  0  0  0  0  0  0  0  0  0  0  0
  -24.1870  -36.7370   23.1180 C   0  0  0  0  0  1  0  0  0  0  0  0
  -25.4390  -36.3260   23.9100 C   0  0  0  0  0  3  0  0  0  0  0  0
  -27.5810  -37.2070   24.7260 C   0  0  0  0  0  1  0  0  0  0  0  0
  -26.4660  -37.3860   23.7980 N   0  0  0  0  0  0  0  0  0  0  0  0
  -26.0590  -38.3020   23.9650 H   0  0  0  0  0  0  0  0  0  0  0  0
  -26.4390  -31.7020   25.0880 C   0  0  1  0  0  0  0  0  0  0  0  0
  -25.3520  -31.4510   26.1610 C   0  0  0  0  0  1  0  0  0  0  0  0
  -27.0200  -30.3300   24.6750 C   0  0  0  0  0  1  0  0  0  0  0  0
  -27.5930  -32.4890   25.7530 C   0  0  0  0  0  1  0  0  0  0  0  0
  1  2  1  0
  2  4  1  0
  3  1  1  0
  3  2  1  0
  3 47  1  0
  4  6  2  0
  5  4  1  0
  6  8  1  0
  8  7  1  0
  9  8  1  0
  9 10  2  0
 11 10  1  0
 12 17  1  0
 13 14  1  0
 13 12  1  0
 15 14  1  0
 15 22  1  0
 15 16  1  0
 17 11  1  0
 17 16  1  0
 18 11  2  0
 19 20  2  0
 20 39  1  0
 21 20  1  0
 21 24  1  0
 22 23  1  0
 22 19  1  0
 23 21  2  0
 24 25  1  0
 25 26  2  0
 27 30  1  0
 27 26  1  0
 28 27  2  0
 29 28  1  0
 29 24  2  0
 30 31  1  0
 31 32  1  0
 32 33  2  0
 34 33  1  0
 34 38  1  0
 35 34  2  0
 36 31  2  0
 36 35  1  0
 37 36  1  0
 39 40  1  0
 40 43  1  0
 40 42  1  0
 41 39  2  0
 44 45  1  0
 44 19  1  0
 46 44  1  0
 48 50  1  0
 48 47  1  0
 49 60  2  0
 50 55  1  0
 51 59  1  0
 51 61  1  0
 52 58  1  0
 52 54  1  0
 53 59  1  0
 54 53  1  0
 55 54  2  0
 56 50  2  0
 57 56  1  0
 57 52  2  0
 58 51  1  0
 59 49  1  0
 61 63  2  0
 62 61  1  0
 64 62  1  0
 65 74  2  0
 65 70  1  0
 66 62  1  0
 66 70  1  0
 67 66  1  0
 68 69  1  0
 68 67  1  0
 69 65  1  0
 70 71  2  0
 71 72  1  0
 73 72  2  0
 74 73  1  0
 75 49  1  0
 75 76  1  0
 75 85  1  0
 76 79  1  0
 77 81  1  0
 77 76  1  0
 78 77  2  0
 81 80  1  0
 83 81  1  0
 83 84  1  0
 83 82  1  0
 85 88  1  1
 85 86  1  0
 87 85  1  0
M  ISO  4  10 100  11 100  47 101  48 101
M  END
>  <TORSDO>  (75) 
F 21

>  <SCORE>  (75) 
-13.120

>  <name>  (75) 
76

>  <ligand_id>  (75) 
76

>  <original_smiles>  (75) 
[H]c1c([H])c([H])c2c(c1[H])C([H])([H])C([H])([H])C([H])([H])C2([H])N([H])C(=O)C1([H])N(C(=O)C([H])(N([H])C(=O)C([H])(N([H])C([H])([H])[H])C([H])([H])[H])C(C([H])([H])[H])(C([H])([H])[H])C([H])([H])[H])C([H])([H])c2c([H])c(OC([H])([H])C3([H])C([H])([H])C3([H])C(=NC([H])(C([H])([H])[H])C([H])([H])C([H])([H])C(=O)N3C([H])([H])C([H])([H])C([H])([H])C([H])(n4nc(-c5c([H])c([H])c(Oc6c([H])c([H])c(F)c([H])c6F)c([H])c5[H])c(C(=O)N([H])[H])c4N([H])[H])C3([H])[H])C([H])([H])[H])c([H])c([H])c2C1([H])[H]

>  <smiles>  (75) 
[H]c1c([H])c([H])c2c(c1[H])C([H])([H])C([H])([H])C([H])([H])C2([H])N([H])C(=O)C1([H])N(C(=O)C([H])(N([H])C(=O)C([H])(N([H])C([H])([H])[H])C([H])([H])[H])C(C([H])([H])[H])(C([H])([H])[H])C([H])([H])[H])C([H])([H])c2c([H])c(OC([H])([H])C3([H])C([H])([H])C3([H])C(=NC([H])(C([H])([H])[H])C([H])([H])C([H])([H])C(=O)N3C([H])([H])C([H])([H])C([H])([H])C([H])(n4nc(-c5c([H])c([H])c(Oc6c([H])c([H])c(F)c([H])c6F)c([H])c5[H])c(C(=O)N([H])[H])c4N([H])[H])C3([H])[H])C([H])([H])[H])c([H])c([H])c2C1([H])[H]

$$$$
77:0:0
     RDKit          3D

 91 99  0  0  1  0  0  0  0  0999 V2000
  -27.9460  -24.0700   20.2480 C   0  0  0  0  0  2  0  0  0  0  0  0
  -30.0010  -25.0540   19.4880 C   0  0  0  0  0  2  0  0  0  0  0  0
  -28.8790  -22.9450   19.7020 C   0  0  0  0  0  3  0  0  0  0  0  0
  -28.4910  -25.3640   19.5740 C   0  0  0  0  0  3  0  0  0  0  0  0
  -31.2360  -22.9840   18.8640 C   0  0  0  0  0  1  0  0  0  0  0  0
  -30.2070  -23.5980   19.7330 N   0  0  1  0  0  4  0  0  0  0  0  0
  -30.5400  -23.5150   20.6830 H   0  0  0  0  0  0  0  0  0  0  0  0
  -28.8620  -21.5590   20.4110 C   0  0  0  0  0  3  0  0  0  0  0  0
  -29.0920  -20.3590   19.8030 C   0  0  0  0  0  3  0  0  0  0  0  0
  -29.0450  -18.9350   20.4120 C   0  0  0  0  0  2  0  0  0  0  0  0
  -30.7200  -17.1530   20.8100 C   0  0  0  0  0  0  0  0  0  0  0  0
  -32.1480  -16.9270   21.2800 C   0  0  0  0  0  1  0  0  0  0  0  0
  -30.3890  -18.4000   20.6550 N   0  0  0  0  0  0  0  0  0  0  0  0
  -29.8590  -15.8450   20.6710 C   0  0  0  0  0  2  0  0  0  0  0  0
  -30.5550  -14.5760   20.0300 C   0  0  0  0  0  0  0  0  0  0  0  0
  -30.2340  -12.3700   18.9310 C   0  0  0  0  0  2  0  0  0  0  0  0
  -29.2320  -12.5430   17.7690 C   0  0  0  0  0  2  0  0  0  0  0  0
  -27.7850  -12.3890   18.2730 C   0  0  0  0  0  2  0  0  0  0  0  0
  -27.5020  -13.2380   19.5410 C   0  0  0  0  0  3  0  0  0  0  0  0
  -28.6150  -13.0620   20.5970 C   0  0  0  0  0  2  0  0  0  0  0  0
  -29.9020  -13.3740   19.9620 N   0  0  0  0  0  0  0  0  0  0  0  0
  -31.6500  -14.7030   19.4750 O   0  0  0  0  0  0  0  0  0  0  0  0
  -25.1510  -13.8370   20.3900 C   0  0  0  0  0  0  0  0  0  0  0  0
  -24.1050  -13.0630   20.8150 C   0  0  0  0  0  0  0  0  0  0  0  0
  -24.5640  -11.7120   20.7530 C   0  0  0  0  0  0  0  0  0  0  0  0
  -26.1800  -12.9570   20.0940 N   0  0  0  0  0  0  0  0  0  0  0  0
  -25.8350  -11.6730   20.3720 N   0  0  0  0  0  0  0  0  0  0  0  0
  -23.8490  -10.4480   20.9790 C   0  0  0  0  0  0  0  0  0  0  0  0
  -24.3220   -9.4850   21.8970 C   0  0  0  0  0  3  0  0  0  0  0  0
  -23.6070   -8.2870   22.1100 C   0  0  0  0  0  3  0  0  0  0  0  0
  -22.4040   -8.0420   21.4040 C   0  0  0  0  0  0  0  0  0  0  0  0
  -21.9510   -8.9940   20.4730 C   0  0  0  0  0  3  0  0  0  0  0  0
  -22.6670  -10.1840   20.2580 C   0  0  0  0  0  3  0  0  0  0  0  0
  -21.6570   -6.8960   21.5260 O   0  0  0  0  0  0  0  0  0  0  0  0
  -21.6510   -6.1600   22.6840 C   0  0  0  0  0  0  0  0  0  0  0  0
  -21.2730   -6.7240   23.9220 C   0  0  0  0  0  3  0  0  0  0  0  0
  -21.2150   -5.9160   25.0760 C   0  0  0  0  0  3  0  0  0  0  0  0
  -21.5230   -4.5460   24.9910 C   0  0  0  0  0  0  0  0  0  0  0  0
  -21.8950   -3.9820   23.7580 C   0  0  0  0  0  3  0  0  0  0  0  0
  -21.9560   -4.7860   22.6070 C   0  0  0  0  0  0  0  0  0  0  0  0
  -22.2950   -4.2340   21.4170 F   0  0  0  0  0  0  0  0  0  0  0  0
  -21.4600   -3.7660   26.0960 F   0  0  0  0  0  0  0  0  0  0  0  0
  -22.7260  -13.5390   21.1650 C   0  0  0  0  0  0  0  0  0  0  0  0
  -22.0460  -12.8380   22.0660 N   0  0  0  0  0  0  0  0  0  0  0  0
  -22.2600  -14.5680   20.6740 O   0  0  0  0  0  0  0  0  0  0  0  0
  -22.4370  -12.0060   22.4820 H   0  0  0  0  0  0  0  0  0  0  0  0
  -21.1210  -13.1380   22.3440 H   0  0  0  0  0  0  0  0  0  0  0  0
  -25.3080  -15.2080   20.2100 N   0  0  0  0  0  0  0  0  0  0  0  0
  -24.5510  -15.8640   20.3640 H   0  0  0  0  0  0  0  0  0  0  0  0
  -26.1400  -15.6460   19.8360 H   0  0  0  0  0  0  0  0  0  0  0  0
  -28.3400  -26.6600   20.2260 O   0  0  0  0  0  0  0  0  0  0  0  0
  -24.6080  -31.9220   23.2880 C   0  0  0  0  0  0  0  0  0  0  0  0
  -27.1700  -27.4100   20.1760 C   0  0  0  0  0  0  0  0  0  0  0  0
  -23.3730  -30.5400   21.6510 C   0  0  0  0  0  3  0  0  0  0  0  0
  -24.7970  -28.9840   20.2040 C   0  0  0  0  0  0  0  0  0  0  0  0
  -25.9050  -30.8560   21.4360 C   0  0  0  0  0  2  0  0  0  0  0  0
  -25.9660  -29.4820   20.7890 C   0  0  0  0  0  0  0  0  0  0  0  0
  -27.1510  -28.7030   20.7710 C   0  0  0  0  0  3  0  0  0  0  0  0
  -25.9780  -26.9400   19.5800 C   0  0  0  0  0  3  0  0  0  0  0  0
  -24.8010  -27.7160   19.5950 C   0  0  0  0  0  3  0  0  0  0  0  0
  -23.5640  -29.8620   20.2670 C   0  0  0  0  0  2  0  0  0  0  0  0
  -24.6480  -31.1220   22.1830 N   0  0  0  0  0  0  0  0  0  0  0  0
  -23.5340  -32.2040   23.8380 O   0  0  0  0  0  0  0  0  0  0  0  0
  -22.7170  -29.5240   22.6150 C   0  0  0  0  0  0  0  0  0  0  0  0
  -21.3910  -29.3440   22.4850 N   0  0  0  0  0  0  0  0  0  0  0  0
  -23.3970  -28.9020   23.4340 O   0  0  0  0  0  0  0  0  0  0  0  0
  -20.9040  -29.8980   21.7950 H   0  0  0  0  0  0  0  0  0  0  0  0
  -18.0200  -28.1280   22.9550 C   0  0  0  0  0  0  0  0  0  0  0  0
  -20.5720  -28.4080   23.2560 C   0  0  0  0  0  3  0  0  0  0  0  0
  -20.6920  -26.9720   22.6960 C   0  0  0  0  0  2  0  0  0  0  0  0
  -19.6060  -26.6310   21.6720 C   0  0  0  0  0  2  0  0  0  0  0  0
  -18.2150  -26.7730   22.2970 C   0  0  0  0  0  2  0  0  0  0  0  0
  -19.1280  -28.9030   23.3910 C   0  0  0  0  0  0  0  0  0  0  0  0
  -18.8920  -30.1710   23.9650 C   0  0  0  0  0  3  0  0  0  0  0  0
  -17.5810  -30.6650   24.1080 C   0  0  0  0  0  3  0  0  0  0  0  0
  -16.4890  -29.8870   23.6890 C   0  0  0  0  0  3  0  0  0  0  0  0
  -16.7080  -28.6200   23.1180 C   0  0  0  0  0  3  0  0  0  0  0  0
  -25.9060  -32.5370   23.9010 C   0  0  0  0  0  3  0  0  0  0  0  0
  -26.4170  -31.7640   25.1770 C   0  0  1  0  0  0  0  0  0  0  0  0
  -25.3280  -31.5470   26.2520 C   0  0  0  0  0  1  0  0  0  0  0  0
  -26.9780  -30.3770   24.7860 C   0  0  0  0  0  1  0  0  0  0  0  0
  -27.5850  -32.5430   25.8290 C   0  0  0  0  0  1  0  0  0  0  0  0
  -25.6190  -33.9410   24.2260 N   0  0  0  0  0  0  0  0  0  0  0  0
  -25.9520  -34.9840   23.4540 C   0  0  0  0  0  0  0  0  0  0  0  0
  -26.6040  -34.8660   22.4120 O   0  0  0  0  0  0  0  0  0  0  0  0
  -25.0390  -34.1080   25.0350 H   0  0  0  0  0  0  0  0  0  0  0  0
  -24.2290  -36.7880   23.1280 C   0  0  0  0  0  1  0  0  0  0  0  0
  -25.4890  -36.3820   23.9100 C   0  0  0  0  0  3  0  0  0  0  0  0
  -27.6540  -37.2570   24.6680 C   0  0  0  0  0  1  0  0  0  0  0  0
  -26.5260  -37.4250   23.7550 N   0  0  0  0  0  0  0  0  0  0  0  0
  -26.1330  -38.3510   23.9050 H   0  0  0  0  0  0  0  0  0  0  0  0
  2  4  1  0
  2  6  1  0
  3  6  1  0
  3  1  1  0
  3  8  1  0
  4 51  1  0
  4  1  1  0
  5  6  1  0
  6  7  1  1
  9  8  2  0
  9 10  1  0
 10 13  1  0
 11 12  1  0
 13 11  2  0
 14 11  1  0
 15 14  1  0
 16 21  1  0
 17 18  1  0
 17 16  1  0
 19 18  1  0
 19 26  1  0
 19 20  1  0
 21 15  1  0
 21 20  1  0
 22 15  2  0
 23 24  2  0
 24 43  1  0
 25 24  1  0
 25 28  1  0
 26 27  1  0
 26 23  1  0
 27 25  2  0
 28 29  1  0
 29 30  2  0
 31 34  1  0
 31 30  1  0
 32 31  2  0
 33 32  1  0
 33 28  2  0
 34 35  1  0
 35 36  1  0
 36 37  2  0
 38 37  1  0
 38 42  1  0
 39 38  2  0
 40 35  2  0
 40 39  1  0
 41 40  1  0
 43 44  1  0
 44 47  1  0
 44 46  1  0
 45 43  2  0
 48 49  1  0
 48 23  1  0
 50 48  1  0
 52 63  2  0
 53 51  1  0
 53 58  1  0
 54 62  1  0
 54 64  1  0
 55 61  1  0
 55 57  1  0
 56 62  1  0
 57 56  1  0
 58 57  2  0
 59 60  1  0
 59 53  2  0
 60 55  2  0
 61 54  1  0
 62 52  1  0
 64 66  2  0
 65 64  1  0
 67 65  1  0
 68 77  2  0
 68 73  1  0
 69 65  1  0
 69 73  1  0
 70 69  1  0
 71 72  1  0
 71 70  1  0
 72 68  1  0
 73 74  2  0
 74 75  1  0
 76 75  2  0
 77 76  1  0
 78 52  1  0
 78 83  1  0
 78 79  1  0
 79 82  1  1
 79 80  1  0
 81 79  1  0
 83 86  1  0
 84 88  1  0
 84 83  1  0
 85 84  2  0
 88 87  1  0
 90 91  1  0
 90 88  1  0
 90 89  1  0
M  ISO  4   4 101  14 100  15 100  51 101
M  END
>  <TORSDO>  (76) 
F 20

>  <SCORE>  (76) 
-13.116

>  <name>  (76) 
77

>  <ligand_id>  (76) 
77

>  <original_smiles>  (76) 
[H]C(=C([H])C1([H])C([H])([H])C([H])(Oc2c([H])c([H])c3c(c2[H])C([H])([H])N(C(=O)C([H])(N([H])C(=O)C([H])(N([H])C([H])([H])[H])C([H])([H])[H])C(C([H])([H])[H])(C([H])([H])[H])C([H])([H])[H])C([H])(C(=O)N([H])C2([H])c4c([H])c([H])c([H])c([H])c4C([H])([H])C([H])([H])C2([H])[H])C3([H])[H])C([H])([H])[N+]1([H])C([H])([H])[H])C([H])([H])N=C(C([H])([H])[H])C([H])([H])C(=O)N1C([H])([H])C([H])([H])C([H])([H])C([H])(n2nc(-c3c([H])c([H])c(Oc4c([H])c([H])c(F)c([H])c4F)c([H])c3[H])c(C(=O)N([H])[H])c2N([H])[H])C1([H])[H]

>  <smiles>  (76) 
[H]C(=C([H])C1([H])C([H])([H])C([H])(Oc2c([H])c([H])c3c(c2[H])C([H])([H])N(C(=O)C([H])(N([H])C(=O)C([H])(N([H])C([H])([H])[H])C([H])([H])[H])C(C([H])([H])[H])(C([H])([H])[H])C([H])([H])[H])C([H])(C(=O)N([H])C2([H])c4c([H])c([H])c([H])c([H])c4C([H])([H])C([H])([H])C2([H])[H])C3([H])[H])C([H])([H])[N+]1([H])C([H])([H])[H])C([H])([H])N=C(C([H])([H])[H])C([H])([H])C(=O)N1C([H])([H])C([H])([H])C([H])([H])C([H])(n2nc(-c3c([H])c([H])c(Oc4c([H])c([H])c(F)c([H])c4F)c([H])c3[H])c(C(=O)N([H])[H])c2N([H])[H])C1([H])[H]

$$$$
78:0:0
     RDKit          3D

 85 93  0  0  1  0  0  0  0  0999 V2000
  -28.7130  -23.0250   20.4520 C   0  0  0  0  0  3  0  0  0  0  0  0
  -28.1290  -24.3080   19.9650 C   0  0  0  0  0  2  0  0  0  0  0  0
  -29.8220  -22.3110   19.6920 C   0  0  0  0  0  2  0  0  0  0  0  0
  -28.7960  -21.2770   20.0070 C   0  0  0  0  0  3  0  0  0  0  0  0
  -28.1800  -25.8040   20.3630 O   0  0  0  0  0  0  0  0  0  0  0  0
  -24.6380  -31.8530   23.1980 C   0  0  0  0  0  0  0  0  0  0  0  0
  -27.1820  -26.9210   20.2200 C   0  0  0  0  0  0  0  0  0  0  0  0
  -23.4410  -30.4460   21.5690 C   0  0  0  0  0  3  0  0  0  0  0  0
  -24.8890  -28.8270   20.1490 C   0  0  0  0  0  0  0  0  0  0  0  0
  -26.0080  -30.6450   21.4240 C   0  0  0  0  0  2  0  0  0  0  0  0
  -26.0740  -29.2270   20.7770 C   0  0  0  0  0  0  0  0  0  0  0  0
  -27.2090  -28.2920   20.7920 C   0  0  0  0  0  3  0  0  0  0  0  0
  -25.9720  -26.6850   19.5290 C   0  0  0  0  0  3  0  0  0  0  0  0
  -24.8640  -27.5790   19.5040 C   0  0  0  0  0  3  0  0  0  0  0  0
  -23.6710  -29.7530   20.1950 C   0  0  0  0  0  2  0  0  0  0  0  0
  -24.7180  -31.0090   22.1170 N   0  0  0  0  0  0  0  0  0  0  0  0
  -23.5490  -32.1480   23.7180 O   0  0  0  0  0  0  0  0  0  0  0  0
  -22.7440  -29.4610   22.5420 C   0  0  0  0  0  0  0  0  0  0  0  0
  -21.4120  -29.3040   22.4260 N   0  0  0  0  0  0  0  0  0  0  0  0
  -23.4100  -28.8350   23.3710 O   0  0  0  0  0  0  0  0  0  0  0  0
  -20.9270  -29.8590   21.7340 H   0  0  0  0  0  0  0  0  0  0  0  0
  -18.0280  -28.1070   22.9550 C   0  0  0  0  0  0  0  0  0  0  0  0
  -20.5890  -28.3730   23.2060 C   0  0  0  0  0  3  0  0  0  0  0  0
  -20.6850  -26.9370   22.6390 C   0  0  0  0  0  2  0  0  0  0  0  0
  -19.5810  -26.6100   21.6300 C   0  0  0  0  0  2  0  0  0  0  0  0
  -18.2020  -26.7560   22.2800 C   0  0  0  0  0  2  0  0  0  0  0  0
  -19.1480  -28.8730   23.3750 C   0  0  0  0  0  0  0  0  0  0  0  0
  -18.9280  -30.1330   23.9710 C   0  0  0  0  0  3  0  0  0  0  0  0
  -17.6240  -30.6310   24.1460 C   0  0  0  0  0  3  0  0  0  0  0  0
  -16.5190  -29.8630   23.7390 C   0  0  0  0  0  3  0  0  0  0  0  0
  -16.7210  -28.6020   23.1510 C   0  0  0  0  0  3  0  0  0  0  0  0
  -25.9100  -32.4990   23.8260 C   0  0  0  0  0  3  0  0  0  0  0  0
  -25.5900  -33.8960   24.1680 N   0  0  0  0  0  0  0  0  0  0  0  0
  -25.9100  -34.9630   23.4220 C   0  0  0  0  0  0  0  0  0  0  0  0
  -26.5690  -34.8730   22.3830 O   0  0  0  0  0  0  0  0  0  0  0  0
  -25.0030  -34.0390   24.9770 H   0  0  0  0  0  0  0  0  0  0  0  0
  -24.1680  -36.7550   23.1200 C   0  0  0  0  0  1  0  0  0  0  0  0
  -25.4270  -36.3460   23.9030 C   0  0  0  0  0  3  0  0  0  0  0  0
  -27.5730  -37.2380   24.6990 C   0  0  0  0  0  1  0  0  0  0  0  0
  -26.4530  -37.4050   23.7780 N   0  0  0  0  0  0  0  0  0  0  0  0
  -26.0460  -38.3230   23.9380 H   0  0  0  0  0  0  0  0  0  0  0  0
  -26.4260  -31.7340   25.1090 C   0  0  1  0  0  0  0  0  0  0  0  0
  -25.3310  -31.5040   26.1780 C   0  0  0  0  0  1  0  0  0  0  0  0
  -27.0090  -30.3520   24.7340 C   0  0  0  0  0  1  0  0  0  0  0  0
  -27.5780  -32.5290   25.7670 C   0  0  0  0  0  1  0  0  0  0  0  0
  -29.2160  -19.6800   20.7470 C   0  0  0  0  0  2  0  0  0  0  0  0
  -29.8310  -18.0650   20.1760 C   0  0  0  0  0  0  0  0  0  0  0  0
  -30.8550  -18.3300   19.0910 C   0  0  0  0  0  1  0  0  0  0  0  0
  -29.6350  -16.7030   20.5630 N   0  0  0  0  0  0  0  0  0  0  0  0
  -30.4010  -15.3720   20.2320 C   0  0  0  0  0  0  0  0  0  0  0  0
  -30.3820  -12.8970   19.3800 C   0  0  0  0  0  2  0  0  0  0  0  0
  -29.4670  -12.6790   18.1450 C   0  0  0  0  0  2  0  0  0  0  0  0
  -28.0240  -12.3890   18.5860 C   0  0  0  0  0  2  0  0  0  0  0  0
  -27.5640  -13.3650   19.6960 C   0  0  0  0  0  3  0  0  0  0  0  0
  -28.6060  -13.5420   20.8230 C   0  0  0  0  0  2  0  0  0  0  0  0
  -29.8460  -14.0490   20.2120 N   0  0  0  0  0  0  0  0  0  0  0  0
  -31.5880  -15.3370   19.8880 O   0  0  0  0  0  0  0  0  0  0  0  0
  -25.1980  -13.9170   20.4590 C   0  0  0  0  0  0  0  0  0  0  0  0
  -24.1390  -13.1390   20.8340 C   0  0  0  0  0  0  0  0  0  0  0  0
  -24.6090  -11.7900   20.8100 C   0  0  0  0  0  0  0  0  0  0  0  0
  -26.2410  -13.0420   20.2130 N   0  0  0  0  0  0  0  0  0  0  0  0
  -25.9010  -11.7570   20.4930 N   0  0  0  0  0  0  0  0  0  0  0  0
  -23.8850  -10.5270   21.0100 C   0  0  0  0  0  0  0  0  0  0  0  0
  -24.3250   -9.5590   21.9390 C   0  0  0  0  0  3  0  0  0  0  0  0
  -23.5960   -8.3640   22.1290 C   0  0  0  0  0  3  0  0  0  0  0  0
  -22.4130   -8.1290   21.3890 C   0  0  0  0  0  0  0  0  0  0  0  0
  -21.9920   -9.0850   20.4480 C   0  0  0  0  0  3  0  0  0  0  0  0
  -22.7210  -10.2710   20.2570 C   0  0  0  0  0  3  0  0  0  0  0  0
  -21.6560   -6.9870   21.4870 O   0  0  0  0  0  0  0  0  0  0  0  0
  -21.6260   -6.2380   22.6370 C   0  0  0  0  0  0  0  0  0  0  0  0
  -21.2360   -6.7920   23.8760 C   0  0  0  0  0  3  0  0  0  0  0  0
  -21.1530   -5.9710   25.0190 C   0  0  0  0  0  3  0  0  0  0  0  0
  -21.4510   -4.5990   24.9240 C   0  0  0  0  0  0  0  0  0  0  0  0
  -21.8330   -4.0440   23.6890 C   0  0  0  0  0  3  0  0  0  0  0  0
  -21.9170   -4.8620   22.5490 C   0  0  0  0  0  0  0  0  0  0  0  0
  -22.2660   -4.3190   21.3580 F   0  0  0  0  0  0  0  0  0  0  0  0
  -21.3640   -3.8080   26.0190 F   0  0  0  0  0  0  0  0  0  0  0  0
  -22.7410  -13.6140   21.1030 C   0  0  0  0  0  0  0  0  0  0  0  0
  -22.0180  -12.9260   21.9780 N   0  0  0  0  0  0  0  0  0  0  0  0
  -22.3020  -14.6350   20.5720 O   0  0  0  0  0  0  0  0  0  0  0  0
  -22.3880  -12.1030   22.4300 H   0  0  0  0  0  0  0  0  0  0  0  0
  -21.0790  -13.2250   22.2010 H   0  0  0  0  0  0  0  0  0  0  0  0
  -25.3600  -15.2870   20.2770 N   0  0  0  0  0  0  0  0  0  0  0  0
  -24.6060  -15.9520   20.4100 H   0  0  0  0  0  0  0  0  0  0  0  0
  -26.2310  -15.7230   19.9980 H   0  0  0  0  0  0  0  0  0  0  0  0
  1  2  1  0
  2  5  1  0
  3  4  1  0
  3  1  1  0
  4  1  1  0
  4 46  1  0
  6 17  2  0
  7  5  1  0
  7 12  1  0
  8 16  1  0
  8 18  1  0
  9 15  1  0
  9 11  1  0
 10 16  1  0
 11 12  2  0
 11 10  1  0
 13  7  2  0
 14 13  1  0
 14  9  2  0
 15  8  1  0
 16  6  1  0
 18 20  2  0
 19 18  1  0
 21 19  1  0
 22 31  2  0
 22 27  1  0
 23 19  1  0
 23 27  1  0
 24 23  1  0
 25 26  1  0
 25 24  1  0
 26 22  1  0
 27 28  2  0
 28 29  1  0
 30 29  2  0
 31 30  1  0
 32  6  1  0
 32 33  1  0
 32 42  1  0
 33 36  1  0
 34 38  1  0
 34 33  1  0
 35 34  2  0
 38 37  1  0
 40 38  1  0
 40 41  1  0
 40 39  1  0
 42 45  1  1
 42 43  1  0
 44 42  1  0
 47 49  2  0
 47 46  1  0
 48 47  1  0
 50 49  1  0
 51 56  1  0
 52 53  1  0
 52 51  1  0
 54 53  1  0
 54 61  1  0
 54 55  1  0
 56 50  1  0
 56 55  1  0
 57 50  2  0
 58 59  2  0
 59 78  1  0
 60 59  1  0
 60 63  1  0
 61 58  1  0
 61 62  1  0
 62 60  2  0
 63 64  1  0
 64 65  2  0
 66 69  1  0
 66 65  1  0
 67 66  2  0
 68 67  1  0
 68 63  2  0
 69 70  1  0
 70 71  1  0
 71 72  2  0
 73 72  1  0
 73 77  1  0
 74 73  2  0
 75 70  2  0
 75 74  1  0
 76 75  1  0
 78 79  1  0
 79 82  1  0
 79 81  1  0
 80 78  2  0
 83 84  1  0
 83 58  1  0
 85 83  1  0
M  ISO  4   2 101   5 101  49 100  50 100
M  END
>  <TORSDO>  (77) 
F 18

>  <SCORE>  (77) 
-15.183

>  <name>  (77) 
78

>  <ligand_id>  (77) 
78

>  <original_smiles>  (77) 
[H]C(Oc1c([H])c([H])c2c(c1[H])C([H])([H])N(C(=O)C([H])(N([H])C(=O)C([H])(N([H])C([H])([H])[H])C([H])([H])[H])C(C([H])([H])[H])(C([H])([H])[H])C([H])([H])[H])C([H])(C(=O)N([H])C1([H])c3c([H])c([H])c([H])c([H])c3C([H])([H])C([H])([H])C1([H])[H])C2([H])[H])=C1C([H])([H])C1([H])C([H])([H])C(=NC(=O)N1C([H])([H])C([H])([H])C([H])([H])C([H])(n2nc(-c3c([H])c([H])c(Oc4c([H])c([H])c(F)c([H])c4F)c([H])c3[H])c(C(=O)N([H])[H])c2N([H])[H])C1([H])[H])C([H])([H])[H]

>  <smiles>  (77) 
[H]C(Oc1c([H])c([H])c2c(c1[H])C([H])([H])N(C(=O)C([H])(N([H])C(=O)C([H])(N([H])C([H])([H])[H])C([H])([H])[H])C(C([H])([H])[H])(C([H])([H])[H])C([H])([H])[H])C([H])(C(=O)N([H])C1([H])c3c([H])c([H])c([H])c([H])c3C([H])([H])C([H])([H])C1([H])[H])C2([H])[H])=C1C([H])([H])C1([H])C([H])([H])C(=NC(=O)N1C([H])([H])C([H])([H])C([H])([H])C([H])(n2nc(-c3c([H])c([H])c(Oc4c([H])c([H])c(F)c([H])c4F)c([H])c3[H])c(C(=O)N([H])[H])c2N([H])[H])C1([H])[H])C([H])([H])[H]

$$$$
79:0:0
     RDKit          3D

 90 97  0  0  1  0  0  0  0  0999 V2000
  -27.3150  -20.9500   21.0010 C   0  0  0  0  0  1  0  0  0  0  0  0
  -28.6220  -21.1520   20.2080 C   0  0  0  0  0  3  0  0  0  0  0  0
  -29.3090  -18.5930   20.1950 C   0  0  0  0  0  0  0  0  0  0  0  0
  -29.5450  -19.9460   20.3880 N   0  0  0  0  0  0  0  0  0  0  0  0
  -28.1850  -18.1680   19.9240 O   0  0  0  0  0  0  0  0  0  0  0  0
  -30.5030  -20.1720   20.6140 H   0  0  0  0  0  0  0  0  0  0  0  0
  -31.2920  -17.7310   18.9390 C   0  0  0  0  0  1  0  0  0  0  0  0
  -30.4800  -17.5170   20.2400 C   0  0  0  0  0  3  0  0  0  0  0  0
  -30.8050  -14.8940   20.2270 C   0  0  0  0  0  0  0  0  0  0  0  0
  -30.5450  -12.6480   19.1900 C   0  0  0  0  0  2  0  0  0  0  0  0
  -29.5950  -12.7580   17.9790 C   0  0  0  0  0  2  0  0  0  0  0  0
  -28.1300  -12.5990   18.4240 C   0  0  0  0  0  2  0  0  0  0  0  0
  -27.7770  -13.4760   19.6550 C   0  0  0  0  0  3  0  0  0  0  0  0
  -28.8490  -13.3690   20.7620 C   0  0  0  0  0  2  0  0  0  0  0  0
  -30.1410  -13.6950   20.1520 N   0  0  0  0  0  0  0  0  0  0  0  0
  -32.0050  -14.9450   19.9590 O   0  0  0  0  0  0  0  0  0  0  0  0
  -30.0610  -16.0510   20.3640 N   0  0  0  0  0  0  0  0  0  0  0  0
  -29.0740  -15.9210   20.5180 H   0  0  0  0  0  0  0  0  0  0  0  0
  -25.3990  -14.0720   20.4060 C   0  0  0  0  0  0  0  0  0  0  0  0
  -24.3350  -13.3000   20.7870 C   0  0  0  0  0  0  0  0  0  0  0  0
  -24.7970  -11.9500   20.7540 C   0  0  0  0  0  0  0  0  0  0  0  0
  -26.4400  -13.1910   20.1610 N   0  0  0  0  0  0  0  0  0  0  0  0
  -26.0850  -11.9090   20.4360 N   0  0  0  0  0  0  0  0  0  0  0  0
  -24.0710  -10.6880   20.9480 C   0  0  0  0  0  0  0  0  0  0  0  0
  -24.4830   -9.7340   21.9040 C   0  0  0  0  0  3  0  0  0  0  0  0
  -23.7540   -8.5390   22.0840 C   0  0  0  0  0  3  0  0  0  0  0  0
  -22.5970   -8.2890   21.3080 C   0  0  0  0  0  0  0  0  0  0  0  0
  -22.2030   -9.2310   20.3410 C   0  0  0  0  0  3  0  0  0  0  0  0
  -22.9340  -10.4170   20.1590 C   0  0  0  0  0  3  0  0  0  0  0  0
  -21.8440   -7.1420   21.3970 O   0  0  0  0  0  0  0  0  0  0  0  0
  -21.7450   -6.4340   22.5680 C   0  0  0  0  0  0  0  0  0  0  0  0
  -21.2160   -7.0100   23.7440 C   0  0  0  0  0  3  0  0  0  0  0  0
  -21.0640   -6.2270   24.9050 C   0  0  0  0  0  3  0  0  0  0  0  0
  -21.4330   -4.8690   24.8930 C   0  0  0  0  0  0  0  0  0  0  0  0
  -21.9550   -4.2920   23.7210 C   0  0  0  0  0  3  0  0  0  0  0  0
  -22.1060   -5.0730   22.5620 C   0  0  0  0  0  0  0  0  0  0  0  0
  -22.5900   -4.5050   21.4300 F   0  0  0  0  0  0  0  0  0  0  0  0
  -21.2820   -4.1140   26.0070 F   0  0  0  0  0  0  0  0  0  0  0  0
  -22.9400  -13.7820   21.0650 C   0  0  0  0  0  0  0  0  0  0  0  0
  -22.2160  -13.0920   21.9380 N   0  0  0  0  0  0  0  0  0  0  0  0
  -22.5030  -14.8060   20.5440 O   0  0  0  0  0  0  0  0  0  0  0  0
  -22.5840  -12.2650   22.3870 H   0  0  0  0  0  0  0  0  0  0  0  0
  -21.2800  -13.3970   22.1640 H   0  0  0  0  0  0  0  0  0  0  0  0
  -25.5580  -15.4430   20.2210 N   0  0  0  0  0  0  0  0  0  0  0  0
  -24.7810  -16.0860   20.3210 H   0  0  0  0  0  0  0  0  0  0  0  0
  -26.3890  -15.8880   19.8530 H   0  0  0  0  0  0  0  0  0  0  0  0
  -29.2040  -22.6120   20.5750 C   0  0  0  0  0  2  0  0  0  0  0  0
  -28.4840  -23.9620   20.0390 C   0  0  0  0  0  2  0  0  0  0  0  0
  -28.5470  -25.3040   20.9220 C   0  0  0  0  0  2  0  0  0  0  0  0
  -28.5830  -26.6740   20.3430 O   0  0  0  0  0  0  0  0  0  0  0  0
  -24.6350  -31.9640   23.3330 C   0  0  0  0  0  0  0  0  0  0  0  0
  -27.4340  -27.4750   20.3440 C   0  0  0  0  0  0  0  0  0  0  0  0
  -23.5110  -30.5470   21.6500 C   0  0  0  0  0  3  0  0  0  0  0  0
  -25.0360  -29.0280   20.2620 C   0  0  0  0  0  0  0  0  0  0  0  0
  -26.0440  -30.9260   21.5380 C   0  0  0  0  0  2  0  0  0  0  0  0
  -26.1740  -29.5490   20.8920 C   0  0  0  0  0  0  0  0  0  0  0  0
  -27.3800  -28.7860   20.9150 C   0  0  0  0  0  3  0  0  0  0  0  0
  -26.2750  -27.0000   19.7020 C   0  0  0  0  0  3  0  0  0  0  0  0
  -25.0900  -27.7600   19.6590 C   0  0  0  0  0  3  0  0  0  0  0  0
  -23.7800  -29.8780   20.2740 C   0  0  0  0  0  2  0  0  0  0  0  0
  -24.7460  -31.1650   22.2300 N   0  0  0  0  0  0  0  0  0  0  0  0
  -23.5310  -32.2120   23.8380 O   0  0  0  0  0  0  0  0  0  0  0  0
  -22.8470  -29.5100   22.5870 C   0  0  0  0  0  0  0  0  0  0  0  0
  -21.5260  -29.3160   22.4360 N   0  0  0  0  0  0  0  0  0  0  0  0
  -23.5200  -28.8860   23.4130 O   0  0  0  0  0  0  0  0  0  0  0  0
  -21.0450  -29.8760   21.7470 H   0  0  0  0  0  0  0  0  0  0  0  0
  -18.1510  -28.1050   22.8960 C   0  0  0  0  0  0  0  0  0  0  0  0
  -20.7070  -28.3590   23.1800 C   0  0  0  0  0  3  0  0  0  0  0  0
  -20.8110  -26.9430   22.5670 C   0  0  0  0  0  2  0  0  0  0  0  0
  -19.7120  -26.6470   21.5420 C   0  0  0  0  0  2  0  0  0  0  0  0
  -18.3280  -26.7740   22.1850 C   0  0  0  0  0  2  0  0  0  0  0  0
  -19.2670  -28.8570   23.3490 C   0  0  0  0  0  0  0  0  0  0  0  0
  -19.0420  -30.1040   23.9710 C   0  0  0  0  0  3  0  0  0  0  0  0
  -17.7350  -30.5970   24.1480 C   0  0  0  0  0  3  0  0  0  0  0  0
  -16.6350  -29.8420   23.7090 C   0  0  0  0  0  3  0  0  0  0  0  0
  -16.8430  -28.5990   23.0870 C   0  0  0  0  0  3  0  0  0  0  0  0
  -25.8870  -32.6200   23.9930 C   0  0  0  0  0  3  0  0  0  0  0  0
  -25.5580  -34.0270   24.2680 N   0  0  0  0  0  0  0  0  0  0  0  0
  -25.9030  -35.0560   23.4850 C   0  0  0  0  0  0  0  0  0  0  0  0
  -26.6030  -34.9250   22.4770 O   0  0  0  0  0  0  0  0  0  0  0  0
  -24.9420  -34.1990   25.0480 H   0  0  0  0  0  0  0  0  0  0  0  0
  -24.1800  -36.8270   23.0110 C   0  0  0  0  0  1  0  0  0  0  0  0
  -25.3920  -36.4560   23.8800 C   0  0  0  0  0  3  0  0  0  0  0  0
  -27.4850  -37.3860   24.7690 C   0  0  0  0  0  1  0  0  0  0  0  0
  -26.4230  -37.5110   23.7740 N   0  0  0  0  0  0  0  0  0  0  0  0
  -26.0050  -38.4330   23.8670 H   0  0  0  0  0  0  0  0  0  0  0  0
  -26.3430  -31.8920   25.3190 C   0  0  1  0  0  0  0  0  0  0  0  0
  -25.1990  -31.6810   26.3380 C   0  0  0  0  0  1  0  0  0  0  0  0
  -26.9530  -30.5070   24.9990 C   0  0  0  0  0  1  0  0  0  0  0  0
  -27.4530  -32.7140   26.0130 C   0  0  0  0  0  1  0  0  0  0  0  0
  2  4  1  0
  2 47  1  0
  2  1  1  0
  3  8  1  0
  3  4  1  0
  4  6  1  0
  5  3  2  0
  8  7  1  0
  8 17  1  0
  9 17  1  0
 10 15  1  0
 11 12  1  0
 11 10  1  0
 13 12  1  0
 13 22  1  0
 13 14  1  0
 15  9  1  0
 15 14  1  0
 16  9  2  0
 17 18  1  0
 19 20  2  0
 20 39  1  0
 21 20  1  0
 21 24  1  0
 22 19  1  0
 22 23  1  0
 23 21  2  0
 24 25  1  0
 25 26  2  0
 27 30  1  0
 27 26  1  0
 28 27  2  0
 29 28  1  0
 29 24  2  0
 30 31  1  0
 31 32  1  0
 32 33  2  0
 34 33  1  0
 34 38  1  0
 35 34  2  0
 36 31  2  0
 36 35  1  0
 37 36  1  0
 39 40  1  0
 40 43  1  0
 40 42  1  0
 41 39  2  0
 44 45  1  0
 44 19  1  0
 46 44  1  0
 48 47  1  0
 48 49  1  0
 50 52  1  0
 50 49  1  0
 51 62  2  0
 52 57  1  0
 53 61  1  0
 53 63  1  0
 54 60  1  0
 54 56  1  0
 55 61  1  0
 56 57  2  0
 56 55  1  0
 58 52  2  0
 59 58  1  0
 59 54  2  0
 60 53  1  0
 61 51  1  0
 63 65  2  0
 64 63  1  0
 66 64  1  0
 67 76  2  0
 67 72  1  0
 68 64  1  0
 68 72  1  0
 69 68  1  0
 70 71  1  0
 70 69  1  0
 71 67  1  0
 72 73  2  0
 73 74  1  0
 75 74  2  0
 76 75  1  0
 77 51  1  0
 77 78  1  0
 77 87  1  0
 78 81  1  0
 79 83  1  0
 79 78  1  0
 80 79  2  0
 83 82  1  0
 85 86  1  0
 85 83  1  0
 85 84  1  0
 87 90  1  1
 87 88  1  0
 89 87  1  0
M  ISO  4   9 100  17 100  49 101  50 101
M  END
>  <TORSDO>  (78) 
F 21

>  <SCORE>  (78) 
-12.595

>  <name>  (78) 
79

>  <ligand_id>  (78) 
79

>  <original_smiles>  (78) 
[H]c1c([H])c([H])c2c(c1[H])C([H])([H])C([H])([H])C([H])([H])C2([H])N([H])C(=O)C1([H])N(C(=O)C([H])(N([H])C(=O)C([H])(N([H])C([H])([H])[H])C([H])([H])[H])C(C([H])([H])[H])(C([H])([H])[H])C([H])([H])[H])C([H])([H])c2c([H])c(OC([H])([H])C([H])([H])C([H])([H])C([H])(N([H])C(=O)C([H])(N([H])C(=O)N3C([H])([H])C([H])([H])C([H])([H])C([H])(n4nc(-c5c([H])c([H])c(Oc6c([H])c([H])c(F)c([H])c6F)c([H])c5[H])c(C(=O)N([H])[H])c4N([H])[H])C3([H])[H])C([H])([H])[H])C([H])([H])[H])c([H])c([H])c2C1([H])[H]

>  <smiles>  (78) 
[H]c1c([H])c([H])c2c(c1[H])C([H])([H])C([H])([H])C([H])([H])C2([H])N([H])C(=O)C1([H])N(C(=O)C([H])(N([H])C(=O)C([H])(N([H])C([H])([H])[H])C([H])([H])[H])C(C([H])([H])[H])(C([H])([H])[H])C([H])([H])[H])C([H])([H])c2c([H])c(OC([H])([H])C([H])([H])C([H])([H])C([H])(N([H])C(=O)C([H])(N([H])C(=O)N3C([H])([H])C([H])([H])C([H])([H])C([H])(n4nc(-c5c([H])c([H])c(Oc6c([H])c([H])c(F)c([H])c6F)c([H])c5[H])c(C(=O)N([H])[H])c4N([H])[H])C3([H])[H])C([H])([H])[H])C([H])([H])[H])c([H])c([H])c2C1([H])[H]

$$$$
80:0:0
     RDKit          3D

 84 88  0  0  1  0  0  0  0  0999 V2000
  -28.2950  -22.5520   20.1740 C   0  0  0  0  0 15  0  0  0  0  0  0
  -28.1550  -24.6510   20.3930 O   0  0  0  0  0  1  0  0  0  0  0  0
  -24.6580  -31.7660   23.1790 C   0  0  0  0  0  0  0  0  0  0  0  0
  -27.2240  -26.1390   20.3120 C   0  0  0  0  0  0  0  0  0  0  0  0
  -23.5100  -30.3380   21.5480 C   0  0  0  0  0  3  0  0  0  0  0  0
  -24.9820  -28.5480   20.1980 C   0  0  0  0  0  0  0  0  0  0  0  0
  -26.1100  -30.3020   21.5170 C   0  0  0  0  0  2  0  0  0  0  0  0
  -26.1780  -28.7970   20.8770 C   0  0  0  0  0  0  0  0  0  0  0  0
  -27.2450  -27.6450   20.8850 C   0  0  0  0  0  3  0  0  0  0  0  0
  -25.9780  -26.2620   19.5690 C   0  0  0  0  0  3  0  0  0  0  0  0
  -24.9570  -27.3110   19.5150 C   0  0  0  0  0  3  0  0  0  0  0  0
  -23.7930  -29.5690   20.2100 C   0  0  0  0  0  2  0  0  0  0  0  0
  -24.7910  -30.8510   22.1340 N   0  0  0  0  0  0  0  0  0  0  0  0
  -23.5480  -32.0970   23.6410 O   0  0  0  0  0  0  0  0  0  0  0  0
  -22.7270  -29.4280   22.5400 C   0  0  0  0  0  0  0  0  0  0  0  0
  -21.3890  -29.3090   22.4040 N   0  0  0  0  0  0  0  0  0  0  0  0
  -23.3460  -28.8190   23.4120 O   0  0  0  0  0  0  0  0  0  0  0  0
  -20.9320  -29.8430   21.6790 H   0  0  0  0  0  0  0  0  0  0  0  0
  -17.9790  -28.1100   22.9220 C   0  0  0  0  0  0  0  0  0  0  0  0
  -20.5410  -28.3850   23.1800 C   0  0  0  0  0  3  0  0  0  0  0  0
  -20.6370  -26.9460   22.6150 C   0  0  0  0  0  2  0  0  0  0  0  0
  -19.5390  -26.6250   21.5980 C   0  0  0  0  0  2  0  0  0  0  0  0
  -18.1570  -26.7660   22.2380 C   0  0  0  0  0  2  0  0  0  0  0  0
  -19.0970  -28.8780   23.3480 C   0  0  0  0  0  0  0  0  0  0  0  0
  -18.8690  -30.1310   23.9580 C   0  0  0  0  0  3  0  0  0  0  0  0
  -17.5620  -30.6150   24.1430 C   0  0  0  0  0  3  0  0  0  0  0  0
  -16.4590  -29.8470   23.7250 C   0  0  0  0  0  3  0  0  0  0  0  0
  -16.6700  -28.5950   23.1200 C   0  0  0  0  0  3  0  0  0  0  0  0
  -25.8850  -32.4580   23.8540 C   0  0  0  0  0  3  0  0  0  0  0  0
  -25.5370  -33.8660   24.1670 N   0  0  0  0  0  0  0  0  0  0  0  0
  -25.8690  -34.9410   23.4350 C   0  0  0  0  0  0  0  0  0  0  0  0
  -26.5420  -34.8500   22.4070 O   0  0  0  0  0  0  0  0  0  0  0  0
  -24.9300  -34.0050   24.9620 H   0  0  0  0  0  0  0  0  0  0  0  0
  -24.1320  -36.7500   23.1290 C   0  0  0  0  0  1  0  0  0  0  0  0
  -25.3880  -36.3320   23.9110 C   0  0  0  0  0  3  0  0  0  0  0  0
  -27.5300  -37.2430   24.7110 C   0  0  0  0  0  1  0  0  0  0  0  0
  -26.4120  -37.3940   23.7850 N   0  0  0  0  0  0  0  0  0  0  0  0
  -25.9980  -38.3110   23.9330 H   0  0  0  0  0  0  0  0  0  0  0  0
  -26.3320  -31.7330   25.1850 C   0  0  1  0  0  0  0  0  0  0  0  0
  -25.1950  -31.5400   26.2170 C   0  0  0  0  0  1  0  0  0  0  0  0
  -26.9260  -30.3390   24.8920 C   0  0  0  0  0  1  0  0  0  0  0  0
  -27.4550  -32.5490   25.8710 C   0  0  0  0  0  1  0  0  0  0  0  0
  -29.2710  -20.4110   20.4790 C   0  0  0  0  0  1  0  0  0  0  0  0
  -29.9800  -16.6730   20.2430 C   0  0  0  0  0  0  0  0  0  0  0  0
  -30.3250  -13.9200   19.4200 C   0  0  0  0  0  2  0  0  0  0  0  0
  -29.5680  -13.0940   18.2960 C   0  0  0  0  0  2  0  0  0  0  0  0
  -28.2550  -12.4940   18.8040 C   0  0  0  0  0  2  0  0  0  0  0  0
  -27.5900  -13.5210   19.7340 C   0  0  0  0  0  3  0  0  0  0  0  0
  -28.5400  -14.2250   20.7780 C   0  0  0  0  0  2  0  0  0  0  0  0
  -29.5390  -15.1530   20.0810 N   0  0  0  0  0  0  0  0  0  0  0  0
  -31.2260  -16.4340   20.2180 O   0  0  0  0  0  0  0  0  0  0  0  0
  -29.2760  -18.3130   20.2730 N   0  0  0  0  0  2  0  0  0  0  0  0
  -28.2930  -18.0930   20.1440 H   0  0  0  0  0  0  0  0  0  0  0  0
  -25.2150  -13.9140   20.5010 C   0  0  0  0  0  0  0  0  0  0  0  0
  -24.1780  -13.1060   20.8540 C   0  0  0  0  0  0  0  0  0  0  0  0
  -24.6830  -11.7690   20.8200 C   0  0  0  0  0  0  0  0  0  0  0  0
  -26.2980  -13.0880   20.2740 N   0  0  0  0  0  0  0  0  0  0  0  0
  -25.9870  -11.7800   20.5190 N   0  0  0  0  0  0  0  0  0  0  0  0
  -23.9710  -10.4910   21.0050 C   0  0  0  0  0  0  0  0  0  0  0  0
  -24.3910   -9.5370   21.9600 C   0  0  0  0  0  3  0  0  0  0  0  0
  -23.6740   -8.3330   22.1400 C   0  0  0  0  0  3  0  0  0  0  0  0
  -22.5180   -8.0710   21.3680 C   0  0  0  0  0  0  0  0  0  0  0  0
  -22.1140   -9.0120   20.4050 C   0  0  0  0  0  3  0  0  0  0  0  0
  -22.8310  -10.2060   20.2220 C   0  0  0  0  0  3  0  0  0  0  0  0
  -21.7740   -6.9190   21.4540 O   0  0  0  0  0  0  0  0  0  0  0  0
  -21.6970   -6.1960   22.6170 C   0  0  0  0  0  0  0  0  0  0  0  0
  -21.1820   -6.7560   23.8080 C   0  0  0  0  0  3  0  0  0  0  0  0
  -21.0570   -5.9590   24.9640 C   0  0  0  0  0  3  0  0  0  0  0  0
  -21.4290   -4.6010   24.9280 C   0  0  0  0  0  0  0  0  0  0  0  0
  -21.9350   -4.0420   23.7420 C   0  0  0  0  0  3  0  0  0  0  0  0
  -22.0640   -4.8360   22.5890 C   0  0  0  0  0  0  0  0  0  0  0  0
  -22.5310   -4.2860   21.4420 F   0  0  0  0  0  0  0  0  0  0  0  0
  -21.3010   -3.8330   26.0360 F   0  0  0  0  0  0  0  0  0  0  0  0
  -22.7670  -13.5530   21.0990 C   0  0  0  0  0  0  0  0  0  0  0  0
  -22.0400  -12.8640   21.9670 N   0  0  0  0  0  0  0  0  0  0  0  0
  -22.3140  -14.5590   20.5540 O   0  0  0  0  0  0  0  0  0  0  0  0
  -22.4140  -12.0540   22.4410 H   0  0  0  0  0  0  0  0  0  0  0  0
  -21.0920  -13.1530   22.1650 H   0  0  0  0  0  0  0  0  0  0  0  0
  -25.3330  -15.2890   20.3130 N   0  0  0  0  0  0  0  0  0  0  0  0
  -24.5350  -15.9080   20.3850 H   0  0  0  0  0  0  0  0  0  0  0  0
  -26.1770  -15.7540   20.0030 H   0  0  0  0  0  0  0  0  0  0  0  0
  -31.5790  -20.1430   21.7690 C   0  0  0  0  0  1  0  0  0  0  0  0
  -31.2810  -22.1060   20.2240 C   0  0  0  0  0  1  0  0  0  0  0  0
  -30.8300  -20.6590   20.4980 C   0  0  0  0  0  3  0  0  0  0  0  0
  3 14  2  0
  4  2  1  0
  4  9  1  0
  5 13  1  0
  5 15  1  0
  6 12  1  0
  6  8  1  0
  7 13  1  0
  8  9  2  0
  8  7  1  0
 10  4  2  0
 11 10  1  0
 11  6  2  0
 12  5  1  0
 13  3  1  0
 15 17  2  0
 16 15  1  0
 18 16  1  0
 19 28  2  0
 19 24  1  0
 20 16  1  0
 20 24  1  0
 21 20  1  0
 22 23  1  0
 22 21  1  0
 23 19  1  0
 24 25  2  0
 25 26  1  0
 27 26  2  0
 28 27  1  0
 29  3  1  0
 29 30  1  0
 29 39  1  0
 30 33  1  0
 31 35  1  0
 31 30  1  0
 32 31  2  0
 35 34  1  0
 37 35  1  0
 37 38  1  0
 37 36  1  0
 39 42  1  1
 39 40  1  0
 41 39  1  0
 43 84  1  0
 44 52  1  0
 45 50  1  0
 46 47  1  0
 46 45  1  0
 48 47  1  0
 48 57  1  0
 48 49  1  0
 50 44  1  0
 50 49  1  0
 51 44  2  0
 53 52  1  0
 54 55  2  0
 55 74  1  0
 56 55  1  0
 56 59  1  0
 57 54  1  0
 57 58  1  0
 58 56  2  0
 59 60  1  0
 60 61  2  0
 62 65  1  0
 62 61  1  0
 63 62  2  0
 64 63  1  0
 64 59  2  0
 65 66  1  0
 66 67  1  0
 67 68  2  0
 69 68  1  0
 69 73  1  0
 70 69  2  0
 71 66  2  0
 71 70  1  0
 72 71  1  0
 74 75  1  0
 75 78  1  0
 75 77  1  0
 76 74  2  0
 79 80  1  0
 79 54  1  0
 81 79  1  0
 83 84  1  0
 84 82  1  0
M  ISO  4   1 101   2 101  44 100  52 100
M  END
>  <TORSDO>  (79) 
F 18

>  <SCORE>  (79) 
-16.150

>  <name>  (79) 
80

>  <ligand_id>  (79) 
80

>  <original_smiles>  (79) 
[H]c1c([H])c([H])c2c(c1[H])C([H])([H])C([H])([H])C([H])([H])C2([H])N([H])C(=O)C1([H])N(C(=O)C([H])(N([H])C(=O)C([H])(N([H])C([H])([H])[H])C([H])([H])[H])C(C([H])([H])[H])(C([H])([H])[H])C([H])([H])[H])C([H])([H])c2c([H])c(OC([H])([H])C([H])(N([H])C(=O)N3C([H])([H])C([H])([H])C([H])([H])C([H])(n4nc(-c5c([H])c([H])c(Oc6c([H])c([H])c(F)c([H])c6F)c([H])c5[H])c(C(=O)N([H])[H])c4N([H])[H])C3([H])[H])C([H])(C([H])([H])[H])C([H])([H])[H])c([H])c([H])c2C1([H])[H]

>  <smiles>  (79) 
[H]c1c([H])c([H])c2c(c1[H])C([H])([H])C([H])([H])C([H])([H])C2([H])N([H])C(=O)C1([H])N(C(=O)C([H])(N([H])C(=O)C([H])(N([H])C([H])([H])[H])C([H])([H])[H])C(C([H])([H])[H])(C([H])([H])[H])C([H])([H])[H])C([H])([H])c2c([H])c(OC([H])([H])C([H])(N([H])C(=O)N3C([H])([H])C([H])([H])C([H])([H])C([H])(n4nc(-c5c([H])c([H])c(Oc6c([H])c([H])c(F)c([H])c6F)c([H])c5[H])c(C(=O)N([H])[H])c4N([H])[H])C3([H])[H])C([H])(C([H])([H])[H])C([H])([H])[H])c([H])c([H])c2C1([H])[H]

$$$$
81:0:0
     RDKit          3D

 96104  0  0  1  0  0  0  0  0999 V2000
  -26.4220  -22.2830   20.0520 C   0  0  0  0  0  2  0  0  0  0  0  0
  -27.7530  -21.8360   20.6480 C   0  0  0  0  0  2  0  0  0  0  0  0
  -26.7850  -22.8780   18.6900 C   0  0  0  0  0  2  0  0  0  0  0  0
  -28.7860  -22.0590   19.5330 C   0  0  0  0  0  3  0  0  0  0  0  0
  -28.2130  -23.2060   18.7740 N   0  0  0  0  0  0  0  0  0  0  0  0
  -28.9820  -20.7470   18.6610 C   0  0  0  0  0  2  0  0  0  0  0  0
  -30.2690  -20.0080   18.8940 N   0  0  0  0  0  4  0  0  0  0  0  0
  -30.7510  -19.9180   18.0140 H   0  0  0  0  0  0  0  0  0  0  0  0
  -30.8430  -20.5990   19.4750 H   0  0  0  0  0  0  0  0  0  0  0  0
  -30.2300  -18.6640   19.5840 C   0  0  0  0  0  3  0  0  0  0  0  0
  -30.8210  -17.5920   21.9270 C   0  0  0  0  0  1  0  0  0  0  0  0
  -30.1510  -19.9860   21.7840 C   0  0  0  0  0  1  0  0  0  0  0  0
  -30.8430  -18.8400   21.0190 C   0  0  0  0  0  3  0  0  0  0  0  0
  -30.4240  -17.6330   17.2440 C   0  0  0  0  0  1  0  0  0  0  0  0
  -30.9030  -17.5220   18.7100 C   0  0  0  0  0  3  0  0  0  0  0  0
  -31.4930  -15.0770   19.2510 C   0  0  0  0  0  0  0  0  0  0  0  0
  -31.3510  -12.6300   18.9890 C   0  0  0  0  0  2  0  0  0  0  0  0
  -30.3520  -12.2970   17.8570 C   0  0  0  0  0  2  0  0  0  0  0  0
  -28.9020  -12.2480   18.3840 C   0  0  0  0  0  2  0  0  0  0  0  0
  -28.5400  -13.4720   19.2650 C   0  0  0  0  0  3  0  0  0  0  0  0
  -29.6410  -13.7300   20.3150 C   0  0  0  0  0  2  0  0  0  0  0  0
  -30.9150  -13.8950   19.6000 N   0  0  0  0  0  0  0  0  0  0  0  0
  -32.6410  -15.1480   18.8090 O   0  0  0  0  0  0  0  0  0  0  0  0
  -30.6530  -16.1390   19.2100 N   0  0  0  0  0  0  0  0  0  0  0  0
  -29.7240  -15.9570   19.5610 H   0  0  0  0  0  0  0  0  0  0  0  0
  -26.3310  -14.3040   20.2940 C   0  0  0  0  0  0  0  0  0  0  0  0
  -25.2130  -13.6400   20.7170 C   0  0  0  0  0  0  0  0  0  0  0  0
  -25.4830  -12.2500   20.5240 C   0  0  0  0  0  0  0  0  0  0  0  0
  -27.2200  -13.3260   19.8760 N   0  0  0  0  0  0  0  0  0  0  0  0
  -26.7190  -12.0800   20.0730 N   0  0  0  0  0  0  0  0  0  0  0  0
  -24.6190  -11.0740   20.6880 C   0  0  0  0  0  0  0  0  0  0  0  0
  -24.9770  -10.0080   21.5430 C   0  0  0  0  0  3  0  0  0  0  0  0
  -24.1200   -8.8970   21.6980 C   0  0  0  0  0  3  0  0  0  0  0  0
  -22.8920   -8.8440   20.9980 C   0  0  0  0  0  0  0  0  0  0  0  0
  -22.5520   -9.8970   20.1300 C   0  0  0  0  0  3  0  0  0  0  0  0
  -23.4080  -11.0000   19.9730 C   0  0  0  0  0  3  0  0  0  0  0  0
  -22.0100   -7.7940   21.0650 O   0  0  0  0  0  0  0  0  0  0  0  0
  -21.8620   -7.0500   22.2090 C   0  0  0  0  0  0  0  0  0  0  0  0
  -21.4870   -7.6390   23.4360 C   0  0  0  0  0  3  0  0  0  0  0  0
  -21.2800   -6.8290   24.5710 C   0  0  0  0  0  3  0  0  0  0  0  0
  -21.4400   -5.4340   24.4790 C   0  0  0  0  0  0  0  0  0  0  0  0
  -21.8090   -4.8470   23.2570 C   0  0  0  0  0  3  0  0  0  0  0  0
  -22.0170   -5.6520   22.1240 C   0  0  0  0  0  0  0  0  0  0  0  0
  -22.3520   -5.0780   20.9440 F   0  0  0  0  0  0  0  0  0  0  0  0
  -21.2320   -4.6560   25.5670 F   0  0  0  0  0  0  0  0  0  0  0  0
  -23.9250  -14.2580   21.1790 C   0  0  0  0  0  0  0  0  0  0  0  0
  -23.2290  -13.6030   22.0990 N   0  0  0  0  0  0  0  0  0  0  0  0
  -23.5530  -15.3530   20.7570 O   0  0  0  0  0  0  0  0  0  0  0  0
  -23.5460  -12.7130   22.4540 H   0  0  0  0  0  0  0  0  0  0  0  0
  -22.3670  -13.9920   22.4540 H   0  0  0  0  0  0  0  0  0  0  0  0
  -26.6610  -15.6540   20.2020 N   0  0  0  0  0  0  0  0  0  0  0  0
  -26.0090  -16.3870   20.4590 H   0  0  0  0  0  0  0  0  0  0  0  0
  -27.4850  -16.0000   19.7320 H   0  0  0  0  0  0  0  0  0  0  0  0
  -28.3550  -24.5290   19.4480 C   0  0  0  0  0  2  0  0  0  0  0  0
  -28.1960  -25.7570   18.4930 C   0  0  0  0  0  2  0  0  0  0  0  0
  -28.1080  -27.0310   19.1690 O   0  0  0  0  0  0  0  0  0  0  0  0
  -24.5050  -31.7260   23.1340 C   0  0  0  0  0  0  0  0  0  0  0  0
  -26.9040  -27.7010   19.3300 C   0  0  0  0  0  0  0  0  0  0  0  0
  -23.1680  -30.5120   21.4430 C   0  0  0  0  0  3  0  0  0  0  0  0
  -24.5010  -29.1690   19.7280 C   0  0  0  0  0  0  0  0  0  0  0  0
  -25.6660  -30.9220   21.0780 C   0  0  0  0  0  2  0  0  0  0  0  0
  -25.7020  -29.6350   20.2740 C   0  0  0  0  0  0  0  0  0  0  0  0
  -26.9000  -28.9100   20.0710 C   0  0  0  0  0  3  0  0  0  0  0  0
  -25.6750  -27.2460   18.7960 C   0  0  0  0  0  3  0  0  0  0  0  0
  -24.4820  -27.9730   18.9900 C   0  0  0  0  0  3  0  0  0  0  0  0
  -23.2620  -30.0010   19.9780 C   0  0  0  0  0  2  0  0  0  0  0  0
  -24.4690  -31.0610   21.9440 N   0  0  0  0  0  0  0  0  0  0  0  0
  -23.4710  -31.9200   23.7900 O   0  0  0  0  0  0  0  0  0  0  0  0
  -22.6020  -29.3760   22.3250 C   0  0  0  0  0  0  0  0  0  0  0  0
  -21.2840  -29.1430   22.2270 N   0  0  0  0  0  0  0  0  0  0  0  0
  -23.3460  -28.7130   23.0540 O   0  0  0  0  0  0  0  0  0  0  0  0
  -20.7450  -29.7340   21.6090 H   0  0  0  0  0  0  0  0  0  0  0  0
  -18.0200  -27.6460   22.6180 C   0  0  0  0  0  0  0  0  0  0  0  0
  -20.5450  -28.0950   22.9300 C   0  0  0  0  0  3  0  0  0  0  0  0
  -20.7670  -26.7140   22.2700 C   0  0  0  0  0  2  0  0  0  0  0  0
  -19.7000  -26.3690   21.2250 C   0  0  0  0  0  2  0  0  0  0  0  0
  -18.3090  -26.3590   21.8640 C   0  0  0  0  0  2  0  0  0  0  0  0
  -19.0710  -28.4680   23.1060 C   0  0  0  0  0  0  0  0  0  0  0  0
  -18.7490  -29.6700   23.7720 C   0  0  0  0  0  3  0  0  0  0  0  0
  -17.4060  -30.0540   23.9520 C   0  0  0  0  0  3  0  0  0  0  0  0
  -16.3700  -29.2330   23.4790 C   0  0  0  0  0  3  0  0  0  0  0  0
  -16.6760  -28.0280   22.8220 C   0  0  0  0  0  3  0  0  0  0  0  0
  -25.8370  -32.2930   23.7160 C   0  0  0  0  0  3  0  0  0  0  0  0
  -25.5730  -33.6640   24.1670 N   0  0  0  0  0  0  0  0  0  0  0  0
  -25.8900  -34.7680   23.4750 C   0  0  0  0  0  0  0  0  0  0  0  0
  -26.5070  -34.7330   22.4070 O   0  0  0  0  0  0  0  0  0  0  0  0
  -25.0220  -33.7660   25.0070 H   0  0  0  0  0  0  0  0  0  0  0  0
  -24.1820  -36.6060   23.3430 C   0  0  0  0  0  1  0  0  0  0  0  0
  -25.4530  -36.1240   24.0610 C   0  0  0  0  0  3  0  0  0  0  0  0
  -27.6390  -36.9110   24.8540 C   0  0  0  0  0  1  0  0  0  0  0  0
  -26.5000  -37.1660   23.9770 N   0  0  0  0  0  0  0  0  0  0  0  0
  -26.1180  -38.0790   24.2110 H   0  0  0  0  0  0  0  0  0  0  0  0
  -26.4260  -31.4210   24.8930 C   0  0  1  0  0  0  0  0  0  0  0  0
  -25.4050  -31.1270   26.0170 C   0  0  0  0  0  1  0  0  0  0  0  0
  -26.9410  -30.0640   24.3610 C   0  0  0  0  0  1  0  0  0  0  0  0
  -27.6400  -32.1410   25.5250 C   0  0  0  0  0  1  0  0  0  0  0  0
  1  2  1  0
  3  5  1  0
  3  1  1  0
  4  6  1  0
  4  2  1  0
  5 54  1  0
  5  4  1  0
  6  7  1  0
  7  9  1  0
  7 10  1  0
  8  7  1  0
 10 13  1  0
 13 12  1  0
 13 11  1  0
 15 14  1  0
 15 24  1  0
 15 10  1  0
 16 22  1  0
 17 22  1  0
 18 19  1  0
 18 17  1  0
 20 19  1  0
 20 29  1  0
 20 21  1  0
 22 21  1  0
 23 16  2  0
 24 16  1  0
 24 25  1  0
 26 27  2  0
 27 46  1  0
 28 31  1  0
 28 27  1  0
 29 30  1  0
 29 26  1  0
 30 28  2  0
 31 32  1  0
 32 33  2  0
 34 37  1  0
 34 33  1  0
 35 34  2  0
 36 35  1  0
 36 31  2  0
 37 38  1  0
 38 39  1  0
 39 40  2  0
 41 40  1  0
 41 45  1  0
 42 41  2  0
 43 38  2  0
 43 42  1  0
 44 43  1  0
 46 47  1  0
 47 49  1  0
 47 50  1  0
 48 46  2  0
 51 26  1  0
 51 52  1  0
 53 51  1  0
 55 56  1  0
 55 54  1  0
 56 58  1  0
 57 68  2  0
 58 63  1  0
 59 67  1  0
 59 69  1  0
 60 66  1  0
 60 62  1  0
 61 67  1  0
 62 61  1  0
 63 62  2  0
 64 65  1  0
 64 58  2  0
 65 60  2  0
 66 59  1  0
 67 57  1  0
 69 71  2  0
 70 69  1  0
 72 70  1  0
 73 82  2  0
 73 78  1  0
 74 70  1  0
 74 78  1  0
 75 74  1  0
 76 77  1  0
 76 75  1  0
 77 73  1  0
 78 79  2  0
 79 80  1  0
 81 80  2  0
 82 81  1  0
 83 57  1  0
 83 84  1  0
 83 93  1  0
 84 87  1  0
 85 89  1  0
 85 84  1  0
 86 85  2  0
 89 88  1  0
 91 89  1  0
 91 92  1  0
 91 90  1  0
 93 96  1  1
 93 94  1  0
 95 93  1  0
M  ISO  4  16 100  24 100  55 101  56 101
M  END
>  <TORSDO>  (80) 
F 23

>  <SCORE>  (80) 
-10.656

>  <name>  (80) 
81

>  <ligand_id>  (80) 
81

>  <original_smiles>  (80) 
[H]c1c([H])c([H])c2c(c1[H])C([H])([H])C([H])([H])C([H])([H])C2([H])N([H])C(=O)C1([H])N(C(=O)C([H])(N([H])C(=O)C([H])(N([H])C([H])([H])[H])C([H])([H])[H])C(C([H])([H])[H])(C([H])([H])[H])C([H])([H])[H])C([H])([H])c2c([H])c(OC([H])([H])C([H])([H])N3C([H])([H])C([H])([H])C([H])([H])C3([H])C([H])([H])[N+]([H])([H])C([H])(C([H])(N([H])C(=O)N3C([H])([H])C([H])([H])C([H])([H])C([H])(n4nc(-c5c([H])c([H])c(Oc6c([H])c([H])c(F)c([H])c6F)c([H])c5[H])c(C(=O)N([H])[H])c4N([H])[H])C3([H])[H])C([H])([H])[H])C([H])(C([H])([H])[H])C([H])([H])[H])c([H])c([H])c2C1([H])[H]

>  <smiles>  (80) 
[H]c1c([H])c([H])c2c(c1[H])C([H])([H])C([H])([H])C([H])([H])C2([H])N([H])C(=O)C1([H])N(C(=O)C([H])(N([H])C(=O)C([H])(N([H])C([H])([H])[H])C([H])([H])[H])C(C([H])([H])[H])(C([H])([H])[H])C([H])([H])[H])C([H])([H])c2c([H])c(OC([H])([H])C([H])([H])N3C([H])([H])C([H])([H])C([H])([H])C3([H])C([H])([H])[N+]([H])([H])C([H])(C([H])(N([H])C(=O)N3C([H])([H])C([H])([H])C([H])([H])C([H])(n4nc(-c5c([H])c([H])c(Oc6c([H])c([H])c(F)c([H])c6F)c([H])c5[H])c(C(=O)N([H])[H])c4N([H])[H])C3([H])[H])C([H])([H])[H])C([H])(C([H])([H])[H])C([H])([H])[H])c([H])c([H])c2C1([H])[H]

$$$$
82:0:0
     RDKit          3D

 89 97  0  0  1  0  0  0  0  0999 V2000
  -28.8290  -21.7830   20.8100 C   0  0  0  0  0  0  0  0  0  0  0  0
  -29.4410  -20.5690   20.3560 N   0  0  0  0  0  0  0  0  0  0  0  0
  -28.0450  -21.6860   21.7570 O   0  0  0  0  0  0  0  0  0  0  0  0
  -30.0400  -20.6670   19.5460 H   0  0  0  0  0  0  0  0  0  0  0  0
  -31.0920  -19.4120   21.5870 C   0  0  0  0  0  2  0  0  0  0  0  0
  -31.5920  -18.3990   20.5040 C   0  0  0  0  0  2  0  0  0  0  0  0
  -29.5940  -19.1930   21.1380 C   0  0  0  0  0  3  0  0  0  0  0  0
  -30.3200  -17.6620   20.8640 C   0  0  0  0  0  3  0  0  0  0  0  0
  -30.6080  -15.0480   20.1090 C   0  0  0  0  0  0  0  0  0  0  0  0
  -30.4240  -12.7250   19.0970 C   0  0  0  0  0  2  0  0  0  0  0  0
  -29.4390  -12.6600   17.9070 C   0  0  0  0  0  2  0  0  0  0  0  0
  -28.0040  -12.4210   18.4070 C   0  0  0  0  0  2  0  0  0  0  0  0
  -27.6290  -13.3560   19.5860 C   0  0  0  0  0  3  0  0  0  0  0  0
  -28.7260  -13.3950   20.6710 C   0  0  0  0  0  2  0  0  0  0  0  0
  -29.9680  -13.8130   20.0080 N   0  0  0  0  0  0  0  0  0  0  0  0
  -31.8220  -15.0640   19.8900 O   0  0  0  0  0  0  0  0  0  0  0  0
  -29.8830  -16.2710   20.2540 N   0  0  0  0  0  0  0  0  0  0  0  0
  -28.8830  -16.1460   20.2150 H   0  0  0  0  0  0  0  0  0  0  0  0
  -25.2730  -13.9140   20.4150 C   0  0  0  0  0  0  0  0  0  0  0  0
  -24.2250  -13.1310   20.8100 C   0  0  0  0  0  0  0  0  0  0  0  0
  -24.6990  -11.7830   20.7640 C   0  0  0  0  0  0  0  0  0  0  0  0
  -26.3150  -13.0450   20.1370 N   0  0  0  0  0  0  0  0  0  0  0  0
  -25.9810  -11.7570   20.4130 N   0  0  0  0  0  0  0  0  0  0  0  0
  -23.9860  -10.5140   20.9650 C   0  0  0  0  0  0  0  0  0  0  0  0
  -24.4380   -9.5520   21.8970 C   0  0  0  0  0  3  0  0  0  0  0  0
  -23.7230   -8.3490   22.0850 C   0  0  0  0  0  3  0  0  0  0  0  0
  -22.5430   -8.1020   21.3440 C   0  0  0  0  0  0  0  0  0  0  0  0
  -22.1140   -9.0490   20.3980 C   0  0  0  0  0  3  0  0  0  0  0  0
  -22.8270  -10.2430   20.2070 C   0  0  0  0  0  3  0  0  0  0  0  0
  -21.7980   -6.9520   21.4440 O   0  0  0  0  0  0  0  0  0  0  0  0
  -21.7530   -6.2230   22.6070 C   0  0  0  0  0  0  0  0  0  0  0  0
  -21.3030   -6.7840   23.8230 C   0  0  0  0  0  3  0  0  0  0  0  0
  -21.2070   -5.9810   24.9760 C   0  0  0  0  0  3  0  0  0  0  0  0
  -21.5520   -4.6170   24.9160 C   0  0  0  0  0  0  0  0  0  0  0  0
  -21.9940   -4.0540   23.7060 C   0  0  0  0  0  3  0  0  0  0  0  0
  -22.0910   -4.8550   22.5540 C   0  0  0  0  0  0  0  0  0  0  0  0
  -22.4980   -4.3050   21.3850 F   0  0  0  0  0  0  0  0  0  0  0  0
  -21.4540   -3.8410   26.0210 F   0  0  0  0  0  0  0  0  0  0  0  0
  -22.8330  -13.5940   21.1230 C   0  0  0  0  0  0  0  0  0  0  0  0
  -22.1300  -12.8840   21.9970 N   0  0  0  0  0  0  0  0  0  0  0  0
  -22.3750  -14.6230   20.6240 O   0  0  0  0  0  0  0  0  0  0  0  0
  -22.5110  -12.0510   22.4190 H   0  0  0  0  0  0  0  0  0  0  0  0
  -21.1940  -13.1740   22.2440 H   0  0  0  0  0  0  0  0  0  0  0  0
  -25.4200  -15.2880   20.2400 N   0  0  0  0  0  0  0  0  0  0  0  0
  -24.6450  -15.9310   20.3640 H   0  0  0  0  0  0  0  0  0  0  0  0
  -26.2510  -15.7340   19.8750 H   0  0  0  0  0  0  0  0  0  0  0  0
  -29.1050  -23.3450   20.2920 C   0  0  0  0  0  2  0  0  0  0  0  0
  -28.0040  -24.6430   20.3070 C   0  0  0  0  0  2  0  0  0  0  0  0
  -28.2750  -26.1940   20.2980 O   0  0  0  0  0  0  0  0  0  0  0  0
  -24.6070  -31.8960   23.2230 C   0  0  0  0  0  0  0  0  0  0  0  0
  -27.2110  -27.1760   20.2260 C   0  0  0  0  0  0  0  0  0  0  0  0
  -23.4130  -30.4920   21.5850 C   0  0  0  0  0  3  0  0  0  0  0  0
  -24.8720  -28.9160   20.1710 C   0  0  0  0  0  0  0  0  0  0  0  0
  -25.9670  -30.7710   21.4180 C   0  0  0  0  0  2  0  0  0  0  0  0
  -26.0500  -29.3740   20.7760 C   0  0  0  0  0  0  0  0  0  0  0  0
  -27.2200  -28.5220   20.7820 C   0  0  0  0  0  3  0  0  0  0  0  0
  -26.0050  -26.8250   19.5790 C   0  0  0  0  0  3  0  0  0  0  0  0
  -24.8640  -27.6570   19.5540 C   0  0  0  0  0  3  0  0  0  0  0  0
  -23.6390  -29.8050   20.2100 C   0  0  0  0  0  2  0  0  0  0  0  0
  -24.6820  -31.0770   22.1290 N   0  0  0  0  0  0  0  0  0  0  0  0
  -23.5210  -32.1740   23.7520 O   0  0  0  0  0  0  0  0  0  0  0  0
  -22.7380  -29.4860   22.5500 C   0  0  0  0  0  0  0  0  0  0  0  0
  -21.4110  -29.3090   22.4220 N   0  0  0  0  0  0  0  0  0  0  0  0
  -23.4100  -28.8700   23.3770 O   0  0  0  0  0  0  0  0  0  0  0  0
  -20.9270  -29.8660   21.7330 H   0  0  0  0  0  0  0  0  0  0  0  0
  -18.0380  -28.0870   22.9160 C   0  0  0  0  0  0  0  0  0  0  0  0
  -20.5940  -28.3670   23.1880 C   0  0  0  0  0  3  0  0  0  0  0  0
  -20.7060  -26.9320   22.6220 C   0  0  0  0  0  2  0  0  0  0  0  0
  -19.6090  -26.6010   21.6070 C   0  0  0  0  0  2  0  0  0  0  0  0
  -18.2250  -26.7360   22.2450 C   0  0  0  0  0  2  0  0  0  0  0  0
  -19.1510  -28.8610   23.3450 C   0  0  0  0  0  0  0  0  0  0  0  0
  -18.9200  -30.1200   23.9370 C   0  0  0  0  0  3  0  0  0  0  0  0
  -17.6090  -30.6060   24.1040 C   0  0  0  0  0  3  0  0  0  0  0  0
  -16.5140  -29.8340   23.6870 C   0  0  0  0  0  3  0  0  0  0  0  0
  -16.7290  -28.5780   23.0950 C   0  0  0  0  0  3  0  0  0  0  0  0
  -25.8800  -32.5400   23.8510 C   0  0  0  0  0  3  0  0  0  0  0  0
  -26.3810  -31.7890   25.1480 C   0  0  1  0  0  0  0  0  0  0  0  0
  -25.2780  -31.5730   26.2090 C   0  0  0  0  0  1  0  0  0  0  0  0
  -26.9670  -30.4030   24.7930 C   0  0  0  0  0  1  0  0  0  0  0  0
  -27.5220  -32.5970   25.8120 C   0  0  0  0  0  1  0  0  0  0  0  0
  -25.5650  -33.9440   24.1650 N   0  0  0  0  0  0  0  0  0  0  0  0
  -25.9060  -34.9930   23.4010 C   0  0  0  0  0  0  0  0  0  0  0  0
  -26.5830  -34.8790   22.3760 O   0  0  0  0  0  0  0  0  0  0  0  0
  -24.9560  -34.1020   24.9540 H   0  0  0  0  0  0  0  0  0  0  0  0
  -24.1880  -36.7950   23.0190 C   0  0  0  0  0  1  0  0  0  0  0  0
  -25.4190  -36.3860   23.8450 C   0  0  0  0  0  3  0  0  0  0  0  0
  -27.5490  -37.2720   24.6910 C   0  0  0  0  0  1  0  0  0  0  0  0
  -26.4570  -37.4360   23.7350 N   0  0  0  0  0  0  0  0  0  0  0  0
  -26.0490  -38.3590   23.8670 H   0  0  0  0  0  0  0  0  0  0  0  0
  1  3  2  0
  2  1  1  0
  4  2  1  0
  6  8  1  0
  6  5  1  0
  7  2  1  0
  7  5  1  0
  8 17  1  0
  8  7  1  0
  9 17  1  0
 10 15  1  0
 11 12  1  0
 11 10  1  0
 13 12  1  0
 13 22  1  0
 13 14  1  0
 15  9  1  0
 15 14  1  0
 16  9  2  0
 18 17  1  0
 19 20  2  0
 20 39  1  0
 21 20  1  0
 21 24  1  0
 22 23  1  0
 22 19  1  0
 23 21  2  0
 24 25  1  0
 25 26  2  0
 27 30  1  0
 27 26  1  0
 28 27  2  0
 29 28  1  0
 29 24  2  0
 30 31  1  0
 31 32  1  0
 32 33  2  0
 34 33  1  0
 34 38  1  0
 35 34  2  0
 36 31  2  0
 36 35  1  0
 37 36  1  0
 39 40  1  0
 40 43  1  0
 40 42  1  0
 41 39  2  0
 44 45  1  0
 44 19  1  0
 46 44  1  0
 47 48  1  0
 47  1  1  0
 49 48  1  0
 50 61  2  0
 51 49  1  0
 51 56  1  0
 52 60  1  0
 52 62  1  0
 53 59  1  0
 53 55  1  0
 54 60  1  0
 55 56  2  0
 55 54  1  0
 57 51  2  0
 58 57  1  0
 58 53  2  0
 59 52  1  0
 60 50  1  0
 62 64  2  0
 63 62  1  0
 65 63  1  0
 66 75  2  0
 66 71  1  0
 67 63  1  0
 67 71  1  0
 68 67  1  0
 69 70  1  0
 69 68  1  0
 70 66  1  0
 71 72  2  0
 72 73  1  0
 74 73  2  0
 75 74  1  0
 76 50  1  0
 76 81  1  0
 76 77  1  0
 77 80  1  1
 77 78  1  0
 79 77  1  0
 81 84  1  0
 82 86  1  0
 82 81  1  0
 83 82  2  0
 86 85  1  0
 88 86  1  0
 88 89  1  0
 88 87  1  0
M  ISO  4   9 100  17 100  48 101  49 101
M  END
>  <TORSDO>  (81) 
F 19

>  <SCORE>  (81) 
-14.887

>  <name>  (81) 
82

>  <ligand_id>  (81) 
82

>  <original_smiles>  (81) 
[H]c1c([H])c([H])c2c(c1[H])C([H])([H])C([H])([H])C([H])([H])C2([H])N([H])C(=O)C1([H])N(C(=O)C([H])(N([H])C(=O)C([H])(N([H])C([H])([H])[H])C([H])([H])[H])C(C([H])([H])[H])(C([H])([H])[H])C([H])([H])[H])C([H])([H])c2c([H])c(OC([H])([H])C([H])([H])C(=O)N([H])C3([H])C([H])([H])C([H])([H])C3([H])N([H])C(=O)N3C([H])([H])C([H])([H])C([H])([H])C([H])(n4nc(-c5c([H])c([H])c(Oc6c([H])c([H])c(F)c([H])c6F)c([H])c5[H])c(C(=O)N([H])[H])c4N([H])[H])C3([H])[H])c([H])c([H])c2C1([H])[H]

>  <smiles>  (81) 
[H]c1c([H])c([H])c2c(c1[H])C([H])([H])C([H])([H])C([H])([H])C2([H])N([H])C(=O)C1([H])N(C(=O)C([H])(N([H])C(=O)C([H])(N([H])C([H])([H])[H])C([H])([H])[H])C(C([H])([H])[H])(C([H])([H])[H])C([H])([H])[H])C([H])([H])c2c([H])c(OC([H])([H])C([H])([H])C(=O)N([H])C3([H])C([H])([H])C([H])([H])C3([H])N([H])C(=O)N3C([H])([H])C([H])([H])C([H])([H])C([H])(n4nc(-c5c([H])c([H])c(Oc6c([H])c([H])c(F)c([H])c6F)c([H])c5[H])c(C(=O)N([H])[H])c4N([H])[H])C3([H])[H])c([H])c([H])c2C1([H])[H]

$$$$
83:0:0
     RDKit          3D

 89 98  0  0  1  0  0  0  0  0999 V2000
  -29.7510  -21.8550   18.8480 C   0  0  0  0  0  2  0  0  0  0  0  0
  -30.0700  -19.1770   18.7120 C   0  0  0  0  0  2  0  0  0  0  0  0
  -30.6990  -20.5820   19.0700 C   0  0  0  0  0  3  0  0  0  0  0  0
  -29.3230  -20.3740   20.7700 C   0  0  0  0  0  3  0  0  0  0  0  0
  -28.9630  -22.1450   20.1640 C   0  0  0  0  0  3  0  0  0  0  0  0
  -29.2820  -18.6810   19.9590 C   0  0  0  0  0  3  0  0  0  0  0  0
  -30.8970  -20.4910   20.5940 C   0  0  2  0  0  0  0  0  0  0  0  0
  -31.6840  -21.7070   21.1900 C   0  0  0  0  0  1  0  0  0  0  0  0
  -31.7880  -19.3000   21.0850 C   0  0  0  0  0  1  0  0  0  0  0  0
  -30.2500  -15.6080   20.1490 C   0  0  0  0  0  0  0  0  0  0  0  0
  -30.3100  -13.0690   19.3510 C   0  0  0  0  0  2  0  0  0  0  0  0
  -29.3890  -12.7170   18.1480 C   0  0  0  0  0  2  0  0  0  0  0  0
  -27.9670  -12.3800   18.6190 C   0  0  0  0  0  2  0  0  0  0  0  0
  -27.4950  -13.3650   19.7130 C   0  0  0  0  0  3  0  0  0  0  0  0
  -28.5510  -13.6370   20.8130 C   0  0  0  0  0  2  0  0  0  0  0  0
  -29.7320  -14.2410   20.1500 N   0  0  0  0  0  0  0  0  0  0  0  0
  -31.4490  -15.5680   19.8240 O   0  0  0  0  0  0  0  0  0  0  0  0
  -29.4840  -16.9460   20.3400 N   0  0  0  0  0  0  0  0  0  0  0  0
  -28.6110  -16.6590   20.7600 H   0  0  0  0  0  0  0  0  0  0  0  0
  -25.1510  -13.8980   20.5320 C   0  0  0  0  0  0  0  0  0  0  0  0
  -24.0990  -13.1170   20.9170 C   0  0  0  0  0  0  0  0  0  0  0  0
  -24.5610  -11.7670   20.8560 C   0  0  0  0  0  0  0  0  0  0  0  0
  -26.1850  -13.0270   20.2520 N   0  0  0  0  0  0  0  0  0  0  0  0
  -25.8470  -11.7360   20.5140 N   0  0  0  0  0  0  0  0  0  0  0  0
  -23.8330  -10.5030   21.0450 C   0  0  0  0  0  0  0  0  0  0  0  0
  -24.2810   -9.5210   21.9560 C   0  0  0  0  0  3  0  0  0  0  0  0
  -23.5490   -8.3280   22.1390 C   0  0  0  0  0  3  0  0  0  0  0  0
  -22.3570   -8.1060   21.4100 C   0  0  0  0  0  0  0  0  0  0  0  0
  -21.9260   -9.0770   20.4890 C   0  0  0  0  0  3  0  0  0  0  0  0
  -22.6580  -10.2630   20.3050 C   0  0  0  0  0  3  0  0  0  0  0  0
  -21.5950   -6.9670   21.5020 O   0  0  0  0  0  0  0  0  0  0  0  0
  -21.5660   -6.2090   22.6460 C   0  0  0  0  0  0  0  0  0  0  0  0
  -21.1600   -6.7490   23.8860 C   0  0  0  0  0  3  0  0  0  0  0  0
  -21.0780   -5.9180   25.0220 C   0  0  0  0  0  3  0  0  0  0  0  0
  -21.3930   -4.5510   24.9200 C   0  0  0  0  0  0  0  0  0  0  0  0
  -21.7930   -4.0100   23.6850 C   0  0  0  0  0  3  0  0  0  0  0  0
  -21.8750   -4.8370   22.5510 C   0  0  0  0  0  0  0  0  0  0  0  0
  -22.2390   -4.3070   21.3590 F   0  0  0  0  0  0  0  0  0  0  0  0
  -21.3080   -3.7510   26.0090 F   0  0  0  0  0  0  0  0  0  0  0  0
  -22.7100  -13.5940   21.2220 C   0  0  0  0  0  0  0  0  0  0  0  0
  -22.0000  -12.8950   22.0990 N   0  0  0  0  0  0  0  0  0  0  0  0
  -22.2640  -14.6250   20.7180 O   0  0  0  0  0  0  0  0  0  0  0  0
  -22.3760  -12.0630   22.5290 H   0  0  0  0  0  0  0  0  0  0  0  0
  -21.0680  -13.1950   22.3480 H   0  0  0  0  0  0  0  0  0  0  0  0
  -25.3140  -15.2710   20.3670 N   0  0  0  0  0  0  0  0  0  0  0  0
  -24.5480  -15.9240   20.4920 H   0  0  0  0  0  0  0  0  0  0  0  0
  -26.1430  -15.6990   19.9780 H   0  0  0  0  0  0  0  0  0  0  0  0
  -27.9530  -23.7980   20.2850 C   0  0  0  0  0  2  0  0  0  0  0  0
  -28.1360  -25.5450   20.2670 O   0  0  0  0  0  0  0  0  0  0  0  0
  -24.6140  -31.8180   23.1840 C   0  0  0  0  0  0  0  0  0  0  0  0
  -27.1490  -26.7400   20.2270 C   0  0  0  0  0  0  0  0  0  0  0  0
  -23.4270  -30.4130   21.5530 C   0  0  0  0  0  3  0  0  0  0  0  0
  -24.8760  -28.7580   20.1510 C   0  0  0  0  0  0  0  0  0  0  0  0
  -26.0070  -30.5600   21.4330 C   0  0  0  0  0  2  0  0  0  0  0  0
  -26.0720  -29.1260   20.7820 C   0  0  0  0  0  0  0  0  0  0  0  0
  -27.1950  -28.1440   20.7820 C   0  0  0  0  0  3  0  0  0  0  0  0
  -25.9190  -26.5780   19.5430 C   0  0  0  0  0  3  0  0  0  0  0  0
  -24.8390  -27.5110   19.5050 C   0  0  0  0  0  3  0  0  0  0  0  0
  -23.6690  -29.7070   20.1870 C   0  0  0  0  0  2  0  0  0  0  0  0
  -24.7080  -30.9630   22.1080 N   0  0  0  0  0  0  0  0  0  0  0  0
  -23.5210  -32.1220   23.6910 O   0  0  0  0  0  0  0  0  0  0  0  0
  -22.7110  -29.4400   22.5280 C   0  0  0  0  0  0  0  0  0  0  0  0
  -21.3780  -29.2930   22.4070 N   0  0  0  0  0  0  0  0  0  0  0  0
  -23.3680  -28.8120   23.3620 O   0  0  0  0  0  0  0  0  0  0  0  0
  -20.9000  -29.8470   21.7110 H   0  0  0  0  0  0  0  0  0  0  0  0
  -17.9810  -28.1160   22.9390 C   0  0  0  0  0  0  0  0  0  0  0  0
  -20.5470  -28.3640   23.1830 C   0  0  0  0  0  3  0  0  0  0  0  0
  -20.6310  -26.9300   22.6050 C   0  0  0  0  0  2  0  0  0  0  0  0
  -19.5200  -26.6190   21.5980 C   0  0  0  0  0  2  0  0  0  0  0  0
  -18.1440  -26.7700   22.2520 C   0  0  0  0  0  2  0  0  0  0  0  0
  -19.1090  -28.8710   23.3590 C   0  0  0  0  0  0  0  0  0  0  0  0
  -18.8990  -30.1290   23.9660 C   0  0  0  0  0  3  0  0  0  0  0  0
  -17.5970  -30.6310   24.1520 C   0  0  0  0  0  3  0  0  0  0  0  0
  -16.4860  -29.8750   23.7430 C   0  0  0  0  0  3  0  0  0  0  0  0
  -16.6790  -28.6180   23.1430 C   0  0  0  0  0  3  0  0  0  0  0  0
  -25.8770  -32.4690   23.8240 C   0  0  0  0  0  3  0  0  0  0  0  0
  -25.5530  -33.8690   24.1590 N   0  0  0  0  0  0  0  0  0  0  0  0
  -25.8790  -34.9360   23.4160 C   0  0  0  0  0  0  0  0  0  0  0  0
  -26.5400  -34.8460   22.3800 O   0  0  0  0  0  0  0  0  0  0  0  0
  -24.9610  -34.0130   24.9630 H   0  0  0  0  0  0  0  0  0  0  0  0
  -24.1400  -36.7350   23.1150 C   0  0  0  0  0  1  0  0  0  0  0  0
  -25.3980  -36.3200   23.8970 C   0  0  0  0  0  3  0  0  0  0  0  0
  -27.5420  -37.2140   24.6990 C   0  0  0  0  0  1  0  0  0  0  0  0
  -26.4240  -37.3800   23.7720 N   0  0  0  0  0  0  0  0  0  0  0  0
  -26.0170  -38.2980   23.9300 H   0  0  0  0  0  0  0  0  0  0  0  0
  -26.3750  -31.7100   25.1170 C   0  0  1  0  0  0  0  0  0  0  0  0
  -25.2680  -31.4870   26.1740 C   0  0  0  0  0  1  0  0  0  0  0  0
  -26.9590  -30.3250   24.7580 C   0  0  0  0  0  1  0  0  0  0  0  0
  -27.5220  -32.5070   25.7830 C   0  0  0  0  0  1  0  0  0  0  0  0
  1  3  1  0
  1  5  1  0
  2  6  1  0
  3  2  1  0
  3  7  1  0
  4  7  1  0
  5 48  1  0
  5  4  1  0
  6 18  1  0
  6  4  1  0
  7  9  1  6
  7  8  1  0
 10 16  1  0
 10 18  1  0
 11 16  1  0
 12 13  1  0
 12 11  1  0
 14 13  1  0
 14 23  1  0
 14 15  1  0
 16 15  1  0
 17 10  2  0
 18 19  1  0
 20 21  2  0
 21 40  1  0
 22 21  1  0
 22 25  1  0
 23 24  1  0
 23 20  1  0
 24 22  2  0
 25 26  1  0
 26 27  2  0
 28 31  1  0
 28 27  1  0
 29 28  2  0
 30 29  1  0
 30 25  2  0
 31 32  1  0
 32 33  1  0
 33 34  2  0
 35 34  1  0
 35 39  1  0
 36 35  2  0
 37 32  2  0
 37 36  1  0
 38 37  1  0
 40 41  1  0
 41 44  1  0
 41 43  1  0
 42 40  2  0
 45 46  1  0
 45 20  1  0
 47 45  1  0
 49 48  1  0
 50 61  2  0
 51 49  1  0
 51 56  1  0
 52 60  1  0
 52 62  1  0
 53 59  1  0
 53 55  1  0
 54 60  1  0
 55 56  2  0
 55 54  1  0
 57 51  2  0
 58 57  1  0
 58 53  2  0
 59 52  1  0
 60 50  1  0
 62 64  2  0
 63 62  1  0
 65 63  1  0
 66 75  2  0
 66 71  1  0
 67 63  1  0
 67 71  1  0
 68 67  1  0
 69 70  1  0
 69 68  1  0
 70 66  1  0
 71 72  2  0
 72 73  1  0
 74 73  2  0
 75 74  1  0
 76 50  1  0
 76 77  1  0
 76 86  1  0
 77 80  1  0
 78 82  1  0
 78 77  1  0
 79 78  2  0
 82 81  1  0
 84 82  1  0
 84 85  1  0
 84 83  1  0
 86 89  1  1
 86 87  1  0
 88 86  1  0
M  ISO  4  10 100  18 100  48 101  49 101
M  END
>  <TORSDO>  (82) 
F 17

>  <SCORE>  (82) 
-16.744

>  <name>  (82) 
83

>  <ligand_id>  (82) 
83

>  <original_smiles>  (82) 
[H]c1c([H])c([H])c2c(c1[H])C([H])([H])C([H])([H])C([H])([H])C2([H])N([H])C(=O)C1([H])N(C(=O)C([H])(N([H])C(=O)C([H])(N([H])C([H])([H])[H])C([H])([H])[H])C(C([H])([H])[H])(C([H])([H])[H])C([H])([H])[H])C([H])([H])c2c([H])c(OC([H])([H])C3([H])C([H])([H])C4([H])C([H])([H])C([H])(N([H])C(=O)N5C([H])([H])C([H])([H])C([H])([H])C([H])(n6nc(-c7c([H])c([H])c(Oc8c([H])c([H])c(F)c([H])c8F)c([H])c7[H])c(C(=O)N([H])[H])c6N([H])[H])C5([H])[H])C3([H])C4(C([H])([H])[H])C([H])([H])[H])c([H])c([H])c2C1([H])[H]

>  <smiles>  (82) 
[H]c1c([H])c([H])c2c(c1[H])C([H])([H])C([H])([H])C([H])([H])C2([H])N([H])C(=O)C1([H])N(C(=O)C([H])(N([H])C(=O)C([H])(N([H])C([H])([H])[H])C([H])([H])[H])C(C([H])([H])[H])(C([H])([H])[H])C([H])([H])[H])C([H])([H])c2c([H])c(OC([H])([H])C3([H])C([H])([H])C4([H])C([H])([H])C([H])(N([H])C(=O)N5C([H])([H])C([H])([H])C([H])([H])C([H])(n6nc(-c7c([H])c([H])c(Oc8c([H])c([H])c(F)c([H])c8F)c([H])c7[H])c(C(=O)N([H])[H])c6N([H])[H])C5([H])[H])C3([H])C4(C([H])([H])[H])C([H])([H])[H])c([H])c([H])c2C1([H])[H]

$$$$
84:0:0
     RDKit          3D

 89 95  0  0  1  0  0  0  0  0999 V2000
  -29.4800  -17.9550   20.5740 C   0  0  0  0  0  2  0  0  0  0  0  0
  -29.2750  -19.5010   20.0370 C   0  0  0  0  0  3  0  0  0  0  0  0
  -30.1420  -16.2340   20.2940 C   0  0  0  0  0  0  0  0  0  0  0  0
  -30.4030  -13.5240   19.6580 C   0  0  0  0  0  2  0  0  0  0  0  0
  -29.6220  -12.8740   18.4620 C   0  0  0  0  0  2  0  0  0  0  0  0
  -28.2310  -12.4090   18.8910 C   0  0  0  0  0  2  0  0  0  0  0  0
  -27.6060  -13.4580   19.8300 C   0  0  0  0  0  3  0  0  0  0  0  0
  -28.5470  -14.0160   20.9410 C   0  0  0  0  0  2  0  0  0  0  0  0
  -29.6830  -14.7680   20.3100 N   0  0  0  0  0  0  0  0  0  0  0  0
  -31.3640  -16.0340   20.0680 O   0  0  0  0  0  0  0  0  0  0  0  0
  -25.2320  -13.9390   20.5330 C   0  0  0  0  0  0  0  0  0  0  0  0
  -24.1690  -13.1530   20.8710 C   0  0  0  0  0  0  0  0  0  0  0  0
  -24.6490  -11.8060   20.8590 C   0  0  0  0  0  0  0  0  0  0  0  0
  -26.2890  -13.0800   20.3230 N   0  0  0  0  0  0  0  0  0  0  0  0
  -25.9530  -11.7860   20.5830 N   0  0  0  0  0  0  0  0  0  0  0  0
  -23.9180  -10.5420   21.0350 C   0  0  0  0  0  0  0  0  0  0  0  0
  -24.3280   -9.5710   21.9770 C   0  0  0  0  0  3  0  0  0  0  0  0
  -23.5890   -8.3790   22.1480 C   0  0  0  0  0  3  0  0  0  0  0  0
  -22.4250   -8.1490   21.3780 C   0  0  0  0  0  0  0  0  0  0  0  0
  -22.0320   -9.1070   20.4270 C   0  0  0  0  0  3  0  0  0  0  0  0
  -22.7710  -10.2900   20.2550 C   0  0  0  0  0  3  0  0  0  0  0  0
  -21.6590   -7.0100   21.4570 O   0  0  0  0  0  0  0  0  0  0  0  0
  -21.5980   -6.2590   22.6040 C   0  0  0  0  0  0  0  0  0  0  0  0
  -21.1660   -6.8080   23.8320 C   0  0  0  0  0  3  0  0  0  0  0  0
  -21.0540   -5.9860   24.9700 C   0  0  0  0  0  3  0  0  0  0  0  0
  -21.3620   -4.6140   24.8810 C   0  0  0  0  0  0  0  0  0  0  0  0
  -21.7850   -4.0650   23.6590 C   0  0  0  0  0  3  0  0  0  0  0  0
  -21.9000   -4.8850   22.5220 C   0  0  0  0  0  0  0  0  0  0  0  0
  -22.2890   -4.3460   21.3420 F   0  0  0  0  0  0  0  0  0  0  0  0
  -21.2470   -3.8220   25.9730 F   0  0  0  0  0  0  0  0  0  0  0  0
  -22.7620  -13.6270   21.0880 C   0  0  0  0  0  0  0  0  0  0  0  0
  -22.0100  -12.9440   21.9430 N   0  0  0  0  0  0  0  0  0  0  0  0
  -22.3400  -14.6430   20.5370 O   0  0  0  0  0  0  0  0  0  0  0  0
  -22.3650  -12.1260   22.4130 H   0  0  0  0  0  0  0  0  0  0  0  0
  -21.0660  -13.2470   22.1340 H   0  0  0  0  0  0  0  0  0  0  0  0
  -25.3880  -15.3100   20.3500 N   0  0  0  0  0  0  0  0  0  0  0  0
  -24.6170  -15.9610   20.4420 H   0  0  0  0  0  0  0  0  0  0  0  0
  -26.2470  -15.7530   20.0520 H   0  0  0  0  0  0  0  0  0  0  0  0
  -30.6300  -19.8680   18.1740 C   0  0  0  0  0  0  0  0  0  0  0  0
  -31.8360  -20.3490   18.9690 C   0  0  0  0  0  1  0  0  0  0  0  0
  -29.5210  -19.4890   18.6730 N   0  0  0  0  0  0  0  0  0  0  0  0
  -29.9790  -19.9070   14.7390 C   0  0  0  0  0  2  0  0  0  0  0  0
  -30.1030  -18.8230   15.8200 C   0  0  0  0  0  2  0  0  0  0  0  0
  -30.0290  -20.9320   15.8810 C   0  0  0  0  0  2  0  0  0  0  0  0
  -30.8420  -19.8840   16.6620 C   0  0  0  0  0  3  0  0  0  0  0  0
  -29.1410  -21.3930   21.8270 C   0  0  0  0  0  1  0  0  0  0  0  0
  -28.8520  -21.2850   20.5240 C   0  0  0  0  0  2  0  0  0  0  0  0
  -28.1630  -23.1240   19.9440 C   0  0  0  0  0 15  0  0  0  0  0  0
  -28.1510  -25.0350   20.2980 O   0  0  0  0  0  1  0  0  0  0  0  0
  -24.6250  -31.7810   23.0500 C   0  0  0  0  0  0  0  0  0  0  0  0
  -27.2240  -26.4050   20.1820 C   0  0  0  0  0  0  0  0  0  0  0  0
  -23.4840  -30.3380   21.4260 C   0  0  0  0  0  3  0  0  0  0  0  0
  -24.9690  -28.6290   20.0640 C   0  0  0  0  0  0  0  0  0  0  0  0
  -26.0750  -30.4140   21.3690 C   0  0  0  0  0  2  0  0  0  0  0  0
  -26.1600  -28.9390   20.7310 C   0  0  0  0  0  0  0  0  0  0  0  0
  -27.2500  -27.8630   20.7540 C   0  0  0  0  0  3  0  0  0  0  0  0
  -25.9980  -26.3990   19.4400 C   0  0  0  0  0  3  0  0  0  0  0  0
  -24.9490  -27.3900   19.3940 C   0  0  0  0  0  3  0  0  0  0  0  0
  -23.7650  -29.6040   20.0770 C   0  0  0  0  0  2  0  0  0  0  0  0
  -24.7560  -30.8870   22.0000 N   0  0  0  0  0  0  0  0  0  0  0  0
  -23.5160  -32.0860   23.5280 O   0  0  0  0  0  0  0  0  0  0  0  0
  -22.7410  -29.3930   22.4120 C   0  0  0  0  0  0  0  0  0  0  0  0
  -21.4050  -29.2550   22.2950 N   0  0  0  0  0  0  0  0  0  0  0  0
  -23.3870  -28.7740   23.2610 O   0  0  0  0  0  0  0  0  0  0  0  0
  -20.9250  -29.8010   21.5920 H   0  0  0  0  0  0  0  0  0  0  0  0
  -18.0110  -28.0660   22.8600 C   0  0  0  0  0  0  0  0  0  0  0  0
  -20.5780  -28.3250   23.0780 C   0  0  0  0  0  3  0  0  0  0  0  0
  -20.6600  -26.8930   22.4980 C   0  0  0  0  0  2  0  0  0  0  0  0
  -19.5430  -26.5820   21.4980 C   0  0  0  0  0  2  0  0  0  0  0  0
  -18.1720  -26.7260   22.1640 C   0  0  0  0  0  2  0  0  0  0  0  0
  -19.1390  -28.8250   23.2740 C   0  0  0  0  0  0  0  0  0  0  0  0
  -18.9300  -30.0770   23.8920 C   0  0  0  0  0  3  0  0  0  0  0  0
  -17.6270  -30.5720   24.0960 C   0  0  0  0  0  3  0  0  0  0  0  0
  -16.5150  -29.8120   23.6940 C   0  0  0  0  0  3  0  0  0  0  0  0
  -16.7080  -28.5610   23.0810 C   0  0  0  0  0  3  0  0  0  0  0  0
  -25.8580  -32.4760   23.7050 C   0  0  0  0  0  3  0  0  0  0  0  0
  -26.3610  -31.7360   25.0090 C   0  0  1  0  0  0  0  0  0  0  0  0
  -25.2490  -31.4860   26.0560 C   0  0  0  0  0  1  0  0  0  0  0  0
  -26.9870  -30.3680   24.6670 C   0  0  0  0  0  1  0  0  0  0  0  0
  -27.4760  -32.5660   25.6880 C   0  0  0  0  0  1  0  0  0  0  0  0
  -25.4900  -33.8690   24.0470 N   0  0  0  0  0  0  0  0  0  0  0  0
  -25.8140  -34.9580   23.3350 C   0  0  0  0  0  0  0  0  0  0  0  0
  -26.5000  -34.8970   22.3130 O   0  0  0  0  0  0  0  0  0  0  0  0
  -24.8800  -33.9890   24.8420 H   0  0  0  0  0  0  0  0  0  0  0  0
  -24.0600  -36.7440   23.0200 C   0  0  0  0  0  1  0  0  0  0  0  0
  -25.3000  -36.3290   23.8300 C   0  0  0  0  0  3  0  0  0  0  0  0
  -27.4070  -37.2420   24.7080 C   0  0  0  0  0  1  0  0  0  0  0  0
  -26.3140  -37.4070   23.7550 N   0  0  0  0  0  0  0  0  0  0  0  0
  -25.8870  -38.3140   23.9160 H   0  0  0  0  0  0  0  0  0  0  0  0
  2 47  1  0
  2  1  1  0
  3  9  1  0
  3  1  1  0
  4  9  1  0
  5  6  1  0
  5  4  1  0
  7  6  1  0
  7 14  1  0
  7  8  1  0
  9  8  1  0
 10  3  2  0
 11 12  2  0
 12 31  1  0
 13 12  1  0
 13 16  1  0
 14 11  1  0
 14 15  1  0
 15 13  2  0
 16 17  1  0
 17 18  2  0
 19 22  1  0
 19 18  1  0
 20 19  2  0
 21 20  1  0
 21 16  2  0
 22 23  1  0
 23 24  1  0
 24 25  2  0
 26 25  1  0
 26 30  1  0
 27 26  2  0
 28 23  2  0
 28 27  1  0
 29 28  1  0
 31 32  1  0
 32 35  1  0
 32 34  1  0
 33 31  2  0
 36 37  1  0
 36 11  1  0
 38 36  1  0
 39 41  2  0
 39 40  1  0
 41  2  1  0
 42 43  1  0
 42 44  1  0
 43 45  1  0
 44 45  1  0
 45 39  1  0
 47 46  1  0
 50 61  2  0
 51 49  1  0
 51 56  1  0
 52 60  1  0
 52 62  1  0
 53 59  1  0
 53 55  1  0
 54 60  1  0
 55 56  2  0
 55 54  1  0
 57 51  2  0
 58 57  1  0
 58 53  2  0
 59 52  1  0
 60 50  1  0
 62 64  2  0
 63 62  1  0
 65 63  1  0
 66 75  2  0
 66 71  1  0
 67 63  1  0
 67 71  1  0
 68 67  1  0
 69 70  1  0
 69 68  1  0
 70 66  1  0
 71 72  2  0
 72 73  1  0
 74 73  2  0
 75 74  1  0
 76 50  1  0
 76 81  1  0
 76 77  1  0
 77 80  1  1
 77 78  1  0
 79 77  1  0
 81 84  1  0
 82 86  1  0
 82 81  1  0
 83 82  2  0
 86 85  1  0
 88 86  1  0
 88 89  1  0
 88 87  1  0
M  ISO  4   1 100   3 100  48 101  49 101
M  END
>  <TORSDO>  (83) 
F 20

>  <SCORE>  (83) 
-15.879

>  <name>  (83) 
84

>  <ligand_id>  (83) 
84

>  <original_smiles>  (83) 
[H]C([H])=C(C(N=C(C([H])([H])[H])C1([H])C([H])([H])C([H])([H])C1([H])[H])=C([H])C(=O)N1C([H])([H])C([H])([H])C([H])([H])C([H])(n2nc(-c3c([H])c([H])c(Oc4c([H])c([H])c(F)c([H])c4F)c([H])c3[H])c(C(=O)N([H])[H])c2N([H])[H])C1([H])[H])C([H])([H])Oc1c([H])c([H])c2c(c1[H])C([H])([H])N(C(=O)C([H])(N([H])C(=O)C([H])(N([H])C([H])([H])[H])C([H])([H])[H])C(C([H])([H])[H])(C([H])([H])[H])C([H])([H])[H])C([H])(C(=O)N([H])C1([H])c3c([H])c([H])c([H])c([H])c3C([H])([H])C([H])([H])C1([H])[H])C2([H])[H]

>  <smiles>  (83) 
[H]C([H])=C(C(N=C(C([H])([H])[H])C1([H])C([H])([H])C([H])([H])C1([H])[H])=C([H])C(=O)N1C([H])([H])C([H])([H])C([H])([H])C([H])(n2nc(-c3c([H])c([H])c(Oc4c([H])c([H])c(F)c([H])c4F)c([H])c3[H])c(C(=O)N([H])[H])c2N([H])[H])C1([H])[H])C([H])([H])Oc1c([H])c([H])c2c(c1[H])C([H])([H])N(C(=O)C([H])(N([H])C(=O)C([H])(N([H])C([H])([H])[H])C([H])([H])[H])C(C([H])([H])[H])(C([H])([H])[H])C([H])([H])[H])C([H])(C(=O)N([H])C1([H])c3c([H])c([H])c([H])c([H])c3C([H])([H])C([H])([H])C1([H])[H])C2([H])[H]

$$$$
85:0:0
     RDKit          3D

 88 96  0  0  1  0  0  0  0  0999 V2000
  -28.6720  -18.8330   19.0240 C   0  0  0  0  0  0  0  0  0  0  0  0
  -28.2580  -20.3820   19.0900 C   0  0  0  0  0  2  0  0  0  0  0  0
  -29.5000  -19.7670   20.9480 C   0  0  0  0  0  2  0  0  0  0  0  0
  -29.7520  -18.3230   20.0360 C   0  0  0  0  0  3  0  0  0  0  0  0
  -29.0970  -21.0960   20.1090 N   0  0  2  0  0  4  0  0  0  0  0  0
  -28.1280  -18.0760   18.2140 O   0  0  0  0  0  0  0  0  0  0  0  0
  -29.9460  -21.2920   19.5980 H   0  0  0  0  0  0  0  0  0  0  0  0
  -30.4460  -15.4050   20.2640 C   0  0  0  0  0  0  0  0  0  0  0  0
  -30.4700  -12.9340   19.4290 C   0  0  0  0  0  2  0  0  0  0  0  0
  -29.5620  -12.6920   18.1950 C   0  0  0  0  0  2  0  0  0  0  0  0
  -28.1200  -12.3910   18.6340 C   0  0  0  0  0  2  0  0  0  0  0  0
  -27.6470  -13.3570   19.7490 C   0  0  0  0  0  3  0  0  0  0  0  0
  -28.6870  -13.5470   20.8760 C   0  0  0  0  0  2  0  0  0  0  0  0
  -29.9090  -14.0780   20.2490 N   0  0  0  0  0  0  0  0  0  0  0  0
  -31.6490  -15.4180   19.9600 O   0  0  0  0  0  0  0  0  0  0  0  0
  -29.6810  -16.6760   20.4490 N   0  0  0  0  0  0  0  0  0  0  0  0
  -28.7470  -16.4490   20.7530 H   0  0  0  0  0  0  0  0  0  0  0  0
  -25.2710  -13.8820   20.5040 C   0  0  0  0  0  0  0  0  0  0  0  0
  -24.2200  -13.0910   20.8730 C   0  0  0  0  0  0  0  0  0  0  0  0
  -24.7030  -11.7470   20.8370 C   0  0  0  0  0  0  0  0  0  0  0  0
  -26.3250  -13.0200   20.2570 N   0  0  0  0  0  0  0  0  0  0  0  0
  -25.9950  -11.7290   20.5260 N   0  0  0  0  0  0  0  0  0  0  0  0
  -23.9900  -10.4750   21.0240 C   0  0  0  0  0  0  0  0  0  0  0  0
  -24.4150   -9.5200   21.9740 C   0  0  0  0  0  3  0  0  0  0  0  0
  -23.6990   -8.3170   22.1510 C   0  0  0  0  0  3  0  0  0  0  0  0
  -22.5420   -8.0590   21.3760 C   0  0  0  0  0  0  0  0  0  0  0  0
  -22.1360   -9.0030   20.4160 C   0  0  0  0  0  3  0  0  0  0  0  0
  -22.8540  -10.1970   20.2380 C   0  0  0  0  0  3  0  0  0  0  0  0
  -21.7990   -6.9060   21.4600 O   0  0  0  0  0  0  0  0  0  0  0  0
  -21.7150   -6.1870   22.6250 C   0  0  0  0  0  0  0  0  0  0  0  0
  -21.2010   -6.7510   23.8130 C   0  0  0  0  0  3  0  0  0  0  0  0
  -21.0680   -5.9560   24.9690 C   0  0  0  0  0  3  0  0  0  0  0  0
  -21.4380   -4.5980   24.9370 C   0  0  0  0  0  0  0  0  0  0  0  0
  -21.9450   -4.0340   23.7530 C   0  0  0  0  0  3  0  0  0  0  0  0
  -22.0790   -4.8250   22.6000 C   0  0  0  0  0  0  0  0  0  0  0  0
  -22.5480   -4.2720   21.4560 F   0  0  0  0  0  0  0  0  0  0  0  0
  -21.3030   -3.8320   26.0440 F   0  0  0  0  0  0  0  0  0  0  0  0
  -22.8170  -13.5520   21.1400 C   0  0  0  0  0  0  0  0  0  0  0  0
  -22.0920  -12.8420   21.9960 N   0  0  0  0  0  0  0  0  0  0  0  0
  -22.3730  -14.5770   20.6240 O   0  0  0  0  0  0  0  0  0  0  0  0
  -22.4650  -12.0130   22.4340 H   0  0  0  0  0  0  0  0  0  0  0  0
  -21.1510  -13.1330   22.2180 H   0  0  0  0  0  0  0  0  0  0  0  0
  -25.4140  -15.2540   20.3250 N   0  0  0  0  0  0  0  0  0  0  0  0
  -24.6280  -15.8880   20.4170 H   0  0  0  0  0  0  0  0  0  0  0  0
  -26.2320  -15.6970   19.9270 H   0  0  0  0  0  0  0  0  0  0  0  0
  -28.6780  -22.6370   20.6920 C   0  0  0  0  0  2  0  0  0  0  0  0
  -28.1700  -24.2210   19.9330 C   0  0  0  0  0  2  0  0  0  0  0  0
  -28.1890  -25.8440   20.3540 O   0  0  0  0  0  0  0  0  0  0  0  0
  -24.5750  -31.8500   23.2170 C   0  0  0  0  0  0  0  0  0  0  0  0
  -27.1780  -26.9510   20.2280 C   0  0  0  0  0  0  0  0  0  0  0  0
  -23.4060  -30.4540   21.5620 C   0  0  0  0  0  3  0  0  0  0  0  0
  -24.8770  -28.8500   20.1510 C   0  0  0  0  0  0  0  0  0  0  0  0
  -25.9750  -30.6600   21.4530 C   0  0  0  0  0  2  0  0  0  0  0  0
  -26.0550  -29.2480   20.7950 C   0  0  0  0  0  0  0  0  0  0  0  0
  -27.1940  -28.3190   20.8110 C   0  0  0  0  0  3  0  0  0  0  0  0
  -25.9730  -26.7180   19.5240 C   0  0  0  0  0  3  0  0  0  0  0  0
  -24.8640  -27.6060   19.4950 C   0  0  0  0  0  3  0  0  0  0  0  0
  -23.6560  -29.7710   20.1870 C   0  0  0  0  0  2  0  0  0  0  0  0
  -24.6730  -31.0160   22.1310 N   0  0  0  0  0  0  0  0  0  0  0  0
  -23.4780  -32.1380   23.7240 O   0  0  0  0  0  0  0  0  0  0  0  0
  -22.6990  -29.4570   22.5190 C   0  0  0  0  0  0  0  0  0  0  0  0
  -21.3680  -29.3040   22.3870 N   0  0  0  0  0  0  0  0  0  0  0  0
  -23.3560  -28.8240   23.3470 O   0  0  0  0  0  0  0  0  0  0  0  0
  -20.8920  -29.8670   21.6960 H   0  0  0  0  0  0  0  0  0  0  0  0
  -17.9730  -28.1250   22.8900 C   0  0  0  0  0  0  0  0  0  0  0  0
  -20.5360  -28.3660   23.1490 C   0  0  0  0  0  3  0  0  0  0  0  0
  -20.6220  -26.9400   22.5560 C   0  0  0  0  0  2  0  0  0  0  0  0
  -19.5150  -26.6410   21.5400 C   0  0  0  0  0  2  0  0  0  0  0  0
  -18.1360  -26.7860   22.1900 C   0  0  0  0  0  2  0  0  0  0  0  0
  -19.0990  -28.8750   23.3250 C   0  0  0  0  0  0  0  0  0  0  0  0
  -18.8900  -30.1260   23.9430 C   0  0  0  0  0  3  0  0  0  0  0  0
  -17.5880  -30.6310   24.1280 C   0  0  0  0  0  3  0  0  0  0  0  0
  -16.4770  -29.8800   23.7050 C   0  0  0  0  0  3  0  0  0  0  0  0
  -16.6710  -28.6290   23.0930 C   0  0  0  0  0  3  0  0  0  0  0  0
  -25.8360  -32.4950   23.8690 C   0  0  0  0  0  3  0  0  0  0  0  0
  -25.5200  -33.9040   24.1720 N   0  0  0  0  0  0  0  0  0  0  0  0
  -25.8830  -34.9520   23.4210 C   0  0  0  0  0  0  0  0  0  0  0  0
  -26.5790  -34.8350   22.4090 O   0  0  0  0  0  0  0  0  0  0  0  0
  -24.9030  -34.0680   24.9530 H   0  0  0  0  0  0  0  0  0  0  0  0
  -24.1890  -36.7720   23.0090 C   0  0  0  0  0  1  0  0  0  0  0  0
  -25.4010  -36.3510   23.8580 C   0  0  0  0  0  3  0  0  0  0  0  0
  -27.5150  -37.2240   24.7560 C   0  0  0  0  0  1  0  0  0  0  0  0
  -26.4490  -37.3910   23.7710 N   0  0  0  0  0  0  0  0  0  0  0  0
  -26.0480  -38.3180   23.8920 H   0  0  0  0  0  0  0  0  0  0  0  0
  -26.3040  -31.7530   25.1820 C   0  0  1  0  0  0  0  0  0  0  0  0
  -25.1750  -31.5530   26.2210 C   0  0  0  0  0  1  0  0  0  0  0  0
  -26.8850  -30.3600   24.8520 C   0  0  0  0  0  1  0  0  0  0  0  0
  -27.4410  -32.5530   25.8590 C   0  0  0  0  0  1  0  0  0  0  0  0
  1  2  1  0
  1  4  1  0
  2  5  1  0
  4 16  1  0
  4  3  1  0
  5 46  1  0
  5  3  1  0
  6  1  2  0
  5  7  1  6
  8 16  1  0
  9 14  1  0
 10 11  1  0
 10  9  1  0
 12 11  1  0
 12 21  1  0
 12 13  1  0
 14  8  1  0
 14 13  1  0
 15  8  2  0
 16 17  1  0
 18 19  2  0
 19 38  1  0
 20 19  1  0
 20 23  1  0
 21 18  1  0
 21 22  1  0
 22 20  2  0
 23 24  1  0
 24 25  2  0
 26 29  1  0
 26 25  1  0
 27 26  2  0
 28 27  1  0
 28 23  2  0
 29 30  1  0
 30 31  1  0
 31 32  2  0
 33 32  1  0
 33 37  1  0
 34 33  2  0
 35 30  2  0
 35 34  1  0
 36 35  1  0
 38 39  1  0
 39 42  1  0
 39 41  1  0
 40 38  2  0
 43 44  1  0
 43 18  1  0
 45 43  1  0
 47 48  1  0
 47 46  1  0
 49 60  2  0
 50 48  1  0
 50 55  1  0
 51 59  1  0
 51 61  1  0
 52 58  1  0
 52 54  1  0
 53 59  1  0
 54 55  2  0
 54 53  1  0
 56 50  2  0
 57 56  1  0
 57 52  2  0
 58 51  1  0
 59 49  1  0
 61 63  2  0
 62 61  1  0
 64 62  1  0
 65 74  2  0
 65 70  1  0
 66 62  1  0
 66 70  1  0
 67 66  1  0
 68 69  1  0
 68 67  1  0
 69 65  1  0
 70 71  2  0
 71 72  1  0
 73 72  2  0
 74 73  1  0
 75 49  1  0
 75 76  1  0
 75 85  1  0
 76 79  1  0
 77 81  1  0
 77 76  1  0
 78 77  2  0
 81 80  1  0
 83 81  1  0
 83 84  1  0
 83 82  1  0
 85 88  1  1
 85 86  1  0
 87 85  1  0
M  ISO  4   8 100  16 100  47 101  48 101
M  END
>  <TORSDO>  (84) 
F 18

>  <SCORE>  (84) 
-16.596

>  <name>  (84) 
85

>  <ligand_id>  (84) 
85

>  <original_smiles>  (84) 
[H]c1c([H])c([H])c2c(c1[H])C([H])([H])C([H])([H])C([H])([H])C2([H])N([H])C(=O)C1([H])N(C(=O)C([H])(N([H])C(=O)C([H])(N([H])C([H])([H])[H])C([H])([H])[H])C(C([H])([H])[H])(C([H])([H])[H])C([H])([H])[H])C([H])([H])c2c([H])c(OC([H])([H])C([H])([H])[N+]3([H])C([H])([H])C(=O)C([H])(N([H])C(=O)N4C([H])([H])C([H])([H])C([H])([H])C([H])(n5nc(-c6c([H])c([H])c(Oc7c([H])c([H])c(F)c([H])c7F)c([H])c6[H])c(C(=O)N([H])[H])c5N([H])[H])C4([H])[H])C3([H])[H])c([H])c([H])c2C1([H])[H]

>  <smiles>  (84) 
[H]c1c([H])c([H])c2c(c1[H])C([H])([H])C([H])([H])C([H])([H])C2([H])N([H])C(=O)C1([H])N(C(=O)C([H])(N([H])C(=O)C([H])(N([H])C([H])([H])[H])C([H])([H])[H])C(C([H])([H])[H])(C([H])([H])[H])C([H])([H])[H])C([H])([H])c2c([H])c(OC([H])([H])C([H])([H])[N+]3([H])C([H])([H])C(=O)C([H])(N([H])C(=O)N4C([H])([H])C([H])([H])C([H])([H])C([H])(n5nc(-c6c([H])c([H])c(Oc7c([H])c([H])c(F)c([H])c7F)c([H])c6[H])c(C(=O)N([H])[H])c5N([H])[H])C4([H])[H])C3([H])[H])c([H])c([H])c2C1([H])[H]

$$$$
86:0:0
     RDKit          3D

 87 95  0  0  1  0  0  0  0  0999 V2000
  -30.9110  -21.5140   19.0650 C   0  0  0  0  0  2  0  0  0  0  0  0
  -31.3780  -20.2530   19.1460 C   0  0  0  0  0  2  0  0  0  0  0  0
  -28.2800  -20.2170   20.1950 C   0  0  0  0  0  2  0  0  0  0  0  0
  -30.2470  -21.4980   20.4290 C   0  0  0  0  0  3  0  0  0  0  0  0
  -30.6090  -19.8840   20.4140 C   0  0  0  0  0  3  0  0  0  0  0  0
  -28.7270  -21.9660   20.4630 C   0  0  0  0  0  2  0  0  0  0  0  0
  -29.4580  -18.8360   20.0850 C   0  0  0  0  0  3  0  0  0  0  0  0
  -30.2410  -15.6960   20.2680 C   0  0  0  0  0  0  0  0  0  0  0  0
  -30.3450  -13.1340   19.4860 C   0  0  0  0  0  2  0  0  0  0  0  0
  -29.4610  -12.7240   18.2710 C   0  0  0  0  0  2  0  0  0  0  0  0
  -28.0380  -12.3700   18.7240 C   0  0  0  0  0  2  0  0  0  0  0  0
  -27.5220  -13.3780   19.7750 C   0  0  0  0  0  3  0  0  0  0  0  0
  -28.5460  -13.7040   20.8900 C   0  0  0  0  0  2  0  0  0  0  0  0
  -29.7250  -14.3220   20.2390 N   0  0  0  0  0  0  0  0  0  0  0  0
  -31.4640  -15.6330   20.0310 O   0  0  0  0  0  0  0  0  0  0  0  0
  -29.4770  -17.0590   20.3810 N   0  0  0  0  0  0  0  0  0  0  0  0
  -28.5350  -16.8030   20.6410 H   0  0  0  0  0  0  0  0  0  0  0  0
  -25.1610  -13.9080   20.5410 C   0  0  0  0  0  0  0  0  0  0  0  0
  -24.1020  -13.1270   20.9070 C   0  0  0  0  0  0  0  0  0  0  0  0
  -24.5720  -11.7780   20.8700 C   0  0  0  0  0  0  0  0  0  0  0  0
  -26.2050  -13.0380   20.2920 N   0  0  0  0  0  0  0  0  0  0  0  0
  -25.8650  -11.7480   20.5570 N   0  0  0  0  0  0  0  0  0  0  0  0
  -23.8420  -10.5150   21.0550 C   0  0  0  0  0  0  0  0  0  0  0  0
  -24.2710   -9.5420   21.9840 C   0  0  0  0  0  3  0  0  0  0  0  0
  -23.5370   -8.3480   22.1590 C   0  0  0  0  0  3  0  0  0  0  0  0
  -22.3600   -8.1190   21.4070 C   0  0  0  0  0  0  0  0  0  0  0  0
  -21.9500   -9.0820   20.4680 C   0  0  0  0  0  3  0  0  0  0  0  0
  -22.6850  -10.2670   20.2900 C   0  0  0  0  0  3  0  0  0  0  0  0
  -21.5990   -6.9780   21.4930 O   0  0  0  0  0  0  0  0  0  0  0  0
  -21.5510   -6.2290   22.6410 C   0  0  0  0  0  0  0  0  0  0  0  0
  -21.1250   -6.7760   23.8700 C   0  0  0  0  0  3  0  0  0  0  0  0
  -21.0240   -5.9530   25.0100 C   0  0  0  0  0  3  0  0  0  0  0  0
  -21.3420   -4.5840   24.9210 C   0  0  0  0  0  0  0  0  0  0  0  0
  -21.7610   -4.0370   23.6960 C   0  0  0  0  0  3  0  0  0  0  0  0
  -21.8620   -4.8560   22.5590 C   0  0  0  0  0  0  0  0  0  0  0  0
  -22.2470   -4.3200   21.3760 F   0  0  0  0  0  0  0  0  0  0  0  0
  -21.2380   -3.7920   26.0140 F   0  0  0  0  0  0  0  0  0  0  0  0
  -22.7050  -13.6050   21.1730 C   0  0  0  0  0  0  0  0  0  0  0  0
  -21.9750  -12.9120   22.0400 N   0  0  0  0  0  0  0  0  0  0  0  0
  -22.2710  -14.6300   20.6490 O   0  0  0  0  0  0  0  0  0  0  0  0
  -22.3400  -12.0830   22.4850 H   0  0  0  0  0  0  0  0  0  0  0  0
  -21.0370  -13.2150   22.2610 H   0  0  0  0  0  0  0  0  0  0  0  0
  -25.3200  -15.2790   20.3680 N   0  0  0  0  0  0  0  0  0  0  0  0
  -24.5480  -15.9270   20.4750 H   0  0  0  0  0  0  0  0  0  0  0  0
  -26.1560  -15.7180   20.0060 H   0  0  0  0  0  0  0  0  0  0  0  0
  -28.0520  -23.7610   20.0040 C   0  0  0  0  0  1  0  0  0  0  0  0
  -28.1500  -25.5050   20.3250 O   0  0  0  0  0  0  0  0  0  0  0  0
  -24.6220  -31.8160   23.1790 C   0  0  0  0  0  0  0  0  0  0  0  0
  -27.1820  -26.7240   20.2220 C   0  0  0  0  0  0  0  0  0  0  0  0
  -23.4480  -30.4090   21.5390 C   0  0  0  0  0  3  0  0  0  0  0  0
  -24.9090  -28.7610   20.1370 C   0  0  0  0  0  0  0  0  0  0  0  0
  -26.0260  -30.5570   21.4320 C   0  0  0  0  0  2  0  0  0  0  0  0
  -26.0980  -29.1200   20.7810 C   0  0  0  0  0  0  0  0  0  0  0  0
  -27.2160  -28.1300   20.7920 C   0  0  0  0  0  3  0  0  0  0  0  0
  -25.9590  -26.5800   19.5150 C   0  0  0  0  0  3  0  0  0  0  0  0
  -24.8800  -27.5170   19.4810 C   0  0  0  0  0  3  0  0  0  0  0  0
  -23.6980  -29.7080   20.1730 C   0  0  0  0  0  2  0  0  0  0  0  0
  -24.7220  -30.9600   22.1030 N   0  0  0  0  0  0  0  0  0  0  0  0
  -23.5250  -32.1150   23.6820 O   0  0  0  0  0  0  0  0  0  0  0  0
  -22.7290  -29.4340   22.5110 C   0  0  0  0  0  0  0  0  0  0  0  0
  -21.3940  -29.2880   22.3900 N   0  0  0  0  0  0  0  0  0  0  0  0
  -23.3830  -28.8050   23.3460 O   0  0  0  0  0  0  0  0  0  0  0  0
  -20.9160  -29.8450   21.6950 H   0  0  0  0  0  0  0  0  0  0  0  0
  -18.0020  -28.0970   22.9150 C   0  0  0  0  0  0  0  0  0  0  0  0
  -20.5660  -28.3540   23.1630 C   0  0  0  0  0  3  0  0  0  0  0  0
  -20.6560  -26.9230   22.5830 C   0  0  0  0  0  2  0  0  0  0  0  0
  -19.5470  -26.6100   21.5740 C   0  0  0  0  0  2  0  0  0  0  0  0
  -18.1690  -26.7540   22.2250 C   0  0  0  0  0  2  0  0  0  0  0  0
  -19.1260  -28.8560   23.3400 C   0  0  0  0  0  0  0  0  0  0  0  0
  -18.9110  -30.1110   23.9490 C   0  0  0  0  0  3  0  0  0  0  0  0
  -17.6070  -30.6090   24.1350 C   0  0  0  0  0  3  0  0  0  0  0  0
  -16.4990  -29.8490   23.7230 C   0  0  0  0  0  3  0  0  0  0  0  0
  -16.6970  -28.5950   23.1190 C   0  0  0  0  0  3  0  0  0  0  0  0
  -25.8800  -32.4720   23.8240 C   0  0  0  0  0  3  0  0  0  0  0  0
  -25.5500  -33.8720   24.1600 N   0  0  0  0  0  0  0  0  0  0  0  0
  -25.8740  -34.9410   23.4190 C   0  0  0  0  0  0  0  0  0  0  0  0
  -26.5370  -34.8530   22.3840 O   0  0  0  0  0  0  0  0  0  0  0  0
  -24.9590  -34.0120   24.9660 H   0  0  0  0  0  0  0  0  0  0  0  0
  -24.1270  -36.7340   23.1190 C   0  0  0  0  0  1  0  0  0  0  0  0
  -25.3870  -36.3260   23.9000 C   0  0  0  0  0  3  0  0  0  0  0  0
  -27.5280  -37.2290   24.6970 C   0  0  0  0  0  1  0  0  0  0  0  0
  -26.4100  -37.3880   23.7720 N   0  0  0  0  0  0  0  0  0  0  0  0
  -25.9980  -38.3040   23.9270 H   0  0  0  0  0  0  0  0  0  0  0  0
  -26.3730  -31.7170   25.1210 C   0  0  1  0  0  0  0  0  0  0  0  0
  -25.2620  -31.4960   26.1760 C   0  0  0  0  0  1  0  0  0  0  0  0
  -26.9610  -30.3320   24.7690 C   0  0  0  0  0  1  0  0  0  0  0  0
  -27.5140  -32.5180   25.7920 C   0  0  0  0  0  1  0  0  0  0  0  0
  1  2  1  0
  3  6  1  0
  4  1  1  0
  4  6  1  0
  5  2  1  0
  5  4  1  0
  7  3  1  0
  7 16  1  0
  7  5  1  0
  8 16  1  0
  9 14  1  0
 10 11  1  0
 10  9  1  0
 12 11  1  0
 12 21  1  0
 12 13  1  0
 14  8  1  0
 14 13  1  0
 15  8  2  0
 16 17  1  0
 18 19  2  0
 19 38  1  0
 20 19  1  0
 20 23  1  0
 21 18  1  0
 21 22  1  0
 22 20  2  0
 23 24  1  0
 24 25  2  0
 26 29  1  0
 26 25  1  0
 27 26  2  0
 28 27  1  0
 28 23  2  0
 29 30  1  0
 30 31  1  0
 31 32  2  0
 33 32  1  0
 33 37  1  0
 34 33  2  0
 35 30  2  0
 35 34  1  0
 36 35  1  0
 38 39  1  0
 39 42  1  0
 39 41  1  0
 40 38  2  0
 43 44  1  0
 43 18  1  0
 45 43  1  0
 46 47  1  0
 48 59  2  0
 49 47  1  0
 49 54  1  0
 50 58  1  0
 50 60  1  0
 51 57  1  0
 51 53  1  0
 52 58  1  0
 53 54  2  0
 53 52  1  0
 55 49  2  0
 56 55  1  0
 56 51  2  0
 57 50  1  0
 58 48  1  0
 60 62  2  0
 61 60  1  0
 63 61  1  0
 64 73  2  0
 64 69  1  0
 65 61  1  0
 65 69  1  0
 66 65  1  0
 67 68  1  0
 67 66  1  0
 68 64  1  0
 69 70  2  0
 70 71  1  0
 72 71  2  0
 73 72  1  0
 74 48  1  0
 74 75  1  0
 74 84  1  0
 75 78  1  0
 76 80  1  0
 76 75  1  0
 77 76  2  0
 80 79  1  0
 82 80  1  0
 82 83  1  0
 82 81  1  0
 84 87  1  1
 84 85  1  0
 86 84  1  0
M  ISO  4   8 100  16 100  46 101  47 101
M  END
>  <TORSDO>  (85) 
F 17

>  <SCORE>  (85) 
-16.516

>  <name>  (85) 
86

>  <ligand_id>  (85) 
86

>  <original_smiles>  (85) 
[H]C1=C([H])C2([H])C1([H])C([H])(N([H])C(=O)N1C([H])([H])C([H])([H])C([H])([H])C([H])(n3nc(-c4c([H])c([H])c(Oc5c([H])c([H])c(F)c([H])c5F)c([H])c4[H])c(C(=O)N([H])[H])c3N([H])[H])C1([H])[H])C([H])([H])C2([H])C([H])([H])Oc1c([H])c([H])c2c(c1[H])C([H])([H])N(C(=O)C([H])(N([H])C(=O)C([H])(N([H])C([H])([H])[H])C([H])([H])[H])C(C([H])([H])[H])(C([H])([H])[H])C([H])([H])[H])C([H])(C(=O)N([H])C1([H])c3c([H])c([H])c([H])c([H])c3C([H])([H])C([H])([H])C1([H])[H])C2([H])[H]

>  <smiles>  (85) 
[H]C1=C([H])C2([H])C1([H])C([H])(N([H])C(=O)N1C([H])([H])C([H])([H])C([H])([H])C([H])(n3nc(-c4c([H])c([H])c(Oc5c([H])c([H])c(F)c([H])c5F)c([H])c4[H])c(C(=O)N([H])[H])c3N([H])[H])C1([H])[H])C([H])([H])C2([H])C([H])([H])Oc1c([H])c([H])c2c(c1[H])C([H])([H])N(C(=O)C([H])(N([H])C(=O)C([H])(N([H])C([H])([H])[H])C([H])([H])[H])C(C([H])([H])[H])(C([H])([H])[H])C([H])([H])[H])C([H])(C(=O)N([H])C1([H])c3c([H])c([H])c([H])c([H])c3C([H])([H])C([H])([H])C1([H])[H])C2([H])[H]

$$$$
87:0:0
     RDKit          3D

 89 97  0  0  1  0  0  0  0  0999 V2000
  -28.1400  -23.4190   20.8540 C   0  0  0  0  0  3  0  0  0  0  0  0
  -26.8710  -24.9380   22.4650 C   0  0  0  0  0  1  0  0  0  0  0  0
  -28.5090  -22.0150   20.8370 N   0  0  0  0  0  0  0  0  0  0  0  0
  -27.4880  -23.6860   22.0100 N   0  0  0  0  0  0  0  0  0  0  0  0
  -28.0820  -21.6070   21.6520 H   0  0  0  0  0  0  0  0  0  0  0  0
  -27.4020  -22.9480   22.6920 H   0  0  0  0  0  0  0  0  0  0  0  0
  -30.3010  -20.1580   21.0380 C   0  0  0  0  0  2  0  0  0  0  0  0
  -29.2630  -19.1270   20.6620 C   0  0  0  0  0  3  0  0  0  0  0  0
  -29.2350  -20.7620   20.1660 C   0  0  0  0  0  3  0  0  0  0  0  0
  -29.6950  -16.3250   20.5830 C   0  0  0  0  0  3  0  0  0  0  0  0
  -29.9330  -17.6900   20.2380 C   0  0  0  0  0  3  0  0  0  0  0  0
  -30.5020  -15.0370   20.2200 C   0  0  0  0  0  0  0  0  0  0  0  0
  -30.3960  -12.6750   19.2960 C   0  0  0  0  0  2  0  0  0  0  0  0
  -29.4650  -12.6390   18.0600 C   0  0  0  0  0  2  0  0  0  0  0  0
  -28.0000  -12.4230   18.4890 C   0  0  0  0  0  2  0  0  0  0  0  0
  -27.5960  -13.3340   19.6770 C   0  0  0  0  0  3  0  0  0  0  0  0
  -28.6510  -13.3340   20.8000 C   0  0  0  0  0  2  0  0  0  0  0  0
  -29.9240  -13.7630   20.2060 N   0  0  0  0  0  0  0  0  0  0  0  0
  -31.6820  -15.0890   19.8550 O   0  0  0  0  0  0  0  0  0  0  0  0
  -25.2100  -13.8950   20.4110 C   0  0  0  0  0  0  0  0  0  0  0  0
  -24.1530  -13.1130   20.7880 C   0  0  0  0  0  0  0  0  0  0  0  0
  -24.6300  -11.7660   20.7690 C   0  0  0  0  0  0  0  0  0  0  0  0
  -26.2600  -13.0250   20.1770 N   0  0  0  0  0  0  0  0  0  0  0  0
  -25.9220  -11.7390   20.4580 N   0  0  0  0  0  0  0  0  0  0  0  0
  -23.9150  -10.4990   20.9710 C   0  0  0  0  0  0  0  0  0  0  0  0
  -24.3540   -9.5430   21.9130 C   0  0  0  0  0  3  0  0  0  0  0  0
  -23.6360   -8.3420   22.1020 C   0  0  0  0  0  3  0  0  0  0  0  0
  -22.4650   -8.0890   21.3510 C   0  0  0  0  0  0  0  0  0  0  0  0
  -22.0450   -9.0340   20.3980 C   0  0  0  0  0  3  0  0  0  0  0  0
  -22.7630  -10.2260   20.2060 C   0  0  0  0  0  3  0  0  0  0  0  0
  -21.7190   -6.9390   21.4490 O   0  0  0  0  0  0  0  0  0  0  0  0
  -21.6750   -6.2060   22.6080 C   0  0  0  0  0  0  0  0  0  0  0  0
  -21.2370   -6.7660   23.8280 C   0  0  0  0  0  3  0  0  0  0  0  0
  -21.1420   -5.9580   24.9780 C   0  0  0  0  0  3  0  0  0  0  0  0
  -21.4750   -4.5930   24.9110 C   0  0  0  0  0  0  0  0  0  0  0  0
  -21.9060   -4.0320   23.6960 C   0  0  0  0  0  3  0  0  0  0  0  0
  -22.0020   -4.8360   22.5470 C   0  0  0  0  0  0  0  0  0  0  0  0
  -22.3980   -4.2860   21.3740 F   0  0  0  0  0  0  0  0  0  0  0  0
  -21.3760   -3.8150   26.0150 F   0  0  0  0  0  0  0  0  0  0  0  0
  -22.7520  -13.5800   21.0540 C   0  0  0  0  0  0  0  0  0  0  0  0
  -22.0300  -12.8870   21.9250 N   0  0  0  0  0  0  0  0  0  0  0  0
  -22.3070  -14.5970   20.5240 O   0  0  0  0  0  0  0  0  0  0  0  0
  -22.4040  -12.0650   22.3770 H   0  0  0  0  0  0  0  0  0  0  0  0
  -21.0890  -13.1820   22.1470 H   0  0  0  0  0  0  0  0  0  0  0  0
  -25.3620  -15.2660   20.2230 N   0  0  0  0  0  0  0  0  0  0  0  0
  -24.5930  -15.9170   20.3330 H   0  0  0  0  0  0  0  0  0  0  0  0
  -26.2120  -15.7090   19.8950 H   0  0  0  0  0  0  0  0  0  0  0  0
  -28.2790  -24.7020   19.8360 C   0  0  0  0  0  2  0  0  0  0  0  0
  -28.2580  -26.2170   20.2660 O   0  0  0  0  0  0  0  0  0  0  0  0
  -24.6220  -31.8850   23.2300 C   0  0  0  0  0  0  0  0  0  0  0  0
  -27.1860  -27.1840   20.1530 C   0  0  0  0  0  0  0  0  0  0  0  0
  -23.4130  -30.4940   21.5930 C   0  0  0  0  0  3  0  0  0  0  0  0
  -24.8540  -28.9280   20.1440 C   0  0  0  0  0  0  0  0  0  0  0  0
  -25.9640  -30.7640   21.4110 C   0  0  0  0  0  2  0  0  0  0  0  0
  -26.0350  -29.3740   20.7500 C   0  0  0  0  0  0  0  0  0  0  0  0
  -27.1970  -28.5150   20.7390 C   0  0  0  0  0  3  0  0  0  0  0  0
  -25.9810  -26.8410   19.5020 C   0  0  0  0  0  3  0  0  0  0  0  0
  -24.8420  -27.6780   19.5050 C   0  0  0  0  0  3  0  0  0  0  0  0
  -23.6230  -29.8210   20.2090 C   0  0  0  0  0  2  0  0  0  0  0  0
  -24.6870  -31.0700   22.1330 N   0  0  0  0  0  0  0  0  0  0  0  0
  -23.5390  -32.1660   23.7660 O   0  0  0  0  0  0  0  0  0  0  0  0
  -22.7420  -29.4830   22.5560 C   0  0  0  0  0  0  0  0  0  0  0  0
  -21.4140  -29.3100   22.4360 N   0  0  0  0  0  0  0  0  0  0  0  0
  -23.4200  -28.8550   23.3730 O   0  0  0  0  0  0  0  0  0  0  0  0
  -20.9240  -29.8690   21.7510 H   0  0  0  0  0  0  0  0  0  0  0  0
  -18.0390  -28.0960   22.9470 C   0  0  0  0  0  0  0  0  0  0  0  0
  -20.5980  -28.3680   23.2070 C   0  0  0  0  0  3  0  0  0  0  0  0
  -20.7030  -26.9380   22.6290 C   0  0  0  0  0  2  0  0  0  0  0  0
  -19.6000  -26.6120   21.6170 C   0  0  0  0  0  2  0  0  0  0  0  0
  -18.2180  -26.7490   22.2660 C   0  0  0  0  0  2  0  0  0  0  0  0
  -19.1550  -28.8630   23.3750 C   0  0  0  0  0  0  0  0  0  0  0  0
  -18.9310  -30.1220   23.9730 C   0  0  0  0  0  3  0  0  0  0  0  0
  -17.6230  -30.6140   24.1480 C   0  0  0  0  0  3  0  0  0  0  0  0
  -16.5220  -29.8450   23.7350 C   0  0  0  0  0  3  0  0  0  0  0  0
  -16.7300  -28.5870   23.1420 C   0  0  0  0  0  3  0  0  0  0  0  0
  -25.9030  -32.5190   23.8540 C   0  0  0  0  0  3  0  0  0  0  0  0
  -26.4180  -31.7490   25.1330 C   0  0  1  0  0  0  0  0  0  0  0  0
  -25.3240  -31.5190   26.2020 C   0  0  0  0  0  1  0  0  0  0  0  0
  -26.9960  -30.3680   24.7480 C   0  0  0  0  0  1  0  0  0  0  0  0
  -27.5710  -32.5410   25.7920 C   0  0  0  0  0  1  0  0  0  0  0  0
  -25.5930  -33.9180   24.1900 N   0  0  0  0  0  0  0  0  0  0  0  0
  -25.9230  -34.9780   23.4390 C   0  0  0  0  0  0  0  0  0  0  0  0
  -26.5870  -34.8790   22.4040 O   0  0  0  0  0  0  0  0  0  0  0  0
  -25.0020  -34.0670   24.9960 H   0  0  0  0  0  0  0  0  0  0  0  0
  -24.1970  -36.7790   23.1100 C   0  0  0  0  0  1  0  0  0  0  0  0
  -25.4430  -36.3650   23.9090 C   0  0  0  0  0  3  0  0  0  0  0  0
  -27.5860  -37.2420   24.7300 C   0  0  0  0  0  1  0  0  0  0  0  0
  -26.4780  -37.4160   23.7940 N   0  0  0  0  0  0  0  0  0  0  0  0
  -26.0750  -38.3380   23.9470 H   0  0  0  0  0  0  0  0  0  0  0  0
  1 48  1  0
  1  4  1  0
  3  1  1  0
  3  5  1  0
  4  2  1  0
  4  6  1  0
  8 11  1  0
  8  7  1  0
  9  8  1  0
  9  3  1  0
  9  7  1  0
 11 10  2  0
 12 10  1  0
 13 18  1  0
 14 15  1  0
 14 13  1  0
 16 15  1  0
 16 23  1  0
 16 17  1  0
 18 12  1  0
 18 17  1  0
 19 12  2  0
 20 21  2  0
 21 40  1  0
 22 21  1  0
 22 25  1  0
 23 20  1  0
 23 24  1  0
 24 22  2  0
 25 26  1  0
 26 27  2  0
 28 31  1  0
 28 27  1  0
 29 28  2  0
 30 29  1  0
 30 25  2  0
 31 32  1  0
 32 33  1  0
 33 34  2  0
 35 34  1  0
 35 39  1  0
 36 35  2  0
 37 32  2  0
 37 36  1  0
 38 37  1  0
 40 41  1  0
 41 44  1  0
 41 43  1  0
 42 40  2  0
 45 46  1  0
 45 20  1  0
 47 45  1  0
 48 49  1  0
 50 61  2  0
 51 49  1  0
 51 56  1  0
 52 60  1  0
 52 62  1  0
 53 59  1  0
 53 55  1  0
 54 60  1  0
 55 54  1  0
 56 55  2  0
 57 58  1  0
 57 51  2  0
 58 53  2  0
 59 52  1  0
 60 50  1  0
 62 64  2  0
 63 62  1  0
 65 63  1  0
 66 75  2  0
 66 71  1  0
 67 63  1  0
 67 71  1  0
 68 67  1  0
 69 70  1  0
 69 68  1  0
 70 66  1  0
 71 72  2  0
 72 73  1  0
 74 73  2  0
 75 74  1  0
 76 50  1  0
 76 81  1  0
 76 77  1  0
 77 80  1  1
 77 78  1  0
 79 77  1  0
 81 84  1  0
 82 86  1  0
 82 81  1  0
 83 82  2  0
 86 85  1  0
 88 86  1  0
 88 89  1  0
 88 87  1  0
M  ISO  4  10 100  12 100  48 101  49 101
M  END
>  <TORSDO>  (86) 
F 19

>  <SCORE>  (86) 
-14.110

>  <name>  (86) 
87

>  <ligand_id>  (86) 
87

>  <original_smiles>  (86) 
[H]C(C(=O)N1C([H])([H])C([H])([H])C([H])([H])C([H])(n2nc(-c3c([H])c([H])c(Oc4c([H])c([H])c(F)c([H])c4F)c([H])c3[H])c(C(=O)N([H])[H])c2N([H])[H])C1([H])[H])=C([H])C1([H])C([H])([H])C1([H])N([H])C(=[N+]([H])C([H])([H])[H])C([H])([H])Oc1c([H])c([H])c2c(c1[H])C([H])([H])N(C(=O)C([H])(N([H])C(=O)C([H])(N([H])C([H])([H])[H])C([H])([H])[H])C(C([H])([H])[H])(C([H])([H])[H])C([H])([H])[H])C([H])(C(=O)N([H])C1([H])c3c([H])c([H])c([H])c([H])c3C([H])([H])C([H])([H])C1([H])[H])C2([H])[H]

>  <smiles>  (86) 
[H]C(C(=O)N1C([H])([H])C([H])([H])C([H])([H])C([H])(n2nc(-c3c([H])c([H])c(Oc4c([H])c([H])c(F)c([H])c4F)c([H])c3[H])c(C(=O)N([H])[H])c2N([H])[H])C1([H])[H])=C([H])C1([H])C([H])([H])C1([H])N([H])C(=[N+]([H])C([H])([H])[H])C([H])([H])Oc1c([H])c([H])c2c(c1[H])C([H])([H])N(C(=O)C([H])(N([H])C(=O)C([H])(N([H])C([H])([H])[H])C([H])([H])[H])C(C([H])([H])[H])(C([H])([H])[H])C([H])([H])[H])C([H])(C(=O)N([H])C1([H])c3c([H])c([H])c([H])c([H])c3C([H])([H])C([H])([H])C1([H])[H])C2([H])[H]

$$$$
88:0:0
     RDKit          3D

 99109  0  0  1  0  0  0  0  0999 V2000
  -31.6180  -20.7530   20.5170 C   0  0  0  0  0  0  0  0  0  0  0  0
  -30.9690  -21.8260   21.0090 C   0  0  0  0  0  3  0  0  0  0  0  0
  -33.0780  -20.4320   20.4270 C   0  0  0  0  0  2  0  0  0  0  0  0
  -32.6340  -17.8330   20.7790 C   0  0  0  0  0  2  0  0  0  0  0  0
  -31.3260  -17.7930   21.5690 C   0  0  0  0  0  2  0  0  0  0  0  0
  -32.5520  -19.0760   19.8980 C   0  0  0  0  0  3  0  0  0  0  0  0
  -30.3140  -18.6040   20.7270 C   0  0  0  0  0  3  0  0  0  0  0  0
  -31.1490  -19.5380   19.9160 N   0  0  1  0  0  4  0  0  0  0  0  0
  -30.7780  -19.7150   18.9940 H   0  0  0  0  0  0  0  0  0  0  0  0
  -28.9360  -22.1260   22.4610 C   0  0  0  0  0  2  0  0  0  0  0  0
  -29.2430  -23.5620   22.9020 C   0  0  0  0  0  2  0  0  0  0  0  0
  -29.1060  -23.4660   20.5090 C   0  0  0  0  0  2  0  0  0  0  0  0
  -29.4650  -22.0650   21.0270 C   0  0  0  0  0  3  0  0  0  0  0  0
  -29.2100  -24.3900   21.6690 N   0  0  2  0  0  4  0  0  0  0  0  0
  -28.3340  -24.8940   21.6770 H   0  0  0  0  0  0  0  0  0  0  0  0
  -30.2720  -25.4330   21.5670 C   0  0  0  0  0  2  0  0  0  0  0  0
  -29.6500  -26.8290   21.4280 C   0  0  0  0  0  2  0  0  0  0  0  0
  -28.8470  -26.8190   20.2520 O   0  0  0  0  0  0  0  0  0  0  0  0
  -24.7590  -31.7590   23.3950 C   0  0  0  0  0  0  0  0  0  0  0  0
  -27.6970  -27.5710   20.2660 C   0  0  0  0  0  0  0  0  0  0  0  0
  -23.6840  -30.4230   21.6090 C   0  0  0  0  0  3  0  0  0  0  0  0
  -25.2590  -28.9940   20.2000 C   0  0  0  0  0  0  0  0  0  0  0  0
  -26.2020  -30.8550   21.5810 C   0  0  0  0  0  2  0  0  0  0  0  0
  -26.3600  -29.5200   20.8880 C   0  0  0  0  0  0  0  0  0  0  0  0
  -27.5810  -28.8160   20.9240 C   0  0  0  0  0  3  0  0  0  0  0  0
  -26.5850  -27.0570   19.5670 C   0  0  0  0  0  3  0  0  0  0  0  0
  -25.3630  -27.7580   19.5380 C   0  0  0  0  0  3  0  0  0  0  0  0
  -23.9920  -29.8180   20.2110 C   0  0  0  0  0  2  0  0  0  0  0  0
  -24.8960  -31.0230   22.2560 N   0  0  0  0  0  0  0  0  0  0  0  0
  -23.6430  -31.9800   23.8840 O   0  0  0  0  0  0  0  0  0  0  0  0
  -23.0020  -29.3400   22.4730 C   0  0  0  0  0  0  0  0  0  0  0  0
  -21.6900  -29.1460   22.2590 N   0  0  0  0  0  0  0  0  0  0  0  0
  -23.6510  -28.6800   23.2890 O   0  0  0  0  0  0  0  0  0  0  0  0
  -21.2310  -29.7310   21.5770 H   0  0  0  0  0  0  0  0  0  0  0  0
  -18.3120  -27.8930   22.5040 C   0  0  0  0  0  0  0  0  0  0  0  0
  -20.8480  -28.1540   22.9280 C   0  0  0  0  0  3  0  0  0  0  0  0
  -20.9990  -26.7630   22.2700 C   0  0  0  0  0  2  0  0  0  0  0  0
  -19.9540  -26.4940   21.1820 C   0  0  0  0  0  2  0  0  0  0  0  0
  -18.5400  -26.5890   21.7590 C   0  0  0  0  0  2  0  0  0  0  0  0
  -19.3980  -28.6350   23.0390 C   0  0  0  0  0  0  0  0  0  0  0  0
  -19.1350  -29.8600   23.6920 C   0  0  0  0  0  3  0  0  0  0  0  0
  -17.8190  -30.3410   23.8180 C   0  0  0  0  0  3  0  0  0  0  0  0
  -16.7460  -29.5940   23.3010 C   0  0  0  0  0  3  0  0  0  0  0  0
  -16.9940  -28.3730   22.6500 C   0  0  0  0  0  3  0  0  0  0  0  0
  -25.9950  -32.3780   24.1240 C   0  0  0  0  0  3  0  0  0  0  0  0
  -25.6680  -33.7750   24.4390 N   0  0  0  0  0  0  0  0  0  0  0  0
  -26.0520  -34.8280   23.7050 C   0  0  0  0  0  0  0  0  0  0  0  0
  -26.7880  -34.7260   22.7200 O   0  0  0  0  0  0  0  0  0  0  0  0
  -25.0230  -33.9280   25.2000 H   0  0  0  0  0  0  0  0  0  0  0  0
  -24.3380  -36.6110   23.2540 C   0  0  0  0  0  1  0  0  0  0  0  0
  -25.5360  -36.2150   24.1310 C   0  0  0  0  0  3  0  0  0  0  0  0
  -27.6130  -37.1170   25.0790 C   0  0  0  0  0  1  0  0  0  0  0  0
  -26.5690  -37.2720   24.0700 N   0  0  0  0  0  0  0  0  0  0  0  0
  -26.1510  -38.1920   24.1860 H   0  0  0  0  0  0  0  0  0  0  0  0
  -26.4070  -31.5910   25.4270 C   0  0  1  0  0  0  0  0  0  0  0  0
  -25.2320  -31.3440   26.4010 C   0  0  0  0  0  1  0  0  0  0  0  0
  -27.0180  -30.2170   25.0640 C   0  0  0  0  0  1  0  0  0  0  0  0
  -27.5000  -32.3750   26.1910 C   0  0  0  0  0  1  0  0  0  0  0  0
  -28.0240  -17.4450   20.6780 C   0  0  0  0  0  1  0  0  0  0  0  0
  -28.8440  -18.5680   18.6370 C   0  0  0  0  0  1  0  0  0  0  0  0
  -29.3100  -17.7480   19.8650 C   0  0  1  0  0  0  0  0  0  0  0  0
  -29.9370  -16.4350   19.3690 C   0  0  0  0  0  2  0  0  0  0  0  0
  -30.2920  -15.4840   20.1420 N   0  0  0  0  0  2  0  0  0  0  0  0
  -30.8980  -14.4180   19.5060 C   0  0  0  0  0  0  0  0  0  0  0  0
  -30.6060  -12.0660   18.8040 C   0  0  0  0  0  2  0  0  0  0  0  0
  -29.5800  -11.9740   17.6600 C   0  0  0  0  0  2  0  0  0  0  0  0
  -28.1430  -11.8830   18.2160 C   0  0  0  0  0  2  0  0  0  0  0  0
  -27.8480  -12.9600   19.2950 C   0  0  0  0  0  3  0  0  0  0  0  0
  -28.9800  -13.0060   20.3440 C   0  0  0  0  0  2  0  0  0  0  0  0
  -30.2500  -13.2280   19.6290 N   0  0  0  0  0  0  0  0  0  0  0  0
  -31.9020  -14.5460   18.7990 O   0  0  0  0  0  0  0  0  0  0  0  0
  -25.5880  -13.6860   20.2970 C   0  0  0  0  0  0  0  0  0  0  0  0
  -24.5200  -12.9660   20.7580 C   0  0  0  0  0  0  0  0  0  0  0  0
  -24.8800  -11.5910   20.6170 C   0  0  0  0  0  0  0  0  0  0  0  0
  -26.5400  -12.7520   19.9140 N   0  0  0  0  0  0  0  0  0  0  0  0
  -26.1200  -11.4840   20.1570 N   0  0  0  0  0  0  0  0  0  0  0  0
  -24.0950  -10.3700   20.8390 C   0  0  0  0  0  0  0  0  0  0  0  0
  -24.5360   -9.3630   21.7260 C   0  0  0  0  0  3  0  0  0  0  0  0
  -23.7560   -8.2060   21.9380 C   0  0  0  0  0  3  0  0  0  0  0  0
  -22.5220   -8.0490   21.2640 C   0  0  0  0  0  0  0  0  0  0  0  0
  -22.1000   -9.0430   20.3630 C   0  0  0  0  0  3  0  0  0  0  0  0
  -22.8800  -10.1920   20.1490 C   0  0  0  0  0  3  0  0  0  0  0  0
  -21.7120   -6.9450   21.3860 O   0  0  0  0  0  0  0  0  0  0  0  0
  -21.6460   -6.2280   22.5530 C   0  0  0  0  0  0  0  0  0  0  0  0
  -21.2390   -6.8190   23.7700 C   0  0  0  0  0  3  0  0  0  0  0  0
  -21.1170   -6.0280   24.9290 C   0  0  0  0  0  3  0  0  0  0  0  0
  -21.3920   -4.6490   24.8760 C   0  0  0  0  0  0  0  0  0  0  0  0
  -21.7910   -4.0580   23.6640 C   0  0  0  0  0  3  0  0  0  0  0  0
  -21.9150   -4.8450   22.5050 C   0  0  0  0  0  0  0  0  0  0  0  0
  -22.2790   -4.2670   21.3360 F   0  0  0  0  0  0  0  0  0  0  0  0
  -21.2680   -3.8880   25.9880 F   0  0  0  0  0  0  0  0  0  0  0  0
  -23.2000  -13.5170   21.2120 C   0  0  0  0  0  0  0  0  0  0  0  0
  -22.5470  -12.8440   22.1540 N   0  0  0  0  0  0  0  0  0  0  0  0
  -22.7620  -14.5780   20.7700 O   0  0  0  0  0  0  0  0  0  0  0  0
  -22.9160  -11.9840   22.5310 H   0  0  0  0  0  0  0  0  0  0  0  0
  -21.6660  -13.1950   22.5020 H   0  0  0  0  0  0  0  0  0  0  0  0
  -25.8210  -15.0500   20.1510 N   0  0  0  0  0  0  0  0  0  0  0  0
  -25.1110  -15.7420   20.3620 H   0  0  0  0  0  0  0  0  0  0  0  0
  -26.6480  -15.4440   19.7240 H   0  0  0  0  0  0  0  0  0  0  0  0
  1  2  2  0
  3  1  1  0
  4  5  1  0
  6  8  1  0
  6  3  1  0
  6  4  1  0
  7 61  1  0
  7  5  1  0
  8  1  1  0
  8  7  1  0
  8  9  1  6
 10 11  1  0
 12 13  1  0
 12 14  1  0
 13  2  1  0
 13 10  1  0
 14 15  1  1
 14 11  1  0
 16 14  1  0
 17 16  1  0
 18 20  1  0
 18 17  1  0
 19 30  2  0
 20 25  1  0
 21 29  1  0
 21 31  1  0
 22 28  1  0
 22 24  1  0
 23 29  1  0
 24 25  2  0
 24 23  1  0
 26 20  2  0
 27 26  1  0
 27 22  2  0
 28 21  1  0
 29 19  1  0
 31 33  2  0
 32 31  1  0
 34 32  1  0
 35 44  2  0
 35 40  1  0
 36 32  1  0
 36 40  1  0
 37 36  1  0
 38 39  1  0
 38 37  1  0
 39 35  1  0
 40 41  2  0
 41 42  1  0
 43 42  2  0
 44 43  1  0
 45 19  1  0
 45 46  1  0
 45 55  1  0
 46 49  1  0
 47 51  1  0
 47 46  1  0
 48 47  2  0
 51 50  1  0
 53 51  1  0
 53 54  1  0
 53 52  1  0
 55 58  1  1
 55 56  1  0
 57 55  1  0
 61 60  1  6
 61 59  1  0
 62 61  1  0
 62 63  1  0
 64 70  1  0
 64 63  1  0
 65 70  1  0
 66 67  1  0
 66 65  1  0
 68 67  1  0
 68 75  1  0
 68 69  1  0
 70 69  1  0
 71 64  2  0
 72 73  2  0
 73 92  1  0
 74 73  1  0
 74 77  1  0
 75 76  1  0
 75 72  1  0
 76 74  2  0
 77 78  1  0
 78 79  2  0
 80 83  1  0
 80 79  1  0
 81 80  2  0
 82 81  1  0
 82 77  2  0
 83 84  1  0
 84 85  1  0
 85 86  2  0
 87 86  1  0
 87 91  1  0
 88 87  2  0
 89 84  2  0
 89 88  1  0
 90 89  1  0
 92 93  1  0
 93 96  1  0
 93 95  1  0
 94 92  2  0
 97 72  1  0
 97 98  1  0
 99 97  1  0
M  ISO  4  17 101  18 101  63 100  64 100
M  END
>  <TORSDO>  (87) 
F 21

>  <SCORE>  (87) 
-12.831

>  <name>  (87) 
88

>  <ligand_id>  (87) 
88

>  <original_smiles>  (87) 
[H]C(=NC(=O)N1C([H])([H])C([H])([H])C([H])([H])C([H])(n2nc(-c3c([H])c([H])c(Oc4c([H])c([H])c(F)c([H])c4F)c([H])c3[H])c(C(=O)N([H])[H])c2N([H])[H])C1([H])[H])C(C([H])([H])[H])(C([H])([H])[H])C1([H])C([H])([H])C([H])([H])C2([H])C([H])([H])C(=C([H])C3([H])C([H])([H])C([H])([H])[N+]([H])(C([H])([H])C([H])([H])Oc4c([H])c([H])c5c(c4[H])C([H])([H])N(C(=O)C([H])(N([H])C(=O)C([H])(N([H])C([H])([H])[H])C([H])([H])[H])C(C([H])([H])[H])(C([H])([H])[H])C([H])([H])[H])C([H])(C(=O)N([H])C4([H])c6c([H])c([H])c([H])c([H])c6C([H])([H])C([H])([H])C4([H])[H])C5([H])[H])C3([H])[H])[N+]21[H]

>  <smiles>  (87) 
[H]C(=NC(=O)N1C([H])([H])C([H])([H])C([H])([H])C([H])(n2nc(-c3c([H])c([H])c(Oc4c([H])c([H])c(F)c([H])c4F)c([H])c3[H])c(C(=O)N([H])[H])c2N([H])[H])C1([H])[H])C(C([H])([H])[H])(C([H])([H])[H])C1([H])C([H])([H])C([H])([H])C2([H])C([H])([H])C(=C([H])C3([H])C([H])([H])C([H])([H])[N+]([H])(C([H])([H])C([H])([H])Oc4c([H])c([H])c5c(c4[H])C([H])([H])N(C(=O)C([H])(N([H])C(=O)C([H])(N([H])C([H])([H])[H])C([H])([H])[H])C(C([H])([H])[H])(C([H])([H])[H])C([H])([H])[H])C([H])(C(=O)N([H])C4([H])c6c([H])c([H])c([H])c([H])c6C([H])([H])C([H])([H])C4([H])[H])C5([H])[H])C3([H])[H])[N+]21[H]

$$$$
89:0:0
     RDKit          3D

 98107  0  0  1  0  0  0  0  0999 V2000
  -32.4100  -18.7260   21.8670 C   0  0  0  0  0  3  0  0  0  0  0  0
  -31.8890  -17.4470   21.6270 C   0  0  0  0  0  3  0  0  0  0  0  0
  -31.6670  -19.8770   21.5540 C   0  0  0  0  0  0  0  0  0  0  0  0
  -30.3670  -19.7830   20.9950 C   0  0  0  0  0  0  0  0  0  0  0  0
  -30.6100  -17.2730   21.0520 C   0  0  0  0  0  0  0  0  0  0  0  0
  -29.8460  -18.4580   20.7510 C   0  0  0  0  0  0  0  0  0  0  0  0
  -29.8440  -23.6400   21.2410 C   0  0  0  0  0  0  0  0  0  0  0  0
  -32.3070  -21.2270   21.7930 C   0  0  0  0  0  2  0  0  0  0  0  0
  -29.5980  -21.1170   20.6660 C   0  0  0  0  0  2  0  0  0  0  0  0
  -31.7940  -22.2490   20.7870 C   0  0  0  0  0  2  0  0  0  0  0  0
  -30.3370  -22.4000   20.9050 N   0  0  0  0  0  0  0  0  0  0  0  0
  -30.5220  -24.4210   21.9190 O   0  0  0  0  0  0  0  0  0  0  0  0
  -30.8110  -14.8090   20.4930 C   0  0  0  0  0  0  0  0  0  0  0  0
  -30.5100  -12.6380   19.3390 C   0  0  0  0  0  2  0  0  0  0  0  0
  -29.5690  -12.8320   18.1320 C   0  0  0  0  0  2  0  0  0  0  0  0
  -28.1000  -12.6680   18.5650 C   0  0  0  0  0  2  0  0  0  0  0  0
  -27.7520  -13.4850   19.8390 C   0  0  0  0  0  3  0  0  0  0  0  0
  -28.8170  -13.3090   20.9430 C   0  0  0  0  0  2  0  0  0  0  0  0
  -30.1220  -13.6360   20.3540 N   0  0  0  0  0  0  0  0  0  0  0  0
  -31.9810  -14.9020   20.1140 O   0  0  0  0  0  0  0  0  0  0  0  0
  -30.1030  -15.9230   20.8390 N   0  0  0  0  0  0  0  0  0  0  0  0
  -29.1020  -15.8170   20.9060 H   0  0  0  0  0  0  0  0  0  0  0  0
  -25.3510  -14.0510   20.5510 C   0  0  0  0  0  0  0  0  0  0  0  0
  -24.2910  -13.2620   20.9080 C   0  0  0  0  0  0  0  0  0  0  0  0
  -24.7690  -11.9150   20.8710 C   0  0  0  0  0  0  0  0  0  0  0  0
  -26.4070  -13.1840   20.3180 N   0  0  0  0  0  0  0  0  0  0  0  0
  -26.0620  -11.8950   20.5700 N   0  0  0  0  0  0  0  0  0  0  0  0
  -24.0570  -10.6440   21.0470 C   0  0  0  0  0  0  0  0  0  0  0  0
  -24.4580   -9.7000   22.0180 C   0  0  0  0  0  3  0  0  0  0  0  0
  -23.7440   -8.4930   22.1820 C   0  0  0  0  0  3  0  0  0  0  0  0
  -22.6150   -8.2210   21.3730 C   0  0  0  0  0  0  0  0  0  0  0  0
  -22.2360   -9.1520   20.3910 C   0  0  0  0  0  3  0  0  0  0  0  0
  -22.9500  -10.3510   20.2260 C   0  0  0  0  0  3  0  0  0  0  0  0
  -21.8770   -7.0640   21.4440 O   0  0  0  0  0  0  0  0  0  0  0  0
  -21.7420   -6.3680   22.6180 C   0  0  0  0  0  0  0  0  0  0  0  0
  -21.1640   -6.9490   23.7670 C   0  0  0  0  0  3  0  0  0  0  0  0
  -20.9810   -6.1750   24.9300 C   0  0  0  0  0  3  0  0  0  0  0  0
  -21.3650   -4.8220   24.9450 C   0  0  0  0  0  0  0  0  0  0  0  0
  -21.9370   -4.2410   23.7990 C   0  0  0  0  0  3  0  0  0  0  0  0
  -22.1220   -5.0110   22.6380 C   0  0  0  0  0  0  0  0  0  0  0  0
  -22.6530   -4.4400   21.5310 F   0  0  0  0  0  0  0  0  0  0  0  0
  -21.1830   -4.0760   26.0590 F   0  0  0  0  0  0  0  0  0  0  0  0
  -22.8880  -13.7210   21.1780 C   0  0  0  0  0  0  0  0  0  0  0  0
  -22.1640  -13.0070   22.0340 N   0  0  0  0  0  0  0  0  0  0  0  0
  -22.4400  -14.7440   20.6630 O   0  0  0  0  0  0  0  0  0  0  0  0
  -22.5380  -12.1770   22.4690 H   0  0  0  0  0  0  0  0  0  0  0  0
  -21.2220  -13.2960   22.2580 H   0  0  0  0  0  0  0  0  0  0  0  0
  -25.4990  -15.4240   20.3860 N   0  0  0  0  0  0  0  0  0  0  0  0
  -24.7210  -16.0650   20.5030 H   0  0  0  0  0  0  0  0  0  0  0  0
  -26.3450  -15.8880   20.0800 H   0  0  0  0  0  0  0  0  0  0  0  0
  -28.5090  -24.2060   20.6880 C   0  0  0  0  0  2  0  0  0  0  0  0
  -28.6690  -25.5180   19.8190 C   0  0  0  0  0  2  0  0  0  0  0  0
  -28.5440  -26.8290   20.4480 O   0  0  0  0  0  0  0  0  0  0  0  0
  -24.6290  -32.0420   23.4220 C   0  0  0  0  0  0  0  0  0  0  0  0
  -27.3610  -27.5640   20.3930 C   0  0  0  0  0  0  0  0  0  0  0  0
  -23.4650  -30.6220   21.7670 C   0  0  0  0  0  3  0  0  0  0  0  0
  -24.9560  -29.0930   20.3640 C   0  0  0  0  0  0  0  0  0  0  0  0
  -25.9960  -30.9930   21.6120 C   0  0  0  0  0  2  0  0  0  0  0  0
  -26.1040  -29.6180   20.9700 C   0  0  0  0  0  0  0  0  0  0  0  0
  -27.3050  -28.8610   20.9800 C   0  0  0  0  0  3  0  0  0  0  0  0
  -26.1790  -27.0660   19.7930 C   0  0  0  0  0  3  0  0  0  0  0  0
  -24.9910  -27.8200   19.7750 C   0  0  0  0  0  3  0  0  0  0  0  0
  -23.7030  -29.9420   20.3930 C   0  0  0  0  0  2  0  0  0  0  0  0
  -24.7130  -31.2370   22.3240 N   0  0  0  0  0  0  0  0  0  0  0  0
  -23.5370  -32.3050   23.9440 O   0  0  0  0  0  0  0  0  0  0  0  0
  -22.8100  -29.5950   22.7210 C   0  0  0  0  0  0  0  0  0  0  0  0
  -21.5020  -29.3510   22.5350 N   0  0  0  0  0  0  0  0  0  0  0  0
  -23.4780  -29.0200   23.5840 O   0  0  0  0  0  0  0  0  0  0  0  0
  -21.0250  -29.8710   21.8140 H   0  0  0  0  0  0  0  0  0  0  0  0
  -18.1650  -28.0040   22.8790 C   0  0  0  0  0  0  0  0  0  0  0  0
  -20.6880  -28.3950   23.2870 C   0  0  0  0  0  3  0  0  0  0  0  0
  -20.8930  -26.9570   22.7590 C   0  0  0  0  0  2  0  0  0  0  0  0
  -19.8670  -26.5510   21.6960 C   0  0  0  0  0  2  0  0  0  0  0  0
  -18.4440  -26.6460   22.2580 C   0  0  0  0  0  2  0  0  0  0  0  0
  -19.2200  -28.8310   23.3480 C   0  0  0  0  0  0  0  0  0  0  0  0
  -18.9080  -30.0990   23.8850 C   0  0  0  0  0  3  0  0  0  0  0  0
  -17.5730  -30.5400   23.9640 C   0  0  0  0  0  3  0  0  0  0  0  0
  -16.5320  -29.7090   23.5150 C   0  0  0  0  0  3  0  0  0  0  0  0
  -16.8280  -28.4440   22.9790 C   0  0  0  0  0  3  0  0  0  0  0  0
  -25.8980  -32.6910   24.0590 C   0  0  0  0  0  3  0  0  0  0  0  0
  -26.3710  -31.9650   25.3780 C   0  0  1  0  0  0  0  0  0  0  0  0
  -25.2270  -31.7070   26.3880 C   0  0  0  0  0  1  0  0  0  0  0  0
  -27.0290  -30.6060   25.0500 C   0  0  0  0  0  1  0  0  0  0  0  0
  -27.4480  -32.8190   26.0880 C   0  0  0  0  0  1  0  0  0  0  0  0
  -25.5890  -34.1020   24.3270 N   0  0  0  0  0  0  0  0  0  0  0  0
  -25.9660  -35.1250   23.5500 C   0  0  0  0  0  0  0  0  0  0  0  0
  -26.6820  -34.9830   22.5550 O   0  0  0  0  0  0  0  0  0  0  0  0
  -24.9580  -34.2870   25.0930 H   0  0  0  0  0  0  0  0  0  0  0  0
  -24.2770  -36.9200   23.0480 C   0  0  0  0  0  1  0  0  0  0  0  0
  -25.4690  -36.5320   23.9370 C   0  0  0  0  0  3  0  0  0  0  0  0
  -27.5640  -37.4250   24.8550 C   0  0  0  0  0  1  0  0  0  0  0  0
  -26.5190  -37.5710   23.8460 N   0  0  0  0  0  0  0  0  0  0  0  0
  -26.1150  -38.4990   23.9420 H   0  0  0  0  0  0  0  0  0  0  0  0
  -28.2190  -18.2620   20.0700 S   0  0  0  0  0  0  0  0  0  0  0  0
  -29.6170  -19.1780   17.8310 C   0  0  0  0  0  1  0  0  0  0  0  0
  -27.7300  -17.5840   17.4640 C   0  0  0  0  0  1  0  0  0  0  0  0
  -27.2370  -19.9440   18.1310 C   0  0  0  0  0  1  0  0  0  0  0  0
  -28.2140  -18.7690   18.3120 C   0  0  1  0  0  0  0  0  0  0  0  0
  2  1  1  0
  3  8  1  0
  3  1  2  0
  4  3  1  0
  5  2  2  0
  6  4  2  0
  6  5  1  0
  7 12  2  0
  9 11  1  0
  9  4  1  0
 10 11  1  0
 10  8  1  0
 11  7  1  0
 13 21  1  0
 14 19  1  0
 15 16  1  0
 15 14  1  0
 17 16  1  0
 17 26  1  0
 17 18  1  0
 19 13  1  0
 19 18  1  0
 20 13  2  0
 21 22  1  0
 21  5  1  0
 23 24  2  0
 24 43  1  0
 25 24  1  0
 25 28  1  0
 26 23  1  0
 26 27  1  0
 27 25  2  0
 28 29  1  0
 29 30  2  0
 31 34  1  0
 31 30  1  0
 32 31  2  0
 33 32  1  0
 33 28  2  0
 34 35  1  0
 35 40  2  0
 35 36  1  0
 36 37  2  0
 37 38  1  0
 38 42  1  0
 39 38  2  0
 40 39  1  0
 41 40  1  0
 43 44  1  0
 44 47  1  0
 44 46  1  0
 45 43  2  0
 48 49  1  0
 48 23  1  0
 50 48  1  0
 51  7  1  0
 52 53  1  0
 52 51  1  0
 54 65  2  0
 55 53  1  0
 55 60  1  0
 56 64  1  0
 56 66  1  0
 57 63  1  0
 57 59  1  0
 58 64  1  0
 59 60  2  0
 59 58  1  0
 61 55  2  0
 62 61  1  0
 62 57  2  0
 63 56  1  0
 64 54  1  0
 66 68  2  0
 67 66  1  0
 69 67  1  0
 70 79  2  0
 70 75  1  0
 71 67  1  0
 71 75  1  0
 72 71  1  0
 73 74  1  0
 73 72  1  0
 74 70  1  0
 75 76  2  0
 76 77  1  0
 78 77  2  0
 79 78  1  0
 80 54  1  0
 80 85  1  0
 80 81  1  0
 81 84  1  1
 81 82  1  0
 83 81  1  0
 85 88  1  0
 86 90  1  0
 86 85  1  0
 87 86  2  0
 90 89  1  0
 92 90  1  0
 92 93  1  0
 92 91  1  0
 94  6  1  0
 98 95  1  6
 96 98  1  0
 97 98  1  0
 98 94  1  0
M  ISO  4  13 100  21 100  52 101  53 101
M  END
>  <TORSDO>  (88) 
F 20

>  <SCORE>  (88) 
-13.030

>  <name>  (88) 
89

>  <ligand_id>  (88) 
89

>  <original_smiles>  (88) 
[H]c1c([H])c([H])c2c(c1[H])C([H])([H])C([H])([H])C([H])([H])C2([H])N([H])C(=O)C1([H])N(C(=O)C([H])(N([H])C(=O)C([H])(N([H])C([H])([H])[H])C([H])([H])[H])C(C([H])([H])[H])(C([H])([H])[H])C([H])([H])[H])C([H])([H])c2c([H])c(OC([H])([H])C([H])([H])C(=O)N3C([H])([H])c4c(SC(C([H])([H])[H])(C([H])([H])[H])C([H])([H])[H])c(N([H])C(=O)N5C([H])([H])C([H])([H])C([H])([H])C([H])(n6nc(-c7c([H])c([H])c(Oc8c([H])c([H])c(F)c([H])c8F)c([H])c7[H])c(C(=O)N([H])[H])c6N([H])[H])C5([H])[H])c([H])c([H])c4C([H])([H])C3([H])[H])c([H])c([H])c2C1([H])[H]

>  <smiles>  (88) 
[H]c1c([H])c([H])c2c(c1[H])C([H])([H])C([H])([H])C([H])([H])C2([H])N([H])C(=O)C1([H])N(C(=O)C([H])(N([H])C(=O)C([H])(N([H])C([H])([H])[H])C([H])([H])[H])C(C([H])([H])[H])(C([H])([H])[H])C([H])([H])[H])C([H])([H])c2c([H])c(OC([H])([H])C([H])([H])C(=O)N3C([H])([H])c4c(SC(C([H])([H])[H])(C([H])([H])[H])C([H])([H])[H])c(N([H])C(=O)N5C([H])([H])C([H])([H])C([H])([H])C([H])(n6nc(-c7c([H])c([H])c(Oc8c([H])c([H])c(F)c([H])c8F)c([H])c7[H])c(C(=O)N([H])[H])c6N([H])[H])C5([H])[H])c([H])c([H])c4C([H])([H])C3([H])[H])c([H])c([H])c2C1([H])[H]

$$$$
90:0:0
     RDKit          3D

 84 91  0  0  1  0  0  0  0  0999 V2000
  -28.4960  -23.9100   20.4720 C   0  0  0  0  0  2  0  0  0  0  0  0
  -26.9240  -21.7210   19.9330 C   0  0  0  0  0  1  0  0  0  0  0  0
  -28.4030  -22.1020   19.8000 C   0  0  0  0  0  3  0  0  0  0  0  0
  -29.1350  -19.1000   20.0220 C   0  0  0  0  0  3  0  0  0  0  0  0
  -27.8800  -18.6990   20.7700 C   0  0  0  0  0  1  0  0  0  0  0  0
  -29.3270  -20.5630   19.8540 N   0  0  0  0  0  2  0  0  0  0  0  0
  -29.9120  -17.4650   19.4030 C   0  0  0  0  0  2  0  0  0  0  0  0
  -30.4950  -15.7170   19.7680 C   0  0  0  0  0  0  0  0  0  0  0  0
  -30.4790  -13.1810   18.9420 C   0  0  0  0  0  2  0  0  0  0  0  0
  -29.5240  -12.7990   17.7740 C   0  0  0  0  0  2  0  0  0  0  0  0
  -28.1160  -12.4780   18.2960 C   0  0  0  0  0  2  0  0  0  0  0  0
  -27.6710  -13.4880   19.3770 C   0  0  0  0  0  3  0  0  0  0  0  0
  -28.7590  -13.7930   20.4290 C   0  0  0  0  0  2  0  0  0  0  0  0
  -29.9150  -14.3770   19.7130 N   0  0  0  0  0  0  0  0  0  0  0  0
  -31.7290  -15.5470   19.6850 O   0  0  0  0  0  0  0  0  0  0  0  0
  -25.3650  -14.0410   20.2820 C   0  0  0  0  0  0  0  0  0  0  0  0
  -24.3170  -13.2700   20.6990 C   0  0  0  0  0  0  0  0  0  0  0  0
  -24.7700  -11.9160   20.6340 C   0  0  0  0  0  0  0  0  0  0  0  0
  -26.3820  -13.1600   19.9740 N   0  0  0  0  0  0  0  0  0  0  0  0
  -26.0440  -11.8730   20.2540 N   0  0  0  0  0  0  0  0  0  0  0  0
  -24.0390  -10.6590   20.8530 C   0  0  0  0  0  0  0  0  0  0  0  0
  -24.4750   -9.7010   21.7940 C   0  0  0  0  0  3  0  0  0  0  0  0
  -23.7390   -8.5140   22.0010 C   0  0  0  0  0  3  0  0  0  0  0  0
  -22.5510   -8.2770   21.2680 C   0  0  0  0  0  0  0  0  0  0  0  0
  -22.1340   -9.2250   20.3160 C   0  0  0  0  0  3  0  0  0  0  0  0
  -22.8710  -10.4030   20.1070 C   0  0  0  0  0  3  0  0  0  0  0  0
  -21.7860   -7.1420   21.3840 O   0  0  0  0  0  0  0  0  0  0  0  0
  -21.7130   -6.4400   22.5600 C   0  0  0  0  0  0  0  0  0  0  0  0
  -21.2860   -7.0420   23.7640 C   0  0  0  0  0  3  0  0  0  0  0  0
  -21.1600   -6.2660   24.9340 C   0  0  0  0  0  3  0  0  0  0  0  0
  -21.4510   -4.8890   24.9000 C   0  0  0  0  0  0  0  0  0  0  0  0
  -21.8700   -4.2870   23.7020 C   0  0  0  0  0  3  0  0  0  0  0  0
  -21.9980   -5.0590   22.5340 C   0  0  0  0  0  0  0  0  0  0  0  0
  -22.3820   -4.4690   21.3760 F   0  0  0  0  0  0  0  0  0  0  0  0
  -21.3220   -4.1410   26.0210 F   0  0  0  0  0  0  0  0  0  0  0  0
  -22.9400  -13.7610   21.0360 C   0  0  0  0  0  0  0  0  0  0  0  0
  -22.2460  -13.0740   21.9360 N   0  0  0  0  0  0  0  0  0  0  0  0
  -22.4910  -14.7910   20.5330 O   0  0  0  0  0  0  0  0  0  0  0  0
  -22.6240  -12.2420   22.3610 H   0  0  0  0  0  0  0  0  0  0  0  0
  -21.3240  -13.3880   22.2040 H   0  0  0  0  0  0  0  0  0  0  0  0
  -25.5300  -15.4120   20.1070 N   0  0  0  0  0  0  0  0  0  0  0  0
  -24.7720  -16.0670   20.2700 H   0  0  0  0  0  0  0  0  0  0  0  0
  -26.3600  -15.8530   19.7330 H   0  0  0  0  0  0  0  0  0  0  0  0
  -28.3090  -25.6350   20.1590 O   0  0  0  0  0  0  0  0  0  0  0  0
  -24.6620  -31.8110   23.1940 C   0  0  0  0  0  0  0  0  0  0  0  0
  -27.2640  -26.7730   20.2390 C   0  0  0  0  0  0  0  0  0  0  0  0
  -23.4920  -30.3890   21.5660 C   0  0  0  0  0  3  0  0  0  0  0  0
  -24.9610  -28.7560   20.1670 C   0  0  0  0  0  0  0  0  0  0  0  0
  -26.0670  -30.5790   21.4320 C   0  0  0  0  0  2  0  0  0  0  0  0
  -26.1530  -29.1440   20.7910 C   0  0  0  0  0  0  0  0  0  0  0  0
  -27.2940  -28.1850   20.7810 C   0  0  0  0  0  3  0  0  0  0  0  0
  -26.0330  -26.5890   19.5630 C   0  0  0  0  0  3  0  0  0  0  0  0
  -24.9380  -27.5070   19.5250 C   0  0  0  0  0  3  0  0  0  0  0  0
  -23.7430  -29.6920   20.1970 C   0  0  0  0  0  2  0  0  0  0  0  0
  -24.7640  -30.9600   22.1170 N   0  0  0  0  0  0  0  0  0  0  0  0
  -23.5680  -32.0970   23.7060 O   0  0  0  0  0  0  0  0  0  0  0  0
  -22.7960  -29.4030   22.5410 C   0  0  0  0  0  0  0  0  0  0  0  0
  -21.4660  -29.2290   22.4190 N   0  0  0  0  0  0  0  0  0  0  0  0
  -23.4630  -28.7940   23.3820 O   0  0  0  0  0  0  0  0  0  0  0  0
  -20.9780  -29.7750   21.7210 H   0  0  0  0  0  0  0  0  0  0  0  0
  -18.1010  -27.9570   22.9340 C   0  0  0  0  0  0  0  0  0  0  0  0
  -20.6550  -28.2840   23.1980 C   0  0  0  0  0  3  0  0  0  0  0  0
  -20.7870  -26.8480   22.6390 C   0  0  0  0  0  2  0  0  0  0  0  0
  -19.6950  -26.4920   21.6250 C   0  0  0  0  0  2  0  0  0  0  0  0
  -18.3100  -26.6090   22.2660 C   0  0  0  0  0  2  0  0  0  0  0  0
  -19.2010  -28.7500   23.3580 C   0  0  0  0  0  0  0  0  0  0  0  0
  -18.9510  -30.0060   23.9510 C   0  0  0  0  0  3  0  0  0  0  0  0
  -17.6340  -30.4720   24.1230 C   0  0  0  0  0  3  0  0  0  0  0  0
  -16.5490  -29.6790   23.7090 C   0  0  0  0  0  3  0  0  0  0  0  0
  -16.7840  -28.4250   23.1210 C   0  0  0  0  0  3  0  0  0  0  0  0
  -25.9180  -32.4810   23.8280 C   0  0  0  0  0  3  0  0  0  0  0  0
  -26.4130  -31.7490   25.1370 C   0  0  1  0  0  0  0  0  0  0  0  0
  -25.3030  -31.5390   26.1950 C   0  0  0  0  0  1  0  0  0  0  0  0
  -27.0070  -30.3620   24.8070 C   0  0  0  0  0  1  0  0  0  0  0  0
  -27.5500  -32.5650   25.7970 C   0  0  0  0  0  1  0  0  0  0  0  0
  -25.5820  -33.8860   24.1370 N   0  0  0  0  0  0  0  0  0  0  0  0
  -25.9060  -34.9420   23.3770 C   0  0  0  0  0  0  0  0  0  0  0  0
  -26.5770  -34.8370   22.3480 O   0  0  0  0  0  0  0  0  0  0  0  0
  -24.9820  -34.0380   24.9340 H   0  0  0  0  0  0  0  0  0  0  0  0
  -24.1590  -36.7250   23.0270 C   0  0  0  0  0  1  0  0  0  0  0  0
  -25.4110  -36.3330   23.8300 C   0  0  0  0  0  3  0  0  0  0  0  0
  -27.5420  -37.2520   24.6320 C   0  0  0  0  0  1  0  0  0  0  0  0
  -26.4310  -37.3960   23.6960 N   0  0  0  0  0  0  0  0  0  0  0  0
  -26.0150  -38.3120   23.8360 H   0  0  0  0  0  0  0  0  0  0  0  0
  3  6  1  0
  3  2  1  0
  3  1  1  0
  4  5  1  0
  6  4  1  0
  7  8  1  0
  7  4  1  0
  9 14  1  0
 10 11  1  0
 10  9  1  0
 12 11  1  0
 12 19  1  0
 12 13  1  0
 14  8  1  0
 14 13  1  0
 15  8  2  0
 16 17  2  0
 17 36  1  0
 18 17  1  0
 18 21  1  0
 19 20  1  0
 19 16  1  0
 20 18  2  0
 21 22  1  0
 22 23  2  0
 24 27  1  0
 24 23  1  0
 25 24  2  0
 26 25  1  0
 26 21  2  0
 27 28  1  0
 28 29  1  0
 29 30  2  0
 31 30  1  0
 31 35  1  0
 32 31  2  0
 33 28  2  0
 33 32  1  0
 34 33  1  0
 36 37  1  0
 37 40  1  0
 37 39  1  0
 38 36  2  0
 41 42  1  0
 41 16  1  0
 43 41  1  0
 44 46  1  0
 44  1  1  0
 45 56  2  0
 46 51  1  0
 47 55  1  0
 47 57  1  0
 48 54  1  0
 48 50  1  0
 49 55  1  0
 50 49  1  0
 51 50  2  0
 52 46  2  0
 53 52  1  0
 53 48  2  0
 54 47  1  0
 55 45  1  0
 57 59  2  0
 58 57  1  0
 60 58  1  0
 61 70  2  0
 61 66  1  0
 62 58  1  0
 62 66  1  0
 63 62  1  0
 64 65  1  0
 64 63  1  0
 65 61  1  0
 66 67  2  0
 67 68  1  0
 69 68  2  0
 70 69  1  0
 71 45  1  0
 71 76  1  0
 71 72  1  0
 72 75  1  1
 72 73  1  0
 74 72  1  0
 76 79  1  0
 77 81  1  0
 77 76  1  0
 78 77  2  0
 81 80  1  0
 83 81  1  0
 83 84  1  0
 83 82  1  0
M  ISO  4   1 101   7 100   8 100  44 101
M  END
>  <TORSDO>  (89) 
F 19

>  <SCORE>  (89) 
-15.357

>  <name>  (89) 
90

>  <ligand_id>  (89) 
90

>  <original_smiles>  (89) 
[H]c1c([H])c([H])c2c(c1[H])C([H])([H])C([H])([H])C([H])([H])C2([H])N([H])C(=O)C1([H])N(C(=O)C([H])(N([H])C(=O)C([H])(N([H])C([H])([H])[H])C([H])([H])[H])C(C([H])([H])[H])(C([H])([H])[H])C([H])([H])[H])C([H])([H])c2c([H])c(OC([H])([H])C([H])(N=C(C([H])([H])[H])C([H])([H])C(=O)N3C([H])([H])C([H])([H])C([H])([H])C([H])(n4nc(-c5c([H])c([H])c(Oc6c([H])c([H])c(F)c([H])c6F)c([H])c5[H])c(C(=O)N([H])[H])c4N([H])[H])C3([H])[H])C([H])([H])[H])c([H])c([H])c2C1([H])[H]

>  <smiles>  (89) 
[H]c1c([H])c([H])c2c(c1[H])C([H])([H])C([H])([H])C([H])([H])C2([H])N([H])C(=O)C1([H])N(C(=O)C([H])(N([H])C(=O)C([H])(N([H])C([H])([H])[H])C([H])([H])[H])C(C([H])([H])[H])(C([H])([H])[H])C([H])([H])[H])C([H])([H])c2c([H])c(OC([H])([H])C([H])(N=C(C([H])([H])[H])C([H])([H])C(=O)N3C([H])([H])C([H])([H])C([H])([H])C([H])(n4nc(-c5c([H])c([H])c(Oc6c([H])c([H])c(F)c([H])c6F)c([H])c5[H])c(C(=O)N([H])[H])c4N([H])[H])C3([H])[H])C([H])([H])[H])c([H])c([H])c2C1([H])[H]

$$$$
91:0:0
     RDKit          3D

 98108  0  0  1  0  0  0  0  0999 V2000
  -30.6850  -21.3560   16.3770 C   0  0  0  0  0  2  0  0  0  0  0  0
  -29.7760  -20.1310   16.4570 C   0  0  0  0  0  2  0  0  0  0  0  0
  -30.2100  -22.2570   17.5060 C   0  0  0  0  0  2  0  0  0  0  0  0
  -29.1930  -20.0670   17.8940 C   0  0  0  0  0  3  0  0  0  0  0  0
  -29.7980  -21.2980   18.6410 C   0  0  0  0  0  3  0  0  0  0  0  0
  -29.4040  -18.6720   18.5100 C   0  0  0  0  0  0  0  0  0  0  0  0
  -28.6810  -17.5760   17.7310 C   0  0  0  0  0  1  0  0  0  0  0  0
  -30.1650  -18.4560   19.5180 N   0  0  0  0  0  0  0  0  0  0  0  0
  -30.9150  -16.6910   22.7890 C   0  0  0  0  0  2  0  0  0  0  0  0
  -29.5410  -16.9500   22.1380 C   0  0  0  0  0  2  0  0  0  0  0  0
  -31.9420  -17.0360   20.5510 C   0  0  0  0  0  2  0  0  0  0  0  0
  -30.5760  -15.0530   21.1140 C   0  0  0  0  0  3  0  0  0  0  0  0
  -31.6850  -15.9790   21.6550 C   0  0  0  0  0  3  0  0  0  0  0  0
  -29.6770  -16.2560   20.7620 C   0  0  0  0  0  3  0  0  0  0  0  0
  -30.5910  -17.0850   19.8130 C   0  0  0  0  0  3  0  0  0  0  0  0
  -30.8990  -14.0770   19.9390 C   0  0  0  0  0  0  0  0  0  0  0  0
  -30.2730  -12.1270   18.5400 C   0  0  0  0  0  2  0  0  0  0  0  0
  -29.2360  -12.5010   17.4640 C   0  0  0  0  0  2  0  0  0  0  0  0
  -27.8060  -12.4120   18.0290 C   0  0  0  0  0  2  0  0  0  0  0  0
  -27.6560  -13.1620   19.3770 C   0  0  0  0  0  3  0  0  0  0  0  0
  -28.7850  -12.7620   20.3500 C   0  0  0  0  0  2  0  0  0  0  0  0
  -30.0800  -13.0170   19.6970 N   0  0  0  0  0  0  0  0  0  0  0  0
  -31.8960  -14.2890   19.2410 O   0  0  0  0  0  0  0  0  0  0  0  0
  -25.3630  -13.8690   20.3140 C   0  0  0  0  0  0  0  0  0  0  0  0
  -24.2970  -13.1420   20.7730 C   0  0  0  0  0  0  0  0  0  0  0  0
  -24.6890  -11.7710   20.6840 C   0  0  0  0  0  0  0  0  0  0  0  0
  -26.3380  -12.9450   19.9720 N   0  0  0  0  0  0  0  0  0  0  0  0
  -25.9400  -11.6770   20.2500 N   0  0  0  0  0  0  0  0  0  0  0  0
  -23.9250  -10.5410   20.9260 C   0  0  0  0  0  0  0  0  0  0  0  0
  -24.4000   -9.5340   21.7970 C   0  0  0  0  0  3  0  0  0  0  0  0
  -23.6380   -8.3690   22.0270 C   0  0  0  0  0  3  0  0  0  0  0  0
  -22.3880   -8.2010   21.3850 C   0  0  0  0  0  0  0  0  0  0  0  0
  -21.9310   -9.1940   20.5000 C   0  0  0  0  0  3  0  0  0  0  0  0
  -22.6920  -10.3510   20.2680 C   0  0  0  0  0  3  0  0  0  0  0  0
  -21.5910   -7.0910   21.5270 O   0  0  0  0  0  0  0  0  0  0  0  0
  -21.6190   -6.3240   22.6650 C   0  0  0  0  0  0  0  0  0  0  0  0
  -21.3700   -6.8770   23.9390 C   0  0  0  0  0  3  0  0  0  0  0  0
  -21.3400   -6.0430   25.0750 C   0  0  0  0  0  3  0  0  0  0  0  0
  -21.5510   -4.6590   24.9390 C   0  0  0  0  0  0  0  0  0  0  0  0
  -21.7970   -4.1050   23.6710 C   0  0  0  0  0  3  0  0  0  0  0  0
  -21.8290   -4.9370   22.5370 C   0  0  0  0  0  0  0  0  0  0  0  0
  -22.0440   -4.3950   21.3120 F   0  0  0  0  0  0  0  0  0  0  0  0
  -21.5150   -3.8560   26.0290 F   0  0  0  0  0  0  0  0  0  0  0  0
  -22.9570  -13.6790   21.1820 C   0  0  0  0  0  0  0  0  0  0  0  0
  -22.2860  -13.0120   22.1170 N   0  0  0  0  0  0  0  0  0  0  0  0
  -22.5150  -14.7240   20.7060 O   0  0  0  0  0  0  0  0  0  0  0  0
  -22.6560  -12.1670   22.5230 H   0  0  0  0  0  0  0  0  0  0  0  0
  -21.3900  -13.3560   22.4320 H   0  0  0  0  0  0  0  0  0  0  0  0
  -25.5740  -15.2330   20.1450 N   0  0  0  0  0  0  0  0  0  0  0  0
  -24.8530  -15.9200   20.3370 H   0  0  0  0  0  0  0  0  0  0  0  0
  -26.4130  -15.6420   19.7550 H   0  0  0  0  0  0  0  0  0  0  0  0
  -28.8660  -21.9220   19.6200 N   0  0  0  0  0  4  0  0  0  0  0  0
  -28.7510  -21.2820   20.3910 H   0  0  0  0  0  0  0  0  0  0  0  0
  -27.9670  -22.0200   19.1760 H   0  0  0  0  0  0  0  0  0  0  0  0
  -29.2710  -23.2560   20.1470 C   0  0  0  0  0  2  0  0  0  0  0  0
  -28.1130  -24.0130   20.8370 C   0  0  0  0  0  2  0  0  0  0  0  0
  -28.4670  -25.4590   21.2600 C   0  0  0  0  0  2  0  0  0  0  0  0
  -28.3920  -26.4090   20.1890 O   0  0  0  0  0  0  0  0  0  0  0  0
  -24.5310  -31.6330   23.1330 C   0  0  0  0  0  0  0  0  0  0  0  0
  -27.2380  -27.1570   20.1690 C   0  0  0  0  0  0  0  0  0  0  0  0
  -23.3640  -30.2240   21.4660 C   0  0  0  0  0  3  0  0  0  0  0  0
  -24.8510  -28.6650   20.0960 C   0  0  0  0  0  0  0  0  0  0  0  0
  -25.8940  -30.5680   21.3370 C   0  0  0  0  0  2  0  0  0  0  0  0
  -25.9890  -29.1890   20.7210 C   0  0  0  0  0  0  0  0  0  0  0  0
  -27.1870  -28.4390   20.7610 C   0  0  0  0  0  3  0  0  0  0  0  0
  -26.0890  -26.6470   19.5310 C   0  0  0  0  0  3  0  0  0  0  0  0
  -24.8950  -27.3920   19.4970 C   0  0  0  0  0  3  0  0  0  0  0  0
  -23.6090  -29.5280   20.0990 C   0  0  0  0  0  2  0  0  0  0  0  0
  -24.6130  -30.8240   22.0380 N   0  0  0  0  0  0  0  0  0  0  0  0
  -23.4360  -31.9140   23.6390 O   0  0  0  0  0  0  0  0  0  0  0  0
  -22.6800  -29.2140   22.4150 C   0  0  0  0  0  0  0  0  0  0  0  0
  -21.3540  -29.0620   22.2700 N   0  0  0  0  0  0  0  0  0  0  0  0
  -23.3400  -28.5710   23.2360 O   0  0  0  0  0  0  0  0  0  0  0  0
  -20.8850  -29.6350   21.5810 H   0  0  0  0  0  0  0  0  0  0  0  0
  -17.9460  -27.9550   22.7310 C   0  0  0  0  0  0  0  0  0  0  0  0
  -20.5070  -28.1390   23.0250 C   0  0  0  0  0  3  0  0  0  0  0  0
  -20.5740  -26.7120   22.4350 C   0  0  0  0  0  2  0  0  0  0  0  0
  -19.4700  -26.4290   21.4110 C   0  0  0  0  0  2  0  0  0  0  0  0
  -18.0890  -26.6070   22.0460 C   0  0  0  0  0  2  0  0  0  0  0  0
  -19.0820  -28.6810   23.1770 C   0  0  0  0  0  0  0  0  0  0  0  0
  -18.8930  -29.9460   23.7760 C   0  0  0  0  0  3  0  0  0  0  0  0
  -17.6020  -30.4820   23.9370 C   0  0  0  0  0  3  0  0  0  0  0  0
  -16.4800  -29.7520   23.5070 C   0  0  0  0  0  3  0  0  0  0  0  0
  -16.6520  -28.4910   22.9100 C   0  0  0  0  0  3  0  0  0  0  0  0
  -25.8030  -32.2590   23.7850 C   0  0  0  0  0  3  0  0  0  0  0  0
  -25.4840  -33.6500   24.1320 N   0  0  0  0  0  0  0  0  0  0  0  0
  -25.8170  -34.7150   23.3910 C   0  0  0  0  0  0  0  0  0  0  0  0
  -26.4990  -34.6300   22.3650 O   0  0  0  0  0  0  0  0  0  0  0  0
  -24.8860  -33.7910   24.9330 H   0  0  0  0  0  0  0  0  0  0  0  0
  -24.0740  -36.4950   23.0440 C   0  0  0  0  0  1  0  0  0  0  0  0
  -25.3140  -36.0920   23.8590 C   0  0  0  0  0  3  0  0  0  0  0  0
  -27.4380  -36.9840   24.7100 C   0  0  0  0  0  1  0  0  0  0  0  0
  -26.3380  -37.1550   23.7650 N   0  0  0  0  0  0  0  0  0  0  0  0
  -25.9230  -38.0710   23.9230 H   0  0  0  0  0  0  0  0  0  0  0  0
  -26.3060  -31.4680   25.0550 C   0  0  1  0  0  0  0  0  0  0  0  0
  -25.2000  -31.2110   26.1030 C   0  0  0  0  0  1  0  0  0  0  0  0
  -26.8960  -30.0980   24.6440 C   0  0  0  0  0  1  0  0  0  0  0  0
  -27.4440  -32.2550   25.7470 C   0  0  0  0  0  1  0  0  0  0  0  0
  1  2  1  0
  1  3  1  0
  2  4  1  0
  3  5  1  0
  4  6  1  0
  4  5  1  0
  5 52  1  0
  6  8  2  0
  7  6  1  0
 10  9  1  0
 12 16  1  0
 12 13  1  0
 13 11  1  0
 13  9  1  0
 14 12  1  0
 14 10  1  0
 15  8  1  0
 15 11  1  0
 15 14  1  0
 17 22  1  0
 18 19  1  0
 18 17  1  0
 20 19  1  0
 20 27  1  0
 20 21  1  0
 22 16  1  0
 22 21  1  0
 23 16  2  0
 24 25  2  0
 25 44  1  0
 26 25  1  0
 26 29  1  0
 27 28  1  0
 27 24  1  0
 28 26  2  0
 29 30  1  0
 30 31  2  0
 32 35  1  0
 32 31  1  0
 33 32  2  0
 34 33  1  0
 34 29  2  0
 35 36  1  0
 36 37  1  0
 37 38  2  0
 39 38  1  0
 39 43  1  0
 40 39  2  0
 41 36  2  0
 41 40  1  0
 42 41  1  0
 44 45  1  0
 45 48  1  0
 45 47  1  0
 46 44  2  0
 49 24  1  0
 49 50  1  0
 51 49  1  0
 52 55  1  0
 52 53  1  0
 54 52  1  0
 55 56  1  0
 56 57  1  0
 58 57  1  0
 59 70  2  0
 60 58  1  0
 60 65  1  0
 61 69  1  0
 61 71  1  0
 62 68  1  0
 62 64  1  0
 63 69  1  0
 64 65  2  0
 64 63  1  0
 66 60  2  0
 67 66  1  0
 67 62  2  0
 68 61  1  0
 69 59  1  0
 71 73  2  0
 72 71  1  0
 74 72  1  0
 75 84  2  0
 75 80  1  0
 76 72  1  0
 76 80  1  0
 77 76  1  0
 78 79  1  0
 78 77  1  0
 79 75  1  0
 80 81  2  0
 81 82  1  0
 83 82  2  0
 84 83  1  0
 85 59  1  0
 85 86  1  0
 85 95  1  0
 86 89  1  0
 87 91  1  0
 87 86  1  0
 88 87  2  0
 91 90  1  0
 93 91  1  0
 93 94  1  0
 93 92  1  0
 95 98  1  1
 95 96  1  0
 97 95  1  0
M  ISO  4  12 100  16 100  57 101  58 101
M  END
>  <TORSDO>  (90) 
F 22

>  <SCORE>  (90) 
-11.325

>  <name>  (90) 
91

>  <ligand_id>  (90) 
91

>  <original_smiles>  (90) 
[H]c1c([H])c([H])c2c(c1[H])C([H])([H])C([H])([H])C([H])([H])C2([H])N([H])C(=O)C1([H])N(C(=O)C([H])(N([H])C(=O)C([H])(N([H])C([H])([H])[H])C([H])([H])[H])C(C([H])([H])[H])(C([H])([H])[H])C([H])([H])[H])C([H])([H])c2c([H])c(OC([H])([H])C([H])([H])C([H])([H])[N+]([H])([H])C3([H])C([H])([H])C([H])([H])C([H])([H])C3([H])C(=NC3([H])C([H])([H])C4([H])C([H])([H])C([H])([H])C3([H])C4([H])C(=O)N3C([H])([H])C([H])([H])C([H])([H])C([H])(n4nc(-c5c([H])c([H])c(Oc6c([H])c([H])c(F)c([H])c6F)c([H])c5[H])c(C(=O)N([H])[H])c4N([H])[H])C3([H])[H])C([H])([H])[H])c([H])c([H])c2C1([H])[H]

>  <smiles>  (90) 
[H]c1c([H])c([H])c2c(c1[H])C([H])([H])C([H])([H])C([H])([H])C2([H])N([H])C(=O)C1([H])N(C(=O)C([H])(N([H])C(=O)C([H])(N([H])C([H])([H])[H])C([H])([H])[H])C(C([H])([H])[H])(C([H])([H])[H])C([H])([H])[H])C([H])([H])c2c([H])c(OC([H])([H])C([H])([H])C([H])([H])[N+]([H])([H])C3([H])C([H])([H])C([H])([H])C([H])([H])C3([H])C(=NC3([H])C([H])([H])C4([H])C([H])([H])C([H])([H])C3([H])C4([H])C(=O)N3C([H])([H])C([H])([H])C([H])([H])C([H])(n4nc(-c5c([H])c([H])c(Oc6c([H])c([H])c(F)c([H])c6F)c([H])c5[H])c(C(=O)N([H])[H])c4N([H])[H])C3([H])[H])C([H])([H])[H])c([H])c([H])c2C1([H])[H]

$$$$
92:0:0
     RDKit          3D

 88 95  0  0  1  0  0  0  0  0999 V2000
  -28.8930  -22.2580   20.3490 C   0  0  0  0  0  2  0  0  0  0  0  0
  -30.2610  -20.0920   19.9040 C   0  0  0  0  0  0  0  0  0  0  0  0
  -31.5810  -19.7050   19.2520 C   0  0  0  0  0  1  0  0  0  0  0  0
  -30.0000  -21.3860   19.8320 N   0  0  0  0  0  0  0  0  0  0  0  0
  -29.5330  -18.8270   20.5630 C   0  0  0  0  0  2  0  0  0  0  0  0
  -29.7150  -17.3500   19.9380 C   0  0  0  0  0  0  0  0  0  0  0  0
  -29.6100  -17.1860   18.6830 N   0  0  0  0  0  0  0  0  0  0  0  0
  -29.4620  -18.0570   18.1860 H   0  0  0  0  0  0  0  0  0  0  0  0
  -29.8780  -16.0650   20.8810 C   0  0  0  0  0  2  0  0  0  0  0  0
  -30.5850  -14.7280   20.3300 C   0  0  0  0  0  0  0  0  0  0  0  0
  -30.3670  -12.4710   19.2680 C   0  0  0  0  0  2  0  0  0  0  0  0
  -29.4150  -12.5870   18.0560 C   0  0  0  0  0  2  0  0  0  0  0  0
  -27.9470  -12.4180   18.4930 C   0  0  0  0  0  2  0  0  0  0  0  0
  -27.5960  -13.2710   19.7420 C   0  0  0  0  0  3  0  0  0  0  0  0
  -28.6680  -13.1330   20.8450 C   0  0  0  0  0  2  0  0  0  0  0  0
  -29.9620  -13.5000   20.2530 N   0  0  0  0  0  0  0  0  0  0  0  0
  -31.7410  -14.8280   19.9040 O   0  0  0  0  0  0  0  0  0  0  0  0
  -25.2100  -13.8490   20.4870 C   0  0  0  0  0  0  0  0  0  0  0  0
  -24.1510  -13.0710   20.8710 C   0  0  0  0  0  0  0  0  0  0  0  0
  -24.6210  -11.7210   20.8380 C   0  0  0  0  0  0  0  0  0  0  0  0
  -26.2560  -12.9750   20.2430 N   0  0  0  0  0  0  0  0  0  0  0  0
  -25.9090  -11.6900   20.5150 N   0  0  0  0  0  0  0  0  0  0  0  0
  -23.9050  -10.4550   21.0360 C   0  0  0  0  0  0  0  0  0  0  0  0
  -24.3570   -9.4860   21.9590 C   0  0  0  0  0  3  0  0  0  0  0  0
  -23.6390   -8.2850   22.1480 C   0  0  0  0  0  3  0  0  0  0  0  0
  -22.4520   -8.0460   21.4140 C   0  0  0  0  0  0  0  0  0  0  0  0
  -22.0180   -9.0040   20.4820 C   0  0  0  0  0  3  0  0  0  0  0  0
  -22.7370  -10.1950   20.2910 C   0  0  0  0  0  3  0  0  0  0  0  0
  -21.7030   -6.8980   21.5120 O   0  0  0  0  0  0  0  0  0  0  0  0
  -21.6870   -6.1430   22.6570 C   0  0  0  0  0  0  0  0  0  0  0  0
  -21.3020   -6.6860   23.9030 C   0  0  0  0  0  3  0  0  0  0  0  0
  -21.2350   -5.8560   25.0410 C   0  0  0  0  0  3  0  0  0  0  0  0
  -21.5440   -4.4860   24.9340 C   0  0  0  0  0  0  0  0  0  0  0  0
  -21.9220   -3.9450   23.6920 C   0  0  0  0  0  3  0  0  0  0  0  0
  -21.9910   -4.7710   22.5570 C   0  0  0  0  0  0  0  0  0  0  0  0
  -22.3350   -4.2390   21.3590 F   0  0  0  0  0  0  0  0  0  0  0  0
  -21.4720   -3.6890   26.0250 F   0  0  0  0  0  0  0  0  0  0  0  0
  -22.7540  -13.5390   21.1540 C   0  0  0  0  0  0  0  0  0  0  0  0
  -22.0390  -12.8390   22.0270 N   0  0  0  0  0  0  0  0  0  0  0  0
  -22.3070  -14.5610   20.6370 O   0  0  0  0  0  0  0  0  0  0  0  0
  -22.4150  -12.0140   22.4700 H   0  0  0  0  0  0  0  0  0  0  0  0
  -21.1000  -13.1330   22.2560 H   0  0  0  0  0  0  0  0  0  0  0  0
  -25.3680  -15.2190   20.3050 N   0  0  0  0  0  0  0  0  0  0  0  0
  -24.6040  -15.8760   20.4190 H   0  0  0  0  0  0  0  0  0  0  0  0
  -26.2130  -15.6550   19.9530 H   0  0  0  0  0  0  0  0  0  0  0  0
  -29.1630  -23.8340   20.0710 C   0  0  0  0  0  3  0  0  0  0  0  0
  -28.0780  -24.9550   20.4710 C   0  0  0  0  0  3  0  0  0  0  0  0
  -28.3080  -26.4140   20.1830 O   0  0  0  0  0  0  0  0  0  0  0  0
  -24.6260  -31.8820   23.2400 C   0  0  0  0  0  0  0  0  0  0  0  0
  -27.2000  -27.2890   20.1690 C   0  0  0  0  0  0  0  0  0  0  0  0
  -23.4080  -30.4840   21.6130 C   0  0  0  0  0  3  0  0  0  0  0  0
  -24.8430  -28.9290   20.1770 C   0  0  0  0  0  0  0  0  0  0  0  0
  -25.9470  -30.7890   21.4090 C   0  0  0  0  0  2  0  0  0  0  0  0
  -26.0190  -29.4060   20.7670 C   0  0  0  0  0  0  0  0  0  0  0  0
  -27.2020  -28.5990   20.7510 C   0  0  0  0  0  3  0  0  0  0  0  0
  -26.0010  -26.8810   19.5410 C   0  0  0  0  0  3  0  0  0  0  0  0
  -24.8380  -27.6730   19.5520 C   0  0  0  0  0  3  0  0  0  0  0  0
  -23.6110  -29.8100   20.2320 C   0  0  0  0  0  2  0  0  0  0  0  0
  -24.6810  -31.0690   22.1440 N   0  0  0  0  0  0  0  0  0  0  0  0
  -23.5470  -32.1620   23.7830 O   0  0  0  0  0  0  0  0  0  0  0  0
  -22.7500  -29.4690   22.5790 C   0  0  0  0  0  0  0  0  0  0  0  0
  -21.4230  -29.2900   22.4600 N   0  0  0  0  0  0  0  0  0  0  0  0
  -23.4310  -28.8460   23.3980 O   0  0  0  0  0  0  0  0  0  0  0  0
  -20.9320  -29.8420   21.7710 H   0  0  0  0  0  0  0  0  0  0  0  0
  -18.0500  -28.0820   22.9720 C   0  0  0  0  0  0  0  0  0  0  0  0
  -20.6080  -28.3550   23.2370 C   0  0  0  0  0  3  0  0  0  0  0  0
  -20.7160  -26.9200   22.6710 C   0  0  0  0  0  2  0  0  0  0  0  0
  -19.6140  -26.5860   21.6610 C   0  0  0  0  0  2  0  0  0  0  0  0
  -18.2320  -26.7290   22.3050 C   0  0  0  0  0  2  0  0  0  0  0  0
  -19.1660  -28.8530   23.3950 C   0  0  0  0  0  0  0  0  0  0  0  0
  -18.9420  -30.1180   23.9800 C   0  0  0  0  0  3  0  0  0  0  0  0
  -17.6360  -30.6150   24.1420 C   0  0  0  0  0  3  0  0  0  0  0  0
  -16.5340  -29.8430   23.7330 C   0  0  0  0  0  3  0  0  0  0  0  0
  -16.7430  -28.5780   23.1550 C   0  0  0  0  0  3  0  0  0  0  0  0
  -25.9150  -32.5140   23.8520 C   0  0  0  0  0  3  0  0  0  0  0  0
  -25.6080  -33.9120   24.1880 N   0  0  0  0  0  0  0  0  0  0  0  0
  -25.9340  -34.9660   23.4280 C   0  0  0  0  0  0  0  0  0  0  0  0
  -26.5950  -34.8640   22.3910 O   0  0  0  0  0  0  0  0  0  0  0  0
  -25.0200  -34.0640   24.9940 H   0  0  0  0  0  0  0  0  0  0  0  0
  -24.2070  -36.7640   23.0890 C   0  0  0  0  0  1  0  0  0  0  0  0
  -25.4520  -36.3540   23.8910 C   0  0  0  0  0  3  0  0  0  0  0  0
  -27.5950  -37.2330   24.7080 C   0  0  0  0  0  1  0  0  0  0  0  0
  -26.4850  -37.4070   23.7740 N   0  0  0  0  0  0  0  0  0  0  0  0
  -26.0830  -38.3280   23.9270 H   0  0  0  0  0  0  0  0  0  0  0  0
  -26.4390  -31.7390   25.1240 C   0  0  1  0  0  0  0  0  0  0  0  0
  -25.3550  -31.5030   26.2010 C   0  0  0  0  0  1  0  0  0  0  0  0
  -27.0140  -30.3610   24.7240 C   0  0  0  0  0  1  0  0  0  0  0  0
  -27.5990  -32.5300   25.7750 C   0  0  0  0  0  1  0  0  0  0  0  0
  2  5  1  0
  3  2  1  0
  4  2  2  0
  4  1  1  0
  6  5  1  0
  6  9  1  0
  7  6  2  0
  8  7  1  0
 10  9  1  0
 11 16  1  0
 12 13  1  0
 12 11  1  0
 14 13  1  0
 14 21  1  0
 14 15  1  0
 16 10  1  0
 16 15  1  0
 17 10  2  0
 18 19  2  0
 19 38  1  0
 20 19  1  0
 20 23  1  0
 21 18  1  0
 21 22  1  0
 22 20  2  0
 23 24  1  0
 24 25  2  0
 26 29  1  0
 26 25  1  0
 27 26  2  0
 28 27  1  0
 28 23  2  0
 29 30  1  0
 30 31  1  0
 31 32  2  0
 33 32  1  0
 33 37  1  0
 34 33  2  0
 35 30  2  0
 35 34  1  0
 36 35  1  0
 38 39  1  0
 39 42  1  0
 39 41  1  0
 40 38  2  0
 43 44  1  0
 43 18  1  0
 45 43  1  0
 46  1  1  0
 46 47  2  0
 48 47  1  0
 49 60  2  0
 50 48  1  0
 50 55  1  0
 51 59  1  0
 51 61  1  0
 52 58  1  0
 52 54  1  0
 53 59  1  0
 54 53  1  0
 55 54  2  0
 56 57  1  0
 56 50  2  0
 57 52  2  0
 58 51  1  0
 59 49  1  0
 61 63  2  0
 62 61  1  0
 64 62  1  0
 65 74  2  0
 65 70  1  0
 66 62  1  0
 66 70  1  0
 67 66  1  0
 68 69  1  0
 68 67  1  0
 69 65  1  0
 70 71  2  0
 71 72  1  0
 73 72  2  0
 74 73  1  0
 75 49  1  0
 75 76  1  0
 75 85  1  0
 76 79  1  0
 77 81  1  0
 77 76  1  0
 78 77  2  0
 81 80  1  0
 83 81  1  0
 83 84  1  0
 83 82  1  0
 85 88  1  1
 85 86  1  0
 87 85  1  0
M  ISO  4   9 100  10 100  47 101  48 101
M  END
>  <TORSDO>  (91) 
F 22

>  <SCORE>  (91) 
-13.061

>  <name>  (91) 
92

>  <ligand_id>  (91) 
92

>  <original_smiles>  (91) 
[H]N=C(C([H])([H])C(=O)N1C([H])([H])C([H])([H])C([H])([H])C([H])(n2nc(-c3c([H])c([H])c(Oc4c([H])c([H])c(F)c([H])c4F)c([H])c3[H])c(C(=O)N([H])[H])c2N([H])[H])C1([H])[H])C([H])([H])C(=NC([H])([H])C([H])([H])C([H])([H])Oc1c([H])c([H])c2c(c1[H])C([H])([H])N(C(=O)C([H])(N([H])C(=O)C([H])(N([H])C([H])([H])[H])C([H])([H])[H])C(C([H])([H])[H])(C([H])([H])[H])C([H])([H])[H])C([H])(C(=O)N([H])C1([H])c3c([H])c([H])c([H])c([H])c3C([H])([H])C([H])([H])C1([H])[H])C2([H])[H])C([H])([H])[H]

>  <smiles>  (91) 
[H]N=C(C([H])([H])C(=O)N1C([H])([H])C([H])([H])C([H])([H])C([H])(n2nc(-c3c([H])c([H])c(Oc4c([H])c([H])c(F)c([H])c4F)c([H])c3[H])c(C(=O)N([H])[H])c2N([H])[H])C1([H])[H])C([H])([H])C(=NC([H])([H])C([H])([H])C([H])([H])Oc1c([H])c([H])c2c(c1[H])C([H])([H])N(C(=O)C([H])(N([H])C(=O)C([H])(N([H])C([H])([H])[H])C([H])([H])[H])C(C([H])([H])[H])(C([H])([H])[H])C([H])([H])[H])C([H])(C(=O)N([H])C1([H])c3c([H])c([H])c([H])c([H])c3C([H])([H])C([H])([H])C1([H])[H])C2([H])[H])C([H])([H])[H]

$$$$
93:0:0
     RDKit          3D

 96106  0  0  1  0  0  0  0  0999 V2000
  -31.8700  -14.5670   20.4900 C   0  0  0  0  0  0  0  0  0  0  0  0
  -31.4840  -12.0840   20.4970 C   0  0  0  0  0  2  0  0  0  0  0  0
  -30.7610  -11.5970   19.2270 C   0  0  0  0  0  2  0  0  0  0  0  0
  -29.2380  -11.6650   19.4270 C   0  0  0  0  0  2  0  0  0  0  0  0
  -28.7770  -13.0120   20.0490 C   0  0  0  0  0  3  0  0  0  0  0  0
  -29.6560  -13.4490   21.2420 C   0  0  0  0  0  2  0  0  0  0  0  0
  -31.0360  -13.4850   20.7490 N   0  0  0  0  0  0  0  0  0  0  0  0
  -33.0790  -14.3300   20.5720 O   0  0  0  0  0  0  0  0  0  0  0  0
  -28.7570  -20.6900   20.9140 C   0  0  0  0  0  2  0  0  0  0  0  0
  -28.0140  -19.3690   21.1880 C   0  0  0  0  0  2  0  0  0  0  0  0
  -28.5990  -21.1620   19.4610 C   0  0  0  0  0  2  0  0  0  0  0  0
  -27.6590  -18.5830   19.9120 C   0  0  0  0  0  2  0  0  0  0  0  0
  -32.4080  -18.2020   18.9780 C   0  0  0  0  0  2  0  0  0  0  0  0
  -32.5790  -16.6340   19.2210 C   0  0  0  0  0  2  0  0  0  0  0  0
  -30.1540  -16.3750   19.4750 C   0  0  0  0  0  2  0  0  0  0  0  0
  -29.1130  -20.1250   18.4270 C   0  0  0  0  0  3  0  0  0  0  0  0
  -31.0910  -18.6520   18.2910 C   0  0  0  0  0  3  0  0  0  0  0  0
  -30.0690  -17.9730   19.2440 C   0  0  0  0  0  3  0  0  0  0  0  0
  -30.6540  -20.2310   18.1750 C   0  0  0  0  0  3  0  0  0  0  0  0
  -28.7370  -18.6340   18.7990 C   0  0  1  0  0  0  0  0  0  0  0  0
  -28.1700  -17.9310   17.5420 C   0  0  0  0  0  1  0  0  0  0  0  0
  -31.4900  -15.8010   19.8720 N   0  0  0  0  0  0  0  0  0  0  0  0
  -26.4670  -14.0580   20.3690 C   0  0  0  0  0  0  0  0  0  0  0  0
  -25.2420  -13.5210   20.6510 C   0  0  0  0  0  0  0  0  0  0  0  0
  -25.4570  -12.1190   20.8190 C   0  0  0  0  0  0  0  0  0  0  0  0
  -27.3590  -13.0000   20.3780 N   0  0  0  0  0  0  0  0  0  0  0  0
  -26.7500  -11.8340   20.7140 N   0  0  0  0  0  0  0  0  0  0  0  0
  -24.4950  -11.0260   21.0100 C   0  0  0  0  0  0  0  0  0  0  0  0
  -24.7210  -10.0030   21.9560 C   0  0  0  0  0  3  0  0  0  0  0  0
  -23.7700   -8.9750   22.1370 C   0  0  0  0  0  3  0  0  0  0  0  0
  -22.5800   -8.9660   21.3710 C   0  0  0  0  0  0  0  0  0  0  0  0
  -22.3720   -9.9750   20.4130 C   0  0  0  0  0  3  0  0  0  0  0  0
  -23.3230  -10.9940   20.2320 C   0  0  0  0  0  3  0  0  0  0  0  0
  -21.6130   -7.9950   21.4620 O   0  0  0  0  0  0  0  0  0  0  0  0
  -21.5680   -7.1190   22.5180 C   0  0  0  0  0  0  0  0  0  0  0  0
  -21.3140   -7.5540   23.8370 C   0  0  0  0  0  3  0  0  0  0  0  0
  -21.2090   -6.6130   24.8800 C   0  0  0  0  0  3  0  0  0  0  0  0
  -21.3470   -5.2400   24.6070 C   0  0  0  0  0  0  0  0  0  0  0  0
  -21.5940   -4.8040   23.2930 C   0  0  0  0  0  3  0  0  0  0  0  0
  -21.7010   -5.7420   22.2510 C   0  0  0  0  0  0  0  0  0  0  0  0
  -21.9190   -5.3160   20.9840 F   0  0  0  0  0  0  0  0  0  0  0  0
  -21.2370   -4.3340   25.6080 F   0  0  0  0  0  0  0  0  0  0  0  0
  -23.9330  -14.2550   20.6620 C   0  0  0  0  0  0  0  0  0  0  0  0
  -22.9920  -13.8130   21.4880 N   0  0  0  0  0  0  0  0  0  0  0  0
  -23.7570  -15.2570   19.9720 O   0  0  0  0  0  0  0  0  0  0  0  0
  -23.1490  -13.0030   22.0690 H   0  0  0  0  0  0  0  0  0  0  0  0
  -22.1050  -14.2910   21.5420 H   0  0  0  0  0  0  0  0  0  0  0  0
  -26.8920  -15.3450   20.0730 N   0  0  0  0  0  0  0  0  0  0  0  0
  -26.2440  -16.1190   19.9890 H   0  0  0  0  0  0  0  0  0  0  0  0
  -27.8380  -15.5860   19.8150 H   0  0  0  0  0  0  0  0  0  0  0  0
  -30.9750  -21.1090   16.9220 N   0  0  0  0  0  4  0  0  0  0  0  0
  -30.1330  -21.1480   16.3680 H   0  0  0  0  0  0  0  0  0  0  0  0
  -31.6410  -20.5870   16.3740 H   0  0  0  0  0  0  0  0  0  0  0  0
  -31.5370  -22.5690   17.0430 C   0  0  0  0  0  2  0  0  0  0  0  0
  -31.6530  -23.5510   15.7230 C   0  0  0  0  0  2  0  0  0  0  0  0
  -32.7160  -24.6300   15.4960 O   0  0  0  0  0  0  0  0  0  0  0  0
  -36.2640  -28.8410   20.2750 C   0  0  0  0  0  0  0  0  0  0  0  0
  -32.8030  -25.8890   16.1620 C   0  0  0  0  0  0  0  0  0  0  0  0
  -33.9310  -29.4560   19.7600 C   0  0  0  0  0  3  0  0  0  0  0  0
  -32.8980  -28.3370   17.6970 C   0  0  0  0  0  0  0  0  0  0  0  0
  -35.3720  -28.2650   17.9960 C   0  0  0  0  0  2  0  0  0  0  0  0
  -34.0900  -27.6580   17.4150 C   0  0  0  0  0  0  0  0  0  0  0  0
  -34.0440  -26.4500   16.6400 C   0  0  0  0  0  3  0  0  0  0  0  0
  -31.6450  -26.6510   16.4420 C   0  0  0  0  0  3  0  0  0  0  0  0
  -31.6860  -27.8420   17.1960 C   0  0  0  0  0  3  0  0  0  0  0  0
  -32.9730  -29.5930   18.5480 C   0  0  0  0  0  2  0  0  0  0  0  0
  -35.2370  -28.8290   19.3730 N   0  0  0  0  0  0  0  0  0  0  0  0
  -36.1430  -29.3790   21.3870 O   0  0  0  0  0  0  0  0  0  0  0  0
  -33.2050  -28.7050   20.9020 C   0  0  0  0  0  0  0  0  0  0  0  0
  -32.0090  -29.1860   21.2840 N   0  0  0  0  0  0  0  0  0  0  0  0
  -33.7070  -27.6990   21.4090 O   0  0  0  0  0  0  0  0  0  0  0  0
  -31.6690  -30.0230   20.8310 H   0  0  0  0  0  0  0  0  0  0  0  0
  -28.6720  -29.2970   22.6860 C   0  0  0  0  0  0  0  0  0  0  0  0
  -31.1350  -28.6050   22.3060 C   0  0  0  0  0  3  0  0  0  0  0  0
  -30.5710  -27.2400   21.8460 C   0  0  0  0  0  2  0  0  0  0  0  0
  -29.2060  -27.3510   21.1600 C   0  0  0  0  0  2  0  0  0  0  0  0
  -28.1790  -27.9840   22.1030 C   0  0  0  0  0  2  0  0  0  0  0  0
  -30.0590  -29.5960   22.7670 C   0  0  0  0  0  0  0  0  0  0  0  0
  -30.4610  -30.8450   23.2880 C   0  0  0  0  0  3  0  0  0  0  0  0
  -29.5070  -31.7850   23.7220 C   0  0  0  0  0  3  0  0  0  0  0  0
  -28.1370  -31.4780   23.6550 C   0  0  0  0  0  3  0  0  0  0  0  0
  -27.7220  -30.2360   23.1420 C   0  0  0  0  0  3  0  0  0  0  0  0
  -37.6470  -28.1990   19.9470 C   0  0  0  0  0  3  0  0  0  0  0  0
  -38.6860  -29.0440   20.5520 N   0  0  0  0  0  0  0  0  0  0  0  0
  -39.4730  -29.8920   19.8760 C   0  0  0  0  0  0  0  0  0  0  0  0
  -39.4400  -29.9960   18.6470 O   0  0  0  0  0  0  0  0  0  0  0  0
  -38.7310  -29.0520   21.5610 H   0  0  0  0  0  0  0  0  0  0  0  0
  -39.8810  -32.1820   20.8350 C   0  0  0  0  0  1  0  0  0  0  0  0
  -40.4500  -30.7620   20.6890 C   0  0  0  0  0  3  0  0  0  0  0  0
  -42.5360  -29.5660   20.1880 C   0  0  0  0  0  1  0  0  0  0  0  0
  -41.8080  -30.8290   20.1040 N   0  0  0  0  0  0  0  0  0  0  0  0
  -42.3630  -31.5460   20.5620 H   0  0  0  0  0  0  0  0  0  0  0  0
  -37.7790  -26.7120   20.4580 C   0  0  1  0  0  0  0  0  0  0  0  0
  -37.4660  -26.5410   21.9640 C   0  0  0  0  0  1  0  0  0  0  0  0
  -36.8340  -25.7740   19.6720 C   0  0  0  0  0  1  0  0  0  0  0  0
  -39.2170  -26.1980   20.2070 C   0  0  0  0  0  1  0  0  0  0  0  0
  1  8  2  0
  1  7  1  0
  2  7  1  0
  3  4  1  0
  3  2  1  0
  5  4  1  0
  5 26  1  0
  5  6  1  0
  7  6  1  0
  9 10  1  0
 11  9  1  0
 12 10  1  0
 13 14  1  0
 14 22  1  0
 15 22  1  0
 16 20  1  0
 16 11  1  0
 17 13  1  0
 17 18  1  0
 18 15  1  0
 19 51  1  0
 19 17  1  0
 19 16  1  0
 20 21  1  6
 20 18  1  0
 20 12  1  0
 22  1  1  0
 23 26  1  0
 23 24  2  0
 24 43  1  0
 24 25  1  0
 25 28  1  0
 26 27  1  0
 27 25  2  0
 28 29  1  0
 29 30  2  0
 31 34  1  0
 31 30  1  0
 32 31  2  0
 33 32  1  0
 33 28  2  0
 34 35  1  0
 35 36  1  0
 36 37  2  0
 38 37  1  0
 38 42  1  0
 39 38  2  0
 40 35  2  0
 40 39  1  0
 41 40  1  0
 43 44  1  0
 44 47  1  0
 44 46  1  0
 45 43  2  0
 48 23  1  0
 49 48  1  0
 50 48  1  0
 51 54  1  0
 52 51  1  0
 53 51  1  0
 55 54  1  0
 56 55  1  0
 56 58  1  0
 57 68  2  0
 58 64  2  0
 58 63  1  0
 59 69  1  0
 60 66  1  0
 61 67  1  0
 62 60  1  0
 62 61  1  0
 63 62  2  0
 64 65  1  0
 65 60  2  0
 66 59  1  0
 67 59  1  0
 67 57  1  0
 69 70  1  0
 69 71  2  0
 72 70  1  0
 73 78  2  0
 73 82  1  0
 74 70  1  0
 74 78  1  0
 75 74  1  0
 76 75  1  0
 76 77  1  0
 77 73  1  0
 78 79  1  0
 79 80  2  0
 81 80  1  0
 82 81  2  0
 83 57  1  0
 83 93  1  0
 83 84  1  0
 84 87  1  0
 85 84  1  0
 85 89  1  0
 86 85  2  0
 89 88  1  0
 91 90  1  0
 91 92  1  0
 91 89  1  0
 93 94  1  1
 95 93  1  0
 96 93  1  0
M  ISO  4   1 100  22 100  55 101  56 101
M  END
>  <TORSDO>  (92) 
F 18

>  <SCORE>  (92) 
-8.059

>  <name>  (92) 
93

>  <ligand_id>  (92) 
93

>  <original_smiles>  (92) 
[H]c1c([H])c([H])c2c(c1[H])C([H])([H])C([H])([H])C([H])([H])C2([H])N([H])C(=O)C1([H])N(C(=O)C([H])(N([H])C(=O)C([H])(N([H])C([H])([H])[H])C([H])([H])[H])C(C([H])([H])[H])(C([H])([H])[H])C([H])([H])[H])C([H])([H])c2c([H])c(OC([H])([H])C([H])([H])[N+]([H])([H])C3([H])C4([H])C([H])([H])C([H])([H])N(C(=O)N5C([H])([H])C([H])([H])C([H])([H])C([H])(n6nc(-c7c([H])c([H])c(Oc8c([H])c([H])c(F)c([H])c8F)c([H])c7[H])c(C(=O)N([H])[H])c6N([H])[H])C5([H])[H])C([H])([H])C4([H])C4(C([H])([H])[H])C([H])([H])C([H])([H])C([H])([H])C([H])([H])C43[H])c([H])c([H])c2C1([H])[H]

>  <smiles>  (92) 
[H]c1c([H])c([H])c2c(c1[H])C([H])([H])C([H])([H])C([H])([H])C2([H])N([H])C(=O)C1([H])N(C(=O)C([H])(N([H])C(=O)C([H])(N([H])C([H])([H])[H])C([H])([H])[H])C(C([H])([H])[H])(C([H])([H])[H])C([H])([H])[H])C([H])([H])c2c([H])c(OC([H])([H])C([H])([H])[N+]([H])([H])C3([H])C4([H])C([H])([H])C([H])([H])N(C(=O)N5C([H])([H])C([H])([H])C([H])([H])C([H])(n6nc(-c7c([H])c([H])c(Oc8c([H])c([H])c(F)c([H])c8F)c([H])c7[H])c(C(=O)N([H])[H])c6N([H])[H])C5([H])[H])C([H])([H])C4([H])C4(C([H])([H])[H])C([H])([H])C([H])([H])C([H])([H])C([H])([H])C43[H])c([H])c([H])c2C1([H])[H]

$$$$
