0:0:0
     RDKit          3D

 87 91  0  0  1  0  0  0  0  0999 V2000
  -30.0030  -20.6110   21.5240 C   0  0  0  0  0  1  0  0  0  0  0  0
  -29.1850  -20.4310   20.2320 C   0  0  0  0  0  2  0  0  0  0  0  0
  -29.9000  -16.7000   20.1320 C   0  0  0  0  0  0  0  0  0  0  0  0
  -30.2610  -13.9390   19.3300 C   0  0  0  0  0  2  0  0  0  0  0  0
  -29.4830  -13.1090   18.2280 C   0  0  0  0  0  2  0  0  0  0  0  0
  -28.1690  -12.5270   18.7520 C   0  0  0  0  0  2  0  0  0  0  0  0
  -27.5330  -13.5490   19.7060 C   0  0  0  0  0  3  0  0  0  0  0  0
  -28.5060  -14.2420   20.7330 C   0  0  0  0  0  2  0  0  0  0  0  0
  -29.4820  -15.1710   20.0070 N   0  0  0  0  0  0  0  0  0  0  0  0
  -31.1490  -16.4790   20.0360 O   0  0  0  0  0  0  0  0  0  0  0  0
  -29.1690  -18.3240   20.1960 N   0  0  0  0  0  2  0  0  0  0  0  0
  -28.1820  -18.1030   20.1860 H   0  0  0  0  0  0  0  0  0  0  0  0
  -25.1930  -13.9400   20.5490 C   0  0  0  0  0  0  0  0  0  0  0  0
  -24.1640  -13.1270   20.9160 C   0  0  0  0  0  0  0  0  0  0  0  0
  -24.6630  -11.7900   20.8430 C   0  0  0  0  0  0  0  0  0  0  0  0
  -26.2590  -13.1110   20.2720 N   0  0  0  0  0  0  0  0  0  0  0  0
  -25.9560  -11.8010   20.5010 N   0  0  0  0  0  0  0  0  0  0  0  0
  -23.9540  -10.5100   21.0230 C   0  0  0  0  0  0  0  0  0  0  0  0
  -24.3890   -9.5440   21.9550 C   0  0  0  0  0  3  0  0  0  0  0  0
  -23.6720   -8.3400   22.1320 C   0  0  0  0  0  3  0  0  0  0  0  0
  -22.5000   -8.0910   21.3770 C   0  0  0  0  0  0  0  0  0  0  0  0
  -22.0810   -9.0480   20.4360 C   0  0  0  0  0  3  0  0  0  0  0  0
  -22.8000  -10.2430   20.2570 C   0  0  0  0  0  3  0  0  0  0  0  0
  -21.7550   -6.9390   21.4610 O   0  0  0  0  0  0  0  0  0  0  0  0
  -21.6890   -6.2060   22.6200 C   0  0  0  0  0  0  0  0  0  0  0  0
  -21.1960   -6.7590   23.8230 C   0  0  0  0  0  3  0  0  0  0  0  0
  -21.0790   -5.9520   24.9730 C   0  0  0  0  0  3  0  0  0  0  0  0
  -21.4440   -4.5940   24.9200 C   0  0  0  0  0  0  0  0  0  0  0  0
  -21.9280   -4.0400   23.7220 C   0  0  0  0  0  3  0  0  0  0  0  0
  -22.0460   -4.8440   22.5740 C   0  0  0  0  0  0  0  0  0  0  0  0
  -22.4940   -4.2990   21.4170 F   0  0  0  0  0  0  0  0  0  0  0  0
  -21.3250   -3.8160   26.0210 F   0  0  0  0  0  0  0  0  0  0  0  0
  -22.7630  -13.5740   21.2130 C   0  0  0  0  0  0  0  0  0  0  0  0
  -22.0640  -12.8590   22.0860 N   0  0  0  0  0  0  0  0  0  0  0  0
  -22.3020  -14.5980   20.7110 O   0  0  0  0  0  0  0  0  0  0  0  0
  -22.4520  -12.0300   22.5130 H   0  0  0  0  0  0  0  0  0  0  0  0
  -21.1270  -13.1440   22.3330 H   0  0  0  0  0  0  0  0  0  0  0  0
  -25.3120  -15.3190   20.3860 N   0  0  0  0  0  0  0  0  0  0  0  0
  -24.5340  -15.9530   20.5260 H   0  0  0  0  0  0  0  0  0  0  0  0
  -26.1420  -15.7780   20.0360 H   0  0  0  0  0  0  0  0  0  0  0  0
  -30.0070  -20.6050   18.9480 C   0  0  0  0  0  0  0  0  0  0  0  0
  -29.4850  -20.2890   17.8380 N   0  0  0  0  0  0  0  0  0  0  0  0
  -30.1420  -20.4380   17.0820 H   0  0  0  0  0  0  0  0  0  0  0  0
  -31.9720  -21.8070   18.0080 C   0  0  0  0  0  2  0  0  0  0  0  0
  -31.4030  -21.0870   18.9930 C   0  0  0  0  0  3  0  0  0  0  0  0
  -28.1500  -22.5560   20.2580 C   0  0  0  0  0 15  0  0  0  0  0  0
  -28.1080  -24.6650   20.3560 O   0  0  0  0  0  1  0  0  0  0  0  0
  -24.6910  -31.8250   23.1770 C   0  0  0  0  0  0  0  0  0  0  0  0
  -27.1990  -26.1620   20.3200 C   0  0  0  0  0  0  0  0  0  0  0  0
  -23.5370  -30.3950   21.5530 C   0  0  0  0  0  3  0  0  0  0  0  0
  -24.9930  -28.5990   20.2140 C   0  0  0  0  0  0  0  0  0  0  0  0
  -26.1380  -30.3480   21.5250 C   0  0  0  0  0  2  0  0  0  0  0  0
  -26.1960  -28.8390   20.8860 C   0  0  0  0  0  0  0  0  0  0  0  0
  -27.2470  -27.6730   20.8870 C   0  0  0  0  0  3  0  0  0  0  0  0
  -25.9550  -26.2990   19.5850 C   0  0  0  0  0  3  0  0  0  0  0  0
  -24.9500  -27.3600   19.5370 C   0  0  0  0  0  3  0  0  0  0  0  0
  -23.8170  -29.6300   20.2160 C   0  0  0  0  0  2  0  0  0  0  0  0
  -24.8220  -30.9060   22.1360 N   0  0  0  0  0  0  0  0  0  0  0  0
  -23.5830  -32.1600   23.6390 O   0  0  0  0  0  0  0  0  0  0  0  0
  -22.7490  -29.4910   22.5450 C   0  0  0  0  0  0  0  0  0  0  0  0
  -21.4100  -29.3790   22.4150 N   0  0  0  0  0  0  0  0  0  0  0  0
  -23.3680  -28.8780   23.4170 O   0  0  0  0  0  0  0  0  0  0  0  0
  -20.9530  -29.9200   21.6940 H   0  0  0  0  0  0  0  0  0  0  0  0
  -17.9920  -28.2140   22.9480 C   0  0  0  0  0  0  0  0  0  0  0  0
  -20.5590  -28.4640   23.1950 C   0  0  0  0  0  3  0  0  0  0  0  0
  -20.6390  -27.0250   22.6320 C   0  0  0  0  0  2  0  0  0  0  0  0
  -19.5330  -26.7130   21.6180 C   0  0  0  0  0  2  0  0  0  0  0  0
  -18.1550  -26.8670   22.2650 C   0  0  0  0  0  2  0  0  0  0  0  0
  -19.1190  -28.9720   23.3690 C   0  0  0  0  0  0  0  0  0  0  0  0
  -18.9050  -30.2270   23.9790 C   0  0  0  0  0  3  0  0  0  0  0  0
  -17.6030  -30.7260   24.1650 C   0  0  0  0  0  3  0  0  0  0  0  0
  -16.4920  -29.9680   23.7540 C   0  0  0  0  0  3  0  0  0  0  0  0
  -16.6890  -28.7130   23.1520 C   0  0  0  0  0  3  0  0  0  0  0  0
  -25.9220  -32.5150   23.8490 C   0  0  0  0  0  3  0  0  0  0  0  0
  -26.3720  -31.7950   25.1820 C   0  0  1  0  0  0  0  0  0  0  0  0
  -25.2310  -31.6060   26.2110 C   0  0  0  0  0  1  0  0  0  0  0  0
  -26.9670  -30.4020   24.8930 C   0  0  0  0  0  1  0  0  0  0  0  0
  -27.4980  -32.6100   25.8630 C   0  0  0  0  0  1  0  0  0  0  0  0
  -25.5810  -33.9260   24.1580 N   0  0  0  0  0  0  0  0  0  0  0  0
  -25.9140  -34.9940   23.4180 C   0  0  0  0  0  0  0  0  0  0  0  0
  -26.5810  -34.8950   22.3860 O   0  0  0  0  0  0  0  0  0  0  0  0
  -24.9850  -34.0740   24.9580 H   0  0  0  0  0  0  0  0  0  0  0  0
  -24.1760  -36.8000   23.1160 C   0  0  0  0  0  1  0  0  0  0  0  0
  -25.4400  -36.3900   23.8880 C   0  0  0  0  0  3  0  0  0  0  0  0
  -27.5890  -37.3000   24.6630 C   0  0  0  0  0  1  0  0  0  0  0  0
  -26.4670  -37.4480   23.7390 N   0  0  0  0  0  0  0  0  0  0  0  0
  -26.0600  -38.3680   23.8810 H   0  0  0  0  0  0  0  0  0  0  0  0
  2  1  1  0
  3 11  1  0
  4  9  1  0
  5  6  1  0
  5  4  1  0
  7  6  1  0
  7 16  1  0
  7  8  1  0
  9  3  1  0
  9  8  1  0
 10  3  2  0
 12 11  1  0
 13 14  2  0
 14 33  1  0
 15 14  1  0
 15 18  1  0
 16 17  1  0
 16 13  1  0
 17 15  2  0
 18 19  1  0
 19 20  2  0
 21 24  1  0
 21 20  1  0
 22 21  2  0
 23 22  1  0
 23 18  2  0
 24 25  1  0
 25 26  1  0
 26 27  2  0
 28 27  1  0
 28 32  1  0
 29 28  2  0
 30 25  2  0
 30 29  1  0
 31 30  1  0
 33 34  1  0
 34 37  1  0
 34 36  1  0
 35 33  2  0
 38 39  1  0
 38 13  1  0
 40 38  1  0
 41 45  1  0
 41  2  1  0
 42 41  2  0
 43 42  1  0
 44 45  2  0
 48 59  2  0
 49 47  1  0
 49 54  1  0
 50 58  1  0
 50 60  1  0
 51 57  1  0
 51 53  1  0
 52 58  1  0
 53 54  2  0
 53 52  1  0
 55 49  2  0
 56 55  1  0
 56 51  2  0
 57 50  1  0
 58 48  1  0
 60 62  2  0
 61 60  1  0
 63 61  1  0
 64 73  2  0
 64 69  1  0
 65 61  1  0
 65 69  1  0
 66 65  1  0
 67 68  1  0
 67 66  1  0
 68 64  1  0
 69 70  2  0
 70 71  1  0
 72 71  2  0
 73 72  1  0
 74 48  1  0
 74 79  1  0
 74 75  1  0
 75 78  1  1
 75 76  1  0
 77 75  1  0
 79 82  1  0
 80 84  1  0
 80 79  1  0
 81 80  2  0
 84 83  1  0
 86 87  1  0
 86 84  1  0
 86 85  1  0
M  ISO  4   3 100  11 100  46 101  47 101
M  END
>  <TORSDO>  (1) 
F 19

>  <SCORE>  (1) 
-15.457

>  <name>  (1) 
0

>  <ligand_id>  (1) 
0

>  <original_smiles>  (1) 
[H]N=C(C([H])=C([H])[H])C(N([H])C(=O)N1C([H])([H])C([H])([H])C([H])([H])C([H])(n2nc(-c3c([H])c([H])c(Oc4c([H])c([H])c(F)c([H])c4F)c([H])c3[H])c(C(=O)N([H])[H])c2N([H])[H])C1([H])[H])(C([H])([H])[H])C([H])([H])Oc1c([H])c([H])c2c(c1[H])C([H])([H])N(C(=O)C([H])(N([H])C(=O)C([H])(N([H])C([H])([H])[H])C([H])([H])[H])C(C([H])([H])[H])(C([H])([H])[H])C([H])([H])[H])C([H])(C(=O)N([H])C1([H])c3c([H])c([H])c([H])c([H])c3C([H])([H])C([H])([H])C1([H])[H])C2([H])[H]

>  <smiles>  (1) 
[H]N=C(C([H])=C([H])[H])C(N([H])C(=O)N1C([H])([H])C([H])([H])C([H])([H])C([H])(n2nc(-c3c([H])c([H])c(Oc4c([H])c([H])c(F)c([H])c4F)c([H])c3[H])c(C(=O)N([H])[H])c2N([H])[H])C1([H])[H])(C([H])([H])[H])C([H])([H])Oc1c([H])c([H])c2c(c1[H])C([H])([H])N(C(=O)C([H])(N([H])C(=O)C([H])(N([H])C([H])([H])[H])C([H])([H])[H])C(C([H])([H])[H])(C([H])([H])[H])C([H])([H])[H])C([H])(C(=O)N([H])C1([H])c3c([H])c([H])c([H])c([H])c3C([H])([H])C([H])([H])C1([H])[H])C2([H])[H]

$$$$
1:0:0
     RDKit          3D

 98105  0  0  1  0  0  0  0  0999 V2000
  -30.3620  -21.2130   19.3890 C   0  0  0  0  0  0  0  0  0  0  0  0
  -29.9310  -22.4830   19.5320 N   0  0  0  0  0  0  0  0  0  0  0  0
  -30.9730  -20.8220   18.3920 O   0  0  0  0  0  0  0  0  0  0  0  0
  -29.4290  -22.6830   20.3890 H   0  0  0  0  0  0  0  0  0  0  0  0
  -29.5140  -23.5750   17.3330 C   0  0  0  0  0  1  0  0  0  0  0  0
  -30.2540  -23.6360   18.6800 C   0  0  0  0  0  3  0  0  0  0  0  0
  -30.0430  -24.9960   19.4180 C   0  0  0  0  0  2  0  0  0  0  0  0
  -28.6030  -25.5620   19.4950 C   0  0  0  0  0  2  0  0  0  0  0  0
  -28.6020  -26.8840   20.0690 O   0  0  0  0  0  0  0  0  0  0  0  0
  -24.8680  -31.9650   23.4270 C   0  0  0  0  0  0  0  0  0  0  0  0
  -27.4110  -27.5890   20.1400 C   0  0  0  0  0  0  0  0  0  0  0  0
  -23.6160  -30.6330   21.7590 C   0  0  0  0  0  3  0  0  0  0  0  0
  -25.0270  -29.1250   20.2700 C   0  0  0  0  0  0  0  0  0  0  0  0
  -26.1450  -30.9690   21.5240 C   0  0  0  0  0  2  0  0  0  0  0  0
  -26.2050  -29.6130   20.8440 C   0  0  0  0  0  0  0  0  0  0  0  0
  -27.3980  -28.8560   20.7700 C   0  0  0  0  0  3  0  0  0  0  0  0
  -26.1980  -27.1040   19.5920 C   0  0  0  0  0  3  0  0  0  0  0  0
  -25.0190  -27.8670   19.6430 C   0  0  0  0  0  3  0  0  0  0  0  0
  -23.8000  -30.0010   20.3540 C   0  0  0  0  0  2  0  0  0  0  0  0
  -24.8960  -31.2050   22.2930 N   0  0  0  0  0  0  0  0  0  0  0  0
  -23.8020  -32.2170   24.0040 O   0  0  0  0  0  0  0  0  0  0  0  0
  -22.9720  -29.5860   22.6940 C   0  0  0  0  0  0  0  0  0  0  0  0
  -21.6630  -29.3450   22.5140 N   0  0  0  0  0  0  0  0  0  0  0  0
  -23.6510  -28.9870   23.5340 O   0  0  0  0  0  0  0  0  0  0  0  0
  -21.1780  -29.8730   21.8020 H   0  0  0  0  0  0  0  0  0  0  0  0
  -18.3470  -27.9340   22.8010 C   0  0  0  0  0  0  0  0  0  0  0  0
  -20.8550  -28.3740   23.2530 C   0  0  0  0  0  3  0  0  0  0  0  0
  -21.0950  -26.9390   22.7330 C   0  0  0  0  0  2  0  0  0  0  0  0
  -20.0980  -26.5110   21.6520 C   0  0  0  0  0  2  0  0  0  0  0  0
  -18.6620  -26.5800   22.1840 C   0  0  0  0  0  2  0  0  0  0  0  0
  -19.3770  -28.7810   23.2880 C   0  0  0  0  0  0  0  0  0  0  0  0
  -19.0320  -30.0440   23.8210 C   0  0  0  0  0  3  0  0  0  0  0  0
  -17.6880  -30.4600   23.8720 C   0  0  0  0  0  3  0  0  0  0  0  0
  -16.6720  -29.6120   23.4020 C   0  0  0  0  0  3  0  0  0  0  0  0
  -17.0000  -28.3510   22.8740 C   0  0  0  0  0  3  0  0  0  0  0  0
  -26.1720  -32.5630   24.0390 C   0  0  0  0  0  3  0  0  0  0  0  0
  -26.6910  -31.7590   25.2960 C   0  0  1  0  0  0  0  0  0  0  0  0
  -25.5930  -31.4600   26.3400 C   0  0  0  0  0  1  0  0  0  0  0  0
  -27.3060  -30.4110   24.8530 C   0  0  0  0  0  1  0  0  0  0  0  0
  -27.8120  -32.5560   26.0020 C   0  0  0  0  0  1  0  0  0  0  0  0
  -25.8960  -33.9600   24.3950 N   0  0  0  0  0  0  0  0  0  0  0  0
  -26.2330  -35.0170   23.6440 C   0  0  0  0  0  0  0  0  0  0  0  0
  -26.8790  -34.9190   22.5980 O   0  0  0  0  0  0  0  0  0  0  0  0
  -25.3290  -34.1110   25.2160 H   0  0  0  0  0  0  0  0  0  0  0  0
  -24.5270  -36.8410   23.3440 C   0  0  0  0  0  1  0  0  0  0  0  0
  -25.7740  -36.4050   24.1300 C   0  0  0  0  0  3  0  0  0  0  0  0
  -27.9330  -37.2480   24.9400 C   0  0  0  0  0  1  0  0  0  0  0  0
  -26.8180  -37.4470   24.0160 N   0  0  0  0  0  0  0  0  0  0  0  0
  -26.4260  -38.3670   24.1890 H   0  0  0  0  0  0  0  0  0  0  0  0
  -30.6450  -20.9680   21.8500 C   0  0  0  0  0  1  0  0  0  0  0  0
  -30.1010  -20.2630   20.5840 C   0  0  0  0  0  3  0  0  0  0  0  0
  -30.2390  -17.7750   20.1540 C   0  0  0  0  0  0  0  0  0  0  0  0
  -30.7870  -18.9570   20.4980 N   0  0  0  0  0  0  0  0  0  0  0  0
  -29.1610  -17.7020   19.5650 O   0  0  0  0  0  0  0  0  0  0  0  0
  -31.7190  -18.9340   20.8840 H   0  0  0  0  0  0  0  0  0  0  0  0
  -30.9770  -16.4770   20.6150 C   0  0  0  0  0  3  0  0  0  0  0  0
  -30.7320  -14.3180   19.3240 C   0  0  0  0  0  0  0  0  0  0  0  0
  -30.2100  -12.1650   18.2100 C   0  0  0  0  0  2  0  0  0  0  0  0
  -29.1300  -12.3580   17.1290 C   0  0  0  0  0  2  0  0  0  0  0  0
  -27.7200  -12.2530   17.7450 C   0  0  0  0  0  2  0  0  0  0  0  0
  -27.5600  -13.1350   19.0110 C   0  0  0  0  0  3  0  0  0  0  0  0
  -28.7370  -12.9120   19.9860 C   0  0  0  0  0  2  0  0  0  0  0  0
  -29.9880  -13.1770   19.2560 N   0  0  0  0  0  0  0  0  0  0  0  0
  -31.7500  -14.4940   18.6490 O   0  0  0  0  0  0  0  0  0  0  0  0
  -30.2700  -15.2670   20.1550 N   0  0  0  0  0  0  0  0  0  0  0  0
  -29.3870  -15.0840   20.6030 H   0  0  0  0  0  0  0  0  0  0  0  0
  -25.2850  -13.8280   19.9980 C   0  0  0  0  0  0  0  0  0  0  0  0
  -24.2510  -13.0930   20.5100 C   0  0  0  0  0  0  0  0  0  0  0  0
  -24.6670  -11.7270   20.4470 C   0  0  0  0  0  0  0  0  0  0  0  0
  -26.2690  -12.9110   19.6580 N   0  0  0  0  0  0  0  0  0  0  0  0
  -25.9060  -11.6440   19.9830 N   0  0  0  0  0  0  0  0  0  0  0  0
  -23.9340  -10.4900   20.7500 C   0  0  0  0  0  0  0  0  0  0  0  0
  -24.3680   -9.6040   21.7610 C   0  0  0  0  0  3  0  0  0  0  0  0
  -23.6370   -8.4310   22.0460 C   0  0  0  0  0  3  0  0  0  0  0  0
  -22.4580   -8.1340   21.3220 C   0  0  0  0  0  0  0  0  0  0  0  0
  -22.0440   -9.0080   20.3010 C   0  0  0  0  0  3  0  0  0  0  0  0
  -22.7750  -10.1730   20.0140 C   0  0  0  0  0  3  0  0  0  0  0  0
  -21.6990   -7.0060   21.5130 O   0  0  0  0  0  0  0  0  0  0  0  0
  -21.5580   -6.4330   22.7510 C   0  0  0  0  0  0  0  0  0  0  0  0
  -21.0200   -7.1460   23.8460 C   0  0  0  0  0  3  0  0  0  0  0  0
  -20.8290   -6.4980   25.0820 C   0  0  0  0  0  3  0  0  0  0  0  0
  -21.1650   -5.1380   25.2250 C   0  0  0  0  0  0  0  0  0  0  0  0
  -21.6970   -4.4260   24.1350 C   0  0  0  0  0  3  0  0  0  0  0  0
  -21.8890   -5.0720   22.9010 C   0  0  0  0  0  0  0  0  0  0  0  0
  -22.3820   -4.3750   21.8480 F   0  0  0  0  0  0  0  0  0  0  0  0
  -20.9740   -4.5130   26.4090 F   0  0  0  0  0  0  0  0  0  0  0  0
  -22.9110  -13.6140   20.9440 C   0  0  0  0  0  0  0  0  0  0  0  0
  -22.2940  -12.9740   21.9320 N   0  0  0  0  0  0  0  0  0  0  0  0
  -22.4270  -14.6280   20.4430 O   0  0  0  0  0  0  0  0  0  0  0  0
  -22.7000  -12.1530   22.3550 H   0  0  0  0  0  0  0  0  0  0  0  0
  -21.4030  -13.3110   22.2680 H   0  0  0  0  0  0  0  0  0  0  0  0
  -25.4650  -15.1880   19.7770 N   0  0  0  0  0  0  0  0  0  0  0  0
  -24.7460  -15.8700   19.9910 H   0  0  0  0  0  0  0  0  0  0  0  0
  -26.2950  -15.6050   19.3690 H   0  0  0  0  0  0  0  0  0  0  0  0
  -31.8920  -17.6000   22.7610 C   0  0  0  0  0  1  0  0  0  0  0  0
  -32.0310  -15.1370   22.5440 C   0  0  0  0  0  1  0  0  0  0  0  0
  -29.8190  -16.2270   22.9310 C   0  0  0  0  0  1  0  0  0  0  0  0
  -31.1640  -16.3670   22.1810 C   0  0  2  0  0  0  0  0  0  0  0  0
  1  2  1  0
  1 51  1  0
  2  4  1  0
  3  1  2  0
  6  5  1  0
  6  7  1  0
  6  2  1  0
  7  8  1  0
  8  9  1  0
  9 11  1  0
 10 21  2  0
 11 16  1  0
 12 20  1  0
 12 22  1  0
 13 19  1  0
 13 15  1  0
 14 20  1  0
 15 14  1  0
 16 15  2  0
 17 18  1  0
 17 11  2  0
 18 13  2  0
 19 12  1  0
 20 10  1  0
 22 24  2  0
 23 22  1  0
 25 23  1  0
 26 35  2  0
 26 31  1  0
 27 23  1  0
 27 31  1  0
 28 27  1  0
 29 30  1  0
 29 28  1  0
 30 26  1  0
 31 32  2  0
 32 33  1  0
 34 33  2  0
 35 34  1  0
 36 10  1  0
 36 41  1  0
 36 37  1  0
 37 40  1  1
 37 38  1  0
 39 37  1  0
 41 44  1  0
 42 46  1  0
 42 41  1  0
 43 42  2  0
 46 45  1  0
 48 46  1  0
 48 49  1  0
 48 47  1  0
 51 50  1  0
 52 53  1  0
 53 51  1  0
 53 55  1  0
 54 52  2  0
 56 52  1  0
 56 98  1  0
 57 65  1  0
 58 63  1  0
 59 60  1  0
 59 58  1  0
 61 60  1  0
 61 70  1  0
 61 62  1  0
 63 57  1  0
 63 62  1  0
 64 57  2  0
 65 66  1  0
 65 56  1  0
 67 68  2  0
 68 87  1  0
 69 68  1  0
 69 72  1  0
 70 71  1  0
 70 67  1  0
 71 69  2  0
 72 73  1  0
 73 74  2  0
 75 78  1  0
 75 74  1  0
 76 75  2  0
 77 76  1  0
 77 72  2  0
 78 79  1  0
 79 84  2  0
 79 80  1  0
 80 81  2  0
 81 82  1  0
 82 86  1  0
 83 82  2  0
 84 83  1  0
 85 84  1  0
 87 88  1  0
 88 91  1  0
 88 90  1  0
 89 87  2  0
 92 93  1  0
 92 67  1  0
 94 92  1  0
 98 96  1  6
 98 95  1  0
 98 97  1  0
M  ISO  4   8 101   9 101  57 100  65 100
M  END
>  <TORSDO>  (2) 
F 23

>  <SCORE>  (2) 
-5.954

>  <name>  (2) 
1

>  <ligand_id>  (2) 
1

>  <original_smiles>  (2) 
[H]c1c([H])c([H])c2c(c1[H])C([H])([H])C([H])([H])C([H])([H])C2([H])N([H])C(=O)C1([H])N(C(=O)C([H])(N([H])C(=O)C([H])(N([H])C([H])([H])[H])C([H])([H])[H])C(C([H])([H])[H])(C([H])([H])[H])C([H])([H])[H])C([H])([H])c2c([H])c(OC([H])([H])C([H])([H])C([H])(N([H])C(=O)C([H])(N([H])C(=O)C([H])(N([H])C(=O)N3C([H])([H])C([H])([H])C([H])([H])C([H])(n4nc(-c5c([H])c([H])c(Oc6c([H])c([H])c(F)c([H])c6F)c([H])c5[H])c(C(=O)N([H])[H])c4N([H])[H])C3([H])[H])C(C([H])([H])[H])(C([H])([H])[H])C([H])([H])[H])C([H])([H])[H])C([H])([H])[H])c([H])c([H])c2C1([H])[H]

>  <smiles>  (2) 
[H]c1c([H])c([H])c2c(c1[H])C([H])([H])C([H])([H])C([H])([H])C2([H])N([H])C(=O)C1([H])N(C(=O)C([H])(N([H])C(=O)C([H])(N([H])C([H])([H])[H])C([H])([H])[H])C(C([H])([H])[H])(C([H])([H])[H])C([H])([H])[H])C([H])([H])c2c([H])c(OC([H])([H])C([H])([H])C([H])(N([H])C(=O)C([H])(N([H])C(=O)C([H])(N([H])C(=O)N3C([H])([H])C([H])([H])C([H])([H])C([H])(n4nc(-c5c([H])c([H])c(Oc6c([H])c([H])c(F)c([H])c6F)c([H])c5[H])c(C(=O)N([H])[H])c4N([H])[H])C3([H])[H])C(C([H])([H])[H])(C([H])([H])[H])C([H])([H])[H])C([H])([H])[H])C([H])([H])[H])c([H])c([H])c2C1([H])[H]

$$$$
2:0:0
     RDKit          3D

 87 95  0  0  1  0  0  0  0  0999 V2000
  -30.3960  -15.8180   20.1910 C   0  0  0  0  0  0  0  0  0  0  0  0
  -30.5560  -13.1700   19.6710 C   0  0  0  0  0  2  0  0  0  0  0  0
  -29.7810  -12.5390   18.4800 C   0  0  0  0  0  2  0  0  0  0  0  0
  -28.3420  -12.1890   18.8850 C   0  0  0  0  0  2  0  0  0  0  0  0
  -27.7320  -13.2950   19.7790 C   0  0  0  0  0  3  0  0  0  0  0  0
  -28.6760  -13.8260   20.8860 C   0  0  0  0  0  2  0  0  0  0  0  0
  -29.8450  -14.4400   20.1970 N   0  0  0  0  0  0  0  0  0  0  0  0
  -31.6350  -15.6390   20.2300 O   0  0  0  0  0  0  0  0  0  0  0  0
  -30.1330  -21.4440   19.6100 C   0  0  0  0  0  3  0  0  0  0  0  0
  -28.7980  -21.7670   19.4560 C   0  0  0  0  0  0  0  0  0  0  0  0
  -30.8750  -19.9780   19.7050 C   0  0  0  0  0  3  0  0  0  0  0  0
  -30.5380  -18.6050   20.6280 C   0  0  0  0  0  3  0  0  0  0  0  0
  -28.7730  -18.3810   19.3300 C   0  0  0  0  0  3  0  0  0  0  0  0
  -28.1550  -20.1340   19.6110 C   0  0  0  0  0  0  0  0  0  0  0  0
  -29.8250  -17.3250   20.1080 N   0  0  0  0  0  0  0  0  0  0  0  0
  -25.3520  -13.8520   20.4380 C   0  0  0  0  0  0  0  0  0  0  0  0
  -24.2700  -13.0890   20.7680 C   0  0  0  0  0  0  0  0  0  0  0  0
  -24.7280  -11.7350   20.7890 C   0  0  0  0  0  0  0  0  0  0  0  0
  -26.3980  -12.9690   20.2610 N   0  0  0  0  0  0  0  0  0  0  0  0
  -26.0360  -11.6870   20.5420 N   0  0  0  0  0  0  0  0  0  0  0  0
  -23.9760  -10.4860   20.9710 C   0  0  0  0  0  0  0  0  0  0  0  0
  -24.3680   -9.5190   21.9230 C   0  0  0  0  0  3  0  0  0  0  0  0
  -23.6140   -8.3380   22.0980 C   0  0  0  0  0  3  0  0  0  0  0  0
  -22.4520   -8.1150   21.3190 C   0  0  0  0  0  0  0  0  0  0  0  0
  -22.0780   -9.0700   20.3580 C   0  0  0  0  0  3  0  0  0  0  0  0
  -22.8320  -10.2420   20.1810 C   0  0  0  0  0  3  0  0  0  0  0  0
  -21.6730   -6.9850   21.4010 O   0  0  0  0  0  0  0  0  0  0  0  0
  -21.6020   -6.2380   22.5490 C   0  0  0  0  0  0  0  0  0  0  0  0
  -21.1770   -6.7980   23.7740 C   0  0  0  0  0  3  0  0  0  0  0  0
  -21.0510   -5.9800   24.9160 C   0  0  0  0  0  3  0  0  0  0  0  0
  -21.3420   -4.6050   24.8330 C   0  0  0  0  0  0  0  0  0  0  0  0
  -21.7620   -4.0460   23.6140 C   0  0  0  0  0  3  0  0  0  0  0  0
  -21.8880   -4.8610   22.4750 C   0  0  0  0  0  0  0  0  0  0  0  0
  -22.2730   -4.3130   21.2960 F   0  0  0  0  0  0  0  0  0  0  0  0
  -21.2150   -3.8190   25.9270 F   0  0  0  0  0  0  0  0  0  0  0  0
  -22.8660  -13.5870   20.9470 C   0  0  0  0  0  0  0  0  0  0  0  0
  -22.0890  -12.9380   21.8060 N   0  0  0  0  0  0  0  0  0  0  0  0
  -22.4670  -14.5920   20.3610 O   0  0  0  0  0  0  0  0  0  0  0  0
  -22.4240  -12.1300   22.3090 H   0  0  0  0  0  0  0  0  0  0  0  0
  -21.1450  -13.2580   21.9660 H   0  0  0  0  0  0  0  0  0  0  0  0
  -25.5300  -15.2180   20.2340 N   0  0  0  0  0  0  0  0  0  0  0  0
  -24.7650  -15.8800   20.3010 H   0  0  0  0  0  0  0  0  0  0  0  0
  -26.4000  -15.6450   19.9410 H   0  0  0  0  0  0  0  0  0  0  0  0
  -25.6440  -19.8360   19.5420 C   0  0  0  0  0  2  0  0  0  0  0  0
  -26.7910  -20.2140   18.9540 C   0  0  0  0  0  3  0  0  0  0  0  0
  -27.9400  -23.4780   19.2260 C   0  0  0  0  0  2  0  0  0  0  0  0
  -28.1820  -25.2730   19.2650 O   0  0  0  0  0  0  0  0  0  0  0  0
  -24.7180  -31.4170   22.8010 C   0  0  0  0  0  0  0  0  0  0  0  0
  -27.2140  -26.5280   19.3600 C   0  0  0  0  0  0  0  0  0  0  0  0
  -23.5040  -30.1190   21.1070 C   0  0  0  0  0  3  0  0  0  0  0  0
  -24.9300  -28.5890   19.5340 C   0  0  0  0  0  0  0  0  0  0  0  0
  -26.0820  -30.2830   20.9260 C   0  0  0  0  0  2  0  0  0  0  0  0
  -26.1450  -28.8950   20.1580 C   0  0  0  0  0  0  0  0  0  0  0  0
  -27.2680  -27.9000   20.0350 C   0  0  0  0  0  3  0  0  0  0  0  0
  -25.9560  -26.4610   18.7020 C   0  0  0  0  0  3  0  0  0  0  0  0
  -24.8790  -27.4020   18.7820 C   0  0  0  0  0  3  0  0  0  0  0  0
  -23.7140  -29.5240   19.6850 C   0  0  0  0  0  2  0  0  0  0  0  0
  -24.7940  -30.6400   21.6630 N   0  0  0  0  0  0  0  0  0  0  0  0
  -23.6350  -31.6630   23.3620 O   0  0  0  0  0  0  0  0  0  0  0  0
  -22.8270  -29.0660   22.0270 C   0  0  0  0  0  0  0  0  0  0  0  0
  -21.4890  -28.9260   21.9590 N   0  0  0  0  0  0  0  0  0  0  0  0
  -23.5190  -28.3740   22.7790 O   0  0  0  0  0  0  0  0  0  0  0  0
  -20.9750  -29.5330   21.3350 H   0  0  0  0  0  0  0  0  0  0  0  0
  -18.1220  -27.6990   22.5850 C   0  0  0  0  0  0  0  0  0  0  0  0
  -20.7000  -27.9270   22.6920 C   0  0  0  0  0  3  0  0  0  0  0  0
  -20.7400  -26.5540   21.9790 C   0  0  0  0  0  2  0  0  0  0  0  0
  -19.5690  -26.3400   21.0140 C   0  0  0  0  0  2  0  0  0  0  0  0
  -18.2360  -26.4260   21.7620 C   0  0  0  0  0  2  0  0  0  0  0  0
  -19.2770  -28.4120   23.0070 C   0  0  0  0  0  0  0  0  0  0  0  0
  -19.1110  -29.6020   23.7470 C   0  0  0  0  0  3  0  0  0  0  0  0
  -17.8260  -30.0830   24.0630 C   0  0  0  0  0  3  0  0  0  0  0  0
  -16.6880  -29.3680   23.6510 C   0  0  0  0  0  3  0  0  0  0  0  0
  -16.8370  -28.1770   22.9180 C   0  0  0  0  0  3  0  0  0  0  0  0
  -25.9840  -32.0490   23.4530 C   0  0  0  0  0  3  0  0  0  0  0  0
  -25.6190  -33.3800   23.9790 N   0  0  0  0  0  0  0  0  0  0  0  0
  -25.8880  -34.5510   23.3810 C   0  0  0  0  0  0  0  0  0  0  0  0
  -26.5210  -34.6260   22.3260 O   0  0  0  0  0  0  0  0  0  0  0  0
  -25.0440  -33.3900   24.8070 H   0  0  0  0  0  0  0  0  0  0  0  0
  -24.0890  -36.3190   23.3660 C   0  0  0  0  0  1  0  0  0  0  0  0
  -25.3770  -35.8420   24.0580 C   0  0  0  0  0  3  0  0  0  0  0  0
  -27.5120  -36.6910   24.9320 C   0  0  0  0  0  1  0  0  0  0  0  0
  -26.3680  -36.9420   24.0580 N   0  0  0  0  0  0  0  0  0  0  0  0
  -25.9370  -37.8160   24.3450 H   0  0  0  0  0  0  0  0  0  0  0  0
  -26.5850  -31.1660   24.6160 C   0  0  1  0  0  0  0  0  0  0  0  0
  -25.5540  -30.7770   25.7020 C   0  0  0  0  0  1  0  0  0  0  0  0
  -27.1920  -29.8550   24.0680 C   0  0  0  0  0  1  0  0  0  0  0  0
  -27.7430  -31.9270   25.3070 C   0  0  0  0  0  1  0  0  0  0  0  0
  1  7  1  0
  1  8  2  0
  2  7  1  0
  3  4  1  0
  3  2  1  0
  5  4  1  0
  5 19  1  0
  5  6  1  0
  7  6  1  0
  9 11  1  0
 10  9  2  0
 10 14  1  0
 11 12  2  0
 13 14  2  0
 13 15  1  0
 15  1  1  0
 15 12  1  0
 16 17  2  0
 17 18  1  0
 17 36  1  0
 18 21  1  0
 19 16  1  0
 19 20  1  0
 20 18  2  0
 21 22  1  0
 22 23  2  0
 24 27  1  0
 24 23  1  0
 25 24  2  0
 26 25  1  0
 26 21  2  0
 27 28  1  0
 28 29  1  0
 29 30  2  0
 31 30  1  0
 31 35  1  0
 32 31  2  0
 33 28  2  0
 33 32  1  0
 34 33  1  0
 36 37  1  0
 37 40  1  0
 37 39  1  0
 38 36  2  0
 41 42  1  0
 41 16  1  0
 43 41  1  0
 45 44  2  0
 45 14  1  0
 46 47  1  0
 46 10  1  0
 47 49  1  0
 48 59  2  0
 49 54  1  0
 50 58  1  0
 50 60  1  0
 51 57  1  0
 51 53  1  0
 52 58  1  0
 53 52  1  0
 54 53  2  0
 55 56  1  0
 55 49  2  0
 56 51  2  0
 57 50  1  0
 58 48  1  0
 60 62  2  0
 61 60  1  0
 63 61  1  0
 64 73  2  0
 64 69  1  0
 65 61  1  0
 65 69  1  0
 66 65  1  0
 67 68  1  0
 67 66  1  0
 68 64  1  0
 69 70  2  0
 70 71  1  0
 72 71  2  0
 73 72  1  0
 74 48  1  0
 74 75  1  0
 74 84  1  0
 75 78  1  0
 76 75  1  0
 76 80  1  0
 77 76  2  0
 80 79  1  0
 80 82  1  0
 82 83  1  0
 82 81  1  0
 84 87  1  1
 84 85  1  0
 86 84  1  0
M  ISO  4   1 100  15 100  46 101  47 101
M  END
>  <TORSDO>  (3) 
F 17

>  <SCORE>  (3) 
-13.381

>  <name>  (3) 
2

>  <ligand_id>  (3) 
2

>  <original_smiles>  (3) 
[H]C([H])=C([H])C1([H])C(C([H])([H])Oc2c([H])c([H])c3c(c2[H])C([H])([H])N(C(=O)C([H])(N([H])C(=O)C([H])(N([H])C([H])([H])[H])C([H])([H])[H])C(C([H])([H])[H])(C([H])([H])[H])C([H])([H])[H])C([H])(C(=O)N([H])C2([H])c4c([H])c([H])c([H])c([H])c4C([H])([H])C([H])([H])C2([H])[H])C3([H])[H])=C([H])C([H])([H])C([H])([H])N(C(=O)N2C([H])([H])C([H])([H])C([H])([H])C([H])(n3nc(-c4c([H])c([H])c(Oc5c([H])c([H])c(F)c([H])c5F)c([H])c4[H])c(C(=O)N([H])[H])c3N([H])[H])C2([H])[H])C1([H])[H]

>  <smiles>  (3) 
[H]C([H])=C([H])C1([H])C(C([H])([H])Oc2c([H])c([H])c3c(c2[H])C([H])([H])N(C(=O)C([H])(N([H])C(=O)C([H])(N([H])C([H])([H])[H])C([H])([H])[H])C(C([H])([H])[H])(C([H])([H])[H])C([H])([H])[H])C([H])(C(=O)N([H])C2([H])c4c([H])c([H])c([H])c([H])c4C([H])([H])C([H])([H])C2([H])[H])C3([H])[H])=C([H])C([H])([H])C([H])([H])N(C(=O)N2C([H])([H])C([H])([H])C([H])([H])C([H])(n3nc(-c4c([H])c([H])c(Oc5c([H])c([H])c(F)c([H])c5F)c([H])c4[H])c(C(=O)N([H])[H])c3N([H])[H])C2([H])[H])C1([H])[H]

$$$$
3:0:0
     RDKit          3D

 96104  0  0  1  0  0  0  0  0999 V2000
  -30.2150  -18.5540   20.1470 C   0  0  0  0  0  0  0  0  0  0  0  0
  -31.5040  -20.2360   21.1230 C   0  0  0  0  0  2  0  0  0  0  0  0
  -30.5220  -20.0300   19.9630 C   0  0  0  0  0  3  0  0  0  0  0  0
  -31.4920  -17.8450   20.6380 C   0  0  0  0  0  3  0  0  0  0  0  0
  -33.6730  -19.0320   20.9180 C   0  0  0  0  0  1  0  0  0  0  0  0
  -32.2420  -18.9550   21.2990 N   0  0  1  0  0  4  0  0  0  0  0  0
  -29.1130  -18.0330   19.9370 O   0  0  0  0  0  0  0  0  0  0  0  0
  -32.2250  -18.7660   22.2910 H   0  0  0  0  0  0  0  0  0  0  0  0
  -29.3020  -22.2460   20.0270 C   0  0  0  0  0  0  0  0  0  0  0  0
  -29.3350  -20.9040   19.9930 N   0  0  0  0  0  0  0  0  0  0  0  0
  -30.3240  -22.9290   20.0970 O   0  0  0  0  0  0  0  0  0  0  0  0
  -28.4470  -20.4200   19.9350 H   0  0  0  0  0  0  0  0  0  0  0  0
  -27.9160  -22.9100   19.9510 C   0  0  0  0  0  2  0  0  0  0  0  0
  -27.8160  -24.3480   20.5330 C   0  0  0  0  0  2  0  0  0  0  0  0
  -28.2250  -25.4720   19.5490 C   0  0  0  0  0  2  0  0  0  0  0  0
  -28.1460  -26.7870   20.1230 O   0  0  0  0  0  0  0  0  0  0  0  0
  -24.5110  -32.0200   23.2760 C   0  0  0  0  0  0  0  0  0  0  0  0
  -26.9600  -27.4980   20.1330 C   0  0  0  0  0  0  0  0  0  0  0  0
  -23.2230  -30.6400   21.6760 C   0  0  0  0  0  3  0  0  0  0  0  0
  -24.5940  -29.0610   20.2130 C   0  0  0  0  0  0  0  0  0  0  0  0
  -25.7450  -30.9360   21.3990 C   0  0  0  0  0  2  0  0  0  0  0  0
  -25.7780  -29.5560   20.7720 C   0  0  0  0  0  0  0  0  0  0  0  0
  -26.9560  -28.7780   20.7370 C   0  0  0  0  0  3  0  0  0  0  0  0
  -25.7550  -27.0190   19.5670 C   0  0  0  0  0  3  0  0  0  0  0  0
  -24.5770  -27.7920   19.6080 C   0  0  0  0  0  3  0  0  0  0  0  0
  -23.3720  -29.9490   20.2940 C   0  0  0  0  0  2  0  0  0  0  0  0
  -24.5130  -31.2140   22.1750 N   0  0  0  0  0  0  0  0  0  0  0  0
  -23.4540  -32.3200   23.8490 O   0  0  0  0  0  0  0  0  0  0  0  0
  -22.5760  -29.6400   22.6610 C   0  0  0  0  0  0  0  0  0  0  0  0
  -21.2540  -29.4440   22.5310 N   0  0  0  0  0  0  0  0  0  0  0  0
  -23.2610  -29.0470   23.4990 O   0  0  0  0  0  0  0  0  0  0  0  0
  -20.7650  -29.9790   21.8280 H   0  0  0  0  0  0  0  0  0  0  0  0
  -17.8970  -28.1770   22.9770 C   0  0  0  0  0  0  0  0  0  0  0  0
  -20.4370  -28.5210   23.3180 C   0  0  0  0  0  3  0  0  0  0  0  0
  -20.5970  -27.0680   22.8140 C   0  0  0  0  0  2  0  0  0  0  0  0
  -19.5370  -26.6670   21.7820 C   0  0  0  0  0  2  0  0  0  0  0  0
  -18.1320  -26.8020   22.3750 C   0  0  0  0  0  2  0  0  0  0  0  0
  -18.9800  -28.9900   23.4060 C   0  0  0  0  0  0  0  0  0  0  0  0
  -18.7070  -30.2730   23.9260 C   0  0  0  0  0  3  0  0  0  0  0  0
  -17.3850  -30.7450   24.0240 C   0  0  0  0  0  3  0  0  0  0  0  0
  -16.3150  -29.9280   23.6130 C   0  0  0  0  0  3  0  0  0  0  0  0
  -16.5720  -28.6480   23.0960 C   0  0  0  0  0  3  0  0  0  0  0  0
  -25.8300  -32.6220   23.8550 C   0  0  0  0  0  3  0  0  0  0  0  0
  -25.5650  -34.0240   24.2010 N   0  0  0  0  0  0  0  0  0  0  0  0
  -25.9020  -35.0720   23.4380 C   0  0  0  0  0  0  0  0  0  0  0  0
  -26.5390  -34.9570   22.3870 O   0  0  0  0  0  0  0  0  0  0  0  0
  -25.0040  -34.1920   25.0230 H   0  0  0  0  0  0  0  0  0  0  0  0
  -24.2080  -36.9060   23.1320 C   0  0  0  0  0  1  0  0  0  0  0  0
  -25.4590  -36.4700   23.9110 C   0  0  0  0  0  3  0  0  0  0  0  0
  -27.6340  -37.2990   24.6920 C   0  0  0  0  0  1  0  0  0  0  0  0
  -26.5150  -37.4980   23.7760 N   0  0  0  0  0  0  0  0  0  0  0  0
  -26.1340  -38.4280   23.9350 H   0  0  0  0  0  0  0  0  0  0  0  0
  -26.3750  -31.8320   25.1080 C   0  0  1  0  0  0  0  0  0  0  0  0
  -25.3120  -31.5990   26.2080 C   0  0  0  0  0  1  0  0  0  0  0  0
  -26.9220  -30.4490   24.6810 C   0  0  0  0  0  1  0  0  0  0  0  0
  -27.5550  -32.6020   25.7440 C   0  0  0  0  0  1  0  0  0  0  0  0
  -30.5910  -16.9860   22.9310 C   0  0  0  0  0  1  0  0  0  0  0  0
  -31.3020  -16.6240   21.6090 C   0  0  0  0  0  3  0  0  0  0  0  0
  -31.1520  -14.5270   20.2030 C   0  0  0  0  0  0  0  0  0  0  0  0
  -30.7310  -12.3990   19.0170 C   0  0  0  0  0  2  0  0  0  0  0  0
  -29.7530  -12.6110   17.8470 C   0  0  0  0  0  2  0  0  0  0  0  0
  -28.2910  -12.5050   18.3290 C   0  0  0  0  0  2  0  0  0  0  0  0
  -28.0170  -13.3650   19.5910 C   0  0  0  0  0  3  0  0  0  0  0  0
  -29.1000  -13.1240   20.6650 C   0  0  0  0  0  2  0  0  0  0  0  0
  -30.4170  -13.3920   20.0530 N   0  0  0  0  0  0  0  0  0  0  0  0
  -32.2150  -14.7350   19.6140 O   0  0  0  0  0  0  0  0  0  0  0  0
  -30.6320  -15.4400   21.0400 N   0  0  0  0  0  0  0  0  0  0  0  0
  -29.7340  -15.1970   21.4270 H   0  0  0  0  0  0  0  0  0  0  0  0
  -25.6730  -14.0440   20.4140 C   0  0  0  0  0  0  0  0  0  0  0  0
  -24.5900  -13.3040   20.8070 C   0  0  0  0  0  0  0  0  0  0  0  0
  -24.9950  -11.9380   20.7210 C   0  0  0  0  0  0  0  0  0  0  0  0
  -26.6720  -13.1300   20.1180 N   0  0  0  0  0  0  0  0  0  0  0  0
  -26.2690  -11.8550   20.3570 N   0  0  0  0  0  0  0  0  0  0  0  0
  -24.2250  -10.7000   20.9090 C   0  0  0  0  0  0  0  0  0  0  0  0
  -24.6330   -9.7090   21.8280 C   0  0  0  0  0  3  0  0  0  0  0  0
  -23.8680   -8.5360   22.0040 C   0  0  0  0  0  3  0  0  0  0  0  0
  -22.6800   -8.3470   21.2600 C   0  0  0  0  0  0  0  0  0  0  0  0
  -22.2890   -9.3280   20.3310 C   0  0  0  0  0  3  0  0  0  0  0  0
  -23.0550  -10.4920   20.1540 C   0  0  0  0  0  3  0  0  0  0  0  0
  -21.8860   -7.2280   21.3460 O   0  0  0  0  0  0  0  0  0  0  0  0
  -21.7880   -6.5040   22.5070 C   0  0  0  0  0  0  0  0  0  0  0  0
  -21.3320   -7.0840   23.7120 C   0  0  0  0  0  3  0  0  0  0  0  0
  -21.1790   -6.2860   24.8620 C   0  0  0  0  0  3  0  0  0  0  0  0
  -21.4690   -4.9090   24.8100 C   0  0  0  0  0  0  0  0  0  0  0  0
  -21.9150   -4.3300   23.6110 C   0  0  0  0  0  3  0  0  0  0  0  0
  -22.0700   -5.1240   22.4610 C   0  0  0  0  0  0  0  0  0  0  0  0
  -22.4810   -4.5560   21.3020 F   0  0  0  0  0  0  0  0  0  0  0  0
  -21.3140   -4.1430   25.9140 F   0  0  0  0  0  0  0  0  0  0  0  0
  -23.2270  -13.8290   21.1560 C   0  0  0  0  0  0  0  0  0  0  0  0
  -22.5140  -13.1460   22.0440 N   0  0  0  0  0  0  0  0  0  0  0  0
  -22.8050  -14.8810   20.6780 O   0  0  0  0  0  0  0  0  0  0  0  0
  -22.8700  -12.2950   22.4550 H   0  0  0  0  0  0  0  0  0  0  0  0
  -21.6010  -13.4810   22.3180 H   0  0  0  0  0  0  0  0  0  0  0  0
  -25.8870  -15.4110   20.2650 N   0  0  0  0  0  0  0  0  0  0  0  0
  -25.1500  -16.0920   20.4160 H   0  0  0  0  0  0  0  0  0  0  0  0
  -26.7440  -15.8280   19.9230 H   0  0  0  0  0  0  0  0  0  0  0  0
  1  4  1  0
  2  6  1  0
  3 10  1  0
  3  1  1  0
  3  2  1  0
  4  6  1  0
  4 58  1  0
  5  6  1  0
  6  8  1  1
  7  1  2  0
  9 11  2  0
 10  9  1  0
 12 10  1  0
 13  9  1  0
 13 14  1  0
 15 16  1  0
 15 14  1  0
 16 18  1  0
 17 28  2  0
 18 23  1  0
 19 27  1  0
 19 29  1  0
 20 26  1  0
 20 22  1  0
 21 27  1  0
 22 21  1  0
 23 22  2  0
 24 25  1  0
 24 18  2  0
 25 20  2  0
 26 19  1  0
 27 17  1  0
 29 31  2  0
 30 29  1  0
 32 30  1  0
 33 42  2  0
 33 38  1  0
 34 30  1  0
 34 38  1  0
 35 34  1  0
 36 37  1  0
 36 35  1  0
 37 33  1  0
 38 39  2  0
 39 40  1  0
 41 40  2  0
 42 41  1  0
 43 17  1  0
 43 44  1  0
 43 53  1  0
 44 47  1  0
 45 49  1  0
 45 44  1  0
 46 45  2  0
 49 48  1  0
 51 49  1  0
 51 52  1  0
 51 50  1  0
 53 56  1  1
 53 54  1  0
 55 53  1  0
 58 57  1  0
 59 67  1  0
 60 65  1  0
 61 62  1  0
 61 60  1  0
 63 62  1  0
 63 72  1  0
 63 64  1  0
 65 59  1  0
 65 64  1  0
 66 59  2  0
 67 68  1  0
 67 58  1  0
 69 70  2  0
 70 89  1  0
 71 70  1  0
 71 74  1  0
 72 73  1  0
 72 69  1  0
 73 71  2  0
 74 75  1  0
 75 76  2  0
 77 80  1  0
 77 76  1  0
 78 77  2  0
 79 78  1  0
 79 74  2  0
 80 81  1  0
 81 82  1  0
 82 83  2  0
 84 83  1  0
 84 88  1  0
 85 84  2  0
 86 81  2  0
 86 85  1  0
 87 86  1  0
 89 90  1  0
 90 93  1  0
 90 92  1  0
 91 89  2  0
 94 69  1  0
 94 95  1  0
 96 94  1  0
M  ISO  4  15 101  16 101  59 100  67 100
M  END
>  <TORSDO>  (4) 
F 21

>  <SCORE>  (4) 
-13.192

>  <name>  (4) 
3

>  <ligand_id>  (4) 
3

>  <original_smiles>  (4) 
[H]c1c([H])c([H])c2c(c1[H])C([H])([H])C([H])([H])C([H])([H])C2([H])N([H])C(=O)C1([H])N(C(=O)C([H])(N([H])C(=O)C([H])(N([H])C([H])([H])[H])C([H])([H])[H])C(C([H])([H])[H])(C([H])([H])[H])C([H])([H])[H])C([H])([H])c2c([H])c(OC([H])([H])C([H])([H])C([H])([H])C(=O)N([H])C3([H])C(=O)C([H])(C([H])(N([H])C(=O)N4C([H])([H])C([H])([H])C([H])([H])C([H])(n5nc(-c6c([H])c([H])c(Oc7c([H])c([H])c(F)c([H])c7F)c([H])c6[H])c(C(=O)N([H])[H])c5N([H])[H])C4([H])[H])C([H])([H])[H])[N+]([H])(C([H])([H])[H])C3([H])[H])c([H])c([H])c2C1([H])[H]

>  <smiles>  (4) 
[H]c1c([H])c([H])c2c(c1[H])C([H])([H])C([H])([H])C([H])([H])C2([H])N([H])C(=O)C1([H])N(C(=O)C([H])(N([H])C(=O)C([H])(N([H])C([H])([H])[H])C([H])([H])[H])C(C([H])([H])[H])(C([H])([H])[H])C([H])([H])[H])C([H])([H])c2c([H])c(OC([H])([H])C([H])([H])C([H])([H])C(=O)N([H])C3([H])C(=O)C([H])(C([H])(N([H])C(=O)N4C([H])([H])C([H])([H])C([H])([H])C([H])(n5nc(-c6c([H])c([H])c(Oc7c([H])c([H])c(F)c([H])c7F)c([H])c6[H])c(C(=O)N([H])[H])c5N([H])[H])C4([H])[H])C([H])([H])[H])[N+]([H])(C([H])([H])[H])C3([H])[H])c([H])c([H])c2C1([H])[H]

$$$$
4:0:0
     RDKit          3D

 93100  0  0  1  0  0  0  0  0999 V2000
  -30.4720  -21.8190   20.2010 C   0  0  0  0  0  3  0  0  0  0  0  0
  -30.0250  -23.1090   20.0440 C   0  0  0  0  0  3  0  0  0  0  0  0
  -30.0020  -20.6730   21.0080 C   0  0  0  0  0  0  0  0  0  0  0  0
  -30.5800  -19.5010   20.5940 N   0  0  0  0  0  0  0  0  0  0  0  0
  -29.2540  -20.7570   21.9820 O   0  0  0  0  0  0  0  0  0  0  0  0
  -31.0610  -19.6160   19.7120 H   0  0  0  0  0  0  0  0  0  0  0  0
  -30.6230  -18.0050   22.6770 C   0  0  0  0  0  1  0  0  0  0  0  0
  -30.7420  -18.0980   21.1390 C   0  0  0  0  0  3  0  0  0  0  0  0
  -28.4310  -17.3800   20.5020 C   0  0  0  0  0  1  0  0  0  0  0  0
  -29.9120  -16.9970   20.3740 C   0  0  0  0  0  3  0  0  0  0  0  0
  -30.7330  -14.5610   20.1100 C   0  0  0  0  0  0  0  0  0  0  0  0
  -30.3980  -12.4000   18.9210 C   0  0  0  0  0  2  0  0  0  0  0  0
  -29.3790  -12.5880   17.7740 C   0  0  0  0  0  2  0  0  0  0  0  0
  -27.9320  -12.4500   18.2850 C   0  0  0  0  0  2  0  0  0  0  0  0
  -27.6750  -13.2880   19.5640 C   0  0  0  0  0  3  0  0  0  0  0  0
  -28.7790  -13.0390   20.6170 C   0  0  0  0  0  2  0  0  0  0  0  0
  -30.0790  -13.3610   20.0000 N   0  0  0  0  0  0  0  0  0  0  0  0
  -31.8050  -14.7770   19.5260 O   0  0  0  0  0  0  0  0  0  0  0  0
  -30.0600  -15.5520   20.7580 N   0  0  0  0  0  0  0  0  0  0  0  0
  -29.2760  -15.1910   21.2850 H   0  0  0  0  0  0  0  0  0  0  0  0
  -25.3280  -13.9330   20.4090 C   0  0  0  0  0  0  0  0  0  0  0  0
  -24.2700  -13.1820   20.8360 C   0  0  0  0  0  0  0  0  0  0  0  0
  -24.7000  -11.8220   20.7580 C   0  0  0  0  0  0  0  0  0  0  0  0
  -26.3440  -13.0370   20.1100 N   0  0  0  0  0  0  0  0  0  0  0  0
  -25.9690  -11.7610   20.3780 N   0  0  0  0  0  0  0  0  0  0  0  0
  -23.9590  -10.5730   20.9720 C   0  0  0  0  0  0  0  0  0  0  0  0
  -24.4280   -9.5790   21.8610 C   0  0  0  0  0  3  0  0  0  0  0  0
  -23.6870   -8.3960   22.0620 C   0  0  0  0  0  3  0  0  0  0  0  0
  -22.4670   -8.1970   21.3750 C   0  0  0  0  0  0  0  0  0  0  0  0
  -22.0190   -9.1780   20.4740 C   0  0  0  0  0  3  0  0  0  0  0  0
  -22.7580  -10.3540   20.2690 C   0  0  0  0  0  3  0  0  0  0  0  0
  -21.6950   -7.0660   21.4870 O   0  0  0  0  0  0  0  0  0  0  0  0
  -21.6990   -6.3010   22.6270 C   0  0  0  0  0  0  0  0  0  0  0  0
  -21.3640   -6.8430   23.8870 C   0  0  0  0  0  3  0  0  0  0  0  0
  -21.3140   -6.0060   25.0210 C   0  0  0  0  0  3  0  0  0  0  0  0
  -21.5910   -4.6310   24.8950 C   0  0  0  0  0  0  0  0  0  0  0  0
  -21.9220   -4.0910   23.6400 C   0  0  0  0  0  3  0  0  0  0  0  0
  -21.9730   -4.9240   22.5080 C   0  0  0  0  0  0  0  0  0  0  0  0
  -22.2710   -4.3950   21.2960 F   0  0  0  0  0  0  0  0  0  0  0  0
  -21.5370   -3.8270   25.9830 F   0  0  0  0  0  0  0  0  0  0  0  0
  -22.9020  -13.6830   21.1970 C   0  0  0  0  0  0  0  0  0  0  0  0
  -22.2170  -12.9950   22.1000 N   0  0  0  0  0  0  0  0  0  0  0  0
  -22.4570  -14.7240   20.7120 O   0  0  0  0  0  0  0  0  0  0  0  0
  -22.5980  -12.1580   22.5160 H   0  0  0  0  0  0  0  0  0  0  0  0
  -21.3000  -13.3120   22.3820 H   0  0  0  0  0  0  0  0  0  0  0  0
  -25.4980  -15.3030   20.2310 N   0  0  0  0  0  0  0  0  0  0  0  0
  -24.7360  -15.9550   20.3770 H   0  0  0  0  0  0  0  0  0  0  0  0
  -26.3090  -15.7300   19.8080 H   0  0  0  0  0  0  0  0  0  0  0  0
  -29.0170  -24.3810   22.0110 C   0  0  0  0  0  1  0  0  0  0  0  0
  -27.5030  -23.2230   20.3720 C   0  0  0  0  0  1  0  0  0  0  0  0
  -28.8250  -23.9900   20.5360 C   0  0  2  0  0  0  0  0  0  0  0  0
  -28.7380  -25.3410   19.6870 C   0  0  0  0  0  2  0  0  0  0  0  0
  -28.4110  -26.6110   20.3360 O   0  0  0  0  0  0  0  0  0  0  0  0
  -24.5540  -31.8520   23.2400 C   0  0  0  0  0  0  0  0  0  0  0  0
  -27.2190  -27.3280   20.2220 C   0  0  0  0  0  0  0  0  0  0  0  0
  -23.3500  -30.4510   21.5830 C   0  0  0  0  0  3  0  0  0  0  0  0
  -24.8180  -28.8770   20.1840 C   0  0  0  0  0  0  0  0  0  0  0  0
  -25.8770  -30.7780   21.4100 C   0  0  0  0  0  2  0  0  0  0  0  0
  -25.9660  -29.3890   20.7930 C   0  0  0  0  0  0  0  0  0  0  0  0
  -27.1540  -28.6170   20.8220 C   0  0  0  0  0  3  0  0  0  0  0  0
  -26.0600  -26.8490   19.5730 C   0  0  0  0  0  3  0  0  0  0  0  0
  -24.8630  -27.6080   19.5710 C   0  0  0  0  0  3  0  0  0  0  0  0
  -23.5760  -29.7520   20.2120 C   0  0  0  0  0  2  0  0  0  0  0  0
  -24.6120  -31.0440   22.1390 N   0  0  0  0  0  0  0  0  0  0  0  0
  -23.4680  -32.1370   23.7670 O   0  0  0  0  0  0  0  0  0  0  0  0
  -22.6740  -29.4490   22.5480 C   0  0  0  0  0  0  0  0  0  0  0  0
  -21.3450  -29.2880   22.4280 N   0  0  0  0  0  0  0  0  0  0  0  0
  -23.3490  -28.8090   23.3600 O   0  0  0  0  0  0  0  0  0  0  0  0
  -20.8500  -29.8570   21.7550 H   0  0  0  0  0  0  0  0  0  0  0  0
  -17.9630  -28.1380   22.9420 C   0  0  0  0  0  0  0  0  0  0  0  0
  -20.5240  -28.3570   23.2030 C   0  0  0  0  0  3  0  0  0  0  0  0
  -20.6000  -26.9240   22.6240 C   0  0  0  0  0  2  0  0  0  0  0  0
  -19.4910  -26.6240   21.6100 C   0  0  0  0  0  2  0  0  0  0  0  0
  -18.1150  -26.7910   22.2600 C   0  0  0  0  0  2  0  0  0  0  0  0
  -19.0950  -28.8790   23.3740 C   0  0  0  0  0  0  0  0  0  0  0  0
  -18.9020  -30.1470   23.9650 C   0  0  0  0  0  3  0  0  0  0  0  0
  -17.6050  -30.6680   24.1340 C   0  0  0  0  0  3  0  0  0  0  0  0
  -16.4860  -29.9250   23.7190 C   0  0  0  0  0  3  0  0  0  0  0  0
  -16.6680  -28.6620   23.1280 C   0  0  0  0  0  3  0  0  0  0  0  0
  -25.8410  -32.4770   23.8670 C   0  0  0  0  0  3  0  0  0  0  0  0
  -25.5480  -33.8820   24.1880 N   0  0  0  0  0  0  0  0  0  0  0  0
  -25.9030  -34.9250   23.4260 C   0  0  0  0  0  0  0  0  0  0  0  0
  -26.5810  -34.8070   22.3990 O   0  0  0  0  0  0  0  0  0  0  0  0
  -24.9540  -34.0520   24.9840 H   0  0  0  0  0  0  0  0  0  0  0  0
  -24.2020  -36.7330   23.0370 C   0  0  0  0  0  1  0  0  0  0  0  0
  -25.4280  -36.3200   23.8660 C   0  0  0  0  0  3  0  0  0  0  0  0
  -27.5650  -37.1810   24.7130 C   0  0  0  0  0  1  0  0  0  0  0  0
  -26.4710  -37.3630   23.7610 N   0  0  0  0  0  0  0  0  0  0  0  0
  -26.0760  -38.2880   23.9090 H   0  0  0  0  0  0  0  0  0  0  0  0
  -26.3420  -31.7060   25.1460 C   0  0  1  0  0  0  0  0  0  0  0  0
  -25.2410  -31.4890   26.2110 C   0  0  0  0  0  1  0  0  0  0  0  0
  -26.9150  -30.3220   24.7590 C   0  0  0  0  0  1  0  0  0  0  0  0
  -27.4970  -32.4870   25.8140 C   0  0  0  0  0  1  0  0  0  0  0  0
  1  3  1  0
  2  1  2  0
  2 51  1  0
  3  5  2  0
  4  3  1  0
  4  8  1  0
  6  4  1  0
  8  7  1  0
 10  9  1  0
 10 19  1  0
 10  8  1  0
 11 19  1  0
 12 17  1  0
 13 14  1  0
 13 12  1  0
 15 14  1  0
 15 24  1  0
 15 16  1  0
 17 11  1  0
 17 16  1  0
 18 11  2  0
 19 20  1  0
 21 22  2  0
 22 41  1  0
 23 22  1  0
 23 26  1  0
 24 25  1  0
 24 21  1  0
 25 23  2  0
 26 27  1  0
 27 28  2  0
 29 32  1  0
 29 28  1  0
 30 29  2  0
 31 30  1  0
 31 26  2  0
 32 33  1  0
 33 34  1  0
 34 35  2  0
 36 35  1  0
 36 40  1  0
 37 36  2  0
 38 33  2  0
 38 37  1  0
 39 38  1  0
 41 42  1  0
 42 45  1  0
 42 44  1  0
 43 41  2  0
 46 47  1  0
 46 21  1  0
 48 46  1  0
 51 50  1  1
 51 49  1  0
 52 53  1  0
 52 51  1  0
 54 65  2  0
 55 53  1  0
 55 60  1  0
 56 64  1  0
 56 66  1  0
 57 63  1  0
 57 59  1  0
 58 64  1  0
 59 60  2  0
 59 58  1  0
 61 55  2  0
 62 61  1  0
 62 57  2  0
 63 56  1  0
 64 54  1  0
 66 68  2  0
 67 66  1  0
 69 67  1  0
 70 79  2  0
 70 75  1  0
 71 67  1  0
 71 75  1  0
 72 71  1  0
 73 74  1  0
 73 72  1  0
 74 70  1  0
 75 76  2  0
 76 77  1  0
 78 77  2  0
 79 78  1  0
 80 54  1  0
 80 81  1  0
 80 90  1  0
 81 84  1  0
 82 86  1  0
 82 81  1  0
 83 82  2  0
 86 85  1  0
 88 86  1  0
 88 89  1  0
 88 87  1  0
 90 93  1  1
 90 91  1  0
 92 90  1  0
M  ISO  4  11 100  19 100  52 101  53 101
M  END
>  <TORSDO>  (5) 
F 21

>  <SCORE>  (5) 
-13.153

>  <name>  (5) 
4

>  <ligand_id>  (5) 
4

>  <original_smiles>  (5) 
[H]C(C(=O)N([H])C([H])(C([H])([H])[H])C([H])(N([H])C(=O)N1C([H])([H])C([H])([H])C([H])([H])C([H])(n2nc(-c3c([H])c([H])c(Oc4c([H])c([H])c(F)c([H])c4F)c([H])c3[H])c(C(=O)N([H])[H])c2N([H])[H])C1([H])[H])C([H])([H])[H])=C([H])C(C([H])([H])[H])(C([H])([H])[H])C([H])([H])Oc1c([H])c([H])c2c(c1[H])C([H])([H])N(C(=O)C([H])(N([H])C(=O)C([H])(N([H])C([H])([H])[H])C([H])([H])[H])C(C([H])([H])[H])(C([H])([H])[H])C([H])([H])[H])C([H])(C(=O)N([H])C1([H])c3c([H])c([H])c([H])c([H])c3C([H])([H])C([H])([H])C1([H])[H])C2([H])[H]

>  <smiles>  (5) 
[H]C(C(=O)N([H])C([H])(C([H])([H])[H])C([H])(N([H])C(=O)N1C([H])([H])C([H])([H])C([H])([H])C([H])(n2nc(-c3c([H])c([H])c(Oc4c([H])c([H])c(F)c([H])c4F)c([H])c3[H])c(C(=O)N([H])[H])c2N([H])[H])C1([H])[H])C([H])([H])[H])=C([H])C(C([H])([H])[H])(C([H])([H])[H])C([H])([H])Oc1c([H])c([H])c2c(c1[H])C([H])([H])N(C(=O)C([H])(N([H])C(=O)C([H])(N([H])C([H])([H])[H])C([H])([H])[H])C(C([H])([H])[H])(C([H])([H])[H])C([H])([H])[H])C([H])(C(=O)N([H])C1([H])c3c([H])c([H])c([H])c([H])c3C([H])([H])C([H])([H])C1([H])[H])C2([H])[H]

$$$$
5:0:0
     RDKit          3D

 91 99  0  0  1  0  0  0  0  0999 V2000
  -29.3420  -19.8250   19.7050 C   0  0  0  0  0  0  0  0  0  0  0  0
  -30.6730  -18.7880   21.7050 C   0  0  0  0  0  2  0  0  0  0  0  0
  -29.9610  -21.3060   21.5750 C   0  0  0  0  0  2  0  0  0  0  0  0
  -30.2160  -18.4180   20.2790 C   0  0  0  0  0  3  0  0  0  0  0  0
  -31.1060  -20.2770   21.8540 C   0  0  0  0  0  3  0  0  0  0  0  0
  -29.3390  -21.2140   20.2440 N   0  0  0  0  0  0  0  0  0  0  0  0
  -28.7030  -19.6300   18.6700 O   0  0  0  0  0  0  0  0  0  0  0  0
  -30.8080  -15.4720   20.3080 C   0  0  0  0  0  0  0  0  0  0  0  0
  -30.8470  -12.9390   19.6860 C   0  0  0  0  0  2  0  0  0  0  0  0
  -29.9960  -12.5670   18.4450 C   0  0  0  0  0  2  0  0  0  0  0  0
  -28.5260  -12.3340   18.8360 C   0  0  0  0  0  2  0  0  0  0  0  0
  -28.0070  -13.4190   19.8120 C   0  0  0  0  0  3  0  0  0  0  0  0
  -28.9910  -13.7100   20.9640 C   0  0  0  0  0  2  0  0  0  0  0  0
  -30.2440  -14.1630   20.3350 N   0  0  0  0  0  0  0  0  0  0  0  0
  -32.0460  -15.4490   20.2330 O   0  0  0  0  0  0  0  0  0  0  0  0
  -30.0380  -16.7420   20.1720 N   0  0  0  0  0  0  0  0  0  0  0  0
  -29.0590  -16.5180   20.0740 H   0  0  0  0  0  0  0  0  0  0  0  0
  -25.6330  -14.0670   20.4710 C   0  0  0  0  0  0  0  0  0  0  0  0
  -24.5320  -13.3320   20.8100 C   0  0  0  0  0  0  0  0  0  0  0  0
  -24.9550  -11.9670   20.8170 C   0  0  0  0  0  0  0  0  0  0  0  0
  -26.6530  -13.1540   20.2790 N   0  0  0  0  0  0  0  0  0  0  0  0
  -26.2560  -11.8850   20.5580 N   0  0  0  0  0  0  0  0  0  0  0  0
  -24.1770  -10.7330   20.9940 C   0  0  0  0  0  0  0  0  0  0  0  0
  -24.5420   -9.7590   21.9500 C   0  0  0  0  0  3  0  0  0  0  0  0
  -23.7640   -8.5930   22.1160 C   0  0  0  0  0  3  0  0  0  0  0  0
  -22.6080   -8.3910   21.3260 C   0  0  0  0  0  0  0  0  0  0  0  0
  -22.2630   -9.3530   20.3590 C   0  0  0  0  0  3  0  0  0  0  0  0
  -23.0400  -10.5100   20.1920 C   0  0  0  0  0  3  0  0  0  0  0  0
  -21.8070   -7.2770   21.4000 O   0  0  0  0  0  0  0  0  0  0  0  0
  -21.7010   -6.5430   22.5540 C   0  0  0  0  0  0  0  0  0  0  0  0
  -21.2700   -7.1220   23.7680 C   0  0  0  0  0  3  0  0  0  0  0  0
  -21.1090   -6.3160   24.9130 C   0  0  0  0  0  3  0  0  0  0  0  0
  -21.3660   -4.9350   24.8460 C   0  0  0  0  0  0  0  0  0  0  0  0
  -21.7890   -4.3560   23.6360 C   0  0  0  0  0  3  0  0  0  0  0  0
  -21.9530   -5.1570   22.4930 C   0  0  0  0  0  0  0  0  0  0  0  0
  -22.3400   -4.5910   21.3250 F   0  0  0  0  0  0  0  0  0  0  0  0
  -21.2030   -4.1590   25.9430 F   0  0  0  0  0  0  0  0  0  0  0  0
  -23.1430  -13.8600   21.0100 C   0  0  0  0  0  0  0  0  0  0  0  0
  -22.3630  -13.2200   21.8740 N   0  0  0  0  0  0  0  0  0  0  0  0
  -22.7570  -14.8770   20.4360 O   0  0  0  0  0  0  0  0  0  0  0  0
  -22.6880  -12.3980   22.3610 H   0  0  0  0  0  0  0  0  0  0  0  0
  -21.4270  -13.5580   22.0540 H   0  0  0  0  0  0  0  0  0  0  0  0
  -25.8450  -15.4290   20.2770 N   0  0  0  0  0  0  0  0  0  0  0  0
  -25.0900  -16.1030   20.3410 H   0  0  0  0  0  0  0  0  0  0  0  0
  -26.7040  -15.8330   19.9300 H   0  0  0  0  0  0  0  0  0  0  0  0
  -33.0420  -20.9110   23.3160 C   0  0  0  0  0  2  0  0  0  0  0  0
  -31.7590  -20.5280   23.2100 C   0  0  0  0  0  0  0  0  0  0  0  0
  -30.8960  -20.3260   24.4440 C   0  0  0  0  0  1  0  0  0  0  0  0
  -28.9100  -22.7390   19.6480 C   0  0  0  0  0  2  0  0  0  0  0  0
  -28.2160  -24.2750   20.3390 C   0  0  0  0  0  2  0  0  0  0  0  0
  -28.3440  -25.9110   20.0420 O   0  0  0  0  0  0  0  0  0  0  0  0
  -24.6390  -31.7930   23.1150 C   0  0  0  0  0  0  0  0  0  0  0  0
  -27.2920  -26.9780   20.0600 C   0  0  0  0  0  0  0  0  0  0  0  0
  -23.4720  -30.3870   21.4660 C   0  0  0  0  0  3  0  0  0  0  0  0
  -24.9520  -28.8200   20.0330 C   0  0  0  0  0  0  0  0  0  0  0  0
  -26.0350  -30.6500   21.3170 C   0  0  0  0  0  2  0  0  0  0  0  0
  -26.1350  -29.2440   20.6500 C   0  0  0  0  0  0  0  0  0  0  0  0
  -27.3000  -28.3480   20.6320 C   0  0  0  0  0  3  0  0  0  0  0  0
  -26.0720  -26.7060   19.4020 C   0  0  0  0  0  3  0  0  0  0  0  0
  -24.9460  -27.5720   19.3870 C   0  0  0  0  0  3  0  0  0  0  0  0
  -23.7160  -29.7180   20.0850 C   0  0  0  0  0  2  0  0  0  0  0  0
  -24.7370  -30.9710   22.0190 N   0  0  0  0  0  0  0  0  0  0  0  0
  -23.5450  -32.0550   23.6400 O   0  0  0  0  0  0  0  0  0  0  0  0
  -22.8000  -29.3690   22.4250 C   0  0  0  0  0  0  0  0  0  0  0  0
  -21.4760  -29.1670   22.2920 N   0  0  0  0  0  0  0  0  0  0  0  0
  -23.4790  -28.7610   23.2570 O   0  0  0  0  0  0  0  0  0  0  0  0
  -20.9810  -29.7100   21.5990 H   0  0  0  0  0  0  0  0  0  0  0  0
  -18.1350  -27.8250   22.7460 C   0  0  0  0  0  0  0  0  0  0  0  0
  -20.6770  -28.2020   23.0550 C   0  0  0  0  0  3  0  0  0  0  0  0
  -20.8490  -26.7710   22.4950 C   0  0  0  0  0  2  0  0  0  0  0  0
  -19.7810  -26.3950   21.4630 C   0  0  0  0  0  2  0  0  0  0  0  0
  -18.3830  -26.4820   22.0800 C   0  0  0  0  0  2  0  0  0  0  0  0
  -19.2130  -28.6390   23.1900 C   0  0  0  0  0  0  0  0  0  0  0  0
  -18.9260  -29.8920   23.7750 C   0  0  0  0  0  3  0  0  0  0  0  0
  -17.5960  -30.3320   23.9190 C   0  0  0  0  0  3  0  0  0  0  0  0
  -16.5350  -29.5170   23.4900 C   0  0  0  0  0  3  0  0  0  0  0  0
  -16.8060  -28.2650   22.9100 C   0  0  0  0  0  3  0  0  0  0  0  0
  -25.8960  -32.4590   23.7520 C   0  0  0  0  0  3  0  0  0  0  0  0
  -26.4110  -31.7020   25.0390 C   0  0  1  0  0  0  0  0  0  0  0  0
  -25.3120  -31.4530   26.0990 C   0  0  0  0  0  1  0  0  0  0  0  0
  -27.0200  -30.3300   24.6670 C   0  0  0  0  0  1  0  0  0  0  0  0
  -27.5440  -32.5170   25.7070 C   0  0  0  0  0  1  0  0  0  0  0  0
  -25.5510  -33.8520   24.0900 N   0  0  0  0  0  0  0  0  0  0  0  0
  -25.8720  -34.9240   23.3560 C   0  0  0  0  0  0  0  0  0  0  0  0
  -26.5540  -34.8470   22.3300 O   0  0  0  0  0  0  0  0  0  0  0  0
  -24.9440  -33.9830   24.8870 H   0  0  0  0  0  0  0  0  0  0  0  0
  -24.1140  -36.6980   23.0260 C   0  0  0  0  0  1  0  0  0  0  0  0
  -25.3610  -36.3000   23.8320 C   0  0  0  0  0  3  0  0  0  0  0  0
  -27.4800  -37.2160   24.6750 C   0  0  0  0  0  1  0  0  0  0  0  0
  -26.3750  -37.3740   23.7310 N   0  0  0  0  0  0  0  0  0  0  0  0
  -25.9530  -38.2840   23.8880 H   0  0  0  0  0  0  0  0  0  0  0  0
  1  6  1  0
  1  4  1  0
  2  5  1  0
  3  5  1  0
  4 16  1  0
  4  2  1  0
  5 47  1  0
  6  3  1  0
  7  1  2  0
  8 14  1  0
  9 14  1  0
 10 11  1  0
 10  9  1  0
 12 11  1  0
 12 21  1  0
 12 13  1  0
 14 13  1  0
 15  8  2  0
 16  8  1  0
 17 16  1  0
 18 19  2  0
 19 20  1  0
 19 38  1  0
 20 23  1  0
 21 18  1  0
 21 22  1  0
 22 20  2  0
 23 24  1  0
 24 25  2  0
 26 29  1  0
 26 25  1  0
 27 26  2  0
 28 27  1  0
 28 23  2  0
 29 30  1  0
 30 31  1  0
 31 32  2  0
 33 32  1  0
 33 37  1  0
 34 33  2  0
 35 30  2  0
 35 34  1  0
 36 35  1  0
 38 39  1  0
 39 42  1  0
 39 41  1  0
 40 38  2  0
 43 44  1  0
 43 18  1  0
 45 43  1  0
 47 46  2  0
 47 48  1  0
 49  6  1  0
 49 50  1  0
 51 53  1  0
 51 50  1  0
 52 63  2  0
 53 58  1  0
 54 62  1  0
 54 64  1  0
 55 61  1  0
 55 57  1  0
 56 62  1  0
 57 56  1  0
 58 57  2  0
 59 53  2  0
 60 59  1  0
 60 55  2  0
 61 54  1  0
 62 52  1  0
 64 66  2  0
 65 64  1  0
 67 65  1  0
 68 77  2  0
 68 73  1  0
 69 65  1  0
 69 73  1  0
 70 69  1  0
 71 72  1  0
 71 70  1  0
 72 68  1  0
 73 74  2  0
 74 75  1  0
 76 75  2  0
 77 76  1  0
 78 52  1  0
 78 83  1  0
 78 79  1  0
 79 82  1  1
 79 80  1  0
 81 79  1  0
 83 86  1  0
 84 88  1  0
 84 83  1  0
 85 84  2  0
 88 87  1  0
 90 88  1  0
 90 91  1  0
 90 89  1  0
M  ISO  4   8 100  16 100  50 101  51 101
M  END
>  <TORSDO>  (6) 
F 19

>  <SCORE>  (6) 
-16.140

>  <name>  (6) 
5

>  <ligand_id>  (6) 
5

>  <original_smiles>  (6) 
[H]C([H])=C(C([H])([H])[H])C1([H])C([H])([H])N(C([H])([H])C([H])([H])Oc2c([H])c([H])c3c(c2[H])C([H])([H])N(C(=O)C([H])(N([H])C(=O)C([H])(N([H])C([H])([H])[H])C([H])([H])[H])C(C([H])([H])[H])(C([H])([H])[H])C([H])([H])[H])C([H])(C(=O)N([H])C2([H])c4c([H])c([H])c([H])c([H])c4C([H])([H])C([H])([H])C2([H])[H])C3([H])[H])C(=O)C([H])(N([H])C(=O)N2C([H])([H])C([H])([H])C([H])([H])C([H])(n3nc(-c4c([H])c([H])c(Oc5c([H])c([H])c(F)c([H])c5F)c([H])c4[H])c(C(=O)N([H])[H])c3N([H])[H])C2([H])[H])C1([H])[H]

>  <smiles>  (6) 
[H]C([H])=C(C([H])([H])[H])C1([H])C([H])([H])N(C([H])([H])C([H])([H])Oc2c([H])c([H])c3c(c2[H])C([H])([H])N(C(=O)C([H])(N([H])C(=O)C([H])(N([H])C([H])([H])[H])C([H])([H])[H])C(C([H])([H])[H])(C([H])([H])[H])C([H])([H])[H])C([H])(C(=O)N([H])C2([H])c4c([H])c([H])c([H])c([H])c4C([H])([H])C([H])([H])C2([H])[H])C3([H])[H])C(=O)C([H])(N([H])C(=O)N2C([H])([H])C([H])([H])C([H])([H])C([H])(n3nc(-c4c([H])c([H])c(Oc5c([H])c([H])c(F)c([H])c5F)c([H])c4[H])c(C(=O)N([H])[H])c3N([H])[H])C2([H])[H])C1([H])[H]

$$$$
6:0:0
     RDKit          3D

 94101  0  0  1  0  0  0  0  0999 V2000
  -28.8170  -23.4510   20.1600 C   0  0  0  0  0  0  0  0  0  0  0  0
  -30.1310  -23.7300   20.1870 N   0  0  0  0  0  4  0  0  0  0  0  0
  -27.9230  -24.5920   20.2380 N   0  0  0  0  0  0  0  0  0  0  0  0
  -30.8270  -23.0110   20.0660 H   0  0  0  0  0  0  0  0  0  0  0  0
  -30.4470  -24.6840   20.2810 H   0  0  0  0  0  0  0  0  0  0  0  0
  -26.9270  -24.4170   20.2590 H   0  0  0  0  0  0  0  0  0  0  0  0
  -28.2580  -26.0790   20.2870 O   0  0  0  0  0  0  0  0  0  0  0  0
  -24.5570  -31.8340   23.2040 C   0  0  0  0  0  0  0  0  0  0  0  0
  -27.1910  -27.0670   20.2430 C   0  0  0  0  0  0  0  0  0  0  0  0
  -23.3850  -30.4150   21.5650 C   0  0  0  0  0  3  0  0  0  0  0  0
  -24.8580  -28.8300   20.1680 C   0  0  0  0  0  0  0  0  0  0  0  0
  -25.9410  -30.6800   21.4320 C   0  0  0  0  0  2  0  0  0  0  0  0
  -26.0270  -29.2760   20.7970 C   0  0  0  0  0  0  0  0  0  0  0  0
  -27.1890  -28.4070   20.8240 C   0  0  0  0  0  3  0  0  0  0  0  0
  -26.0000  -26.7420   19.5560 C   0  0  0  0  0  3  0  0  0  0  0  0
  -24.8600  -27.5790   19.5340 C   0  0  0  0  0  3  0  0  0  0  0  0
  -23.6270  -29.7270   20.1950 C   0  0  0  0  0  2  0  0  0  0  0  0
  -24.6470  -31.0020   22.1210 N   0  0  0  0  0  0  0  0  0  0  0  0
  -23.4620  -32.1170   23.7160 O   0  0  0  0  0  0  0  0  0  0  0  0
  -22.7010  -29.4130   22.5290 C   0  0  0  0  0  0  0  0  0  0  0  0
  -21.3790  -29.2180   22.3790 N   0  0  0  0  0  0  0  0  0  0  0  0
  -23.3650  -28.8130   23.3790 O   0  0  0  0  0  0  0  0  0  0  0  0
  -20.8980  -29.7560   21.6720 H   0  0  0  0  0  0  0  0  0  0  0  0
  -18.0120  -27.9530   22.8260 C   0  0  0  0  0  0  0  0  0  0  0  0
  -20.5570  -28.2790   23.1490 C   0  0  0  0  0  3  0  0  0  0  0  0
  -20.7040  -26.8370   22.6080 C   0  0  0  0  0  2  0  0  0  0  0  0
  -19.6350  -26.4710   21.5720 C   0  0  0  0  0  2  0  0  0  0  0  0
  -18.2350  -26.5960   22.1800 C   0  0  0  0  0  2  0  0  0  0  0  0
  -19.1020  -28.7500   23.2660 C   0  0  0  0  0  0  0  0  0  0  0  0
  -18.8380  -30.0170   23.8310 C   0  0  0  0  0  3  0  0  0  0  0  0
  -17.5190  -30.4880   23.9580 C   0  0  0  0  0  3  0  0  0  0  0  0
  -16.4430  -29.6910   23.5320 C   0  0  0  0  0  3  0  0  0  0  0  0
  -16.6900  -28.4240   22.9720 C   0  0  0  0  0  3  0  0  0  0  0  0
  -25.8220  -32.4860   23.8390 C   0  0  0  0  0  3  0  0  0  0  0  0
  -26.3190  -31.7390   25.1390 C   0  0  1  0  0  0  0  0  0  0  0  0
  -25.2070  -31.5150   26.1920 C   0  0  0  0  0  1  0  0  0  0  0  0
  -26.9150  -30.3570   24.7870 C   0  0  0  0  0  1  0  0  0  0  0  0
  -27.4530  -32.5500   25.8080 C   0  0  0  0  0  1  0  0  0  0  0  0
  -25.4960  -33.8870   24.1500 N   0  0  0  0  0  0  0  0  0  0  0  0
  -25.8280  -34.9380   23.3870 C   0  0  0  0  0  0  0  0  0  0  0  0
  -26.5040  -34.8290   22.3600 O   0  0  0  0  0  0  0  0  0  0  0  0
  -24.8950  -34.0450   24.9460 H   0  0  0  0  0  0  0  0  0  0  0  0
  -24.0900  -36.7220   23.0140 C   0  0  0  0  0  1  0  0  0  0  0  0
  -25.3330  -36.3290   23.8310 C   0  0  0  0  0  3  0  0  0  0  0  0
  -27.4590  -37.2370   24.6570 C   0  0  0  0  0  1  0  0  0  0  0  0
  -26.3600  -37.3870   23.7100 N   0  0  0  0  0  0  0  0  0  0  0  0
  -25.9480  -38.3060   23.8450 H   0  0  0  0  0  0  0  0  0  0  0  0
  -28.4190  -21.8350   19.9940 C   0  0  0  0  0  2  0  0  0  0  0  0
  -29.1440  -19.1620   19.6340 C   0  0  0  0  0  0  0  0  0  0  0  0
  -29.3920  -20.5570   19.8930 N   0  0  0  0  0  0  0  0  0  0  0  0
  -27.9920  -18.8390   19.3450 O   0  0  0  0  0  0  0  0  0  0  0  0
  -30.3500  -20.7690   20.1240 H   0  0  0  0  0  0  0  0  0  0  0  0
  -30.2360  -17.8750   19.7000 C   0  0  0  0  0  3  0  0  0  0  0  0
  -30.6490  -15.0800   19.5010 C   0  0  0  0  0  0  0  0  0  0  0  0
  -30.4880  -12.6510   18.7250 C   0  0  0  0  0  2  0  0  0  0  0  0
  -29.4850  -12.4950   17.5590 C   0  0  0  0  0  2  0  0  0  0  0  0
  -28.0520  -12.3110   18.0950 C   0  0  0  0  0  2  0  0  0  0  0  0
  -27.7090  -13.3160   19.2240 C   0  0  0  0  0  3  0  0  0  0  0  0
  -28.8300  -13.4270   20.2780 C   0  0  0  0  0  2  0  0  0  0  0  0
  -30.0490  -13.8140   19.5560 N   0  0  0  0  0  0  0  0  0  0  0  0
  -31.8400  -15.0920   19.1690 O   0  0  0  0  0  0  0  0  0  0  0  0
  -29.8970  -16.2990   19.6380 N   0  0  0  0  0  0  0  0  0  0  0  0
  -28.9140  -16.1300   19.7830 H   0  0  0  0  0  0  0  0  0  0  0  0
  -25.4310  -13.9660   20.1820 C   0  0  0  0  0  0  0  0  0  0  0  0
  -24.3660  -13.2250   20.6110 C   0  0  0  0  0  0  0  0  0  0  0  0
  -24.7630  -11.8570   20.4970 C   0  0  0  0  0  0  0  0  0  0  0  0
  -26.4090  -13.0520   19.8240 N   0  0  0  0  0  0  0  0  0  0  0  0
  -26.0220  -11.7750   20.0810 N   0  0  0  0  0  0  0  0  0  0  0  0
  -23.9950  -10.6220   20.7020 C   0  0  0  0  0  0  0  0  0  0  0  0
  -24.4000   -9.6440   21.6370 C   0  0  0  0  0  3  0  0  0  0  0  0
  -23.6310   -8.4770   21.8310 C   0  0  0  0  0  3  0  0  0  0  0  0
  -22.4420   -8.2780   21.0890 C   0  0  0  0  0  0  0  0  0  0  0  0
  -22.0540   -9.2450   20.1430 C   0  0  0  0  0  3  0  0  0  0  0  0
  -22.8240  -10.4030   19.9480 C   0  0  0  0  0  3  0  0  0  0  0  0
  -21.6450   -7.1630   21.1920 O   0  0  0  0  0  0  0  0  0  0  0  0
  -21.5190   -6.4770   22.3720 C   0  0  0  0  0  0  0  0  0  0  0  0
  -21.0570   -7.1000   23.5520 C   0  0  0  0  0  3  0  0  0  0  0  0
  -20.8740   -6.3410   24.7250 C   0  0  0  0  0  3  0  0  0  0  0  0
  -21.1440   -4.9590   24.7190 C   0  0  0  0  0  0  0  0  0  0  0  0
  -21.5990   -4.3350   23.5440 C   0  0  0  0  0  3  0  0  0  0  0  0
  -21.7830   -5.0920   22.3730 C   0  0  0  0  0  0  0  0  0  0  0  0
  -22.2010   -4.4810   21.2390 F   0  0  0  0  0  0  0  0  0  0  0  0
  -20.9620   -4.2270   25.8430 F   0  0  0  0  0  0  0  0  0  0  0  0
  -23.0180  -13.7540   21.0070 C   0  0  0  0  0  0  0  0  0  0  0  0
  -22.3320  -13.0690   21.9130 N   0  0  0  0  0  0  0  0  0  0  0  0
  -22.5870  -14.8110   20.5480 O   0  0  0  0  0  0  0  0  0  0  0  0
  -22.6960  -12.2130   22.3070 H   0  0  0  0  0  0  0  0  0  0  0  0
  -21.4300  -13.4050   22.2190 H   0  0  0  0  0  0  0  0  0  0  0  0
  -25.6410  -15.3340   20.0370 N   0  0  0  0  0  0  0  0  0  0  0  0
  -24.9070  -16.0070   20.2280 H   0  0  0  0  0  0  0  0  0  0  0  0
  -26.4570  -15.7550   19.6110 H   0  0  0  0  0  0  0  0  0  0  0  0
  -30.6250  -17.5490   22.2220 C   0  0  0  0  0  1  0  0  0  0  0  0
  -32.6280  -17.5930   20.6740 C   0  0  0  0  0  1  0  0  0  0  0  0
  -31.1970  -18.1090   20.9040 C   0  0  0  0  0  3  0  0  0  0  0  0
  1  2  2  0
  1  3  1  0
  2  5  1  0
  3  6  1  0
  3  7  1  0
  4  2  1  0
  8 19  2  0
  9  7  1  0
  9 14  1  0
 10 18  1  0
 10 20  1  0
 11 17  1  0
 11 13  1  0
 12 18  1  0
 13 14  2  0
 13 12  1  0
 15  9  2  0
 16 15  1  0
 16 11  2  0
 17 10  1  0
 18  8  1  0
 20 22  2  0
 21 20  1  0
 23 21  1  0
 24 33  2  0
 24 29  1  0
 25 21  1  0
 25 29  1  0
 26 25  1  0
 27 28  1  0
 27 26  1  0
 28 24  1  0
 29 30  2  0
 30 31  1  0
 32 31  2  0
 33 32  1  0
 34  8  1  0
 34 39  1  0
 34 35  1  0
 35 38  1  1
 35 36  1  0
 37 35  1  0
 39 42  1  0
 40 44  1  0
 40 39  1  0
 41 40  2  0
 44 43  1  0
 46 44  1  0
 46 47  1  0
 46 45  1  0
 48  1  1  0
 49 50  1  0
 50 48  1  0
 50 52  1  0
 51 49  2  0
 53 49  1  0
 53 94  1  0
 54 60  1  0
 54 62  1  0
 55 60  1  0
 56 57  1  0
 56 55  1  0
 58 57  1  0
 58 67  1  0
 58 59  1  0
 60 59  1  0
 61 54  2  0
 62 53  1  0
 62 63  1  0
 64 65  2  0
 65 84  1  0
 66 65  1  0
 66 69  1  0
 67 68  1  0
 67 64  1  0
 68 66  2  0
 69 70  1  0
 70 71  2  0
 72 75  1  0
 72 71  1  0
 73 72  2  0
 74 73  1  0
 74 69  2  0
 75 76  1  0
 76 81  2  0
 76 77  1  0
 77 78  2  0
 79 78  1  0
 79 83  1  0
 80 79  2  0
 81 80  1  0
 82 81  1  0
 84 85  1  0
 85 88  1  0
 85 87  1  0
 86 84  2  0
 89 64  1  0
 89 90  1  0
 91 89  1  0
 93 94  1  0
 94 92  1  0
M  ISO  4   3 101   7 101  54 100  62 100
M  END
>  <TORSDO>  (7) 
F 20

>  <SCORE>  (7) 
-13.143

>  <name>  (7) 
6

>  <ligand_id>  (7) 
6

>  <original_smiles>  (7) 
[H]c1c([H])c([H])c2c(c1[H])C([H])([H])C([H])([H])C([H])([H])C2([H])N([H])C(=O)C1([H])N(C(=O)C([H])(N([H])C(=O)C([H])(N([H])C([H])([H])[H])C([H])([H])[H])C(C([H])([H])[H])(C([H])([H])[H])C([H])([H])[H])C([H])([H])c2c([H])c(O[N+]([H])=C(N([H])[H])C([H])([H])N([H])C(=O)C([H])(N([H])C(=O)N3C([H])([H])C([H])([H])C([H])([H])C([H])(n4nc(-c5c([H])c([H])c(Oc6c([H])c([H])c(F)c([H])c6F)c([H])c5[H])c(C(=O)N([H])[H])c4N([H])[H])C3([H])[H])C([H])(C([H])([H])[H])C([H])([H])[H])c([H])c([H])c2C1([H])[H]

>  <smiles>  (7) 
[H]c1c([H])c([H])c2c(c1[H])C([H])([H])C([H])([H])C([H])([H])C2([H])N([H])C(=O)C1([H])N(C(=O)C([H])(N([H])C(=O)C([H])(N([H])C([H])([H])[H])C([H])([H])[H])C(C([H])([H])[H])(C([H])([H])[H])C([H])([H])[H])C([H])([H])c2c([H])c(O[N+]([H])=C(N([H])[H])C([H])([H])N([H])C(=O)C([H])(N([H])C(=O)N3C([H])([H])C([H])([H])C([H])([H])C([H])(n4nc(-c5c([H])c([H])c(Oc6c([H])c([H])c(F)c([H])c6F)c([H])c5[H])c(C(=O)N([H])[H])c4N([H])[H])C3([H])[H])C([H])(C([H])([H])[H])C([H])([H])[H])c([H])c([H])c2C1([H])[H]

$$$$
8:0:0
     RDKit          3D

 92100  0  0  1  0  0  0  0  0999 V2000
  -29.1660  -20.8320   19.2600 C   0  0  0  0  0  3  0  0  0  0  0  0
  -29.2040  -22.2600   19.4380 N   0  0  0  0  0  0  0  0  0  0  0  0
  -29.7890  -19.5380   19.3790 N   0  0  0  0  0  0  0  0  0  0  0  0
  -28.3170  -22.5520   19.0480 H   0  0  0  0  0  0  0  0  0  0  0  0
  -29.0920  -18.9610   18.9280 H   0  0  0  0  0  0  0  0  0  0  0  0
  -27.8200  -20.5630   18.6880 C   0  0  0  0  0  0  0  0  0  0  0  0
  -26.6850  -20.8620   19.6440 C   0  0  0  0  0  1  0  0  0  0  0  0
  -27.6290  -20.1430   17.5110 N   0  0  0  0  0  0  0  0  0  0  0  0
  -28.4970  -20.0050   17.0030 H   0  0  0  0  0  0  0  0  0  0  0  0
  -30.9010  -17.9610   21.1780 C   0  0  0  0  0  2  0  0  0  0  0  0
  -30.6300  -16.8590   20.1700 C   0  0  0  0  0  3  0  0  0  0  0  0
  -30.9070  -18.4780   19.7600 C   0  0  0  0  0  3  0  0  0  0  0  0
  -31.5770  -15.5310   20.3650 C   0  0  0  0  0  0  0  0  0  0  0  0
  -31.7060  -12.9930   20.2440 C   0  0  0  0  0  2  0  0  0  0  0  0
  -30.9550  -12.4890   18.9880 C   0  0  0  0  0  2  0  0  0  0  0  0
  -29.4510  -12.3170   19.2760 C   0  0  0  0  0  2  0  0  0  0  0  0
  -28.8550  -13.5310   20.0340 C   0  0  0  0  0  3  0  0  0  0  0  0
  -29.7380  -13.9600   21.2220 C   0  0  0  0  0  2  0  0  0  0  0  0
  -31.0700  -14.2690   20.6850 N   0  0  0  0  0  0  0  0  0  0  0  0
  -32.7950  -15.5820   20.1530 O   0  0  0  0  0  0  0  0  0  0  0  0
  -26.4620  -14.2390   20.6040 C   0  0  0  0  0  0  0  0  0  0  0  0
  -25.3320  -13.5230   20.8920 C   0  0  0  0  0  0  0  0  0  0  0  0
  -25.7220  -12.1490   20.8790 C   0  0  0  0  0  0  0  0  0  0  0  0
  -27.4690  -13.3060   20.4280 N   0  0  0  0  0  0  0  0  0  0  0  0
  -27.0280  -12.0410   20.6590 N   0  0  0  0  0  0  0  0  0  0  0  0
  -24.9140  -10.9280   21.0040 C   0  0  0  0  0  0  0  0  0  0  0  0
  -25.2160   -9.9350   21.9610 C   0  0  0  0  0  3  0  0  0  0  0  0
  -24.4100   -8.7820   22.0750 C   0  0  0  0  0  3  0  0  0  0  0  0
  -23.2890   -8.6120   21.2290 C   0  0  0  0  0  0  0  0  0  0  0  0
  -23.0070   -9.5930   20.2610 C   0  0  0  0  0  3  0  0  0  0  0  0
  -23.8120  -10.7380   20.1460 C   0  0  0  0  0  3  0  0  0  0  0  0
  -22.4660   -7.5120   21.2480 O   0  0  0  0  0  0  0  0  0  0  0  0
  -22.1790   -6.8510   22.4150 C   0  0  0  0  0  0  0  0  0  0  0  0
  -21.5850   -7.5060   23.5160 C   0  0  0  0  0  3  0  0  0  0  0  0
  -21.2410   -6.7730   24.6700 C   0  0  0  0  0  3  0  0  0  0  0  0
  -21.4840   -5.3870   24.7220 C   0  0  0  0  0  0  0  0  0  0  0  0
  -22.0690   -4.7310   23.6250 C   0  0  0  0  0  3  0  0  0  0  0  0
  -22.4130   -5.4620   22.4740 C   0  0  0  0  0  0  0  0  0  0  0  0
  -22.9580   -4.8230   21.4110 F   0  0  0  0  0  0  0  0  0  0  0  0
  -21.1470   -4.6810   25.8280 F   0  0  0  0  0  0  0  0  0  0  0  0
  -23.9490  -14.0780   21.0670 C   0  0  0  0  0  0  0  0  0  0  0  0
  -23.1380  -13.4450   21.9070 N   0  0  0  0  0  0  0  0  0  0  0  0
  -23.5960  -15.1080   20.4950 O   0  0  0  0  0  0  0  0  0  0  0  0
  -23.4350  -12.6120   22.3920 H   0  0  0  0  0  0  0  0  0  0  0  0
  -22.2060  -13.8000   22.0700 H   0  0  0  0  0  0  0  0  0  0  0  0
  -26.7140  -15.5990   20.4470 N   0  0  0  0  0  0  0  0  0  0  0  0
  -25.9730  -16.2890   20.4860 H   0  0  0  0  0  0  0  0  0  0  0  0
  -27.5930  -15.9780   20.1210 H   0  0  0  0  0  0  0  0  0  0  0  0
  -31.2560  -23.7230   19.3180 C   0  0  0  0  0  1  0  0  0  0  0  0
  -29.8410  -23.6160   19.9170 C   0  0  0  0  0  3  0  0  0  0  0  0
  -28.9340  -25.0820   19.7870 C   0  0  0  0  0  2  0  0  0  0  0  0
  -28.9640  -26.5820   20.2280 O   0  0  0  0  0  0  0  0  0  0  0  0
  -24.6280  -31.6290   23.3940 C   0  0  0  0  0  0  0  0  0  0  0  0
  -27.8210  -27.4590   20.1710 C   0  0  0  0  0  0  0  0  0  0  0  0
  -23.6770  -30.3180   21.5320 C   0  0  0  0  0  3  0  0  0  0  0  0
  -25.3600  -29.0060   20.0950 C   0  0  0  0  0  0  0  0  0  0  0  0
  -26.2030  -30.7960   21.6090 C   0  0  0  0  0  2  0  0  0  0  0  0
  -26.4450  -29.4850   20.8400 C   0  0  0  0  0  0  0  0  0  0  0  0
  -27.6760  -28.7300   20.8570 C   0  0  0  0  0  3  0  0  0  0  0  0
  -26.7020  -27.0720   19.4010 C   0  0  0  0  0  3  0  0  0  0  0  0
  -25.5010  -27.8160   19.3630 C   0  0  0  0  0  3  0  0  0  0  0  0
  -24.0610  -29.7980   20.1200 C   0  0  0  0  0  2  0  0  0  0  0  0
  -24.8500  -30.9320   22.2380 N   0  0  0  0  0  0  0  0  0  0  0  0
  -23.4830  -31.7730   23.8530 O   0  0  0  0  0  0  0  0  0  0  0  0
  -23.0150  -29.1710   22.3360 C   0  0  0  0  0  0  0  0  0  0  0  0
  -21.7050  -28.9510   22.1240 N   0  0  0  0  0  0  0  0  0  0  0  0
  -23.6840  -28.4870   23.1150 O   0  0  0  0  0  0  0  0  0  0  0  0
  -21.2210  -29.5600   21.4800 H   0  0  0  0  0  0  0  0  0  0  0  0
  -18.3480  -27.6260   22.4350 C   0  0  0  0  0  0  0  0  0  0  0  0
  -20.9030  -27.8890   22.7370 C   0  0  0  0  0  3  0  0  0  0  0  0
  -21.0280  -26.5680   21.9440 C   0  0  0  0  0  2  0  0  0  0  0  0
  -19.9280  -26.3890   20.8920 C   0  0  0  0  0  2  0  0  0  0  0  0
  -18.5460  -26.4050   21.5520 C   0  0  0  0  0  2  0  0  0  0  0  0
  -19.4540  -28.3310   22.9780 C   0  0  0  0  0  0  0  0  0  0  0  0
  -19.2140  -29.4780   23.7660 C   0  0  0  0  0  3  0  0  0  0  0  0
  -17.9010  -29.9200   24.0140 C   0  0  0  0  0  3  0  0  0  0  0  0
  -16.8100  -29.2110   23.4830 C   0  0  0  0  0  3  0  0  0  0  0  0
  -17.0330  -28.0650   22.6990 C   0  0  0  0  0  3  0  0  0  0  0  0
  -25.7960  -32.2930   24.1850 C   0  0  0  0  0  3  0  0  0  0  0  0
  -26.0860  -31.5900   25.5680 C   0  0  1  0  0  0  0  0  0  0  0  0
  -24.8290  -31.4040   26.4490 C   0  0  0  0  0  1  0  0  0  0  0  0
  -26.7200  -30.1960   25.3540 C   0  0  0  0  0  1  0  0  0  0  0  0
  -27.1140  -32.4210   26.3720 C   0  0  0  0  0  1  0  0  0  0  0  0
  -25.4500  -33.7070   24.3940 N   0  0  0  0  0  0  0  0  0  0  0  0
  -25.8430  -34.7160   23.6040 C   0  0  0  0  0  0  0  0  0  0  0  0
  -26.6020  -34.5550   22.6450 O   0  0  0  0  0  0  0  0  0  0  0  0
  -24.7900  -33.9080   25.1310 H   0  0  0  0  0  0  0  0  0  0  0  0
  -24.1150  -36.4490   23.0240 C   0  0  0  0  0  1  0  0  0  0  0  0
  -25.3130  -36.1260   23.9320 C   0  0  0  0  0  3  0  0  0  0  0  0
  -27.3700  -37.1230   24.8270 C   0  0  0  0  0  1  0  0  0  0  0  0
  -26.3340  -37.1870   23.8000 N   0  0  0  0  0  0  0  0  0  0  0  0
  -25.9040  -38.1070   23.8410 H   0  0  0  0  0  0  0  0  0  0  0  0
  1  6  1  0
  1  3  1  0
  1  2  1  0
  2 50  1  0
  4  2  1  0
  5  3  1  0
  6  7  1  0
  8  6  2  0
  9  8  1  0
 11 13  1  0
 11 10  1  0
 12  3  1  0
 12 11  1  0
 12 10  1  0
 13 19  1  0
 14 19  1  0
 15 16  1  0
 15 14  1  0
 17 16  1  0
 17 24  1  0
 17 18  1  0
 19 18  1  0
 20 13  2  0
 21 22  2  0
 22 41  1  0
 23 22  1  0
 23 26  1  0
 24 21  1  0
 24 25  1  0
 25 23  2  0
 26 27  1  0
 27 28  2  0
 29 32  1  0
 29 28  1  0
 30 29  2  0
 31 30  1  0
 31 26  2  0
 32 33  1  0
 33 38  2  0
 33 34  1  0
 34 35  2  0
 35 36  1  0
 36 40  1  0
 37 36  2  0
 38 37  1  0
 39 38  1  0
 41 42  1  0
 42 45  1  0
 42 44  1  0
 43 41  2  0
 46 47  1  0
 46 21  1  0
 48 46  1  0
 50 49  1  0
 51 50  1  0
 51 52  1  0
 53 64  2  0
 54 52  1  0
 54 59  1  0
 55 63  1  0
 55 65  1  0
 56 62  1  0
 56 58  1  0
 57 63  1  0
 58 59  2  0
 58 57  1  0
 60 54  2  0
 61 60  1  0
 61 56  2  0
 62 55  1  0
 63 53  1  0
 65 67  2  0
 66 65  1  0
 68 66  1  0
 69 78  2  0
 69 74  1  0
 70 66  1  0
 70 74  1  0
 71 70  1  0
 72 73  1  0
 72 71  1  0
 73 69  1  0
 74 75  2  0
 75 76  1  0
 77 76  2  0
 78 77  1  0
 79 53  1  0
 79 84  1  0
 79 80  1  0
 80 83  1  1
 80 81  1  0
 82 80  1  0
 84 87  1  0
 85 89  1  0
 85 84  1  0
 86 85  2  0
 89 88  1  0
 91 92  1  0
 91 89  1  0
 91 90  1  0
M  ISO  4  11 100  13 100  51 101  52 101
M  END
>  <TORSDO>  (8) 
F 20

>  <SCORE>  (8) 
-11.640

>  <name>  (8) 
8

>  <ligand_id>  (8) 
8

>  <original_smiles>  (8) 
[H]N=C(C(N([H])C([H])(C([H])([H])[H])C([H])([H])Oc1c([H])c([H])c2c(c1[H])C([H])([H])N(C(=O)C([H])(N([H])C(=O)C([H])(N([H])C([H])([H])[H])C([H])([H])[H])C(C([H])([H])[H])(C([H])([H])[H])C([H])([H])[H])C([H])(C(=O)N([H])C1([H])c3c([H])c([H])c([H])c([H])c3C([H])([H])C([H])([H])C1([H])[H])C2([H])[H])=[N+]([H])C1([H])C([H])([H])C1([H])C(=O)N1C([H])([H])C([H])([H])C([H])([H])C([H])(n2nc(-c3c([H])c([H])c(Oc4c([H])c([H])c(F)c([H])c4F)c([H])c3[H])c(C(=O)N([H])[H])c2N([H])[H])C1([H])[H])C([H])([H])[H]

>  <smiles>  (8) 
[H]N=C(C(N([H])C([H])(C([H])([H])[H])C([H])([H])Oc1c([H])c([H])c2c(c1[H])C([H])([H])N(C(=O)C([H])(N([H])C(=O)C([H])(N([H])C([H])([H])[H])C([H])([H])[H])C(C([H])([H])[H])(C([H])([H])[H])C([H])([H])[H])C([H])(C(=O)N([H])C1([H])c3c([H])c([H])c([H])c([H])c3C([H])([H])C([H])([H])C1([H])[H])C2([H])[H])=[N+]([H])C1([H])C([H])([H])C1([H])C(=O)N1C([H])([H])C([H])([H])C([H])([H])C([H])(n2nc(-c3c([H])c([H])c(Oc4c([H])c([H])c(F)c([H])c4F)c([H])c3[H])c(C(=O)N([H])[H])c2N([H])[H])C1([H])[H])C([H])([H])[H]

$$$$
9:0:0
     RDKit          3D

 96103  0  0  1  0  0  0  0  0999 V2000
  -30.8460  -20.5760   21.0690 C   0  0  0  0  0  0  0  0  0  0  0  0
  -31.6180  -21.0530   22.0590 N   0  0  0  0  0  4  0  0  0  0  0  0
  -30.8510  -19.2410   20.7620 N   0  0  0  0  0  0  0  0  0  0  0  0
  -31.8080  -22.0410   22.1400 H   0  0  0  0  0  0  0  0  0  0  0  0
  -32.2100  -20.4580   22.6140 H   0  0  0  0  0  0  0  0  0  0  0  0
  -30.2550  -18.9450   20.0030 H   0  0  0  0  0  0  0  0  0  0  0  0
  -28.9660  -20.9490   19.3920 C   0  0  0  0  0  1  0  0  0  0  0  0
  -30.0170  -21.6150   20.2960 C   0  0  0  0  0  3  0  0  0  0  0  0
  -29.3780  -22.6370   21.1920 N   0  0  0  0  0  4  0  0  0  0  0  0
  -28.3900  -22.4460   21.2610 H   0  0  0  0  0  0  0  0  0  0  0  0
  -29.7460  -22.4750   22.1160 H   0  0  0  0  0  0  0  0  0  0  0  0
  -29.6050  -24.0970   20.8760 C   0  0  0  0  0  3  0  0  0  0  0  0
  -28.3160  -24.9090   20.5390 C   0  0  0  0  0  3  0  0  0  0  0  0
  -28.5300  -26.3220   20.2660 O   0  0  0  0  0  0  0  0  0  0  0  0
  -24.6970  -31.6190   23.1260 C   0  0  0  0  0  0  0  0  0  0  0  0
  -27.3810  -27.0980   20.1780 C   0  0  0  0  0  0  0  0  0  0  0  0
  -23.5150  -30.1860   21.4950 C   0  0  0  0  0  3  0  0  0  0  0  0
  -24.9900  -28.6300   20.1130 C   0  0  0  0  0  0  0  0  0  0  0  0
  -26.0450  -30.5450   21.3190 C   0  0  0  0  0  2  0  0  0  0  0  0
  -26.1430  -29.1630   20.7010 C   0  0  0  0  0  0  0  0  0  0  0  0
  -27.3450  -28.4100   20.7210 C   0  0  0  0  0  3  0  0  0  0  0  0
  -26.2080  -26.5980   19.5650 C   0  0  0  0  0  3  0  0  0  0  0  0
  -25.0210  -27.3510   19.5350 C   0  0  0  0  0  3  0  0  0  0  0  0
  -23.7440  -29.4850   20.1300 C   0  0  0  0  0  2  0  0  0  0  0  0
  -24.7700  -30.8000   22.0380 N   0  0  0  0  0  0  0  0  0  0  0  0
  -23.6090  -31.8960   23.6490 O   0  0  0  0  0  0  0  0  0  0  0  0
  -22.8550  -29.1800   22.4660 C   0  0  0  0  0  0  0  0  0  0  0  0
  -21.5330  -28.9850   22.3250 N   0  0  0  0  0  0  0  0  0  0  0  0
  -23.5300  -28.5740   23.3030 O   0  0  0  0  0  0  0  0  0  0  0  0
  -21.0500  -29.5250   21.6200 H   0  0  0  0  0  0  0  0  0  0  0  0
  -18.1620  -27.7620   22.7820 C   0  0  0  0  0  0  0  0  0  0  0  0
  -20.7100  -28.0580   23.1010 C   0  0  0  0  0  3  0  0  0  0  0  0
  -20.8420  -26.6140   22.5630 C   0  0  0  0  0  2  0  0  0  0  0  0
  -19.7660  -26.2540   21.5340 C   0  0  0  0  0  2  0  0  0  0  0  0
  -18.3690  -26.3990   22.1440 C   0  0  0  0  0  2  0  0  0  0  0  0
  -19.2620  -28.5470   23.2170 C   0  0  0  0  0  0  0  0  0  0  0  0
  -19.0160  -29.8220   23.7710 C   0  0  0  0  0  3  0  0  0  0  0  0
  -17.7020  -30.3110   23.8980 C   0  0  0  0  0  3  0  0  0  0  0  0
  -16.6170  -29.5220   23.4810 C   0  0  0  0  0  3  0  0  0  0  0  0
  -16.8470  -28.2500   22.9290 C   0  0  0  0  0  3  0  0  0  0  0  0
  -25.9740  -32.2660   23.7480 C   0  0  0  0  0  3  0  0  0  0  0  0
  -25.6400  -33.6510   24.1060 N   0  0  0  0  0  0  0  0  0  0  0  0
  -25.9610  -34.7250   23.3720 C   0  0  0  0  0  0  0  0  0  0  0  0
  -26.6410  -34.6550   22.3440 O   0  0  0  0  0  0  0  0  0  0  0  0
  -25.0390  -33.7790   24.9080 H   0  0  0  0  0  0  0  0  0  0  0  0
  -24.2040  -36.4930   23.0430 C   0  0  0  0  0  1  0  0  0  0  0  0
  -25.4480  -36.0960   23.8540 C   0  0  0  0  0  3  0  0  0  0  0  0
  -27.5630  -36.9990   24.7140 C   0  0  0  0  0  1  0  0  0  0  0  0
  -26.4630  -37.1680   23.7680 N   0  0  0  0  0  0  0  0  0  0  0  0
  -26.0410  -38.0780   23.9320 H   0  0  0  0  0  0  0  0  0  0  0  0
  -26.5180  -31.4820   25.0040 C   0  0  1  0  0  0  0  0  0  0  0  0
  -25.4330  -31.1780   26.0640 C   0  0  0  0  0  1  0  0  0  0  0  0
  -27.1520  -30.1380   24.5780 C   0  0  0  0  0  1  0  0  0  0  0  0
  -27.6380  -32.3020   25.6880 C   0  0  0  0  0  1  0  0  0  0  0  0
  -31.5950  -18.1380   21.4530 C   0  0  0  0  0  3  0  0  0  0  0  0
  -31.3170  -18.8270   23.9020 C   0  0  0  0  0  1  0  0  0  0  0  0
  -29.4340  -17.5820   22.7470 C   0  0  0  0  0  1  0  0  0  0  0  0
  -30.9560  -17.7930   22.8240 C   0  0  0  0  0  3  0  0  0  0  0  0
  -31.6180  -15.6020   20.8200 C   0  0  0  0  0  3  0  0  0  0  0  0
  -31.8750  -16.9150   20.5470 C   0  0  0  0  0  3  0  0  0  0  0  0
  -32.0580  -14.5180   19.9260 C   0  0  0  0  0  0  0  0  0  0  0  0
  -31.4670  -12.4470   18.7050 C   0  0  0  0  0  2  0  0  0  0  0  0
  -30.4830  -12.7890   17.5670 C   0  0  0  0  0  2  0  0  0  0  0  0
  -29.0300  -12.7580   18.0830 C   0  0  0  0  0  2  0  0  0  0  0  0
  -28.8440  -13.5600   19.3980 C   0  0  0  0  0  3  0  0  0  0  0  0
  -29.9380  -13.1940   20.4250 C   0  0  0  0  0  2  0  0  0  0  0  0
  -31.2530  -13.4190   19.7960 N   0  0  0  0  0  0  0  0  0  0  0  0
  -33.1120  -14.6060   19.2890 O   0  0  0  0  0  0  0  0  0  0  0  0
  -26.5590  -14.3550   20.2730 C   0  0  0  0  0  0  0  0  0  0  0  0
  -25.4480  -13.6720   20.6880 C   0  0  0  0  0  0  0  0  0  0  0  0
  -25.7740  -12.2850   20.5850 C   0  0  0  0  0  0  0  0  0  0  0  0
  -27.5000  -13.3890   19.9500 N   0  0  0  0  0  0  0  0  0  0  0  0
  -27.0340  -12.1370   20.1910 N   0  0  0  0  0  0  0  0  0  0  0  0
  -24.9420  -11.0910   20.7820 C   0  0  0  0  0  0  0  0  0  0  0  0
  -25.2630  -10.1210   21.7570 C   0  0  0  0  0  3  0  0  0  0  0  0
  -24.4390   -8.9900   21.9430 C   0  0  0  0  0  3  0  0  0  0  0  0
  -23.2780   -8.8220   21.1530 C   0  0  0  0  0  0  0  0  0  0  0  0
  -22.9730   -9.7790   20.1690 C   0  0  0  0  0  3  0  0  0  0  0  0
  -23.7980  -10.9010   19.9810 C   0  0  0  0  0  3  0  0  0  0  0  0
  -22.4320   -7.7430   21.2450 O   0  0  0  0  0  0  0  0  0  0  0  0
  -22.1750   -7.1300   22.4450 C   0  0  0  0  0  0  0  0  0  0  0  0
  -21.6400   -7.8340   23.5460 C   0  0  0  0  0  3  0  0  0  0  0  0
  -21.3270   -7.1510   24.7370 C   0  0  0  0  0  3  0  0  0  0  0  0
  -21.5390   -5.7620   24.8290 C   0  0  0  0  0  0  0  0  0  0  0  0
  -22.0660   -5.0560   23.7330 C   0  0  0  0  0  3  0  0  0  0  0  0
  -22.3810   -5.7380   22.5440 C   0  0  0  0  0  0  0  0  0  0  0  0
  -22.8700   -5.0490   21.4850 F   0  0  0  0  0  0  0  0  0  0  0  0
  -21.2300   -5.1020   25.9700 F   0  0  0  0  0  0  0  0  0  0  0  0
  -24.1220  -14.2670   21.0660 C   0  0  0  0  0  0  0  0  0  0  0  0
  -23.4030  -13.6380   21.9880 N   0  0  0  0  0  0  0  0  0  0  0  0
  -23.7370  -15.3290   20.5760 O   0  0  0  0  0  0  0  0  0  0  0  0
  -23.7230  -12.7770   22.4070 H   0  0  0  0  0  0  0  0  0  0  0  0
  -22.5160  -14.0250   22.2790 H   0  0  0  0  0  0  0  0  0  0  0  0
  -26.8420  -15.7100   20.1250 N   0  0  0  0  0  0  0  0  0  0  0  0
  -26.1510  -16.4330   20.2960 H   0  0  0  0  0  0  0  0  0  0  0  0
  -27.7110  -16.0720   19.7570 H   0  0  0  0  0  0  0  0  0  0  0  0
  1  2  2  0
  2  4  1  0
  2  5  1  0
  3  1  1  0
  3 55  1  0
  6  3  1  0
  8  7  1  0
  8  1  1  0
  8  9  1  0
  9 10  1  0
  9 11  1  0
 12  9  1  0
 13 12  2  0
 14 13  1  0
 15 26  2  0
 16 14  1  0
 16 21  1  0
 17 25  1  0
 17 27  1  0
 18 24  1  0
 18 20  1  0
 19 25  1  0
 20 21  2  0
 20 19  1  0
 22 16  2  0
 23 22  1  0
 23 18  2  0
 24 17  1  0
 25 15  1  0
 27 29  2  0
 28 27  1  0
 30 28  1  0
 31 40  2  0
 31 36  1  0
 32 28  1  0
 32 36  1  0
 33 32  1  0
 34 35  1  0
 34 33  1  0
 35 31  1  0
 36 37  2  0
 37 38  1  0
 39 38  2  0
 40 39  1  0
 41 15  1  0
 41 42  1  0
 41 51  1  0
 42 45  1  0
 43 47  1  0
 43 42  1  0
 44 43  2  0
 47 46  1  0
 49 47  1  0
 49 50  1  0
 49 48  1  0
 51 54  1  1
 51 52  1  0
 53 51  1  0
 55 60  1  0
 55 58  1  0
 57 58  1  0
 58 56  1  0
 60 59  2  0
 61 59  1  0
 62 67  1  0
 63 64  1  0
 63 62  1  0
 65 64  1  0
 65 72  1  0
 65 66  1  0
 67 61  1  0
 67 66  1  0
 68 61  2  0
 69 70  2  0
 70 89  1  0
 71 70  1  0
 71 74  1  0
 72 73  1  0
 72 69  1  0
 73 71  2  0
 74 75  1  0
 75 76  2  0
 77 80  1  0
 77 76  1  0
 78 77  2  0
 79 78  1  0
 79 74  2  0
 80 81  1  0
 81 86  2  0
 81 82  1  0
 82 83  2  0
 83 84  1  0
 84 88  1  0
 85 84  2  0
 86 85  1  0
 87 86  1  0
 89 90  1  0
 90 93  1  0
 90 92  1  0
 91 89  2  0
 94 69  1  0
 94 95  1  0
 96 94  1  0
M  ISO  4  13 101  14 101  59 100  61 100
M  END
>  <TORSDO>  (9) 
F 23

>  <SCORE>  (9) 
-8.715

>  <name>  (9) 
9

>  <ligand_id>  (9) 
9

>  <original_smiles>  (9) 
[H]C(C(=O)N1C([H])([H])C([H])([H])C([H])([H])C([H])(n2nc(-c3c([H])c([H])c(Oc4c([H])c([H])c(F)c([H])c4F)c([H])c3[H])c(C(=O)N([H])[H])c2N([H])[H])C1([H])[H])=C([H])C([H])([N+]([H])=C(N([H])[H])C([H])(C([H])([H])[H])[N+]([H])([H])C([H])([H])C([H])([H])Oc1c([H])c([H])c2c(c1[H])C([H])([H])N(C(=O)C([H])(N([H])C(=O)C([H])(N([H])C([H])([H])[H])C([H])([H])[H])C(C([H])([H])[H])(C([H])([H])[H])C([H])([H])[H])C([H])(C(=O)N([H])C1([H])c3c([H])c([H])c([H])c([H])c3C([H])([H])C([H])([H])C1([H])[H])C2([H])[H])C([H])(C([H])([H])[H])C([H])([H])[H]

>  <smiles>  (9) 
[H]C(C(=O)N1C([H])([H])C([H])([H])C([H])([H])C([H])(n2nc(-c3c([H])c([H])c(Oc4c([H])c([H])c(F)c([H])c4F)c([H])c3[H])c(C(=O)N([H])[H])c2N([H])[H])C1([H])[H])=C([H])C([H])([N+]([H])=C(N([H])[H])C([H])(C([H])([H])[H])[N+]([H])([H])C([H])([H])C([H])([H])Oc1c([H])c([H])c2c(c1[H])C([H])([H])N(C(=O)C([H])(N([H])C(=O)C([H])(N([H])C([H])([H])[H])C([H])([H])[H])C(C([H])([H])[H])(C([H])([H])[H])C([H])([H])[H])C([H])(C(=O)N([H])C1([H])c3c([H])c([H])c([H])c([H])c3C([H])([H])C([H])([H])C1([H])[H])C2([H])[H])C([H])(C([H])([H])[H])C([H])([H])[H]

$$$$
10:0:0
     RDKit          3D

107114  0  0  1  0  0  0  0  0999 V2000
  -29.9180  -21.4030   15.8740 C   0  0  0  0  0  1  0  0  0  0  0  0
  -31.2450  -22.1820   15.7450 C   0  0  0  0  0  3  0  0  0  0  0  0
  -32.2770  -21.3440   14.9830 C   0  0  0  0  0  0  0  0  0  0  0  0
  -31.9520  -20.0920   14.6190 N   0  0  0  0  0  4  0  0  0  0  0  0
  -33.5000  -21.7770   14.6070 N   0  0  0  0  0  0  0  0  0  0  0  0
  -31.0410  -19.7290   14.8580 H   0  0  0  0  0  0  0  0  0  0  0  0
  -32.5600  -19.4710   14.1060 H   0  0  0  0  0  0  0  0  0  0  0  0
  -34.0700  -21.1410   14.0690 H   0  0  0  0  0  0  0  0  0  0  0  0
  -34.1760  -23.0590   14.8330 C   0  0  0  0  0  2  0  0  0  0  0  0
  -35.4150  -22.8700   15.7280 C   0  0  0  0  0  2  0  0  0  0  0  0
  -36.5470  -22.0280   15.0960 C   0  0  0  0  0  2  0  0  0  0  0  0
  -37.5660  -21.5260   16.1430 C   0  0  0  0  0  2  0  0  0  0  0  0
  -38.8410  -20.8330   15.5780 C   0  0  0  0  0  3  0  0  0  0  0  0
  -38.3620  -19.4110   13.5350 C   0  0  0  0  0  0  0  0  0  0  0  0
  -38.5220  -17.7080   11.7550 C   0  0  0  0  0  2  0  0  0  0  0  0
  -37.1650  -17.0740   11.4050 C   0  0  0  0  0  2  0  0  0  0  0  0
  -36.8500  -15.8910   12.3410 C   0  0  0  0  0  2  0  0  0  0  0  0
  -37.0400  -16.2510   13.8370 C   0  0  0  0  0  3  0  0  0  0  0  0
  -38.4030  -16.9380   14.0660 C   0  0  0  0  0  2  0  0  0  0  0  0
  -38.4920  -18.1090   13.1680 N   0  0  0  0  0  0  0  0  0  0  0  0
  -38.2330  -20.3360   12.7310 O   0  0  0  0  0  0  0  0  0  0  0  0
  -38.5020  -19.6130   14.8470 N   0  0  0  0  0  0  0  0  0  0  0  0
  -38.6050  -18.7660   15.3810 H   0  0  0  0  0  0  0  0  0  0  0  0
  -35.9940  -14.8670   15.7430 C   0  0  0  0  0  0  0  0  0  0  0  0
  -36.1990  -13.5760   16.1540 C   0  0  0  0  0  0  0  0  0  0  0  0
  -37.2130  -13.0460   15.3010 C   0  0  0  0  0  0  0  0  0  0  0  0
  -36.8740  -15.0730   14.6910 N   0  0  0  0  0  0  0  0  0  0  0  0
  -37.6450  -13.9800   14.4630 N   0  0  0  0  0  0  0  0  0  0  0  0
  -37.7620  -11.6870   15.1950 C   0  0  0  0  0  0  0  0  0  0  0  0
  -39.1520  -11.4470   15.2440 C   0  0  0  0  0  3  0  0  0  0  0  0
  -39.6540  -10.1300   15.1580 C   0  0  0  0  0  3  0  0  0  0  0  0
  -38.7640   -9.0380   15.0270 C   0  0  0  0  0  0  0  0  0  0  0  0
  -37.3810   -9.2850   14.9550 C   0  0  0  0  0  3  0  0  0  0  0  0
  -36.8830  -10.5970   15.0360 C   0  0  0  0  0  3  0  0  0  0  0  0
  -39.1610   -7.7280   14.9110 O   0  0  0  0  0  0  0  0  0  0  0  0
  -40.3660   -7.2950   15.4020 C   0  0  0  0  0  0  0  0  0  0  0  0
  -40.7160   -7.4470   16.7630 C   0  0  0  0  0  3  0  0  0  0  0  0
  -41.9350   -6.9260   17.2380 C   0  0  0  0  0  3  0  0  0  0  0  0
  -42.8020   -6.2460   16.3610 C   0  0  0  0  0  0  0  0  0  0  0  0
  -42.4520   -6.0880   15.0090 C   0  0  0  0  0  3  0  0  0  0  0  0
  -41.2370   -6.6100   14.5320 C   0  0  0  0  0  0  0  0  0  0  0  0
  -40.8970   -6.4370   13.2320 F   0  0  0  0  0  0  0  0  0  0  0  0
  -43.9690   -5.7380   16.8200 F   0  0  0  0  0  0  0  0  0  0  0  0
  -35.4310  -12.8440   17.2170 C   0  0  0  0  0  0  0  0  0  0  0  0
  -36.0840  -11.9240   17.9200 N   0  0  0  0  0  0  0  0  0  0  0  0
  -34.2560  -13.1150   17.4590 O   0  0  0  0  0  0  0  0  0  0  0  0
  -37.0530  -11.7150   17.7340 H   0  0  0  0  0  0  0  0  0  0  0  0
  -35.6070  -11.4230   18.6570 H   0  0  0  0  0  0  0  0  0  0  0  0
  -35.1300  -15.8720   16.1620 N   0  0  0  0  0  0  0  0  0  0  0  0
  -34.4450  -15.7290   16.8950 H   0  0  0  0  0  0  0  0  0  0  0  0
  -35.0710  -16.7890   15.7370 H   0  0  0  0  0  0  0  0  0  0  0  0
  -40.3450  -21.6360   17.5240 C   0  0  0  0  0  1  0  0  0  0  0  0
  -39.3410  -19.3360   17.6080 C   0  0  0  0  0  1  0  0  0  0  0  0
  -41.1780  -19.8710   15.9960 C   0  0  0  0  0  1  0  0  0  0  0  0
  -39.8990  -20.4310   16.6690 C   0  0  1  0  0  0  0  0  0  0  0  0
  -31.8270  -23.8370   17.5080 C   0  0  0  0  0  0  0  0  0  0  0  0
  -31.6420  -22.5660   17.1020 N   0  0  0  0  0  0  0  0  0  0  0  0
  -31.9280  -24.7740   16.7150 O   0  0  0  0  0  0  0  0  0  0  0  0
  -31.5870  -21.8340   17.7930 H   0  0  0  0  0  0  0  0  0  0  0  0
  -32.0210  -24.1010   19.0130 C   0  0  0  0  0  3  0  0  0  0  0  0
  -33.4540  -23.9140   19.2950 N   0  0  0  0  0  4  0  0  0  0  0  0
  -33.7290  -22.9690   19.1130 H   0  0  0  0  0  0  0  0  0  0  0  0
  -33.6650  -24.1230   20.2550 H   0  0  0  0  0  0  0  0  0  0  0  0
  -33.9870  -24.5250   18.6970 H   0  0  0  0  0  0  0  0  0  0  0  0
  -31.5410  -25.5180   19.4800 C   0  0  0  0  0  2  0  0  0  0  0  0
  -30.2300  -25.5510   20.3050 C   0  0  0  0  0  2  0  0  0  0  0  0
  -29.8560  -26.9240   20.4860 O   0  0  0  0  0  0  0  0  0  0  0  0
  -27.3820  -31.8110   25.0450 C   0  0  0  0  0  0  0  0  0  0  0  0
  -28.8520  -27.2560   21.3740 C   0  0  0  0  0  0  0  0  0  0  0  0
  -26.2020  -29.6370   25.0570 C   0  0  0  0  0  3  0  0  0  0  0  0
  -26.7850  -28.0430   23.1500 C   0  0  0  0  0  0  0  0  0  0  0  0
  -27.4000  -30.4680   22.9490 C   0  0  0  0  0  2  0  0  0  0  0  0
  -27.6250  -29.0120   22.5780 C   0  0  0  0  0  0  0  0  0  0  0  0
  -28.6530  -28.6190   21.6930 C   0  0  0  0  0  3  0  0  0  0  0  0
  -27.9990  -26.2930   21.9640 C   0  0  0  0  0  3  0  0  0  0  0  0
  -26.9690  -26.6830   22.8440 C   0  0  0  0  0  3  0  0  0  0  0  0
  -25.7050  -28.5280   24.0860 C   0  0  0  0  0  2  0  0  0  0  0  0
  -27.0340  -30.6770   24.3700 N   0  0  0  0  0  0  0  0  0  0  0  0
  -26.9830  -32.0160   26.2020 O   0  0  0  0  0  0  0  0  0  0  0  0
  -26.9270  -28.9550   26.2380 C   0  0  0  0  0  0  0  0  0  0  0  0
  -26.1460  -28.4690   27.2170 N   0  0  0  0  0  0  0  0  0  0  0  0
  -28.1570  -28.8540   26.2530 O   0  0  0  0  0  0  0  0  0  0  0  0
  -25.1470  -28.5990   27.1380 H   0  0  0  0  0  0  0  0  0  0  0  0
  -25.0370  -26.8840   30.2690 C   0  0  0  0  0  0  0  0  0  0  0  0
  -26.6050  -27.7500   28.4050 C   0  0  0  0  0  3  0  0  0  0  0  0
  -26.8750  -26.2620   28.0820 C   0  0  0  0  0  2  0  0  0  0  0  0
  -25.6680  -25.3550   28.3520 C   0  0  0  0  0  2  0  0  0  0  0  0
  -25.2460  -25.4460   29.8200 C   0  0  0  0  0  2  0  0  0  0  0  0
  -25.6610  -27.9660   29.5930 C   0  0  0  0  0  0  0  0  0  0  0  0
  -25.3990  -29.2840   30.0250 C   0  0  0  0  0  3  0  0  0  0  0  0
  -24.5410  -29.5330   31.1100 C   0  0  0  0  0  3  0  0  0  0  0  0
  -23.9460  -28.4570   31.7910 C   0  0  0  0  0  3  0  0  0  0  0  0
  -24.1960  -27.1360   31.3730 C   0  0  0  0  0  3  0  0  0  0  0  0
  -28.2710  -32.9140   24.3850 C   0  0  0  0  0  3  0  0  0  0  0  0
  -29.7670  -32.8910   24.8870 C   0  0  1  0  0  0  0  0  0  0  0  0
  -29.9040  -32.8610   26.4280 C   0  0  0  0  0  1  0  0  0  0  0  0
  -30.5190  -31.6640   24.3190 C   0  0  0  0  0  1  0  0  0  0  0  0
  -30.5150  -34.1420   24.3610 C   0  0  0  0  0  1  0  0  0  0  0  0
  -27.6480  -34.2100   24.6690 N   0  0  0  0  0  0  0  0  0  0  0  0
  -27.0900  -35.0030   23.7460 C   0  0  0  0  0  0  0  0  0  0  0  0
  -27.1100  -34.7460   22.5390 O   0  0  0  0  0  0  0  0  0  0  0  0
  -27.5490  -34.4610   25.6430 H   0  0  0  0  0  0  0  0  0  0  0  0
  -24.8880  -36.1840   24.0190 C   0  0  0  0  0  1  0  0  0  0  0  0
  -26.4050  -36.2910   24.2390 C   0  0  0  0  0  3  0  0  0  0  0  0
  -28.2700  -37.8700   23.9920 C   0  0  0  0  0  1  0  0  0  0  0  0
  -26.9110  -37.5170   23.5870 N   0  0  0  0  0  0  0  0  0  0  0  0
  -26.3040  -38.3070   23.7930 H   0  0  0  0  0  0  0  0  0  0  0  0
  2  1  1  0
  2 57  1  0
  3  2  1  0
  4  6  1  0
  4  3  2  0
  5  9  1  0
  5  3  1  0
  7  4  1  0
  8  5  1  0
  9 10  1  0
 11 10  1  0
 11 12  1  0
 13 12  1  0
 13 55  1  0
 14 22  1  0
 15 20  1  0
 16 15  1  0
 16 17  1  0
 18 17  1  0
 18 19  1  0
 18 27  1  0
 20 14  1  0
 20 19  1  0
 21 14  2  0
 22 23  1  0
 22 13  1  0
 24 25  2  0
 24 49  1  0
 25 44  1  0
 26 25  1  0
 27 24  1  0
 28 27  1  0
 28 26  2  0
 29 30  1  0
 29 26  1  0
 31 30  2  0
 32 31  1  0
 33 32  2  0
 33 34  1  0
 34 29  2  0
 35 32  1  0
 35 36  1  0
 36 37  1  0
 37 38  2  0
 39 43  1  0
 39 38  1  0
 40 39  2  0
 41 40  1  0
 41 36  2  0
 42 41  1  0
 44 46  2  0
 44 45  1  0
 45 48  1  0
 47 45  1  0
 49 50  1  0
 51 49  1  0
 55 54  1  6
 55 52  1  0
 55 53  1  0
 56 60  1  0
 57 56  1  0
 57 59  1  0
 58 56  2  0
 60 61  1  0
 60 65  1  0
 61 63  1  0
 62 61  1  0
 64 61  1  0
 65 66  1  0
 66 67  1  0
 67 69  1  0
 68 79  2  0
 69 74  2  0
 69 75  1  0
 70 80  1  0
 71 77  1  0
 72 78  1  0
 73 72  1  0
 73 71  2  0
 74 73  1  0
 75 76  2  0
 76 71  1  0
 77 70  1  0
 78 68  1  0
 78 70  1  0
 80 82  2  0
 80 81  1  0
 83 81  1  0
 84 93  1  0
 85 81  1  0
 85 89  1  0
 86 87  1  0
 86 85  1  0
 87 88  1  0
 88 84  1  0
 89 90  1  0
 89 84  2  0
 90 91  2  0
 91 92  1  0
 93 92  2  0
 94 99  1  0
 94 95  1  0
 94 68  1  0
 95 96  1  1
 97 95  1  0
 98 95  1  0
 99102  1  0
100104  1  0
100 99  1  0
101100  2  0
104103  1  0
106107  1  0
106105  1  0
106104  1  0
M  ISO  4  14 100  22 100  66 101  67 101
M  END
>  <TORSDO>  (10) 
F 28

>  <SCORE>  (10) 
-3.760

>  <name>  (10) 
10

>  <ligand_id>  (10) 
10

>  <original_smiles>  (10) 
[H]c1c([H])c([H])c2c(c1[H])C([H])([H])C([H])([H])C([H])([H])C2([H])N([H])C(=O)C1([H])N(C(=O)C([H])(N([H])C(=O)C([H])(N([H])C([H])([H])[H])C([H])([H])[H])C(C([H])([H])[H])(C([H])([H])[H])C([H])([H])[H])C([H])([H])c2c([H])c(OC([H])([H])C([H])([H])C([H])(C(=O)N([H])C([H])(C(N([H])[H])=[N+]([H])C([H])([H])C([H])([H])C([H])([H])C([H])([H])C([H])(N([H])C(=O)N3C([H])([H])C([H])([H])C([H])([H])C([H])(n4nc(-c5c([H])c([H])c(Oc6c([H])c([H])c(F)c([H])c6F)c([H])c5[H])c(C(=O)N([H])[H])c4N([H])[H])C3([H])[H])C(C([H])([H])[H])(C([H])([H])[H])C([H])([H])[H])C([H])([H])[H])[N+]([H])([H])[H])c([H])c([H])c2C1([H])[H]

>  <smiles>  (10) 
[H]c1c([H])c([H])c2c(c1[H])C([H])([H])C([H])([H])C([H])([H])C2([H])N([H])C(=O)C1([H])N(C(=O)C([H])(N([H])C(=O)C([H])(N([H])C([H])([H])[H])C([H])([H])[H])C(C([H])([H])[H])(C([H])([H])[H])C([H])([H])[H])C([H])([H])c2c([H])c(OC([H])([H])C([H])([H])C([H])(C(=O)N([H])C([H])(C(N([H])[H])=[N+]([H])C([H])([H])C([H])([H])C([H])([H])C([H])([H])C([H])(N([H])C(=O)N3C([H])([H])C([H])([H])C([H])([H])C([H])(n4nc(-c5c([H])c([H])c(Oc6c([H])c([H])c(F)c([H])c6F)c([H])c5[H])c(C(=O)N([H])[H])c4N([H])[H])C3([H])[H])C(C([H])([H])[H])(C([H])([H])[H])C([H])([H])[H])C([H])([H])[H])[N+]([H])([H])[H])c([H])c([H])c2C1([H])[H]

$$$$
11:0:0
     RDKit          3D

 89 93  0  0  1  0  0  0  0  0999 V2000
  -28.7600  -21.3640   20.4960 C   0  0  0  0  0  1  0  0  0  0  0  0
  -30.2410  -16.2050   20.0680 C   0  0  0  0  0  0  0  0  0  0  0  0
  -30.4260  -13.5520   19.3020 C   0  0  0  0  0  2  0  0  0  0  0  0
  -29.5500  -12.9630   18.1430 C   0  0  0  0  0  2  0  0  0  0  0  0
  -28.1730  -12.5200   18.6510 C   0  0  0  0  0  2  0  0  0  0  0  0
  -27.6340  -13.5410   19.6720 C   0  0  0  0  0  3  0  0  0  0  0  0
  -28.6660  -14.0170   20.7370 C   0  0  0  0  0  2  0  0  0  0  0  0
  -29.7580  -14.7650   20.0350 N   0  0  0  0  0  0  0  0  0  0  0  0
  -31.4700  -16.0780   19.8120 O   0  0  0  0  0  0  0  0  0  0  0  0
  -29.5710  -19.5570   20.0140 C   0  0  0  0  0  2  0  0  0  0  0  0
  -29.4530  -17.9070   20.2410 N   0  0  0  0  0  0  0  0  0  0  0  0
  -30.6400  -19.8280   19.2520 N   0  0  0  0  0  0  0  0  0  0  0  0
  -28.5150  -17.8190   20.5950 H   0  0  0  0  0  0  0  0  0  0  0  0
  -30.8820  -20.7810   19.0270 H   0  0  0  0  0  0  0  0  0  0  0  0
  -31.2390  -19.0990   18.8980 H   0  0  0  0  0  0  0  0  0  0  0  0
  -25.3130  -14.0300   20.5460 C   0  0  0  0  0  0  0  0  0  0  0  0
  -24.2660  -13.2440   20.9280 C   0  0  0  0  0  0  0  0  0  0  0  0
  -24.7300  -11.8940   20.8360 C   0  0  0  0  0  0  0  0  0  0  0  0
  -26.3450  -13.1680   20.2370 N   0  0  0  0  0  0  0  0  0  0  0  0
  -26.0120  -11.8700   20.4750 N   0  0  0  0  0  0  0  0  0  0  0  0
  -24.0000  -10.6300   21.0140 C   0  0  0  0  0  0  0  0  0  0  0  0
  -24.4370   -9.6420   21.9240 C   0  0  0  0  0  3  0  0  0  0  0  0
  -23.7000   -8.4490   22.0960 C   0  0  0  0  0  3  0  0  0  0  0  0
  -22.5110   -8.2360   21.3590 C   0  0  0  0  0  0  0  0  0  0  0  0
  -22.0910   -9.2130   20.4390 C   0  0  0  0  0  3  0  0  0  0  0  0
  -22.8280  -10.3970   20.2650 C   0  0  0  0  0  3  0  0  0  0  0  0
  -21.7450   -7.0980   21.4410 O   0  0  0  0  0  0  0  0  0  0  0  0
  -21.6910   -6.3470   22.5890 C   0  0  0  0  0  0  0  0  0  0  0  0
  -21.2320   -6.8840   23.8100 C   0  0  0  0  0  3  0  0  0  0  0  0
  -21.1280   -6.0600   24.9480 C   0  0  0  0  0  3  0  0  0  0  0  0
  -21.4720   -4.6980   24.8650 C   0  0  0  0  0  0  0  0  0  0  0  0
  -21.9250   -4.1590   23.6480 C   0  0  0  0  0  3  0  0  0  0  0  0
  -22.0300   -4.9800   22.5130 C   0  0  0  0  0  0  0  0  0  0  0  0
  -22.4470   -4.4510   21.3370 F   0  0  0  0  0  0  0  0  0  0  0  0
  -21.3660   -3.9030   25.9560 F   0  0  0  0  0  0  0  0  0  0  0  0
  -22.8830  -13.7190   21.2550 C   0  0  0  0  0  0  0  0  0  0  0  0
  -22.1780  -13.0050   22.1230 N   0  0  0  0  0  0  0  0  0  0  0  0
  -22.4400  -14.7630   20.7770 O   0  0  0  0  0  0  0  0  0  0  0  0
  -22.5520  -12.1610   22.5310 H   0  0  0  0  0  0  0  0  0  0  0  0
  -21.2490  -13.3060   22.3850 H   0  0  0  0  0  0  0  0  0  0  0  0
  -25.4680  -15.4060   20.3970 N   0  0  0  0  0  0  0  0  0  0  0  0
  -24.6910  -16.0450   20.5240 H   0  0  0  0  0  0  0  0  0  0  0  0
  -26.2730  -15.8400   19.9680 H   0  0  0  0  0  0  0  0  0  0  0  0
  -27.4580  -20.9750   21.0680 N   0  0  0  0  0  4  0  0  0  0  0  0
  -26.8160  -20.7080   20.3430 H   0  0  0  0  0  0  0  0  0  0  0  0
  -27.0540  -21.7430   21.5740 H   0  0  0  0  0  0  0  0  0  0  0  0
  -27.5570  -20.2120   21.7120 H   0  0  0  0  0  0  0  0  0  0  0  0
  -28.4540  -23.3880   19.9240 C   0  0  0  0  0 15  0  0  0  0  0  0
  -28.2420  -25.2440   20.3490 O   0  0  0  0  0  1  0  0  0  0  0  0
  -24.6190  -31.8230   23.1570 C   0  0  0  0  0  0  0  0  0  0  0  0
  -27.2850  -26.5670   20.2210 C   0  0  0  0  0  0  0  0  0  0  0  0
  -23.4970  -30.4000   21.4980 C   0  0  0  0  0  3  0  0  0  0  0  0
  -25.0030  -28.7320   20.1180 C   0  0  0  0  0  0  0  0  0  0  0  0
  -26.0860  -30.5110   21.4570 C   0  0  0  0  0  2  0  0  0  0  0  0
  -26.1840  -29.0530   20.7960 C   0  0  0  0  0  0  0  0  0  0  0  0
  -27.2880  -28.0050   20.8140 C   0  0  0  0  0  3  0  0  0  0  0  0
  -26.0680  -26.5300   19.4690 C   0  0  0  0  0  3  0  0  0  0  0  0
  -25.0020  -27.5010   19.4300 C   0  0  0  0  0  3  0  0  0  0  0  0
  -23.7880  -29.6910   20.1380 C   0  0  0  0  0  2  0  0  0  0  0  0
  -24.7590  -30.9530   22.0900 N   0  0  0  0  0  0  0  0  0  0  0  0
  -23.5070  -32.1120   23.6340 O   0  0  0  0  0  0  0  0  0  0  0  0
  -22.7550  -29.4320   22.4610 C   0  0  0  0  0  0  0  0  0  0  0  0
  -21.4200  -29.2910   22.3310 N   0  0  0  0  0  0  0  0  0  0  0  0
  -23.3980  -28.8020   23.3030 O   0  0  0  0  0  0  0  0  0  0  0  0
  -20.9470  -29.8490   21.6350 H   0  0  0  0  0  0  0  0  0  0  0  0
  -18.0200  -28.1000   22.8650 C   0  0  0  0  0  0  0  0  0  0  0  0
  -20.5880  -28.3450   23.0910 C   0  0  0  0  0  3  0  0  0  0  0  0
  -20.6660  -26.9250   22.4800 C   0  0  0  0  0  2  0  0  0  0  0  0
  -19.5480  -26.6400   21.4720 C   0  0  0  0  0  2  0  0  0  0  0  0
  -18.1780  -26.7730   22.1410 C   0  0  0  0  0  2  0  0  0  0  0  0
  -19.1520  -28.8450   23.2970 C   0  0  0  0  0  0  0  0  0  0  0  0
  -18.9460  -30.0840   23.9430 C   0  0  0  0  0  3  0  0  0  0  0  0
  -17.6440  -30.5790   24.1540 C   0  0  0  0  0  3  0  0  0  0  0  0
  -16.5300  -29.8320   23.7340 C   0  0  0  0  0  3  0  0  0  0  0  0
  -16.7190  -28.5930   23.0960 C   0  0  0  0  0  3  0  0  0  0  0  0
  -25.8460  -32.5070   23.8330 C   0  0  0  0  0  3  0  0  0  0  0  0
  -26.3040  -31.7810   25.1590 C   0  0  1  0  0  0  0  0  0  0  0  0
  -25.1620  -31.5620   26.1800 C   0  0  0  0  0  1  0  0  0  0  0  0
  -26.9210  -30.3990   24.8540 C   0  0  0  0  0  1  0  0  0  0  0  0
  -27.4130  -32.6080   25.8540 C   0  0  0  0  0  1  0  0  0  0  0  0
  -25.4920  -33.9110   24.1400 N   0  0  0  0  0  0  0  0  0  0  0  0
  -25.8380  -34.9800   23.4090 C   0  0  0  0  0  0  0  0  0  0  0  0
  -26.5400  -34.8900   22.4000 O   0  0  0  0  0  0  0  0  0  0  0  0
  -24.8660  -34.0520   24.9200 H   0  0  0  0  0  0  0  0  0  0  0  0
  -24.1110  -36.7780   23.0280 C   0  0  0  0  0  1  0  0  0  0  0  0
  -25.3330  -36.3680   23.8650 C   0  0  0  0  0  3  0  0  0  0  0  0
  -27.4320  -37.2770   24.7640 C   0  0  0  0  0  1  0  0  0  0  0  0
  -26.3610  -37.4300   23.7840 N   0  0  0  0  0  0  0  0  0  0  0  0
  -25.9420  -38.3480   23.9130 H   0  0  0  0  0  0  0  0  0  0  0  0
  1 44  1  0
  2 11  1  0
  3  8  1  0
  4  5  1  0
  4  3  1  0
  6  5  1  0
  6 19  1  0
  6  7  1  0
  8  2  1  0
  8  7  1  0
  9  2  2  0
 10 11  1  0
 11 13  1  0
 12 10  1  0
 14 12  1  0
 15 12  1  0
 16 17  2  0
 17 36  1  0
 18 17  1  0
 18 21  1  0
 19 20  1  0
 19 16  1  0
 20 18  2  0
 21 22  1  0
 22 23  2  0
 24 27  1  0
 24 23  1  0
 25 24  2  0
 26 25  1  0
 26 21  2  0
 27 28  1  0
 28 29  1  0
 29 30  2  0
 31 30  1  0
 31 35  1  0
 32 31  2  0
 33 28  2  0
 33 32  1  0
 34 33  1  0
 36 37  1  0
 37 40  1  0
 37 39  1  0
 38 36  2  0
 41 42  1  0
 41 16  1  0
 43 41  1  0
 44 46  1  0
 44 47  1  0
 45 44  1  0
 50 61  2  0
 51 49  1  0
 51 56  1  0
 52 60  1  0
 52 62  1  0
 53 59  1  0
 53 55  1  0
 54 60  1  0
 55 56  2  0
 55 54  1  0
 57 51  2  0
 58 57  1  0
 58 53  2  0
 59 52  1  0
 60 50  1  0
 62 64  2  0
 63 62  1  0
 65 63  1  0
 66 75  2  0
 66 71  1  0
 67 63  1  0
 67 71  1  0
 68 67  1  0
 69 70  1  0
 69 68  1  0
 70 66  1  0
 71 72  2  0
 72 73  1  0
 74 73  2  0
 75 74  1  0
 76 50  1  0
 76 81  1  0
 76 77  1  0
 77 80  1  1
 77 78  1  0
 79 77  1  0
 81 84  1  0
 82 86  1  0
 82 81  1  0
 83 82  2  0
 86 85  1  0
 88 86  1  0
 88 89  1  0
 88 87  1  0
M  ISO  4   2 100  11 100  48 101  49 101
M  END
>  <TORSDO>  (11) 
F 18

>  <SCORE>  (11) 
-15.954

>  <name>  (11) 
11

>  <ligand_id>  (11) 
11

>  <original_smiles>  (11) 
[H]c1c([H])c([H])c2c(c1[H])C([H])([H])C([H])([H])C([H])([H])C2([H])N([H])C(=O)C1([H])N(C(=O)C([H])(N([H])C(=O)C([H])(N([H])C([H])([H])[H])C([H])([H])[H])C(C([H])([H])[H])(C([H])([H])[H])C([H])([H])[H])C([H])([H])c2c([H])c(OC([H])([H])C([H])(C(N([H])C(=O)N3C([H])([H])C([H])([H])C([H])([H])C([H])(n4nc(-c5c([H])c([H])c(Oc6c([H])c([H])c(F)c([H])c6F)c([H])c5[H])c(C(=O)N([H])[H])c4N([H])[H])C3([H])[H])=[N+]([H])[H])[N+]([H])([H])[H])c([H])c([H])c2C1([H])[H]

>  <smiles>  (11) 
[H]c1c([H])c([H])c2c(c1[H])C([H])([H])C([H])([H])C([H])([H])C2([H])N([H])C(=O)C1([H])N(C(=O)C([H])(N([H])C(=O)C([H])(N([H])C([H])([H])[H])C([H])([H])[H])C(C([H])([H])[H])(C([H])([H])[H])C([H])([H])[H])C([H])([H])c2c([H])c(OC([H])([H])C([H])(C(N([H])C(=O)N3C([H])([H])C([H])([H])C([H])([H])C([H])(n4nc(-c5c([H])c([H])c(Oc6c([H])c([H])c(F)c([H])c6F)c([H])c5[H])c(C(=O)N([H])[H])c4N([H])[H])C3([H])[H])=[N+]([H])[H])[N+]([H])([H])[H])c([H])c([H])c2C1([H])[H]

$$$$
12:0:0
     RDKit          3D

 91 99  0  0  1  0  0  0  0  0999 V2000
  -28.4800  -23.4930   19.5940 C   0  0  0  0  0  3  0  0  0  0  0  0
  -28.8480  -20.8970   20.4320 C   0  0  0  0  0  0  0  0  0  0  0  0
  -29.2510  -22.1830   20.0210 N   0  0  0  0  0  0  0  0  0  0  0  0
  -27.8350  -20.8270   21.1300 O   0  0  0  0  0  0  0  0  0  0  0  0
  -30.1760  -22.1630   19.6120 H   0  0  0  0  0  0  0  0  0  0  0  0
  -28.5320  -18.5260   19.5870 C   0  0  0  0  0  2  0  0  0  0  0  0
  -29.5860  -19.5270   19.9420 C   0  0  0  0  0  3  0  0  0  0  0  0
  -29.5930  -17.9090   20.4680 C   0  0  0  0  0  3  0  0  0  0  0  0
  -29.8900  -16.4070   19.8060 C   0  0  0  0  0  2  0  0  0  0  0  0
  -30.7090  -15.0380   20.2560 C   0  0  0  0  0  0  0  0  0  0  0  0
  -30.6060  -12.6720   19.3890 C   0  0  0  0  0  2  0  0  0  0  0  0
  -29.6880  -12.6440   18.1430 C   0  0  0  0  0  2  0  0  0  0  0  0
  -28.2170  -12.4290   18.5510 C   0  0  0  0  0  2  0  0  0  0  0  0
  -27.7890  -13.3620   19.7110 C   0  0  0  0  0  3  0  0  0  0  0  0
  -28.8330  -13.4000   20.8480 C   0  0  0  0  0  2  0  0  0  0  0  0
  -30.1290  -13.7730   20.2670 N   0  0  0  0  0  0  0  0  0  0  0  0
  -31.9390  -15.0800   20.1540 O   0  0  0  0  0  0  0  0  0  0  0  0
  -25.4090  -13.9570   20.4380 C   0  0  0  0  0  0  0  0  0  0  0  0
  -24.3390  -13.1870   20.7980 C   0  0  0  0  0  0  0  0  0  0  0  0
  -24.8010  -11.8360   20.7810 C   0  0  0  0  0  0  0  0  0  0  0  0
  -26.4500  -13.0730   20.2060 N   0  0  0  0  0  0  0  0  0  0  0  0
  -26.0940  -11.7920   20.4820 N   0  0  0  0  0  0  0  0  0  0  0  0
  -24.0710  -10.5760   20.9680 C   0  0  0  0  0  0  0  0  0  0  0  0
  -24.4760   -9.6230   21.9280 C   0  0  0  0  0  3  0  0  0  0  0  0
  -23.7460   -8.4280   22.1010 C   0  0  0  0  0  3  0  0  0  0  0  0
  -22.5990   -8.1770   21.3110 C   0  0  0  0  0  0  0  0  0  0  0  0
  -22.2170   -9.1170   20.3370 C   0  0  0  0  0  3  0  0  0  0  0  0
  -22.9480  -10.3030   20.1630 C   0  0  0  0  0  3  0  0  0  0  0  0
  -21.8420   -7.0320   21.3910 O   0  0  0  0  0  0  0  0  0  0  0  0
  -21.7330   -6.3230   22.5610 C   0  0  0  0  0  0  0  0  0  0  0  0
  -21.2160   -6.9030   23.7390 C   0  0  0  0  0  3  0  0  0  0  0  0
  -21.0580   -6.1200   24.8990 C   0  0  0  0  0  3  0  0  0  0  0  0
  -21.4050   -4.7550   24.8800 C   0  0  0  0  0  0  0  0  0  0  0  0
  -21.9150   -4.1730   23.7070 C   0  0  0  0  0  3  0  0  0  0  0  0
  -22.0760   -4.9550   22.5490 C   0  0  0  0  0  0  0  0  0  0  0  0
  -22.5480   -4.3850   21.4140 F   0  0  0  0  0  0  0  0  0  0  0  0
  -21.2460   -4.0000   25.9930 F   0  0  0  0  0  0  0  0  0  0  0  0
  -22.9370  -13.6680   21.0480 C   0  0  0  0  0  0  0  0  0  0  0  0
  -22.1950  -12.9710   21.9010 N   0  0  0  0  0  0  0  0  0  0  0  0
  -22.5090  -14.6940   20.5200 O   0  0  0  0  0  0  0  0  0  0  0  0
  -22.5580  -12.1420   22.3450 H   0  0  0  0  0  0  0  0  0  0  0  0
  -21.2540  -13.2710   22.1140 H   0  0  0  0  0  0  0  0  0  0  0  0
  -25.5820  -15.3280   20.2620 N   0  0  0  0  0  0  0  0  0  0  0  0
  -24.8220  -15.9920   20.3720 H   0  0  0  0  0  0  0  0  0  0  0  0
  -26.4460  -15.7610   19.9680 H   0  0  0  0  0  0  0  0  0  0  0  0
  -27.9560  -24.7300   17.3800 C   0  0  0  0  0  1  0  0  0  0  0  0
  -30.3320  -24.5440   18.1680 C   0  0  0  0  0  1  0  0  0  0  0  0
  -29.1110  -22.5580   17.2680 C   0  0  0  0  0  1  0  0  0  0  0  0
  -28.9620  -23.8350   18.1350 C   0  0  1  0  0  0  0  0  0  0  0  0
  -28.3730  -24.8690   20.5480 C   0  0  0  0  0  2  0  0  0  0  0  0
  -28.3650  -26.3680   20.1580 O   0  0  0  0  0  0  0  0  0  0  0  0
  -24.5710  -31.9120   23.1700 C   0  0  0  0  0  0  0  0  0  0  0  0
  -27.2360  -27.2460   20.1910 C   0  0  0  0  0  0  0  0  0  0  0  0
  -23.3990  -30.5010   21.5210 C   0  0  0  0  0  3  0  0  0  0  0  0
  -24.8730  -28.9250   20.1290 C   0  0  0  0  0  0  0  0  0  0  0  0
  -25.9470  -30.7990   21.3760 C   0  0  0  0  0  2  0  0  0  0  0  0
  -26.0400  -29.4050   20.7380 C   0  0  0  0  0  0  0  0  0  0  0  0
  -27.2240  -28.5840   20.7440 C   0  0  0  0  0  3  0  0  0  0  0  0
  -26.0380  -26.8380   19.5730 C   0  0  0  0  0  3  0  0  0  0  0  0
  -24.8830  -27.6520   19.5330 C   0  0  0  0  0  3  0  0  0  0  0  0
  -23.6370  -29.8090   20.1520 C   0  0  0  0  0  2  0  0  0  0  0  0
  -24.6580  -31.0920   22.0790 N   0  0  0  0  0  0  0  0  0  0  0  0
  -23.4780  -32.1900   23.6840 O   0  0  0  0  0  0  0  0  0  0  0  0
  -22.7180  -29.4940   22.4810 C   0  0  0  0  0  0  0  0  0  0  0  0
  -21.3890  -29.3330   22.3560 N   0  0  0  0  0  0  0  0  0  0  0  0
  -23.3870  -28.8590   23.3010 O   0  0  0  0  0  0  0  0  0  0  0  0
  -20.9040  -29.8990   21.6720 H   0  0  0  0  0  0  0  0  0  0  0  0
  -17.9950  -28.1910   22.8890 C   0  0  0  0  0  0  0  0  0  0  0  0
  -20.5630  -28.3980   23.1230 C   0  0  0  0  0  3  0  0  0  0  0  0
  -20.6270  -26.9760   22.5200 C   0  0  0  0  0  2  0  0  0  0  0  0
  -19.5040  -26.6930   21.5170 C   0  0  0  0  0  2  0  0  0  0  0  0
  -18.1350  -26.8510   22.1850 C   0  0  0  0  0  2  0  0  0  0  0  0
  -19.1340  -28.9230   23.3150 C   0  0  0  0  0  0  0  0  0  0  0  0
  -18.9480  -30.1770   23.9350 C   0  0  0  0  0  3  0  0  0  0  0  0
  -17.6550  -30.6980   24.1340 C   0  0  0  0  0  3  0  0  0  0  0  0
  -16.5300  -29.9600   23.7230 C   0  0  0  0  0  3  0  0  0  0  0  0
  -16.7020  -28.7080   23.1060 C   0  0  0  0  0  3  0  0  0  0  0  0
  -25.8380  -32.5560   23.8110 C   0  0  0  0  0  3  0  0  0  0  0  0
  -25.5140  -33.9540   24.1360 N   0  0  0  0  0  0  0  0  0  0  0  0
  -25.8540  -35.0110   23.3840 C   0  0  0  0  0  0  0  0  0  0  0  0
  -26.5390  -34.9120   22.3630 O   0  0  0  0  0  0  0  0  0  0  0  0
  -24.9050  -34.1050   24.9250 H   0  0  0  0  0  0  0  0  0  0  0  0
  -24.1340  -36.8080   23.0000 C   0  0  0  0  0  1  0  0  0  0  0  0
  -25.3560  -36.3980   23.8370 C   0  0  0  0  0  3  0  0  0  0  0  0
  -27.4660  -37.2850   24.7260 C   0  0  0  0  0  1  0  0  0  0  0  0
  -26.3900  -37.4520   23.7540 N   0  0  0  0  0  0  0  0  0  0  0  0
  -25.9780  -38.3720   23.8920 H   0  0  0  0  0  0  0  0  0  0  0  0
  -26.3380  -31.7930   25.1000 C   0  0  1  0  0  0  0  0  0  0  0  0
  -25.2290  -31.5540   26.1520 C   0  0  0  0  0  1  0  0  0  0  0  0
  -26.9350  -30.4170   24.7270 C   0  0  0  0  0  1  0  0  0  0  0  0
  -27.4730  -32.5970   25.7780 C   0  0  0  0  0  1  0  0  0  0  0  0
  1  3  1  0
  1 50  1  0
  2  4  2  0
  3  2  1  0
  5  3  1  0
  6  7  1  0
  6  8  1  0
  7  2  1  0
  7  8  1  0
  8  9  1  0
  9 10  1  0
 10 16  1  0
 11 16  1  0
 12 13  1  0
 12 11  1  0
 14 13  1  0
 14 21  1  0
 14 15  1  0
 16 15  1  0
 17 10  2  0
 18 19  2  0
 19 38  1  0
 20 19  1  0
 20 23  1  0
 21 18  1  0
 21 22  1  0
 22 20  2  0
 23 24  1  0
 24 25  2  0
 26 29  1  0
 26 25  1  0
 27 26  2  0
 28 27  1  0
 28 23  2  0
 29 30  1  0
 30 31  1  0
 31 32  2  0
 33 32  1  0
 33 37  1  0
 34 33  2  0
 35 30  2  0
 35 34  1  0
 36 35  1  0
 38 39  1  0
 39 42  1  0
 39 41  1  0
 40 38  2  0
 43 44  1  0
 43 18  1  0
 45 43  1  0
 49 46  1  6
 48 49  1  0
 49 47  1  0
 49  1  1  0
 51 53  1  0
 51 50  1  0
 52 63  2  0
 53 58  1  0
 54 62  1  0
 54 64  1  0
 55 61  1  0
 55 57  1  0
 56 62  1  0
 57 58  2  0
 57 56  1  0
 59 53  2  0
 60 59  1  0
 60 55  2  0
 61 54  1  0
 62 52  1  0
 64 66  2  0
 65 64  1  0
 67 65  1  0
 68 77  2  0
 68 73  1  0
 69 65  1  0
 69 73  1  0
 70 69  1  0
 71 72  1  0
 71 70  1  0
 72 68  1  0
 73 74  2  0
 74 75  1  0
 76 75  2  0
 77 76  1  0
 78 52  1  0
 78 79  1  0
 78 88  1  0
 79 82  1  0
 80 84  1  0
 80 79  1  0
 81 80  2  0
 84 83  1  0
 86 84  1  0
 86 87  1  0
 86 85  1  0
 88 91  1  1
 88 89  1  0
 90 88  1  0
M  ISO  4   9 100  10 100  50 101  51 101
M  END
>  <TORSDO>  (12) 
F 21

>  <SCORE>  (12) 
-13.339

>  <name>  (12) 
12

>  <ligand_id>  (12) 
12

>  <original_smiles>  (12) 
[H]c1c([H])c([H])c2c(c1[H])C([H])([H])C([H])([H])C([H])([H])C2([H])N([H])C(=O)C1([H])N(C(=O)C([H])(N([H])C(=O)C([H])(N([H])C([H])([H])[H])C([H])([H])[H])C(C([H])([H])[H])(C([H])([H])[H])C([H])([H])[H])C([H])([H])c2c([H])c(OC([H])([H])C([H])(N([H])C(=O)C3([H])C([H])([H])C3([H])C([H])([H])C(=O)N3C([H])([H])C([H])([H])C([H])([H])C([H])(n4nc(-c5c([H])c([H])c(Oc6c([H])c([H])c(F)c([H])c6F)c([H])c5[H])c(C(=O)N([H])[H])c4N([H])[H])C3([H])[H])C(C([H])([H])[H])(C([H])([H])[H])C([H])([H])[H])c([H])c([H])c2C1([H])[H]

>  <smiles>  (12) 
[H]c1c([H])c([H])c2c(c1[H])C([H])([H])C([H])([H])C([H])([H])C2([H])N([H])C(=O)C1([H])N(C(=O)C([H])(N([H])C(=O)C([H])(N([H])C([H])([H])[H])C([H])([H])[H])C(C([H])([H])[H])(C([H])([H])[H])C([H])([H])[H])C([H])([H])c2c([H])c(OC([H])([H])C([H])(N([H])C(=O)C3([H])C([H])([H])C3([H])C([H])([H])C(=O)N3C([H])([H])C([H])([H])C([H])([H])C([H])(n4nc(-c5c([H])c([H])c(Oc6c([H])c([H])c(F)c([H])c6F)c([H])c5[H])c(C(=O)N([H])[H])c4N([H])[H])C3([H])[H])C(C([H])([H])[H])(C([H])([H])[H])C([H])([H])[H])c([H])c([H])c2C1([H])[H]

$$$$
13:0:0
     RDKit          3D

 89 97  0  0  1  0  0  0  0  0999 V2000
  -30.5950  -21.7360   18.8340 C   0  0  0  0  0  2  0  0  0  0  0  0
  -30.6610  -20.6070   19.8800 C   0  0  0  0  0  2  0  0  0  0  0  0
  -29.1460  -22.2140   18.6600 C   0  0  0  0  0  2  0  0  0  0  0  0
  -29.2730  -20.3920   20.5090 C   0  0  0  0  0  3  0  0  0  0  0  0
  -28.4620  -22.0800   20.0240 C   0  0  0  0  0  3  0  0  0  0  0  0
  -30.3700  -15.6150   20.2650 C   0  0  0  0  0  0  0  0  0  0  0  0
  -30.3000  -13.1090   19.4080 C   0  0  0  0  0  2  0  0  0  0  0  0
  -29.4050  -12.7170   18.2100 C   0  0  0  0  0  2  0  0  0  0  0  0
  -27.9810  -12.3970   18.6770 C   0  0  0  0  0  2  0  0  0  0  0  0
  -27.5080  -13.3870   19.7710 C   0  0  0  0  0  3  0  0  0  0  0  0
  -28.5610  -13.7150   20.8560 C   0  0  0  0  0  2  0  0  0  0  0  0
  -29.7070  -14.3200   20.1440 N   0  0  0  0  0  0  0  0  0  0  0  0
  -31.5970  -15.3940   20.1540 O   0  0  0  0  0  0  0  0  0  0  0  0
  -29.0410  -18.5590   20.2540 C   0  0  0  0  0  0  0  0  0  0  0  0
  -29.9760  -17.3140   20.3650 N   0  0  0  0  0  0  0  0  0  0  0  0
  -27.7670  -18.2840   19.9170 N   0  0  0  0  0  4  0  0  0  0  0  0
  -30.8470  -17.7920   20.5190 H   0  0  0  0  0  0  0  0  0  0  0  0
  -27.0540  -19.0000   19.9600 H   0  0  0  0  0  0  0  0  0  0  0  0
  -27.4820  -17.3820   19.5730 H   0  0  0  0  0  0  0  0  0  0  0  0
  -25.1590  -13.9030   20.5670 C   0  0  0  0  0  0  0  0  0  0  0  0
  -24.1020  -13.1200   20.9280 C   0  0  0  0  0  0  0  0  0  0  0  0
  -24.5820  -11.7730   20.8930 C   0  0  0  0  0  0  0  0  0  0  0  0
  -26.2060  -13.0400   20.3160 N   0  0  0  0  0  0  0  0  0  0  0  0
  -25.8730  -11.7490   20.5800 N   0  0  0  0  0  0  0  0  0  0  0  0
  -23.8610  -10.5090   21.0810 C   0  0  0  0  0  0  0  0  0  0  0  0
  -24.2990   -9.5320   22.0020 C   0  0  0  0  0  3  0  0  0  0  0  0
  -23.5650   -8.3390   22.1810 C   0  0  0  0  0  3  0  0  0  0  0  0
  -22.3800   -8.1170   21.4380 C   0  0  0  0  0  0  0  0  0  0  0  0
  -21.9690   -9.0800   20.5000 C   0  0  0  0  0  3  0  0  0  0  0  0
  -22.7060  -10.2630   20.3180 C   0  0  0  0  0  3  0  0  0  0  0  0
  -21.6150   -6.9770   21.5280 O   0  0  0  0  0  0  0  0  0  0  0  0
  -21.5770   -6.2260   22.6710 C   0  0  0  0  0  0  0  0  0  0  0  0
  -21.1630   -6.7700   23.9080 C   0  0  0  0  0  3  0  0  0  0  0  0
  -21.0660   -5.9450   25.0450 C   0  0  0  0  0  3  0  0  0  0  0  0
  -21.3750   -4.5740   24.9510 C   0  0  0  0  0  0  0  0  0  0  0  0
  -21.7840   -4.0290   23.7200 C   0  0  0  0  0  3  0  0  0  0  0  0
  -21.8760   -4.8500   22.5840 C   0  0  0  0  0  0  0  0  0  0  0  0
  -22.2440   -4.3130   21.3960 F   0  0  0  0  0  0  0  0  0  0  0  0
  -21.2780   -3.7780   26.0410 F   0  0  0  0  0  0  0  0  0  0  0  0
  -22.7050  -13.5910   21.1960 C   0  0  0  0  0  0  0  0  0  0  0  0
  -21.9790  -12.8850   22.0540 N   0  0  0  0  0  0  0  0  0  0  0  0
  -22.2640  -14.6190   20.6810 O   0  0  0  0  0  0  0  0  0  0  0  0
  -22.3610  -12.0600   22.4910 H   0  0  0  0  0  0  0  0  0  0  0  0
  -21.0360  -13.1690   22.2750 H   0  0  0  0  0  0  0  0  0  0  0  0
  -25.3050  -15.2770   20.4080 N   0  0  0  0  0  0  0  0  0  0  0  0
  -24.5360  -15.9200   20.5600 H   0  0  0  0  0  0  0  0  0  0  0  0
  -26.1820  -15.7320   20.2120 H   0  0  0  0  0  0  0  0  0  0  0  0
  -28.3090  -23.9030   20.6530 C   0  0  0  0  0  2  0  0  0  0  0  0
  -28.2140  -25.6020   20.2060 O   0  0  0  0  0  0  0  0  0  0  0  0
  -24.6560  -31.8390   23.1830 C   0  0  0  0  0  0  0  0  0  0  0  0
  -27.1960  -26.7630   20.2570 C   0  0  0  0  0  0  0  0  0  0  0  0
  -23.4720  -30.4280   21.5570 C   0  0  0  0  0  3  0  0  0  0  0  0
  -24.9170  -28.7700   20.1690 C   0  0  0  0  0  0  0  0  0  0  0  0
  -26.0450  -30.5850   21.4320 C   0  0  0  0  0  2  0  0  0  0  0  0
  -26.1130  -29.1460   20.7910 C   0  0  0  0  0  0  0  0  0  0  0  0
  -27.2400  -28.1740   20.7960 C   0  0  0  0  0  3  0  0  0  0  0  0
  -25.9620  -26.5880   19.5820 C   0  0  0  0  0  3  0  0  0  0  0  0
  -24.8740  -27.5110   19.5450 C   0  0  0  0  0  3  0  0  0  0  0  0
  -23.7160  -29.7240   20.1940 C   0  0  0  0  0  2  0  0  0  0  0  0
  -24.7470  -30.9830   22.1110 N   0  0  0  0  0  0  0  0  0  0  0  0
  -23.5620  -32.1410   23.6910 O   0  0  0  0  0  0  0  0  0  0  0  0
  -22.7620  -29.4540   22.5330 C   0  0  0  0  0  0  0  0  0  0  0  0
  -21.4290  -29.2970   22.4150 N   0  0  0  0  0  0  0  0  0  0  0  0
  -23.4190  -28.8410   23.3800 O   0  0  0  0  0  0  0  0  0  0  0  0
  -20.9400  -29.8500   21.7230 H   0  0  0  0  0  0  0  0  0  0  0  0
  -18.0480  -28.0810   22.9510 C   0  0  0  0  0  0  0  0  0  0  0  0
  -20.6070  -28.3630   23.1960 C   0  0  0  0  0  3  0  0  0  0  0  0
  -20.7080  -26.9250   22.6330 C   0  0  0  0  0  2  0  0  0  0  0  0
  -19.6040  -26.5930   21.6230 C   0  0  0  0  0  2  0  0  0  0  0  0
  -18.2260  -26.7310   22.2740 C   0  0  0  0  0  2  0  0  0  0  0  0
  -19.1650  -28.8540   23.3670 C   0  0  0  0  0  0  0  0  0  0  0  0
  -18.9400  -30.1130   23.9620 C   0  0  0  0  0  3  0  0  0  0  0  0
  -17.6330  -30.6060   24.1360 C   0  0  0  0  0  3  0  0  0  0  0  0
  -16.5310  -29.8320   23.7310 C   0  0  0  0  0  3  0  0  0  0  0  0
  -16.7400  -28.5700   23.1480 C   0  0  0  0  0  3  0  0  0  0  0  0
  -25.9200  -32.4990   23.8180 C   0  0  0  0  0  3  0  0  0  0  0  0
  -25.5880  -33.8980   24.1510 N   0  0  0  0  0  0  0  0  0  0  0  0
  -25.9100  -34.9670   23.4090 C   0  0  0  0  0  0  0  0  0  0  0  0
  -26.5780  -34.8810   22.3770 O   0  0  0  0  0  0  0  0  0  0  0  0
  -24.9940  -34.0410   24.9540 H   0  0  0  0  0  0  0  0  0  0  0  0
  -24.1660  -36.7600   23.0950 C   0  0  0  0  0  1  0  0  0  0  0  0
  -25.4160  -36.3480   23.8890 C   0  0  0  0  0  3  0  0  0  0  0  0
  -27.5480  -37.2480   24.7150 C   0  0  0  0  0  1  0  0  0  0  0  0
  -26.4390  -37.4130   23.7790 N   0  0  0  0  0  0  0  0  0  0  0  0
  -26.0240  -38.3260   23.9440 H   0  0  0  0  0  0  0  0  0  0  0  0
  -26.4290  -31.7470   25.1130 C   0  0  1  0  0  0  0  0  0  0  0  0
  -25.3350  -31.5170   26.1810 C   0  0  0  0  0  1  0  0  0  0  0  0
  -27.0220  -30.3640   24.7590 C   0  0  0  0  0  1  0  0  0  0  0  0
  -27.5640  -32.5610   25.7800 C   0  0  0  0  0  1  0  0  0  0  0  0
  1  2  1  0
  2  4  1  0
  3  1  1  0
  3  5  1  0
  4 14  1  0
  5  4  1  0
  5 48  1  0
  6 15  1  0
  7 12  1  0
  8  9  1  0
  8  7  1  0
 10  9  1  0
 10 23  1  0
 10 11  1  0
 12  6  1  0
 12 11  1  0
 13  6  2  0
 14 15  1  0
 15 17  1  0
 16 18  1  0
 16 14  2  0
 19 16  1  0
 20 21  2  0
 21 40  1  0
 22 21  1  0
 22 25  1  0
 23 20  1  0
 23 24  1  0
 24 22  2  0
 25 26  1  0
 26 27  2  0
 28 31  1  0
 28 27  1  0
 29 28  2  0
 30 29  1  0
 30 25  2  0
 31 32  1  0
 32 33  1  0
 33 34  2  0
 35 34  1  0
 35 39  1  0
 36 35  2  0
 37 32  2  0
 37 36  1  0
 38 37  1  0
 40 41  1  0
 41 44  1  0
 41 43  1  0
 42 40  2  0
 45 46  1  0
 45 20  1  0
 47 45  1  0
 49 51  1  0
 49 48  1  0
 50 61  2  0
 51 56  1  0
 52 60  1  0
 52 62  1  0
 53 59  1  0
 53 55  1  0
 54 60  1  0
 55 56  2  0
 55 54  1  0
 57 51  2  0
 58 57  1  0
 58 53  2  0
 59 52  1  0
 60 50  1  0
 62 64  2  0
 63 62  1  0
 65 63  1  0
 66 75  2  0
 66 71  1  0
 67 63  1  0
 67 71  1  0
 68 67  1  0
 69 70  1  0
 69 68  1  0
 70 66  1  0
 71 72  2  0
 72 73  1  0
 74 73  2  0
 75 74  1  0
 76 50  1  0
 76 77  1  0
 76 86  1  0
 77 80  1  0
 78 82  1  0
 78 77  1  0
 79 78  2  0
 82 81  1  0
 84 82  1  0
 84 85  1  0
 84 83  1  0
 86 89  1  1
 86 87  1  0
 88 86  1  0
M  ISO  4   6 100  15 100  48 101  49 101
M  END
>  <TORSDO>  (13) 
F 17

>  <SCORE>  (13) 
-16.631

>  <name>  (13) 
13

>  <ligand_id>  (13) 
13

>  <original_smiles>  (13) 
[H]c1c([H])c([H])c2c(c1[H])C([H])([H])C([H])([H])C([H])([H])C2([H])N([H])C(=O)C1([H])N(C(=O)C([H])(N([H])C(=O)C([H])(N([H])C([H])([H])[H])C([H])([H])[H])C(C([H])([H])[H])(C([H])([H])[H])C([H])([H])[H])C([H])([H])c2c([H])c(OC([H])([H])C3([H])C([H])([H])C([H])([H])C([H])([H])C3([H])C(N([H])C(=O)N3C([H])([H])C([H])([H])C([H])([H])C([H])(n4nc(-c5c([H])c([H])c(Oc6c([H])c([H])c(F)c([H])c6F)c([H])c5[H])c(C(=O)N([H])[H])c4N([H])[H])C3([H])[H])=[N+]([H])[H])c([H])c([H])c2C1([H])[H]

>  <smiles>  (13) 
[H]c1c([H])c([H])c2c(c1[H])C([H])([H])C([H])([H])C([H])([H])C2([H])N([H])C(=O)C1([H])N(C(=O)C([H])(N([H])C(=O)C([H])(N([H])C([H])([H])[H])C([H])([H])[H])C(C([H])([H])[H])(C([H])([H])[H])C([H])([H])[H])C([H])([H])c2c([H])c(OC([H])([H])C3([H])C([H])([H])C([H])([H])C([H])([H])C3([H])C(N([H])C(=O)N3C([H])([H])C([H])([H])C([H])([H])C([H])(n4nc(-c5c([H])c([H])c(Oc6c([H])c([H])c(F)c([H])c6F)c([H])c5[H])c(C(=O)N([H])[H])c4N([H])[H])C3([H])[H])=[N+]([H])[H])c([H])c([H])c2C1([H])[H]

$$$$
14:0:0
     RDKit          3D

 90 98  0  0  1  0  0  0  0  0999 V2000
  -29.9770  -20.4520   19.8210 N   0  0  0  0  0  4  0  0  0  0  0  0
  -30.2010  -20.5340   18.8420 H   0  0  0  0  0  0  0  0  0  0  0  0
  -30.8360  -20.6410   20.3120 H   0  0  0  0  0  0  0  0  0  0  0  0
  -30.8360  -15.0220   19.5980 C   0  0  0  0  0  0  0  0  0  0  0  0
  -30.5820  -12.7380   18.4880 C   0  0  0  0  0  2  0  0  0  0  0  0
  -29.5040  -12.7540   17.3790 C   0  0  0  0  0  2  0  0  0  0  0  0
  -28.1000  -12.5170   17.9680 C   0  0  0  0  0  2  0  0  0  0  0  0
  -27.8500  -13.3500   19.2540 C   0  0  0  0  0  3  0  0  0  0  0  0
  -29.0420  -13.2430   20.2290 C   0  0  0  0  0  2  0  0  0  0  0  0
  -30.2140  -13.7650   19.5140 N   0  0  0  0  0  0  0  0  0  0  0  0
  -31.9600  -15.0830   19.0840 O   0  0  0  0  0  0  0  0  0  0  0  0
  -29.9850  -18.3010   21.4170 C   0  0  0  0  0  2  0  0  0  0  0  0
  -30.3120  -17.6440   19.2440 C   0  0  0  0  0  2  0  0  0  0  0  0
  -29.6360  -18.9090   20.0530 C   0  0  0  0  0  3  0  0  0  0  0  0
  -29.7630  -16.7330   21.3190 C   0  0  2  0  0  0  0  0  0  0  0  0
  -28.2570  -16.5230   21.5800 C   0  0  0  0  0  1  0  0  0  0  0  0
  -30.5690  -16.0330   22.4340 C   0  0  0  0  0  1  0  0  0  0  0  0
  -30.1510  -16.2550   19.9390 N   0  0  0  0  0  0  0  0  0  0  0  0
  -25.5420  -13.8680   20.2380 C   0  0  0  0  0  0  0  0  0  0  0  0
  -24.5410  -13.0700   20.7110 C   0  0  0  0  0  0  0  0  0  0  0  0
  -25.0170  -11.7290   20.5930 C   0  0  0  0  0  0  0  0  0  0  0  0
  -26.5740  -13.0170   19.8800 N   0  0  0  0  0  0  0  0  0  0  0  0
  -26.2690  -11.7200   20.1490 N   0  0  0  0  0  0  0  0  0  0  0  0
  -24.3270  -10.4520   20.8210 C   0  0  0  0  0  0  0  0  0  0  0  0
  -24.7520   -9.5510   21.8200 C   0  0  0  0  0  3  0  0  0  0  0  0
  -24.0580   -8.3410   22.0340 C   0  0  0  0  0  3  0  0  0  0  0  0
  -22.9250   -8.0240   21.2480 C   0  0  0  0  0  0  0  0  0  0  0  0
  -22.5200   -8.9150   20.2380 C   0  0  0  0  0  3  0  0  0  0  0  0
  -23.2150  -10.1160   20.0230 C   0  0  0  0  0  3  0  0  0  0  0  0
  -22.2040   -6.8600   21.3680 O   0  0  0  0  0  0  0  0  0  0  0  0
  -22.0110   -6.2570   22.5850 C   0  0  0  0  0  0  0  0  0  0  0  0
  -21.3940   -6.9300   23.6610 C   0  0  0  0  0  3  0  0  0  0  0  0
  -21.1520   -6.2500   24.8720 C   0  0  0  0  0  3  0  0  0  0  0  0
  -21.5170   -4.8970   25.0050 C   0  0  0  0  0  0  0  0  0  0  0  0
  -22.1270   -4.2230   23.9320 C   0  0  0  0  0  3  0  0  0  0  0  0
  -22.3700   -4.9010   22.7240 C   0  0  0  0  0  0  0  0  0  0  0  0
  -22.9390   -4.2420   21.6860 F   0  0  0  0  0  0  0  0  0  0  0  0
  -21.2780   -4.2410   26.1640 F   0  0  0  0  0  0  0  0  0  0  0  0
  -23.1770  -13.5230   21.1450 C   0  0  0  0  0  0  0  0  0  0  0  0
  -22.5800  -12.8310   22.1100 N   0  0  0  0  0  0  0  0  0  0  0  0
  -22.6540  -14.5270   20.6660 O   0  0  0  0  0  0  0  0  0  0  0  0
  -23.0200  -12.0210   22.5190 H   0  0  0  0  0  0  0  0  0  0  0  0
  -21.6730  -13.1200   22.4460 H   0  0  0  0  0  0  0  0  0  0  0  0
  -25.6440  -15.2400   20.0540 N   0  0  0  0  0  0  0  0  0  0  0  0
  -24.8770  -15.8700   20.2600 H   0  0  0  0  0  0  0  0  0  0  0  0
  -26.4440  -15.7060   19.6470 H   0  0  0  0  0  0  0  0  0  0  0  0
  -28.9840  -21.6650   20.1150 C   0  0  0  0  0  2  0  0  0  0  0  0
  -29.3850  -23.3180   19.9910 C   0  0  0  0  0  3  0  0  0  0  0  0
  -28.3000  -24.6230   20.0600 C   0  0  0  0  0  3  0  0  0  0  0  0
  -28.5720  -26.1690   20.0950 O   0  0  0  0  0  0  0  0  0  0  0  0
  -24.8540  -31.7400   23.2400 C   0  0  0  0  0  0  0  0  0  0  0  0
  -27.5050  -27.1490   20.0710 C   0  0  0  0  0  0  0  0  0  0  0  0
  -23.6880  -30.4090   21.5260 C   0  0  0  0  0  3  0  0  0  0  0  0
  -25.1680  -28.8950   20.0680 C   0  0  0  0  0  0  0  0  0  0  0  0
  -26.2450  -30.6840   21.4190 C   0  0  0  0  0  2  0  0  0  0  0  0
  -26.3370  -29.3190   20.7120 C   0  0  0  0  0  0  0  0  0  0  0  0
  -27.5060  -28.4650   20.6940 C   0  0  0  0  0  3  0  0  0  0  0  0
  -26.3060  -26.8320   19.3930 C   0  0  0  0  0  3  0  0  0  0  0  0
  -25.1660  -27.6650   19.3940 C   0  0  0  0  0  3  0  0  0  0  0  0
  -23.9380  -29.7870   20.1270 C   0  0  0  0  0  2  0  0  0  0  0  0
  -24.9480  -30.9640   22.1180 N   0  0  0  0  0  0  0  0  0  0  0  0
  -23.7580  -32.0020   23.7590 O   0  0  0  0  0  0  0  0  0  0  0  0
  -22.9950  -29.3630   22.4350 C   0  0  0  0  0  0  0  0  0  0  0  0
  -21.6670  -29.2080   22.2920 N   0  0  0  0  0  0  0  0  0  0  0  0
  -23.6560  -28.6940   23.2340 O   0  0  0  0  0  0  0  0  0  0  0  0
  -21.1900  -29.8010   21.6250 H   0  0  0  0  0  0  0  0  0  0  0  0
  -18.2650  -28.0510   22.7590 C   0  0  0  0  0  0  0  0  0  0  0  0
  -20.8320  -28.2420   23.0130 C   0  0  0  0  0  3  0  0  0  0  0  0
  -20.8970  -26.8470   22.3500 C   0  0  0  0  0  2  0  0  0  0  0  0
  -19.7770  -26.6110   21.3300 C   0  0  0  0  0  2  0  0  0  0  0  0
  -18.4060  -26.7430   21.9970 C   0  0  0  0  0  2  0  0  0  0  0  0
  -19.4050  -28.7620   23.2220 C   0  0  0  0  0  0  0  0  0  0  0  0
  -19.2170  -29.9880   23.8970 C   0  0  0  0  0  3  0  0  0  0  0  0
  -17.9240  -30.5020   24.1110 C   0  0  0  0  0  3  0  0  0  0  0  0
  -16.8000  -29.7870   23.6630 C   0  0  0  0  0  3  0  0  0  0  0  0
  -16.9710  -28.5620   22.9930 C   0  0  0  0  0  3  0  0  0  0  0  0
  -26.1180  -32.3550   23.9150 C   0  0  0  0  0  3  0  0  0  0  0  0
  -26.6190  -31.5270   25.1620 C   0  0  1  0  0  0  0  0  0  0  0  0
  -25.5090  -31.2220   26.1950 C   0  0  0  0  0  1  0  0  0  0  0  0
  -27.2270  -30.1770   24.7190 C   0  0  0  0  0  1  0  0  0  0  0  0
  -27.7460  -32.3000   25.8860 C   0  0  0  0  0  1  0  0  0  0  0  0
  -25.7880  -33.7320   24.3160 N   0  0  0  0  0  0  0  0  0  0  0  0
  -26.1430  -34.8310   23.6370 C   0  0  0  0  0  0  0  0  0  0  0  0
  -26.8480  -34.7930   22.6250 O   0  0  0  0  0  0  0  0  0  0  0  0
  -25.1650  -33.8350   25.1030 H   0  0  0  0  0  0  0  0  0  0  0  0
  -24.4450  -36.6620   23.3170 C   0  0  0  0  0  1  0  0  0  0  0  0
  -25.6380  -36.1900   24.1640 C   0  0  0  0  0  3  0  0  0  0  0  0
  -27.7250  -37.0000   25.1720 C   0  0  0  0  0  1  0  0  0  0  0  0
  -26.6800  -37.2400   24.1800 N   0  0  0  0  0  0  0  0  0  0  0  0
  -26.2700  -38.1520   24.3640 H   0  0  0  0  0  0  0  0  0  0  0  0
  1 47  1  0
  1  3  1  0
  2  1  1  0
  4 18  1  0
  5 10  1  0
  6  7  1  0
  6  5  1  0
  8  7  1  0
  8 22  1  0
  8  9  1  0
 10  4  1  0
 10  9  1  0
 11  4  2  0
 13 18  1  0
 13 14  1  0
 14  1  1  0
 14 12  1  0
 15 12  1  0
 15 16  1  1
 15 17  1  0
 18 15  1  0
 19 20  2  0
 20 39  1  0
 21 20  1  0
 21 24  1  0
 22 23  1  0
 22 19  1  0
 23 21  2  0
 24 25  1  0
 25 26  2  0
 27 30  1  0
 27 26  1  0
 28 27  2  0
 29 28  1  0
 29 24  2  0
 30 31  1  0
 31 36  2  0
 31 32  1  0
 32 33  2  0
 33 34  1  0
 34 38  1  0
 35 34  2  0
 36 35  1  0
 37 36  1  0
 39 40  1  0
 40 43  1  0
 40 42  1  0
 41 39  2  0
 44 19  1  0
 44 45  1  0
 46 44  1  0
 48 49  2  0
 48 47  1  0
 49 50  1  0
 51 62  2  0
 52 50  1  0
 52 57  1  0
 53 61  1  0
 53 63  1  0
 54 60  1  0
 54 56  1  0
 55 61  1  0
 56 55  1  0
 57 56  2  0
 58 59  1  0
 58 52  2  0
 59 54  2  0
 60 53  1  0
 61 51  1  0
 63 65  2  0
 64 63  1  0
 66 64  1  0
 67 76  2  0
 67 72  1  0
 68 64  1  0
 68 72  1  0
 69 68  1  0
 70 71  1  0
 70 69  1  0
 71 67  1  0
 72 73  2  0
 73 74  1  0
 75 74  2  0
 76 75  1  0
 77 51  1  0
 77 82  1  0
 77 78  1  0
 78 81  1  1
 78 79  1  0
 80 78  1  0
 82 85  1  0
 83 87  1  0
 83 82  1  0
 84 83  2  0
 87 86  1  0
 87 89  1  0
 89 90  1  0
 89 88  1  0
M  ISO  4   4 100  18 100  49 101  50 101
M  END
>  <TORSDO>  (14) 
F 19

>  <SCORE>  (14) 
-11.876

>  <name>  (14) 
14

>  <ligand_id>  (14) 
14

>  <original_smiles>  (14) 
[H]c1c([H])c([H])c2c(c1[H])C([H])([H])C([H])([H])C([H])([H])C2([H])N([H])C(=O)C1([H])N(C(=O)C([H])(N([H])C(=O)C([H])(N([H])C([H])([H])[H])C([H])([H])[H])C(C([H])([H])[H])(C([H])([H])[H])C([H])([H])[H])C([H])([H])c2c([H])c(OC([H])([H])C([H])([H])C([H])([H])[N+]([H])([H])C3([H])C([H])([H])N(C(=O)N4C([H])([H])C([H])([H])C([H])([H])C([H])(n5nc(-c6c([H])c([H])c(Oc7c([H])c([H])c(F)c([H])c7F)c([H])c6[H])c(C(=O)N([H])[H])c5N([H])[H])C4([H])[H])C(C([H])([H])[H])(C([H])([H])[H])C3([H])[H])c([H])c([H])c2C1([H])[H]

>  <smiles>  (14) 
[H]c1c([H])c([H])c2c(c1[H])C([H])([H])C([H])([H])C([H])([H])C2([H])N([H])C(=O)C1([H])N(C(=O)C([H])(N([H])C(=O)C([H])(N([H])C([H])([H])[H])C([H])([H])[H])C(C([H])([H])[H])(C([H])([H])[H])C([H])([H])[H])C([H])([H])c2c([H])c(OC([H])([H])C([H])([H])C([H])([H])[N+]([H])([H])C3([H])C([H])([H])N(C(=O)N4C([H])([H])C([H])([H])C([H])([H])C([H])(n5nc(-c6c([H])c([H])c(Oc7c([H])c([H])c(F)c([H])c7F)c([H])c6[H])c(C(=O)N([H])[H])c5N([H])[H])C4([H])[H])C(C([H])([H])[H])(C([H])([H])[H])C3([H])[H])c([H])c([H])c2C1([H])[H]

$$$$
15:0:0
     RDKit          3D

 84 91  0  0  1  0  0  0  0  0999 V2000
  -28.4960  -23.9100   20.4720 C   0  0  0  0  0  2  0  0  0  0  0  0
  -26.9240  -21.7210   19.9330 C   0  0  0  0  0  1  0  0  0  0  0  0
  -28.4030  -22.1020   19.8000 C   0  0  0  0  0  3  0  0  0  0  0  0
  -29.1350  -19.1000   20.0220 C   0  0  0  0  0  3  0  0  0  0  0  0
  -27.8800  -18.6990   20.7700 C   0  0  0  0  0  1  0  0  0  0  0  0
  -29.3270  -20.5630   19.8540 N   0  0  0  0  0  2  0  0  0  0  0  0
  -29.9120  -17.4650   19.4030 C   0  0  0  0  0  2  0  0  0  0  0  0
  -30.4950  -15.7170   19.7680 C   0  0  0  0  0  0  0  0  0  0  0  0
  -30.4790  -13.1810   18.9420 C   0  0  0  0  0  2  0  0  0  0  0  0
  -29.5240  -12.7990   17.7740 C   0  0  0  0  0  2  0  0  0  0  0  0
  -28.1160  -12.4780   18.2960 C   0  0  0  0  0  2  0  0  0  0  0  0
  -27.6710  -13.4880   19.3770 C   0  0  0  0  0  3  0  0  0  0  0  0
  -28.7590  -13.7930   20.4290 C   0  0  0  0  0  2  0  0  0  0  0  0
  -29.9150  -14.3770   19.7130 N   0  0  0  0  0  0  0  0  0  0  0  0
  -31.7290  -15.5470   19.6850 O   0  0  0  0  0  0  0  0  0  0  0  0
  -25.3650  -14.0410   20.2820 C   0  0  0  0  0  0  0  0  0  0  0  0
  -24.3170  -13.2700   20.6990 C   0  0  0  0  0  0  0  0  0  0  0  0
  -24.7700  -11.9160   20.6340 C   0  0  0  0  0  0  0  0  0  0  0  0
  -26.3820  -13.1600   19.9740 N   0  0  0  0  0  0  0  0  0  0  0  0
  -26.0440  -11.8730   20.2540 N   0  0  0  0  0  0  0  0  0  0  0  0
  -24.0390  -10.6590   20.8530 C   0  0  0  0  0  0  0  0  0  0  0  0
  -24.4750   -9.7010   21.7940 C   0  0  0  0  0  3  0  0  0  0  0  0
  -23.7390   -8.5140   22.0010 C   0  0  0  0  0  3  0  0  0  0  0  0
  -22.5510   -8.2770   21.2680 C   0  0  0  0  0  0  0  0  0  0  0  0
  -22.1340   -9.2250   20.3160 C   0  0  0  0  0  3  0  0  0  0  0  0
  -22.8710  -10.4030   20.1070 C   0  0  0  0  0  3  0  0  0  0  0  0
  -21.7860   -7.1420   21.3840 O   0  0  0  0  0  0  0  0  0  0  0  0
  -21.7130   -6.4400   22.5600 C   0  0  0  0  0  0  0  0  0  0  0  0
  -21.2860   -7.0420   23.7640 C   0  0  0  0  0  3  0  0  0  0  0  0
  -21.1600   -6.2660   24.9340 C   0  0  0  0  0  3  0  0  0  0  0  0
  -21.4510   -4.8890   24.9000 C   0  0  0  0  0  0  0  0  0  0  0  0
  -21.8700   -4.2870   23.7020 C   0  0  0  0  0  3  0  0  0  0  0  0
  -21.9980   -5.0590   22.5340 C   0  0  0  0  0  0  0  0  0  0  0  0
  -22.3820   -4.4690   21.3760 F   0  0  0  0  0  0  0  0  0  0  0  0
  -21.3220   -4.1410   26.0210 F   0  0  0  0  0  0  0  0  0  0  0  0
  -22.9400  -13.7610   21.0360 C   0  0  0  0  0  0  0  0  0  0  0  0
  -22.2460  -13.0740   21.9360 N   0  0  0  0  0  0  0  0  0  0  0  0
  -22.4910  -14.7910   20.5330 O   0  0  0  0  0  0  0  0  0  0  0  0
  -22.6240  -12.2420   22.3610 H   0  0  0  0  0  0  0  0  0  0  0  0
  -21.3240  -13.3880   22.2040 H   0  0  0  0  0  0  0  0  0  0  0  0
  -25.5300  -15.4120   20.1070 N   0  0  0  0  0  0  0  0  0  0  0  0
  -24.7720  -16.0670   20.2700 H   0  0  0  0  0  0  0  0  0  0  0  0
  -26.3600  -15.8530   19.7330 H   0  0  0  0  0  0  0  0  0  0  0  0
  -28.3090  -25.6350   20.1590 O   0  0  0  0  0  0  0  0  0  0  0  0
  -24.6620  -31.8110   23.1940 C   0  0  0  0  0  0  0  0  0  0  0  0
  -27.2640  -26.7730   20.2390 C   0  0  0  0  0  0  0  0  0  0  0  0
  -23.4920  -30.3890   21.5660 C   0  0  0  0  0  3  0  0  0  0  0  0
  -24.9610  -28.7560   20.1670 C   0  0  0  0  0  0  0  0  0  0  0  0
  -26.0670  -30.5790   21.4320 C   0  0  0  0  0  2  0  0  0  0  0  0
  -26.1530  -29.1440   20.7910 C   0  0  0  0  0  0  0  0  0  0  0  0
  -27.2940  -28.1850   20.7810 C   0  0  0  0  0  3  0  0  0  0  0  0
  -26.0330  -26.5890   19.5630 C   0  0  0  0  0  3  0  0  0  0  0  0
  -24.9380  -27.5070   19.5250 C   0  0  0  0  0  3  0  0  0  0  0  0
  -23.7430  -29.6920   20.1970 C   0  0  0  0  0  2  0  0  0  0  0  0
  -24.7640  -30.9600   22.1170 N   0  0  0  0  0  0  0  0  0  0  0  0
  -23.5680  -32.0970   23.7060 O   0  0  0  0  0  0  0  0  0  0  0  0
  -22.7960  -29.4030   22.5410 C   0  0  0  0  0  0  0  0  0  0  0  0
  -21.4660  -29.2290   22.4190 N   0  0  0  0  0  0  0  0  0  0  0  0
  -23.4630  -28.7940   23.3820 O   0  0  0  0  0  0  0  0  0  0  0  0
  -20.9780  -29.7750   21.7210 H   0  0  0  0  0  0  0  0  0  0  0  0
  -18.1010  -27.9570   22.9340 C   0  0  0  0  0  0  0  0  0  0  0  0
  -20.6550  -28.2840   23.1980 C   0  0  0  0  0  3  0  0  0  0  0  0
  -20.7870  -26.8480   22.6390 C   0  0  0  0  0  2  0  0  0  0  0  0
  -19.6950  -26.4920   21.6250 C   0  0  0  0  0  2  0  0  0  0  0  0
  -18.3100  -26.6090   22.2660 C   0  0  0  0  0  2  0  0  0  0  0  0
  -19.2010  -28.7500   23.3580 C   0  0  0  0  0  0  0  0  0  0  0  0
  -18.9510  -30.0060   23.9510 C   0  0  0  0  0  3  0  0  0  0  0  0
  -17.6340  -30.4720   24.1230 C   0  0  0  0  0  3  0  0  0  0  0  0
  -16.5490  -29.6790   23.7090 C   0  0  0  0  0  3  0  0  0  0  0  0
  -16.7840  -28.4250   23.1210 C   0  0  0  0  0  3  0  0  0  0  0  0
  -25.9180  -32.4810   23.8280 C   0  0  0  0  0  3  0  0  0  0  0  0
  -26.4130  -31.7490   25.1370 C   0  0  1  0  0  0  0  0  0  0  0  0
  -25.3030  -31.5390   26.1950 C   0  0  0  0  0  1  0  0  0  0  0  0
  -27.0070  -30.3620   24.8070 C   0  0  0  0  0  1  0  0  0  0  0  0
  -27.5500  -32.5650   25.7970 C   0  0  0  0  0  1  0  0  0  0  0  0
  -25.5820  -33.8860   24.1370 N   0  0  0  0  0  0  0  0  0  0  0  0
  -25.9060  -34.9420   23.3770 C   0  0  0  0  0  0  0  0  0  0  0  0
  -26.5770  -34.8370   22.3480 O   0  0  0  0  0  0  0  0  0  0  0  0
  -24.9820  -34.0380   24.9340 H   0  0  0  0  0  0  0  0  0  0  0  0
  -24.1590  -36.7250   23.0270 C   0  0  0  0  0  1  0  0  0  0  0  0
  -25.4110  -36.3330   23.8300 C   0  0  0  0  0  3  0  0  0  0  0  0
  -27.5420  -37.2520   24.6320 C   0  0  0  0  0  1  0  0  0  0  0  0
  -26.4310  -37.3960   23.6960 N   0  0  0  0  0  0  0  0  0  0  0  0
  -26.0150  -38.3120   23.8360 H   0  0  0  0  0  0  0  0  0  0  0  0
  3  6  1  0
  3  2  1  0
  3  1  1  0
  4  5  1  0
  6  4  1  0
  7  8  1  0
  7  4  1  0
  9 14  1  0
 10 11  1  0
 10  9  1  0
 12 11  1  0
 12 19  1  0
 12 13  1  0
 14  8  1  0
 14 13  1  0
 15  8  2  0
 16 17  2  0
 17 36  1  0
 18 17  1  0
 18 21  1  0
 19 20  1  0
 19 16  1  0
 20 18  2  0
 21 22  1  0
 22 23  2  0
 24 27  1  0
 24 23  1  0
 25 24  2  0
 26 25  1  0
 26 21  2  0
 27 28  1  0
 28 29  1  0
 29 30  2  0
 31 30  1  0
 31 35  1  0
 32 31  2  0
 33 28  2  0
 33 32  1  0
 34 33  1  0
 36 37  1  0
 37 40  1  0
 37 39  1  0
 38 36  2  0
 41 42  1  0
 41 16  1  0
 43 41  1  0
 44 46  1  0
 44  1  1  0
 45 56  2  0
 46 51  1  0
 47 55  1  0
 47 57  1  0
 48 54  1  0
 48 50  1  0
 49 55  1  0
 50 49  1  0
 51 50  2  0
 52 46  2  0
 53 52  1  0
 53 48  2  0
 54 47  1  0
 55 45  1  0
 57 59  2  0
 58 57  1  0
 60 58  1  0
 61 70  2  0
 61 66  1  0
 62 58  1  0
 62 66  1  0
 63 62  1  0
 64 65  1  0
 64 63  1  0
 65 61  1  0
 66 67  2  0
 67 68  1  0
 69 68  2  0
 70 69  1  0
 71 45  1  0
 71 76  1  0
 71 72  1  0
 72 75  1  1
 72 73  1  0
 74 72  1  0
 76 79  1  0
 77 81  1  0
 77 76  1  0
 78 77  2  0
 81 80  1  0
 83 81  1  0
 83 84  1  0
 83 82  1  0
M  ISO  4   1 101   7 100   8 100  44 101
M  END
>  <TORSDO>  (15) 
F 19

>  <SCORE>  (15) 
-15.357

>  <name>  (15) 
15

>  <ligand_id>  (15) 
15

>  <original_smiles>  (15) 
[H]c1c([H])c([H])c2c(c1[H])C([H])([H])C([H])([H])C([H])([H])C2([H])N([H])C(=O)C1([H])N(C(=O)C([H])(N([H])C(=O)C([H])(N([H])C([H])([H])[H])C([H])([H])[H])C(C([H])([H])[H])(C([H])([H])[H])C([H])([H])[H])C([H])([H])c2c([H])c(OC([H])([H])C([H])(N=C(C([H])([H])[H])C([H])([H])C(=O)N3C([H])([H])C([H])([H])C([H])([H])C([H])(n4nc(-c5c([H])c([H])c(Oc6c([H])c([H])c(F)c([H])c6F)c([H])c5[H])c(C(=O)N([H])[H])c4N([H])[H])C3([H])[H])C([H])([H])[H])c([H])c([H])c2C1([H])[H]

>  <smiles>  (15) 
[H]c1c([H])c([H])c2c(c1[H])C([H])([H])C([H])([H])C([H])([H])C2([H])N([H])C(=O)C1([H])N(C(=O)C([H])(N([H])C(=O)C([H])(N([H])C([H])([H])[H])C([H])([H])[H])C(C([H])([H])[H])(C([H])([H])[H])C([H])([H])[H])C([H])([H])c2c([H])c(OC([H])([H])C([H])(N=C(C([H])([H])[H])C([H])([H])C(=O)N3C([H])([H])C([H])([H])C([H])([H])C([H])(n4nc(-c5c([H])c([H])c(Oc6c([H])c([H])c(F)c([H])c6F)c([H])c5[H])c(C(=O)N([H])[H])c4N([H])[H])C3([H])[H])C([H])([H])[H])c([H])c([H])c2C1([H])[H]

$$$$
16:0:0
     RDKit          3D

 99107  0  0  1  0  0  0  0  0999 V2000
  -29.9950  -18.3730   20.0670 C   0  0  0  0  0  0  0  0  0  0  0  0
  -28.4420  -21.1950   18.3320 C   0  0  0  0  0  2  0  0  0  0  0  0
  -27.7310  -19.1460   19.2630 C   0  0  0  0  0  2  0  0  0  0  0  0
  -29.5160  -20.7830   19.3650 C   0  0  0  0  0  3  0  0  0  0  0  0
  -27.1830  -20.5060   18.8250 C   0  0  0  0  0  3  0  0  0  0  0  0
  -26.0580  -20.4480   17.7830 C   0  0  0  0  0  1  0  0  0  0  0  0
  -29.1310  -19.3690   19.6820 N   0  0  0  0  0  0  0  0  0  0  0  0
  -31.0430  -18.6260   20.6620 O   0  0  0  0  0  0  0  0  0  0  0  0
  -29.5200  -21.8680   20.4820 C   0  0  0  0  0  0  0  0  0  0  0  0
  -29.7580  -23.1310   20.0530 N   0  0  0  0  0  0  0  0  0  0  0  0
  -29.2690  -21.5910   21.6560 O   0  0  0  0  0  0  0  0  0  0  0  0
  -29.9690  -23.2060   19.0660 H   0  0  0  0  0  0  0  0  0  0  0  0
  -29.6290  -24.4320   20.7450 C   0  0  0  0  0  2  0  0  0  0  0  0
  -28.6600  -25.3720   19.9630 C   0  0  0  0  0  2  0  0  0  0  0  0
  -28.7070  -26.7870   20.2850 O   0  0  0  0  0  0  0  0  0  0  0  0
  -24.5820  -31.8410   23.2000 C   0  0  0  0  0  0  0  0  0  0  0  0
  -27.5230  -27.5130   20.1880 C   0  0  0  0  0  0  0  0  0  0  0  0
  -23.5070  -30.4210   21.4900 C   0  0  0  0  0  3  0  0  0  0  0  0
  -25.0770  -28.9660   20.1030 C   0  0  0  0  0  0  0  0  0  0  0  0
  -26.0270  -30.8720   21.4120 C   0  0  0  0  0  2  0  0  0  0  0  0
  -26.1920  -29.5150   20.7480 C   0  0  0  0  0  0  0  0  0  0  0  0
  -27.4180  -28.8010   20.7790 C   0  0  0  0  0  3  0  0  0  0  0  0
  -26.3810  -26.9990   19.5240 C   0  0  0  0  0  3  0  0  0  0  0  0
  -25.1680  -27.7090   19.4880 C   0  0  0  0  0  3  0  0  0  0  0  0
  -23.8010  -29.7800   20.1100 C   0  0  0  0  0  2  0  0  0  0  0  0
  -24.7210  -31.0590   22.0930 N   0  0  0  0  0  0  0  0  0  0  0  0
  -23.4650  -32.0650   23.6900 O   0  0  0  0  0  0  0  0  0  0  0  0
  -22.8510  -29.3590   22.4030 C   0  0  0  0  0  0  0  0  0  0  0  0
  -21.5290  -29.1670   22.2480 N   0  0  0  0  0  0  0  0  0  0  0  0
  -23.5270  -28.7130   23.2080 O   0  0  0  0  0  0  0  0  0  0  0  0
  -21.0440  -29.7440   21.5730 H   0  0  0  0  0  0  0  0  0  0  0  0
  -18.1510  -27.9610   22.6960 C   0  0  0  0  0  0  0  0  0  0  0  0
  -20.7110  -28.1950   22.9720 C   0  0  0  0  0  3  0  0  0  0  0  0
  -20.8070  -26.7940   22.3260 C   0  0  0  0  0  2  0  0  0  0  0  0
  -19.7020  -26.5240   21.3020 C   0  0  0  0  0  2  0  0  0  0  0  0
  -18.3210  -26.6460   21.9550 C   0  0  0  0  0  2  0  0  0  0  0  0
  -19.2740  -28.6960   23.1600 C   0  0  0  0  0  0  0  0  0  0  0  0
  -19.0600  -29.9310   23.8100 C   0  0  0  0  0  3  0  0  0  0  0  0
  -17.7570  -30.4300   24.0010 C   0  0  0  0  0  3  0  0  0  0  0  0
  -16.6480  -29.6900   23.5520 C   0  0  0  0  0  3  0  0  0  0  0  0
  -16.8470  -28.4560   22.9060 C   0  0  0  0  0  3  0  0  0  0  0  0
  -25.8110  -32.5120   23.8870 C   0  0  0  0  0  3  0  0  0  0  0  0
  -25.4400  -33.8960   24.2070 N   0  0  0  0  0  0  0  0  0  0  0  0
  -25.7980  -34.9640   23.4830 C   0  0  0  0  0  0  0  0  0  0  0  0
  -26.5490  -34.8920   22.5060 O   0  0  0  0  0  0  0  0  0  0  0  0
  -24.7880  -34.0280   24.9670 H   0  0  0  0  0  0  0  0  0  0  0  0
  -24.0580  -36.7140   23.0060 C   0  0  0  0  0  1  0  0  0  0  0  0
  -25.2370  -36.3320   23.9150 C   0  0  0  0  0  3  0  0  0  0  0  0
  -27.2680  -37.2610   24.9380 C   0  0  0  0  0  1  0  0  0  0  0  0
  -26.2480  -37.4140   23.9030 N   0  0  0  0  0  0  0  0  0  0  0  0
  -25.8040  -38.3200   24.0250 H   0  0  0  0  0  0  0  0  0  0  0  0
  -26.2900  -31.7510   25.1820 C   0  0  1  0  0  0  0  0  0  0  0  0
  -25.1530  -31.4730   26.1950 C   0  0  0  0  0  1  0  0  0  0  0  0
  -26.9370  -30.3960   24.8100 C   0  0  0  0  0  1  0  0  0  0  0  0
  -27.3850  -32.5780   25.8990 C   0  0  0  0  0  1  0  0  0  0  0  0
  -29.7770  -16.9090   19.5330 C   0  0  0  0  0  0  0  0  0  0  0  0
  -30.9440  -14.6860   20.0950 C   0  0  0  0  0  0  0  0  0  0  0  0
  -30.6150  -12.5300   18.9510 C   0  0  0  0  0  2  0  0  0  0  0  0
  -29.6300  -12.7730   17.7820 C   0  0  0  0  0  2  0  0  0  0  0  0
  -28.1580  -12.7270   18.2550 C   0  0  0  0  0  2  0  0  0  0  0  0
  -27.8940  -13.4970   19.5790 C   0  0  0  0  0  3  0  0  0  0  0  0
  -28.9900  -13.1810   20.6280 C   0  0  0  0  0  2  0  0  0  0  0  0
  -30.2990  -13.4860   20.0230 N   0  0  0  0  0  0  0  0  0  0  0  0
  -32.0760  -14.8650   19.6420 O   0  0  0  0  0  0  0  0  0  0  0  0
  -30.1130  -15.7190   20.3740 N   0  0  0  0  0  4  0  0  0  0  0  0
  -29.3380  -15.4280   20.9480 H   0  0  0  0  0  0  0  0  0  0  0  0
  -25.5450  -14.1560   20.4020 C   0  0  0  0  0  0  0  0  0  0  0  0
  -24.4580  -13.4070   20.7580 C   0  0  0  0  0  0  0  0  0  0  0  0
  -24.8720  -12.0420   20.6540 C   0  0  0  0  0  0  0  0  0  0  0  0
  -26.5500  -13.2500   20.0940 N   0  0  0  0  0  0  0  0  0  0  0  0
  -26.1490  -11.9720   20.3060 N   0  0  0  0  0  0  0  0  0  0  0  0
  -24.1090  -10.8000   20.8120 C   0  0  0  0  0  0  0  0  0  0  0  0
  -24.5100   -9.7920   21.7200 C   0  0  0  0  0  3  0  0  0  0  0  0
  -23.7480   -8.6140   21.8610 C   0  0  0  0  0  3  0  0  0  0  0  0
  -22.5710   -8.4330   21.0990 C   0  0  0  0  0  0  0  0  0  0  0  0
  -22.1940   -9.4240   20.1750 C   0  0  0  0  0  3  0  0  0  0  0  0
  -22.9540  -10.5960   20.0310 C   0  0  0  0  0  3  0  0  0  0  0  0
  -21.7820   -7.3100   21.1580 O   0  0  0  0  0  0  0  0  0  0  0  0
  -21.6720   -6.5680   22.3070 C   0  0  0  0  0  0  0  0  0  0  0  0
  -21.2050   -7.1270   23.5170 C   0  0  0  0  0  3  0  0  0  0  0  0
  -21.0430   -6.3110   24.6540 C   0  0  0  0  0  3  0  0  0  0  0  0
  -21.3370   -4.9360   24.5830 C   0  0  0  0  0  0  0  0  0  0  0  0
  -21.7930   -4.3750   23.3770 C   0  0  0  0  0  3  0  0  0  0  0  0
  -21.9600   -5.1900   22.2410 C   0  0  0  0  0  0  0  0  0  0  0  0
  -22.3830   -4.6410   21.0790 F   0  0  0  0  0  0  0  0  0  0  0  0
  -21.1730   -4.1490   25.6710 F   0  0  0  0  0  0  0  0  0  0  0  0
  -23.0920  -13.9210   21.1070 C   0  0  0  0  0  0  0  0  0  0  0  0
  -22.3790  -13.2230   21.9850 N   0  0  0  0  0  0  0  0  0  0  0  0
  -22.6690  -14.9770   20.6380 O   0  0  0  0  0  0  0  0  0  0  0  0
  -22.7320  -12.3650   22.3840 H   0  0  0  0  0  0  0  0  0  0  0  0
  -21.4580  -13.5420   22.2580 H   0  0  0  0  0  0  0  0  0  0  0  0
  -25.7710  -15.5260   20.3160 N   0  0  0  0  0  0  0  0  0  0  0  0
  -26.6850  -15.8480   20.5980 H   0  0  0  0  0  0  0  0  0  0  0  0
  -25.0360  -16.1380   20.6540 H   0  0  0  0  0  0  0  0  0  0  0  0
  -30.1530  -16.7120   18.0230 C   0  0  0  0  0  2  0  0  0  0  0  0
  -29.9520  -17.8780   17.1300 N   0  0  0  0  0  4  0  0  0  0  0  0
  -29.0160  -18.2420   17.1810 H   0  0  0  0  0  0  0  0  0  0  0  0
  -30.1060  -17.6030   16.1730 H   0  0  0  0  0  0  0  0  0  0  0  0
  -30.6150  -18.6080   17.3230 H   0  0  0  0  0  0  0  0  0  0  0  0
  1  8  2  0
  2  5  1  0
  2  4  1  0
  3  7  1  0
  4  7  1  0
  4  9  1  0
  5  6  1  0
  5  3  1  0
  7  1  1  0
  9 11  2  0
 10  9  1  0
 10 13  1  0
 12 10  1  0
 14 15  1  0
 14 13  1  0
 16 27  2  0
 17 15  1  0
 17 22  1  0
 18 26  1  0
 18 28  1  0
 19 25  1  0
 19 21  1  0
 20 26  1  0
 21 22  2  0
 21 20  1  0
 23 17  2  0
 24 23  1  0
 24 19  2  0
 25 18  1  0
 26 16  1  0
 28 30  2  0
 29 28  1  0
 31 29  1  0
 32 41  2  0
 32 37  1  0
 33 29  1  0
 33 37  1  0
 34 33  1  0
 35 36  1  0
 35 34  1  0
 36 32  1  0
 37 38  2  0
 38 39  1  0
 40 39  2  0
 41 40  1  0
 42 16  1  0
 42 43  1  0
 42 52  1  0
 43 46  1  0
 44 48  1  0
 44 43  1  0
 45 44  2  0
 48 47  1  0
 50 48  1  0
 50 51  1  0
 50 49  1  0
 52 55  1  1
 52 53  1  0
 54 52  1  0
 56  1  1  0
 56 65  2  0
 57 65  1  0
 58 63  1  0
 59 60  1  0
 59 58  1  0
 61 60  1  0
 61 70  1  0
 61 62  1  0
 63 57  1  0
 63 62  1  0
 64 57  2  0
 65 66  1  0
 67 68  2  0
 68 87  1  0
 69 68  1  0
 69 72  1  0
 70 71  1  0
 70 67  1  0
 71 69  2  0
 72 73  1  0
 73 74  2  0
 75 78  1  0
 75 74  1  0
 76 75  2  0
 77 76  1  0
 77 72  2  0
 78 79  1  0
 79 80  1  0
 80 81  2  0
 82 81  1  0
 82 86  1  0
 83 82  2  0
 84 79  2  0
 84 83  1  0
 85 84  1  0
 87 88  1  0
 88 91  1  0
 88 90  1  0
 89 87  2  0
 92 67  1  0
 92 93  1  0
 92 94  1  0
 95 56  1  0
 96 97  1  0
 96 99  1  0
 96 95  1  0
 98 96  1  0
M  ISO  4  14 101  15 101  57 100  65 100
M  END
>  <TORSDO>  (16) 
F 22

>  <SCORE>  (16) 
-12.920

>  <name>  (16) 
16

>  <ligand_id>  (16) 
16

>  <original_smiles>  (16) 
[H]c1c([H])c([H])c2c(c1[H])C([H])([H])C([H])([H])C([H])([H])C2([H])N([H])C(=O)C1([H])N(C(=O)C([H])(N([H])C(=O)C([H])(N([H])C([H])([H])[H])C([H])([H])[H])C(C([H])([H])[H])(C([H])([H])[H])C([H])([H])[H])C([H])([H])c2c([H])c(OC([H])([H])C([H])([H])N([H])C(=O)C3([H])N(C(=O)C([H])(N([H])C(=O)N4C([H])([H])C([H])([H])C([H])([H])C([H])(n5nc(-c6c([H])c([H])c(Oc7c([H])c([H])c(F)c([H])c7F)c([H])c6[H])c(C(=O)N([H])[H])c5N([H])[H])C4([H])[H])C([H])([H])[N+]([H])([H])[H])C([H])([H])C([H])(C([H])([H])[H])C3([H])[H])c([H])c([H])c2C1([H])[H]

>  <smiles>  (16) 
[H]c1c([H])c([H])c2c(c1[H])C([H])([H])C([H])([H])C([H])([H])C2([H])N([H])C(=O)C1([H])N(C(=O)C([H])(N([H])C(=O)C([H])(N([H])C([H])([H])[H])C([H])([H])[H])C(C([H])([H])[H])(C([H])([H])[H])C([H])([H])[H])C([H])([H])c2c([H])c(OC([H])([H])C([H])([H])N([H])C(=O)C3([H])N(C(=O)C([H])(N([H])C(=O)N4C([H])([H])C([H])([H])C([H])([H])C([H])(n5nc(-c6c([H])c([H])c(Oc7c([H])c([H])c(F)c([H])c7F)c([H])c6[H])c(C(=O)N([H])[H])c5N([H])[H])C4([H])[H])C([H])([H])[N+]([H])([H])[H])C([H])([H])C([H])(C([H])([H])[H])C3([H])[H])c([H])c([H])c2C1([H])[H]

$$$$
17:0:0
     RDKit          3D

 89 97  0  0  1  0  0  0  0  0999 V2000
  -29.4770  -17.8320   20.2420 C   0  0  0  0  0  0  0  0  0  0  0  0
  -28.1990  -18.7940   20.2500 C   0  0  0  0  0  0  0  0  0  0  0  0
  -28.2040  -20.3470   19.7340 C   0  0  0  0  0  2  0  0  0  0  0  0
  -30.3450  -20.5400   20.7610 C   0  0  0  0  0  2  0  0  0  0  0  0
  -30.6170  -18.9590   20.2160 C   0  0  0  0  0  3  0  0  0  0  0  0
  -31.2880  -18.9780   18.8280 C   0  0  0  0  0  1  0  0  0  0  0  0
  -29.4470  -16.4210   20.2560 N   0  0  0  0  0  0  0  0  0  0  0  0
  -29.0350  -21.3530   20.5320 N   0  0  1  0  0  4  0  0  0  0  0  0
  -27.1160  -18.3320   20.6260 O   0  0  0  0  0  0  0  0  0  0  0  0
  -28.5980  -21.3470   21.4430 H   0  0  0  0  0  0  0  0  0  0  0  0
  -30.4000  -15.2420   20.1280 C   0  0  0  0  0  0  0  0  0  0  0  0
  -30.4360  -12.7760   19.3490 C   0  0  0  0  0  2  0  0  0  0  0  0
  -29.5070  -12.5790   18.1220 C   0  0  0  0  0  2  0  0  0  0  0  0
  -28.0520  -12.3240   18.5630 C   0  0  0  0  0  2  0  0  0  0  0  0
  -27.6060  -13.3060   19.6760 C   0  0  0  0  0  3  0  0  0  0  0  0
  -28.6570  -13.4450   20.7940 C   0  0  0  0  0  2  0  0  0  0  0  0
  -29.9060  -13.9140   20.1740 N   0  0  0  0  0  0  0  0  0  0  0  0
  -31.6010  -15.3060   19.8480 O   0  0  0  0  0  0  0  0  0  0  0  0
  -25.2450  -13.8800   20.4590 C   0  0  0  0  0  0  0  0  0  0  0  0
  -24.1820  -13.1080   20.8370 C   0  0  0  0  0  0  0  0  0  0  0  0
  -24.6410  -11.7540   20.7940 C   0  0  0  0  0  0  0  0  0  0  0  0
  -26.2800  -12.9990   20.1960 N   0  0  0  0  0  0  0  0  0  0  0  0
  -25.9270  -11.7140   20.4650 N   0  0  0  0  0  0  0  0  0  0  0  0
  -23.9080  -10.4960   20.9890 C   0  0  0  0  0  0  0  0  0  0  0  0
  -24.3340   -9.5280   21.9260 C   0  0  0  0  0  3  0  0  0  0  0  0
  -23.5990   -8.3360   22.1080 C   0  0  0  0  0  3  0  0  0  0  0  0
  -22.4260   -8.1030   21.3540 C   0  0  0  0  0  0  0  0  0  0  0  0
  -22.0180   -9.0590   20.4070 C   0  0  0  0  0  3  0  0  0  0  0  0
  -22.7530  -10.2420   20.2220 C   0  0  0  0  0  3  0  0  0  0  0  0
  -21.6640   -6.9640   21.4450 O   0  0  0  0  0  0  0  0  0  0  0  0
  -21.5920   -6.2360   22.6060 C   0  0  0  0  0  0  0  0  0  0  0  0
  -21.1090   -6.7960   23.8090 C   0  0  0  0  0  3  0  0  0  0  0  0
  -20.9870   -5.9940   24.9610 C   0  0  0  0  0  3  0  0  0  0  0  0
  -21.3390   -4.6310   24.9110 C   0  0  0  0  0  0  0  0  0  0  0  0
  -21.8150   -4.0700   23.7130 C   0  0  0  0  0  3  0  0  0  0  0  0
  -21.9380   -4.8700   22.5640 C   0  0  0  0  0  0  0  0  0  0  0  0
  -22.3770   -4.3180   21.4070 F   0  0  0  0  0  0  0  0  0  0  0  0
  -21.2150   -3.8590   26.0160 F   0  0  0  0  0  0  0  0  0  0  0  0
  -22.7920  -13.5920   21.1260 C   0  0  0  0  0  0  0  0  0  0  0  0
  -22.0780  -12.9110   22.0160 N   0  0  0  0  0  0  0  0  0  0  0  0
  -22.3470  -14.6100   20.5980 O   0  0  0  0  0  0  0  0  0  0  0  0
  -22.4500  -12.0880   22.4650 H   0  0  0  0  0  0  0  0  0  0  0  0
  -21.1450  -13.2190   22.2520 H   0  0  0  0  0  0  0  0  0  0  0  0
  -25.4170  -15.2500   20.2940 N   0  0  0  0  0  0  0  0  0  0  0  0
  -24.6750  -15.9190   20.4650 H   0  0  0  0  0  0  0  0  0  0  0  0
  -26.3000  -15.6910   20.0620 H   0  0  0  0  0  0  0  0  0  0  0  0
  -29.1380  -22.9770   20.1700 C   0  0  0  0  0  3  0  0  0  0  0  0
  -28.0760  -24.3650   20.4820 C   0  0  0  0  0  3  0  0  0  0  0  0
  -28.2880  -25.9820   20.3490 O   0  0  0  0  0  0  0  0  0  0  0  0
  -24.6250  -31.8720   23.2720 C   0  0  0  0  0  0  0  0  0  0  0  0
  -27.2440  -27.0320   20.3110 C   0  0  0  0  0  0  0  0  0  0  0  0
  -23.4540  -30.4630   21.6290 C   0  0  0  0  0  3  0  0  0  0  0  0
  -24.9250  -28.8640   20.2330 C   0  0  0  0  0  0  0  0  0  0  0  0
  -26.0170  -30.7000   21.5020 C   0  0  0  0  0  2  0  0  0  0  0  0
  -26.1040  -29.2910   20.8570 C   0  0  0  0  0  0  0  0  0  0  0  0
  -27.2600  -28.3970   20.8690 C   0  0  0  0  0  3  0  0  0  0  0  0
  -26.0340  -26.7430   19.6410 C   0  0  0  0  0  3  0  0  0  0  0  0
  -24.9120  -27.6090   19.6050 C   0  0  0  0  0  3  0  0  0  0  0  0
  -23.6990  -29.7730   20.2590 C   0  0  0  0  0  2  0  0  0  0  0  0
  -24.7200  -31.0380   22.1880 N   0  0  0  0  0  0  0  0  0  0  0  0
  -23.5290  -32.1580   23.7820 O   0  0  0  0  0  0  0  0  0  0  0  0
  -22.7590  -29.4660   22.5930 C   0  0  0  0  0  0  0  0  0  0  0  0
  -21.4320  -29.2880   22.4520 N   0  0  0  0  0  0  0  0  0  0  0  0
  -23.4200  -28.8510   23.4330 O   0  0  0  0  0  0  0  0  0  0  0  0
  -20.9520  -29.8350   21.7500 H   0  0  0  0  0  0  0  0  0  0  0  0
  -18.0490  -28.0770   22.9420 C   0  0  0  0  0  0  0  0  0  0  0  0
  -20.6070  -28.3490   23.2190 C   0  0  0  0  0  3  0  0  0  0  0  0
  -20.7150  -26.9170   22.6460 C   0  0  0  0  0  2  0  0  0  0  0  0
  -19.6180  -26.5910   21.6260 C   0  0  0  0  0  2  0  0  0  0  0  0
  -18.2330  -26.7300   22.2640 C   0  0  0  0  0  2  0  0  0  0  0  0
  -19.1630  -28.8440   23.3760 C   0  0  0  0  0  0  0  0  0  0  0  0
  -18.9350  -30.1030   23.9730 C   0  0  0  0  0  3  0  0  0  0  0  0
  -17.6260  -30.5970   24.1370 C   0  0  0  0  0  3  0  0  0  0  0  0
  -16.5270  -29.8270   23.7180 C   0  0  0  0  0  3  0  0  0  0  0  0
  -16.7390  -28.5690   23.1270 C   0  0  0  0  0  3  0  0  0  0  0  0
  -25.8870  -32.5250   23.9130 C   0  0  0  0  0  3  0  0  0  0  0  0
  -25.5710  -33.9340   24.2040 N   0  0  0  0  0  0  0  0  0  0  0  0
  -25.9110  -34.9720   23.4290 C   0  0  0  0  0  0  0  0  0  0  0  0
  -26.5870  -34.8440   22.4040 O   0  0  0  0  0  0  0  0  0  0  0  0
  -24.9700  -34.1070   24.9970 H   0  0  0  0  0  0  0  0  0  0  0  0
  -24.1880  -36.7660   23.0350 C   0  0  0  0  0  1  0  0  0  0  0  0
  -25.4280  -36.3730   23.8550 C   0  0  0  0  0  3  0  0  0  0  0  0
  -27.5590  -37.2810   24.6740 C   0  0  0  0  0  1  0  0  0  0  0  0
  -26.4630  -37.4220   23.7190 N   0  0  0  0  0  0  0  0  0  0  0  0
  -26.0570  -38.3460   23.8360 H   0  0  0  0  0  0  0  0  0  0  0  0
  -26.3610  -31.7910   25.2290 C   0  0  1  0  0  0  0  0  0  0  0  0
  -25.2360  -31.5930   26.2730 C   0  0  0  0  0  1  0  0  0  0  0  0
  -26.9480  -30.3980   24.9040 C   0  0  0  0  0  1  0  0  0  0  0  0
  -27.4970  -32.6000   25.9000 C   0  0  0  0  0  1  0  0  0  0  0  0
  1  2  1  0
  1  7  2  0
  2  9  2  0
  3  2  1  0
  3  8  1  0
  5  6  1  0
  5  1  1  0
  5  4  1  0
  8  4  1  0
  8 10  1  1
 11 17  1  0
 11  7  1  0
 12 17  1  0
 13 14  1  0
 13 12  1  0
 15 14  1  0
 15 22  1  0
 15 16  1  0
 17 16  1  0
 18 11  2  0
 19 20  2  0
 20 39  1  0
 21 20  1  0
 21 24  1  0
 22 19  1  0
 22 23  1  0
 23 21  2  0
 24 25  1  0
 25 26  2  0
 27 30  1  0
 27 26  1  0
 28 27  2  0
 29 28  1  0
 29 24  2  0
 30 31  1  0
 31 32  1  0
 32 33  2  0
 34 33  1  0
 34 38  1  0
 35 34  2  0
 36 31  2  0
 36 35  1  0
 37 36  1  0
 39 40  1  0
 40 43  1  0
 40 42  1  0
 41 39  2  0
 44 19  1  0
 44 45  1  0
 46 44  1  0
 47 48  2  0
 47  8  1  0
 49 48  1  0
 50 61  2  0
 51 49  1  0
 51 56  1  0
 52 60  1  0
 52 62  1  0
 53 59  1  0
 53 55  1  0
 54 60  1  0
 55 56  2  0
 55 54  1  0
 57 51  2  0
 58 57  1  0
 58 53  2  0
 59 52  1  0
 60 50  1  0
 62 64  2  0
 63 62  1  0
 65 63  1  0
 66 75  2  0
 66 71  1  0
 67 63  1  0
 67 71  1  0
 68 67  1  0
 69 70  1  0
 69 68  1  0
 70 66  1  0
 71 72  2  0
 72 73  1  0
 74 73  2  0
 75 74  1  0
 76 50  1  0
 76 77  1  0
 76 86  1  0
 77 80  1  0
 78 82  1  0
 78 77  1  0
 79 78  2  0
 82 81  1  0
 84 85  1  0
 84 82  1  0
 84 83  1  0
 86 89  1  1
 86 87  1  0
 88 86  1  0
M  ISO  4   7 100  11 100  48 101  49 101
M  END
>  <TORSDO>  (17) 
F 18

>  <SCORE>  (17) 
-15.540

>  <name>  (17) 
17

>  <ligand_id>  (17) 
17

>  <original_smiles>  (17) 
[H]c1c([H])c([H])c2c(c1[H])C([H])([H])C([H])([H])C([H])([H])C2([H])N([H])C(=O)C1([H])N(C(=O)C([H])(N([H])C(=O)C([H])(N([H])C([H])([H])[H])C([H])([H])[H])C(C([H])([H])[H])(C([H])([H])[H])C([H])([H])[H])C([H])([H])c2c([H])c(OC([H])([H])C([H])([H])[N+]3([H])C([H])([H])C(=O)C(=NC(=O)N4C([H])([H])C([H])([H])C([H])([H])C([H])(n5nc(-c6c([H])c([H])c(Oc7c([H])c([H])c(F)c([H])c7F)c([H])c6[H])c(C(=O)N([H])[H])c5N([H])[H])C4([H])[H])C([H])(C([H])([H])[H])C3([H])[H])c([H])c([H])c2C1([H])[H]

>  <smiles>  (17) 
[H]c1c([H])c([H])c2c(c1[H])C([H])([H])C([H])([H])C([H])([H])C2([H])N([H])C(=O)C1([H])N(C(=O)C([H])(N([H])C(=O)C([H])(N([H])C([H])([H])[H])C([H])([H])[H])C(C([H])([H])[H])(C([H])([H])[H])C([H])([H])[H])C([H])([H])c2c([H])c(OC([H])([H])C([H])([H])[N+]3([H])C([H])([H])C(=O)C(=NC(=O)N4C([H])([H])C([H])([H])C([H])([H])C([H])(n5nc(-c6c([H])c([H])c(Oc7c([H])c([H])c(F)c([H])c7F)c([H])c6[H])c(C(=O)N([H])[H])c5N([H])[H])C4([H])[H])C([H])(C([H])([H])[H])C3([H])[H])c([H])c([H])c2C1([H])[H]

$$$$
18:0:0
     RDKit          3D

 89 97  0  0  1  0  0  0  0  0999 V2000
  -29.7190  -18.9850   20.4130 C   0  0  0  0  0  0  0  0  0  0  0  0
  -28.4610  -19.4940   20.1790 C   0  0  0  0  0  0  0  0  0  0  0  0
  -30.7400  -20.1040   20.7500 C   0  0  0  0  0  2  0  0  0  0  0  0
  -28.0300  -21.0390   20.2490 C   0  0  0  0  0  2  0  0  0  0  0  0
  -30.4030  -21.6010   20.3130 C   0  0  0  0  0  2  0  0  0  0  0  0
  -27.3090  -18.6010   19.7510 C   0  0  0  0  0  1  0  0  0  0  0  0
  -29.0450  -22.0530   20.7350 N   0  0  1  0  0  4  0  0  0  0  0  0
  -29.0930  -21.7630   21.7020 H   0  0  0  0  0  0  0  0  0  0  0  0
  -30.2290  -17.5150   20.2930 C   0  0  0  0  0  3  0  0  0  0  0  0
  -29.7740  -16.2160   20.6000 C   0  0  0  0  0  3  0  0  0  0  0  0
  -30.5690  -14.9140   20.3560 C   0  0  0  0  0  0  0  0  0  0  0  0
  -30.4050  -12.5820   19.4160 C   0  0  0  0  0  2  0  0  0  0  0  0
  -29.4910  -12.6000   18.1690 C   0  0  0  0  0  2  0  0  0  0  0  0
  -28.0170  -12.4160   18.5750 C   0  0  0  0  0  2  0  0  0  0  0  0
  -27.6130  -13.3210   19.7700 C   0  0  0  0  0  3  0  0  0  0  0  0
  -28.6560  -13.2880   20.9050 C   0  0  0  0  0  2  0  0  0  0  0  0
  -29.9510  -13.6670   20.3300 N   0  0  0  0  0  0  0  0  0  0  0  0
  -31.7630  -14.9430   20.0380 O   0  0  0  0  0  0  0  0  0  0  0  0
  -25.2240  -13.8990   20.4800 C   0  0  0  0  0  0  0  0  0  0  0  0
  -24.1560  -13.1250   20.8430 C   0  0  0  0  0  0  0  0  0  0  0  0
  -24.6220  -11.7740   20.8210 C   0  0  0  0  0  0  0  0  0  0  0  0
  -26.2700  -13.0220   20.2530 N   0  0  0  0  0  0  0  0  0  0  0  0
  -25.9160  -11.7380   20.5240 N   0  0  0  0  0  0  0  0  0  0  0  0
  -23.8930  -10.5130   21.0090 C   0  0  0  0  0  0  0  0  0  0  0  0
  -24.3080   -9.5520   21.9580 C   0  0  0  0  0  3  0  0  0  0  0  0
  -23.5790   -8.3570   22.1340 C   0  0  0  0  0  3  0  0  0  0  0  0
  -22.4180   -8.1130   21.3610 C   0  0  0  0  0  0  0  0  0  0  0  0
  -22.0220   -9.0620   20.4020 C   0  0  0  0  0  3  0  0  0  0  0  0
  -22.7520  -10.2490   20.2240 C   0  0  0  0  0  3  0  0  0  0  0  0
  -21.6620   -6.9690   21.4440 O   0  0  0  0  0  0  0  0  0  0  0  0
  -21.5850   -6.2390   22.6040 C   0  0  0  0  0  0  0  0  0  0  0  0
  -21.1090   -6.8040   23.8080 C   0  0  0  0  0  3  0  0  0  0  0  0
  -20.9800   -6.0010   24.9590 C   0  0  0  0  0  3  0  0  0  0  0  0
  -21.3160   -4.6350   24.9060 C   0  0  0  0  0  0  0  0  0  0  0  0
  -21.7840   -4.0700   23.7070 C   0  0  0  0  0  3  0  0  0  0  0  0
  -21.9150   -4.8700   22.5590 C   0  0  0  0  0  0  0  0  0  0  0  0
  -22.3460   -4.3160   21.4000 F   0  0  0  0  0  0  0  0  0  0  0  0
  -21.1850   -3.8620   26.0100 F   0  0  0  0  0  0  0  0  0  0  0  0
  -22.7560  -13.6030   21.0960 C   0  0  0  0  0  0  0  0  0  0  0  0
  -22.0170  -12.9080   21.9520 N   0  0  0  0  0  0  0  0  0  0  0  0
  -22.3270  -14.6290   20.5700 O   0  0  0  0  0  0  0  0  0  0  0  0
  -22.3770  -12.0790   22.4010 H   0  0  0  0  0  0  0  0  0  0  0  0
  -21.0760  -13.2100   22.1630 H   0  0  0  0  0  0  0  0  0  0  0  0
  -25.3870  -15.2690   20.3010 N   0  0  0  0  0  0  0  0  0  0  0  0
  -24.6180  -15.9210   20.4060 H   0  0  0  0  0  0  0  0  0  0  0  0
  -26.2370  -15.7110   19.9780 H   0  0  0  0  0  0  0  0  0  0  0  0
  -28.7370  -23.5890   21.0110 C   0  0  0  0  0  3  0  0  0  0  0  0
  -28.3490  -24.7950   19.9490 C   0  0  0  0  0  3  0  0  0  0  0  0
  -28.3530  -26.2940   20.3420 O   0  0  0  0  0  0  0  0  0  0  0  0
  -24.6230  -31.8960   23.2230 C   0  0  0  0  0  0  0  0  0  0  0  0
  -27.2540  -27.2110   20.2350 C   0  0  0  0  0  0  0  0  0  0  0  0
  -23.4400  -30.4840   21.5820 C   0  0  0  0  0  3  0  0  0  0  0  0
  -24.9060  -28.9140   20.1770 C   0  0  0  0  0  0  0  0  0  0  0  0
  -25.9900  -30.7730   21.4320 C   0  0  0  0  0  2  0  0  0  0  0  0
  -26.0750  -29.3810   20.7900 C   0  0  0  0  0  0  0  0  0  0  0  0
  -27.2460  -28.5430   20.8050 C   0  0  0  0  0  3  0  0  0  0  0  0
  -26.0610  -26.8380   19.5760 C   0  0  0  0  0  3  0  0  0  0  0  0
  -24.9100  -27.6560   19.5570 C   0  0  0  0  0  3  0  0  0  0  0  0
  -23.6720  -29.7990   20.2100 C   0  0  0  0  0  2  0  0  0  0  0  0
  -24.7030  -31.0730   22.1340 N   0  0  0  0  0  0  0  0  0  0  0  0
  -23.5310  -32.1770   23.7430 O   0  0  0  0  0  0  0  0  0  0  0  0
  -22.7640  -29.4780   22.5470 C   0  0  0  0  0  0  0  0  0  0  0  0
  -21.4380  -29.2980   22.4120 N   0  0  0  0  0  0  0  0  0  0  0  0
  -23.4350  -28.8600   23.3770 O   0  0  0  0  0  0  0  0  0  0  0  0
  -20.9540  -29.8490   21.7170 H   0  0  0  0  0  0  0  0  0  0  0  0
  -18.0540  -28.1110   22.9180 C   0  0  0  0  0  0  0  0  0  0  0  0
  -20.6150  -28.3630   23.1830 C   0  0  0  0  0  3  0  0  0  0  0  0
  -20.7100  -26.9310   22.6060 C   0  0  0  0  0  2  0  0  0  0  0  0
  -19.6050  -26.6130   21.5930 C   0  0  0  0  0  2  0  0  0  0  0  0
  -18.2260  -26.7610   22.2390 C   0  0  0  0  0  2  0  0  0  0  0  0
  -19.1760  -28.8690   23.3470 C   0  0  0  0  0  0  0  0  0  0  0  0
  -18.9620  -30.1300   23.9420 C   0  0  0  0  0  3  0  0  0  0  0  0
  -17.6590  -30.6340   24.1150 C   0  0  0  0  0  3  0  0  0  0  0  0
  -16.5510  -29.8730   23.7010 C   0  0  0  0  0  3  0  0  0  0  0  0
  -16.7500  -28.6130   23.1090 C   0  0  0  0  0  3  0  0  0  0  0  0
  -25.8940  -32.5420   23.8530 C   0  0  0  0  0  3  0  0  0  0  0  0
  -26.3910  -31.7930   25.1520 C   0  0  1  0  0  0  0  0  0  0  0  0
  -25.2810  -31.5720   26.2060 C   0  0  0  0  0  1  0  0  0  0  0  0
  -26.9810  -30.4080   24.7960 C   0  0  0  0  0  1  0  0  0  0  0  0
  -27.5290  -32.5990   25.8190 C   0  0  0  0  0  1  0  0  0  0  0  0
  -25.5770  -33.9450   24.1620 N   0  0  0  0  0  0  0  0  0  0  0  0
  -25.9120  -34.9910   23.3950 C   0  0  0  0  0  0  0  0  0  0  0  0
  -26.5880  -34.8770   22.3700 O   0  0  0  0  0  0  0  0  0  0  0  0
  -24.9750  -34.1060   24.9560 H   0  0  0  0  0  0  0  0  0  0  0  0
  -24.1860  -36.7820   23.0100 C   0  0  0  0  0  1  0  0  0  0  0  0
  -25.4210  -36.3850   23.8350 C   0  0  0  0  0  3  0  0  0  0  0  0
  -27.5460  -37.2860   24.6760 C   0  0  0  0  0  1  0  0  0  0  0  0
  -26.4550  -37.4380   23.7170 N   0  0  0  0  0  0  0  0  0  0  0  0
  -26.0460  -38.3600   23.8450 H   0  0  0  0  0  0  0  0  0  0  0  0
  1  3  1  0
  2  4  1  0
  2  1  2  0
  4  7  1  0
  5  7  1  0
  5  3  1  0
  6  2  1  0
  7 47  1  0
  7  8  1  1
  9  1  1  0
  9 10  2  0
 11 10  1  0
 12 17  1  0
 13 14  1  0
 13 12  1  0
 15 14  1  0
 15 22  1  0
 15 16  1  0
 17 11  1  0
 17 16  1  0
 18 11  2  0
 19 20  2  0
 20 39  1  0
 21 20  1  0
 21 24  1  0
 22 19  1  0
 22 23  1  0
 23 21  2  0
 24 25  1  0
 25 26  2  0
 27 30  1  0
 27 26  1  0
 28 27  2  0
 29 28  1  0
 29 24  2  0
 30 31  1  0
 31 32  1  0
 32 33  2  0
 34 33  1  0
 34 38  1  0
 35 34  2  0
 36 31  2  0
 36 35  1  0
 37 36  1  0
 39 40  1  0
 40 43  1  0
 40 42  1  0
 41 39  2  0
 44 45  1  0
 44 19  1  0
 46 44  1  0
 48 49  1  0
 48 47  2  0
 50 61  2  0
 51 49  1  0
 51 56  1  0
 52 60  1  0
 52 62  1  0
 53 59  1  0
 53 55  1  0
 54 60  1  0
 55 56  2  0
 55 54  1  0
 57 51  2  0
 58 57  1  0
 58 53  2  0
 59 52  1  0
 60 50  1  0
 62 64  2  0
 63 62  1  0
 65 63  1  0
 66 75  2  0
 66 71  1  0
 67 63  1  0
 67 71  1  0
 68 67  1  0
 69 70  1  0
 69 68  1  0
 70 66  1  0
 71 72  2  0
 72 73  1  0
 74 73  2  0
 75 74  1  0
 76 50  1  0
 76 81  1  0
 76 77  1  0
 77 80  1  1
 77 78  1  0
 79 77  1  0
 81 84  1  0
 82 86  1  0
 82 81  1  0
 83 82  2  0
 86 85  1  0
 88 86  1  0
 88 89  1  0
 88 87  1  0
M  ISO  4  10 100  11 100  48 101  49 101
M  END
>  <TORSDO>  (18) 
F 19

>  <SCORE>  (18) 
-14.291

>  <name>  (18) 
18

>  <ligand_id>  (18) 
18

>  <original_smiles>  (18) 
[H]C(C(=O)N1C([H])([H])C([H])([H])C([H])([H])C([H])(n2nc(-c3c([H])c([H])c(Oc4c([H])c([H])c(F)c([H])c4F)c([H])c3[H])c(C(=O)N([H])[H])c2N([H])[H])C1([H])[H])=C([H])C1=C(C([H])([H])[H])C([H])([H])[N+]([H])(C([H])([H])C([H])([H])Oc2c([H])c([H])c3c(c2[H])C([H])([H])N(C(=O)C([H])(N([H])C(=O)C([H])(N([H])C([H])([H])[H])C([H])([H])[H])C(C([H])([H])[H])(C([H])([H])[H])C([H])([H])[H])C([H])(C(=O)N([H])C2([H])c4c([H])c([H])c([H])c([H])c4C([H])([H])C([H])([H])C2([H])[H])C3([H])[H])C([H])([H])C1([H])[H]

>  <smiles>  (18) 
[H]C(C(=O)N1C([H])([H])C([H])([H])C([H])([H])C([H])(n2nc(-c3c([H])c([H])c(Oc4c([H])c([H])c(F)c([H])c4F)c([H])c3[H])c(C(=O)N([H])[H])c2N([H])[H])C1([H])[H])=C([H])C1=C(C([H])([H])[H])C([H])([H])[N+]([H])(C([H])([H])C([H])([H])Oc2c([H])c([H])c3c(c2[H])C([H])([H])N(C(=O)C([H])(N([H])C(=O)C([H])(N([H])C([H])([H])[H])C([H])([H])[H])C(C([H])([H])[H])(C([H])([H])[H])C([H])([H])[H])C([H])(C(=O)N([H])C2([H])c4c([H])c([H])c([H])c([H])c4C([H])([H])C([H])([H])C2([H])[H])C3([H])[H])C([H])([H])C1([H])[H]

$$$$
19:0:0
     RDKit          3D

 91 98  0  0  1  0  0  0  0  0999 V2000
  -29.2320  -20.6060   19.7870 C   0  0  0  0  0  3  0  0  0  0  0  0
  -29.3550  -21.8490   20.3460 N   0  0  0  0  0  2  0  0  0  0  0  0
  -28.2190  -21.5150   17.5840 C   0  0  0  0  0  1  0  0  0  0  0  0
  -26.9410  -19.7920   19.0100 C   0  0  0  0  0  1  0  0  0  0  0  0
  -28.3180  -20.3390   18.5800 C   0  0  0  0  0  3  0  0  0  0  0  0
  -29.8230  -19.1170   20.3550 C   0  0  0  0  0  2  0  0  0  0  0  0
  -30.7720  -14.9420   19.9850 C   0  0  0  0  0  0  0  0  0  0  0  0
  -30.6080  -12.5350   19.1950 C   0  0  0  0  0  2  0  0  0  0  0  0
  -29.6490  -12.4240   17.9850 C   0  0  0  0  0  2  0  0  0  0  0  0
  -28.1990  -12.2410   18.4660 C   0  0  0  0  0  2  0  0  0  0  0  0
  -27.8270  -13.2210   19.6090 C   0  0  0  0  0  3  0  0  0  0  0  0
  -28.9080  -13.3040   20.7100 C   0  0  0  0  0  2  0  0  0  0  0  0
  -30.1650  -13.6810   20.0520 N   0  0  0  0  0  0  0  0  0  0  0  0
  -31.9320  -14.9700   19.5450 O   0  0  0  0  0  0  0  0  0  0  0  0
  -30.2640  -17.6460   19.7180 C   0  0  0  0  0  0  0  0  0  0  0  0
  -30.0380  -16.3100   20.2410 N   0  0  0  0  0  0  0  0  0  0  0  0
  -31.0100  -17.7700   18.6000 N   0  0  0  0  0  4  0  0  0  0  0  0
  -29.2170  -16.2990   20.8250 H   0  0  0  0  0  0  0  0  0  0  0  0
  -31.2350  -18.6840   18.2250 H   0  0  0  0  0  0  0  0  0  0  0  0
  -31.4420  -16.9790   18.1440 H   0  0  0  0  0  0  0  0  0  0  0  0
  -25.5050  -13.8560   20.4650 C   0  0  0  0  0  0  0  0  0  0  0  0
  -24.4330  -13.1060   20.8650 C   0  0  0  0  0  0  0  0  0  0  0  0
  -24.8480  -11.7420   20.7770 C   0  0  0  0  0  0  0  0  0  0  0  0
  -26.5040  -12.9490   20.1540 N   0  0  0  0  0  0  0  0  0  0  0  0
  -26.1230  -11.6710   20.4100 N   0  0  0  0  0  0  0  0  0  0  0  0
  -24.0860  -10.4990   20.9670 C   0  0  0  0  0  0  0  0  0  0  0  0
  -24.4930   -9.5190   21.8990 C   0  0  0  0  0  3  0  0  0  0  0  0
  -23.7320   -8.3440   22.0770 C   0  0  0  0  0  3  0  0  0  0  0  0
  -22.5530   -8.1380   21.3240 C   0  0  0  0  0  0  0  0  0  0  0  0
  -22.1650   -9.1070   20.3810 C   0  0  0  0  0  3  0  0  0  0  0  0
  -22.9260  -10.2750   20.1990 C   0  0  0  0  0  3  0  0  0  0  0  0
  -21.7670   -7.0150   21.4120 O   0  0  0  0  0  0  0  0  0  0  0  0
  -21.6620   -6.2960   22.5770 C   0  0  0  0  0  0  0  0  0  0  0  0
  -21.1450   -6.8700   23.7590 C   0  0  0  0  0  3  0  0  0  0  0  0
  -20.9880   -6.0780   24.9140 C   0  0  0  0  0  3  0  0  0  0  0  0
  -21.3380   -4.7150   24.8880 C   0  0  0  0  0  0  0  0  0  0  0  0
  -21.8510   -4.1420   23.7110 C   0  0  0  0  0  3  0  0  0  0  0  0
  -22.0070   -4.9300   22.5580 C   0  0  0  0  0  0  0  0  0  0  0  0
  -22.4800   -4.3680   21.4180 F   0  0  0  0  0  0  0  0  0  0  0  0
  -21.1830   -3.9510   25.9950 F   0  0  0  0  0  0  0  0  0  0  0  0
  -23.0670  -13.6200   21.2120 C   0  0  0  0  0  0  0  0  0  0  0  0
  -22.3570  -12.9280   22.0960 N   0  0  0  0  0  0  0  0  0  0  0  0
  -22.6390  -14.6690   20.7300 O   0  0  0  0  0  0  0  0  0  0  0  0
  -22.7210  -12.0800   22.5040 H   0  0  0  0  0  0  0  0  0  0  0  0
  -21.4400  -13.2530   22.3720 H   0  0  0  0  0  0  0  0  0  0  0  0
  -25.7040  -15.2240   20.3130 N   0  0  0  0  0  0  0  0  0  0  0  0
  -24.9540  -15.8920   20.4610 H   0  0  0  0  0  0  0  0  0  0  0  0
  -26.5150  -15.6360   19.8700 H   0  0  0  0  0  0  0  0  0  0  0  0
  -28.3900  -23.1270   20.3430 C   0  0  0  0  0  2  0  0  0  0  0  0
  -28.7810  -24.6980   19.8220 C   0  0  0  0  0  2  0  0  0  0  0  0
  -28.5380  -26.0940   20.5010 O   0  0  0  0  0  0  0  0  0  0  0  0
  -24.6430  -31.6540   23.2970 C   0  0  0  0  0  0  0  0  0  0  0  0
  -27.4630  -27.0420   20.3280 C   0  0  0  0  0  0  0  0  0  0  0  0
  -23.5630  -30.2890   21.5480 C   0  0  0  0  0  3  0  0  0  0  0  0
  -25.1180  -28.7620   20.1750 C   0  0  0  0  0  0  0  0  0  0  0  0
  -26.1150  -30.5910   21.5470 C   0  0  0  0  0  2  0  0  0  0  0  0
  -26.2480  -29.2130   20.8680 C   0  0  0  0  0  0  0  0  0  0  0  0
  -27.4180  -28.3680   20.9280 C   0  0  0  0  0  3  0  0  0  0  0  0
  -26.3110  -26.6910   19.5940 C   0  0  0  0  0  3  0  0  0  0  0  0
  -25.1660  -27.5190   19.5220 C   0  0  0  0  0  3  0  0  0  0  0  0
  -23.8750  -29.6410   20.1700 C   0  0  0  0  0  2  0  0  0  0  0  0
  -24.7900  -30.8660   22.1870 N   0  0  0  0  0  0  0  0  0  0  0  0
  -23.5230  -31.9130   23.7650 O   0  0  0  0  0  0  0  0  0  0  0  0
  -22.8370  -29.2560   22.4440 C   0  0  0  0  0  0  0  0  0  0  0  0
  -21.5090  -29.1180   22.2750 N   0  0  0  0  0  0  0  0  0  0  0  0
  -23.4720  -28.5790   23.2570 O   0  0  0  0  0  0  0  0  0  0  0  0
  -21.0540  -29.7100   21.5950 H   0  0  0  0  0  0  0  0  0  0  0  0
  -18.0790  -28.0540   22.7260 C   0  0  0  0  0  0  0  0  0  0  0  0
  -20.6510  -28.1620   22.9800 C   0  0  0  0  0  3  0  0  0  0  0  0
  -20.6740  -26.7790   22.2850 C   0  0  0  0  0  2  0  0  0  0  0  0
  -19.5470  -26.5990   21.2620 C   0  0  0  0  0  2  0  0  0  0  0  0
  -18.1800  -26.7610   21.9330 C   0  0  0  0  0  2  0  0  0  0  0  0
  -19.2390  -28.7200   23.2030 C   0  0  0  0  0  0  0  0  0  0  0  0
  -19.0890  -29.9360   23.9040 C   0  0  0  0  0  3  0  0  0  0  0  0
  -17.8110  -30.4830   24.1330 C   0  0  0  0  0  3  0  0  0  0  0  0
  -16.6670  -29.8110   23.6700 C   0  0  0  0  0  3  0  0  0  0  0  0
  -16.8020  -28.5980   22.9710 C   0  0  0  0  0  3  0  0  0  0  0  0
  -25.8740  -32.2870   24.0160 C   0  0  0  0  0  3  0  0  0  0  0  0
  -26.2500  -31.5510   25.3620 C   0  0  1  0  0  0  0  0  0  0  0  0
  -25.0530  -31.3590   26.3220 C   0  0  0  0  0  1  0  0  0  0  0  0
  -26.8470  -30.1530   25.0770 C   0  0  0  0  0  1  0  0  0  0  0  0
  -27.3400  -32.3540   26.1090 C   0  0  0  0  0  1  0  0  0  0  0  0
  -25.5630  -33.7030   24.2770 N   0  0  0  0  0  0  0  0  0  0  0  0
  -25.9840  -34.7290   23.5240 C   0  0  0  0  0  0  0  0  0  0  0  0
  -26.7350  -34.5810   22.5560 O   0  0  0  0  0  0  0  0  0  0  0  0
  -24.9060  -33.8940   25.0200 H   0  0  0  0  0  0  0  0  0  0  0  0
  -24.3180  -36.5390   22.9930 C   0  0  0  0  0  1  0  0  0  0  0  0
  -25.4940  -36.1420   23.9010 C   0  0  0  0  0  3  0  0  0  0  0  0
  -27.5700  -37.0350   24.8620 C   0  0  0  0  0  1  0  0  0  0  0  0
  -26.5510  -37.1720   23.8230 N   0  0  0  0  0  0  0  0  0  0  0  0
  -26.1520  -38.1050   23.8910 H   0  0  0  0  0  0  0  0  0  0  0  0
  1  2  1  0
  1  6  1  0
  3  5  1  0
  5  4  1  0
  5  1  1  0
  7 13  1  0
  7 16  1  0
  8 13  1  0
  9 10  1  0
  9  8  1  0
 11 10  1  0
 11 24  1  0
 11 12  1  0
 13 12  1  0
 14  7  2  0
 15 16  1  0
 15  6  1  0
 16 18  1  0
 17 15  2  0
 19 17  1  0
 20 17  1  0
 21 22  2  0
 22 41  1  0
 23 22  1  0
 23 26  1  0
 24 25  1  0
 24 21  1  0
 25 23  2  0
 26 27  1  0
 27 28  2  0
 29 32  1  0
 29 28  1  0
 30 29  2  0
 31 30  1  0
 31 26  2  0
 32 33  1  0
 33 34  1  0
 34 35  2  0
 36 35  1  0
 36 40  1  0
 37 36  2  0
 38 33  2  0
 38 37  1  0
 39 38  1  0
 41 42  1  0
 42 45  1  0
 42 44  1  0
 43 41  2  0
 46 47  1  0
 46 21  1  0
 48 46  1  0
 49  2  1  0
 50 49  1  0
 50 51  1  0
 52 63  2  0
 53 51  1  0
 53 58  1  0
 54 62  1  0
 54 64  1  0
 55 57  1  0
 56 62  1  0
 57 58  2  0
 57 56  1  0
 59 53  2  0
 60 59  1  0
 60 55  2  0
 61 55  1  0
 61 54  1  0
 62 52  1  0
 64 66  2  0
 65 64  1  0
 67 65  1  0
 68 77  2  0
 68 73  1  0
 69 65  1  0
 69 73  1  0
 70 69  1  0
 71 72  1  0
 71 70  1  0
 72 68  1  0
 73 74  2  0
 74 75  1  0
 76 75  2  0
 77 76  1  0
 78 52  1  0
 78 83  1  0
 78 79  1  0
 79 82  1  1
 79 80  1  0
 81 79  1  0
 83 86  1  0
 84 88  1  0
 84 83  1  0
 85 84  2  0
 88 87  1  0
 90 91  1  0
 90 88  1  0
 90 89  1  0
M  ISO  4   7 100  16 100  50 101  51 101
M  END
>  <TORSDO>  (19) 
F 20

>  <SCORE>  (19) 
-14.685

>  <name>  (19) 
19

>  <ligand_id>  (19) 
19

>  <original_smiles>  (19) 
[H]c1c([H])c([H])c2c(c1[H])C([H])([H])C([H])([H])C([H])([H])C2([H])N([H])C(=O)C1([H])N(C(=O)C([H])(N([H])C(=O)C([H])(N([H])C([H])([H])[H])C([H])([H])[H])C(C([H])([H])[H])(C([H])([H])[H])C([H])([H])[H])C([H])([H])c2c([H])c(OC([H])([H])C([H])([H])N=C(C([H])([H])C(N([H])C(=O)N3C([H])([H])C([H])([H])C([H])([H])C([H])(n4nc(-c5c([H])c([H])c(Oc6c([H])c([H])c(F)c([H])c6F)c([H])c5[H])c(C(=O)N([H])[H])c4N([H])[H])C3([H])[H])=[N+]([H])[H])C([H])(C([H])([H])[H])C([H])([H])[H])c([H])c([H])c2C1([H])[H]

>  <smiles>  (19) 
[H]c1c([H])c([H])c2c(c1[H])C([H])([H])C([H])([H])C([H])([H])C2([H])N([H])C(=O)C1([H])N(C(=O)C([H])(N([H])C(=O)C([H])(N([H])C([H])([H])[H])C([H])([H])[H])C(C([H])([H])[H])(C([H])([H])[H])C([H])([H])[H])C([H])([H])c2c([H])c(OC([H])([H])C([H])([H])N=C(C([H])([H])C(N([H])C(=O)N3C([H])([H])C([H])([H])C([H])([H])C([H])(n4nc(-c5c([H])c([H])c(Oc6c([H])c([H])c(F)c([H])c6F)c([H])c5[H])c(C(=O)N([H])[H])c4N([H])[H])C3([H])[H])=[N+]([H])[H])C([H])(C([H])([H])[H])C([H])([H])[H])c([H])c([H])c2C1([H])[H]

$$$$
20:0:0
     RDKit          3D

 95 99  0  0  1  0  0  0  0  0999 V2000
  -21.9870  -26.8760   19.6200 C   0  0  0  0  0  0  0  0  0  0  0  0
  -23.0670  -25.6920   19.5080 N   0  0  0  0  0  0  0  0  0  0  0  0
  -21.2430  -26.6360   18.6710 O   0  0  0  0  0  0  0  0  0  0  0  0
  -22.6170  -25.3220   18.6820 H   0  0  0  0  0  0  0  0  0  0  0  0
  -24.8730  -24.6150   18.1420 C   0  0  0  0  0  1  0  0  0  0  0  0
  -24.3630  -24.3780   19.5910 C   0  0  0  0  0  3  0  0  0  0  0  0
  -24.9340  -22.5290   19.4270 C   0  0  0  0  0  0  0  0  0  0  0  0
  -26.2450  -21.6210   19.4660 N   0  0  0  0  0  4  0  0  0  0  0  0
  -23.9620  -21.8200   19.1550 O   0  0  0  0  0  0  0  0  0  0  0  0
  -27.0190  -22.2140   19.7380 H   0  0  0  0  0  0  0  0  0  0  0  0
  -25.6580  -19.1910   18.5010 C   0  0  0  0  0  1  0  0  0  0  0  0
  -26.8810  -19.9500   19.0580 C   0  0  0  0  0  0  0  0  0  0  0  0
  -28.9040  -17.2050   19.4280 C   0  0  0  0  0  0  0  0  0  0  0  0
  -28.2920  -18.6580   19.3290 C   0  0  0  0  0  0  0  0  0  0  0  0
  -30.1280  -15.9310   19.4750 C   0  0  0  0  0  0  0  0  0  0  0  0
  -30.6620  -13.3430   18.9610 C   0  0  0  0  0  2  0  0  0  0  0  0
  -29.7860  -12.7800   17.8040 C   0  0  0  0  0  2  0  0  0  0  0  0
  -28.3640  -12.4540   18.2990 C   0  0  0  0  0  2  0  0  0  0  0  0
  -27.8590  -13.5430   19.2740 C   0  0  0  0  0  3  0  0  0  0  0  0
  -28.8560  -13.8700   20.3750 C   0  0  0  0  0  2  0  0  0  0  0  0
  -29.9320  -14.5060   19.6500 N   0  0  0  0  0  0  0  0  0  0  0  0
  -31.3650  -16.0230   19.2380 O   0  0  0  0  0  0  0  0  0  0  0  0
  -25.6210  -14.2220   20.1880 C   0  0  0  0  0  0  0  0  0  0  0  0
  -24.5510  -13.4980   20.6230 C   0  0  0  0  0  0  0  0  0  0  0  0
  -24.9490  -12.1270   20.5570 C   0  0  0  0  0  0  0  0  0  0  0  0
  -26.5750  -13.2850   19.8510 N   0  0  0  0  0  0  0  0  0  0  0  0
  -26.2050  -12.0210   20.1530 N   0  0  0  0  0  0  0  0  0  0  0  0
  -24.1800  -10.9030   20.7820 C   0  0  0  0  0  0  0  0  0  0  0  0
  -24.5900   -9.9360   21.7260 C   0  0  0  0  0  3  0  0  0  0  0  0
  -23.8170   -8.7750   21.9350 C   0  0  0  0  0  3  0  0  0  0  0  0
  -22.6240   -8.5770   21.1980 C   0  0  0  0  0  0  0  0  0  0  0  0
  -22.2370   -9.5310   20.2430 C   0  0  0  0  0  3  0  0  0  0  0  0
  -23.0090  -10.6840   20.0320 C   0  0  0  0  0  3  0  0  0  0  0  0
  -21.8220   -7.4700   21.3170 O   0  0  0  0  0  0  0  0  0  0  0  0
  -21.7100   -6.7880   22.5030 C   0  0  0  0  0  0  0  0  0  0  0  0
  -21.2820   -7.4220   23.6900 C   0  0  0  0  0  3  0  0  0  0  0  0
  -21.1160   -6.6690   24.8680 C   0  0  0  0  0  3  0  0  0  0  0  0
  -21.3640   -5.2830   24.8600 C   0  0  0  0  0  0  0  0  0  0  0  0
  -21.7850   -4.6500   23.6770 C   0  0  0  0  0  3  0  0  0  0  0  0
  -21.9540   -5.4010   22.5010 C   0  0  0  0  0  0  0  0  0  0  0  0
  -22.3400   -4.7840   21.3580 F   0  0  0  0  0  0  0  0  0  0  0  0
  -21.1960   -4.5560   25.9890 F   0  0  0  0  0  0  0  0  0  0  0  0
  -23.2050  -14.0490   20.9760 C   0  0  0  0  0  0  0  0  0  0  0  0
  -22.5000  -13.3960   21.8920 N   0  0  0  0  0  0  0  0  0  0  0  0
  -22.7940  -15.0930   20.4720 O   0  0  0  0  0  0  0  0  0  0  0  0
  -22.8530  -12.5520   22.3180 H   0  0  0  0  0  0  0  0  0  0  0  0
  -21.5960  -13.7470   22.1730 H   0  0  0  0  0  0  0  0  0  0  0  0
  -25.8580  -15.5830   20.0210 N   0  0  0  0  0  0  0  0  0  0  0  0
  -25.1450  -16.2820   20.1990 H   0  0  0  0  0  0  0  0  0  0  0  0
  -26.7100  -15.9680   19.6340 H   0  0  0  0  0  0  0  0  0  0  0  0
  -21.3930  -28.4000   20.3950 C   0  0  0  0  0  2  0  0  0  0  0  0
  -21.4380  -29.4010   21.6520 C   0  0  0  0  0  1  0  0  0  0  0  0
  -22.5130  -29.5130   23.3990 C   0  0  0  0  0 15  0  0  0  0  0  0
  -24.5700  -28.8520   23.7690 C   0  0  0  0  0 15  0  0  0  0  0  0
  -26.0900  -28.2070   22.7540 O   0  0  0  0  0  1  0  0  0  0  0  0
  -24.5150  -31.6400   23.1690 C   0  0  0  0  0  0  0  0  0  0  0  0
  -26.6550  -27.8990   21.4040 C   0  0  0  0  0  3  0  0  0  0  0  0
  -23.8150  -29.5350   21.3710 C   0  0  0  0  0  3  0  0  0  0  0  0
  -25.1980  -29.1090   19.7160 C   0  0  0  0  0  3  0  0  0  0  0  0
  -25.8820  -30.9990   21.2660 C   0  0  0  0  0  2  0  0  0  0  0  0
  -26.2130  -29.7750   20.4580 C   0  0  0  0  0  3  0  0  0  0  0  0
  -27.2780  -29.0200   20.9200 C   0  0  0  0  0  2  0  0  0  0  0  0
  -26.1390  -27.0690   20.3440 C   0  0  0  0  0  2  0  0  0  0  0  0
  -25.3050  -27.7440   19.4380 C   0  0  0  0  0  2  0  0  0  0  0  0
  -23.8610  -29.6370   19.8730 C   0  0  0  0  0  2  0  0  0  0  0  0
  -24.6830  -30.7550   22.0480 N   0  0  0  0  0  0  0  0  0  0  0  0
  -23.4180  -31.9880   23.6230 O   0  0  0  0  0  0  0  0  0  0  0  0
  -23.4530  -27.7140   21.9660 C   0  0  0  0  0  0  0  0  0  0  0  0
  -22.3110  -27.1240   22.7190 N   0  0  0  0  0  0  0  0  0  0  0  0
  -24.1930  -26.8930   22.3710 O   0  0  0  0  0  0  0  0  0  0  0  0
  -22.7350  -26.2800   23.0750 H   0  0  0  0  0  0  0  0  0  0  0  0
  -18.1080  -27.2370   22.6550 C   0  0  0  0  0  0  0  0  0  0  0  0
  -20.7590  -27.0820   23.2060 C   0  0  0  0  0  3  0  0  0  0  0  0
  -20.5170  -25.6880   22.6800 C   0  0  0  0  0  2  0  0  0  0  0  0
  -19.5280  -25.5550   21.5270 C   0  0  0  0  0  2  0  0  0  0  0  0
  -18.1630  -25.8640   22.0450 C   0  0  0  0  0  2  0  0  0  0  0  0
  -19.2990  -27.9150   23.1220 C   0  0  0  0  0  0  0  0  0  0  0  0
  -18.9880  -29.1980   23.7000 C   0  0  0  0  0  3  0  0  0  0  0  0
  -17.6610  -29.7300   23.7910 C   0  0  0  0  0  3  0  0  0  0  0  0
  -16.5520  -28.9990   23.3380 C   0  0  0  0  0  3  0  0  0  0  0  0
  -16.7900  -27.7450   22.7730 C   0  0  0  0  0  3  0  0  0  0  0  0
  -25.7020  -32.2820   24.0300 C   0  0  0  0  0  3  0  0  0  0  0  0
  -26.0860  -31.6220   25.4410 C   0  0  1  0  0  0  0  0  0  0  0  0
  -24.8860  -31.4460   26.4280 C   0  0  0  0  0  1  0  0  0  0  0  0
  -26.9070  -30.3100   25.2550 C   0  0  0  0  0  1  0  0  0  0  0  0
  -27.0770  -32.5330   26.2060 C   0  0  0  0  0  1  0  0  0  0  0  0
  -25.3310  -33.6830   24.3110 N   0  0  0  0  0  0  0  0  0  0  0  0
  -25.7160  -34.7240   23.5700 C   0  0  0  0  0  0  0  0  0  0  0  0
  -26.4540  -34.5960   22.5910 O   0  0  0  0  0  0  0  0  0  0  0  0
  -24.6520  -33.8350   25.0420 H   0  0  0  0  0  0  0  0  0  0  0  0
  -24.0040  -36.5050   23.0950 C   0  0  0  0  0  1  0  0  0  0  0  0
  -25.2050  -36.1210   23.9720 C   0  0  0  0  0  3  0  0  0  0  0  0
  -27.3030  -37.0300   24.8700 C   0  0  0  0  0  1  0  0  0  0  0  0
  -26.2440  -37.1690   23.8740 N   0  0  0  0  0  0  0  0  0  0  0  0
  -25.8350  -38.0940   23.9690 H   0  0  0  0  0  0  0  0  0  0  0  0
  1 51  1  0
  2  6  1  0
  2  1  1  0
  3  1  2  0
  4  2  1  0
  6  5  1  0
  7  8  1  0
  7  6  1  0
  8 10  1  0
  9  7  2  0
 11 12  1  0
 12 14  1  0
 12  8  2  0
 13 15  1  0
 14 13  3  0
 15 21  1  0
 16 21  1  0
 17 18  1  0
 17 16  1  0
 19 18  1  0
 19 26  1  0
 19 20  1  0
 21 20  1  0
 22 15  2  0
 23 24  2  0
 24 43  1  0
 25 24  1  0
 25 28  1  0
 26 27  1  0
 26 23  1  0
 27 25  2  0
 28 29  1  0
 29 30  2  0
 31 34  1  0
 31 30  1  0
 32 31  2  0
 33 32  1  0
 33 28  2  0
 34 35  1  0
 35 36  1  0
 36 37  2  0
 38 37  1  0
 38 42  1  0
 39 38  2  0
 40 35  2  0
 40 39  1  0
 41 40  1  0
 43 44  1  0
 44 47  1  0
 44 46  1  0
 45 43  2  0
 48 23  1  0
 48 49  1  0
 50 48  1  0
 51 52  1  0
 56 67  2  0
 57 55  1  0
 58 68  1  0
 58 66  1  0
 59 64  1  0
 59 65  1  0
 59 61  1  0
 60 66  1  0
 61 62  1  0
 61 60  1  0
 62 57  1  0
 63 57  1  0
 64 63  1  0
 65 58  1  0
 66 56  1  0
 68 70  2  0
 68 69  1  0
 69 71  1  0
 72 81  2  0
 72 77  1  0
 73 69  1  0
 74 73  1  0
 75 76  1  0
 75 74  1  0
 76 72  1  0
 77 73  1  0
 77 78  2  0
 78 79  1  0
 80 79  2  0
 81 80  1  0
 82 56  1  0
 82 87  1  0
 82 83  1  0
 83 86  1  1
 83 84  1  0
 85 83  1  0
 87 90  1  0
 88 92  1  0
 88 87  1  0
 89 88  2  0
 92 91  1  0
 94 95  1  0
 94 92  1  0
 94 93  1  0
M  ISO  4  13 100  15 100  54 101  55 101
M  END
>  <TORSDO>  (20) 
F 23

>  <SCORE>  (20) 
-13.939

>  <name>  (20) 
20

>  <ligand_id>  (20) 
20

>  <original_smiles>  (20) 
[H]C(C(=O)N([H])C([H])(C(=O)N([H])C([H])(C([H])=C([H])C(=O)N1C([H])([H])C([H])([H])C([H])([H])C([H])(n2nc(-c3c([H])c([H])c(Oc4c([H])c([H])c(F)c([H])c4F)c([H])c3[H])c(C(=O)N([H])[H])c2N([H])[H])C1([H])[H])C([H])([H])[H])C([H])([H])[H])=C([H])C([H])([H])C([H])([H])Oc1c([H])c([H])c2c(c1[H])C([H])([H])N(C(=O)C([H])(N([H])C(=O)C([H])(N([H])C([H])([H])[H])C([H])([H])[H])C(C([H])([H])[H])(C([H])([H])[H])C([H])([H])[H])C([H])(C(=O)N([H])C1([H])c3c([H])c([H])c([H])c([H])c3C([H])([H])C([H])([H])C1([H])[H])C2([H])[H]

>  <smiles>  (20) 
[H]C(C(=O)N([H])C([H])(C(=O)N([H])C([H])(C([H])=C([H])C(=O)N1C([H])([H])C([H])([H])C([H])([H])C([H])(n2nc(-c3c([H])c([H])c(Oc4c([H])c([H])c(F)c([H])c4F)c([H])c3[H])c(C(=O)N([H])[H])c2N([H])[H])C1([H])[H])C([H])([H])[H])C([H])([H])[H])=C([H])C([H])([H])C([H])([H])Oc1c([H])c([H])c2c(c1[H])C([H])([H])N(C(=O)C([H])(N([H])C(=O)C([H])(N([H])C([H])([H])[H])C([H])([H])[H])C(C([H])([H])[H])(C([H])([H])[H])C([H])([H])[H])C([H])(C(=O)N([H])C1([H])c3c([H])c([H])c([H])c([H])c3C([H])([H])C([H])([H])C1([H])[H])C2([H])[H]

$$$$
21:0:0
     RDKit          3D

 89 97  0  0  1  0  0  0  0  0999 V2000
  -31.5250  -18.0020   21.0600 C   0  0  0  0  0  3  0  0  0  0  0  0
  -30.2910  -17.5370   20.8330 C   0  0  0  0  0  0  0  0  0  0  0  0
  -29.4440  -18.7730   20.5890 C   0  0  0  0  0  0  0  0  0  0  0  0
  -30.3010  -20.0860   20.6920 C   0  0  0  0  0  0  0  0  0  0  0  0
  -31.7050  -19.5160   20.9770 C   0  0  0  0  0  3  0  0  0  0  0  0
  -32.3520  -20.0770   22.2590 C   0  0  0  0  0  1  0  0  0  0  0  0
  -30.1660  -21.4030   20.6090 N   0  0  0  0  0  0  0  0  0  0  0  0
  -28.2350  -18.7630   20.3390 O   0  0  0  0  0  0  0  0  0  0  0  0
  -29.7850  -16.0380   20.9870 C   0  0  0  0  0  2  0  0  0  0  0  0
  -30.5720  -14.7410   20.4730 C   0  0  0  0  0  0  0  0  0  0  0  0
  -30.3770  -12.5030   19.3680 C   0  0  0  0  0  2  0  0  0  0  0  0
  -29.4380  -12.6270   18.1470 C   0  0  0  0  0  2  0  0  0  0  0  0
  -27.9630  -12.4580   18.5610 C   0  0  0  0  0  2  0  0  0  0  0  0
  -27.5920  -13.3130   19.8020 C   0  0  0  0  0  3  0  0  0  0  0  0
  -28.6440  -13.1630   20.9220 C   0  0  0  0  0  2  0  0  0  0  0  0
  -29.9560  -13.5150   20.3630 N   0  0  0  0  0  0  0  0  0  0  0  0
  -31.7270  -14.8770   20.0630 O   0  0  0  0  0  0  0  0  0  0  0  0
  -25.1940  -13.9060   20.5040 C   0  0  0  0  0  0  0  0  0  0  0  0
  -24.1250  -13.1340   20.8700 C   0  0  0  0  0  0  0  0  0  0  0  0
  -24.5920  -11.7830   20.8510 C   0  0  0  0  0  0  0  0  0  0  0  0
  -26.2410  -13.0280   20.2780 N   0  0  0  0  0  0  0  0  0  0  0  0
  -25.8850  -11.7460   20.5500 N   0  0  0  0  0  0  0  0  0  0  0  0
  -23.8640  -10.5210   21.0460 C   0  0  0  0  0  0  0  0  0  0  0  0
  -24.3010   -9.5550   21.9780 C   0  0  0  0  0  3  0  0  0  0  0  0
  -23.5760   -8.3560   22.1570 C   0  0  0  0  0  3  0  0  0  0  0  0
  -22.4010   -8.1170   21.4070 C   0  0  0  0  0  0  0  0  0  0  0  0
  -21.9850   -9.0730   20.4620 C   0  0  0  0  0  3  0  0  0  0  0  0
  -22.7090  -10.2620   20.2800 C   0  0  0  0  0  3  0  0  0  0  0  0
  -21.6470   -6.9720   21.4970 O   0  0  0  0  0  0  0  0  0  0  0  0
  -21.6070   -6.2240   22.6480 C   0  0  0  0  0  0  0  0  0  0  0  0
  -21.2000   -6.7760   23.8830 C   0  0  0  0  0  3  0  0  0  0  0  0
  -21.1070   -5.9540   25.0230 C   0  0  0  0  0  3  0  0  0  0  0  0
  -21.4120   -4.5820   24.9330 C   0  0  0  0  0  0  0  0  0  0  0  0
  -21.8150   -4.0310   23.7040 C   0  0  0  0  0  3  0  0  0  0  0  0
  -21.9100   -4.8500   22.5640 C   0  0  0  0  0  0  0  0  0  0  0  0
  -22.2770   -4.3090   21.3780 F   0  0  0  0  0  0  0  0  0  0  0  0
  -21.3160   -3.7930   26.0270 F   0  0  0  0  0  0  0  0  0  0  0  0
  -22.7230  -13.6090   21.1280 C   0  0  0  0  0  0  0  0  0  0  0  0
  -21.9890  -12.9200   21.9950 N   0  0  0  0  0  0  0  0  0  0  0  0
  -22.2870  -14.6290   20.5930 O   0  0  0  0  0  0  0  0  0  0  0  0
  -22.3490  -12.0970   22.4550 H   0  0  0  0  0  0  0  0  0  0  0  0
  -21.0480  -13.2190   22.2050 H   0  0  0  0  0  0  0  0  0  0  0  0
  -25.3560  -15.2780   20.3230 N   0  0  0  0  0  0  0  0  0  0  0  0
  -24.5850  -15.9300   20.4310 H   0  0  0  0  0  0  0  0  0  0  0  0
  -26.2100  -15.7260   20.0170 H   0  0  0  0  0  0  0  0  0  0  0  0
  -28.9700  -22.2730   20.3240 C   0  0  0  0  0  2  0  0  0  0  0  0
  -29.2550  -23.8700   20.4430 C   0  0  0  0  0  3  0  0  0  0  0  0
  -28.1050  -24.9510   20.0950 C   0  0  0  0  0  3  0  0  0  0  0  0
  -28.3180  -26.4290   20.2620 O   0  0  0  0  0  0  0  0  0  0  0  0
  -24.6160  -31.9130   23.2460 C   0  0  0  0  0  0  0  0  0  0  0  0
  -27.2040  -27.3020   20.2050 C   0  0  0  0  0  0  0  0  0  0  0  0
  -23.4030  -30.5170   21.6110 C   0  0  0  0  0  3  0  0  0  0  0  0
  -24.8430  -28.9480   20.1920 C   0  0  0  0  0  0  0  0  0  0  0  0
  -25.9470  -30.8120   21.4280 C   0  0  0  0  0  2  0  0  0  0  0  0
  -26.0190  -29.4290   20.7820 C   0  0  0  0  0  0  0  0  0  0  0  0
  -27.2010  -28.6210   20.7740 C   0  0  0  0  0  3  0  0  0  0  0  0
  -25.9990  -26.8850   19.5930 C   0  0  0  0  0  3  0  0  0  0  0  0
  -24.8380  -27.6830   19.5870 C   0  0  0  0  0  3  0  0  0  0  0  0
  -23.6130  -29.8320   20.2340 C   0  0  0  0  0  2  0  0  0  0  0  0
  -24.6740  -31.1000   22.1520 N   0  0  0  0  0  0  0  0  0  0  0  0
  -23.5340  -32.1990   23.7810 O   0  0  0  0  0  0  0  0  0  0  0  0
  -22.7330  -29.5100   22.5780 C   0  0  0  0  0  0  0  0  0  0  0  0
  -21.4060  -29.3420   22.4550 N   0  0  0  0  0  0  0  0  0  0  0  0
  -23.4080  -28.8840   23.4000 O   0  0  0  0  0  0  0  0  0  0  0  0
  -20.9200  -29.8980   21.7640 H   0  0  0  0  0  0  0  0  0  0  0  0
  -18.0220  -28.1640   22.9650 C   0  0  0  0  0  0  0  0  0  0  0  0
  -20.5820  -28.4120   23.2310 C   0  0  0  0  0  3  0  0  0  0  0  0
  -20.6760  -26.9780   22.6630 C   0  0  0  0  0  2  0  0  0  0  0  0
  -19.5730  -26.6560   21.6510 C   0  0  0  0  0  2  0  0  0  0  0  0
  -18.1910  -26.8110   22.2950 C   0  0  0  0  0  2  0  0  0  0  0  0
  -19.1450  -28.9220   23.3900 C   0  0  0  0  0  0  0  0  0  0  0  0
  -18.9330  -30.1880   23.9790 C   0  0  0  0  0  3  0  0  0  0  0  0
  -17.6300  -30.6950   24.1460 C   0  0  0  0  0  3  0  0  0  0  0  0
  -16.5230  -29.9340   23.7360 C   0  0  0  0  0  3  0  0  0  0  0  0
  -16.7190  -28.6700   23.1500 C   0  0  0  0  0  3  0  0  0  0  0  0
  -25.9010  -32.5420   23.8680 C   0  0  0  0  0  3  0  0  0  0  0  0
  -26.4170  -31.7690   25.1440 C   0  0  1  0  0  0  0  0  0  0  0  0
  -25.3240  -31.5410   26.2140 C   0  0  0  0  0  1  0  0  0  0  0  0
  -26.9940  -30.3890   24.7560 C   0  0  0  0  0  1  0  0  0  0  0  0
  -27.5710  -32.5590   25.8020 C   0  0  0  0  0  1  0  0  0  0  0  0
  -25.5960  -33.9410   24.2030 N   0  0  0  0  0  0  0  0  0  0  0  0
  -25.9160  -34.9950   23.4420 C   0  0  0  0  0  0  0  0  0  0  0  0
  -26.5670  -34.8920   22.3990 O   0  0  0  0  0  0  0  0  0  0  0  0
  -25.0180  -34.0930   25.0170 H   0  0  0  0  0  0  0  0  0  0  0  0
  -24.1750  -36.7820   23.1300 C   0  0  0  0  0  1  0  0  0  0  0  0
  -25.4380  -36.3840   23.9100 C   0  0  0  0  0  3  0  0  0  0  0  0
  -27.5920  -37.2730   24.6840 C   0  0  0  0  0  1  0  0  0  0  0  0
  -26.4660  -37.4390   23.7680 N   0  0  0  0  0  0  0  0  0  0  0  0
  -26.0630  -38.3600   23.9210 H   0  0  0  0  0  0  0  0  0  0  0  0
  2  9  1  0
  2  1  2  0
  3  4  1  0
  3  2  1  0
  4  5  1  0
  5  1  1  0
  5  6  1  0
  7  4  2  0
  8  3  2  0
 10  9  1  0
 11 16  1  0
 12 13  1  0
 12 11  1  0
 14 13  1  0
 14 21  1  0
 14 15  1  0
 16 10  1  0
 16 15  1  0
 17 10  2  0
 18 19  2  0
 19 38  1  0
 20 19  1  0
 20 23  1  0
 21 18  1  0
 21 22  1  0
 22 20  2  0
 23 24  1  0
 24 25  2  0
 26 29  1  0
 26 25  1  0
 27 26  2  0
 28 27  1  0
 28 23  2  0
 29 30  1  0
 30 31  1  0
 31 32  2  0
 33 32  1  0
 33 37  1  0
 34 33  2  0
 35 30  2  0
 35 34  1  0
 36 35  1  0
 38 39  1  0
 39 42  1  0
 39 41  1  0
 40 38  2  0
 43 44  1  0
 43 18  1  0
 45 43  1  0
 46 47  1  0
 46  7  1  0
 48 49  1  0
 48 47  2  0
 50 61  2  0
 51 49  1  0
 51 56  1  0
 52 60  1  0
 52 62  1  0
 53 59  1  0
 53 55  1  0
 54 60  1  0
 55 54  1  0
 56 55  2  0
 57 51  2  0
 58 57  1  0
 58 53  2  0
 59 52  1  0
 60 50  1  0
 62 64  2  0
 63 62  1  0
 65 63  1  0
 66 75  2  0
 66 71  1  0
 67 63  1  0
 67 71  1  0
 68 67  1  0
 69 70  1  0
 69 68  1  0
 70 66  1  0
 71 72  2  0
 72 73  1  0
 74 73  2  0
 75 74  1  0
 76 50  1  0
 76 81  1  0
 76 77  1  0
 77 80  1  1
 77 78  1  0
 79 77  1  0
 81 84  1  0
 82 86  1  0
 82 81  1  0
 83 82  2  0
 86 85  1  0
 88 86  1  0
 88 89  1  0
 88 87  1  0
M  ISO  4   9 100  10 100  48 101  49 101
M  END
>  <TORSDO>  (21) 
F 20

>  <SCORE>  (21) 
-14.172

>  <name>  (21) 
21

>  <ligand_id>  (21) 
21

>  <original_smiles>  (21) 
[H]C1=C(C([H])([H])C(=O)N2C([H])([H])C([H])([H])C([H])([H])C([H])(n3nc(-c4c([H])c([H])c(Oc5c([H])c([H])c(F)c([H])c5F)c([H])c4[H])c(C(=O)N([H])[H])c3N([H])[H])C2([H])[H])C(=O)C(=NC([H])([H])C([H])([H])C([H])([H])Oc2c([H])c([H])c3c(c2[H])C([H])([H])N(C(=O)C([H])(N([H])C(=O)C([H])(N([H])C([H])([H])[H])C([H])([H])[H])C(C([H])([H])[H])(C([H])([H])[H])C([H])([H])[H])C([H])(C(=O)N([H])C2([H])c4c([H])c([H])c([H])c([H])c4C([H])([H])C([H])([H])C2([H])[H])C3([H])[H])C1([H])C([H])([H])[H]

>  <smiles>  (21) 
[H]C1=C(C([H])([H])C(=O)N2C([H])([H])C([H])([H])C([H])([H])C([H])(n3nc(-c4c([H])c([H])c(Oc5c([H])c([H])c(F)c([H])c5F)c([H])c4[H])c(C(=O)N([H])[H])c3N([H])[H])C2([H])[H])C(=O)C(=NC([H])([H])C([H])([H])C([H])([H])Oc2c([H])c([H])c3c(c2[H])C([H])([H])N(C(=O)C([H])(N([H])C(=O)C([H])(N([H])C([H])([H])[H])C([H])([H])[H])C(C([H])([H])[H])(C([H])([H])[H])C([H])([H])[H])C([H])(C(=O)N([H])C2([H])c4c([H])c([H])c([H])c([H])c4C([H])([H])C([H])([H])C2([H])[H])C3([H])[H])C1([H])C([H])([H])[H]

$$$$
22:0:0
     RDKit          3D

 84 91  0  0  1  0  0  0  0  0999 V2000
  -28.6380  -22.6540   20.4640 C   0  0  0  0  0  3  0  0  0  0  0  0
  -28.8560  -21.2680   19.9520 C   0  0  0  0  0  3  0  0  0  0  0  0
  -29.9430  -19.8930   21.9450 C   0  0  0  0  0  1  0  0  0  0  0  0
  -29.2370  -19.6620   20.6010 C   0  0  0  0  0  3  0  0  0  0  0  0
  -29.8610  -18.0730   19.9760 C   0  0  0  0  0  3  0  0  0  0  0  0
  -29.6850  -16.7020   20.3300 N   0  0  0  0  0  0  0  0  0  0  0  0
  -30.4420  -15.3920   19.9380 C   0  0  0  0  0  0  0  0  0  0  0  0
  -30.3590  -12.9420   19.0260 C   0  0  0  0  0  2  0  0  0  0  0  0
  -29.3790  -12.7780   17.8340 C   0  0  0  0  0  2  0  0  0  0  0  0
  -27.9520  -12.5020   18.3350 C   0  0  0  0  0  2  0  0  0  0  0  0
  -27.5670  -13.4400   19.5060 C   0  0  0  0  0  3  0  0  0  0  0  0
  -28.6700  -13.5600   20.5790 C   0  0  0  0  0  2  0  0  0  0  0  0
  -29.8820  -14.0720   19.9170 N   0  0  0  0  0  0  0  0  0  0  0  0
  -31.6120  -15.3710   19.5350 O   0  0  0  0  0  0  0  0  0  0  0  0
  -25.2450  -13.9950   20.3900 C   0  0  0  0  0  0  0  0  0  0  0  0
  -24.1980  -13.2190   20.8010 C   0  0  0  0  0  0  0  0  0  0  0  0
  -24.6540  -11.8660   20.7270 C   0  0  0  0  0  0  0  0  0  0  0  0
  -26.2670  -13.1180   20.0780 N   0  0  0  0  0  0  0  0  0  0  0  0
  -25.9280  -11.8290   20.3500 N   0  0  0  0  0  0  0  0  0  0  0  0
  -23.9270  -10.6070   20.9380 C   0  0  0  0  0  0  0  0  0  0  0  0
  -24.3890   -9.6270   21.8450 C   0  0  0  0  0  3  0  0  0  0  0  0
  -23.6590   -8.4350   22.0450 C   0  0  0  0  0  3  0  0  0  0  0  0
  -22.4530   -8.2140   21.3400 C   0  0  0  0  0  0  0  0  0  0  0  0
  -22.0090   -9.1820   20.4210 C   0  0  0  0  0  3  0  0  0  0  0  0
  -22.7390  -10.3640   20.2180 C   0  0  0  0  0  3  0  0  0  0  0  0
  -21.6920   -7.0760   21.4500 O   0  0  0  0  0  0  0  0  0  0  0  0
  -21.6790   -6.3270   22.6000 C   0  0  0  0  0  0  0  0  0  0  0  0
  -21.3040   -6.8790   23.8440 C   0  0  0  0  0  3  0  0  0  0  0  0
  -21.2370   -6.0580   24.9880 C   0  0  0  0  0  3  0  0  0  0  0  0
  -21.5340   -4.6860   24.8880 C   0  0  0  0  0  0  0  0  0  0  0  0
  -21.9030   -4.1330   23.6490 C   0  0  0  0  0  3  0  0  0  0  0  0
  -21.9710   -4.9510   22.5080 C   0  0  0  0  0  0  0  0  0  0  0  0
  -22.3050   -4.4090   21.3120 F   0  0  0  0  0  0  0  0  0  0  0  0
  -21.4640   -3.8950   25.9850 F   0  0  0  0  0  0  0  0  0  0  0  0
  -22.8200  -13.7030   21.1450 C   0  0  0  0  0  0  0  0  0  0  0  0
  -22.1340  -13.0060   22.0440 N   0  0  0  0  0  0  0  0  0  0  0  0
  -22.3630  -14.7340   20.6540 O   0  0  0  0  0  0  0  0  0  0  0  0
  -22.5180  -12.1730   22.4640 H   0  0  0  0  0  0  0  0  0  0  0  0
  -21.2110  -13.3110   22.3190 H   0  0  0  0  0  0  0  0  0  0  0  0
  -25.4100  -15.3680   20.2290 N   0  0  0  0  0  0  0  0  0  0  0  0
  -24.6670  -16.0350   20.4090 H   0  0  0  0  0  0  0  0  0  0  0  0
  -26.2710  -15.8050   19.9190 H   0  0  0  0  0  0  0  0  0  0  0  0
  -27.9880  -24.1940   19.8790 C   0  0  0  0  0  2  0  0  0  0  0  0
  -28.1520  -25.7950   20.3240 O   0  0  0  0  0  0  0  0  0  0  0  0
  -24.6280  -31.8560   23.2190 C   0  0  0  0  0  0  0  0  0  0  0  0
  -27.1640  -26.9280   20.2150 C   0  0  0  0  0  0  0  0  0  0  0  0
  -23.4270  -30.4530   21.5910 C   0  0  0  0  0  3  0  0  0  0  0  0
  -24.8710  -28.8380   20.1660 C   0  0  0  0  0  0  0  0  0  0  0  0
  -25.9950  -30.6500   21.4390 C   0  0  0  0  0  2  0  0  0  0  0  0
  -26.0610  -29.2340   20.7880 C   0  0  0  0  0  0  0  0  0  0  0  0
  -27.1970  -28.2980   20.7910 C   0  0  0  0  0  3  0  0  0  0  0  0
  -25.9490  -26.7030   19.5270 C   0  0  0  0  0  3  0  0  0  0  0  0
  -24.8420  -27.5950   19.5140 C   0  0  0  0  0  3  0  0  0  0  0  0
  -23.6530  -29.7630   20.2160 C   0  0  0  0  0  2  0  0  0  0  0  0
  -24.7060  -31.0150   22.1360 N   0  0  0  0  0  0  0  0  0  0  0  0
  -23.5400  -32.1500   23.7410 O   0  0  0  0  0  0  0  0  0  0  0  0
  -22.7340  -29.4640   22.5650 C   0  0  0  0  0  0  0  0  0  0  0  0
  -21.4040  -29.2940   22.4420 N   0  0  0  0  0  0  0  0  0  0  0  0
  -23.4000  -28.8500   23.4020 O   0  0  0  0  0  0  0  0  0  0  0  0
  -20.9190  -29.8400   21.7440 H   0  0  0  0  0  0  0  0  0  0  0  0
  -18.0320  -28.0460   22.9370 C   0  0  0  0  0  0  0  0  0  0  0  0
  -20.5850  -28.3590   23.2210 C   0  0  0  0  0  3  0  0  0  0  0  0
  -20.7140  -26.9170   22.6730 C   0  0  0  0  0  2  0  0  0  0  0  0
  -19.6270  -26.5590   21.6530 C   0  0  0  0  0  2  0  0  0  0  0  0
  -18.2380  -26.6910   22.2820 C   0  0  0  0  0  2  0  0  0  0  0  0
  -19.1340  -28.8360   23.3630 C   0  0  0  0  0  0  0  0  0  0  0  0
  -18.8850  -30.1000   23.9390 C   0  0  0  0  0  3  0  0  0  0  0  0
  -17.5690  -30.5770   24.0910 C   0  0  0  0  0  3  0  0  0  0  0  0
  -16.4830  -29.7860   23.6780 C   0  0  0  0  0  3  0  0  0  0  0  0
  -16.7150  -28.5220   23.1070 C   0  0  0  0  0  3  0  0  0  0  0  0
  -25.9000  -32.5030   23.8440 C   0  0  0  0  0  3  0  0  0  0  0  0
  -26.4120  -31.7430   25.1300 C   0  0  1  0  0  0  0  0  0  0  0  0
  -25.3170  -31.5160   26.1990 C   0  0  0  0  0  1  0  0  0  0  0  0
  -26.9950  -30.3610   24.7610 C   0  0  0  0  0  1  0  0  0  0  0  0
  -27.5620  -32.5420   25.7880 C   0  0  0  0  0  1  0  0  0  0  0  0
  -25.5800  -33.9030   24.1810 N   0  0  0  0  0  0  0  0  0  0  0  0
  -25.9090  -34.9680   23.4370 C   0  0  0  0  0  0  0  0  0  0  0  0
  -26.5760  -34.8750   22.4040 O   0  0  0  0  0  0  0  0  0  0  0  0
  -24.9850  -34.0470   24.9840 H   0  0  0  0  0  0  0  0  0  0  0  0
  -24.1800  -36.7710   23.1160 C   0  0  0  0  0  1  0  0  0  0  0  0
  -25.4270  -36.3540   23.9120 C   0  0  0  0  0  3  0  0  0  0  0  0
  -27.5670  -37.2360   24.7370 C   0  0  0  0  0  1  0  0  0  0  0  0
  -26.4590  -37.4090   23.8020 N   0  0  0  0  0  0  0  0  0  0  0  0
  -26.0530  -38.3280   23.9580 H   0  0  0  0  0  0  0  0  0  0  0  0
  2  1  2  0
  2  4  1  0
  4  3  1  0
  5  6  2  0
  5  4  1  0
  7  6  1  0
  8 13  1  0
  9 10  1  0
  9  8  1  0
 11 10  1  0
 11 18  1  0
 11 12  1  0
 13  7  1  0
 13 12  1  0
 14  7  2  0
 15 16  2  0
 16 35  1  0
 17 16  1  0
 17 20  1  0
 18 19  1  0
 18 15  1  0
 19 17  2  0
 20 21  1  0
 21 22  2  0
 23 26  1  0
 23 22  1  0
 24 23  2  0
 25 24  1  0
 25 20  2  0
 26 27  1  0
 27 28  1  0
 28 29  2  0
 30 29  1  0
 30 34  1  0
 31 30  2  0
 32 27  2  0
 32 31  1  0
 33 32  1  0
 35 36  1  0
 36 39  1  0
 36 38  1  0
 37 35  2  0
 40 15  1  0
 40 41  1  0
 42 40  1  0
 43 44  1  0
 43  1  1  0
 45 56  2  0
 46 44  1  0
 46 51  1  0
 47 55  1  0
 47 57  1  0
 48 54  1  0
 48 50  1  0
 49 55  1  0
 50 51  2  0
 50 49  1  0
 52 46  2  0
 53 52  1  0
 53 48  2  0
 54 47  1  0
 55 45  1  0
 57 59  2  0
 58 57  1  0
 60 58  1  0
 61 70  2  0
 61 66  1  0
 62 58  1  0
 62 66  1  0
 63 62  1  0
 64 65  1  0
 64 63  1  0
 65 61  1  0
 66 67  2  0
 67 68  1  0
 69 68  2  0
 70 69  1  0
 71 45  1  0
 71 76  1  0
 71 72  1  0
 72 75  1  1
 72 73  1  0
 74 72  1  0
 76 79  1  0
 77 81  1  0
 77 76  1  0
 78 77  2  0
 81 80  1  0
 83 81  1  0
 83 84  1  0
 83 82  1  0
M  ISO  4   6 100   7 100  43 101  44 101
M  END
>  <TORSDO>  (22) 
F 19

>  <SCORE>  (22) 
-15.400

>  <name>  (22) 
22

>  <ligand_id>  (22) 
22

>  <original_smiles>  (22) 
[H]C(=NC(=O)N1C([H])([H])C([H])([H])C([H])([H])C([H])(n2nc(-c3c([H])c([H])c(Oc4c([H])c([H])c(F)c([H])c4F)c([H])c3[H])c(C(=O)N([H])[H])c2N([H])[H])C1([H])[H])C([H])(C([H])=C([H])C([H])([H])Oc1c([H])c([H])c2c(c1[H])C([H])([H])N(C(=O)C([H])(N([H])C(=O)C([H])(N([H])C([H])([H])[H])C([H])([H])[H])C(C([H])([H])[H])(C([H])([H])[H])C([H])([H])[H])C([H])(C(=O)N([H])C1([H])c3c([H])c([H])c([H])c([H])c3C([H])([H])C([H])([H])C1([H])[H])C2([H])[H])C([H])([H])[H]

>  <smiles>  (22) 
[H]C(=NC(=O)N1C([H])([H])C([H])([H])C([H])([H])C([H])(n2nc(-c3c([H])c([H])c(Oc4c([H])c([H])c(F)c([H])c4F)c([H])c3[H])c(C(=O)N([H])[H])c2N([H])[H])C1([H])[H])C([H])(C([H])=C([H])C([H])([H])Oc1c([H])c([H])c2c(c1[H])C([H])([H])N(C(=O)C([H])(N([H])C(=O)C([H])(N([H])C([H])([H])[H])C([H])([H])[H])C(C([H])([H])[H])(C([H])([H])[H])C([H])([H])[H])C([H])(C(=O)N([H])C1([H])c3c([H])c([H])c([H])c([H])c3C([H])([H])C([H])([H])C1([H])[H])C2([H])[H])C([H])([H])[H]

$$$$
23:0:0
     RDKit          3D

 96103  0  0  1  0  0  0  0  0999 V2000
  -32.4010  -19.6400   18.4060 C   0  0  0  0  0  1  0  0  0  0  0  0
  -31.2270  -19.5190   19.3940 C   0  0  0  0  0  3  0  0  0  0  0  0
  -30.5290  -18.2000   19.1730 C   0  0  0  0  0  0  0  0  0  0  0  0
  -29.9280  -17.9880   17.9860 N   0  0  0  0  0  4  0  0  0  0  0  0
  -30.4980  -17.2880   20.1760 N   0  0  0  0  0  0  0  0  0  0  0  0
  -30.0370  -18.6220   17.2100 H   0  0  0  0  0  0  0  0  0  0  0  0
  -29.4560  -17.1300   17.7600 H   0  0  0  0  0  0  0  0  0  0  0  0
  -31.0260  -17.5040   21.0110 H   0  0  0  0  0  0  0  0  0  0  0  0
  -28.4440  -16.3140   21.1380 C   0  0  0  0  0  1  0  0  0  0  0  0
  -29.6640  -16.0690   20.2380 C   0  0  0  0  0  3  0  0  0  0  0  0
  -30.9040  -13.9670   19.8820 C   0  0  0  0  0  0  0  0  0  0  0  0
  -30.4950  -11.7800   18.8180 C   0  0  0  0  0  2  0  0  0  0  0  0
  -29.4650  -11.9680   17.6820 C   0  0  0  0  0  2  0  0  0  0  0  0
  -28.0240  -11.8740   18.2220 C   0  0  0  0  0  2  0  0  0  0  0  0
  -27.7990  -12.7730   19.4660 C   0  0  0  0  0  3  0  0  0  0  0  0
  -28.9220  -12.5400   20.5050 C   0  0  0  0  0  2  0  0  0  0  0  0
  -30.2270  -12.7870   19.8560 N   0  0  0  0  0  0  0  0  0  0  0  0
  -31.8760  -14.2160   19.1650 O   0  0  0  0  0  0  0  0  0  0  0  0
  -30.3890  -14.8860   20.7120 N   0  0  0  0  0  0  0  0  0  0  0  0
  -29.9010  -14.4450   21.4770 H   0  0  0  0  0  0  0  0  0  0  0  0
  -25.4870  -13.4980   20.3440 C   0  0  0  0  0  0  0  0  0  0  0  0
  -24.4220  -12.7760   20.8110 C   0  0  0  0  0  0  0  0  0  0  0  0
  -24.8220  -11.4070   20.7600 C   0  0  0  0  0  0  0  0  0  0  0  0
  -26.4740  -12.5700   20.0470 N   0  0  0  0  0  0  0  0  0  0  0  0
  -26.0790  -11.3080   20.3490 N   0  0  0  0  0  0  0  0  0  0  0  0
  -24.0640  -10.1780   21.0250 C   0  0  0  0  0  0  0  0  0  0  0  0
  -24.5000   -9.2310   21.9780 C   0  0  0  0  0  3  0  0  0  0  0  0
  -23.7440   -8.0660   22.2270 C   0  0  0  0  0  3  0  0  0  0  0  0
  -22.5370   -7.8380   21.5230 C   0  0  0  0  0  0  0  0  0  0  0  0
  -22.1180   -8.7740   20.5610 C   0  0  0  0  0  3  0  0  0  0  0  0
  -22.8750   -9.9310   20.3100 C   0  0  0  0  0  3  0  0  0  0  0  0
  -21.7510   -6.7230   21.6800 O   0  0  0  0  0  0  0  0  0  0  0  0
  -21.7060   -6.0370   22.8680 C   0  0  0  0  0  0  0  0  0  0  0  0
  -21.2810   -6.6520   24.0670 C   0  0  0  0  0  3  0  0  0  0  0  0
  -21.1840   -5.8910   25.2510 C   0  0  0  0  0  3  0  0  0  0  0  0
  -21.4970   -4.5190   25.2340 C   0  0  0  0  0  0  0  0  0  0  0  0
  -21.9140   -3.9050   24.0400 C   0  0  0  0  0  3  0  0  0  0  0  0
  -22.0140   -4.6630   22.8590 C   0  0  0  0  0  0  0  0  0  0  0  0
  -22.3950   -4.0620   21.7060 F   0  0  0  0  0  0  0  0  0  0  0  0
  -21.3960   -3.7870   26.3690 F   0  0  0  0  0  0  0  0  0  0  0  0
  -23.0710  -13.3150   21.1910 C   0  0  0  0  0  0  0  0  0  0  0  0
  -22.3940  -12.6630   22.1300 N   0  0  0  0  0  0  0  0  0  0  0  0
  -22.6310  -14.3500   20.6910 O   0  0  0  0  0  0  0  0  0  0  0  0
  -22.7660  -11.8270   22.5560 H   0  0  0  0  0  0  0  0  0  0  0  0
  -21.4900  -13.0030   22.4280 H   0  0  0  0  0  0  0  0  0  0  0  0
  -25.6880  -14.8570   20.1280 N   0  0  0  0  0  0  0  0  0  0  0  0
  -24.9360  -15.5270   20.2570 H   0  0  0  0  0  0  0  0  0  0  0  0
  -26.4910  -15.2510   19.6610 H   0  0  0  0  0  0  0  0  0  0  0  0
  -30.2250  -20.5990   19.2110 N   0  0  0  0  0  4  0  0  0  0  0  0
  -30.0070  -20.6930   18.2330 H   0  0  0  0  0  0  0  0  0  0  0  0
  -29.3810  -20.2830   19.6620 H   0  0  0  0  0  0  0  0  0  0  0  0
  -30.5600  -21.9330   19.7630 C   0  0  0  0  0  2  0  0  0  0  0  0
  -29.4150  -22.9230   19.4820 C   0  0  0  0  0  2  0  0  0  0  0  0
  -29.5980  -24.3480   20.0400 C   0  0  0  0  0  2  0  0  0  0  0  0
  -28.3450  -25.1830   19.7370 C   0  0  0  0  0  2  0  0  0  0  0  0
  -28.4000  -26.5170   20.2440 O   0  0  0  0  0  0  0  0  0  0  0  0
  -24.5460  -31.7260   23.2030 C   0  0  0  0  0  0  0  0  0  0  0  0
  -27.2270  -27.2480   20.1960 C   0  0  0  0  0  0  0  0  0  0  0  0
  -23.3810  -30.3560   21.5070 C   0  0  0  0  0  3  0  0  0  0  0  0
  -24.8580  -28.8010   20.1380 C   0  0  0  0  0  0  0  0  0  0  0  0
  -25.9210  -30.6610   21.4190 C   0  0  0  0  0  2  0  0  0  0  0  0
  -26.0020  -29.2940   20.7750 C   0  0  0  0  0  0  0  0  0  0  0  0
  -27.1870  -28.5230   20.8050 C   0  0  0  0  0  3  0  0  0  0  0  0
  -26.0530  -26.7730   19.5570 C   0  0  0  0  0  3  0  0  0  0  0  0
  -24.8770  -27.5380   19.5300 C   0  0  0  0  0  3  0  0  0  0  0  0
  -23.6340  -29.6870   20.1330 C   0  0  0  0  0  2  0  0  0  0  0  0
  -24.6330  -30.9290   22.1010 N   0  0  0  0  0  0  0  0  0  0  0  0
  -23.4480  -32.0180   23.6970 O   0  0  0  0  0  0  0  0  0  0  0  0
  -22.6740  -29.3400   22.4310 C   0  0  0  0  0  0  0  0  0  0  0  0
  -21.3450  -29.2190   22.2760 N   0  0  0  0  0  0  0  0  0  0  0  0
  -23.3170  -28.6670   23.2420 O   0  0  0  0  0  0  0  0  0  0  0  0
  -20.8940  -29.8160   21.5980 H   0  0  0  0  0  0  0  0  0  0  0  0
  -17.9040  -28.2110   22.7290 C   0  0  0  0  0  0  0  0  0  0  0  0
  -20.4720  -28.3040   23.0100 C   0  0  0  0  0  3  0  0  0  0  0  0
  -20.4890  -26.8910   22.3820 C   0  0  0  0  0  2  0  0  0  0  0  0
  -19.3710  -26.6730   21.3580 C   0  0  0  0  0  2  0  0  0  0  0  0
  -18.0000  -26.8780   22.0070 C   0  0  0  0  0  2  0  0  0  0  0  0
  -19.0660  -28.8890   23.1860 C   0  0  0  0  0  0  0  0  0  0  0  0
  -18.9240  -30.1420   23.8190 C   0  0  0  0  0  3  0  0  0  0  0  0
  -17.6530  -30.7140   24.0060 C   0  0  0  0  0  3  0  0  0  0  0  0
  -16.5050  -30.0330   23.5640 C   0  0  0  0  0  3  0  0  0  0  0  0
  -16.6310  -28.7840   22.9270 C   0  0  0  0  0  3  0  0  0  0  0  0
  -25.8190  -32.3240   23.8800 C   0  0  0  0  0  3  0  0  0  0  0  0
  -25.5090  -33.7110   24.2490 N   0  0  0  0  0  0  0  0  0  0  0  0
  -25.8650  -34.7860   23.5330 C   0  0  0  0  0  0  0  0  0  0  0  0
  -26.5600  -34.7130   22.5160 O   0  0  0  0  0  0  0  0  0  0  0  0
  -24.8970  -33.8440   25.0400 H   0  0  0  0  0  0  0  0  0  0  0  0
  -24.1560  -36.5960   23.1900 C   0  0  0  0  0  1  0  0  0  0  0  0
  -25.3710  -36.1600   24.0230 C   0  0  0  0  0  3  0  0  0  0  0  0
  -27.4800  -37.0080   24.9480 C   0  0  0  0  0  1  0  0  0  0  0  0
  -26.4100  -37.2100   23.9740 N   0  0  0  0  0  0  0  0  0  0  0  0
  -26.0020  -38.1280   24.1370 H   0  0  0  0  0  0  0  0  0  0  0  0
  -26.2980  -31.5040   25.1400 C   0  0  1  0  0  0  0  0  0  0  0  0
  -25.1760  -31.2300   26.1690 C   0  0  0  0  0  1  0  0  0  0  0  0
  -26.8890  -30.1400   24.7090 C   0  0  0  0  0  1  0  0  0  0  0  0
  -27.4270  -32.2720   25.8640 C   0  0  0  0  0  1  0  0  0  0  0  0
  2  1  1  0
  3  2  1  0
  3  5  1  0
  4  3  2  0
  5 10  1  0
  5  8  1  0
  6  4  1  0
  7  4  1  0
 10 19  1  0
 10  9  1  0
 11 19  1  0
 12 17  1  0
 13 14  1  0
 13 12  1  0
 15 14  1  0
 15 24  1  0
 15 16  1  0
 17 11  1  0
 17 16  1  0
 18 11  2  0
 19 20  1  0
 21 22  2  0
 22 41  1  0
 23 22  1  0
 23 26  1  0
 24 21  1  0
 24 25  1  0
 25 23  2  0
 26 27  1  0
 27 28  2  0
 29 32  1  0
 29 28  1  0
 30 29  2  0
 31 30  1  0
 31 26  2  0
 32 33  1  0
 33 34  1  0
 34 35  2  0
 36 35  1  0
 36 40  1  0
 37 36  2  0
 38 33  2  0
 38 37  1  0
 39 38  1  0
 41 42  1  0
 42 45  1  0
 42 44  1  0
 43 41  2  0
 46 47  1  0
 46 21  1  0
 48 46  1  0
 49  2  1  0
 49 51  1  0
 49 52  1  0
 50 49  1  0
 53 52  1  0
 53 54  1  0
 55 54  1  0
 55 56  1  0
 57 68  2  0
 58 56  1  0
 58 63  1  0
 59 67  1  0
 59 69  1  0
 60 62  1  0
 61 67  1  0
 62 63  2  0
 62 61  1  0
 64 58  2  0
 65 64  1  0
 65 60  2  0
 66 60  1  0
 66 59  1  0
 67 57  1  0
 69 71  2  0
 70 69  1  0
 72 70  1  0
 73 82  2  0
 73 78  1  0
 74 70  1  0
 74 78  1  0
 75 74  1  0
 76 77  1  0
 76 75  1  0
 77 73  1  0
 78 79  2  0
 79 80  1  0
 81 80  2  0
 82 81  1  0
 83 57  1  0
 83 84  1  0
 83 93  1  0
 84 87  1  0
 85 89  1  0
 85 84  1  0
 86 85  2  0
 89 88  1  0
 91 89  1  0
 91 92  1  0
 91 90  1  0
 93 96  1  1
 93 94  1  0
 95 93  1  0
M  ISO  4  11 100  19 100  55 101  56 101
M  END
>  <TORSDO>  (23) 
F 23

>  <SCORE>  (23) 
-11.858

>  <name>  (23) 
23

>  <ligand_id>  (23) 
23

>  <original_smiles>  (23) 
[H]c1c([H])c([H])c2c(c1[H])C([H])([H])C([H])([H])C([H])([H])C2([H])N([H])C(=O)C1([H])N(C(=O)C([H])(N([H])C(=O)C([H])(N([H])C([H])([H])[H])C([H])([H])[H])C(C([H])([H])[H])(C([H])([H])[H])C([H])([H])[H])C([H])([H])c2c([H])c(OC([H])([H])C([H])([H])C([H])([H])C([H])([H])[N+]([H])([H])C([H])(C(N([H])[H])=[N+]([H])C([H])(N([H])C(=O)N3C([H])([H])C([H])([H])C([H])([H])C([H])(n4nc(-c5c([H])c([H])c(Oc6c([H])c([H])c(F)c([H])c6F)c([H])c5[H])c(C(=O)N([H])[H])c4N([H])[H])C3([H])[H])C([H])([H])[H])C([H])([H])[H])c([H])c([H])c2C1([H])[H]

>  <smiles>  (23) 
[H]c1c([H])c([H])c2c(c1[H])C([H])([H])C([H])([H])C([H])([H])C2([H])N([H])C(=O)C1([H])N(C(=O)C([H])(N([H])C(=O)C([H])(N([H])C([H])([H])[H])C([H])([H])[H])C(C([H])([H])[H])(C([H])([H])[H])C([H])([H])[H])C([H])([H])c2c([H])c(OC([H])([H])C([H])([H])C([H])([H])C([H])([H])[N+]([H])([H])C([H])(C(N([H])[H])=[N+]([H])C([H])(N([H])C(=O)N3C([H])([H])C([H])([H])C([H])([H])C([H])(n4nc(-c5c([H])c([H])c(Oc6c([H])c([H])c(F)c([H])c6F)c([H])c5[H])c(C(=O)N([H])[H])c4N([H])[H])C3([H])[H])C([H])([H])[H])C([H])([H])[H])c([H])c([H])c2C1([H])[H]

$$$$
24:0:0
     RDKit          3D

 97104  0  0  1  0  0  0  0  0999 V2000
  -30.1760  -17.7310   20.3660 C   0  0  0  0  0  3  0  0  0  0  0  0
  -30.5210  -14.9670   20.2850 C   0  0  0  0  0  0  0  0  0  0  0  0
  -30.3530  -12.6310   19.3310 C   0  0  0  0  0  2  0  0  0  0  0  0
  -29.4070  -12.6140   18.1090 C   0  0  0  0  0  2  0  0  0  0  0  0
  -27.9500  -12.4050   18.5630 C   0  0  0  0  0  2  0  0  0  0  0  0
  -27.5620  -13.3210   19.7550 C   0  0  0  0  0  3  0  0  0  0  0  0
  -28.6350  -13.3230   20.8640 C   0  0  0  0  0  2  0  0  0  0  0  0
  -29.8940  -13.7250   20.2310 N   0  0  0  0  0  0  0  0  0  0  0  0
  -31.7330  -14.9770   20.0530 O   0  0  0  0  0  0  0  0  0  0  0  0
  -29.7770  -16.1840   20.3760 N   0  0  0  0  0  0  0  0  0  0  0  0
  -28.7880  -16.0310   20.5050 H   0  0  0  0  0  0  0  0  0  0  0  0
  -25.1970  -13.8970   20.5390 C   0  0  0  0  0  0  0  0  0  0  0  0
  -24.1350  -13.1220   20.9160 C   0  0  0  0  0  0  0  0  0  0  0  0
  -24.5940  -11.7710   20.8640 C   0  0  0  0  0  0  0  0  0  0  0  0
  -26.2320  -13.0200   20.2730 N   0  0  0  0  0  0  0  0  0  0  0  0
  -25.8810  -11.7350   20.5360 N   0  0  0  0  0  0  0  0  0  0  0  0
  -23.8670  -10.5080   21.0510 C   0  0  0  0  0  0  0  0  0  0  0  0
  -24.2970   -9.5370   21.9810 C   0  0  0  0  0  3  0  0  0  0  0  0
  -23.5700   -8.3400   22.1540 C   0  0  0  0  0  3  0  0  0  0  0  0
  -22.3960   -8.1060   21.3970 C   0  0  0  0  0  0  0  0  0  0  0  0
  -21.9850   -9.0670   20.4560 C   0  0  0  0  0  3  0  0  0  0  0  0
  -22.7120  -10.2560   20.2810 C   0  0  0  0  0  3  0  0  0  0  0  0
  -21.6380   -6.9630   21.4800 O   0  0  0  0  0  0  0  0  0  0  0  0
  -21.5760   -6.2230   22.6340 C   0  0  0  0  0  0  0  0  0  0  0  0
  -21.1220   -6.7770   23.8500 C   0  0  0  0  0  3  0  0  0  0  0  0
  -21.0070   -5.9620   24.9940 C   0  0  0  0  0  3  0  0  0  0  0  0
  -21.3360   -4.5960   24.9230 C   0  0  0  0  0  0  0  0  0  0  0  0
  -21.7840   -4.0420   23.7110 C   0  0  0  0  0  3  0  0  0  0  0  0
  -21.9010   -4.8540   22.5690 C   0  0  0  0  0  0  0  0  0  0  0  0
  -22.3130   -4.3110   21.3970 F   0  0  0  0  0  0  0  0  0  0  0  0
  -21.2200   -3.8110   26.0200 F   0  0  0  0  0  0  0  0  0  0  0  0
  -22.7420  -13.6020   21.2050 C   0  0  0  0  0  0  0  0  0  0  0  0
  -22.0140  -12.8950   22.0630 N   0  0  0  0  0  0  0  0  0  0  0  0
  -22.3090  -14.6390   20.7070 O   0  0  0  0  0  0  0  0  0  0  0  0
  -22.3760  -12.0540   22.4890 H   0  0  0  0  0  0  0  0  0  0  0  0
  -21.0810  -13.1980   22.2980 H   0  0  0  0  0  0  0  0  0  0  0  0
  -25.3590  -15.2690   20.3670 N   0  0  0  0  0  0  0  0  0  0  0  0
  -24.5860  -15.9160   20.4770 H   0  0  0  0  0  0  0  0  0  0  0  0
  -26.1840  -15.7010   19.9740 H   0  0  0  0  0  0  0  0  0  0  0  0
  -28.1100  -18.6840   19.2020 C   0  0  0  0  0  2  0  0  0  0  0  0
  -29.1110  -18.9490   20.0580 C   0  0  0  0  0  0  0  0  0  0  0  0
  -29.1130  -20.4580   20.7290 C   0  0  0  0  0  2  0  0  0  0  0  0
  -29.1490  -21.9280   19.9050 C   0  0  0  0  0  2  0  0  0  0  0  0
  -28.1970  -23.3300   20.0200 C   0  0  0  0  0  2  0  0  0  0  0  0
  -28.4530  -24.8020   20.7920 C   0  0  0  0  0  2  0  0  0  0  0  0
  -28.3960  -26.2760   20.2920 O   0  0  0  0  0  0  0  0  0  0  0  0
  -24.6330  -31.9200   23.2550 C   0  0  0  0  0  0  0  0  0  0  0  0
  -27.2800  -27.1780   20.3430 C   0  0  0  0  0  0  0  0  0  0  0  0
  -23.4600  -30.4860   21.6260 C   0  0  0  0  0  3  0  0  0  0  0  0
  -24.9330  -28.8850   20.2590 C   0  0  0  0  0  0  0  0  0  0  0  0
  -26.0120  -30.7710   21.4810 C   0  0  0  0  0  2  0  0  0  0  0  0
  -26.1030  -29.3630   20.8640 C   0  0  0  0  0  0  0  0  0  0  0  0
  -27.2790  -28.5270   20.8800 C   0  0  0  0  0  3  0  0  0  0  0  0
  -26.0790  -26.7800   19.7240 C   0  0  0  0  0  3  0  0  0  0  0  0
  -24.9320  -27.6060   19.6770 C   0  0  0  0  0  3  0  0  0  0  0  0
  -23.7030  -29.7770   20.2660 C   0  0  0  0  0  2  0  0  0  0  0  0
  -24.7220  -31.0820   22.1770 N   0  0  0  0  0  0  0  0  0  0  0  0
  -23.5390  -32.2080   23.7660 O   0  0  0  0  0  0  0  0  0  0  0  0
  -22.7760  -29.4950   22.6010 C   0  0  0  0  0  0  0  0  0  0  0  0
  -21.4480  -29.3190   22.4650 N   0  0  0  0  0  0  0  0  0  0  0  0
  -23.4410  -28.8840   23.4400 O   0  0  0  0  0  0  0  0  0  0  0  0
  -20.9670  -29.8660   21.7640 H   0  0  0  0  0  0  0  0  0  0  0  0
  -18.0620  -28.1370   22.9730 C   0  0  0  0  0  0  0  0  0  0  0  0
  -20.6220  -28.3920   23.2420 C   0  0  0  0  0  3  0  0  0  0  0  0
  -20.7180  -26.9540   22.6810 C   0  0  0  0  0  2  0  0  0  0  0  0
  -19.6170  -26.6270   21.6670 C   0  0  0  0  0  2  0  0  0  0  0  0
  -18.2350  -26.7820   22.3080 C   0  0  0  0  0  2  0  0  0  0  0  0
  -19.1830  -28.9000   23.3980 C   0  0  0  0  0  0  0  0  0  0  0  0
  -18.9670  -30.1660   23.9810 C   0  0  0  0  0  3  0  0  0  0  0  0
  -17.6630  -30.6730   24.1410 C   0  0  0  0  0  3  0  0  0  0  0  0
  -16.5570  -29.9080   23.7320 C   0  0  0  0  0  3  0  0  0  0  0  0
  -16.7570  -28.6420   23.1550 C   0  0  0  0  0  3  0  0  0  0  0  0
  -25.9000  -32.5730   23.8880 C   0  0  0  0  0  3  0  0  0  0  0  0
  -25.5780  -33.9750   24.1970 N   0  0  0  0  0  0  0  0  0  0  0  0
  -25.9110  -35.0210   23.4280 C   0  0  0  0  0  0  0  0  0  0  0  0
  -26.5890  -34.9080   22.4030 O   0  0  0  0  0  0  0  0  0  0  0  0
  -24.9830  -34.1370   24.9950 H   0  0  0  0  0  0  0  0  0  0  0  0
  -24.1830  -36.8080   23.0350 C   0  0  0  0  0  1  0  0  0  0  0  0
  -25.4160  -36.4150   23.8650 C   0  0  0  0  0  3  0  0  0  0  0  0
  -27.5350  -37.3190   24.7130 C   0  0  0  0  0  1  0  0  0  0  0  0
  -26.4460  -37.4700   23.7520 N   0  0  0  0  0  0  0  0  0  0  0  0
  -26.0360  -38.3910   23.8800 H   0  0  0  0  0  0  0  0  0  0  0  0
  -26.4010  -31.8270   25.1870 C   0  0  1  0  0  0  0  0  0  0  0  0
  -25.2930  -31.6000   26.2420 C   0  0  0  0  0  1  0  0  0  0  0  0
  -26.9990  -30.4450   24.8310 C   0  0  0  0  0  1  0  0  0  0  0  0
  -27.5370  -32.6380   25.8540 C   0  0  0  0  0  1  0  0  0  0  0  0
  -31.4350  -17.9080   19.4660 C   0  0  0  0  0  2  0  0  0  0  0  0
  -31.9550  -19.3300   19.1680 C   0  0  0  0  0  2  0  0  0  0  0  0
  -33.4320  -21.0430   20.2350 C   0  0  0  0  0  0  0  0  0  0  0  0
  -34.0530  -21.4760   21.3270 N   0  0  0  0  0  0  0  0  0  0  0  0
  -33.5530  -21.7300   19.1020 N   0  0  0  0  0  4  0  0  0  0  0  0
  -32.6960  -19.9240   20.2920 N   0  0  0  0  0  0  0  0  0  0  0  0
  -34.6200  -22.3130   21.3360 H   0  0  0  0  0  0  0  0  0  0  0  0
  -33.9990  -20.9660   22.1990 H   0  0  0  0  0  0  0  0  0  0  0  0
  -34.1240  -22.5590   19.0330 H   0  0  0  0  0  0  0  0  0  0  0  0
  -33.0800  -21.4290   18.2630 H   0  0  0  0  0  0  0  0  0  0  0  0
  -32.6110  -19.4420   21.1760 H   0  0  0  0  0  0  0  0  0  0  0  0
  1 87  1  0
  1 10  1  0
  2 10  1  0
  3  8  1  0
  4  5  1  0
  4  3  1  0
  6  5  1  0
  6 15  1  0
  6  7  1  0
  8  2  1  0
  8  7  1  0
  9  2  2  0
 10 11  1  0
 12 13  2  0
 13 32  1  0
 14 13  1  0
 14 17  1  0
 15 16  1  0
 15 12  1  0
 16 14  2  0
 17 18  1  0
 18 19  2  0
 20 23  1  0
 20 19  1  0
 21 20  2  0
 22 21  1  0
 22 17  2  0
 23 24  1  0
 24 25  1  0
 25 26  2  0
 27 26  1  0
 27 31  1  0
 28 27  2  0
 29 24  2  0
 29 28  1  0
 30 29  1  0
 32 33  1  0
 33 36  1  0
 33 35  1  0
 34 32  2  0
 37 38  1  0
 37 12  1  0
 39 37  1  0
 40 41  2  0
 41  1  1  0
 41 42  1  0
 43 44  1  0
 43 42  1  0
 44 45  1  0
 46 48  1  0
 46 45  1  0
 47 58  2  0
 48 53  1  0
 49 57  1  0
 49 59  1  0
 50 56  1  0
 50 52  1  0
 51 57  1  0
 52 53  2  0
 52 51  1  0
 54 48  2  0
 55 54  1  0
 55 50  2  0
 56 49  1  0
 57 47  1  0
 59 61  2  0
 60 59  1  0
 62 60  1  0
 63 72  2  0
 63 68  1  0
 64 60  1  0
 64 68  1  0
 65 64  1  0
 66 67  1  0
 66 65  1  0
 67 63  1  0
 68 69  2  0
 69 70  1  0
 71 70  2  0
 72 71  1  0
 73 47  1  0
 73 74  1  0
 73 83  1  0
 74 77  1  0
 75 79  1  0
 75 74  1  0
 76 75  2  0
 79 78  1  0
 81 79  1  0
 81 82  1  0
 81 80  1  0
 83 86  1  1
 83 84  1  0
 85 83  1  0
 88 87  1  0
 88 92  1  0
 89 92  1  0
 89 90  1  0
 90 93  1  0
 90 94  1  0
 91 89  2  0
 92 97  1  0
 95 91  1  0
 96 91  1  0
M  ISO  4   2 100  10 100  45 101  46 101
M  END
>  <TORSDO>  (24) 
F 24

>  <SCORE>  (24) 
-13.350

>  <name>  (24) 
24

>  <ligand_id>  (24) 
24

>  <original_smiles>  (24) 
[H]C([H])=C(C([H])([H])C([H])([H])C([H])([H])C([H])([H])Oc1c([H])c([H])c2c(c1[H])C([H])([H])N(C(=O)C([H])(N([H])C(=O)C([H])(N([H])C([H])([H])[H])C([H])([H])[H])C(C([H])([H])[H])(C([H])([H])[H])C([H])([H])[H])C([H])(C(=O)N([H])C1([H])c3c([H])c([H])c([H])c([H])c3C([H])([H])C([H])([H])C1([H])[H])C2([H])[H])C([H])(N([H])C(=O)N1C([H])([H])C([H])([H])C([H])([H])C([H])(n2nc(-c3c([H])c([H])c(Oc4c([H])c([H])c(F)c([H])c4F)c([H])c3[H])c(C(=O)N([H])[H])c2N([H])[H])C1([H])[H])C([H])([H])C([H])([H])N([H])C(N([H])[H])=[N+]([H])[H]

>  <smiles>  (24) 
[H]C([H])=C(C([H])([H])C([H])([H])C([H])([H])C([H])([H])Oc1c([H])c([H])c2c(c1[H])C([H])([H])N(C(=O)C([H])(N([H])C(=O)C([H])(N([H])C([H])([H])[H])C([H])([H])[H])C(C([H])([H])[H])(C([H])([H])[H])C([H])([H])[H])C([H])(C(=O)N([H])C1([H])c3c([H])c([H])c([H])c([H])c3C([H])([H])C([H])([H])C1([H])[H])C2([H])[H])C([H])(N([H])C(=O)N1C([H])([H])C([H])([H])C([H])([H])C([H])(n2nc(-c3c([H])c([H])c(Oc4c([H])c([H])c(F)c([H])c4F)c([H])c3[H])c(C(=O)N([H])[H])c2N([H])[H])C1([H])[H])C([H])([H])C([H])([H])N([H])C(N([H])[H])=[N+]([H])[H]

$$$$
25:0:0
     RDKit          3D

 96103  0  0  1  0  0  0  0  0999 V2000
  -29.2900  -21.3160   19.7170 C   0  0  0  0  0  0  0  0  0  0  0  0
  -27.9940  -21.2260   20.0390 N   0  0  0  0  0  4  0  0  0  0  0  0
  -29.6930  -22.6260   19.5010 N   0  0  0  0  0  0  0  0  0  0  0  0
  -27.5340  -20.3320   20.1260 H   0  0  0  0  0  0  0  0  0  0  0  0
  -27.4390  -22.0460   20.2230 H   0  0  0  0  0  0  0  0  0  0  0  0
  -30.6910  -22.7340   19.3650 H   0  0  0  0  0  0  0  0  0  0  0  0
  -30.0810  -18.9950   20.0890 C   0  0  0  0  0  3  0  0  0  0  0  0
  -30.1030  -20.1860   19.5070 N   0  0  0  0  0  2  0  0  0  0  0  0
  -28.0270  -18.3990   21.5680 C   0  0  0  0  0  1  0  0  0  0  0  0
  -29.9040  -19.8900   22.5180 C   0  0  0  0  0  1  0  0  0  0  0  0
  -29.5210  -18.7780   21.5150 C   0  0  0  0  0  3  0  0  0  0  0  0
  -30.7840  -17.6720   19.4610 C   0  0  0  0  0  3  0  0  0  0  0  0
  -32.2150  -17.9680   19.2260 N   0  0  0  0  0  4  0  0  0  0  0  0
  -32.7060  -18.1280   20.0880 H   0  0  0  0  0  0  0  0  0  0  0  0
  -32.3190  -18.7830   18.6460 H   0  0  0  0  0  0  0  0  0  0  0  0
  -32.6510  -17.1940   18.7510 H   0  0  0  0  0  0  0  0  0  0  0  0
  -30.6000  -16.1960   20.1500 C   0  0  0  0  0  2  0  0  0  0  0  0
  -31.2290  -14.8680   19.5070 C   0  0  0  0  0  0  0  0  0  0  0  0
  -30.8150  -12.6300   18.4610 C   0  0  0  0  0  2  0  0  0  0  0  0
  -29.7260  -12.7790   17.3750 C   0  0  0  0  0  2  0  0  0  0  0  0
  -28.3180  -12.6560   17.9910 C   0  0  0  0  0  2  0  0  0  0  0  0
  -28.1480  -13.5240   19.2650 C   0  0  0  0  0  3  0  0  0  0  0  0
  -29.3380  -13.3470   20.2340 C   0  0  0  0  0  2  0  0  0  0  0  0
  -30.5690  -13.6590   19.4940 N   0  0  0  0  0  0  0  0  0  0  0  0
  -32.3160  -14.9710   18.9310 O   0  0  0  0  0  0  0  0  0  0  0  0
  -25.9410  -14.2020   20.3910 C   0  0  0  0  0  0  0  0  0  0  0  0
  -24.8800  -13.4710   20.8480 C   0  0  0  0  0  0  0  0  0  0  0  0
  -25.2200  -12.1020   20.6240 C   0  0  0  0  0  0  0  0  0  0  0  0
  -26.8660  -13.2820   19.9220 N   0  0  0  0  0  0  0  0  0  0  0  0
  -26.4460  -12.0070   20.1220 N   0  0  0  0  0  0  0  0  0  0  0  0
  -24.4260  -10.8800   20.8040 C   0  0  0  0  0  0  0  0  0  0  0  0
  -24.8130   -9.8750   21.7170 C   0  0  0  0  0  3  0  0  0  0  0  0
  -24.0210   -8.7180   21.8860 C   0  0  0  0  0  3  0  0  0  0  0  0
  -22.8270   -8.5610   21.1420 C   0  0  0  0  0  0  0  0  0  0  0  0
  -22.4580   -9.5540   20.2180 C   0  0  0  0  0  3  0  0  0  0  0  0
  -23.2500  -10.7020   20.0470 C   0  0  0  0  0  3  0  0  0  0  0  0
  -22.0090   -7.4600   21.2230 O   0  0  0  0  0  0  0  0  0  0  0  0
  -21.7920   -6.8080   22.4100 C   0  0  0  0  0  0  0  0  0  0  0  0
  -21.2600   -7.4720   23.5360 C   0  0  0  0  0  3  0  0  0  0  0  0
  -20.9870   -6.7500   24.7160 C   0  0  0  0  0  3  0  0  0  0  0  0
  -21.2380   -5.3660   24.7680 C   0  0  0  0  0  0  0  0  0  0  0  0
  -21.7640   -4.7030   23.6450 C   0  0  0  0  0  3  0  0  0  0  0  0
  -22.0370   -5.4220   22.4690 C   0  0  0  0  0  0  0  0  0  0  0  0
  -22.5240   -4.7730   21.3820 F   0  0  0  0  0  0  0  0  0  0  0  0
  -20.9690   -4.6710   25.8980 F   0  0  0  0  0  0  0  0  0  0  0  0
  -23.5820  -14.0150   21.3710 C   0  0  0  0  0  0  0  0  0  0  0  0
  -22.9530  -13.3080   22.3040 N   0  0  0  0  0  0  0  0  0  0  0  0
  -23.1400  -15.0960   20.9870 O   0  0  0  0  0  0  0  0  0  0  0  0
  -23.3290  -12.4320   22.6380 H   0  0  0  0  0  0  0  0  0  0  0  0
  -22.0880  -13.6520   22.6950 H   0  0  0  0  0  0  0  0  0  0  0  0
  -26.1850  -15.5680   20.3080 N   0  0  0  0  0  0  0  0  0  0  0  0
  -25.4830  -16.2510   20.5740 H   0  0  0  0  0  0  0  0  0  0  0  0
  -26.9790  -15.9770   19.8350 H   0  0  0  0  0  0  0  0  0  0  0  0
  -28.9090  -23.9100   19.1530 C   0  0  0  0  0  2  0  0  0  0  0  0
  -28.8100  -25.1340   20.1970 C   0  0  0  0  0  2  0  0  0  0  0  0
  -28.7930  -26.5650   19.7540 O   0  0  0  0  0  0  0  0  0  0  0  0
  -24.5660  -31.4940   22.9930 C   0  0  0  0  0  0  0  0  0  0  0  0
  -27.5990  -27.3090   19.7810 C   0  0  0  0  0  0  0  0  0  0  0  0
  -23.5110  -30.0920   21.2560 C   0  0  0  0  0  3  0  0  0  0  0  0
  -25.1110  -28.7290   19.7910 C   0  0  0  0  0  0  0  0  0  0  0  0
  -26.0180  -30.6210   21.1440 C   0  0  0  0  0  2  0  0  0  0  0  0
  -26.2250  -29.2830   20.4350 C   0  0  0  0  0  0  0  0  0  0  0  0
  -27.4730  -28.5870   20.4140 C   0  0  0  0  0  3  0  0  0  0  0  0
  -26.4590  -26.8040   19.1230 C   0  0  0  0  0  3  0  0  0  0  0  0
  -25.2310  -27.4970   19.1240 C   0  0  0  0  0  3  0  0  0  0  0  0
  -23.8070  -29.5020   19.8510 C   0  0  0  0  0  2  0  0  0  0  0  0
  -24.7150  -30.7520   21.8560 N   0  0  0  0  0  0  0  0  0  0  0  0
  -23.4540  -31.6560   23.5160 O   0  0  0  0  0  0  0  0  0  0  0  0
  -22.9140  -28.9790   22.1520 C   0  0  0  0  0  0  0  0  0  0  0  0
  -21.6040  -28.7200   22.0020 N   0  0  0  0  0  0  0  0  0  0  0  0
  -23.6290  -28.3520   22.9380 O   0  0  0  0  0  0  0  0  0  0  0  0
  -21.0830  -29.2810   21.3410 H   0  0  0  0  0  0  0  0  0  0  0  0
  -18.3030  -27.3010   22.4310 C   0  0  0  0  0  0  0  0  0  0  0  0
  -20.8450  -27.6850   22.7070 C   0  0  0  0  0  3  0  0  0  0  0  0
  -21.0230  -26.3070   22.0300 C   0  0  0  0  0  2  0  0  0  0  0  0
  -19.9330  -25.9950   21.0000 C   0  0  0  0  0  2  0  0  0  0  0  0
  -18.5510  -26.0150   21.6600 C   0  0  0  0  0  2  0  0  0  0  0  0
  -19.3800  -28.0920   22.9090 C   0  0  0  0  0  0  0  0  0  0  0  0
  -19.0950  -29.2960   23.5920 C   0  0  0  0  0  3  0  0  0  0  0  0
  -17.7650  -29.7070   23.8000 C   0  0  0  0  0  3  0  0  0  0  0  0
  -16.7030  -28.9110   23.3380 C   0  0  0  0  0  3  0  0  0  0  0  0
  -16.9730  -27.7100   22.6590 C   0  0  0  0  0  3  0  0  0  0  0  0
  -25.7820  -32.1930   23.6770 C   0  0  0  0  0  3  0  0  0  0  0  0
  -26.3310  -31.4030   24.9270 C   0  0  1  0  0  0  0  0  0  0  0  0
  -25.2360  -31.0200   25.9510 C   0  0  0  0  0  1  0  0  0  0  0  0
  -27.0360  -30.1000   24.4840 C   0  0  0  0  0  1  0  0  0  0  0  0
  -27.3960  -32.2530   25.6600 C   0  0  0  0  0  1  0  0  0  0  0  0
  -25.3580  -33.5460   24.0670 N   0  0  0  0  0  0  0  0  0  0  0  0
  -25.6130  -34.6570   23.3640 C   0  0  0  0  0  0  0  0  0  0  0  0
  -26.2980  -34.6560   22.3380 O   0  0  0  0  0  0  0  0  0  0  0  0
  -24.7430  -33.6120   24.8650 H   0  0  0  0  0  0  0  0  0  0  0  0
  -23.7520  -36.3250   23.0670 C   0  0  0  0  0  1  0  0  0  0  0  0
  -25.0110  -35.9790   23.8790 C   0  0  0  0  0  3  0  0  0  0  0  0
  -27.0500  -36.9930   24.7960 C   0  0  0  0  0  1  0  0  0  0  0  0
  -25.9580  -37.1130   23.8330 N   0  0  0  0  0  0  0  0  0  0  0  0
  -25.4770  -37.9920   24.0080 H   0  0  0  0  0  0  0  0  0  0  0  0
  1  2  2  0
  2  4  1  0
  2  5  1  0
  3  1  1  0
  6  3  1  0
  7  8  1  0
  7 11  1  0
  8  1  1  0
 11  9  1  0
 11 10  1  0
 12  7  1  0
 12 17  1  0
 13 12  1  0
 13 14  1  0
 15 13  1  0
 16 13  1  0
 18 17  1  0
 19 24  1  0
 20 21  1  0
 20 19  1  0
 22 21  1  0
 22 29  1  0
 22 23  1  0
 24 18  1  0
 24 23  1  0
 25 18  2  0
 26 27  2  0
 27 46  1  0
 28 31  1  0
 28 27  1  0
 29 30  1  0
 29 26  1  0
 30 28  2  0
 31 32  1  0
 32 33  2  0
 34 37  1  0
 34 33  1  0
 35 34  2  0
 36 35  1  0
 36 31  2  0
 37 38  1  0
 38 43  2  0
 38 39  1  0
 39 40  2  0
 40 41  1  0
 41 45  1  0
 42 41  2  0
 43 42  1  0
 44 43  1  0
 46 47  1  0
 47 49  1  0
 47 50  1  0
 48 46  2  0
 51 26  1  0
 51 52  1  0
 53 51  1  0
 54  3  1  0
 54 55  1  0
 56 58  1  0
 56 55  1  0
 57 68  2  0
 58 63  1  0
 59 67  1  0
 59 69  1  0
 60 66  1  0
 60 62  1  0
 61 67  1  0
 62 61  1  0
 63 62  2  0
 64 65  1  0
 64 58  2  0
 65 60  2  0
 66 59  1  0
 67 57  1  0
 69 71  2  0
 70 69  1  0
 72 70  1  0
 73 82  2  0
 73 78  1  0
 74 70  1  0
 74 78  1  0
 75 74  1  0
 76 77  1  0
 76 75  1  0
 77 73  1  0
 78 79  2  0
 79 80  1  0
 81 80  2  0
 82 81  1  0
 83 57  1  0
 83 88  1  0
 83 84  1  0
 84 87  1  1
 84 85  1  0
 86 84  1  0
 88 91  1  0
 89 93  1  0
 89 88  1  0
 90 89  2  0
 93 92  1  0
 95 93  1  0
 95 96  1  0
 95 94  1  0
M  ISO  4  17 100  18 100  55 101  56 101
M  END
>  <TORSDO>  (25) 
F 23

>  <SCORE>  (25) 
-7.713

>  <name>  (25) 
25

>  <ligand_id>  (25) 
25

>  <original_smiles>  (25) 
[H]c1c([H])c([H])c2c(c1[H])C([H])([H])C([H])([H])C([H])([H])C2([H])N([H])C(=O)C1([H])N(C(=O)C([H])(N([H])C(=O)C([H])(N([H])C([H])([H])[H])C([H])([H])[H])C(C([H])([H])[H])(C([H])([H])[H])C([H])([H])[H])C([H])([H])c2c([H])c(OC([H])([H])C([H])([H])[N+]([H])=C(N=C(C([H])(C([H])([H])[H])C([H])([H])[H])C([H])(C([H])([H])C(=O)N3C([H])([H])C([H])([H])C([H])([H])C([H])(n4nc(-c5c([H])c([H])c(Oc6c([H])c([H])c(F)c([H])c6F)c([H])c5[H])c(C(=O)N([H])[H])c4N([H])[H])C3([H])[H])[N+]([H])([H])[H])N([H])[H])c([H])c([H])c2C1([H])[H]

>  <smiles>  (25) 
[H]c1c([H])c([H])c2c(c1[H])C([H])([H])C([H])([H])C([H])([H])C2([H])N([H])C(=O)C1([H])N(C(=O)C([H])(N([H])C(=O)C([H])(N([H])C([H])([H])[H])C([H])([H])[H])C(C([H])([H])[H])(C([H])([H])[H])C([H])([H])[H])C([H])([H])c2c([H])c(OC([H])([H])C([H])([H])[N+]([H])=C(N=C(C([H])(C([H])([H])[H])C([H])([H])[H])C([H])(C([H])([H])C(=O)N3C([H])([H])C([H])([H])C([H])([H])C([H])(n4nc(-c5c([H])c([H])c(Oc6c([H])c([H])c(F)c([H])c6F)c([H])c5[H])c(C(=O)N([H])[H])c4N([H])[H])C3([H])[H])[N+]([H])([H])[H])N([H])[H])c([H])c([H])c2C1([H])[H]

$$$$
26:0:0
     RDKit          3D

 98105  0  0  1  0  0  0  0  0999 V2000
  -28.4560  -22.3540   21.4160 C   0  0  0  0  0  0  0  0  0  0  0  0
  -28.9160  -24.8410   21.0890 C   0  0  0  0  0  0  0  0  0  0  0  0
  -29.0540  -23.5350   20.7530 N   0  0  0  0  0  4  0  0  0  0  0  0
  -28.2690  -25.2250   22.0700 O   0  0  0  0  0  0  0  0  0  0  0  0
  -29.6140  -23.3360   19.9400 H   0  0  0  0  0  0  0  0  0  0  0  0
  -29.6270  -25.8560   20.1650 C   0  0  0  0  0  2  0  0  0  0  0  0
  -29.4030  -27.2560   20.5070 O   0  0  0  0  0  0  0  0  0  0  0  0
  -24.8250  -31.9390   23.3520 C   0  0  0  0  0  0  0  0  0  0  0  0
  -28.1540  -27.8530   20.3910 C   0  0  0  0  0  0  0  0  0  0  0  0
  -23.9110  -30.4970   21.5650 C   0  0  0  0  0  3  0  0  0  0  0  0
  -25.6240  -29.1450   20.2360 C   0  0  0  0  0  0  0  0  0  0  0  0
  -26.3980  -31.1010   21.5880 C   0  0  0  0  0  2  0  0  0  0  0  0
  -26.6780  -29.7560   20.9310 C   0  0  0  0  0  0  0  0  0  0  0  0
  -27.9480  -29.1200   20.9950 C   0  0  0  0  0  3  0  0  0  0  0  0
  -27.0750  -27.2640   19.6880 C   0  0  0  0  0  3  0  0  0  0  0  0
  -25.8240  -27.9090   19.6040 C   0  0  0  0  0  3  0  0  0  0  0  0
  -24.3030  -29.8840   20.1930 C   0  0  0  0  0  2  0  0  0  0  0  0
  -25.0590  -31.1950   22.2300 N   0  0  0  0  0  0  0  0  0  0  0  0
  -23.6800  -32.0860   23.8030 O   0  0  0  0  0  0  0  0  0  0  0  0
  -23.2750  -29.3870   22.4380 C   0  0  0  0  0  0  0  0  0  0  0  0
  -21.9700  -29.1320   22.2400 N   0  0  0  0  0  0  0  0  0  0  0  0
  -23.9610  -28.7580   23.2480 O   0  0  0  0  0  0  0  0  0  0  0  0
  -21.4800  -29.7130   21.5760 H   0  0  0  0  0  0  0  0  0  0  0  0
  -18.6420  -27.7630   22.5640 C   0  0  0  0  0  0  0  0  0  0  0  0
  -21.1810  -28.0970   22.9100 C   0  0  0  0  0  3  0  0  0  0  0  0
  -21.3500  -26.7270   22.2140 C   0  0  0  0  0  2  0  0  0  0  0  0
  -20.2820  -26.4500   21.1550 C   0  0  0  0  0  2  0  0  0  0  0  0
  -18.8860  -26.4840   21.7830 C   0  0  0  0  0  2  0  0  0  0  0  0
  -19.7200  -28.5280   23.0840 C   0  0  0  0  0  0  0  0  0  0  0  0
  -19.4400  -29.7250   23.7750 C   0  0  0  0  0  3  0  0  0  0  0  0
  -18.1110  -30.1520   23.9640 C   0  0  0  0  0  3  0  0  0  0  0  0
  -17.0460  -29.3830   23.4590 C   0  0  0  0  0  3  0  0  0  0  0  0
  -17.3130  -28.1930   22.7600 C   0  0  0  0  0  3  0  0  0  0  0  0
  -25.9830  -32.6670   24.1030 C   0  0  0  0  0  3  0  0  0  0  0  0
  -26.3890  -31.9540   25.4510 C   0  0  1  0  0  0  0  0  0  0  0  0
  -25.1900  -31.6470   26.3820 C   0  0  0  0  0  1  0  0  0  0  0  0
  -27.1030  -30.6140   25.1530 C   0  0  0  0  0  1  0  0  0  0  0  0
  -27.3930  -32.8300   26.2330 C   0  0  0  0  0  1  0  0  0  0  0  0
  -25.5480  -34.0500   24.3600 N   0  0  0  0  0  0  0  0  0  0  0  0
  -25.8860  -35.1060   23.6100 C   0  0  0  0  0  0  0  0  0  0  0  0
  -26.6640  -35.0240   22.6540 O   0  0  0  0  0  0  0  0  0  0  0  0
  -24.8570  -34.1720   25.0860 H   0  0  0  0  0  0  0  0  0  0  0  0
  -24.0790  -36.7660   23.0480 C   0  0  0  0  0  1  0  0  0  0  0  0
  -25.2680  -36.4700   23.9740 C   0  0  0  0  0  3  0  0  0  0  0  0
  -27.2530  -37.5330   24.9590 C   0  0  0  0  0  1  0  0  0  0  0  0
  -26.2300  -37.5880   23.9200 N   0  0  0  0  0  0  0  0  0  0  0  0
  -25.7520  -38.4820   23.9860 H   0  0  0  0  0  0  0  0  0  0  0  0
  -26.8870  -21.9930   19.2780 C   0  0  0  0  0  1  0  0  0  0  0  0
  -25.9690  -23.0150   21.3860 C   0  0  0  0  0  1  0  0  0  0  0  0
  -27.0270  -22.0140   20.8390 C   0  0  0  0  0  3  0  0  0  0  0  0
  -30.9520  -21.7250   21.9800 C   0  0  0  0  0  1  0  0  0  0  0  0
  -29.4930  -21.1920   21.7840 C   0  0  0  0  0  3  0  0  0  0  0  0
  -30.1800  -18.8080   21.2380 C   0  0  0  0  0  0  0  0  0  0  0  0
  -29.4780  -19.9480   20.9520 N   0  0  0  0  0  0  0  0  0  0  0  0
  -30.6820  -18.6550   22.3580 O   0  0  0  0  0  0  0  0  0  0  0  0
  -28.8250  -19.9480   20.1770 H   0  0  0  0  0  0  0  0  0  0  0  0
  -30.4910  -17.7250   20.1480 C   0  0  0  0  0  3  0  0  0  0  0  0
  -30.2800  -18.2460   18.7630 N   0  0  0  0  0  4  0  0  0  0  0  0
  -29.4610  -17.9030   18.2970 H   0  0  0  0  0  0  0  0  0  0  0  0
  -31.0780  -18.0260   18.1920 H   0  0  0  0  0  0  0  0  0  0  0  0
  -30.2340  -19.2520   18.7800 H   0  0  0  0  0  0  0  0  0  0  0  0
  -29.8970  -16.2720   20.4590 C   0  0  0  0  0  2  0  0  0  0  0  0
  -30.7790  -14.9900   20.1860 C   0  0  0  0  0  0  0  0  0  0  0  0
  -30.6370  -12.7140   19.2200 C   0  0  0  0  0  2  0  0  0  0  0  0
  -29.6880  -12.7900   18.0010 C   0  0  0  0  0  2  0  0  0  0  0  0
  -28.2060  -12.6350   18.4080 C   0  0  0  0  0  2  0  0  0  0  0  0
  -27.8410  -13.5000   19.6440 C   0  0  0  0  0  3  0  0  0  0  0  0
  -28.8960  -13.4070   20.7600 C   0  0  0  0  0  2  0  0  0  0  0  0
  -30.2040  -13.7470   20.1790 N   0  0  0  0  0  0  0  0  0  0  0  0
  -31.9510  -15.1370   19.8250 O   0  0  0  0  0  0  0  0  0  0  0  0
  -25.4900  -14.1230   20.4480 C   0  0  0  0  0  0  0  0  0  0  0  0
  -24.4270  -13.3600   20.8350 C   0  0  0  0  0  0  0  0  0  0  0  0
  -24.8780  -11.9980   20.7810 C   0  0  0  0  0  0  0  0  0  0  0  0
  -26.5130  -13.2290   20.1660 N   0  0  0  0  0  0  0  0  0  0  0  0
  -26.1550  -11.9470   20.4360 N   0  0  0  0  0  0  0  0  0  0  0  0
  -24.1490  -10.7410   20.9630 C   0  0  0  0  0  0  0  0  0  0  0  0
  -24.5670   -9.7700   21.9020 C   0  0  0  0  0  3  0  0  0  0  0  0
  -23.8440   -8.5700   22.0660 C   0  0  0  0  0  3  0  0  0  0  0  0
  -22.6860   -8.3350   21.2860 C   0  0  0  0  0  0  0  0  0  0  0  0
  -22.2790   -9.2990   20.3420 C   0  0  0  0  0  3  0  0  0  0  0  0
  -23.0060  -10.4870   20.1800 C   0  0  0  0  0  3  0  0  0  0  0  0
  -21.9350   -7.1890   21.3560 O   0  0  0  0  0  0  0  0  0  0  0  0
  -21.8220   -6.4690   22.5210 C   0  0  0  0  0  0  0  0  0  0  0  0
  -21.3290   -7.0430   23.7150 C   0  0  0  0  0  3  0  0  0  0  0  0
  -21.1680   -6.2430   24.8630 C   0  0  0  0  0  3  0  0  0  0  0  0
  -21.4970   -4.8750   24.8230 C   0  0  0  0  0  0  0  0  0  0  0  0
  -21.9940   -4.3040   23.6380 C   0  0  0  0  0  3  0  0  0  0  0  0
  -22.1530   -5.0980   22.4900 C   0  0  0  0  0  0  0  0  0  0  0  0
  -22.6050   -4.5370   21.3450 F   0  0  0  0  0  0  0  0  0  0  0  0
  -21.3350   -4.1100   25.9260 F   0  0  0  0  0  0  0  0  0  0  0  0
  -23.0390  -13.8390   21.1620 C   0  0  0  0  0  0  0  0  0  0  0  0
  -22.3180  -13.1310   22.0160 N   0  0  0  0  0  0  0  0  0  0  0  0
  -22.6040  -14.8900   20.6890 O   0  0  0  0  0  0  0  0  0  0  0  0
  -22.6620  -12.2650   22.4080 H   0  0  0  0  0  0  0  0  0  0  0  0
  -21.3810  -13.4320   22.2410 H   0  0  0  0  0  0  0  0  0  0  0  0
  -25.6830  -15.4960   20.2680 N   0  0  0  0  0  0  0  0  0  0  0  0
  -24.9130  -16.1540   20.2030 H   0  0  0  0  0  0  0  0  0  0  0  0
  -26.5830  -15.9130   20.0550 H   0  0  0  0  0  0  0  0  0  0  0  0
  1 52  1  0
  2  4  2  0
  3  2  1  0
  3  1  2  0
  5  3  1  0
  6  7  1  0
  6  2  1  0
  8 19  2  0
  9  7  1  0
  9 14  1  0
 10 18  1  0
 10 20  1  0
 11 13  1  0
 12 18  1  0
 13 14  2  0
 13 12  1  0
 15  9  2  0
 16 15  1  0
 16 11  2  0
 17 11  1  0
 17 10  1  0
 18  8  1  0
 20 22  2  0
 21 20  1  0
 23 21  1  0
 24 33  2  0
 24 29  1  0
 25 21  1  0
 25 29  1  0
 26 25  1  0
 27 28  1  0
 27 26  1  0
 28 24  1  0
 29 30  2  0
 30 31  1  0
 32 31  2  0
 33 32  1  0
 34  8  1  0
 34 39  1  0
 34 35  1  0
 35 38  1  1
 35 36  1  0
 37 35  1  0
 39 42  1  0
 40 44  1  0
 40 39  1  0
 41 40  2  0
 44 43  1  0
 46 44  1  0
 46 47  1  0
 46 45  1  0
 48 50  1  0
 50 49  1  0
 50  1  1  0
 52 51  1  0
 53 55  2  0
 54 53  1  0
 54 52  1  0
 56 54  1  0
 57 62  1  0
 57 53  1  0
 58 61  1  0
 58 57  1  0
 59 58  1  0
 60 58  1  0
 63 62  1  0
 64 69  1  0
 65 66  1  0
 65 64  1  0
 67 66  1  0
 67 74  1  0
 67 68  1  0
 69 63  1  0
 69 68  1  0
 70 63  2  0
 71 72  2  0
 72 91  1  0
 73 72  1  0
 73 76  1  0
 74 75  1  0
 74 71  1  0
 75 73  2  0
 76 77  1  0
 77 78  2  0
 79 82  1  0
 79 78  1  0
 80 79  2  0
 81 80  1  0
 81 76  2  0
 82 83  1  0
 83 84  1  0
 84 85  2  0
 86 85  1  0
 86 90  1  0
 87 86  2  0
 88 83  2  0
 88 87  1  0
 89 88  1  0
 91 92  1  0
 92 95  1  0
 92 94  1  0
 93 91  2  0
 96 71  1  0
 97 96  1  0
 98 96  1  0
M  ISO  4   6 101   7 101  62 100  63 100
M  END
>  <TORSDO>  (26) 
F 24

>  <SCORE>  (26) 
-11.590

>  <name>  (26) 
26

>  <ligand_id>  (26) 
26

>  <original_smiles>  (26) 
[H]c1c([H])c([H])c2c(c1[H])C([H])([H])C([H])([H])C([H])([H])C2([H])N([H])C(=O)C1([H])N(C(=O)C([H])(N([H])C(=O)C([H])(N([H])C([H])([H])[H])C([H])([H])[H])C(C([H])([H])[H])(C([H])([H])[H])C([H])([H])[H])C([H])([H])c2c([H])c(OC([H])([H])C(=O)N([H])C([H])(C([H])(N([H])C(=O)C([H])(C([H])([H])C(=O)N3C([H])([H])C([H])([H])C([H])([H])C([H])(n4nc(-c5c([H])c([H])c(Oc6c([H])c([H])c(F)c([H])c6F)c([H])c5[H])c(C(=O)N([H])[H])c4N([H])[H])C3([H])[H])[N+]([H])([H])[H])C([H])([H])[H])C([H])(C([H])([H])[H])C([H])([H])[H])c([H])c([H])c2C1([H])[H]

>  <smiles>  (26) 
[H]c1c([H])c([H])c2c(c1[H])C([H])([H])C([H])([H])C([H])([H])C2([H])N([H])C(=O)C1([H])N(C(=O)C([H])(N([H])C(=O)C([H])(N([H])C([H])([H])[H])C([H])([H])[H])C(C([H])([H])[H])(C([H])([H])[H])C([H])([H])[H])C([H])([H])c2c([H])c(OC([H])([H])C(=O)N([H])C([H])(C([H])(N([H])C(=O)C([H])(C([H])([H])C(=O)N3C([H])([H])C([H])([H])C([H])([H])C([H])(n4nc(-c5c([H])c([H])c(Oc6c([H])c([H])c(F)c([H])c6F)c([H])c5[H])c(C(=O)N([H])[H])c4N([H])[H])C3([H])[H])[N+]([H])([H])[H])C([H])([H])[H])C([H])(C([H])([H])[H])C([H])([H])[H])c([H])c([H])c2C1([H])[H]

$$$$
27:0:0
     RDKit          3D

 98107  0  0  1  0  0  0  0  0999 V2000
  -29.2890  -21.1760   22.6960 C   0  0  0  0  0  2  0  0  0  0  0  0
  -30.4590  -19.0470   22.1430 C   0  0  0  0  0  0  0  0  0  0  0  0
  -29.8660  -20.1940   21.7790 N   0  0  0  0  0  0  0  0  0  0  0  0
  -30.5730  -18.7390   23.3300 O   0  0  0  0  0  0  0  0  0  0  0  0
  -29.7430  -20.3980   20.7940 H   0  0  0  0  0  0  0  0  0  0  0  0
  -31.0540  -18.1080   21.0650 C   0  0  0  0  0  3  0  0  0  0  0  0
  -31.0610  -18.6070   19.6200 C   0  0  0  0  0  3  0  0  0  0  0  0
  -30.2600  -17.3910   19.1860 C   0  0  0  0  0  3  0  0  0  0  0  0
  -30.1450  -16.9460   20.6330 C   0  0  0  0  0  3  0  0  0  0  0  0
  -29.8480  -18.7620   18.7020 C   0  0  1  0  0  0  0  0  0  0  0  0
  -28.5330  -19.3710   19.1670 C   0  0  0  0  0  1  0  0  0  0  0  0
  -30.0850  -19.1070   17.2440 C   0  0  0  0  0  1  0  0  0  0  0  0
  -31.2450  -14.6830   20.1690 C   0  0  0  0  0  0  0  0  0  0  0  0
  -30.9010  -12.5770   18.9170 C   0  0  0  0  0  2  0  0  0  0  0  0
  -29.9070  -12.8450   17.7660 C   0  0  0  0  0  2  0  0  0  0  0  0
  -28.4450  -12.7260   18.2450 C   0  0  0  0  0  2  0  0  0  0  0  0
  -28.1840  -13.5280   19.5460 C   0  0  0  0  0  3  0  0  0  0  0  0
  -29.2660  -13.1940   20.6010 C   0  0  0  0  0  2  0  0  0  0  0  0
  -30.5880  -13.5000   20.0180 N   0  0  0  0  0  0  0  0  0  0  0  0
  -32.2810  -14.9710   19.5590 O   0  0  0  0  0  0  0  0  0  0  0  0
  -30.5800  -15.5660   20.9350 N   0  0  0  0  0  0  0  0  0  0  0  0
  -29.9170  -15.0940   21.5310 H   0  0  0  0  0  0  0  0  0  0  0  0
  -25.8270  -14.2030   20.3430 C   0  0  0  0  0  0  0  0  0  0  0  0
  -24.7480  -13.4550   20.7390 C   0  0  0  0  0  0  0  0  0  0  0  0
  -25.1660  -12.0920   20.6680 C   0  0  0  0  0  0  0  0  0  0  0  0
  -26.8350  -13.2920   20.0600 N   0  0  0  0  0  0  0  0  0  0  0  0
  -26.4400  -12.0180   20.3100 N   0  0  0  0  0  0  0  0  0  0  0  0
  -24.4110  -10.8460   20.8670 C   0  0  0  0  0  0  0  0  0  0  0  0
  -24.8010   -9.8890   21.8300 C   0  0  0  0  0  3  0  0  0  0  0  0
  -24.0480   -8.7090   22.0090 C   0  0  0  0  0  3  0  0  0  0  0  0
  -22.8920   -8.4760   21.2270 C   0  0  0  0  0  0  0  0  0  0  0  0
  -22.5240   -9.4210   20.2530 C   0  0  0  0  0  3  0  0  0  0  0  0
  -23.2770  -10.5920   20.0690 C   0  0  0  0  0  3  0  0  0  0  0  0
  -22.1100   -7.3500   21.3190 O   0  0  0  0  0  0  0  0  0  0  0  0
  -21.9390   -6.6910   22.5090 C   0  0  0  0  0  0  0  0  0  0  0  0
  -21.3940   -7.3290   23.6430 C   0  0  0  0  0  3  0  0  0  0  0  0
  -21.1670   -6.5950   24.8240 C   0  0  0  0  0  3  0  0  0  0  0  0
  -21.4750   -5.2210   24.8700 C   0  0  0  0  0  0  0  0  0  0  0  0
  -22.0150   -4.5820   23.7390 C   0  0  0  0  0  3  0  0  0  0  0  0
  -22.2410   -5.3160   22.5620 C   0  0  0  0  0  0  0  0  0  0  0  0
  -22.7420   -4.6890   21.4690 F   0  0  0  0  0  0  0  0  0  0  0  0
  -21.2480   -4.5130   26.0010 F   0  0  0  0  0  0  0  0  0  0  0  0
  -23.3760  -13.9670   21.0750 C   0  0  0  0  0  0  0  0  0  0  0  0
  -22.6630  -13.2820   21.9650 N   0  0  0  0  0  0  0  0  0  0  0  0
  -22.9440  -15.0100   20.5850 O   0  0  0  0  0  0  0  0  0  0  0  0
  -23.0170  -12.4380   22.3900 H   0  0  0  0  0  0  0  0  0  0  0  0
  -21.7460  -13.6090   22.2300 H   0  0  0  0  0  0  0  0  0  0  0  0
  -26.0260  -15.5710   20.1880 N   0  0  0  0  0  0  0  0  0  0  0  0
  -25.2900  -16.2470   20.3600 H   0  0  0  0  0  0  0  0  0  0  0  0
  -26.8850  -15.9920   19.8590 H   0  0  0  0  0  0  0  0  0  0  0  0
  -29.1220  -22.5380   22.0130 C   0  0  0  0  0  0  0  0  0  0  0  0
  -29.2530  -23.6360   22.7720 N   0  0  0  0  0  0  0  0  0  0  0  0
  -28.8430  -22.5930   20.8130 O   0  0  0  0  0  0  0  0  0  0  0  0
  -29.5150  -23.5000   23.7410 H   0  0  0  0  0  0  0  0  0  0  0  0
  -28.9280  -24.9990   22.3450 C   0  0  0  0  0  2  0  0  0  0  0  0
  -30.0640  -25.6830   21.5460 C   0  0  0  0  0  2  0  0  0  0  0  0
  -29.6170  -26.9990   20.8770 C   0  0  0  0  0  2  0  0  0  0  0  0
  -28.6540  -26.7650   19.8320 O   0  0  0  0  0  0  0  0  0  0  0  0
  -24.7270  -31.7440   23.0420 C   0  0  0  0  0  0  0  0  0  0  0  0
  -27.4850  -27.4980   19.8530 C   0  0  0  0  0  0  0  0  0  0  0  0
  -23.5340  -30.3310   21.3890 C   0  0  0  0  0  3  0  0  0  0  0  0
  -25.0170  -28.8770   19.9040 C   0  0  0  0  0  0  0  0  0  0  0  0
  -26.0280  -30.8080   21.1360 C   0  0  0  0  0  2  0  0  0  0  0  0
  -26.1540  -29.4550   20.4770 C   0  0  0  0  0  0  0  0  0  0  0  0
  -27.3870  -28.7790   20.4440 C   0  0  0  0  0  3  0  0  0  0  0  0
  -26.3340  -26.9370   19.2550 C   0  0  0  0  0  3  0  0  0  0  0  0
  -25.1000  -27.6190   19.2790 C   0  0  0  0  0  3  0  0  0  0  0  0
  -23.7390  -29.6790   19.9900 C   0  0  0  0  0  2  0  0  0  0  0  0
  -24.7820  -30.9750   21.9170 N   0  0  0  0  0  0  0  0  0  0  0  0
  -23.6500  -31.9620   23.6150 O   0  0  0  0  0  0  0  0  0  0  0  0
  -22.9440  -29.2710   22.3470 C   0  0  0  0  0  0  0  0  0  0  0  0
  -21.6260  -29.0380   22.2390 N   0  0  0  0  0  0  0  0  0  0  0  0
  -23.6690  -28.6620   23.1380 O   0  0  0  0  0  0  0  0  0  0  0  0
  -21.1050  -29.5880   21.5690 H   0  0  0  0  0  0  0  0  0  0  0  0
  -18.3150  -27.6800   22.7510 C   0  0  0  0  0  0  0  0  0  0  0  0
  -20.8600  -28.0500   22.9970 C   0  0  0  0  0  3  0  0  0  0  0  0
  -21.0220  -26.6370   22.3930 C   0  0  0  0  0  2  0  0  0  0  0  0
  -19.9180  -26.2740   21.3920 C   0  0  0  0  0  2  0  0  0  0  0  0
  -18.5460  -26.3430   22.0700 C   0  0  0  0  0  2  0  0  0  0  0  0
  -19.4020  -28.4880   23.1780 C   0  0  0  0  0  0  0  0  0  0  0  0
  -19.1320  -29.7350   23.7830 C   0  0  0  0  0  3  0  0  0  0  0  0
  -17.8070  -30.1750   23.9640 C   0  0  0  0  0  3  0  0  0  0  0  0
  -16.7340  -29.3660   23.5510 C   0  0  0  0  0  3  0  0  0  0  0  0
  -16.9880  -28.1200   22.9480 C   0  0  0  0  0  3  0  0  0  0  0  0
  -26.0030  -32.4060   23.6490 C   0  0  0  0  0  3  0  0  0  0  0  0
  -25.6460  -33.7760   24.0470 N   0  0  0  0  0  0  0  0  0  0  0  0
  -25.9200  -34.8720   23.3280 C   0  0  0  0  0  0  0  0  0  0  0  0
  -26.5710  -34.8380   22.2800 O   0  0  0  0  0  0  0  0  0  0  0  0
  -25.0760  -33.8750   24.8750 H   0  0  0  0  0  0  0  0  0  0  0  0
  -24.1170  -36.6060   23.0830 C   0  0  0  0  0  1  0  0  0  0  0  0
  -25.3880  -36.2210   23.8550 C   0  0  0  0  0  3  0  0  0  0  0  0
  -27.5040  -37.1530   24.6820 C   0  0  0  0  0  1  0  0  0  0  0  0
  -26.3760  -37.3170   23.7680 N   0  0  0  0  0  0  0  0  0  0  0  0
  -25.9390  -38.2140   23.9610 H   0  0  0  0  0  0  0  0  0  0  0  0
  -26.6000  -31.6050   24.8700 C   0  0  1  0  0  0  0  0  0  0  0  0
  -25.5500  -31.2290   25.9420 C   0  0  0  0  0  1  0  0  0  0  0  0
  -27.2670  -30.2980   24.3810 C   0  0  0  0  0  1  0  0  0  0  0  0
  -27.7030  -32.4430   25.5610 C   0  0  0  0  0  1  0  0  0  0  0  0
  2  4  2  0
  3  2  1  0
  3  1  1  0
  5  3  1  0
  6  2  1  0
  7 10  1  0
  7  6  1  0
  8 10  1  0
  8  7  1  0
  8  9  1  0
  9 21  1  0
  9  6  1  0
 10 11  1  1
 12 10  1  0
 13 21  1  0
 14 19  1  0
 15 16  1  0
 15 14  1  0
 17 16  1  0
 17 26  1  0
 17 18  1  0
 19 13  1  0
 19 18  1  0
 20 13  2  0
 21 22  1  0
 23 24  2  0
 24 43  1  0
 25 24  1  0
 25 28  1  0
 26 27  1  0
 26 23  1  0
 27 25  2  0
 28 29  1  0
 29 30  2  0
 31 34  1  0
 31 30  1  0
 32 31  2  0
 33 32  1  0
 33 28  2  0
 34 35  1  0
 35 40  2  0
 35 36  1  0
 36 37  2  0
 37 38  1  0
 38 42  1  0
 39 38  2  0
 40 39  1  0
 41 40  1  0
 43 44  1  0
 44 47  1  0
 44 46  1  0
 45 43  2  0
 48 23  1  0
 48 49  1  0
 50 48  1  0
 51  1  1  0
 51 52  1  0
 52 54  1  0
 53 51  2  0
 55 52  1  0
 56 55  1  0
 57 56  1  0
 58 60  1  0
 58 57  1  0
 59 70  2  0
 60 65  1  0
 61 69  1  0
 61 71  1  0
 62 68  1  0
 62 64  1  0
 63 69  1  0
 64 63  1  0
 65 64  2  0
 66 67  1  0
 66 60  2  0
 67 62  2  0
 68 61  1  0
 69 59  1  0
 71 73  2  0
 72 71  1  0
 74 72  1  0
 75 84  2  0
 75 80  1  0
 76 72  1  0
 76 80  1  0
 77 76  1  0
 78 79  1  0
 78 77  1  0
 79 75  1  0
 80 81  2  0
 81 82  1  0
 83 82  2  0
 84 83  1  0
 85 59  1  0
 85 86  1  0
 85 95  1  0
 86 89  1  0
 87 91  1  0
 87 86  1  0
 88 87  2  0
 91 90  1  0
 93 91  1  0
 93 94  1  0
 93 92  1  0
 95 98  1  1
 95 96  1  0
 97 95  1  0
M  ISO  4  13 100  21 100  57 101  58 101
M  END
>  <TORSDO>  (27) 
F 22

>  <SCORE>  (27) 
-11.917

>  <name>  (27) 
27

>  <ligand_id>  (27) 
27

>  <original_smiles>  (27) 
[H]c1c([H])c([H])c2c(c1[H])C([H])([H])C([H])([H])C([H])([H])C2([H])N([H])C(=O)C1([H])N(C(=O)C([H])(N([H])C(=O)C([H])(N([H])C([H])([H])[H])C([H])([H])[H])C(C([H])([H])[H])(C([H])([H])[H])C([H])([H])[H])C([H])([H])c2c([H])c(OC([H])([H])C([H])([H])C([H])([H])N([H])C(=O)C([H])([H])N([H])C(=O)C3([H])C([H])(N([H])C(=O)N4C([H])([H])C([H])([H])C([H])([H])C([H])(n5nc(-c6c([H])c([H])c(Oc7c([H])c([H])c(F)c([H])c7F)c([H])c6[H])c(C(=O)N([H])[H])c5N([H])[H])C4([H])[H])C4([H])C3([H])C4(C([H])([H])[H])C([H])([H])[H])c([H])c([H])c2C1([H])[H]

>  <smiles>  (27) 
[H]c1c([H])c([H])c2c(c1[H])C([H])([H])C([H])([H])C([H])([H])C2([H])N([H])C(=O)C1([H])N(C(=O)C([H])(N([H])C(=O)C([H])(N([H])C([H])([H])[H])C([H])([H])[H])C(C([H])([H])[H])(C([H])([H])[H])C([H])([H])[H])C([H])([H])c2c([H])c(OC([H])([H])C([H])([H])C([H])([H])N([H])C(=O)C([H])([H])N([H])C(=O)C3([H])C([H])(N([H])C(=O)N4C([H])([H])C([H])([H])C([H])([H])C([H])(n5nc(-c6c([H])c([H])c(Oc7c([H])c([H])c(F)c([H])c7F)c([H])c6[H])c(C(=O)N([H])[H])c5N([H])[H])C4([H])[H])C4([H])C3([H])C4(C([H])([H])[H])C([H])([H])[H])c([H])c([H])c2C1([H])[H]

$$$$
28:0:0
     RDKit          3D

 90 98  0  0  1  0  0  0  0  0999 V2000
  -30.1570  -22.3570   19.4890 C   0  0  0  0  0  3  0  0  0  0  0  0
  -29.6520  -23.3860   18.9360 N   0  0  0  0  0  0  0  0  0  0  0  0
  -29.8320  -20.9590   18.9920 C   0  0  0  0  0  2  0  0  0  0  0  0
  -30.7170  -19.8330   19.5750 C   0  0  0  0  0  2  0  0  0  0  0  0
  -30.4580  -16.3960   21.0820 C   0  0  0  0  0  0  0  0  0  0  0  0
  -30.3920  -17.2670   19.8380 C   0  0  0  0  0  0  0  0  0  0  0  0
  -29.8910  -17.2270   22.2110 C   0  0  0  0  0  2  0  0  0  0  0  0
  -29.8540  -18.6850   21.7370 C   0  0  0  0  0  2  0  0  0  0  0  0
  -29.8960  -18.6680   20.1970 C   0  0  0  0  0  3  0  0  0  0  0  0
  -30.8540  -15.2000   21.3280 N   0  0  0  0  0  0  0  0  0  0  0  0
  -30.6400  -16.9240   18.6770 O   0  0  0  0  0  0  0  0  0  0  0  0
  -31.3310  -14.3940   20.3050 C   0  0  0  0  0  0  0  0  0  0  0  0
  -30.7960  -12.4290   18.8980 C   0  0  0  0  0  2  0  0  0  0  0  0
  -29.8080  -12.8010   17.7780 C   0  0  0  0  0  2  0  0  0  0  0  0
  -28.3480  -12.7200   18.2720 C   0  0  0  0  0  2  0  0  0  0  0  0
  -28.1370  -13.4650   19.6180 C   0  0  0  0  0  3  0  0  0  0  0  0
  -29.2190  -13.0490   20.6370 C   0  0  0  0  0  2  0  0  0  0  0  0
  -30.5380  -13.3230   20.0350 N   0  0  0  0  0  0  0  0  0  0  0  0
  -32.3560  -14.6260   19.6610 O   0  0  0  0  0  0  0  0  0  0  0  0
  -25.8120  -14.1880   20.4620 C   0  0  0  0  0  0  0  0  0  0  0  0
  -24.7150  -13.4660   20.8530 C   0  0  0  0  0  0  0  0  0  0  0  0
  -25.0890  -12.0910   20.7430 C   0  0  0  0  0  0  0  0  0  0  0  0
  -26.7900  -13.2560   20.1460 N   0  0  0  0  0  0  0  0  0  0  0  0
  -26.3590  -11.9870   20.3710 N   0  0  0  0  0  0  0  0  0  0  0  0
  -24.2950  -10.8690   20.9170 C   0  0  0  0  0  0  0  0  0  0  0  0
  -24.7000   -9.8480   21.8030 C   0  0  0  0  0  3  0  0  0  0  0  0
  -23.9120   -8.6880   21.9690 C   0  0  0  0  0  3  0  0  0  0  0  0
  -22.7030   -8.5430   21.2480 C   0  0  0  0  0  0  0  0  0  0  0  0
  -22.3180   -9.5510   20.3470 C   0  0  0  0  0  3  0  0  0  0  0  0
  -23.1050  -10.7020   20.1790 C   0  0  0  0  0  3  0  0  0  0  0  0
  -21.8870   -7.4400   21.3230 O   0  0  0  0  0  0  0  0  0  0  0  0
  -21.8110   -6.6770   22.4610 C   0  0  0  0  0  0  0  0  0  0  0  0
  -21.4510   -7.2320   23.7090 C   0  0  0  0  0  3  0  0  0  0  0  0
  -21.3170   -6.4000   24.8380 C   0  0  0  0  0  3  0  0  0  0  0  0
  -21.5330   -5.0130   24.7210 C   0  0  0  0  0  0  0  0  0  0  0  0
  -21.8860   -4.4590   23.4770 C   0  0  0  0  0  3  0  0  0  0  0  0
  -22.0220   -5.2880   22.3510 C   0  0  0  0  0  0  0  0  0  0  0  0
  -22.3400   -4.7460   21.1510 F   0  0  0  0  0  0  0  0  0  0  0  0
  -21.3980   -4.2110   25.8020 F   0  0  0  0  0  0  0  0  0  0  0  0
  -23.3620  -14.0130   21.2080 C   0  0  0  0  0  0  0  0  0  0  0  0
  -22.6450  -13.3460   22.1050 N   0  0  0  0  0  0  0  0  0  0  0  0
  -22.9520  -15.0680   20.7260 O   0  0  0  0  0  0  0  0  0  0  0  0
  -22.9910  -12.4950   22.5240 H   0  0  0  0  0  0  0  0  0  0  0  0
  -21.7340  -13.6910   22.3730 H   0  0  0  0  0  0  0  0  0  0  0  0
  -26.0480  -15.5530   20.3290 N   0  0  0  0  0  0  0  0  0  0  0  0
  -25.3220  -16.2390   20.4990 H   0  0  0  0  0  0  0  0  0  0  0  0
  -26.9010  -15.9590   19.9650 H   0  0  0  0  0  0  0  0  0  0  0  0
  -29.7870  -24.6790   19.5940 C   0  0  0  0  0  2  0  0  0  0  0  0
  -28.4200  -25.3870   19.5280 C   0  0  0  0  0  2  0  0  0  0  0  0
  -28.4120  -26.6820   20.1310 O   0  0  0  0  0  0  0  0  0  0  0  0
  -24.5310  -31.8240   23.1820 C   0  0  0  0  0  0  0  0  0  0  0  0
  -27.2130  -27.3730   20.1280 C   0  0  0  0  0  0  0  0  0  0  0  0
  -23.3410  -30.4140   21.5350 C   0  0  0  0  0  3  0  0  0  0  0  0
  -24.8080  -28.8700   20.1340 C   0  0  0  0  0  0  0  0  0  0  0  0
  -25.8700  -30.7650   21.3670 C   0  0  0  0  0  2  0  0  0  0  0  0
  -25.9590  -29.3920   20.7350 C   0  0  0  0  0  0  0  0  0  0  0  0
  -27.1580  -28.6460   20.7400 C   0  0  0  0  0  3  0  0  0  0  0  0
  -26.0320  -26.8640   19.5280 C   0  0  0  0  0  3  0  0  0  0  0  0
  -24.8370  -27.6030   19.5310 C   0  0  0  0  0  3  0  0  0  0  0  0
  -23.5640  -29.7260   20.1620 C   0  0  0  0  0  2  0  0  0  0  0  0
  -24.5980  -31.0170   22.0860 N   0  0  0  0  0  0  0  0  0  0  0  0
  -23.4460  -32.0990   23.7100 O   0  0  0  0  0  0  0  0  0  0  0  0
  -22.6810  -29.3960   22.4920 C   0  0  0  0  0  0  0  0  0  0  0  0
  -21.3580  -29.2110   22.3500 N   0  0  0  0  0  0  0  0  0  0  0  0
  -23.3560  -28.7750   23.3170 O   0  0  0  0  0  0  0  0  0  0  0  0
  -20.8770  -29.7640   21.6560 H   0  0  0  0  0  0  0  0  0  0  0  0
  -17.9820  -28.0100   22.8020 C   0  0  0  0  0  0  0  0  0  0  0  0
  -20.5340  -28.2770   23.1160 C   0  0  0  0  0  3  0  0  0  0  0  0
  -20.6500  -26.8410   22.5530 C   0  0  0  0  0  2  0  0  0  0  0  0
  -19.5680  -26.5070   21.5230 C   0  0  0  0  0  2  0  0  0  0  0  0
  -18.1750  -26.6530   22.1420 C   0  0  0  0  0  2  0  0  0  0  0  0
  -19.0910  -28.7780   23.2440 C   0  0  0  0  0  0  0  0  0  0  0  0
  -18.8590  -30.0480   23.8170 C   0  0  0  0  0  3  0  0  0  0  0  0
  -17.5500  -30.5470   23.9540 C   0  0  0  0  0  3  0  0  0  0  0  0
  -16.4560  -29.7750   23.5300 C   0  0  0  0  0  3  0  0  0  0  0  0
  -16.6730  -28.5070   22.9590 C   0  0  0  0  0  3  0  0  0  0  0  0
  -25.8140  -32.4550   23.8100 C   0  0  0  0  0  3  0  0  0  0  0  0
  -25.4990  -33.8480   24.1500 N   0  0  0  0  0  0  0  0  0  0  0  0
  -25.8330  -34.9070   23.4000 C   0  0  0  0  0  0  0  0  0  0  0  0
  -26.5100  -34.8140   22.3720 O   0  0  0  0  0  0  0  0  0  0  0  0
  -24.8960  -33.9950   24.9470 H   0  0  0  0  0  0  0  0  0  0  0  0
  -24.1020  -36.6960   23.0440 C   0  0  0  0  0  1  0  0  0  0  0  0
  -25.3360  -36.2900   23.8630 C   0  0  0  0  0  3  0  0  0  0  0  0
  -27.4610  -37.1720   24.7210 C   0  0  0  0  0  1  0  0  0  0  0  0
  -26.3660  -37.3470   23.7700 N   0  0  0  0  0  0  0  0  0  0  0  0
  -25.9570  -38.2640   23.9230 H   0  0  0  0  0  0  0  0  0  0  0  0
  -26.3360  -31.6730   25.0790 C   0  0  1  0  0  0  0  0  0  0  0  0
  -25.2420  -31.4180   26.1420 C   0  0  0  0  0  1  0  0  0  0  0  0
  -26.9290  -30.3040   24.6710 C   0  0  0  0  0  1  0  0  0  0  0  0
  -27.4810  -32.4670   25.7490 C   0  0  0  0  0  1  0  0  0  0  0  0
  2  1  2  0
  2 48  1  0
  3  1  1  0
  3  4  1  0
  5 10  2  0
  5  7  1  0
  6  9  1  0
  6  5  1  0
  8  7  1  0
  9  4  1  0
  9  8  1  0
 11  6  2  0
 12 10  1  0
 13 18  1  0
 14 15  1  0
 14 13  1  0
 16 15  1  0
 16 23  1  0
 16 17  1  0
 18 12  1  0
 18 17  1  0
 19 12  2  0
 20 21  2  0
 21 40  1  0
 22 21  1  0
 22 25  1  0
 23 24  1  0
 23 20  1  0
 24 22  2  0
 25 26  1  0
 26 27  2  0
 28 31  1  0
 28 27  1  0
 29 28  2  0
 30 29  1  0
 30 25  2  0
 31 32  1  0
 32 33  1  0
 33 34  2  0
 35 34  1  0
 35 39  1  0
 36 35  2  0
 37 32  2  0
 37 36  1  0
 38 37  1  0
 40 41  1  0
 41 44  1  0
 41 43  1  0
 42 40  2  0
 45 20  1  0
 45 46  1  0
 47 45  1  0
 49 48  1  0
 49 50  1  0
 51 62  2  0
 52 50  1  0
 52 57  1  0
 53 61  1  0
 53 63  1  0
 54 60  1  0
 54 56  1  0
 55 61  1  0
 56 57  2  0
 56 55  1  0
 58 59  1  0
 58 52  2  0
 59 54  2  0
 60 53  1  0
 61 51  1  0
 63 65  2  0
 64 63  1  0
 66 64  1  0
 67 76  2  0
 67 72  1  0
 68 64  1  0
 68 72  1  0
 69 68  1  0
 70 71  1  0
 70 69  1  0
 71 67  1  0
 72 73  2  0
 73 74  1  0
 75 74  2  0
 76 75  1  0
 77 51  1  0
 77 78  1  0
 77 87  1  0
 78 81  1  0
 79 83  1  0
 79 78  1  0
 80 79  2  0
 83 82  1  0
 85 83  1  0
 85 86  1  0
 85 84  1  0
 87 90  1  1
 87 88  1  0
 89 87  1  0
M  ISO  4  10 100  12 100  49 101  50 101
M  END
>  <TORSDO>  (28) 
F 21

>  <SCORE>  (28) 
-12.283

>  <name>  (28) 
28

>  <ligand_id>  (28) 
28

>  <original_smiles>  (28) 
[H]C(=NC([H])([H])C([H])([H])Oc1c([H])c([H])c2c(c1[H])C([H])([H])N(C(=O)C([H])(N([H])C(=O)C([H])(N([H])C([H])([H])[H])C([H])([H])[H])C(C([H])([H])[H])(C([H])([H])[H])C([H])([H])[H])C([H])(C(=O)N([H])C1([H])c3c([H])c([H])c([H])c([H])c3C([H])([H])C([H])([H])C1([H])[H])C2([H])[H])C([H])([H])C([H])([H])C1([H])C(=O)C(=NC(=O)N2C([H])([H])C([H])([H])C([H])([H])C([H])(n3nc(-c4c([H])c([H])c(Oc5c([H])c([H])c(F)c([H])c5F)c([H])c4[H])c(C(=O)N([H])[H])c3N([H])[H])C2([H])[H])C([H])([H])C1([H])[H]

>  <smiles>  (28) 
[H]C(=NC([H])([H])C([H])([H])Oc1c([H])c([H])c2c(c1[H])C([H])([H])N(C(=O)C([H])(N([H])C(=O)C([H])(N([H])C([H])([H])[H])C([H])([H])[H])C(C([H])([H])[H])(C([H])([H])[H])C([H])([H])[H])C([H])(C(=O)N([H])C1([H])c3c([H])c([H])c([H])c([H])c3C([H])([H])C([H])([H])C1([H])[H])C2([H])[H])C([H])([H])C([H])([H])C1([H])C(=O)C(=NC(=O)N2C([H])([H])C([H])([H])C([H])([H])C([H])(n3nc(-c4c([H])c([H])c(Oc5c([H])c([H])c(F)c([H])c5F)c([H])c4[H])c(C(=O)N([H])[H])c3N([H])[H])C2([H])[H])C([H])([H])C1([H])[H]

$$$$
29:0:0
     RDKit          3D

 85 91  0  0  1  0  0  0  0  0999 V2000
  -28.5160  -21.9240   19.9410 C   0  0  0  0  0  1  0  0  0  0  0  0
  -30.2620  -15.7420   20.1840 C   0  0  0  0  0  0  0  0  0  0  0  0
  -30.3610  -13.1990   19.3230 C   0  0  0  0  0  2  0  0  0  0  0  0
  -29.4630  -12.7510   18.1330 C   0  0  0  0  0  2  0  0  0  0  0  0
  -28.0500  -12.3830   18.6110 C   0  0  0  0  0  2  0  0  0  0  0  0
  -27.5390  -13.3860   19.6690 C   0  0  0  0  0  3  0  0  0  0  0  0
  -28.5810  -13.7290   20.7590 C   0  0  0  0  0  2  0  0  0  0  0  0
  -29.7220  -14.3800   20.0680 N   0  0  0  0  0  0  0  0  0  0  0  0
  -31.5090  -15.6550   20.1050 O   0  0  0  0  0  0  0  0  0  0  0  0
  -29.8100  -18.8530   20.4230 C   0  0  0  0  0  3  0  0  0  0  0  0
  -31.1760  -18.8360   21.0510 C   0  0  0  0  0  1  0  0  0  0  0  0
  -29.4770  -17.3300   20.1580 N   0  0  0  0  0  0  0  0  0  0  0  0
  -29.3970  -20.4050   20.3710 N   0  0  0  0  0  0  0  0  0  0  0  0
  -28.4920  -17.2880   19.9620 H   0  0  0  0  0  0  0  0  0  0  0  0
  -30.1920  -20.8370   20.8230 H   0  0  0  0  0  0  0  0  0  0  0  0
  -25.1850  -13.9000   20.4640 C   0  0  0  0  0  0  0  0  0  0  0  0
  -24.1350  -13.1120   20.8400 C   0  0  0  0  0  0  0  0  0  0  0  0
  -24.6160  -11.7670   20.8040 C   0  0  0  0  0  0  0  0  0  0  0  0
  -26.2330  -13.0380   20.2080 N   0  0  0  0  0  0  0  0  0  0  0  0
  -25.9070  -11.7460   20.4820 N   0  0  0  0  0  0  0  0  0  0  0  0
  -23.8990  -10.4990   20.9960 C   0  0  0  0  0  0  0  0  0  0  0  0
  -24.3360   -9.5360   21.9320 C   0  0  0  0  0  3  0  0  0  0  0  0
  -23.6140   -8.3370   22.1160 C   0  0  0  0  0  3  0  0  0  0  0  0
  -22.4410   -8.0910   21.3620 C   0  0  0  0  0  0  0  0  0  0  0  0
  -22.0240   -9.0430   20.4150 C   0  0  0  0  0  3  0  0  0  0  0  0
  -22.7460  -10.2330   20.2300 C   0  0  0  0  0  3  0  0  0  0  0  0
  -21.6910   -6.9430   21.4550 O   0  0  0  0  0  0  0  0  0  0  0  0
  -21.6400   -6.2090   22.6130 C   0  0  0  0  0  0  0  0  0  0  0  0
  -21.1870   -6.7650   23.8300 C   0  0  0  0  0  3  0  0  0  0  0  0
  -21.0850   -5.9550   24.9790 C   0  0  0  0  0  3  0  0  0  0  0  0
  -21.4240   -4.5910   24.9120 C   0  0  0  0  0  0  0  0  0  0  0  0
  -21.8700   -4.0340   23.7000 C   0  0  0  0  0  3  0  0  0  0  0  0
  -21.9740   -4.8410   22.5530 C   0  0  0  0  0  0  0  0  0  0  0  0
  -22.3830   -4.2940   21.3820 F   0  0  0  0  0  0  0  0  0  0  0  0
  -21.3200   -3.8110   26.0130 F   0  0  0  0  0  0  0  0  0  0  0  0
  -22.7350  -13.5790   21.1110 C   0  0  0  0  0  0  0  0  0  0  0  0
  -22.0130  -12.8780   21.9770 N   0  0  0  0  0  0  0  0  0  0  0  0
  -22.2920  -14.6010   20.5900 O   0  0  0  0  0  0  0  0  0  0  0  0
  -22.3860  -12.0520   22.4210 H   0  0  0  0  0  0  0  0  0  0  0  0
  -21.0740  -13.1740   22.2020 H   0  0  0  0  0  0  0  0  0  0  0  0
  -25.3300  -15.2730   20.2820 N   0  0  0  0  0  0  0  0  0  0  0  0
  -24.5490  -15.9120   20.3850 H   0  0  0  0  0  0  0  0  0  0  0  0
  -26.1520  -15.7120   19.8920 H   0  0  0  0  0  0  0  0  0  0  0  0
  -28.2560  -23.7650   20.5940 C   0  0  0  0  0  1  0  0  0  0  0  0
  -28.2260  -25.5180   20.2320 O   0  0  0  0  0  0  0  0  0  0  0  0
  -24.6510  -31.8470   23.1770 C   0  0  0  0  0  0  0  0  0  0  0  0
  -27.2200  -26.7150   20.2710 C   0  0  0  0  0  0  0  0  0  0  0  0
  -23.4830  -30.4280   21.5470 C   0  0  0  0  0  3  0  0  0  0  0  0
  -24.9470  -28.7610   20.1740 C   0  0  0  0  0  0  0  0  0  0  0  0
  -26.0640  -30.5700   21.4460 C   0  0  0  0  0  2  0  0  0  0  0  0
  -26.1390  -29.1240   20.8100 C   0  0  0  0  0  0  0  0  0  0  0  0
  -27.2630  -28.1340   20.8160 C   0  0  0  0  0  3  0  0  0  0  0  0
  -25.9870  -26.5690   19.5840 C   0  0  0  0  0  3  0  0  0  0  0  0
  -24.9100  -27.5080   19.5360 C   0  0  0  0  0  3  0  0  0  0  0  0
  -23.7390  -29.7140   20.1880 C   0  0  0  0  0  2  0  0  0  0  0  0
  -24.7570  -30.9830   22.1090 N   0  0  0  0  0  0  0  0  0  0  0  0
  -23.5520  -32.1490   23.6740 O   0  0  0  0  0  0  0  0  0  0  0  0
  -22.7590  -29.4610   22.5210 C   0  0  0  0  0  0  0  0  0  0  0  0
  -21.4250  -29.3140   22.3980 N   0  0  0  0  0  0  0  0  0  0  0  0
  -23.4110  -28.8370   23.3630 O   0  0  0  0  0  0  0  0  0  0  0  0
  -20.9480  -29.8690   21.7010 H   0  0  0  0  0  0  0  0  0  0  0  0
  -18.0290  -28.1280   22.9260 C   0  0  0  0  0  0  0  0  0  0  0  0
  -20.5930  -28.3850   23.1730 C   0  0  0  0  0  3  0  0  0  0  0  0
  -20.6820  -26.9500   22.6030 C   0  0  0  0  0  2  0  0  0  0  0  0
  -19.5750  -26.6330   21.5930 C   0  0  0  0  0  2  0  0  0  0  0  0
  -18.1970  -26.7810   22.2430 C   0  0  0  0  0  2  0  0  0  0  0  0
  -19.1540  -28.8880   23.3470 C   0  0  0  0  0  0  0  0  0  0  0  0
  -18.9390  -30.1470   23.9520 C   0  0  0  0  0  3  0  0  0  0  0  0
  -17.6350  -30.6460   24.1330 C   0  0  0  0  0  3  0  0  0  0  0  0
  -16.5270  -29.8850   23.7240 C   0  0  0  0  0  3  0  0  0  0  0  0
  -16.7250  -28.6270   23.1270 C   0  0  0  0  0  3  0  0  0  0  0  0
  -25.9050  -32.5100   23.8230 C   0  0  0  0  0  3  0  0  0  0  0  0
  -25.5710  -33.9130   24.1440 N   0  0  0  0  0  0  0  0  0  0  0  0
  -25.9120  -34.9770   23.4030 C   0  0  0  0  0  0  0  0  0  0  0  0
  -26.5950  -34.8820   22.3800 O   0  0  0  0  0  0  0  0  0  0  0  0
  -24.9640  -34.0600   24.9360 H   0  0  0  0  0  0  0  0  0  0  0  0
  -24.1890  -36.7840   23.0450 C   0  0  0  0  0  1  0  0  0  0  0  0
  -25.4220  -36.3670   23.8660 C   0  0  0  0  0  3  0  0  0  0  0  0
  -27.5440  -37.2530   24.7290 C   0  0  0  0  0  1  0  0  0  0  0  0
  -26.4560  -37.4220   23.7700 N   0  0  0  0  0  0  0  0  0  0  0  0
  -26.0450  -38.3400   23.9160 H   0  0  0  0  0  0  0  0  0  0  0  0
  -26.3910  -31.7680   25.1310 C   0  0  1  0  0  0  0  0  0  0  0  0
  -25.2740  -31.5520   26.1800 C   0  0  0  0  0  1  0  0  0  0  0  0
  -26.9850  -30.3830   24.7930 C   0  0  0  0  0  1  0  0  0  0  0  0
  -27.5270  -32.5780   25.8010 C   0  0  0  0  0  1  0  0  0  0  0  0
  1 13  1  0
  3  8  1  0
  4  5  1  0
  4  3  1  0
  6  5  1  0
  6 19  1  0
  6  7  1  0
  8  2  1  0
  8  7  1  0
  9  2  2  0
 10 11  1  0
 12  2  1  0
 12 10  1  0
 13 10  1  0
 13 15  1  0
 14 12  1  0
 16 17  2  0
 17 36  1  0
 18 17  1  0
 18 21  1  0
 19 16  1  0
 19 20  1  0
 20 18  2  0
 21 22  1  0
 22 23  2  0
 24 27  1  0
 24 23  1  0
 25 24  2  0
 26 25  1  0
 26 21  2  0
 27 28  1  0
 28 29  1  0
 29 30  2  0
 31 30  1  0
 31 35  1  0
 32 31  2  0
 33 28  2  0
 33 32  1  0
 34 33  1  0
 36 37  1  0
 37 40  1  0
 37 39  1  0
 38 36  2  0
 41 42  1  0
 41 16  1  0
 43 41  1  0
 45 47  1  0
 45 44  1  0
 46 57  2  0
 47 52  1  0
 48 56  1  0
 48 58  1  0
 49 55  1  0
 49 51  1  0
 50 56  1  0
 51 52  2  0
 51 50  1  0
 53 47  2  0
 54 53  1  0
 54 49  2  0
 55 48  1  0
 56 46  1  0
 58 60  2  0
 59 58  1  0
 61 59  1  0
 62 71  2  0
 62 67  1  0
 63 59  1  0
 63 67  1  0
 64 63  1  0
 65 66  1  0
 65 64  1  0
 66 62  1  0
 67 68  2  0
 68 69  1  0
 70 69  2  0
 71 70  1  0
 72 46  1  0
 72 73  1  0
 72 82  1  0
 73 76  1  0
 74 78  1  0
 74 73  1  0
 75 74  2  0
 78 77  1  0
 80 78  1  0
 80 81  1  0
 80 79  1  0
 82 85  1  1
 82 83  1  0
 84 82  1  0
M  ISO  4   2 100  12 100  44 101  45 101
M  END
>  <TORSDO>  (29) 
F 17

>  <SCORE>  (29) 
-16.407

>  <name>  (29) 
29

>  <ligand_id>  (29) 
29

>  <original_smiles>  (29) 
[H]c1c([H])c([H])c2c(c1[H])C([H])([H])C([H])([H])C([H])([H])C2([H])N([H])C(=O)C1([H])N(C(=O)C([H])(N([H])C(=O)C([H])(N([H])C([H])([H])[H])C([H])([H])[H])C(C([H])([H])[H])(C([H])([H])[H])C([H])([H])[H])C([H])([H])c2c([H])c(OC([H])([H])C([H])([H])[N+]([H])=C(N([H])C(=O)N3C([H])([H])C([H])([H])C([H])([H])C([H])(n4nc(-c5c([H])c([H])c(Oc6c([H])c([H])c(F)c([H])c6F)c([H])c5[H])c(C(=O)N([H])[H])c4N([H])[H])C3([H])[H])C([H])([H])[H])c([H])c([H])c2C1([H])[H]

>  <smiles>  (29) 
[H]c1c([H])c([H])c2c(c1[H])C([H])([H])C([H])([H])C([H])([H])C2([H])N([H])C(=O)C1([H])N(C(=O)C([H])(N([H])C(=O)C([H])(N([H])C([H])([H])[H])C([H])([H])[H])C(C([H])([H])[H])(C([H])([H])[H])C([H])([H])[H])C([H])([H])c2c([H])c(OC([H])([H])C([H])([H])[N+]([H])=C(N([H])C(=O)N3C([H])([H])C([H])([H])C([H])([H])C([H])(n4nc(-c5c([H])c([H])c(Oc6c([H])c([H])c(F)c([H])c6F)c([H])c5[H])c(C(=O)N([H])[H])c4N([H])[H])C3([H])[H])C([H])([H])[H])c([H])c([H])c2C1([H])[H]

$$$$
30:0:0
     RDKit          3D

 99107  0  0  1  0  0  0  0  0999 V2000
  -32.8550  -14.5640   20.2820 C   0  0  0  0  0  0  0  0  0  0  0  0
  -32.9990  -12.0110   20.2950 C   0  0  0  0  0  2  0  0  0  0  0  0
  -32.3180  -11.3670   19.0620 C   0  0  0  0  0  2  0  0  0  0  0  0
  -30.8190  -11.1400   19.3230 C   0  0  0  0  0  2  0  0  0  0  0  0
  -30.1520  -12.3900   19.9390 C   0  0  0  0  0  3  0  0  0  0  0  0
  -30.9630  -12.9770   21.1020 C   0  0  0  0  0  2  0  0  0  0  0  0
  -32.3170  -13.3070   20.6070 N   0  0  0  0  0  0  0  0  0  0  0  0
  -34.0400  -14.5780   19.9270 O   0  0  0  0  0  0  0  0  0  0  0  0
  -30.6930  -17.0370   21.9580 C   0  0  0  0  0  2  0  0  0  0  0  0
  -32.4030  -18.3280   20.5760 C   0  0  0  0  0  2  0  0  0  0  0  0
  -31.8010  -16.0110   21.7470 C   0  0  0  0  0  2  0  0  0  0  0  0
  -32.2890  -17.1880   19.5100 C   0  0  0  0  0  3  0  0  0  0  0  0
  -31.1640  -18.4290   21.5130 C   0  0  0  0  0  3  0  0  0  0  0  0
  -32.0860  -15.7750   20.3000 N   0  0  0  0  0  0  0  0  0  0  0  0
  -29.7990  -20.4840   20.9510 C   0  0  0  0  0  0  0  0  0  0  0  0
  -28.6620  -20.9580   20.4520 N   0  0  0  0  0  4  0  0  0  0  0  0
  -30.6880  -21.3220   21.4700 N   0  0  0  0  0  0  0  0  0  0  0  0
  -30.0310  -19.1670   20.9220 N   0  0  0  0  0  0  0  0  0  0  0  0
  -28.4270  -21.9400   20.4890 H   0  0  0  0  0  0  0  0  0  0  0  0
  -27.9420  -20.3380   20.1010 H   0  0  0  0  0  0  0  0  0  0  0  0
  -30.5320  -22.3190   21.5070 H   0  0  0  0  0  0  0  0  0  0  0  0
  -31.5490  -20.9790   21.8670 H   0  0  0  0  0  0  0  0  0  0  0  0
  -29.3620  -18.5910   20.4260 H   0  0  0  0  0  0  0  0  0  0  0  0
  -27.6860  -13.0070   20.2010 C   0  0  0  0  0  0  0  0  0  0  0  0
  -26.5990  -12.3020   20.6350 C   0  0  0  0  0  0  0  0  0  0  0  0
  -27.0940  -11.0210   21.0340 C   0  0  0  0  0  0  0  0  0  0  0  0
  -28.7680  -12.1550   20.3290 N   0  0  0  0  0  0  0  0  0  0  0  0
  -28.4140  -10.9760   20.9030 N   0  0  0  0  0  0  0  0  0  0  0  0
  -26.3810   -9.8140   21.4690 C   0  0  0  0  0  0  0  0  0  0  0  0
  -25.7450   -9.7460   22.7270 C   0  0  0  0  0  3  0  0  0  0  0  0
  -25.0460   -8.5820   23.1140 C   0  0  0  0  0  3  0  0  0  0  0  0
  -24.9780   -7.4720   22.2390 C   0  0  0  0  0  0  0  0  0  0  0  0
  -25.6310   -7.5380   20.9960 C   0  0  0  0  0  3  0  0  0  0  0  0
  -26.3270   -8.6950   20.6140 C   0  0  0  0  0  3  0  0  0  0  0  0
  -24.3480   -6.2890   22.5400 O   0  0  0  0  0  0  0  0  0  0  0  0
  -22.9830   -6.1690   22.4950 C   0  0  0  0  0  0  0  0  0  0  0  0
  -22.1830   -7.0500   21.7340 C   0  0  0  0  0  3  0  0  0  0  0  0
  -20.7900   -6.8500   21.6610 C   0  0  0  0  0  3  0  0  0  0  0  0
  -20.1970   -5.7660   22.3350 C   0  0  0  0  0  0  0  0  0  0  0  0
  -20.9920   -4.8840   23.0890 C   0  0  0  0  0  3  0  0  0  0  0  0
  -22.3810   -5.0830   23.1650 C   0  0  0  0  0  0  0  0  0  0  0  0
  -23.1460   -4.2200   23.8770 F   0  0  0  0  0  0  0  0  0  0  0  0
  -18.8610   -5.5680   22.2570 F   0  0  0  0  0  0  0  0  0  0  0  0
  -25.1690  -12.7510   20.5870 C   0  0  0  0  0  0  0  0  0  0  0  0
  -24.3090  -12.1420   21.3950 N   0  0  0  0  0  0  0  0  0  0  0  0
  -24.8140  -13.6840   19.8660 O   0  0  0  0  0  0  0  0  0  0  0  0
  -24.6080  -11.3930   22.0040 H   0  0  0  0  0  0  0  0  0  0  0  0
  -23.3410  -12.4330   21.4100 H   0  0  0  0  0  0  0  0  0  0  0  0
  -27.8440  -14.2880   19.6860 N   0  0  0  0  0  0  0  0  0  0  0  0
  -27.0610  -14.9140   19.5310 H   0  0  0  0  0  0  0  0  0  0  0  0
  -28.7240  -14.6660   19.3540 H   0  0  0  0  0  0  0  0  0  0  0  0
  -31.3240  -17.9010   18.3490 C   0  0  0  0  0  0  0  0  0  0  0  0
  -31.7000  -19.0240   17.5340 N   0  0  0  0  0  0  0  0  0  0  0  0
  -30.1940  -17.4320   18.2110 O   0  0  0  0  0  0  0  0  0  0  0  0
  -32.6450  -19.3360   17.7150 H   0  0  0  0  0  0  0  0  0  0  0  0
  -30.9620  -19.9180   16.4430 C   0  0  0  0  0  2  0  0  0  0  0  0
  -31.6830  -21.0620   15.4030 C   0  0  0  0  0  3  0  0  0  0  0  0
  -31.0340  -22.5730   14.9370 C   0  0  0  0  0  3  0  0  0  0  0  0
  -31.6870  -23.7840   14.1730 O   0  0  0  0  0  0  0  0  0  0  0  0
  -35.7620  -29.3160   16.9260 C   0  0  0  0  0  0  0  0  0  0  0  0
  -31.7820  -25.1150   14.7410 C   0  0  0  0  0  0  0  0  0  0  0  0
  -33.3970  -29.1810   17.6040 C   0  0  0  0  0  3  0  0  0  0  0  0
  -31.8940  -27.6450   16.1900 C   0  0  0  0  0  0  0  0  0  0  0  0
  -34.1210  -28.3020   15.2950 C   0  0  0  0  0  2  0  0  0  0  0  0
  -32.9520  -27.2990   15.3390 C   0  0  0  0  0  0  0  0  0  0  0  0
  -32.8890  -26.0540   14.6010 C   0  0  0  0  0  3  0  0  0  0  0  0
  -30.7320  -25.5800   15.5630 C   0  0  0  0  0  3  0  0  0  0  0  0
  -30.7800  -26.7970   16.2760 C   0  0  0  0  0  3  0  0  0  0  0  0
  -31.9940  -28.9330   16.9930 C   0  0  0  0  0  2  0  0  0  0  0  0
  -34.4890  -28.9270   16.6100 N   0  0  0  0  0  0  0  0  0  0  0  0
  -36.0200  -29.8800   18.0010 O   0  0  0  0  0  0  0  0  0  0  0  0
  -33.5440  -28.3460   18.9020 C   0  0  0  0  0  0  0  0  0  0  0  0
  -32.5830  -28.4800   19.8350 N   0  0  0  0  0  0  0  0  0  0  0  0
  -34.4990  -27.5790   19.0440 O   0  0  0  0  0  0  0  0  0  0  0  0
  -31.8410  -29.1440   19.6650 H   0  0  0  0  0  0  0  0  0  0  0  0
  -30.3260  -27.2830   22.4040 C   0  0  0  0  0  0  0  0  0  0  0  0
  -32.5110  -27.7440   21.1000 C   0  0  0  0  0  3  0  0  0  0  0  0
  -32.5660  -26.2170   20.8620 C   0  0  0  0  0  2  0  0  0  0  0  0
  -31.1770  -25.5790   20.7410 C   0  0  0  0  0  2  0  0  0  0  0  0
  -30.3680  -25.8140   22.0190 C   0  0  0  0  0  2  0  0  0  0  0  0
  -31.3230  -28.1920   21.9600 C   0  0  0  0  0  0  0  0  0  0  0  0
  -31.2180  -29.5530   22.3220 C   0  0  0  0  0  3  0  0  0  0  0  0
  -30.1410  -30.0080   23.1050 C   0  0  0  0  0  3  0  0  0  0  0  0
  -29.1630  -29.1020   23.5500 C   0  0  0  0  0  3  0  0  0  0  0  0
  -29.2590  -27.7420   23.2050 C   0  0  0  0  0  3  0  0  0  0  0  0
  -36.9530  -29.0920   15.9450 C   0  0  0  0  0  3  0  0  0  0  0  0
  -37.7050  -27.7240   16.1840 C   0  0  1  0  0  0  0  0  0  0  0  0
  -38.1800  -27.5210   17.6420 C   0  0  0  0  0  1  0  0  0  0  0  0
  -36.8010  -26.5240   15.8160 C   0  0  0  0  0  1  0  0  0  0  0  0
  -38.9440  -27.6390   15.2620 C   0  0  0  0  0  1  0  0  0  0  0  0
  -37.8870  -30.2190   16.1040 N   0  0  0  0  0  0  0  0  0  0  0  0
  -37.9310  -31.2920   15.3030 C   0  0  0  0  0  0  0  0  0  0  0  0
  -37.2210  -31.4070   14.3000 O   0  0  0  0  0  0  0  0  0  0  0  0
  -38.4590  -30.2180   16.9350 H   0  0  0  0  0  0  0  0  0  0  0  0
  -38.1720  -33.5560   16.3760 C   0  0  0  0  0  1  0  0  0  0  0  0
  -38.9220  -32.4160   15.6690 C   0  0  0  0  0  3  0  0  0  0  0  0
  -40.6180  -32.0130   13.9390 C   0  0  0  0  0  1  0  0  0  0  0  0
  -39.6590  -32.9580   14.5050 N   0  0  0  0  0  0  0  0  0  0  0  0
  -40.1580  -33.8060   14.7570 H   0  0  0  0  0  0  0  0  0  0  0  0
  1 14  1  0
  1  7  1  0
  2  7  1  0
  3  4  1  0
  3  2  1  0
  5  4  1  0
  5 27  1  0
  5  6  1  0
  7  6  1  0
  8  1  2  0
 10 13  1  0
 11  9  1  0
 12 52  1  0
 12 14  1  0
 12 10  1  0
 13 18  1  0
 13  9  1  0
 14 11  1  0
 15 17  1  0
 16 19  1  0
 16 15  2  0
 17 21  1  0
 17 22  1  0
 18 15  1  0
 20 16  1  0
 23 18  1  0
 24 27  1  0
 24 25  2  0
 25 26  1  0
 26 29  1  0
 27 28  1  0
 28 26  2  0
 29 30  1  0
 30 31  2  0
 32 35  1  0
 32 31  1  0
 33 32  2  0
 34 33  1  0
 34 29  2  0
 36 35  1  0
 36 41  1  0
 37 36  2  0
 38 37  1  0
 38 39  2  0
 39 40  1  0
 40 41  2  0
 41 42  1  0
 43 39  1  0
 44 25  1  0
 44 45  1  0
 45 48  1  0
 45 47  1  0
 46 44  2  0
 49 24  1  0
 50 49  1  0
 51 49  1  0
 53 55  1  0
 53 52  1  0
 54 52  2  0
 56 53  1  0
 57 56  1  0
 58 57  2  0
 59 61  1  0
 59 58  1  0
 60 71  2  0
 61 67  1  0
 62 72  1  0
 63 68  1  0
 63 69  1  0
 64 65  1  0
 64 70  1  0
 65 63  2  0
 66 61  2  0
 66 65  1  0
 67 68  2  0
 69 62  1  0
 70 60  1  0
 70 62  1  0
 72 74  2  0
 72 73  1  0
 75 73  1  0
 76 85  1  0
 77 73  1  0
 77 81  1  0
 78 77  1  0
 79 78  1  0
 79 80  1  0
 80 76  1  0
 81 82  1  0
 81 76  2  0
 82 83  2  0
 83 84  1  0
 85 84  2  0
 86 91  1  0
 86 87  1  0
 86 60  1  0
 87 88  1  1
 89 87  1  0
 90 87  1  0
 91 94  1  0
 92 96  1  0
 92 91  1  0
 93 92  2  0
 96 95  1  0
 97 98  1  0
 98 99  1  0
 98 96  1  0
M  ISO  4   1 100  14 100  58 101  59 101
M  END
>  <TORSDO>  (30) 
F 20

>  <SCORE>  (30) 
-2.825

>  <name>  (30) 
30

>  <ligand_id>  (30) 
30

>  <original_smiles>  (30) 
[H]c1c([H])c([H])c2c(c1[H])C([H])([H])C([H])([H])C([H])([H])C2([H])N([H])C(=O)C1([H])N(C(=O)C([H])(N([H])C(=O)C([H])(N([H])C([H])([H])[H])C([H])([H])[H])C(C([H])([H])[H])(C([H])([H])[H])C([H])([H])[H])C([H])([H])c2c([H])c(OC([H])([H])C([H])([H])C([H])([H])N([H])C(=O)C3([H])N(C(=O)N4C([H])([H])C([H])([H])C([H])([H])C([H])(n5nc(-c6c([H])c([H])c(Oc7c([H])c([H])c(F)c([H])c7F)c([H])c6[H])c(C(=O)N([H])[H])c5N([H])[H])C4([H])[H])C([H])([H])C([H])([H])C([H])(N([H])C(N([H])[H])=[N+]([H])[H])C3([H])[H])c([H])c([H])c2C1([H])[H]

>  <smiles>  (30) 
[H]c1c([H])c([H])c2c(c1[H])C([H])([H])C([H])([H])C([H])([H])C2([H])N([H])C(=O)C1([H])N(C(=O)C([H])(N([H])C(=O)C([H])(N([H])C([H])([H])[H])C([H])([H])[H])C(C([H])([H])[H])(C([H])([H])[H])C([H])([H])[H])C([H])([H])c2c([H])c(OC([H])([H])C([H])([H])C([H])([H])N([H])C(=O)C3([H])N(C(=O)N4C([H])([H])C([H])([H])C([H])([H])C([H])(n5nc(-c6c([H])c([H])c(Oc7c([H])c([H])c(F)c([H])c7F)c([H])c6[H])c(C(=O)N([H])[H])c5N([H])[H])C4([H])[H])C([H])([H])C([H])([H])C([H])(N([H])C(N([H])[H])=[N+]([H])[H])C3([H])[H])c([H])c([H])c2C1([H])[H]

$$$$
31:0:0
     RDKit          3D

 85 92  0  0  1  0  0  0  0  0999 V2000
  -29.4670  -18.8250   20.3050 C   0  0  0  0  0  0  0  0  0  0  0  0
  -28.4120  -20.1850   20.1820 C   0  0  0  0  0  0  0  0  0  0  0  0
  -29.3750  -17.2640   20.2510 C   0  0  0  0  0  2  0  0  0  0  0  0
  -30.6520  -19.8170   20.5230 C   0  0  0  0  0  3  0  0  0  0  0  0
  -30.2240  -21.3910   20.8220 C   0  0  0  0  0  2  0  0  0  0  0  0
  -28.8820  -21.9080   20.1380 C   0  0  0  0  0  2  0  0  0  0  0  0
  -27.1990  -19.9720   20.1070 O   0  0  0  0  0  0  0  0  0  0  0  0
  -30.2460  -15.7600   20.2540 C   0  0  0  0  0  0  0  0  0  0  0  0
  -30.3900  -13.1800   19.4870 C   0  0  0  0  0  2  0  0  0  0  0  0
  -29.5230  -12.7420   18.2690 C   0  0  0  0  0  2  0  0  0  0  0  0
  -28.0970  -12.3750   18.7050 C   0  0  0  0  0  2  0  0  0  0  0  0
  -27.5600  -13.3870   19.7400 C   0  0  0  0  0  3  0  0  0  0  0  0
  -28.5670  -13.7410   20.8570 C   0  0  0  0  0  2  0  0  0  0  0  0
  -29.7500  -14.3720   20.2200 N   0  0  0  0  0  0  0  0  0  0  0  0
  -31.4820  -15.6720   20.1120 O   0  0  0  0  0  0  0  0  0  0  0  0
  -25.1920  -13.9020   20.4940 C   0  0  0  0  0  0  0  0  0  0  0  0
  -24.1350  -13.1180   20.8530 C   0  0  0  0  0  0  0  0  0  0  0  0
  -24.6120  -11.7700   20.8270 C   0  0  0  0  0  0  0  0  0  0  0  0
  -26.2430  -13.0380   20.2540 N   0  0  0  0  0  0  0  0  0  0  0  0
  -25.9090  -11.7470   20.5240 N   0  0  0  0  0  0  0  0  0  0  0  0
  -23.8890  -10.5050   21.0120 C   0  0  0  0  0  0  0  0  0  0  0  0
  -24.3060   -9.5430   21.9570 C   0  0  0  0  0  3  0  0  0  0  0  0
  -23.5760   -8.3460   22.1320 C   0  0  0  0  0  3  0  0  0  0  0  0
  -22.4160   -8.1020   21.3610 C   0  0  0  0  0  0  0  0  0  0  0  0
  -22.0160   -9.0530   20.4040 C   0  0  0  0  0  3  0  0  0  0  0  0
  -22.7470  -10.2410   20.2280 C   0  0  0  0  0  3  0  0  0  0  0  0
  -21.6600   -6.9570   21.4430 O   0  0  0  0  0  0  0  0  0  0  0  0
  -21.5820   -6.2280   22.6030 C   0  0  0  0  0  0  0  0  0  0  0  0
  -21.1120   -6.7930   23.8080 C   0  0  0  0  0  3  0  0  0  0  0  0
  -20.9830   -5.9890   24.9590 C   0  0  0  0  0  3  0  0  0  0  0  0
  -21.3130   -4.6220   24.9040 C   0  0  0  0  0  0  0  0  0  0  0  0
  -21.7760   -4.0570   23.7030 C   0  0  0  0  0  3  0  0  0  0  0  0
  -21.9070   -4.8570   22.5550 C   0  0  0  0  0  0  0  0  0  0  0  0
  -22.3330   -4.3020   21.3950 F   0  0  0  0  0  0  0  0  0  0  0  0
  -21.1830   -3.8480   26.0070 F   0  0  0  0  0  0  0  0  0  0  0  0
  -22.7320  -13.5880   21.1010 C   0  0  0  0  0  0  0  0  0  0  0  0
  -22.0000  -12.8980   21.9680 N   0  0  0  0  0  0  0  0  0  0  0  0
  -22.2960  -14.6050   20.5650 O   0  0  0  0  0  0  0  0  0  0  0  0
  -22.3670  -12.0760   22.4240 H   0  0  0  0  0  0  0  0  0  0  0  0
  -21.0570  -13.1960   22.1780 H   0  0  0  0  0  0  0  0  0  0  0  0
  -25.3470  -15.2750   20.3170 N   0  0  0  0  0  0  0  0  0  0  0  0
  -24.5740  -15.9220   20.4250 H   0  0  0  0  0  0  0  0  0  0  0  0
  -26.1930  -15.7210   19.9880 H   0  0  0  0  0  0  0  0  0  0  0  0
  -28.0320  -23.6880   20.3980 C   0  0  0  0  0  1  0  0  0  0  0  0
  -28.2010  -25.4710   20.2770 O   0  0  0  0  0  0  0  0  0  0  0  0
  -24.7010  -31.8690   23.1480 C   0  0  0  0  0  0  0  0  0  0  0  0
  -27.2260  -26.7010   20.2470 C   0  0  0  0  0  0  0  0  0  0  0  0
  -23.5170  -30.4510   21.5290 C   0  0  0  0  0  3  0  0  0  0  0  0
  -24.9650  -28.7700   20.1510 C   0  0  0  0  0  0  0  0  0  0  0  0
  -26.1000  -30.5730   21.4170 C   0  0  0  0  0  2  0  0  0  0  0  0
  -26.1630  -29.1240   20.7830 C   0  0  0  0  0  0  0  0  0  0  0  0
  -27.2760  -28.1220   20.7910 C   0  0  0  0  0  3  0  0  0  0  0  0
  -25.9910  -26.5670   19.5590 C   0  0  0  0  0  3  0  0  0  0  0  0
  -24.9210  -27.5170   19.5130 C   0  0  0  0  0  3  0  0  0  0  0  0
  -23.7630  -29.7300   20.1710 C   0  0  0  0  0  2  0  0  0  0  0  0
  -24.7970  -30.9990   22.0830 N   0  0  0  0  0  0  0  0  0  0  0  0
  -23.6060  -32.1800   23.6490 O   0  0  0  0  0  0  0  0  0  0  0  0
  -22.7920  -29.4920   22.5130 C   0  0  0  0  0  0  0  0  0  0  0  0
  -21.4560  -29.3510   22.3950 N   0  0  0  0  0  0  0  0  0  0  0  0
  -23.4430  -28.8700   23.3550 O   0  0  0  0  0  0  0  0  0  0  0  0
  -20.9800  -29.9020   21.6940 H   0  0  0  0  0  0  0  0  0  0  0  0
  -18.0570  -28.1870   22.9480 C   0  0  0  0  0  0  0  0  0  0  0  0
  -20.6240  -28.4300   23.1790 C   0  0  0  0  0  3  0  0  0  0  0  0
  -20.7020  -26.9930   22.6120 C   0  0  0  0  0  2  0  0  0  0  0  0
  -19.5850  -26.6790   21.6110 C   0  0  0  0  0  2  0  0  0  0  0  0
  -18.2130  -26.8370   22.2690 C   0  0  0  0  0  2  0  0  0  0  0  0
  -19.1880  -28.9430   23.3610 C   0  0  0  0  0  0  0  0  0  0  0  0
  -18.9840  -30.2030   23.9620 C   0  0  0  0  0  3  0  0  0  0  0  0
  -17.6850  -30.7110   24.1500 C   0  0  0  0  0  3  0  0  0  0  0  0
  -16.5700  -29.9560   23.7500 C   0  0  0  0  0  3  0  0  0  0  0  0
  -16.7570  -28.6950   23.1550 C   0  0  0  0  0  3  0  0  0  0  0  0
  -25.9610  -32.5290   23.7860 C   0  0  0  0  0  3  0  0  0  0  0  0
  -25.6280  -33.9270   24.1280 N   0  0  0  0  0  0  0  0  0  0  0  0
  -25.9380  -35.0000   23.3870 C   0  0  0  0  0  0  0  0  0  0  0  0
  -26.5910  -34.9180   22.3430 O   0  0  0  0  0  0  0  0  0  0  0  0
  -25.0430  -34.0630   24.9390 H   0  0  0  0  0  0  0  0  0  0  0  0
  -24.1840  -36.7890   23.1100 C   0  0  0  0  0  1  0  0  0  0  0  0
  -25.4540  -36.3830   23.8760 C   0  0  0  0  0  3  0  0  0  0  0  0
  -27.6020  -37.2890   24.6530 C   0  0  0  0  0  1  0  0  0  0  0  0
  -26.4720  -37.4480   23.7420 N   0  0  0  0  0  0  0  0  0  0  0  0
  -26.0590  -38.3630   23.9060 H   0  0  0  0  0  0  0  0  0  0  0  0
  -26.4670  -31.7730   25.0770 C   0  0  1  0  0  0  0  0  0  0  0  0
  -25.3660  -31.5460   26.1400 C   0  0  0  0  0  1  0  0  0  0  0  0
  -27.0560  -30.3900   24.7170 C   0  0  0  0  0  1  0  0  0  0  0  0
  -27.6120  -32.5760   25.7390 C   0  0  0  0  0  1  0  0  0  0  0  0
  1  4  2  0
  2  1  1  0
  3  8  1  0
  3  1  1  0
  4  5  1  0
  6  2  1  0
  6  5  1  0
  7  2  2  0
  9 14  1  0
 10 11  1  0
 10  9  1  0
 12 11  1  0
 12 19  1  0
 12 13  1  0
 14  8  1  0
 14 13  1  0
 15  8  2  0
 16 17  2  0
 17 36  1  0
 18 17  1  0
 18 21  1  0
 19 16  1  0
 19 20  1  0
 20 18  2  0
 21 22  1  0
 22 23  2  0
 24 27  1  0
 24 23  1  0
 25 24  2  0
 26 25  1  0
 26 21  2  0
 27 28  1  0
 28 29  1  0
 29 30  2  0
 31 30  1  0
 31 35  1  0
 32 31  2  0
 33 28  2  0
 33 32  1  0
 34 33  1  0
 36 37  1  0
 37 40  1  0
 37 39  1  0
 38 36  2  0
 41 42  1  0
 41 16  1  0
 43 41  1  0
 45 44  1  0
 46 57  2  0
 47 45  1  0
 47 52  1  0
 48 56  1  0
 48 58  1  0
 49 55  1  0
 49 51  1  0
 50 56  1  0
 51 52  2  0
 51 50  1  0
 53 47  2  0
 54 53  1  0
 54 49  2  0
 55 48  1  0
 56 46  1  0
 58 60  2  0
 59 58  1  0
 61 59  1  0
 62 71  2  0
 62 67  1  0
 63 59  1  0
 63 67  1  0
 64 63  1  0
 65 66  1  0
 65 64  1  0
 66 62  1  0
 67 68  2  0
 68 69  1  0
 70 69  2  0
 71 70  1  0
 72 46  1  0
 72 73  1  0
 72 82  1  0
 73 76  1  0
 74 78  1  0
 74 73  1  0
 75 74  2  0
 78 77  1  0
 80 78  1  0
 80 81  1  0
 80 79  1  0
 82 85  1  1
 82 83  1  0
 84 82  1  0
M  ISO  4   3 100   8 100  44 101  45 101
M  END
>  <TORSDO>  (31) 
F 17

>  <SCORE>  (31) 
-16.154

>  <name>  (31) 
31

>  <ligand_id>  (31) 
31

>  <original_smiles>  (31) 
[H]C(C(=O)N1C([H])([H])C([H])([H])C([H])([H])C([H])(n2nc(-c3c([H])c([H])c(Oc4c([H])c([H])c(F)c([H])c4F)c([H])c3[H])c(C(=O)N([H])[H])c2N([H])[H])C1([H])[H])=C1C(=O)C([H])(C([H])([H])Oc2c([H])c([H])c3c(c2[H])C([H])([H])N(C(=O)C([H])(N([H])C(=O)C([H])(N([H])C([H])([H])[H])C([H])([H])[H])C(C([H])([H])[H])(C([H])([H])[H])C([H])([H])[H])C([H])(C(=O)N([H])C2([H])c4c([H])c([H])c([H])c([H])c4C([H])([H])C([H])([H])C2([H])[H])C3([H])[H])C([H])([H])C1([H])[H]

>  <smiles>  (31) 
[H]C(C(=O)N1C([H])([H])C([H])([H])C([H])([H])C([H])(n2nc(-c3c([H])c([H])c(Oc4c([H])c([H])c(F)c([H])c4F)c([H])c3[H])c(C(=O)N([H])[H])c2N([H])[H])C1([H])[H])=C1C(=O)C([H])(C([H])([H])Oc2c([H])c([H])c3c(c2[H])C([H])([H])N(C(=O)C([H])(N([H])C(=O)C([H])(N([H])C([H])([H])[H])C([H])([H])[H])C(C([H])([H])[H])(C([H])([H])[H])C([H])([H])[H])C([H])(C(=O)N([H])C2([H])c4c([H])c([H])c([H])c([H])c4C([H])([H])C([H])([H])C2([H])[H])C3([H])[H])C([H])([H])C1([H])[H]

$$$$
32:0:0
     RDKit          3D

 97104  0  0  1  0  0  0  0  0999 V2000
  -29.2710  -21.8190   21.0850 C   0  0  0  0  0  3  0  0  0  0  0  0
  -29.8320  -20.5150   20.4090 C   0  0  0  0  0  0  0  0  0  0  0  0
  -29.7150  -19.3300   21.0660 N   0  0  0  0  0  0  0  0  0  0  0  0
  -30.3790  -20.5950   19.3060 O   0  0  0  0  0  0  0  0  0  0  0  0
  -29.2250  -19.3700   21.9510 H   0  0  0  0  0  0  0  0  0  0  0  0
  -30.3330  -18.0080   20.7620 C   0  0  0  0  0  2  0  0  0  0  0  0
  -28.9750  -17.0580   18.8040 C   0  0  0  0  0  1  0  0  0  0  0  0
  -29.3170  -16.9120   20.2940 C   0  0  0  0  0  3  0  0  0  0  0  0
  -30.3810  -14.5400   20.1240 C   0  0  0  0  0  0  0  0  0  0  0  0
  -30.1030  -12.4090   18.8940 C   0  0  0  0  0  2  0  0  0  0  0  0
  -29.0600  -12.6610   17.7820 C   0  0  0  0  0  2  0  0  0  0  0  0
  -27.6240  -12.4680   18.3110 C   0  0  0  0  0  2  0  0  0  0  0  0
  -27.3800  -13.2030   19.6560 C   0  0  0  0  0  3  0  0  0  0  0  0
  -28.5220  -12.9240   20.6590 C   0  0  0  0  0  2  0  0  0  0  0  0
  -29.7920  -13.3130   20.0170 N   0  0  0  0  0  0  0  0  0  0  0  0
  -31.4560  -14.8100   19.5790 O   0  0  0  0  0  0  0  0  0  0  0  0
  -29.5880  -15.4930   20.6780 N   0  0  0  0  0  0  0  0  0  0  0  0
  -28.8300  -15.0780   21.1990 H   0  0  0  0  0  0  0  0  0  0  0  0
  -25.0340  -13.7310   20.5660 C   0  0  0  0  0  0  0  0  0  0  0  0
  -24.0100  -12.9230   20.9780 C   0  0  0  0  0  0  0  0  0  0  0  0
  -24.4890  -11.5840   20.8540 C   0  0  0  0  0  0  0  0  0  0  0  0
  -26.0720  -12.8810   20.2180 N   0  0  0  0  0  0  0  0  0  0  0  0
  -25.7520  -11.5830   20.4480 N   0  0  0  0  0  0  0  0  0  0  0  0
  -23.8000  -10.3020   21.0450 C   0  0  0  0  0  0  0  0  0  0  0  0
  -24.2820   -9.3330   21.9540 C   0  0  0  0  0  3  0  0  0  0  0  0
  -23.5940   -8.1150   22.1320 C   0  0  0  0  0  3  0  0  0  0  0  0
  -22.4110   -7.8540   21.4010 C   0  0  0  0  0  0  0  0  0  0  0  0
  -21.9490   -8.8100   20.4800 C   0  0  0  0  0  3  0  0  0  0  0  0
  -22.6370  -10.0220   20.3000 C   0  0  0  0  0  3  0  0  0  0  0  0
  -21.6880   -6.6900   21.4910 O   0  0  0  0  0  0  0  0  0  0  0  0
  -21.6560   -5.9490   22.6460 C   0  0  0  0  0  0  0  0  0  0  0  0
  -21.1510   -6.4760   23.8530 C   0  0  0  0  0  3  0  0  0  0  0  0
  -21.0730   -5.6590   25.0000 C   0  0  0  0  0  3  0  0  0  0  0  0
  -21.4870   -4.3160   24.9350 C   0  0  0  0  0  0  0  0  0  0  0  0
  -21.9850   -3.7870   23.7310 C   0  0  0  0  0  3  0  0  0  0  0  0
  -22.0660   -4.6020   22.5890 C   0  0  0  0  0  0  0  0  0  0  0  0
  -22.5260   -4.0820   21.4260 F   0  0  0  0  0  0  0  0  0  0  0  0
  -21.4050   -3.5270   26.0330 F   0  0  0  0  0  0  0  0  0  0  0  0
  -22.6300  -13.3580   21.3780 C   0  0  0  0  0  0  0  0  0  0  0  0
  -21.9820  -12.6050   22.2590 N   0  0  0  0  0  0  0  0  0  0  0  0
  -22.1380  -14.4000   20.9470 O   0  0  0  0  0  0  0  0  0  0  0  0
  -22.3990  -11.7600   22.6240 H   0  0  0  0  0  0  0  0  0  0  0  0
  -21.0560  -12.8680   22.5670 H   0  0  0  0  0  0  0  0  0  0  0  0
  -25.1640  -15.1120   20.4370 N   0  0  0  0  0  0  0  0  0  0  0  0
  -24.3990  -15.7480   20.6310 H   0  0  0  0  0  0  0  0  0  0  0  0
  -25.9690  -15.5760   20.0360 H   0  0  0  0  0  0  0  0  0  0  0  0
  -29.2650  -23.0130   20.1570 N   0  0  0  0  0  4  0  0  0  0  0  0
  -29.2220  -22.6440   19.2200 H   0  0  0  0  0  0  0  0  0  0  0  0
  -30.1660  -23.4580   20.2310 H   0  0  0  0  0  0  0  0  0  0  0  0
  -26.7980  -23.5170   19.9200 C   0  0  0  0  0  1  0  0  0  0  0  0
  -28.1910  -24.0650   20.3220 C   0  0  0  0  0  3  0  0  0  0  0  0
  -28.5260  -25.3280   19.4390 C   0  0  0  0  0  0  0  0  0  0  0  0
  -28.9750  -25.2320   18.2930 O   0  0  0  0  0  0  0  0  0  0  0  0
  -28.3490  -26.5650   20.0660 O   0  0  0  0  0  0  0  0  0  0  0  0
  -24.6530  -31.8250   23.2100 C   0  0  0  0  0  0  0  0  0  0  0  0
  -27.1910  -27.3440   20.0180 C   0  0  0  0  0  0  0  0  0  0  0  0
  -23.4090  -30.4770   21.5550 C   0  0  0  0  0  3  0  0  0  0  0  0
  -24.8240  -28.9340   20.0840 C   0  0  0  0  0  0  0  0  0  0  0  0
  -25.9450  -30.7790   21.3440 C   0  0  0  0  0  2  0  0  0  0  0  0
  -25.9990  -29.4130   20.6750 C   0  0  0  0  0  0  0  0  0  0  0  0
  -27.1800  -28.6260   20.6400 C   0  0  0  0  0  3  0  0  0  0  0  0
  -25.9970  -26.9090   19.3990 C   0  0  0  0  0  3  0  0  0  0  0  0
  -24.8220  -27.6840   19.4420 C   0  0  0  0  0  3  0  0  0  0  0  0
  -23.5960  -29.8190   20.1620 C   0  0  0  0  0  2  0  0  0  0  0  0
  -24.6890  -31.0410   22.0930 N   0  0  0  0  0  0  0  0  0  0  0  0
  -23.5810  -32.1060   23.7630 O   0  0  0  0  0  0  0  0  0  0  0  0
  -22.7450  -29.4490   22.5020 C   0  0  0  0  0  0  0  0  0  0  0  0
  -21.4220  -29.2650   22.3600 N   0  0  0  0  0  0  0  0  0  0  0  0
  -23.4210  -28.8220   23.3210 O   0  0  0  0  0  0  0  0  0  0  0  0
  -20.9370  -29.8240   21.6720 H   0  0  0  0  0  0  0  0  0  0  0  0
  -18.0530  -28.0300   22.7950 C   0  0  0  0  0  0  0  0  0  0  0  0
  -20.6000  -28.3200   23.1180 C   0  0  0  0  0  3  0  0  0  0  0  0
  -20.7320  -26.8880   22.5480 C   0  0  0  0  0  2  0  0  0  0  0  0
  -19.6550  -26.5490   21.5130 C   0  0  0  0  0  2  0  0  0  0  0  0
  -18.2590  -26.6800   22.1260 C   0  0  0  0  0  2  0  0  0  0  0  0
  -19.1530  -28.8060   23.2450 C   0  0  0  0  0  0  0  0  0  0  0  0
  -18.9070  -30.0700   23.8270 C   0  0  0  0  0  3  0  0  0  0  0  0
  -17.5940  -30.5560   23.9640 C   0  0  0  0  0  3  0  0  0  0  0  0
  -16.5080  -29.7780   23.5290 C   0  0  0  0  0  3  0  0  0  0  0  0
  -16.7380  -28.5160   22.9520 C   0  0  0  0  0  3  0  0  0  0  0  0
  -25.9530  -32.4260   23.8310 C   0  0  0  0  0  3  0  0  0  0  0  0
  -25.6780  -33.8310   24.1590 N   0  0  0  0  0  0  0  0  0  0  0  0
  -26.0370  -34.8760   23.4010 C   0  0  0  0  0  0  0  0  0  0  0  0
  -26.7030  -34.7540   22.3690 O   0  0  0  0  0  0  0  0  0  0  0  0
  -25.0900  -34.0040   24.9640 H   0  0  0  0  0  0  0  0  0  0  0  0
  -24.3660  -36.7220   23.0310 C   0  0  0  0  0  1  0  0  0  0  0  0
  -25.5840  -36.2770   23.8570 C   0  0  0  0  0  3  0  0  0  0  0  0
  -27.7250  -37.1040   24.7300 C   0  0  0  0  0  1  0  0  0  0  0  0
  -26.6490  -37.3000   23.7620 N   0  0  0  0  0  0  0  0  0  0  0  0
  -26.2650  -38.2310   23.8970 H   0  0  0  0  0  0  0  0  0  0  0  0
  -26.4530  -31.6440   25.1080 C   0  0  1  0  0  0  0  0  0  0  0  0
  -25.3540  -31.4300   26.1770 C   0  0  0  0  0  1  0  0  0  0  0  0
  -27.0080  -30.2550   24.7160 C   0  0  0  0  0  1  0  0  0  0  0  0
  -27.6190  -32.4110   25.7740 C   0  0  0  0  0  1  0  0  0  0  0  0
  -29.4110  -23.2890   23.2470 C   0  0  0  0  0  1  0  0  0  0  0  0
  -31.5320  -22.2840   22.3230 C   0  0  0  0  0  1  0  0  0  0  0  0
  -30.0040  -22.1170   22.4400 C   0  0  0  0  0  3  0  0  0  0  0  0
  1  2  1  0
  1 97  1  0
  2  3  1  0
  3  5  1  0
  4  2  2  0
  6  3  1  0
  8  7  1  0
  8 17  1  0
  8  6  1  0
  9 17  1  0
 10 15  1  0
 11 12  1  0
 11 10  1  0
 13 12  1  0
 13 22  1  0
 13 14  1  0
 15  9  1  0
 15 14  1  0
 16  9  2  0
 17 18  1  0
 19 20  2  0
 20 39  1  0
 21 20  1  0
 21 24  1  0
 22 23  1  0
 22 19  1  0
 23 21  2  0
 24 25  1  0
 25 26  2  0
 27 30  1  0
 27 26  1  0
 28 27  2  0
 29 28  1  0
 29 24  2  0
 30 31  1  0
 31 32  1  0
 32 33  2  0
 34 33  1  0
 34 38  1  0
 35 34  2  0
 36 31  2  0
 36 35  1  0
 37 36  1  0
 39 40  1  0
 40 43  1  0
 40 42  1  0
 41 39  2  0
 44 19  1  0
 44 45  1  0
 46 44  1  0
 47 49  1  0
 47 51  1  0
 47  1  1  0
 48 47  1  0
 51 50  1  0
 52 54  1  0
 52 51  1  0
 53 52  2  0
 55 66  2  0
 56 54  1  0
 56 61  1  0
 57 65  1  0
 57 67  1  0
 58 64  1  0
 58 60  1  0
 59 65  1  0
 60 59  1  0
 61 60  2  0
 62 63  1  0
 62 56  2  0
 63 58  2  0
 64 57  1  0
 65 55  1  0
 67 69  2  0
 68 67  1  0
 70 68  1  0
 71 80  2  0
 71 76  1  0
 72 68  1  0
 72 76  1  0
 73 72  1  0
 74 75  1  0
 74 73  1  0
 75 71  1  0
 76 77  2  0
 77 78  1  0
 79 78  2  0
 80 79  1  0
 81 55  1  0
 81 82  1  0
 81 91  1  0
 82 85  1  0
 83 87  1  0
 83 82  1  0
 84 83  2  0
 87 86  1  0
 89 87  1  0
 89 90  1  0
 89 88  1  0
 91 94  1  1
 91 92  1  0
 93 91  1  0
 96 97  1  0
 97 95  1  0
M  ISO  4   9 100  17 100  52 101  54 101
M  END
>  <TORSDO>  (32) 
F 23

>  <SCORE>  (32) 
-12.407

>  <name>  (32) 
32

>  <ligand_id>  (32) 
32

>  <original_smiles>  (32) 
[H]c1c([H])c([H])c2c(c1[H])C([H])([H])C([H])([H])C([H])([H])C2([H])N([H])C(=O)C1([H])N(C(=O)C([H])(N([H])C(=O)C([H])(N([H])C([H])([H])[H])C([H])([H])[H])C(C([H])([H])[H])(C([H])([H])[H])C([H])([H])[H])C([H])([H])c2c([H])c(OC(=O)C([H])(C([H])([H])[H])[N+]([H])([H])C([H])(C(=O)N([H])C([H])([H])C([H])(N([H])C(=O)N3C([H])([H])C([H])([H])C([H])([H])C([H])(n4nc(-c5c([H])c([H])c(Oc6c([H])c([H])c(F)c([H])c6F)c([H])c5[H])c(C(=O)N([H])[H])c4N([H])[H])C3([H])[H])C([H])([H])[H])C([H])(C([H])([H])[H])C([H])([H])[H])c([H])c([H])c2C1([H])[H]

>  <smiles>  (32) 
[H]c1c([H])c([H])c2c(c1[H])C([H])([H])C([H])([H])C([H])([H])C2([H])N([H])C(=O)C1([H])N(C(=O)C([H])(N([H])C(=O)C([H])(N([H])C([H])([H])[H])C([H])([H])[H])C(C([H])([H])[H])(C([H])([H])[H])C([H])([H])[H])C([H])([H])c2c([H])c(OC(=O)C([H])(C([H])([H])[H])[N+]([H])([H])C([H])(C(=O)N([H])C([H])([H])C([H])(N([H])C(=O)N3C([H])([H])C([H])([H])C([H])([H])C([H])(n4nc(-c5c([H])c([H])c(Oc6c([H])c([H])c(F)c([H])c6F)c([H])c5[H])c(C(=O)N([H])[H])c4N([H])[H])C3([H])[H])C([H])([H])[H])C([H])(C([H])([H])[H])C([H])([H])[H])c([H])c([H])c2C1([H])[H]

$$$$
33:0:0
     RDKit          3D

102109  0  0  1  0  0  0  0  0999 V2000
  -27.0720  -20.3020   19.6350 C   0  0  0  0  0  3  0  0  0  0  0  0
  -28.5310  -19.7810   19.6970 C   0  0  0  0  0  0  0  0  0  0  0  0
  -28.7750  -18.5630   19.1950 N   0  0  0  0  0  0  0  0  0  0  0  0
  -29.4210  -20.4830   20.1820 O   0  0  0  0  0  0  0  0  0  0  0  0
  -27.9860  -18.0870   18.7820 H   0  0  0  0  0  0  0  0  0  0  0  0
  -30.0520  -16.9580   17.8380 C   0  0  0  0  0  1  0  0  0  0  0  0
  -30.0950  -17.9880   18.9800 C   0  0  0  0  0  3  0  0  0  0  0  0
  -30.9980  -15.0560   21.1050 C   0  0  0  0  0  0  0  0  0  0  0  0
  -30.8770  -12.7650   20.2710 C   0  0  0  0  0  2  0  0  0  0  0  0
  -30.1260  -12.8120   18.9240 C   0  0  0  0  0  2  0  0  0  0  0  0
  -28.6040  -12.6950   19.1490 C   0  0  0  0  0  2  0  0  0  0  0  0
  -28.0700  -13.6650   20.2360 C   0  0  0  0  0  3  0  0  0  0  0  0
  -28.9610  -13.6420   21.5030 C   0  0  0  0  0  2  0  0  0  0  0  0
  -30.3530  -13.8640   21.0870 N   0  0  0  0  0  0  0  0  0  0  0  0
  -32.2230  -15.1930   21.0680 O   0  0  0  0  0  0  0  0  0  0  0  0
  -30.6780  -17.3550   20.2240 C   0  0  0  0  0  0  0  0  0  0  0  0
  -30.2020  -16.1450   20.6160 N   0  0  0  0  0  0  0  0  0  0  0  0
  -31.6680  -18.0290   20.8500 N   0  0  0  0  0  4  0  0  0  0  0  0
  -29.2380  -15.9950   20.3750 H   0  0  0  0  0  0  0  0  0  0  0  0
  -31.9470  -18.9450   20.5280 H   0  0  0  0  0  0  0  0  0  0  0  0
  -32.1700  -17.6460   21.6380 H   0  0  0  0  0  0  0  0  0  0  0  0
  -25.6180  -14.3130   20.6530 C   0  0  0  0  0  0  0  0  0  0  0  0
  -24.4980  -13.5610   20.8780 C   0  0  0  0  0  0  0  0  0  0  0  0
  -24.9380  -12.2030   20.8980 C   0  0  0  0  0  0  0  0  0  0  0  0
  -26.6670  -13.4150   20.5480 N   0  0  0  0  0  0  0  0  0  0  0  0
  -26.2560  -12.1390   20.7570 N   0  0  0  0  0  0  0  0  0  0  0  0
  -24.1720  -10.9540   20.9820 C   0  0  0  0  0  0  0  0  0  0  0  0
  -24.5340   -9.9260   21.8790 C   0  0  0  0  0  3  0  0  0  0  0  0
  -23.7710   -8.7410   21.9560 C   0  0  0  0  0  3  0  0  0  0  0  0
  -22.6330   -8.5770   21.1310 C   0  0  0  0  0  0  0  0  0  0  0  0
  -22.2910   -9.5930   20.2210 C   0  0  0  0  0  3  0  0  0  0  0  0
  -23.0550  -10.7690   20.1430 C   0  0  0  0  0  3  0  0  0  0  0  0
  -21.8480   -7.4500   21.1190 O   0  0  0  0  0  0  0  0  0  0  0  0
  -21.7820   -6.6070   22.1980 C   0  0  0  0  0  0  0  0  0  0  0  0
  -21.3610   -7.0560   23.4690 C   0  0  0  0  0  3  0  0  0  0  0  0
  -21.2400   -6.1420   24.5340 C   0  0  0  0  0  3  0  0  0  0  0  0
  -21.5350   -4.7800   24.3320 C   0  0  0  0  0  0  0  0  0  0  0  0
  -21.9510   -4.3300   23.0650 C   0  0  0  0  0  3  0  0  0  0  0  0
  -22.0720   -5.2420   22.0010 C   0  0  0  0  0  0  0  0  0  0  0  0
  -22.4530   -4.7990   20.7790 F   0  0  0  0  0  0  0  0  0  0  0  0
  -21.4110   -3.9020   25.3520 F   0  0  0  0  0  0  0  0  0  0  0  0
  -23.0860  -14.0640   20.9680 C   0  0  0  0  0  0  0  0  0  0  0  0
  -22.2450  -13.3910   21.7470 N   0  0  0  0  0  0  0  0  0  0  0  0
  -22.7330  -15.0890   20.3870 O   0  0  0  0  0  0  0  0  0  0  0  0
  -22.5420  -12.5620   22.2400 H   0  0  0  0  0  0  0  0  0  0  0  0
  -21.2930  -13.7120   21.8530 H   0  0  0  0  0  0  0  0  0  0  0  0
  -25.8210  -15.6800   20.5090 N   0  0  0  0  0  0  0  0  0  0  0  0
  -25.0390  -16.3240   20.5180 H   0  0  0  0  0  0  0  0  0  0  0  0
  -26.6850  -16.1240   20.2450 H   0  0  0  0  0  0  0  0  0  0  0  0
  -25.1790  -18.5900   19.5070 C   0  0  0  0  0  2  0  0  0  0  0  0
  -26.1090  -19.3550   18.9160 C   0  0  0  0  0  3  0  0  0  0  0  0
  -26.9040  -21.7540   19.0550 C   0  0  0  0  0  3  0  0  0  0  0  0
  -24.8660  -23.0700   18.1300 C   0  0  0  0  0  1  0  0  0  0  0  0
  -25.3900  -23.2180   20.5840 C   0  0  0  0  0  1  0  0  0  0  0  0
  -25.4750  -22.3300   19.3280 C   0  0  0  0  0  3  0  0  0  0  0  0
  -27.9440  -22.7180   19.5070 N   0  0  0  0  0  4  0  0  0  0  0  0
  -27.6150  -23.1710   20.3460 H   0  0  0  0  0  0  0  0  0  0  0  0
  -28.7590  -22.1610   19.7520 H   0  0  0  0  0  0  0  0  0  0  0  0
  -28.3790  -23.7110   18.4860 C   0  0  0  0  0  2  0  0  0  0  0  0
  -29.2850  -24.8250   19.0480 C   0  0  0  0  0  2  0  0  0  0  0  0
  -28.6310  -25.7220   20.1190 C   0  0  0  0  0  2  0  0  0  0  0  0
  -28.6270  -27.0960   19.7220 O   0  0  0  0  0  0  0  0  0  0  0  0
  -24.5370  -31.7930   23.1460 C   0  0  0  0  0  0  0  0  0  0  0  0
  -27.4110  -27.7390   19.7730 C   0  0  0  0  0  0  0  0  0  0  0  0
  -23.4060  -30.4560   21.3980 C   0  0  0  0  0  3  0  0  0  0  0  0
  -24.9400  -29.0970   19.8790 C   0  0  0  0  0  0  0  0  0  0  0  0
  -25.9110  -30.9550   21.2440 C   0  0  0  0  0  2  0  0  0  0  0  0
  -26.0650  -29.6410   20.5120 C   0  0  0  0  0  0  0  0  0  0  0  0
  -27.3060  -28.9680   20.4570 C   0  0  0  0  0  3  0  0  0  0  0  0
  -26.2750  -27.2090   19.1260 C   0  0  0  0  0  3  0  0  0  0  0  0
  -25.0370  -27.8790   19.1840 C   0  0  0  0  0  3  0  0  0  0  0  0
  -23.6540  -29.8830   19.9780 C   0  0  0  0  0  2  0  0  0  0  0  0
  -24.6370  -31.0780   21.9890 N   0  0  0  0  0  0  0  0  0  0  0  0
  -23.4390  -31.9790   23.6910 O   0  0  0  0  0  0  0  0  0  0  0  0
  -22.8000  -29.3400   22.2770 C   0  0  0  0  0  0  0  0  0  0  0  0
  -21.4800  -29.1280   22.1440 N   0  0  0  0  0  0  0  0  0  0  0  0
  -23.5100  -28.6720   23.0320 O   0  0  0  0  0  0  0  0  0  0  0  0
  -20.9670  -29.7250   21.5110 H   0  0  0  0  0  0  0  0  0  0  0  0
  -18.1440  -27.8120   22.5780 C   0  0  0  0  0  0  0  0  0  0  0  0
  -20.6990  -28.1060   22.8380 C   0  0  0  0  0  3  0  0  0  0  0  0
  -20.8260  -26.7350   22.1360 C   0  0  0  0  0  2  0  0  0  0  0  0
  -19.7170  -26.4750   21.1120 C   0  0  0  0  0  2  0  0  0  0  0  0
  -18.3420  -26.5310   21.7840 C   0  0  0  0  0  2  0  0  0  0  0  0
  -19.2510  -28.5600   23.0580 C   0  0  0  0  0  0  0  0  0  0  0  0
  -19.0130  -29.7610   23.7590 C   0  0  0  0  0  3  0  0  0  0  0  0
  -17.7000  -30.2160   23.9840 C   0  0  0  0  0  3  0  0  0  0  0  0
  -16.6080  -29.4640   23.5210 C   0  0  0  0  0  3  0  0  0  0  0  0
  -16.8300  -28.2630   22.8240 C   0  0  0  0  0  3  0  0  0  0  0  0
  -25.7890  -32.4350   23.8200 C   0  0  0  0  0  3  0  0  0  0  0  0
  -26.2970  -31.6350   25.0810 C   0  0  1  0  0  0  0  0  0  0  0  0
  -25.1870  -31.3350   26.1140 C   0  0  0  0  0  1  0  0  0  0  0  0
  -26.9210  -30.2850   24.6520 C   0  0  0  0  0  1  0  0  0  0  0  0
  -27.4140  -32.4330   25.7930 C   0  0  0  0  0  1  0  0  0  0  0  0
  -25.4360  -33.8140   24.1850 N   0  0  0  0  0  0  0  0  0  0  0  0
  -25.7690  -34.8990   23.4730 C   0  0  0  0  0  0  0  0  0  0  0  0
  -26.4790  -34.8460   22.4640 O   0  0  0  0  0  0  0  0  0  0  0  0
  -24.8070  -33.9290   24.9670 H   0  0  0  0  0  0  0  0  0  0  0  0
  -24.0030  -36.6540   23.1260 C   0  0  0  0  0  1  0  0  0  0  0  0
  -25.2320  -36.2570   23.9580 C   0  0  0  0  0  3  0  0  0  0  0  0
  -27.3160  -37.1730   24.8810 C   0  0  0  0  0  1  0  0  0  0  0  0
  -26.2380  -37.3410   23.9080 N   0  0  0  0  0  0  0  0  0  0  0  0
  -25.8000  -38.2450   24.0700 H   0  0  0  0  0  0  0  0  0  0  0  0
  1 51  1  0
  1  2  1  0
  2  4  2  0
  3  2  1  0
  5  3  1  0
  7  6  1  0
  7  3  1  0
  7 16  1  0
  9 14  1  0
 10 11  1  0
 10  9  1  0
 12 11  1  0
 12 25  1  0
 12 13  1  0
 14  8  1  0
 14 13  1  0
 15  8  2  0
 16 17  1  0
 16 18  2  0
 17  8  1  0
 18 21  1  0
 19 17  1  0
 20 18  1  0
 22 23  2  0
 23 24  1  0
 23 42  1  0
 24 27  1  0
 25 22  1  0
 25 26  1  0
 26 24  2  0
 27 28  1  0
 28 29  2  0
 30 29  1  0
 31 30  2  0
 32 31  1  0
 32 27  2  0
 33 30  1  0
 33 34  1  0
 34 35  1  0
 35 36  2  0
 37 36  1  0
 37 41  1  0
 38 37  2  0
 39 34  2  0
 39 38  1  0
 40 39  1  0
 42 43  1  0
 43 46  1  0
 43 45  1  0
 44 42  2  0
 47 48  1  0
 47 22  1  0
 49 47  1  0
 51 50  2  0
 52 55  1  0
 52 56  1  0
 52  1  1  0
 53 55  1  0
 55 54  1  0
 56 58  1  0
 56 57  1  0
 59 60  1  0
 59 56  1  0
 60 61  1  0
 62 64  1  0
 62 61  1  0
 63 74  2  0
 64 69  1  0
 65 73  1  0
 65 75  1  0
 66 72  1  0
 66 68  1  0
 67 73  1  0
 68 67  1  0
 69 68  2  0
 70 71  1  0
 70 64  2  0
 71 66  2  0
 72 65  1  0
 73 63  1  0
 75 77  2  0
 76 75  1  0
 78 76  1  0
 79 88  2  0
 79 84  1  0
 80 76  1  0
 80 84  1  0
 81 80  1  0
 82 83  1  0
 82 81  1  0
 83 79  1  0
 84 85  2  0
 85 86  1  0
 87 86  2  0
 88 87  1  0
 89 63  1  0
 89 94  1  0
 89 90  1  0
 90 93  1  1
 90 91  1  0
 92 90  1  0
 94 97  1  0
 95 99  1  0
 95 94  1  0
 96 95  2  0
 99 98  1  0
101 99  1  0
101102  1  0
101100  1  0
M  ISO  4   8 100  17 100  61 101  62 101
M  END
>  <TORSDO>  (33) 
F 25

>  <SCORE>  (33) 
-9.713

>  <name>  (33) 
33

>  <ligand_id>  (33) 
33

>  <original_smiles>  (33) 
[H]C([H])=C([H])C([H])(C(=O)N([H])C([H])(C(N([H])C(=O)N1C([H])([H])C([H])([H])C([H])([H])C([H])(n2nc(-c3c([H])c([H])c(Oc4c([H])c([H])c(F)c([H])c4F)c([H])c3[H])c(C(=O)N([H])[H])c2N([H])[H])C1([H])[H])=[N+]([H])[H])C([H])([H])[H])C([H])(C([H])(C([H])([H])[H])C([H])([H])[H])[N+]([H])([H])C([H])([H])C([H])([H])C([H])([H])Oc1c([H])c([H])c2c(c1[H])C([H])([H])N(C(=O)C([H])(N([H])C(=O)C([H])(N([H])C([H])([H])[H])C([H])([H])[H])C(C([H])([H])[H])(C([H])([H])[H])C([H])([H])[H])C([H])(C(=O)N([H])C1([H])c3c([H])c([H])c([H])c([H])c3C([H])([H])C([H])([H])C1([H])[H])C2([H])[H]

>  <smiles>  (33) 
[H]C([H])=C([H])C([H])(C(=O)N([H])C([H])(C(N([H])C(=O)N1C([H])([H])C([H])([H])C([H])([H])C([H])(n2nc(-c3c([H])c([H])c(Oc4c([H])c([H])c(F)c([H])c4F)c([H])c3[H])c(C(=O)N([H])[H])c2N([H])[H])C1([H])[H])=[N+]([H])[H])C([H])([H])[H])C([H])(C([H])(C([H])([H])[H])C([H])([H])[H])[N+]([H])([H])C([H])([H])C([H])([H])C([H])([H])Oc1c([H])c([H])c2c(c1[H])C([H])([H])N(C(=O)C([H])(N([H])C(=O)C([H])(N([H])C([H])([H])[H])C([H])([H])[H])C(C([H])([H])[H])(C([H])([H])[H])C([H])([H])[H])C([H])(C(=O)N([H])C1([H])c3c([H])c([H])c([H])c([H])c3C([H])([H])C([H])([H])C1([H])[H])C2([H])[H]

$$$$
34:0:0
     RDKit          3D

 92101  0  0  1  0  0  0  0  0999 V2000
  -29.2980  -23.6160   19.8220 C   0  0  0  0  0  3  0  0  0  0  0  0
  -30.0560  -20.8380   19.6460 C   0  0  0  0  0  3  0  0  0  0  0  0
  -27.1760  -23.9340   20.8110 C   0  0  0  0  0  3  0  0  0  0  0  0
  -29.2280  -22.1140   19.9510 C   0  0  0  0  0  0  0  0  0  0  0  0
  -28.2830  -24.6310   20.2380 C   0  0  0  0  0  0  0  0  0  0  0  0
  -29.5620  -19.5250   20.0050 C   0  0  0  0  0  0  0  0  0  0  0  0
  -28.0190  -21.6920   20.5590 C   0  0  0  0  0  0  0  0  0  0  0  0
  -27.0200  -22.5670   20.9730 N   0  0  0  0  0  0  0  0  0  0  0  0
  -27.9720  -19.8610   20.7370 S   0  0  0  0  0  0  0  0  0  0  0  0
  -30.6650  -15.2880   19.8600 C   0  0  0  0  0  0  0  0  0  0  0  0
  -30.5610  -12.8860   18.9510 C   0  0  0  0  0  2  0  0  0  0  0  0
  -29.5570  -12.7320   17.7820 C   0  0  0  0  0  2  0  0  0  0  0  0
  -28.1370  -12.4680   18.3130 C   0  0  0  0  0  2  0  0  0  0  0  0
  -27.7670  -13.4050   19.4910 C   0  0  0  0  0  3  0  0  0  0  0  0
  -28.8900  -13.5130   20.5440 C   0  0  0  0  0  2  0  0  0  0  0  0
  -30.0830  -14.0000   19.8380 N   0  0  0  0  0  0  0  0  0  0  0  0
  -31.8660  -15.3240   19.5370 O   0  0  0  0  0  0  0  0  0  0  0  0
  -30.2740  -18.0780   19.9050 C   0  0  0  0  0  0  0  0  0  0  0  0
  -29.8710  -16.6720   20.0230 N   0  0  0  0  0  0  0  0  0  0  0  0
  -31.5800  -18.2560   19.6480 N   0  0  0  0  0  4  0  0  0  0  0  0
  -28.8890  -16.6270   20.2320 H   0  0  0  0  0  0  0  0  0  0  0  0
  -31.9500  -19.1910   19.5920 H   0  0  0  0  0  0  0  0  0  0  0  0
  -32.2060  -17.4710   19.5220 H   0  0  0  0  0  0  0  0  0  0  0  0
  -25.4580  -13.9340   20.4410 C   0  0  0  0  0  0  0  0  0  0  0  0
  -24.4280  -13.1400   20.8600 C   0  0  0  0  0  0  0  0  0  0  0  0
  -24.8910  -11.7930   20.7390 C   0  0  0  0  0  0  0  0  0  0  0  0
  -26.4790  -13.0710   20.0830 N   0  0  0  0  0  0  0  0  0  0  0  0
  -26.1550  -11.7750   20.3300 N   0  0  0  0  0  0  0  0  0  0  0  0
  -24.1810  -10.5230   20.9290 C   0  0  0  0  0  0  0  0  0  0  0  0
  -24.6260   -9.5580   21.8600 C   0  0  0  0  0  3  0  0  0  0  0  0
  -23.9120   -8.3530   22.0400 C   0  0  0  0  0  3  0  0  0  0  0  0
  -22.7380   -8.1050   21.2890 C   0  0  0  0  0  0  0  0  0  0  0  0
  -22.3130   -9.0570   20.3460 C   0  0  0  0  0  3  0  0  0  0  0  0
  -23.0270  -10.2530   20.1640 C   0  0  0  0  0  3  0  0  0  0  0  0
  -21.9950   -6.9530   21.3780 O   0  0  0  0  0  0  0  0  0  0  0  0
  -21.8810   -6.2600   22.5560 C   0  0  0  0  0  0  0  0  0  0  0  0
  -21.3350   -6.8500   23.7170 C   0  0  0  0  0  3  0  0  0  0  0  0
  -21.1720   -6.0810   24.8880 C   0  0  0  0  0  3  0  0  0  0  0  0
  -21.5440   -4.7240   24.8960 C   0  0  0  0  0  0  0  0  0  0  0  0
  -22.0830   -4.1340   23.7390 C   0  0  0  0  0  3  0  0  0  0  0  0
  -22.2480   -4.8990   22.5720 C   0  0  0  0  0  0  0  0  0  0  0  0
  -22.7470   -4.3200   21.4530 F   0  0  0  0  0  0  0  0  0  0  0  0
  -21.3800   -3.9830   26.0170 F   0  0  0  0  0  0  0  0  0  0  0  0
  -23.0540  -13.6020   21.2490 C   0  0  0  0  0  0  0  0  0  0  0  0
  -22.3930  -12.8750   22.1420 N   0  0  0  0  0  0  0  0  0  0  0  0
  -22.5800  -14.6420   20.7960 O   0  0  0  0  0  0  0  0  0  0  0  0
  -22.7930  -12.0320   22.5280 H   0  0  0  0  0  0  0  0  0  0  0  0
  -21.4730  -13.1640   22.4430 H   0  0  0  0  0  0  0  0  0  0  0  0
  -25.6010  -15.3110   20.3010 N   0  0  0  0  0  0  0  0  0  0  0  0
  -24.8210  -15.9370   20.4720 H   0  0  0  0  0  0  0  0  0  0  0  0
  -26.3570  -15.7550   19.7990 H   0  0  0  0  0  0  0  0  0  0  0  0
  -28.3780  -26.1400   20.1860 O   0  0  0  0  0  0  0  0  0  0  0  0
  -24.7220  -31.9070   23.2640 C   0  0  0  0  0  0  0  0  0  0  0  0
  -27.3190  -27.1580   20.1920 C   0  0  0  0  0  0  0  0  0  0  0  0
  -23.5410  -30.5390   21.5890 C   0  0  0  0  0  3  0  0  0  0  0  0
  -25.0040  -28.9700   20.1560 C   0  0  0  0  0  0  0  0  0  0  0  0
  -26.1020  -30.7790   21.4640 C   0  0  0  0  0  2  0  0  0  0  0  0
  -26.1790  -29.3860   20.7930 C   0  0  0  0  0  0  0  0  0  0  0  0
  -27.3330  -28.4960   20.7940 C   0  0  0  0  0  3  0  0  0  0  0  0
  -26.1200  -26.8720   19.5050 C   0  0  0  0  0  3  0  0  0  0  0  0
  -24.9920  -27.7300   19.4950 C   0  0  0  0  0  3  0  0  0  0  0  0
  -23.7810  -29.8800   20.2030 C   0  0  0  0  0  2  0  0  0  0  0  0
  -24.8080  -31.0990   22.1610 N   0  0  0  0  0  0  0  0  0  0  0  0
  -23.6290  -32.1850   23.7830 O   0  0  0  0  0  0  0  0  0  0  0  0
  -22.8470  -29.5220   22.5300 C   0  0  0  0  0  0  0  0  0  0  0  0
  -21.5210  -29.3480   22.3830 N   0  0  0  0  0  0  0  0  0  0  0  0
  -23.5070  -28.8890   23.3580 O   0  0  0  0  0  0  0  0  0  0  0  0
  -21.0420  -29.9110   21.6910 H   0  0  0  0  0  0  0  0  0  0  0  0
  -18.1340  -28.1350   22.8400 C   0  0  0  0  0  0  0  0  0  0  0  0
  -20.6920  -28.3960   23.1290 C   0  0  0  0  0  3  0  0  0  0  0  0
  -20.7990  -26.9760   22.5280 C   0  0  0  0  0  2  0  0  0  0  0  0
  -19.7050  -26.6720   21.4980 C   0  0  0  0  0  2  0  0  0  0  0  0
  -18.3180  -26.8010   22.1350 C   0  0  0  0  0  2  0  0  0  0  0  0
  -19.2490  -28.8910   23.2920 C   0  0  0  0  0  0  0  0  0  0  0  0
  -19.0230  -30.1380   23.9130 C   0  0  0  0  0  3  0  0  0  0  0  0
  -17.7150  -30.6310   24.0850 C   0  0  0  0  0  3  0  0  0  0  0  0
  -16.6150  -29.8720   23.6460 C   0  0  0  0  0  3  0  0  0  0  0  0
  -16.8260  -28.6260   23.0310 C   0  0  0  0  0  3  0  0  0  0  0  0
  -25.9900  -32.5370   23.9170 C   0  0  0  0  0  3  0  0  0  0  0  0
  -25.6810  -33.9390   24.2430 N   0  0  0  0  0  0  0  0  0  0  0  0
  -25.9990  -34.9920   23.4790 C   0  0  0  0  0  0  0  0  0  0  0  0
  -26.6480  -34.8850   22.4350 O   0  0  0  0  0  0  0  0  0  0  0  0
  -25.1020  -34.0950   25.0560 H   0  0  0  0  0  0  0  0  0  0  0  0
  -24.2440  -36.7750   23.1900 C   0  0  0  0  0  1  0  0  0  0  0  0
  -25.5250  -36.3840   23.9450 C   0  0  0  0  0  3  0  0  0  0  0  0
  -27.6850  -37.3010   24.6730 C   0  0  0  0  0  1  0  0  0  0  0  0
  -26.5430  -37.4430   23.7720 N   0  0  0  0  0  0  0  0  0  0  0  0
  -26.1360  -38.3630   23.9180 H   0  0  0  0  0  0  0  0  0  0  0  0
  -26.4670  -31.7670   25.2110 C   0  0  1  0  0  0  0  0  0  0  0  0
  -25.3440  -31.5440   26.2520 C   0  0  0  0  0  1  0  0  0  0  0  0
  -27.0490  -30.3820   24.8480 C   0  0  0  0  0  1  0  0  0  0  0  0
  -27.6070  -32.5550   25.8990 C   0  0  0  0  0  1  0  0  0  0  0  0
  1  4  2  0
  1  5  1  0
  2  4  1  0
  2  6  2  0
  3  8  1  0
  4  7  1  0
  5  3  2  0
  6  9  1  0
  7  9  1  0
  7  8  2  0
 10 19  1  0
 11 16  1  0
 12 13  1  0
 12 11  1  0
 14 13  1  0
 14 27  1  0
 14 15  1  0
 16 10  1  0
 16 15  1  0
 17 10  2  0
 18  6  1  0
 18 19  1  0
 19 21  1  0
 20 18  2  0
 22 20  1  0
 23 20  1  0
 24 25  2  0
 25 44  1  0
 26 25  1  0
 26 29  1  0
 27 28  1  0
 27 24  1  0
 28 26  2  0
 29 30  1  0
 30 31  2  0
 32 35  1  0
 32 31  1  0
 33 32  2  0
 34 33  1  0
 34 29  2  0
 35 36  1  0
 36 41  2  0
 36 37  1  0
 37 38  2  0
 38 39  1  0
 39 43  1  0
 40 39  2  0
 41 40  1  0
 42 41  1  0
 44 45  1  0
 45 48  1  0
 45 47  1  0
 46 44  2  0
 49 24  1  0
 49 50  1  0
 51 49  1  0
 52 54  1  0
 52  5  1  0
 53 64  2  0
 54 59  1  0
 55 63  1  0
 55 65  1  0
 56 62  1  0
 56 58  1  0
 57 63  1  0
 58 59  2  0
 58 57  1  0
 60 54  2  0
 61 60  1  0
 61 56  2  0
 62 55  1  0
 63 53  1  0
 65 67  2  0
 66 65  1  0
 68 66  1  0
 69 78  2  0
 69 74  1  0
 70 66  1  0
 70 74  1  0
 71 70  1  0
 72 73  1  0
 72 71  1  0
 73 69  1  0
 74 75  2  0
 75 76  1  0
 77 76  2  0
 78 77  1  0
 79 53  1  0
 79 80  1  0
 79 89  1  0
 80 83  1  0
 81 85  1  0
 81 80  1  0
 82 81  2  0
 85 84  1  0
 87 88  1  0
 87 85  1  0
 87 86  1  0
 89 92  1  1
 89 90  1  0
 91 89  1  0
M  ISO  4   5 101  10 100  19 100  52 101
M  END
>  <TORSDO>  (34) 
F 16

>  <SCORE>  (34) 
-14.729

>  <name>  (34) 
34

>  <ligand_id>  (34) 
34

>  <original_smiles>  (34) 
[H]c1nc2sc(C(N([H])C(=O)N3C([H])([H])C([H])([H])C([H])([H])C([H])(n4nc(-c5c([H])c([H])c(Oc6c([H])c([H])c(F)c([H])c6F)c([H])c5[H])c(C(=O)N([H])[H])c4N([H])[H])C3([H])[H])=[N+]([H])[H])c([H])c2c([H])c1Oc1c([H])c([H])c2c(c1[H])C([H])([H])N(C(=O)C([H])(N([H])C(=O)C([H])(N([H])C([H])([H])[H])C([H])([H])[H])C(C([H])([H])[H])(C([H])([H])[H])C([H])([H])[H])C([H])(C(=O)N([H])C1([H])c3c([H])c([H])c([H])c([H])c3C([H])([H])C([H])([H])C1([H])[H])C2([H])[H]

>  <smiles>  (34) 
[H]c1nc2sc(C(N([H])C(=O)N3C([H])([H])C([H])([H])C([H])([H])C([H])(n4nc(-c5c([H])c([H])c(Oc6c([H])c([H])c(F)c([H])c6F)c([H])c5[H])c(C(=O)N([H])[H])c4N([H])[H])C3([H])[H])=[N+]([H])[H])c([H])c2c([H])c1Oc1c([H])c([H])c2c(c1[H])C([H])([H])N(C(=O)C([H])(N([H])C(=O)C([H])(N([H])C([H])([H])[H])C([H])([H])[H])C(C([H])([H])[H])(C([H])([H])[H])C([H])([H])[H])C([H])(C(=O)N([H])C1([H])c3c([H])c([H])c([H])c([H])c3C([H])([H])C([H])([H])C1([H])[H])C2([H])[H]

$$$$
35:0:0
     RDKit          3D

 92 99  0  0  1  0  0  0  0  0999 V2000
  -29.9420  -18.8210   20.6660 C   0  0  0  0  0  0  0  0  0  0  0  0
  -29.0470  -19.7880   20.2280 N   0  0  0  0  0  0  0  0  0  0  0  0
  -30.7580  -19.0780   21.5510 O   0  0  0  0  0  0  0  0  0  0  0  0
  -28.3400  -19.3950   19.6210 H   0  0  0  0  0  0  0  0  0  0  0  0
  -29.1670  -21.3070   20.0380 C   0  0  0  0  0  2  0  0  0  0  0  0
  -28.4650  -22.3750   21.0170 C   0  0  0  0  0  2  0  0  0  0  0  0
  -27.7070  -23.7550   20.5680 C   0  0  0  0  0  2  0  0  0  0  0  0
  -28.3560  -25.0510   19.8620 C   0  0  0  0  0  2  0  0  0  0  0  0
  -28.2300  -26.4600   20.3620 O   0  0  0  0  0  0  0  0  0  0  0  0
  -24.5290  -31.9210   23.2710 C   0  0  0  0  0  0  0  0  0  0  0  0
  -27.1040  -27.3020   20.2450 C   0  0  0  0  0  0  0  0  0  0  0  0
  -23.3160  -30.5270   21.6330 C   0  0  0  0  0  3  0  0  0  0  0  0
  -24.7540  -28.9540   20.2050 C   0  0  0  0  0  0  0  0  0  0  0  0
  -25.8580  -30.8150   21.4550 C   0  0  0  0  0  2  0  0  0  0  0  0
  -25.9230  -29.4330   20.8060 C   0  0  0  0  0  0  0  0  0  0  0  0
  -27.0950  -28.6190   20.8120 C   0  0  0  0  0  3  0  0  0  0  0  0
  -25.9160  -26.8780   19.6120 C   0  0  0  0  0  3  0  0  0  0  0  0
  -24.7570  -27.6870   19.5940 C   0  0  0  0  0  3  0  0  0  0  0  0
  -23.5230  -29.8400   20.2550 C   0  0  0  0  0  2  0  0  0  0  0  0
  -24.5860  -31.1080   22.1750 N   0  0  0  0  0  0  0  0  0  0  0  0
  -23.4490  -32.2110   23.8060 O   0  0  0  0  0  0  0  0  0  0  0  0
  -22.6420  -29.5230   22.5990 C   0  0  0  0  0  0  0  0  0  0  0  0
  -21.3150  -29.3500   22.4660 N   0  0  0  0  0  0  0  0  0  0  0  0
  -23.3130  -28.9010   23.4260 O   0  0  0  0  0  0  0  0  0  0  0  0
  -20.8350  -29.9010   21.7680 H   0  0  0  0  0  0  0  0  0  0  0  0
  -17.9310  -28.1670   22.9450 C   0  0  0  0  0  0  0  0  0  0  0  0
  -20.4880  -28.4210   23.2360 C   0  0  0  0  0  3  0  0  0  0  0  0
  -20.5920  -26.9860   22.6700 C   0  0  0  0  0  2  0  0  0  0  0  0
  -19.4970  -26.6590   21.6490 C   0  0  0  0  0  2  0  0  0  0  0  0
  -18.1100  -26.8120   22.2780 C   0  0  0  0  0  2  0  0  0  0  0  0
  -19.0480  -28.9280   23.3790 C   0  0  0  0  0  0  0  0  0  0  0  0
  -18.8260  -30.1970   23.9590 C   0  0  0  0  0  3  0  0  0  0  0  0
  -17.5210  -30.7010   24.1110 C   0  0  0  0  0  3  0  0  0  0  0  0
  -16.4180  -29.9350   23.6940 C   0  0  0  0  0  3  0  0  0  0  0  0
  -16.6250  -28.6690   23.1170 C   0  0  0  0  0  3  0  0  0  0  0  0
  -25.8170  -32.5430   23.8960 C   0  0  0  0  0  3  0  0  0  0  0  0
  -25.5290  -33.9520   24.2010 N   0  0  0  0  0  0  0  0  0  0  0  0
  -25.8930  -34.9900   23.4340 C   0  0  0  0  0  0  0  0  0  0  0  0
  -26.5760  -34.8580   22.4140 O   0  0  0  0  0  0  0  0  0  0  0  0
  -24.9250  -34.1280   24.9910 H   0  0  0  0  0  0  0  0  0  0  0  0
  -24.2120  -36.8130   23.0230 C   0  0  0  0  0  1  0  0  0  0  0  0
  -25.4270  -36.3940   23.8660 C   0  0  0  0  0  3  0  0  0  0  0  0
  -27.5600  -37.2460   24.7370 C   0  0  0  0  0  1  0  0  0  0  0  0
  -26.4850  -37.4220   23.7620 N   0  0  0  0  0  0  0  0  0  0  0  0
  -26.0970  -38.3540   23.8820 H   0  0  0  0  0  0  0  0  0  0  0  0
  -26.3060  -31.7880   25.1930 C   0  0  1  0  0  0  0  0  0  0  0  0
  -25.1970  -31.5880   26.2510 C   0  0  0  0  0  1  0  0  0  0  0  0
  -26.8710  -30.3950   24.8340 C   0  0  0  0  0  1  0  0  0  0  0  0
  -27.4630  -32.5760   25.8500 C   0  0  0  0  0  1  0  0  0  0  0  0
  -30.0360  -17.3960   19.9090 C   0  0  0  0  0  0  0  0  0  0  0  0
  -30.8740  -14.9160   20.6690 C   0  0  0  0  0  0  0  0  0  0  0  0
  -30.7630  -12.5890   19.7660 C   0  0  0  0  0  2  0  0  0  0  0  0
  -29.8890  -12.5720   18.4890 C   0  0  0  0  0  2  0  0  0  0  0  0
  -28.3970  -12.4300   18.8420 C   0  0  0  0  0  2  0  0  0  0  0  0
  -27.9500  -13.3680   19.9940 C   0  0  0  0  0  3  0  0  0  0  0  0
  -28.9450  -13.3340   21.1760 C   0  0  0  0  0  2  0  0  0  0  0  0
  -30.2720  -13.6750   20.6460 N   0  0  0  0  0  0  0  0  0  0  0  0
  -32.0860  -15.0020   20.4700 O   0  0  0  0  0  0  0  0  0  0  0  0
  -30.0290  -16.0170   20.6110 N   0  0  0  0  0  4  0  0  0  0  0  0
  -29.1040  -15.7780   20.9260 H   0  0  0  0  0  0  0  0  0  0  0  0
  -25.5280  -13.9740   20.5900 C   0  0  0  0  0  0  0  0  0  0  0  0
  -24.4420  -13.2060   20.9130 C   0  0  0  0  0  0  0  0  0  0  0  0
  -24.9050  -11.8540   20.9260 C   0  0  0  0  0  0  0  0  0  0  0  0
  -26.5820  -13.0890   20.4190 N   0  0  0  0  0  0  0  0  0  0  0  0
  -26.2100  -11.8120   20.6920 N   0  0  0  0  0  0  0  0  0  0  0  0
  -24.1680  -10.5940   21.0940 C   0  0  0  0  0  0  0  0  0  0  0  0
  -24.5460   -9.6410   22.0660 C   0  0  0  0  0  3  0  0  0  0  0  0
  -23.8110   -8.4470   22.2220 C   0  0  0  0  0  3  0  0  0  0  0  0
  -22.6830   -8.1960   21.4050 C   0  0  0  0  0  0  0  0  0  0  0  0
  -22.3240   -9.1380   20.4240 C   0  0  0  0  0  3  0  0  0  0  0  0
  -23.0600  -10.3230   20.2660 C   0  0  0  0  0  3  0  0  0  0  0  0
  -21.9240   -7.0520   21.4670 O   0  0  0  0  0  0  0  0  0  0  0  0
  -21.8080   -6.3280   22.6270 C   0  0  0  0  0  0  0  0  0  0  0  0
  -21.3010   -6.8990   23.8150 C   0  0  0  0  0  3  0  0  0  0  0  0
  -21.1330   -6.0990   24.9630 C   0  0  0  0  0  3  0  0  0  0  0  0
  -21.4630   -4.7320   24.9240 C   0  0  0  0  0  0  0  0  0  0  0  0
  -21.9640   -4.1610   23.7410 C   0  0  0  0  0  3  0  0  0  0  0  0
  -22.1350   -4.9580   22.5940 C   0  0  0  0  0  0  0  0  0  0  0  0
  -22.5980   -4.3980   21.4510 F   0  0  0  0  0  0  0  0  0  0  0  0
  -21.2960   -3.9620   26.0250 F   0  0  0  0  0  0  0  0  0  0  0  0
  -23.0320  -13.6870   21.0930 C   0  0  0  0  0  0  0  0  0  0  0  0
  -22.2540  -13.0130   21.9320 N   0  0  0  0  0  0  0  0  0  0  0  0
  -22.6230  -14.7000   20.5250 O   0  0  0  0  0  0  0  0  0  0  0  0
  -22.5970  -12.1980   22.4190 H   0  0  0  0  0  0  0  0  0  0  0  0
  -21.3040  -13.3170   22.0910 H   0  0  0  0  0  0  0  0  0  0  0  0
  -25.7010  -15.3410   20.3960 N   0  0  0  0  0  0  0  0  0  0  0  0
  -24.9190  -15.9840   20.4380 H   0  0  0  0  0  0  0  0  0  0  0  0
  -26.5460  -15.7680   20.0430 H   0  0  0  0  0  0  0  0  0  0  0  0
  -30.2780  -18.4530   17.5610 C   0  0  0  0  0  1  0  0  0  0  0  0
  -30.9780  -16.1160   17.8390 C   0  0  0  0  0  1  0  0  0  0  0  0
  -32.3490  -17.9660   18.8420 C   0  0  0  0  0  1  0  0  0  0  0  0
  -30.9070  -17.4690   18.5810 C   0  0  2  0  0  0  0  0  0  0  0  0
  1  3  2  0
  2  1  1  0
  4  2  1  0
  5  2  1  0
  5  6  1  0
  7  6  1  0
  8  9  1  0
  8  7  1  0
 10 21  2  0
 11  9  1  0
 11 16  1  0
 12 20  1  0
 12 22  1  0
 13 19  1  0
 13 15  1  0
 14 20  1  0
 15 16  2  0
 15 14  1  0
 17 11  2  0
 18 17  1  0
 18 13  2  0
 19 12  1  0
 20 10  1  0
 22 24  2  0
 23 22  1  0
 25 23  1  0
 26 35  2  0
 26 31  1  0
 27 23  1  0
 27 31  1  0
 28 27  1  0
 29 30  1  0
 29 28  1  0
 30 26  1  0
 31 32  2  0
 32 33  1  0
 34 33  2  0
 35 34  1  0
 36 10  1  0
 36 37  1  0
 36 46  1  0
 37 40  1  0
 38 42  1  0
 38 37  1  0
 39 38  2  0
 42 41  1  0
 44 42  1  0
 44 45  1  0
 44 43  1  0
 46 49  1  1
 46 47  1  0
 48 46  1  0
 50 59  2  0
 50  1  1  0
 52 57  1  0
 53 54  1  0
 53 52  1  0
 55 54  1  0
 55 64  1  0
 55 56  1  0
 57 51  1  0
 57 56  1  0
 58 51  2  0
 59 51  1  0
 59 60  1  0
 61 62  2  0
 62 63  1  0
 62 81  1  0
 63 66  1  0
 64 61  1  0
 64 65  1  0
 65 63  2  0
 66 67  1  0
 67 68  2  0
 69 72  1  0
 69 68  1  0
 70 69  2  0
 71 70  1  0
 71 66  2  0
 72 73  1  0
 73 74  1  0
 74 75  2  0
 76 75  1  0
 76 80  1  0
 77 76  2  0
 78 73  2  0
 78 77  1  0
 79 78  1  0
 81 82  1  0
 82 85  1  0
 82 84  1  0
 83 81  2  0
 86 87  1  0
 86 61  1  0
 88 86  1  0
 92 89  1  6
 90 92  1  0
 92 91  1  0
 92 50  1  0
M  ISO  4   8 101   9 101  51 100  59 100
M  END
>  <TORSDO>  (35) 
F 22

>  <SCORE>  (35) 
-12.693

>  <name>  (35) 
35

>  <ligand_id>  (35) 
35

>  <original_smiles>  (35) 
[H]c1c([H])c([H])c2c(c1[H])C([H])([H])C([H])([H])C([H])([H])C2([H])N([H])C(=O)C1([H])N(C(=O)C([H])(N([H])C(=O)C([H])(N([H])C([H])([H])[H])C([H])([H])[H])C(C([H])([H])[H])(C([H])([H])[H])C([H])([H])[H])C([H])([H])c2c([H])c(OC([H])([H])C([H])([H])C([H])([H])C([H])([H])N([H])C(=O)C([H])(N([H])C(=O)N3C([H])([H])C([H])([H])C([H])([H])C([H])(n4nc(-c5c([H])c([H])c(Oc6c([H])c([H])c(F)c([H])c6F)c([H])c5[H])c(C(=O)N([H])[H])c4N([H])[H])C3([H])[H])C(C([H])([H])[H])(C([H])([H])[H])C([H])([H])[H])c([H])c([H])c2C1([H])[H]

>  <smiles>  (35) 
[H]c1c([H])c([H])c2c(c1[H])C([H])([H])C([H])([H])C([H])([H])C2([H])N([H])C(=O)C1([H])N(C(=O)C([H])(N([H])C(=O)C([H])(N([H])C([H])([H])[H])C([H])([H])[H])C(C([H])([H])[H])(C([H])([H])[H])C([H])([H])[H])C([H])([H])c2c([H])c(OC([H])([H])C([H])([H])C([H])([H])C([H])([H])N([H])C(=O)C([H])(N([H])C(=O)N3C([H])([H])C([H])([H])C([H])([H])C([H])(n4nc(-c5c([H])c([H])c(Oc6c([H])c([H])c(F)c([H])c6F)c([H])c5[H])c(C(=O)N([H])[H])c4N([H])[H])C3([H])[H])C(C([H])([H])[H])(C([H])([H])[H])C([H])([H])[H])c([H])c([H])c2C1([H])[H]

$$$$
36:0:0
     RDKit          3D

 95102  0  0  1  0  0  0  0  0999 V2000
  -29.3360  -23.0240   20.8730 C   0  0  0  0  0  3  0  0  0  0  0  0
  -30.3990  -23.2160   21.8810 N   0  0  0  0  0  4  0  0  0  0  0  0
  -31.2580  -23.4780   21.4310 H   0  0  0  0  0  0  0  0  0  0  0  0
  -30.5650  -22.3580   22.3750 H   0  0  0  0  0  0  0  0  0  0  0  0
  -30.1560  -23.9180   22.5540 H   0  0  0  0  0  0  0  0  0  0  0  0
  -29.6990  -21.8080   19.9830 C   0  0  0  0  0  0  0  0  0  0  0  0
  -29.9050  -20.6150   20.5770 N   0  0  0  0  0  0  0  0  0  0  0  0
  -29.8570  -21.9550   18.7680 O   0  0  0  0  0  0  0  0  0  0  0  0
  -29.6460  -20.4930   21.5480 H   0  0  0  0  0  0  0  0  0  0  0  0
  -31.8290  -19.4100   19.5730 C   0  0  0  0  0  1  0  0  0  0  0  0
  -30.3260  -19.3650   19.9160 C   0  0  0  0  0  3  0  0  0  0  0  0
  -29.9290  -18.1240   20.7530 C   0  0  0  0  0  0  0  0  0  0  0  0
  -30.4140  -16.9300   20.3810 N   0  0  0  0  0  0  0  0  0  0  0  0
  -29.1900  -18.2520   21.7330 O   0  0  0  0  0  0  0  0  0  0  0  0
  -31.0430  -16.8930   19.5870 H   0  0  0  0  0  0  0  0  0  0  0  0
  -30.1170  -15.6320   21.0020 C   0  0  0  0  0  2  0  0  0  0  0  0
  -30.7150  -14.4750   20.1620 C   0  0  0  0  0  0  0  0  0  0  0  0
  -30.3420  -12.3810   18.9070 C   0  0  0  0  0  2  0  0  0  0  0  0
  -29.3420  -12.6700   17.7650 C   0  0  0  0  0  2  0  0  0  0  0  0
  -27.8860  -12.5390   18.2610 C   0  0  0  0  0  2  0  0  0  0  0  0
  -27.6340  -13.3080   19.5850 C   0  0  0  0  0  3  0  0  0  0  0  0
  -28.7370  -12.9870   20.6180 C   0  0  0  0  0  2  0  0  0  0  0  0
  -30.0350  -13.3080   20.0070 N   0  0  0  0  0  0  0  0  0  0  0  0
  -31.7880  -14.6900   19.5850 O   0  0  0  0  0  0  0  0  0  0  0  0
  -25.2690  -13.9270   20.3950 C   0  0  0  0  0  0  0  0  0  0  0  0
  -24.2120  -13.1580   20.8020 C   0  0  0  0  0  0  0  0  0  0  0  0
  -24.6630  -11.8040   20.7400 C   0  0  0  0  0  0  0  0  0  0  0  0
  -26.2980  -13.0410   20.1130 N   0  0  0  0  0  0  0  0  0  0  0  0
  -25.9380  -11.7590   20.3760 N   0  0  0  0  0  0  0  0  0  0  0  0
  -23.9380  -10.5450   20.9520 C   0  0  0  0  0  0  0  0  0  0  0  0
  -24.3970   -9.5730   21.8680 C   0  0  0  0  0  3  0  0  0  0  0  0
  -23.6740   -8.3780   22.0670 C   0  0  0  0  0  3  0  0  0  0  0  0
  -22.4760   -8.1460   21.3490 C   0  0  0  0  0  0  0  0  0  0  0  0
  -22.0360   -9.1060   20.4190 C   0  0  0  0  0  3  0  0  0  0  0  0
  -22.7610  -10.2930   20.2200 C   0  0  0  0  0  3  0  0  0  0  0  0
  -21.7210   -7.0030   21.4570 O   0  0  0  0  0  0  0  0  0  0  0  0
  -21.6920   -6.2660   22.6140 C   0  0  0  0  0  0  0  0  0  0  0  0
  -21.3020   -6.8310   23.8470 C   0  0  0  0  0  3  0  0  0  0  0  0
  -21.2210   -6.0200   24.9970 C   0  0  0  0  0  3  0  0  0  0  0  0
  -21.5220   -4.6480   24.9140 C   0  0  0  0  0  0  0  0  0  0  0  0
  -21.9060   -4.0820   23.6850 C   0  0  0  0  0  3  0  0  0  0  0  0
  -21.9890   -4.8900   22.5380 C   0  0  0  0  0  0  0  0  0  0  0  0
  -22.3410   -4.3370   21.3520 F   0  0  0  0  0  0  0  0  0  0  0  0
  -21.4360   -3.8680   26.0170 F   0  0  0  0  0  0  0  0  0  0  0  0
  -22.8310  -13.6410   21.1420 C   0  0  0  0  0  0  0  0  0  0  0  0
  -22.1410  -12.9400   22.0340 N   0  0  0  0  0  0  0  0  0  0  0  0
  -22.3760  -14.6730   20.6520 O   0  0  0  0  0  0  0  0  0  0  0  0
  -22.5260  -12.1050   22.4510 H   0  0  0  0  0  0  0  0  0  0  0  0
  -21.2150  -13.2390   22.3050 H   0  0  0  0  0  0  0  0  0  0  0  0
  -25.4370  -15.2980   20.2200 N   0  0  0  0  0  0  0  0  0  0  0  0
  -24.6810  -15.9600   20.3630 H   0  0  0  0  0  0  0  0  0  0  0  0
  -26.2790  -15.7320   19.8680 H   0  0  0  0  0  0  0  0  0  0  0  0
  -29.0800  -24.3410   20.0650 C   0  0  0  0  0  2  0  0  0  0  0  0
  -28.4170  -25.4850   20.8700 C   0  0  0  0  0  2  0  0  0  0  0  0
  -28.4650  -26.7330   20.1630 O   0  0  0  0  0  0  0  0  0  0  0  0
  -24.5680  -31.8640   23.2030 C   0  0  0  0  0  0  0  0  0  0  0  0
  -27.2940  -27.4550   20.1660 C   0  0  0  0  0  0  0  0  0  0  0  0
  -23.4020  -30.4650   21.5280 C   0  0  0  0  0  3  0  0  0  0  0  0
  -24.8920  -28.9390   20.1290 C   0  0  0  0  0  0  0  0  0  0  0  0
  -25.9270  -30.8410   21.3800 C   0  0  0  0  0  2  0  0  0  0  0  0
  -26.0340  -29.4720   20.7390 C   0  0  0  0  0  0  0  0  0  0  0  0
  -27.2430  -28.7390   20.7510 C   0  0  0  0  0  3  0  0  0  0  0  0
  -26.1380  -26.9280   19.5540 C   0  0  0  0  0  3  0  0  0  0  0  0
  -24.9370  -27.6650   19.5340 C   0  0  0  0  0  3  0  0  0  0  0  0
  -23.6430  -29.7930   20.1510 C   0  0  0  0  0  2  0  0  0  0  0  0
  -24.6490  -31.0710   22.0970 N   0  0  0  0  0  0  0  0  0  0  0  0
  -23.4740  -32.1280   23.7230 O   0  0  0  0  0  0  0  0  0  0  0  0
  -22.7370  -29.4350   22.4710 C   0  0  0  0  0  0  0  0  0  0  0  0
  -21.4160  -29.2510   22.3180 N   0  0  0  0  0  0  0  0  0  0  0  0
  -23.4070  -28.8060   23.2950 O   0  0  0  0  0  0  0  0  0  0  0  0
  -20.9380  -29.8080   21.6220 H   0  0  0  0  0  0  0  0  0  0  0  0
  -18.0360  -28.0480   22.7420 C   0  0  0  0  0  0  0  0  0  0  0  0
  -20.5870  -28.3070   23.0670 C   0  0  0  0  0  3  0  0  0  0  0  0
  -20.7040  -26.8800   22.4840 C   0  0  0  0  0  2  0  0  0  0  0  0
  -19.6220  -26.5630   21.4470 C   0  0  0  0  0  2  0  0  0  0  0  0
  -18.2270  -26.7030   22.0630 C   0  0  0  0  0  2  0  0  0  0  0  0
  -19.1450  -28.8090   23.1990 C   0  0  0  0  0  0  0  0  0  0  0  0
  -18.9120  -30.0700   23.7910 C   0  0  0  0  0  3  0  0  0  0  0  0
  -17.6030  -30.5690   23.9340 C   0  0  0  0  0  3  0  0  0  0  0  0
  -16.5090  -29.8050   23.4930 C   0  0  0  0  0  3  0  0  0  0  0  0
  -16.7260  -28.5470   22.9020 C   0  0  0  0  0  3  0  0  0  0  0  0
  -25.8390  -32.4980   23.8510 C   0  0  0  0  0  3  0  0  0  0  0  0
  -26.3330  -31.7230   25.1330 C   0  0  1  0  0  0  0  0  0  0  0  0
  -25.2200  -31.4780   26.1780 C   0  0  0  0  0  1  0  0  0  0  0  0
  -26.9270  -30.3500   24.7440 C   0  0  0  0  0  1  0  0  0  0  0  0
  -27.4680  -32.5180   25.8210 C   0  0  0  0  0  1  0  0  0  0  0  0
  -25.5200  -33.8930   24.1760 N   0  0  0  0  0  0  0  0  0  0  0  0
  -25.8670  -34.9470   23.4250 C   0  0  0  0  0  0  0  0  0  0  0  0
  -26.5600  -34.8470   22.4080 O   0  0  0  0  0  0  0  0  0  0  0  0
  -24.9080  -34.0460   24.9640 H   0  0  0  0  0  0  0  0  0  0  0  0
  -24.1410  -36.7350   23.0340 C   0  0  0  0  0  1  0  0  0  0  0  0
  -25.3660  -36.3340   23.8720 C   0  0  0  0  0  3  0  0  0  0  0  0
  -27.4800  -37.2240   24.7480 C   0  0  0  0  0  1  0  0  0  0  0  0
  -26.3960  -37.3900   23.7830 N   0  0  0  0  0  0  0  0  0  0  0  0
  -25.9840  -38.3090   23.9240 H   0  0  0  0  0  0  0  0  0  0  0  0
  1 53  1  0
  1  2  1  0
  2  4  1  0
  2  5  1  0
  3  2  1  0
  6  7  1  0
  6  1  1  0
  7  9  1  0
  8  6  2  0
 11 10  1  0
 11  7  1  0
 11 12  1  0
 12 14  2  0
 13 12  1  0
 13 16  1  0
 15 13  1  0
 17 16  1  0
 18 23  1  0
 19 20  1  0
 19 18  1  0
 21 20  1  0
 21 28  1  0
 21 22  1  0
 23 17  1  0
 23 22  1  0
 24 17  2  0
 25 26  2  0
 26 45  1  0
 27 26  1  0
 27 30  1  0
 28 29  1  0
 28 25  1  0
 29 27  2  0
 30 31  1  0
 31 32  2  0
 33 36  1  0
 33 32  1  0
 34 33  2  0
 35 34  1  0
 35 30  2  0
 36 37  1  0
 37 38  1  0
 38 39  2  0
 40 39  1  0
 40 44  1  0
 41 40  2  0
 42 37  2  0
 42 41  1  0
 43 42  1  0
 45 46  1  0
 46 49  1  0
 46 48  1  0
 47 45  2  0
 50 51  1  0
 50 25  1  0
 52 50  1  0
 53 54  1  0
 55 57  1  0
 55 54  1  0
 56 67  2  0
 57 62  1  0
 58 66  1  0
 58 68  1  0
 59 65  1  0
 59 61  1  0
 60 66  1  0
 61 62  2  0
 61 60  1  0
 63 57  2  0
 64 63  1  0
 64 59  2  0
 65 58  1  0
 66 56  1  0
 68 70  2  0
 69 68  1  0
 71 69  1  0
 72 81  2  0
 72 77  1  0
 73 69  1  0
 73 77  1  0
 74 73  1  0
 75 76  1  0
 75 74  1  0
 76 72  1  0
 77 78  2  0
 78 79  1  0
 80 79  2  0
 81 80  1  0
 82 56  1  0
 82 87  1  0
 82 83  1  0
 83 86  1  1
 83 84  1  0
 85 83  1  0
 87 90  1  0
 88 92  1  0
 88 87  1  0
 89 88  2  0
 92 91  1  0
 94 92  1  0
 94 95  1  0
 94 93  1  0
M  ISO  4  16 100  17 100  54 101  55 101
M  END
>  <TORSDO>  (36) 
F 23

>  <SCORE>  (36) 
-12.456

>  <name>  (36) 
36

>  <ligand_id>  (36) 
36

>  <original_smiles>  (36) 
[H]c1c([H])c([H])c2c(c1[H])C([H])([H])C([H])([H])C([H])([H])C2([H])N([H])C(=O)C1([H])N(C(=O)C([H])(N([H])C(=O)C([H])(N([H])C([H])([H])[H])C([H])([H])[H])C(C([H])([H])[H])(C([H])([H])[H])C([H])([H])[H])C([H])([H])c2c([H])c(OC([H])([H])C([H])([H])C([H])(C(=O)N([H])C([H])(C(=O)N([H])C([H])([H])C(=O)N3C([H])([H])C([H])([H])C([H])([H])C([H])(n4nc(-c5c([H])c([H])c(Oc6c([H])c([H])c(F)c([H])c6F)c([H])c5[H])c(C(=O)N([H])[H])c4N([H])[H])C3([H])[H])C([H])([H])[H])[N+]([H])([H])[H])c([H])c([H])c2C1([H])[H]

>  <smiles>  (36) 
[H]c1c([H])c([H])c2c(c1[H])C([H])([H])C([H])([H])C([H])([H])C2([H])N([H])C(=O)C1([H])N(C(=O)C([H])(N([H])C(=O)C([H])(N([H])C([H])([H])[H])C([H])([H])[H])C(C([H])([H])[H])(C([H])([H])[H])C([H])([H])[H])C([H])([H])c2c([H])c(OC([H])([H])C([H])([H])C([H])(C(=O)N([H])C([H])(C(=O)N([H])C([H])([H])C(=O)N3C([H])([H])C([H])([H])C([H])([H])C([H])(n4nc(-c5c([H])c([H])c(Oc6c([H])c([H])c(F)c([H])c6F)c([H])c5[H])c(C(=O)N([H])[H])c4N([H])[H])C3([H])[H])C([H])([H])[H])[N+]([H])([H])[H])c([H])c([H])c2C1([H])[H]

$$$$
37:0:0
     RDKit          3D

 95102  0  0  1  0  0  0  0  0999 V2000
  -29.7140  -20.4620   19.9950 C   0  0  0  0  0  3  0  0  0  0  0  0
  -29.9810  -21.8420   20.4800 N   0  0  0  0  0  4  0  0  0  0  0  0
  -30.0500  -21.7720   21.4850 H   0  0  0  0  0  0  0  0  0  0  0  0
  -30.8790  -22.1470   20.1320 H   0  0  0  0  0  0  0  0  0  0  0  0
  -28.9200  -22.8340   20.1680 C   0  0  0  0  0  2  0  0  0  0  0  0
  -29.3010  -24.3110   20.4520 C   0  0  0  0  0  2  0  0  0  0  0  0
  -28.1160  -25.2440   20.1190 C   0  0  0  0  0  2  0  0  0  0  0  0
  -28.3400  -26.6580   20.2910 O   0  0  0  0  0  0  0  0  0  0  0  0
  -24.6080  -31.9600   23.2810 C   0  0  0  0  0  0  0  0  0  0  0  0
  -27.1970  -27.4430   20.2380 C   0  0  0  0  0  0  0  0  0  0  0  0
  -23.3910  -30.5560   21.6560 C   0  0  0  0  0  3  0  0  0  0  0  0
  -24.8270  -29.0020   20.2370 C   0  0  0  0  0  0  0  0  0  0  0  0
  -25.9260  -30.8770   21.4620 C   0  0  0  0  0  2  0  0  0  0  0  0
  -25.9940  -29.5030   20.8280 C   0  0  0  0  0  0  0  0  0  0  0  0
  -27.1840  -28.7340   20.8190 C   0  0  0  0  0  3  0  0  0  0  0  0
  -26.0040  -26.9780   19.6270 C   0  0  0  0  0  3  0  0  0  0  0  0
  -24.8270  -27.7420   19.6310 C   0  0  0  0  0  3  0  0  0  0  0  0
  -23.5960  -29.8800   20.2770 C   0  0  0  0  0  2  0  0  0  0  0  0
  -24.6600  -31.1460   22.1890 N   0  0  0  0  0  0  0  0  0  0  0  0
  -23.5270  -32.2500   23.8140 O   0  0  0  0  0  0  0  0  0  0  0  0
  -22.7290  -29.5420   22.6190 C   0  0  0  0  0  0  0  0  0  0  0  0
  -21.4100  -29.3390   22.4600 N   0  0  0  0  0  0  0  0  0  0  0  0
  -23.3990  -28.9450   23.4650 O   0  0  0  0  0  0  0  0  0  0  0  0
  -20.9320  -29.8730   21.7480 H   0  0  0  0  0  0  0  0  0  0  0  0
  -18.0370  -28.1180   22.9080 C   0  0  0  0  0  0  0  0  0  0  0  0
  -20.5850  -28.4100   23.2330 C   0  0  0  0  0  3  0  0  0  0  0  0
  -20.7160  -26.9680   22.6930 C   0  0  0  0  0  2  0  0  0  0  0  0
  -19.6420  -26.6090   21.6630 C   0  0  0  0  0  2  0  0  0  0  0  0
  -18.2440  -26.7540   22.2690 C   0  0  0  0  0  2  0  0  0  0  0  0
  -19.1360  -28.9020   23.3460 C   0  0  0  0  0  0  0  0  0  0  0  0
  -18.8920  -30.1780   23.8990 C   0  0  0  0  0  3  0  0  0  0  0  0
  -17.5780  -30.6710   24.0190 C   0  0  0  0  0  3  0  0  0  0  0  0
  -16.4920  -29.8850   23.6000 C   0  0  0  0  0  3  0  0  0  0  0  0
  -16.7220  -28.6090   23.0520 C   0  0  0  0  0  3  0  0  0  0  0  0
  -25.8990  -32.5820   23.8970 C   0  0  0  0  0  3  0  0  0  0  0  0
  -26.4280  -31.7970   25.1600 C   0  0  1  0  0  0  0  0  0  0  0  0
  -25.3400  -31.5320   26.2270 C   0  0  0  0  0  1  0  0  0  0  0  0
  -27.0190  -30.4300   24.7450 C   0  0  0  0  0  1  0  0  0  0  0  0
  -27.5760  -32.5910   25.8250 C   0  0  0  0  0  1  0  0  0  0  0  0
  -25.5980  -33.9800   24.2390 N   0  0  0  0  0  0  0  0  0  0  0  0
  -25.9150  -35.0320   23.4730 C   0  0  0  0  0  0  0  0  0  0  0  0
  -26.5670  -34.9290   22.4310 O   0  0  0  0  0  0  0  0  0  0  0  0
  -25.0250  -34.1330   25.0560 H   0  0  0  0  0  0  0  0  0  0  0  0
  -24.1880  -36.8250   23.1350 C   0  0  0  0  0  1  0  0  0  0  0  0
  -25.4320  -36.4180   23.9390 C   0  0  0  0  0  3  0  0  0  0  0  0
  -27.5650  -37.2980   24.7750 C   0  0  0  0  0  1  0  0  0  0  0  0
  -26.4660  -37.4690   23.8280 N   0  0  0  0  0  0  0  0  0  0  0  0
  -26.0630  -38.3910   23.9690 H   0  0  0  0  0  0  0  0  0  0  0  0
  -29.1800  -19.3560   17.6750 C   0  0  0  0  0  1  0  0  0  0  0  0
  -29.9760  -20.4100   18.4610 C   0  0  0  0  0  2  0  0  0  0  0  0
  -30.5390  -19.4270   20.8400 C   0  0  0  0  0  3  0  0  0  0  0  0
  -30.8050  -17.0340   20.9120 C   0  0  0  0  0  0  0  0  0  0  0  0
  -30.0500  -18.0540   20.6230 N   0  0  0  0  0  2  0  0  0  0  0  0
  -32.1010  -17.0890   21.3920 N   0  0  0  0  0  4  0  0  0  0  0  0
  -32.6410  -16.2820   21.6770 H   0  0  0  0  0  0  0  0  0  0  0  0
  -32.6420  -17.9330   21.5180 H   0  0  0  0  0  0  0  0  0  0  0  0
  -30.2050  -15.6120   20.9200 C   0  0  0  0  0  2  0  0  0  0  0  0
  -30.8880  -14.4880   20.0750 C   0  0  0  0  0  0  0  0  0  0  0  0
  -30.5320  -12.3410   18.8710 C   0  0  0  0  0  2  0  0  0  0  0  0
  -29.5210  -12.5870   17.7300 C   0  0  0  0  0  2  0  0  0  0  0  0
  -28.0730  -12.4580   18.2470 C   0  0  0  0  0  2  0  0  0  0  0  0
  -27.8240  -13.2690   19.5450 C   0  0  0  0  0  3  0  0  0  0  0  0
  -28.9390  -12.9870   20.5780 C   0  0  0  0  0  2  0  0  0  0  0  0
  -30.2300  -13.3000   19.9450 N   0  0  0  0  0  0  0  0  0  0  0  0
  -31.9550  -14.6970   19.4830 O   0  0  0  0  0  0  0  0  0  0  0  0
  -25.5060  -13.9230   20.4530 C   0  0  0  0  0  0  0  0  0  0  0  0
  -24.4380  -13.1700   20.8620 C   0  0  0  0  0  0  0  0  0  0  0  0
  -24.8470  -11.8070   20.7340 C   0  0  0  0  0  0  0  0  0  0  0  0
  -26.4970  -13.0180   20.1020 N   0  0  0  0  0  0  0  0  0  0  0  0
  -26.1090  -11.7370   20.3280 N   0  0  0  0  0  0  0  0  0  0  0  0
  -24.0910  -10.5620   20.9270 C   0  0  0  0  0  0  0  0  0  0  0  0
  -24.5180   -9.5690   21.8350 C   0  0  0  0  0  3  0  0  0  0  0  0
  -23.7680   -8.3850   22.0080 C   0  0  0  0  0  3  0  0  0  0  0  0
  -22.5760   -8.1890   21.2720 C   0  0  0  0  0  0  0  0  0  0  0  0
  -22.1660   -9.1690   20.3500 C   0  0  0  0  0  3  0  0  0  0  0  0
  -22.9170  -10.3440   20.1790 C   0  0  0  0  0  3  0  0  0  0  0  0
  -21.7950   -7.0620   21.3570 O   0  0  0  0  0  0  0  0  0  0  0  0
  -21.7080   -6.3300   22.5110 C   0  0  0  0  0  0  0  0  0  0  0  0
  -21.2250   -6.8900   23.7150 C   0  0  0  0  0  3  0  0  0  0  0  0
  -21.0890   -6.0830   24.8610 C   0  0  0  0  0  3  0  0  0  0  0  0
  -21.4260   -4.7170   24.8070 C   0  0  0  0  0  0  0  0  0  0  0  0
  -21.9030   -4.1570   23.6090 C   0  0  0  0  0  3  0  0  0  0  0  0
  -22.0400   -4.9600   22.4640 C   0  0  0  0  0  0  0  0  0  0  0  0
  -22.4810   -4.4100   21.3070 F   0  0  0  0  0  0  0  0  0  0  0  0
  -21.2860   -3.9410   25.9070 F   0  0  0  0  0  0  0  0  0  0  0  0
  -23.0830  -13.6790   21.2610 C   0  0  0  0  0  0  0  0  0  0  0  0
  -22.3970  -12.9640   22.1480 N   0  0  0  0  0  0  0  0  0  0  0  0
  -22.6390  -14.7370   20.8220 O   0  0  0  0  0  0  0  0  0  0  0  0
  -22.7710  -12.1080   22.5310 H   0  0  0  0  0  0  0  0  0  0  0  0
  -21.4890  -13.2820   22.4540 H   0  0  0  0  0  0  0  0  0  0  0  0
  -25.7100  -15.2930   20.3370 N   0  0  0  0  0  0  0  0  0  0  0  0
  -24.9860  -15.9730   20.5440 H   0  0  0  0  0  0  0  0  0  0  0  0
  -26.5620  -15.7170   19.9910 H   0  0  0  0  0  0  0  0  0  0  0  0
  -31.5580  -20.6350   22.9370 C   0  0  0  0  0  1  0  0  0  0  0  0
  -30.4340  -19.7470   22.3700 C   0  0  0  0  0  2  0  0  0  0  0  0
  1 50  1  0
  1  2  1  0
  1 51  1  0
  2  3  1  0
  4  2  1  0
  5  6  1  0
  5  2  1  0
  7  8  1  0
  7  6  1  0
  9 20  2  0
 10  8  1  0
 10 15  1  0
 11 19  1  0
 11 21  1  0
 12 18  1  0
 12 14  1  0
 13 19  1  0
 14 13  1  0
 15 14  2  0
 16 17  1  0
 16 10  2  0
 17 12  2  0
 18 11  1  0
 19  9  1  0
 21 23  2  0
 22 21  1  0
 24 22  1  0
 25 34  2  0
 25 30  1  0
 26 22  1  0
 26 30  1  0
 27 26  1  0
 28 29  1  0
 28 27  1  0
 29 25  1  0
 30 31  2  0
 31 32  1  0
 33 32  2  0
 34 33  1  0
 35  9  1  0
 35 40  1  0
 35 36  1  0
 36 39  1  1
 36 37  1  0
 38 36  1  0
 40 43  1  0
 41 45  1  0
 41 40  1  0
 42 41  2  0
 45 44  1  0
 47 45  1  0
 47 48  1  0
 47 46  1  0
 49 50  1  0
 51 95  1  0
 52 57  1  0
 52 54  2  0
 53 51  1  0
 53 52  1  0
 54 56  1  0
 54 55  1  0
 58 57  1  0
 59 64  1  0
 60 61  1  0
 60 59  1  0
 62 61  1  0
 62 69  1  0
 62 63  1  0
 64 58  1  0
 64 63  1  0
 65 58  2  0
 66 67  2  0
 67 86  1  0
 68 67  1  0
 68 71  1  0
 69 70  1  0
 69 66  1  0
 70 68  2  0
 71 72  1  0
 72 73  2  0
 74 77  1  0
 74 73  1  0
 75 74  2  0
 76 75  1  0
 76 71  2  0
 77 78  1  0
 78 79  1  0
 79 80  2  0
 81 80  1  0
 81 85  1  0
 82 81  2  0
 83 78  2  0
 83 82  1  0
 84 83  1  0
 86 87  1  0
 87 90  1  0
 87 89  1  0
 88 86  2  0
 91 66  1  0
 91 92  1  0
 93 91  1  0
 95 94  1  0
M  ISO  4   7 101   8 101  57 100  58 100
M  END
>  <TORSDO>  (37) 
F 25

>  <SCORE>  (37) 
-11.660

>  <name>  (37) 
37

>  <ligand_id>  (37) 
37

>  <original_smiles>  (37) 
[H]c1c([H])c([H])c2c(c1[H])C([H])([H])C([H])([H])C([H])([H])C2([H])N([H])C(=O)C1([H])N(C(=O)C([H])(N([H])C(=O)C([H])(N([H])C([H])([H])[H])C([H])([H])[H])C(C([H])([H])[H])(C([H])([H])[H])C([H])([H])[H])C([H])([H])c2c([H])c(OC([H])([H])C([H])([H])C([H])([H])[N+]([H])([H])C([H])(C([H])([H])C([H])([H])[H])C([H])(N=C(N([H])[H])C([H])([H])C(=O)N3C([H])([H])C([H])([H])C([H])([H])C([H])(n4nc(-c5c([H])c([H])c(Oc6c([H])c([H])c(F)c([H])c6F)c([H])c5[H])c(C(=O)N([H])[H])c4N([H])[H])C3([H])[H])C([H])([H])C([H])([H])[H])c([H])c([H])c2C1([H])[H]

>  <smiles>  (37) 
[H]c1c([H])c([H])c2c(c1[H])C([H])([H])C([H])([H])C([H])([H])C2([H])N([H])C(=O)C1([H])N(C(=O)C([H])(N([H])C(=O)C([H])(N([H])C([H])([H])[H])C([H])([H])[H])C(C([H])([H])[H])(C([H])([H])[H])C([H])([H])[H])C([H])([H])c2c([H])c(OC([H])([H])C([H])([H])C([H])([H])[N+]([H])([H])C([H])(C([H])([H])C([H])([H])[H])C([H])(N=C(N([H])[H])C([H])([H])C(=O)N3C([H])([H])C([H])([H])C([H])([H])C([H])(n4nc(-c5c([H])c([H])c(Oc6c([H])c([H])c(F)c([H])c6F)c([H])c5[H])c(C(=O)N([H])[H])c4N([H])[H])C3([H])[H])C([H])([H])C([H])([H])[H])c([H])c([H])c2C1([H])[H]

$$$$
38:0:0
     RDKit          3D

 88 96  0  0  1  0  0  0  0  0999 V2000
  -30.2980  -20.0140   20.2090 C   0  0  0  0  0  3  0  0  0  0  0  0
  -27.9960  -19.5590   20.3510 C   0  0  0  0  0  3  0  0  0  0  0  0
  -30.5810  -18.5740   20.2410 C   0  0  0  0  0  3  0  0  0  0  0  0
  -28.2680  -18.1450   20.3980 C   0  0  0  0  0  3  0  0  0  0  0  0
  -28.9770  -20.5950   20.2390 C   0  0  0  0  0  0  0  0  0  0  0  0
  -29.5660  -17.5530   20.3280 C   0  0  0  0  0  0  0  0  0  0  0  0
  -30.4910  -14.9580   20.0280 C   0  0  0  0  0  0  0  0  0  0  0  0
  -30.3260  -12.6530   18.9960 C   0  0  0  0  0  2  0  0  0  0  0  0
  -29.3170  -12.6920   17.8230 C   0  0  0  0  0  2  0  0  0  0  0  0
  -27.8740  -12.4830   18.3260 C   0  0  0  0  0  2  0  0  0  0  0  0
  -27.5530  -13.3510   19.5710 C   0  0  0  0  0  3  0  0  0  0  0  0
  -28.6730  -13.2680   20.6320 C   0  0  0  0  0  2  0  0  0  0  0  0
  -29.9240  -13.6900   19.9830 N   0  0  0  0  0  0  0  0  0  0  0  0
  -31.6500  -15.1040   19.6210 O   0  0  0  0  0  0  0  0  0  0  0  0
  -29.6500  -16.0300   20.3880 N   0  0  0  0  0  0  0  0  0  0  0  0
  -28.7760  -15.6360   20.7020 H   0  0  0  0  0  0  0  0  0  0  0  0
  -25.2100  -13.9240   20.4370 C   0  0  0  0  0  0  0  0  0  0  0  0
  -24.1660  -13.1450   20.8550 C   0  0  0  0  0  0  0  0  0  0  0  0
  -24.6250  -11.7940   20.7740 C   0  0  0  0  0  0  0  0  0  0  0  0
  -26.2380  -13.0490   20.1290 N   0  0  0  0  0  0  0  0  0  0  0  0
  -25.8970  -11.7610   20.3930 N   0  0  0  0  0  0  0  0  0  0  0  0
  -23.9070  -10.5300   20.9780 C   0  0  0  0  0  0  0  0  0  0  0  0
  -24.3680   -9.5540   21.8880 C   0  0  0  0  0  3  0  0  0  0  0  0
  -23.6480   -8.3550   22.0800 C   0  0  0  0  0  3  0  0  0  0  0  0
  -22.4520   -8.1230   21.3610 C   0  0  0  0  0  0  0  0  0  0  0  0
  -22.0090   -9.0850   20.4380 C   0  0  0  0  0  3  0  0  0  0  0  0
  -22.7300  -10.2760   20.2440 C   0  0  0  0  0  3  0  0  0  0  0  0
  -21.7020   -6.9760   21.4630 O   0  0  0  0  0  0  0  0  0  0  0  0
  -21.6680   -6.2380   22.6190 C   0  0  0  0  0  0  0  0  0  0  0  0
  -21.2150   -6.7850   23.8400 C   0  0  0  0  0  3  0  0  0  0  0  0
  -21.1310   -5.9740   24.9870 C   0  0  0  0  0  3  0  0  0  0  0  0
  -21.4910   -4.6140   24.9170 C   0  0  0  0  0  0  0  0  0  0  0  0
  -21.9380   -4.0660   23.7030 C   0  0  0  0  0  3  0  0  0  0  0  0
  -22.0240   -4.8750   22.5560 C   0  0  0  0  0  0  0  0  0  0  0  0
  -22.4360   -4.3370   21.3830 F   0  0  0  0  0  0  0  0  0  0  0  0
  -21.4030   -3.8320   26.0180 F   0  0  0  0  0  0  0  0  0  0  0  0
  -22.7860  -13.6200   21.2090 C   0  0  0  0  0  0  0  0  0  0  0  0
  -22.1050  -12.9120   22.1030 N   0  0  0  0  0  0  0  0  0  0  0  0
  -22.3230  -14.6540   20.7270 O   0  0  0  0  0  0  0  0  0  0  0  0
  -22.4940  -12.0770   22.5120 H   0  0  0  0  0  0  0  0  0  0  0  0
  -21.1820  -13.2130   22.3840 H   0  0  0  0  0  0  0  0  0  0  0  0
  -25.3600  -15.2970   20.2610 N   0  0  0  0  0  0  0  0  0  0  0  0
  -24.5600  -15.9160   20.3350 H   0  0  0  0  0  0  0  0  0  0  0  0
  -26.1150  -15.6990   19.7210 H   0  0  0  0  0  0  0  0  0  0  0  0
  -28.4570  -22.1060   20.1470 C   0  0  0  0  0  3  0  0  0  0  0  0
  -28.8930  -23.4490   20.1830 C   0  0  0  0  0  3  0  0  0  0  0  0
  -27.9580  -24.7690   19.9260 C   0  0  0  0  0  2  0  0  0  0  0  0
  -28.2880  -26.2500   20.2260 O   0  0  0  0  0  0  0  0  0  0  0  0
  -24.6100  -31.8570   23.2560 C   0  0  0  0  0  0  0  0  0  0  0  0
  -27.2350  -27.2330   20.1560 C   0  0  0  0  0  0  0  0  0  0  0  0
  -23.4300  -30.4980   21.5730 C   0  0  0  0  0  3  0  0  0  0  0  0
  -24.8990  -28.9650   20.1330 C   0  0  0  0  0  0  0  0  0  0  0  0
  -25.9860  -30.7760   21.4440 C   0  0  0  0  0  2  0  0  0  0  0  0
  -26.0700  -29.4010   20.7630 C   0  0  0  0  0  0  0  0  0  0  0  0
  -27.2400  -28.5530   20.7590 C   0  0  0  0  0  3  0  0  0  0  0  0
  -26.0340  -26.9010   19.4850 C   0  0  0  0  0  3  0  0  0  0  0  0
  -24.8930  -27.7270   19.4780 C   0  0  0  0  0  3  0  0  0  0  0  0
  -23.6690  -29.8560   20.1810 C   0  0  0  0  0  2  0  0  0  0  0  0
  -24.6940  -31.0630   22.1470 N   0  0  0  0  0  0  0  0  0  0  0  0
  -23.5180  -32.1270   23.7780 O   0  0  0  0  0  0  0  0  0  0  0  0
  -22.7420  -29.4660   22.5020 C   0  0  0  0  0  0  0  0  0  0  0  0
  -21.4150  -29.3030   22.3610 N   0  0  0  0  0  0  0  0  0  0  0  0
  -23.4050  -28.8160   23.3140 O   0  0  0  0  0  0  0  0  0  0  0  0
  -20.9350  -29.8810   21.6840 H   0  0  0  0  0  0  0  0  0  0  0  0
  -18.0210  -28.1270   22.8320 C   0  0  0  0  0  0  0  0  0  0  0  0
  -20.5830  -28.3520   23.1030 C   0  0  0  0  0  3  0  0  0  0  0  0
  -20.6670  -26.9360   22.4860 C   0  0  0  0  0  2  0  0  0  0  0  0
  -19.5610  -26.6570   21.4640 C   0  0  0  0  0  2  0  0  0  0  0  0
  -18.1820  -26.7980   22.1140 C   0  0  0  0  0  2  0  0  0  0  0  0
  -19.1490  -28.8640   23.2830 C   0  0  0  0  0  0  0  0  0  0  0  0
  -18.9440  -30.1090   23.9180 C   0  0  0  0  0  3  0  0  0  0  0  0
  -17.6440  -30.6160   24.1040 C   0  0  0  0  0  3  0  0  0  0  0  0
  -16.5310  -29.8770   23.6650 C   0  0  0  0  0  3  0  0  0  0  0  0
  -16.7210  -28.6330   23.0370 C   0  0  0  0  0  3  0  0  0  0  0  0
  -25.8810  -32.4800   23.9120 C   0  0  0  0  0  3  0  0  0  0  0  0
  -25.5740  -33.8810   24.2410 N   0  0  0  0  0  0  0  0  0  0  0  0
  -25.8890  -34.9320   23.4730 C   0  0  0  0  0  0  0  0  0  0  0  0
  -26.5370  -34.8250   22.4280 O   0  0  0  0  0  0  0  0  0  0  0  0
  -24.9970  -34.0370   25.0540 H   0  0  0  0  0  0  0  0  0  0  0  0
  -24.1400  -36.7160   23.1690 C   0  0  0  0  0  1  0  0  0  0  0  0
  -25.4120  -36.3230   23.9360 C   0  0  0  0  0  3  0  0  0  0  0  0
  -27.5670  -37.2350   24.6850 C   0  0  0  0  0  1  0  0  0  0  0  0
  -26.4350  -37.3810   23.7740 N   0  0  0  0  0  0  0  0  0  0  0  0
  -26.0270  -38.3000   23.9190 H   0  0  0  0  0  0  0  0  0  0  0  0
  -26.3560  -31.7040   25.2020 C   0  0  1  0  0  0  0  0  0  0  0  0
  -25.2340  -31.4770   26.2430 C   0  0  0  0  0  1  0  0  0  0  0  0
  -26.9350  -30.3190   24.8300 C   0  0  0  0  0  1  0  0  0  0  0  0
  -27.4960  -32.4880   25.8940 C   0  0  0  0  0  1  0  0  0  0  0  0
  1  5  2  0
  1  3  1  0
  2  4  2  0
  3  6  2  0
  5  2  1  0
  6 15  1  0
  6  4  1  0
  7 15  1  0
  8 13  1  0
  9 10  1  0
  9  8  1  0
 11 10  1  0
 11 20  1  0
 11 12  1  0
 13  7  1  0
 13 12  1  0
 14  7  2  0
 15 16  1  0
 17 18  2  0
 18 37  1  0
 19 18  1  0
 19 22  1  0
 20 21  1  0
 20 17  1  0
 21 19  2  0
 22 23  1  0
 23 24  2  0
 25 28  1  0
 25 24  1  0
 26 25  2  0
 27 26  1  0
 27 22  2  0
 28 29  1  0
 29 30  1  0
 30 31  2  0
 32 31  1  0
 32 36  1  0
 33 32  2  0
 34 29  2  0
 34 33  1  0
 35 34  1  0
 37 38  1  0
 38 41  1  0
 38 40  1  0
 39 37  2  0
 42 43  1  0
 42 17  1  0
 44 42  1  0
 45 46  2  0
 45  5  1  0
 47 46  1  0
 47 48  1  0
 49 60  2  0
 50 48  1  0
 50 55  1  0
 51 59  1  0
 51 61  1  0
 52 58  1  0
 52 54  1  0
 53 59  1  0
 54 53  1  0
 55 54  2  0
 56 50  2  0
 57 56  1  0
 57 52  2  0
 58 51  1  0
 59 49  1  0
 61 63  2  0
 62 61  1  0
 64 62  1  0
 65 74  2  0
 65 70  1  0
 66 62  1  0
 66 70  1  0
 67 66  1  0
 68 69  1  0
 68 67  1  0
 69 65  1  0
 70 71  2  0
 71 72  1  0
 73 72  2  0
 74 73  1  0
 75 49  1  0
 75 76  1  0
 75 85  1  0
 76 79  1  0
 77 81  1  0
 77 76  1  0
 78 77  2  0
 81 80  1  0
 83 84  1  0
 83 81  1  0
 83 82  1  0
 85 88  1  1
 85 86  1  0
 87 85  1  0
M  ISO  4   7 100  15 100  47 101  48 101
M  END
>  <TORSDO>  (38) 
F 18

>  <SCORE>  (38) 
-14.579

>  <name>  (38) 
38

>  <ligand_id>  (38) 
38

>  <original_smiles>  (38) 
[H]C(=C([H])C([H])([H])Oc1c([H])c([H])c2c(c1[H])C([H])([H])N(C(=O)C([H])(N([H])C(=O)C([H])(N([H])C([H])([H])[H])C([H])([H])[H])C(C([H])([H])[H])(C([H])([H])[H])C([H])([H])[H])C([H])(C(=O)N([H])C1([H])c3c([H])c([H])c([H])c([H])c3C([H])([H])C([H])([H])C1([H])[H])C2([H])[H])c1c([H])c([H])c(N([H])C(=O)N2C([H])([H])C([H])([H])C([H])([H])C([H])(n3nc(-c4c([H])c([H])c(Oc5c([H])c([H])c(F)c([H])c5F)c([H])c4[H])c(C(=O)N([H])[H])c3N([H])[H])C2([H])[H])c([H])c1[H]

>  <smiles>  (38) 
[H]C(=C([H])C([H])([H])Oc1c([H])c([H])c2c(c1[H])C([H])([H])N(C(=O)C([H])(N([H])C(=O)C([H])(N([H])C([H])([H])[H])C([H])([H])[H])C(C([H])([H])[H])(C([H])([H])[H])C([H])([H])[H])C([H])(C(=O)N([H])C1([H])c3c([H])c([H])c([H])c([H])c3C([H])([H])C([H])([H])C1([H])[H])C2([H])[H])c1c([H])c([H])c(N([H])C(=O)N2C([H])([H])C([H])([H])C([H])([H])C([H])(n3nc(-c4c([H])c([H])c(Oc5c([H])c([H])c(F)c([H])c5F)c([H])c4[H])c(C(=O)N([H])[H])c3N([H])[H])C2([H])[H])c([H])c1[H]

$$$$
39:0:0
     RDKit          3D

 88 97  0  0  1  0  0  0  0  0999 V2000
  -29.2000  -21.4470   21.1000 C   0  0  0  0  0  3  0  0  0  0  0  0
  -29.0650  -22.0860   19.8970 C   0  0  0  0  0  3  0  0  0  0  0  0
  -27.6830  -19.4980   20.6940 C   0  0  0  0  0  2  0  0  0  0  0  0
  -27.6640  -19.9930   19.2390 C   0  0  0  0  0  2  0  0  0  0  0  0
  -29.1500  -19.8100   21.0720 C   0  0  0  0  0  3  0  0  0  0  0  0
  -29.1250  -20.5020   19.1480 C   0  0  0  0  0  3  0  0  0  0  0  0
  -29.9450  -19.0200   19.8840 C   0  0  0  0  0  3  0  0  0  0  0  0
  -29.0030  -22.1200   22.4470 C   0  0  0  0  0  1  0  0  0  0  0  0
  -30.6080  -15.8350   19.7710 C   0  0  0  0  0  0  0  0  0  0  0  0
  -30.6390  -13.2910   18.9090 C   0  0  0  0  0  2  0  0  0  0  0  0
  -29.6570  -12.8870   17.7730 C   0  0  0  0  0  2  0  0  0  0  0  0
  -28.2740  -12.5290   18.3330 C   0  0  0  0  0  2  0  0  0  0  0  0
  -27.8500  -13.5230   19.4370 C   0  0  0  0  0  3  0  0  0  0  0  0
  -28.9620  -13.8270   20.4680 C   0  0  0  0  0  2  0  0  0  0  0  0
  -30.0760  -14.4660   19.7270 N   0  0  0  0  0  0  0  0  0  0  0  0
  -31.8240  -15.7600   19.4990 O   0  0  0  0  0  0  0  0  0  0  0  0
  -29.8610  -17.2110   19.9250 N   0  0  0  0  0  0  0  0  0  0  0  0
  -28.9000  -16.9640   20.1080 H   0  0  0  0  0  0  0  0  0  0  0  0
  -25.5750  -14.0660   20.4250 C   0  0  0  0  0  0  0  0  0  0  0  0
  -24.5320  -13.2890   20.8450 C   0  0  0  0  0  0  0  0  0  0  0  0
  -24.9640  -11.9340   20.7090 C   0  0  0  0  0  0  0  0  0  0  0  0
  -26.5730  -13.1860   20.0530 N   0  0  0  0  0  0  0  0  0  0  0  0
  -26.2260  -11.8930   20.2880 N   0  0  0  0  0  0  0  0  0  0  0  0
  -24.2210  -10.6790   20.8960 C   0  0  0  0  0  0  0  0  0  0  0  0
  -24.6450   -9.6980   21.8180 C   0  0  0  0  0  3  0  0  0  0  0  0
  -23.9000   -8.5130   21.9990 C   0  0  0  0  0  3  0  0  0  0  0  0
  -22.7160   -8.2990   21.2550 C   0  0  0  0  0  0  0  0  0  0  0  0
  -22.3070   -9.2680   20.3210 C   0  0  0  0  0  3  0  0  0  0  0  0
  -23.0540  -10.4460   20.1400 C   0  0  0  0  0  3  0  0  0  0  0  0
  -21.9410   -7.1680   21.3450 O   0  0  0  0  0  0  0  0  0  0  0  0
  -21.8020   -6.4830   22.5250 C   0  0  0  0  0  0  0  0  0  0  0  0
  -21.2660   -7.0920   23.6800 C   0  0  0  0  0  3  0  0  0  0  0  0
  -21.0750   -6.3340   24.8530 C   0  0  0  0  0  3  0  0  0  0  0  0
  -21.4080   -4.9650   24.8690 C   0  0  0  0  0  0  0  0  0  0  0  0
  -21.9340   -4.3550   23.7170 C   0  0  0  0  0  3  0  0  0  0  0  0
  -22.1260   -5.1120   22.5480 C   0  0  0  0  0  0  0  0  0  0  0  0
  -22.6140   -4.5130   21.4340 F   0  0  0  0  0  0  0  0  0  0  0  0
  -21.2170   -4.2350   25.9920 F   0  0  0  0  0  0  0  0  0  0  0  0
  -23.1710  -13.7830   21.2450 C   0  0  0  0  0  0  0  0  0  0  0  0
  -22.5030  -13.0760   22.1480 N   0  0  0  0  0  0  0  0  0  0  0  0
  -22.7150  -14.8300   20.7910 O   0  0  0  0  0  0  0  0  0  0  0  0
  -22.8870  -12.2320   22.5440 H   0  0  0  0  0  0  0  0  0  0  0  0
  -21.5910  -13.3900   22.4520 H   0  0  0  0  0  0  0  0  0  0  0  0
  -25.7470  -15.4410   20.2940 N   0  0  0  0  0  0  0  0  0  0  0  0
  -24.9870  -16.0900   20.4700 H   0  0  0  0  0  0  0  0  0  0  0  0
  -26.5500  -15.8790   19.8620 H   0  0  0  0  0  0  0  0  0  0  0  0
  -28.4820  -23.8340   19.4280 C   0  0  0  0  0  2  0  0  0  0  0  0
  -28.5410  -25.5510   19.9210 O   0  0  0  0  0  0  0  0  0  0  0  0
  -24.6770  -31.5890   23.0090 C   0  0  0  0  0  0  0  0  0  0  0  0
  -27.5400  -26.7590   19.8560 C   0  0  0  0  0  0  0  0  0  0  0  0
  -23.6090  -30.2120   21.2790 C   0  0  0  0  0  3  0  0  0  0  0  0
  -25.1780  -28.7060   19.8280 C   0  0  0  0  0  0  0  0  0  0  0  0
  -26.1820  -30.4770   21.2390 C   0  0  0  0  0  2  0  0  0  0  0  0
  -26.3360  -29.0800   20.5170 C   0  0  0  0  0  0  0  0  0  0  0  0
  -27.4970  -28.1360   20.5010 C   0  0  0  0  0  3  0  0  0  0  0  0
  -26.3420  -26.6110   19.1110 C   0  0  0  0  0  3  0  0  0  0  0  0
  -25.2220  -27.5020   19.1010 C   0  0  0  0  0  3  0  0  0  0  0  0
  -23.9220  -29.5930   19.8840 C   0  0  0  0  0  2  0  0  0  0  0  0
  -24.8440  -30.7930   21.8960 N   0  0  0  0  0  0  0  0  0  0  0  0
  -23.5560  -31.8100   23.4990 O   0  0  0  0  0  0  0  0  0  0  0  0
  -22.9170  -29.1580   22.1850 C   0  0  0  0  0  0  0  0  0  0  0  0
  -21.5860  -28.9920   22.0610 N   0  0  0  0  0  0  0  0  0  0  0  0
  -23.5920  -28.4930   22.9740 O   0  0  0  0  0  0  0  0  0  0  0  0
  -21.0880  -29.5770   21.4050 H   0  0  0  0  0  0  0  0  0  0  0  0
  -18.2180  -27.7340   22.5890 C   0  0  0  0  0  0  0  0  0  0  0  0
  -20.7880  -27.9840   22.7710 C   0  0  0  0  0  3  0  0  0  0  0  0
  -20.8600  -26.6100   22.0590 C   0  0  0  0  0  2  0  0  0  0  0  0
  -19.7180  -26.3990   21.0580 C   0  0  0  0  0  2  0  0  0  0  0  0
  -18.3680  -26.4610   21.7730 C   0  0  0  0  0  2  0  0  0  0  0  0
  -19.3550  -28.4580   23.0420 C   0  0  0  0  0  0  0  0  0  0  0  0
  -19.1590  -29.6520   23.7690 C   0  0  0  0  0  3  0  0  0  0  0  0
  -17.8610  -30.1200   24.0480 C   0  0  0  0  0  3  0  0  0  0  0  0
  -16.7410  -29.3910   23.6080 C   0  0  0  0  0  3  0  0  0  0  0  0
  -16.9190  -28.1980   22.8870 C   0  0  0  0  0  3  0  0  0  0  0  0
  -25.8840  -32.2750   23.7170 C   0  0  0  0  0  3  0  0  0  0  0  0
  -25.4900  -33.6550   24.0660 N   0  0  0  0  0  0  0  0  0  0  0  0
  -25.7950  -34.7510   23.3580 C   0  0  0  0  0  0  0  0  0  0  0  0
  -26.4900  -34.7070   22.3390 O   0  0  0  0  0  0  0  0  0  0  0  0
  -24.8670  -33.7560   24.8550 H   0  0  0  0  0  0  0  0  0  0  0  0
  -23.9890  -36.4840   23.0460 C   0  0  0  0  0  1  0  0  0  0  0  0
  -25.2450  -36.1070   23.8500 C   0  0  0  0  0  3  0  0  0  0  0  0
  -27.3260  -37.0820   24.7240 C   0  0  0  0  0  1  0  0  0  0  0  0
  -26.2290  -37.2090   23.7680 N   0  0  0  0  0  0  0  0  0  0  0  0
  -25.7790  -38.1080   23.9190 H   0  0  0  0  0  0  0  0  0  0  0  0
  -26.3530  -31.5110   25.0190 C   0  0  1  0  0  0  0  0  0  0  0  0
  -25.2130  -31.2250   26.0250 C   0  0  0  0  0  1  0  0  0  0  0  0
  -27.0060  -30.1550   24.6650 C   0  0  0  0  0  1  0  0  0  0  0  0
  -27.4350  -32.3390   25.7530 C   0  0  0  0  0  1  0  0  0  0  0  0
  1  8  1  0
  2 47  1  0
  2  1  1  0
  4  3  1  0
  5  3  1  0
  5  1  1  0
  6  4  1  0
  6  7  1  0
  6  2  1  0
  7 17  1  0
  7  5  1  0
  9 17  1  0
 10 15  1  0
 11 12  1  0
 11 10  1  0
 13 12  1  0
 13 22  1  0
 13 14  1  0
 15  9  1  0
 15 14  1  0
 16  9  2  0
 17 18  1  0
 19 20  2  0
 20 39  1  0
 21 20  1  0
 21 24  1  0
 22 23  1  0
 22 19  1  0
 23 21  2  0
 24 25  1  0
 25 26  2  0
 27 30  1  0
 27 26  1  0
 28 27  2  0
 29 28  1  0
 29 24  2  0
 30 31  1  0
 31 36  2  0
 31 32  1  0
 32 33  2  0
 33 34  1  0
 34 38  1  0
 35 34  2  0
 36 35  1  0
 37 36  1  0
 39 40  1  0
 40 43  1  0
 40 42  1  0
 41 39  2  0
 44 19  1  0
 44 45  1  0
 46 44  1  0
 47 48  1  0
 49 60  2  0
 50 48  1  0
 50 55  1  0
 51 59  1  0
 51 61  1  0
 52 58  1  0
 52 54  1  0
 53 59  1  0
 54 53  1  0
 55 54  2  0
 56 50  2  0
 57 56  1  0
 57 52  2  0
 58 51  1  0
 59 49  1  0
 61 63  2  0
 62 61  1  0
 64 62  1  0
 65 74  2  0
 65 70  1  0
 66 62  1  0
 66 70  1  0
 67 66  1  0
 68 69  1  0
 68 67  1  0
 69 65  1  0
 70 71  2  0
 71 72  1  0
 73 72  2  0
 74 73  1  0
 75 49  1  0
 75 76  1  0
 75 85  1  0
 76 79  1  0
 77 81  1  0
 77 76  1  0
 78 77  2  0
 81 80  1  0
 83 81  1  0
 83 84  1  0
 83 82  1  0
 85 88  1  1
 85 86  1  0
 87 85  1  0
M  ISO  4   9 100  17 100  47 101  48 101
M  END
>  <TORSDO>  (39) 
F 17

>  <SCORE>  (39) 
-15.147

>  <name>  (39) 
39

>  <ligand_id>  (39) 
39

>  <original_smiles>  (39) 
[H]c1c([H])c([H])c2c(c1[H])C([H])([H])C([H])([H])C([H])([H])C2([H])N([H])C(=O)C1([H])N(C(=O)C([H])(N([H])C(=O)C([H])(N([H])C([H])([H])[H])C([H])([H])[H])C(C([H])([H])[H])(C([H])([H])[H])C([H])([H])[H])C([H])([H])c2c([H])c(OC([H])([H])C3=C(C([H])([H])[H])C4([H])C([H])([H])C([H])([H])C3([H])C4([H])N([H])C(=O)N3C([H])([H])C([H])([H])C([H])([H])C([H])(n4nc(-c5c([H])c([H])c(Oc6c([H])c([H])c(F)c([H])c6F)c([H])c5[H])c(C(=O)N([H])[H])c4N([H])[H])C3([H])[H])c([H])c([H])c2C1([H])[H]

>  <smiles>  (39) 
[H]c1c([H])c([H])c2c(c1[H])C([H])([H])C([H])([H])C([H])([H])C2([H])N([H])C(=O)C1([H])N(C(=O)C([H])(N([H])C(=O)C([H])(N([H])C([H])([H])[H])C([H])([H])[H])C(C([H])([H])[H])(C([H])([H])[H])C([H])([H])[H])C([H])([H])c2c([H])c(OC([H])([H])C3=C(C([H])([H])[H])C4([H])C([H])([H])C([H])([H])C3([H])C4([H])N([H])C(=O)N3C([H])([H])C([H])([H])C([H])([H])C([H])(n4nc(-c5c([H])c([H])c(Oc6c([H])c([H])c(F)c([H])c6F)c([H])c5[H])c(C(=O)N([H])[H])c4N([H])[H])C3([H])[H])c([H])c([H])c2C1([H])[H]

$$$$
40:0:0
     RDKit          3D

 86 94  0  0  1  0  0  0  0  0999 V2000
  -28.3050  -21.3410   22.1390 C   0  0  0  0  0  3  0  0  0  0  0  0
  -28.7770  -20.1530   21.5200 C   0  0  0  0  0  3  0  0  0  0  0  0
  -28.3020  -22.6130   21.5020 C   0  0  0  0  0  3  0  0  0  0  0  0
  -29.2970  -20.1330   20.2090 C   0  0  0  0  0  0  0  0  0  0  0  0
  -28.7680  -22.8080   20.1820 C   0  0  0  0  0  0  0  0  0  0  0  0
  -29.2460  -21.5040   19.6010 N   0  0  0  0  0  0  0  0  0  0  0  0
  -29.8550  -18.5770   19.6800 C   0  0  0  0  0  3  0  0  0  0  0  0
  -29.9810  -17.1710   20.1780 C   0  0  0  0  0  3  0  0  0  0  0  0
  -30.6800  -15.7460   19.6890 C   0  0  0  0  0  0  0  0  0  0  0  0
  -30.6750  -13.2270   18.9430 C   0  0  0  0  0  2  0  0  0  0  0  0
  -29.7220  -12.9960   17.7410 C   0  0  0  0  0  2  0  0  0  0  0  0
  -28.2900  -12.7090   18.2330 C   0  0  0  0  0  2  0  0  0  0  0  0
  -27.8770  -13.6700   19.3770 C   0  0  0  0  0  3  0  0  0  0  0  0
  -28.9740  -13.8680   20.4460 C   0  0  0  0  0  2  0  0  0  0  0  0
  -30.1660  -14.4010   19.7670 N   0  0  0  0  0  0  0  0  0  0  0  0
  -31.8190  -15.7210   19.2000 O   0  0  0  0  0  0  0  0  0  0  0  0
  -25.5970  -14.2080   20.3650 C   0  0  0  0  0  0  0  0  0  0  0  0
  -24.5520  -13.4300   20.7760 C   0  0  0  0  0  0  0  0  0  0  0  0
  -24.9770  -12.0750   20.6110 C   0  0  0  0  0  0  0  0  0  0  0  0
  -26.5900  -13.3350   19.9660 N   0  0  0  0  0  0  0  0  0  0  0  0
  -26.2350  -12.0400   20.1750 N   0  0  0  0  0  0  0  0  0  0  0  0
  -24.2300  -10.8220   20.7860 C   0  0  0  0  0  0  0  0  0  0  0  0
  -24.6490   -9.8310   21.7010 C   0  0  0  0  0  3  0  0  0  0  0  0
  -23.9010   -8.6460   21.8680 C   0  0  0  0  0  3  0  0  0  0  0  0
  -22.7180   -8.4430   21.1190 C   0  0  0  0  0  0  0  0  0  0  0  0
  -22.3180   -9.4200   20.1920 C   0  0  0  0  0  3  0  0  0  0  0  0
  -23.0660  -10.5950   20.0230 C   0  0  0  0  0  3  0  0  0  0  0  0
  -21.9420   -7.3080   21.1930 O   0  0  0  0  0  0  0  0  0  0  0  0
  -21.7930   -6.6150   22.3660 C   0  0  0  0  0  0  0  0  0  0  0  0
  -21.2500   -7.2160   23.5220 C   0  0  0  0  0  3  0  0  0  0  0  0
  -21.0450   -6.4470   24.6860 C   0  0  0  0  0  3  0  0  0  0  0  0
  -21.3790   -5.0790   24.6950 C   0  0  0  0  0  0  0  0  0  0  0  0
  -21.9170   -4.4780   23.5440 C   0  0  0  0  0  3  0  0  0  0  0  0
  -22.1220   -5.2450   22.3810 C   0  0  0  0  0  0  0  0  0  0  0  0
  -22.6220   -4.6560   21.2670 F   0  0  0  0  0  0  0  0  0  0  0  0
  -21.1780   -4.3380   25.8100 F   0  0  0  0  0  0  0  0  0  0  0  0
  -23.2000  -13.9230   21.2080 C   0  0  0  0  0  0  0  0  0  0  0  0
  -22.5440  -13.2040   22.1110 N   0  0  0  0  0  0  0  0  0  0  0  0
  -22.7370  -14.9790   20.7760 O   0  0  0  0  0  0  0  0  0  0  0  0
  -22.9350  -12.3550   22.4900 H   0  0  0  0  0  0  0  0  0  0  0  0
  -21.6390  -13.5180   22.4390 H   0  0  0  0  0  0  0  0  0  0  0  0
  -25.7760  -15.5870   20.2720 N   0  0  0  0  0  0  0  0  0  0  0  0
  -25.0340  -16.2360   20.5110 H   0  0  0  0  0  0  0  0  0  0  0  0
  -26.6120  -16.0450   19.9320 H   0  0  0  0  0  0  0  0  0  0  0  0
  -28.4520  -24.4050   19.4350 C   0  0  0  0  0  2  0  0  0  0  0  0
  -28.4530  -26.0390   19.8900 O   0  0  0  0  0  0  0  0  0  0  0  0
  -24.6930  -31.8130   23.0240 C   0  0  0  0  0  0  0  0  0  0  0  0
  -27.4280  -27.1510   19.7750 C   0  0  0  0  0  0  0  0  0  0  0  0
  -23.5450  -30.4390   21.3310 C   0  0  0  0  0  3  0  0  0  0  0  0
  -25.0560  -28.9790   19.7990 C   0  0  0  0  0  0  0  0  0  0  0  0
  -26.0940  -30.7790   21.1620 C   0  0  0  0  0  2  0  0  0  0  0  0
  -26.2270  -29.3970   20.4400 C   0  0  0  0  0  0  0  0  0  0  0  0
  -27.3990  -28.5010   20.4120 C   0  0  0  0  0  3  0  0  0  0  0  0
  -26.2320  -26.9220   19.0560 C   0  0  0  0  0  3  0  0  0  0  0  0
  -25.0880  -27.7690   19.0830 C   0  0  0  0  0  3  0  0  0  0  0  0
  -23.7900  -29.8320   19.9170 C   0  0  0  0  0  2  0  0  0  0  0  0
  -24.7970  -31.0400   21.8920 N   0  0  0  0  0  0  0  0  0  0  0  0
  -23.6010  -32.0160   23.5770 O   0  0  0  0  0  0  0  0  0  0  0  0
  -22.9180  -29.3640   22.2600 C   0  0  0  0  0  0  0  0  0  0  0  0
  -21.6000  -29.1210   22.1400 N   0  0  0  0  0  0  0  0  0  0  0  0
  -23.6310  -28.7520   23.0580 O   0  0  0  0  0  0  0  0  0  0  0  0
  -21.0750  -29.6700   21.4740 H   0  0  0  0  0  0  0  0  0  0  0  0
  -18.3140  -27.6510   22.6180 C   0  0  0  0  0  0  0  0  0  0  0  0
  -20.8500  -28.1000   22.8800 C   0  0  0  0  0  3  0  0  0  0  0  0
  -21.0520  -26.7000   22.2550 C   0  0  0  0  0  2  0  0  0  0  0  0
  -19.9730  -26.3330   21.2320 C   0  0  0  0  0  2  0  0  0  0  0  0
  -18.5870  -26.3480   21.8840 C   0  0  0  0  0  2  0  0  0  0  0  0
  -19.3760  -28.4800   23.0720 C   0  0  0  0  0  0  0  0  0  0  0  0
  -19.0640  -29.6920   23.7260 C   0  0  0  0  0  3  0  0  0  0  0  0
  -17.7280  -30.0820   23.9260 C   0  0  0  0  0  3  0  0  0  0  0  0
  -16.6810  -29.2530   23.4850 C   0  0  0  0  0  3  0  0  0  0  0  0
  -16.9760  -28.0380   22.8370 C   0  0  0  0  0  3  0  0  0  0  0  0
  -25.9370  -32.4960   23.6730 C   0  0  0  0  0  3  0  0  0  0  0  0
  -25.5570  -33.8670   24.0610 N   0  0  0  0  0  0  0  0  0  0  0  0
  -25.8300  -34.9700   23.3510 C   0  0  0  0  0  0  0  0  0  0  0  0
  -26.4830  -34.9400   22.3030 O   0  0  0  0  0  0  0  0  0  0  0  0
  -24.9670  -33.9590   24.8760 H   0  0  0  0  0  0  0  0  0  0  0  0
  -24.0090  -36.6980   23.1250 C   0  0  0  0  0  1  0  0  0  0  0  0
  -25.2960  -36.3200   23.8760 C   0  0  0  0  0  3  0  0  0  0  0  0
  -27.4030  -37.2910   24.6850 C   0  0  0  0  0  1  0  0  0  0  0  0
  -26.2790  -37.4210   23.7610 N   0  0  0  0  0  0  0  0  0  0  0  0
  -25.8380  -38.3230   23.9140 H   0  0  0  0  0  0  0  0  0  0  0  0
  -26.4900  -31.7130   24.9290 C   0  0  1  0  0  0  0  0  0  0  0  0
  -25.4070  -31.3930   25.9890 C   0  0  0  0  0  1  0  0  0  0  0  0
  -27.1370  -30.3730   24.5060 C   0  0  0  0  0  1  0  0  0  0  0  0
  -27.6040  -32.5390   25.6110 C   0  0  0  0  0  1  0  0  0  0  0  0
  2  1  1  0
  3  1  2  0
  4  2  2  0
  5  3  1  0
  6  5  2  0
  6  4  1  0
  7  8  2  0
  7  4  1  0
  9 15  1  0
  9  8  1  0
 10 15  1  0
 11 12  1  0
 11 10  1  0
 13 12  1  0
 13 20  1  0
 13 14  1  0
 15 14  1  0
 16  9  2  0
 17 18  2  0
 18 37  1  0
 19 18  1  0
 19 22  1  0
 20 21  1  0
 20 17  1  0
 21 19  2  0
 22 23  1  0
 23 24  2  0
 25 28  1  0
 25 24  1  0
 26 25  2  0
 27 26  1  0
 27 22  2  0
 28 29  1  0
 29 34  2  0
 29 30  1  0
 30 31  2  0
 31 32  1  0
 32 36  1  0
 33 32  2  0
 34 33  1  0
 35 34  1  0
 37 38  1  0
 38 41  1  0
 38 40  1  0
 39 37  2  0
 42 17  1  0
 42 43  1  0
 44 42  1  0
 45 46  1  0
 45  5  1  0
 47 58  2  0
 48 46  1  0
 48 53  1  0
 49 57  1  0
 49 59  1  0
 50 56  1  0
 50 52  1  0
 51 57  1  0
 52 51  1  0
 53 52  2  0
 54 55  1  0
 54 48  2  0
 55 50  2  0
 56 49  1  0
 57 47  1  0
 59 61  2  0
 60 59  1  0
 62 60  1  0
 63 72  2  0
 63 68  1  0
 64 60  1  0
 64 68  1  0
 65 64  1  0
 66 67  1  0
 66 65  1  0
 67 63  1  0
 68 69  2  0
 69 70  1  0
 71 70  2  0
 72 71  1  0
 73 47  1  0
 73 74  1  0
 73 83  1  0
 74 77  1  0
 75 79  1  0
 75 74  1  0
 76 75  2  0
 79 78  1  0
 81 79  1  0
 81 82  1  0
 81 80  1  0
 83 86  1  1
 83 84  1  0
 85 83  1  0
M  ISO  4   8 100   9 100  45 101  46 101
M  END
>  <TORSDO>  (40) 
F 18

>  <SCORE>  (40) 
-13.777

>  <name>  (40) 
40

>  <ligand_id>  (40) 
40

>  <original_smiles>  (40) 
[H]C(C(=O)N1C([H])([H])C([H])([H])C([H])([H])C([H])(n2nc(-c3c([H])c([H])c(Oc4c([H])c([H])c(F)c([H])c4F)c([H])c3[H])c(C(=O)N([H])[H])c2N([H])[H])C1([H])[H])=C([H])c1nc(C([H])([H])Oc2c([H])c([H])c3c(c2[H])C([H])([H])N(C(=O)C([H])(N([H])C(=O)C([H])(N([H])C([H])([H])[H])C([H])([H])[H])C(C([H])([H])[H])(C([H])([H])[H])C([H])([H])[H])C([H])(C(=O)N([H])C2([H])c4c([H])c([H])c([H])c([H])c4C([H])([H])C([H])([H])C2([H])[H])C3([H])[H])c([H])c([H])c1[H]

>  <smiles>  (40) 
[H]C(C(=O)N1C([H])([H])C([H])([H])C([H])([H])C([H])(n2nc(-c3c([H])c([H])c(Oc4c([H])c([H])c(F)c([H])c4F)c([H])c3[H])c(C(=O)N([H])[H])c2N([H])[H])C1([H])[H])=C([H])c1nc(C([H])([H])Oc2c([H])c([H])c3c(c2[H])C([H])([H])N(C(=O)C([H])(N([H])C(=O)C([H])(N([H])C([H])([H])[H])C([H])([H])[H])C(C([H])([H])[H])(C([H])([H])[H])C([H])([H])[H])C([H])(C(=O)N([H])C2([H])c4c([H])c([H])c([H])c([H])c4C([H])([H])C([H])([H])C2([H])[H])C3([H])[H])c([H])c([H])c1[H]

$$$$
41:0:0
     RDKit          3D

 94101  0  0  1  0  0  0  0  0999 V2000
  -29.6550  -20.6460   20.2930 C   0  0  0  0  0  3  0  0  0  0  0  0
  -29.1730  -19.1430   20.2620 N   0  0  0  0  0  4  0  0  0  0  0  0
  -28.4810  -19.0660   19.5370 H   0  0  0  0  0  0  0  0  0  0  0  0
  -28.6990  -18.9960   21.1380 H   0  0  0  0  0  0  0  0  0  0  0  0
  -30.1410  -17.9010   20.1070 C   0  0  0  0  0  3  0  0  0  0  0  0
  -31.2680  -18.0120   21.1460 C   0  0  0  0  0  0  0  0  0  0  0  0
  -32.4770  -17.5670   20.8280 N   0  0  0  0  0  0  0  0  0  0  0  0
  -31.0450  -18.4820   22.2620 O   0  0  0  0  0  0  0  0  0  0  0  0
  -32.6490  -17.1300   19.9310 H   0  0  0  0  0  0  0  0  0  0  0  0
  -33.2310  -17.6190   21.4980 H   0  0  0  0  0  0  0  0  0  0  0  0
  -29.5640  -16.3380   20.2120 C   0  0  0  0  0  2  0  0  0  0  0  0
  -30.4380  -14.9640   19.9750 C   0  0  0  0  0  0  0  0  0  0  0  0
  -30.2700  -12.6530   18.9790 C   0  0  0  0  0  2  0  0  0  0  0  0
  -29.2520  -12.6930   17.8140 C   0  0  0  0  0  2  0  0  0  0  0  0
  -27.8160  -12.4750   18.3310 C   0  0  0  0  0  2  0  0  0  0  0  0
  -27.4970  -13.3570   19.5660 C   0  0  0  0  0  3  0  0  0  0  0  0
  -28.6230  -13.2920   20.6180 C   0  0  0  0  0  2  0  0  0  0  0  0
  -29.8740  -13.6960   19.9610 N   0  0  0  0  0  0  0  0  0  0  0  0
  -31.6110  -15.0670   19.6010 O   0  0  0  0  0  0  0  0  0  0  0  0
  -25.1690  -13.9220   20.4770 C   0  0  0  0  0  0  0  0  0  0  0  0
  -24.1270  -13.1350   20.8900 C   0  0  0  0  0  0  0  0  0  0  0  0
  -24.5840  -11.7860   20.7840 C   0  0  0  0  0  0  0  0  0  0  0  0
  -26.1910  -13.0490   20.1390 N   0  0  0  0  0  0  0  0  0  0  0  0
  -25.8520  -11.7580   20.3880 N   0  0  0  0  0  0  0  0  0  0  0  0
  -23.8660  -10.5180   20.9770 C   0  0  0  0  0  0  0  0  0  0  0  0
  -24.3120   -9.5510   21.9040 C   0  0  0  0  0  3  0  0  0  0  0  0
  -23.5940   -8.3490   22.0860 C   0  0  0  0  0  3  0  0  0  0  0  0
  -22.4150   -8.1070   21.3410 C   0  0  0  0  0  0  0  0  0  0  0  0
  -21.9880   -9.0630   20.4010 C   0  0  0  0  0  3  0  0  0  0  0  0
  -22.7070  -10.2560   20.2180 C   0  0  0  0  0  3  0  0  0  0  0  0
  -21.6670   -6.9580   21.4330 O   0  0  0  0  0  0  0  0  0  0  0  0
  -21.5870   -6.2440   22.6010 C   0  0  0  0  0  0  0  0  0  0  0  0
  -21.0860   -6.8150   23.7920 C   0  0  0  0  0  3  0  0  0  0  0  0
  -20.9560   -6.0250   24.9520 C   0  0  0  0  0  3  0  0  0  0  0  0
  -21.3160   -4.6640   24.9210 C   0  0  0  0  0  0  0  0  0  0  0  0
  -21.8110   -4.0930   23.7350 C   0  0  0  0  0  3  0  0  0  0  0  0
  -21.9430   -4.8810   22.5780 C   0  0  0  0  0  0  0  0  0  0  0  0
  -22.3990   -4.3190   21.4330 F   0  0  0  0  0  0  0  0  0  0  0  0
  -21.1840   -3.9040   26.0320 F   0  0  0  0  0  0  0  0  0  0  0  0
  -22.7510  -13.6050   21.2670 C   0  0  0  0  0  0  0  0  0  0  0  0
  -22.0790  -12.8800   22.1540 N   0  0  0  0  0  0  0  0  0  0  0  0
  -22.2840  -14.6470   20.8100 O   0  0  0  0  0  0  0  0  0  0  0  0
  -22.4670  -12.0330   22.5410 H   0  0  0  0  0  0  0  0  0  0  0  0
  -21.1580  -13.1760   22.4500 H   0  0  0  0  0  0  0  0  0  0  0  0
  -25.3260  -15.2970   20.3370 N   0  0  0  0  0  0  0  0  0  0  0  0
  -24.5690  -15.9480   20.5160 H   0  0  0  0  0  0  0  0  0  0  0  0
  -26.1500  -15.7430   19.9590 H   0  0  0  0  0  0  0  0  0  0  0  0
  -32.0120  -21.0280   19.5070 C   0  0  0  0  0  2  0  0  0  0  0  0
  -30.7130  -20.8530   19.2100 C   0  0  0  0  0  0  0  0  0  0  0  0
  -30.2290  -20.8700   17.7700 C   0  0  0  0  0  1  0  0  0  0  0  0
  -28.5720  -21.9230   20.2720 C   0  0  0  0  0  2  0  0  0  0  0  0
  -28.9910  -23.5420   20.3400 C   0  0  0  0  0  3  0  0  0  0  0  0
  -27.9130  -24.7980   20.1530 C   0  0  0  0  0  3  0  0  0  0  0  0
  -28.1900  -26.3090   20.2860 O   0  0  0  0  0  0  0  0  0  0  0  0
  -24.5860  -31.9470   23.3100 C   0  0  0  0  0  0  0  0  0  0  0  0
  -27.1200  -27.2640   20.2360 C   0  0  0  0  0  0  0  0  0  0  0  0
  -23.3620  -30.5650   21.6760 C   0  0  0  0  0  3  0  0  0  0  0  0
  -24.7880  -28.9900   20.2360 C   0  0  0  0  0  0  0  0  0  0  0  0
  -25.9110  -30.8270   21.4830 C   0  0  0  0  0  2  0  0  0  0  0  0
  -25.9750  -29.4390   20.8320 C   0  0  0  0  0  0  0  0  0  0  0  0
  -27.1400  -28.5910   20.8140 C   0  0  0  0  0  3  0  0  0  0  0  0
  -25.9040  -26.9060   19.6090 C   0  0  0  0  0  3  0  0  0  0  0  0
  -24.7630  -27.7330   19.6140 C   0  0  0  0  0  3  0  0  0  0  0  0
  -23.5650  -29.8900   20.2940 C   0  0  0  0  0  2  0  0  0  0  0  0
  -24.6410  -31.1330   22.2130 N   0  0  0  0  0  0  0  0  0  0  0  0
  -23.5060  -32.2390   23.8480 O   0  0  0  0  0  0  0  0  0  0  0  0
  -22.6860  -29.5580   22.6400 C   0  0  0  0  0  0  0  0  0  0  0  0
  -21.3640  -29.3630   22.4890 N   0  0  0  0  0  0  0  0  0  0  0  0
  -23.3530  -28.9540   23.4850 O   0  0  0  0  0  0  0  0  0  0  0  0
  -20.8870  -29.9040   21.7820 H   0  0  0  0  0  0  0  0  0  0  0  0
  -17.9980  -28.1010   22.9240 C   0  0  0  0  0  0  0  0  0  0  0  0
  -20.5430  -28.4230   23.2550 C   0  0  0  0  0  3  0  0  0  0  0  0
  -20.6880  -26.9820   22.7120 C   0  0  0  0  0  2  0  0  0  0  0  0
  -19.6210  -26.6170   21.6750 C   0  0  0  0  0  2  0  0  0  0  0  0
  -18.2210  -26.7430   22.2800 C   0  0  0  0  0  2  0  0  0  0  0  0
  -19.0890  -28.8960   23.3690 C   0  0  0  0  0  0  0  0  0  0  0  0
  -18.8270  -30.1630   23.9320 C   0  0  0  0  0  3  0  0  0  0  0  0
  -17.5080  -30.6370   24.0590 C   0  0  0  0  0  3  0  0  0  0  0  0
  -16.4310  -29.8400   23.6330 C   0  0  0  0  0  3  0  0  0  0  0  0
  -16.6770  -28.5740   23.0700 C   0  0  0  0  0  3  0  0  0  0  0  0
  -25.8740  -32.5690   23.9300 C   0  0  0  0  0  3  0  0  0  0  0  0
  -25.5790  -33.9710   24.2640 N   0  0  0  0  0  0  0  0  0  0  0  0
  -25.8950  -35.0230   23.4970 C   0  0  0  0  0  0  0  0  0  0  0  0
  -26.5380  -34.9140   22.4490 O   0  0  0  0  0  0  0  0  0  0  0  0
  -25.0080  -34.1280   25.0810 H   0  0  0  0  0  0  0  0  0  0  0  0
  -24.1620  -36.8210   23.1950 C   0  0  0  0  0  1  0  0  0  0  0  0
  -25.4280  -36.4150   23.9640 C   0  0  0  0  0  3  0  0  0  0  0  0
  -27.5890  -37.3040   24.7220 C   0  0  0  0  0  1  0  0  0  0  0  0
  -26.4590  -37.4650   23.8110 N   0  0  0  0  0  0  0  0  0  0  0  0
  -26.0600  -38.3870   23.9630 H   0  0  0  0  0  0  0  0  0  0  0  0
  -26.3840  -31.7950   25.2080 C   0  0  1  0  0  0  0  0  0  0  0  0
  -25.2850  -31.5570   26.2710 C   0  0  0  0  0  1  0  0  0  0  0  0
  -26.9670  -30.4170   24.8170 C   0  0  0  0  0  1  0  0  0  0  0  0
  -27.5350  -32.5860   25.8760 C   0  0  0  0  0  1  0  0  0  0  0  0
  1 51  1  0
  2  1  1  0
  2  4  1  0
  3  2  1  0
  5 11  1  0
  5  2  1  0
  5  6  1  0
  6  8  2  0
  7  6  1  0
  7 10  1  0
  9  7  1  0
 12 11  1  0
 13 18  1  0
 14 15  1  0
 14 13  1  0
 16 15  1  0
 16 23  1  0
 16 17  1  0
 18 12  1  0
 18 17  1  0
 19 12  2  0
 20 21  2  0
 21 40  1  0
 22 21  1  0
 22 25  1  0
 23 24  1  0
 23 20  1  0
 24 22  2  0
 25 26  1  0
 26 27  2  0
 28 31  1  0
 28 27  1  0
 29 28  2  0
 30 29  1  0
 30 25  2  0
 31 32  1  0
 32 33  1  0
 33 34  2  0
 35 34  1  0
 35 39  1  0
 36 35  2  0
 37 32  2  0
 37 36  1  0
 38 37  1  0
 40 41  1  0
 41 44  1  0
 41 43  1  0
 42 40  2  0
 45 20  1  0
 45 46  1  0
 47 45  1  0
 49 48  2  0
 49  1  1  0
 50 49  1  0
 51 52  1  0
 53 54  1  0
 53 52  2  0
 55 66  2  0
 56 54  1  0
 56 61  1  0
 57 65  1  0
 57 67  1  0
 58 64  1  0
 58 60  1  0
 59 65  1  0
 60 59  1  0
 61 60  2  0
 62 63  1  0
 62 56  2  0
 63 58  2  0
 64 57  1  0
 65 55  1  0
 67 69  2  0
 68 67  1  0
 70 68  1  0
 71 80  2  0
 71 76  1  0
 72 68  1  0
 72 76  1  0
 73 72  1  0
 74 75  1  0
 74 73  1  0
 75 71  1  0
 76 77  2  0
 77 78  1  0
 79 78  2  0
 80 79  1  0
 81 55  1  0
 81 82  1  0
 81 91  1  0
 82 85  1  0
 83 87  1  0
 83 82  1  0
 84 83  2  0
 87 86  1  0
 89 90  1  0
 89 87  1  0
 89 88  1  0
 91 94  1  1
 91 92  1  0
 93 91  1  0
M  ISO  4  11 100  12 100  53 101  54 101
M  END
>  <TORSDO>  (41) 
F 24

>  <SCORE>  (41) 
-12.377

>  <name>  (41) 
41

>  <ligand_id>  (41) 
41

>  <original_smiles>  (41) 
[H]C([H])=C(C([H])([H])[H])C([H])(C([H])([H])C([H])([H])C([H])([H])Oc1c([H])c([H])c2c(c1[H])C([H])([H])N(C(=O)C([H])(N([H])C(=O)C([H])(N([H])C([H])([H])[H])C([H])([H])[H])C(C([H])([H])[H])(C([H])([H])[H])C([H])([H])[H])C([H])(C(=O)N([H])C1([H])c3c([H])c([H])c([H])c([H])c3C([H])([H])C([H])([H])C1([H])[H])C2([H])[H])[N+]([H])([H])C([H])(C(=O)N([H])[H])C([H])([H])C(=O)N1C([H])([H])C([H])([H])C([H])([H])C([H])(n2nc(-c3c([H])c([H])c(Oc4c([H])c([H])c(F)c([H])c4F)c([H])c3[H])c(C(=O)N([H])[H])c2N([H])[H])C1([H])[H]

>  <smiles>  (41) 
[H]C([H])=C(C([H])([H])[H])C([H])(C([H])([H])C([H])([H])C([H])([H])Oc1c([H])c([H])c2c(c1[H])C([H])([H])N(C(=O)C([H])(N([H])C(=O)C([H])(N([H])C([H])([H])[H])C([H])([H])[H])C(C([H])([H])[H])(C([H])([H])[H])C([H])([H])[H])C([H])(C(=O)N([H])C1([H])c3c([H])c([H])c([H])c([H])c3C([H])([H])C([H])([H])C1([H])[H])C2([H])[H])[N+]([H])([H])C([H])(C(=O)N([H])[H])C([H])([H])C(=O)N1C([H])([H])C([H])([H])C([H])([H])C([H])(n2nc(-c3c([H])c([H])c(Oc4c([H])c([H])c(F)c([H])c4F)c([H])c3[H])c(C(=O)N([H])[H])c2N([H])[H])C1([H])[H]

$$$$
42:0:0
     RDKit          3D

 92 99  0  0  1  0  0  0  0  0999 V2000
  -29.8180  -19.1750   20.4960 C   0  0  0  0  0  3  0  0  0  0  0  0
  -29.1300  -20.3160   20.1710 N   0  0  0  0  0  2  0  0  0  0  0  0
  -28.6990  -17.7320   18.6050 C   0  0  0  0  0  1  0  0  0  0  0  0
  -29.7990  -17.6790   19.6810 C   0  0  0  0  0  3  0  0  0  0  0  0
  -30.5320  -15.0150   19.9750 C   0  0  0  0  0  0  0  0  0  0  0  0
  -30.3570  -12.6840   18.9820 C   0  0  0  0  0  2  0  0  0  0  0  0
  -29.3580  -12.6900   17.7990 C   0  0  0  0  0  2  0  0  0  0  0  0
  -27.9200  -12.4720   18.3040 C   0  0  0  0  0  2  0  0  0  0  0  0
  -27.5880  -13.3550   19.5340 C   0  0  0  0  0  3  0  0  0  0  0  0
  -28.7040  -13.3190   20.6030 C   0  0  0  0  0  2  0  0  0  0  0  0
  -29.9430  -13.7490   19.9460 N   0  0  0  0  0  0  0  0  0  0  0  0
  -31.6920  -15.0960   19.5570 O   0  0  0  0  0  0  0  0  0  0  0  0
  -29.7680  -16.1920   20.2660 N   0  0  0  0  0  0  0  0  0  0  0  0
  -28.8620  -15.9440   20.6350 H   0  0  0  0  0  0  0  0  0  0  0  0
  -25.2500  -13.9180   20.4030 C   0  0  0  0  0  0  0  0  0  0  0  0
  -24.2080  -13.1360   20.8190 C   0  0  0  0  0  0  0  0  0  0  0  0
  -24.6710  -11.7870   20.7420 C   0  0  0  0  0  0  0  0  0  0  0  0
  -26.2790  -13.0450   20.0950 N   0  0  0  0  0  0  0  0  0  0  0  0
  -25.9430  -11.7570   20.3640 N   0  0  0  0  0  0  0  0  0  0  0  0
  -23.9540  -10.5210   20.9480 C   0  0  0  0  0  0  0  0  0  0  0  0
  -24.4150   -9.5510   21.8670 C   0  0  0  0  0  3  0  0  0  0  0  0
  -23.6950   -8.3520   22.0620 C   0  0  0  0  0  3  0  0  0  0  0  0
  -22.5020   -8.1140   21.3400 C   0  0  0  0  0  0  0  0  0  0  0  0
  -22.0610   -9.0730   20.4100 C   0  0  0  0  0  3  0  0  0  0  0  0
  -22.7800  -10.2620   20.2130 C   0  0  0  0  0  3  0  0  0  0  0  0
  -21.7520   -6.9680   21.4460 O   0  0  0  0  0  0  0  0  0  0  0  0
  -21.7150   -6.2360   22.6050 C   0  0  0  0  0  0  0  0  0  0  0  0
  -21.2840   -6.7990   23.8270 C   0  0  0  0  0  3  0  0  0  0  0  0
  -21.1950   -5.9930   24.9800 C   0  0  0  0  0  3  0  0  0  0  0  0
  -21.5260   -4.6270   24.9130 C   0  0  0  0  0  0  0  0  0  0  0  0
  -21.9510   -4.0650   23.6960 C   0  0  0  0  0  3  0  0  0  0  0  0
  -22.0420   -4.8670   22.5460 C   0  0  0  0  0  0  0  0  0  0  0  0
  -22.4310   -4.3150   21.3710 F   0  0  0  0  0  0  0  0  0  0  0  0
  -21.4340   -3.8520   26.0190 F   0  0  0  0  0  0  0  0  0  0  0  0
  -22.8270  -13.6090   21.1690 C   0  0  0  0  0  0  0  0  0  0  0  0
  -22.1450  -12.9000   22.0610 N   0  0  0  0  0  0  0  0  0  0  0  0
  -22.3650  -14.6420   20.6870 O   0  0  0  0  0  0  0  0  0  0  0  0
  -22.5320  -12.0620   22.4700 H   0  0  0  0  0  0  0  0  0  0  0  0
  -21.2210  -13.2010   22.3410 H   0  0  0  0  0  0  0  0  0  0  0  0
  -25.4010  -15.2920   20.2360 N   0  0  0  0  0  0  0  0  0  0  0  0
  -24.6230  -15.9280   20.3640 H   0  0  0  0  0  0  0  0  0  0  0  0
  -26.1950  -15.7270   19.7860 H   0  0  0  0  0  0  0  0  0  0  0  0
  -32.3030  -19.1820   21.1540 C   0  0  0  0  0  1  0  0  0  0  0  0
  -30.8420  -19.1810   21.6440 C   0  0  0  0  0  3  0  0  0  0  0  0
  -30.5680  -18.0780   22.5840 N   0  0  0  0  0  4  0  0  0  0  0  0
  -30.7550  -17.1850   22.1680 H   0  0  0  0  0  0  0  0  0  0  0  0
  -29.6030  -18.1100   22.8640 H   0  0  0  0  0  0  0  0  0  0  0  0
  -31.1320  -18.1710   23.4110 H   0  0  0  0  0  0  0  0  0  0  0  0
  -29.4500  -21.8620   20.4590 C   0  0  0  0  0  2  0  0  0  0  0  0
  -28.3340  -23.1420   20.5990 C   0  0  0  0  0  2  0  0  0  0  0  0
  -28.4250  -24.7100   19.9200 C   0  0  0  0  0  2  0  0  0  0  0  0
  -28.2960  -26.1720   20.4790 O   0  0  0  0  0  0  0  0  0  0  0  0
  -24.6390  -31.9100   23.2720 C   0  0  0  0  0  0  0  0  0  0  0  0
  -27.2270  -27.1330   20.3240 C   0  0  0  0  0  0  0  0  0  0  0  0
  -23.4430  -30.4820   21.6570 C   0  0  0  0  0  3  0  0  0  0  0  0
  -24.8940  -28.8800   20.2520 C   0  0  0  0  0  0  0  0  0  0  0  0
  -25.9950  -30.7450   21.4900 C   0  0  0  0  0  2  0  0  0  0  0  0
  -26.0700  -29.3400   20.8580 C   0  0  0  0  0  0  0  0  0  0  0  0
  -27.2310  -28.4790   20.8790 C   0  0  0  0  0  3  0  0  0  0  0  0
  -26.0280  -26.7760   19.6700 C   0  0  0  0  0  3  0  0  0  0  0  0
  -24.8870  -27.6130   19.6420 C   0  0  0  0  0  3  0  0  0  0  0  0
  -23.6650  -29.7770   20.2890 C   0  0  0  0  0  2  0  0  0  0  0  0
  -24.7130  -31.0710   22.1920 N   0  0  0  0  0  0  0  0  0  0  0  0
  -23.5530  -32.2010   23.7960 O   0  0  0  0  0  0  0  0  0  0  0  0
  -22.7650  -29.4920   22.6380 C   0  0  0  0  0  0  0  0  0  0  0  0
  -21.4430  -29.2940   22.4930 N   0  0  0  0  0  0  0  0  0  0  0  0
  -23.4330  -28.9040   23.4920 O   0  0  0  0  0  0  0  0  0  0  0  0
  -20.9600  -29.8200   21.7780 H   0  0  0  0  0  0  0  0  0  0  0  0
  -18.0820  -28.0190   22.9500 C   0  0  0  0  0  0  0  0  0  0  0  0
  -20.6250  -28.3640   23.2770 C   0  0  0  0  0  3  0  0  0  0  0  0
  -20.7830  -26.9140   22.7630 C   0  0  0  0  0  2  0  0  0  0  0  0
  -19.7210  -26.5230   21.7310 C   0  0  0  0  0  2  0  0  0  0  0  0
  -18.3160  -26.6510   22.3300 C   0  0  0  0  0  2  0  0  0  0  0  0
  -19.1670  -28.8290   23.3800 C   0  0  0  0  0  0  0  0  0  0  0  0
  -18.8950  -30.1050   23.9200 C   0  0  0  0  0  3  0  0  0  0  0  0
  -17.5730  -30.5720   24.0340 C   0  0  0  0  0  3  0  0  0  0  0  0
  -16.5030  -29.7600   23.6190 C   0  0  0  0  0  3  0  0  0  0  0  0
  -16.7580  -28.4850   23.0820 C   0  0  0  0  0  3  0  0  0  0  0  0
  -25.9150  -32.5580   23.8880 C   0  0  0  0  0  3  0  0  0  0  0  0
  -26.4160  -31.8220   25.1930 C   0  0  1  0  0  0  0  0  0  0  0  0
  -25.3130  -31.6160   26.2560 C   0  0  0  0  0  1  0  0  0  0  0  0
  -27.0010  -30.4330   24.8520 C   0  0  0  0  0  1  0  0  0  0  0  0
  -27.5630  -32.6330   25.8420 C   0  0  0  0  0  1  0  0  0  0  0  0
  -25.6030  -33.9660   24.1860 N   0  0  0  0  0  0  0  0  0  0  0  0
  -25.9370  -35.0050   23.4070 C   0  0  0  0  0  0  0  0  0  0  0  0
  -26.6050  -34.8770   22.3770 O   0  0  0  0  0  0  0  0  0  0  0  0
  -25.0040  -34.1370   24.9800 H   0  0  0  0  0  0  0  0  0  0  0  0
  -24.2060  -36.7940   23.0320 C   0  0  0  0  0  1  0  0  0  0  0  0
  -25.4570  -36.4050   23.8370 C   0  0  0  0  0  3  0  0  0  0  0  0
  -27.5990  -37.3140   24.6200 C   0  0  0  0  0  1  0  0  0  0  0  0
  -26.4870  -37.4550   23.6840 N   0  0  0  0  0  0  0  0  0  0  0  0
  -26.0830  -38.3790   23.8110 H   0  0  0  0  0  0  0  0  0  0  0  0
  1  2  1  0
  1 44  1  0
  2 49  1  0
  4  3  1  0
  4 13  1  0
  4  1  1  0
  5 13  1  0
  6 11  1  0
  7  8  1  0
  7  6  1  0
  9  8  1  0
  9 18  1  0
  9 10  1  0
 11  5  1  0
 11 10  1  0
 12  5  2  0
 13 14  1  0
 15 16  2  0
 16 35  1  0
 17 16  1  0
 17 20  1  0
 18 19  1  0
 18 15  1  0
 19 17  2  0
 20 21  1  0
 21 22  2  0
 23 26  1  0
 23 22  1  0
 24 23  2  0
 25 24  1  0
 25 20  2  0
 26 27  1  0
 27 28  1  0
 28 29  2  0
 30 29  1  0
 30 34  1  0
 31 30  2  0
 32 27  2  0
 32 31  1  0
 33 32  1  0
 35 36  1  0
 36 39  1  0
 36 38  1  0
 37 35  2  0
 40 41  1  0
 40 15  1  0
 42 40  1  0
 44 43  1  0
 44 45  1  0
 45 47  1  0
 45 48  1  0
 46 45  1  0
 49 50  1  0
 51 52  1  0
 51 50  1  0
 53 64  2  0
 54 52  1  0
 54 59  1  0
 55 63  1  0
 55 65  1  0
 56 62  1  0
 56 58  1  0
 57 63  1  0
 58 59  2  0
 58 57  1  0
 60 54  2  0
 61 60  1  0
 61 56  2  0
 62 55  1  0
 63 53  1  0
 65 67  2  0
 66 65  1  0
 68 66  1  0
 69 78  2  0
 69 74  1  0
 70 66  1  0
 70 74  1  0
 71 70  1  0
 72 73  1  0
 72 71  1  0
 73 69  1  0
 74 75  2  0
 75 76  1  0
 77 76  2  0
 78 77  1  0
 79 53  1  0
 79 84  1  0
 79 80  1  0
 80 83  1  1
 80 81  1  0
 82 80  1  0
 84 87  1  0
 85 89  1  0
 85 84  1  0
 86 85  2  0
 89 88  1  0
 91 92  1  0
 91 89  1  0
 91 90  1  0
M  ISO  4   5 100  13 100  51 101  52 101
M  END
>  <TORSDO>  (42) 
F 22

>  <SCORE>  (42) 
-14.931

>  <name>  (42) 
42

>  <ligand_id>  (42) 
42

>  <original_smiles>  (42) 
[H]c1c([H])c([H])c2c(c1[H])C([H])([H])C([H])([H])C([H])([H])C2([H])N([H])C(=O)C1([H])N(C(=O)C([H])(N([H])C(=O)C([H])(N([H])C([H])([H])[H])C([H])([H])[H])C(C([H])([H])[H])(C([H])([H])[H])C([H])([H])[H])C([H])([H])c2c([H])c(OC([H])([H])C([H])([H])C([H])([H])N=C(C([H])(N([H])C(=O)N3C([H])([H])C([H])([H])C([H])([H])C([H])(n4nc(-c5c([H])c([H])c(Oc6c([H])c([H])c(F)c([H])c6F)c([H])c5[H])c(C(=O)N([H])[H])c4N([H])[H])C3([H])[H])C([H])([H])[H])C([H])(C([H])([H])[H])[N+]([H])([H])[H])c([H])c([H])c2C1([H])[H]

>  <smiles>  (42) 
[H]c1c([H])c([H])c2c(c1[H])C([H])([H])C([H])([H])C([H])([H])C2([H])N([H])C(=O)C1([H])N(C(=O)C([H])(N([H])C(=O)C([H])(N([H])C([H])([H])[H])C([H])([H])[H])C(C([H])([H])[H])(C([H])([H])[H])C([H])([H])[H])C([H])([H])c2c([H])c(OC([H])([H])C([H])([H])C([H])([H])N=C(C([H])(N([H])C(=O)N3C([H])([H])C([H])([H])C([H])([H])C([H])(n4nc(-c5c([H])c([H])c(Oc6c([H])c([H])c(F)c([H])c6F)c([H])c5[H])c(C(=O)N([H])[H])c4N([H])[H])C3([H])[H])C([H])([H])[H])C([H])(C([H])([H])[H])[N+]([H])([H])[H])c([H])c([H])c2C1([H])[H]

$$$$
43:0:0
     RDKit          3D

 89 96  0  0  1  0  0  0  0  0999 V2000
  -28.5150  -20.3070   20.2300 C   0  0  0  0  0  0  0  0  0  0  0  0
  -27.2260  -20.0300   20.4770 C   0  0  0  0  0  2  0  0  0  0  0  0
  -29.6560  -18.9830   20.2360 C   0  0  0  0  0  3  0  0  0  0  0  0
  -28.9730  -21.9720   19.9050 C   0  0  0  0  0  2  0  0  0  0  0  0
  -30.7180  -20.0120   19.6260 C   0  0  0  0  0  3  0  0  0  0  0  0
  -32.1460  -19.5660   19.9890 C   0  0  0  0  0  1  0  0  0  0  0  0
  -31.3200  -22.4790   19.2830 C   0  0  0  0  0  1  0  0  0  0  0  0
  -30.4350  -21.5320   19.9990 N   0  0  1  0  0  4  0  0  0  0  0  0
  -30.6680  -21.6220   20.9780 H   0  0  0  0  0  0  0  0  0  0  0  0
  -30.3610  -15.8130   19.8520 C   0  0  0  0  0  0  0  0  0  0  0  0
  -30.4130  -13.2900   18.9190 C   0  0  0  0  0  2  0  0  0  0  0  0
  -29.4390  -12.8910   17.7730 C   0  0  0  0  0  2  0  0  0  0  0  0
  -28.0650  -12.4950   18.3330 C   0  0  0  0  0  2  0  0  0  0  0  0
  -27.6230  -13.4650   19.4510 C   0  0  0  0  0  3  0  0  0  0  0  0
  -28.7320  -13.7720   20.4860 C   0  0  0  0  0  2  0  0  0  0  0  0
  -29.8340  -14.4440   19.7510 N   0  0  0  0  0  0  0  0  0  0  0  0
  -31.5870  -15.7440   19.6350 O   0  0  0  0  0  0  0  0  0  0  0  0
  -29.6000  -17.1850   20.0000 N   0  0  0  0  0  0  0  0  0  0  0  0
  -28.6240  -16.9290   20.0370 H   0  0  0  0  0  0  0  0  0  0  0  0
  -25.3300  -13.9510   20.4210 C   0  0  0  0  0  0  0  0  0  0  0  0
  -24.3040  -13.1520   20.8380 C   0  0  0  0  0  0  0  0  0  0  0  0
  -24.7760  -11.8070   20.7200 C   0  0  0  0  0  0  0  0  0  0  0  0
  -26.3540  -13.0970   20.0640 N   0  0  0  0  0  0  0  0  0  0  0  0
  -26.0410  -11.7970   20.3090 N   0  0  0  0  0  0  0  0  0  0  0  0
  -24.0680  -10.5340   20.9150 C   0  0  0  0  0  0  0  0  0  0  0  0
  -24.5220   -9.5690   21.8410 C   0  0  0  0  0  3  0  0  0  0  0  0
  -23.8090   -8.3650   22.0280 C   0  0  0  0  0  3  0  0  0  0  0  0
  -22.6290   -8.1160   21.2870 C   0  0  0  0  0  0  0  0  0  0  0  0
  -22.1940   -9.0700   20.3500 C   0  0  0  0  0  3  0  0  0  0  0  0
  -22.9070  -10.2650   20.1610 C   0  0  0  0  0  3  0  0  0  0  0  0
  -21.8860   -6.9640   21.3840 O   0  0  0  0  0  0  0  0  0  0  0  0
  -21.7900   -6.2650   22.5600 C   0  0  0  0  0  0  0  0  0  0  0  0
  -21.2250   -6.8360   23.7220 C   0  0  0  0  0  3  0  0  0  0  0  0
  -21.0820   -6.0600   24.8890 C   0  0  0  0  0  3  0  0  0  0  0  0
  -21.4930   -4.7150   24.8960 C   0  0  0  0  0  0  0  0  0  0  0  0
  -22.0510   -4.1430   23.7390 C   0  0  0  0  0  3  0  0  0  0  0  0
  -22.1960   -4.9160   22.5740 C   0  0  0  0  0  0  0  0  0  0  0  0
  -22.7150   -4.3530   21.4550 F   0  0  0  0  0  0  0  0  0  0  0  0
  -21.3490   -3.9670   26.0150 F   0  0  0  0  0  0  0  0  0  0  0  0
  -22.9280  -13.6100   21.2220 C   0  0  0  0  0  0  0  0  0  0  0  0
  -22.2710  -12.8880   22.1210 N   0  0  0  0  0  0  0  0  0  0  0  0
  -22.4490  -14.6460   20.7610 O   0  0  0  0  0  0  0  0  0  0  0  0
  -22.6750  -12.0510   22.5150 H   0  0  0  0  0  0  0  0  0  0  0  0
  -21.3510  -13.1770   22.4210 H   0  0  0  0  0  0  0  0  0  0  0  0
  -25.4670  -15.3290   20.2810 N   0  0  0  0  0  0  0  0  0  0  0  0
  -24.6980  -15.9660   20.4590 H   0  0  0  0  0  0  0  0  0  0  0  0
  -26.2690  -15.7820   19.8650 H   0  0  0  0  0  0  0  0  0  0  0  0
  -28.2990  -23.7820   20.3770 C   0  0  0  0  0  1  0  0  0  0  0  0
  -28.3900  -25.5550   20.1150 O   0  0  0  0  0  0  0  0  0  0  0  0
  -24.7570  -31.8270   23.1080 C   0  0  0  0  0  0  0  0  0  0  0  0
  -27.3890  -26.7640   20.1290 C   0  0  0  0  0  0  0  0  0  0  0  0
  -23.6120  -30.4280   21.4460 C   0  0  0  0  0  3  0  0  0  0  0  0
  -25.0990  -28.7970   20.0500 C   0  0  0  0  0  0  0  0  0  0  0  0
  -26.1920  -30.5910   21.3640 C   0  0  0  0  0  2  0  0  0  0  0  0
  -26.2840  -29.1580   20.7020 C   0  0  0  0  0  0  0  0  0  0  0  0
  -27.4140  -28.1730   20.7010 C   0  0  0  0  0  3  0  0  0  0  0  0
  -26.1630  -26.6240   19.4270 C   0  0  0  0  0  3  0  0  0  0  0  0
  -25.0790  -27.5560   19.3890 C   0  0  0  0  0  3  0  0  0  0  0  0
  -23.8830  -29.7390   20.0760 C   0  0  0  0  0  2  0  0  0  0  0  0
  -24.8770  -30.9820   22.0250 N   0  0  0  0  0  0  0  0  0  0  0  0
  -23.6520  -32.1110   23.6040 O   0  0  0  0  0  0  0  0  0  0  0  0
  -22.8900  -29.4370   22.4000 C   0  0  0  0  0  0  0  0  0  0  0  0
  -21.5570  -29.2870   22.2700 N   0  0  0  0  0  0  0  0  0  0  0  0
  -23.5430  -28.8000   23.2310 O   0  0  0  0  0  0  0  0  0  0  0  0
  -21.0790  -29.8500   21.5810 H   0  0  0  0  0  0  0  0  0  0  0  0
  -18.1570  -28.1250   22.8210 C   0  0  0  0  0  0  0  0  0  0  0  0
  -20.7290  -28.3380   23.0270 C   0  0  0  0  0  3  0  0  0  0  0  0
  -20.7870  -26.9270   22.3990 C   0  0  0  0  0  2  0  0  0  0  0  0
  -19.6560  -26.6630   21.3990 C   0  0  0  0  0  2  0  0  0  0  0  0
  -18.2930  -26.8040   22.0830 C   0  0  0  0  0  2  0  0  0  0  0  0
  -19.3000  -28.8530   23.2500 C   0  0  0  0  0  0  0  0  0  0  0  0
  -19.1140  -30.0870   23.9080 C   0  0  0  0  0  3  0  0  0  0  0  0
  -17.8220  -30.5960   24.1380 C   0  0  0  0  0  3  0  0  0  0  0  0
  -16.6950  -29.8660   23.7210 C   0  0  0  0  0  3  0  0  0  0  0  0
  -16.8640  -28.6320   23.0690 C   0  0  0  0  0  3  0  0  0  0  0  0
  -26.0010  -32.4900   23.7730 C   0  0  0  0  0  3  0  0  0  0  0  0
  -25.6550  -33.8870   24.1100 N   0  0  0  0  0  0  0  0  0  0  0  0
  -25.9800  -34.9630   23.3790 C   0  0  0  0  0  0  0  0  0  0  0  0
  -26.6590  -34.8850   22.3520 O   0  0  0  0  0  0  0  0  0  0  0  0
  -25.0480  -34.0180   24.9060 H   0  0  0  0  0  0  0  0  0  0  0  0
  -24.2420  -36.7580   23.0460 C   0  0  0  0  0  1  0  0  0  0  0  0
  -25.4780  -36.3410   23.8590 C   0  0  0  0  0  3  0  0  0  0  0  0
  -27.5860  -37.2450   24.7400 C   0  0  0  0  0  1  0  0  0  0  0  0
  -26.5020  -37.4070   23.7760 N   0  0  0  0  0  0  0  0  0  0  0  0
  -26.0820  -38.3210   23.9200 H   0  0  0  0  0  0  0  0  0  0  0  0
  -26.4820  -31.7340   25.0740 C   0  0  1  0  0  0  0  0  0  0  0  0
  -25.3570  -31.4910   26.1080 C   0  0  0  0  0  1  0  0  0  0  0  0
  -27.0950  -30.3600   24.7240 C   0  0  0  0  0  1  0  0  0  0  0  0
  -27.6000  -32.5470   25.7690 C   0  0  0  0  0  1  0  0  0  0  0  0
  1  3  1  0
  1  2  2  0
  3 18  1  0
  4  8  1  0
  4  1  1  0
  5  6  1  0
  5  8  1  0
  5  3  1  0
  7  8  1  0
  8  9  1  1
 10 18  1  0
 11 16  1  0
 12 13  1  0
 12 11  1  0
 14 13  1  0
 14 23  1  0
 14 15  1  0
 16 10  1  0
 16 15  1  0
 17 10  2  0
 18 19  1  0
 20 21  2  0
 21 40  1  0
 22 21  1  0
 22 25  1  0
 23 24  1  0
 23 20  1  0
 24 22  2  0
 25 26  1  0
 26 27  2  0
 28 31  1  0
 28 27  1  0
 29 28  2  0
 30 29  1  0
 30 25  2  0
 31 32  1  0
 32 37  2  0
 32 33  1  0
 33 34  2  0
 34 35  1  0
 35 39  1  0
 36 35  2  0
 37 36  1  0
 38 37  1  0
 40 41  1  0
 41 44  1  0
 41 43  1  0
 42 40  2  0
 45 20  1  0
 45 46  1  0
 47 45  1  0
 49 51  1  0
 49 48  1  0
 50 61  2  0
 51 56  1  0
 52 60  1  0
 52 62  1  0
 53 59  1  0
 53 55  1  0
 54 60  1  0
 55 54  1  0
 56 55  2  0
 57 51  2  0
 58 57  1  0
 58 53  2  0
 59 52  1  0
 60 50  1  0
 62 64  2  0
 63 62  1  0
 65 63  1  0
 66 75  2  0
 66 71  1  0
 67 63  1  0
 67 71  1  0
 68 67  1  0
 69 70  1  0
 69 68  1  0
 70 66  1  0
 71 72  2  0
 72 73  1  0
 74 73  2  0
 75 74  1  0
 76 50  1  0
 76 77  1  0
 76 86  1  0
 77 80  1  0
 78 82  1  0
 78 77  1  0
 79 78  2  0
 82 81  1  0
 84 82  1  0
 84 85  1  0
 84 83  1  0
 86 89  1  1
 86 87  1  0
 88 86  1  0
M  ISO  4  10 100  18 100  48 101  49 101
M  END
>  <TORSDO>  (43) 
F 17

>  <SCORE>  (43) 
-15.584

>  <name>  (43) 
43

>  <ligand_id>  (43) 
43

>  <original_smiles>  (43) 
[H]C([H])=C1C([H])(N([H])C(=O)N2C([H])([H])C([H])([H])C([H])([H])C([H])(n3nc(-c4c([H])c([H])c(Oc5c([H])c([H])c(F)c([H])c5F)c([H])c4[H])c(C(=O)N([H])[H])c3N([H])[H])C2([H])[H])C([H])(C([H])([H])[H])[N+]([H])(C([H])([H])[H])C1([H])C([H])([H])Oc1c([H])c([H])c2c(c1[H])C([H])([H])N(C(=O)C([H])(N([H])C(=O)C([H])(N([H])C([H])([H])[H])C([H])([H])[H])C(C([H])([H])[H])(C([H])([H])[H])C([H])([H])[H])C([H])(C(=O)N([H])C1([H])c3c([H])c([H])c([H])c([H])c3C([H])([H])C([H])([H])C1([H])[H])C2([H])[H]

>  <smiles>  (43) 
[H]C([H])=C1C([H])(N([H])C(=O)N2C([H])([H])C([H])([H])C([H])([H])C([H])(n3nc(-c4c([H])c([H])c(Oc5c([H])c([H])c(F)c([H])c5F)c([H])c4[H])c(C(=O)N([H])[H])c3N([H])[H])C2([H])[H])C([H])(C([H])([H])[H])[N+]([H])(C([H])([H])[H])C1([H])C([H])([H])Oc1c([H])c([H])c2c(c1[H])C([H])([H])N(C(=O)C([H])(N([H])C(=O)C([H])(N([H])C([H])([H])[H])C([H])([H])[H])C(C([H])([H])[H])(C([H])([H])[H])C([H])([H])[H])C([H])(C(=O)N([H])C1([H])c3c([H])c([H])c([H])c([H])c3C([H])([H])C([H])([H])C1([H])[H])C2([H])[H]

$$$$
44:0:0
     RDKit          3D

 90 97  0  0  1  0  0  0  0  0999 V2000
  -28.8510  -22.2170   20.6730 C   0  0  0  0  0  0  0  0  0  0  0  0
  -29.0020  -22.3960   22.1810 C   0  0  0  0  0  1  0  0  0  0  0  0
  -28.7320  -23.1900   19.8410 N   0  0  0  0  0  0  0  0  0  0  0  0
  -28.7000  -20.7720   20.1370 C   0  0  0  0  0  2  0  0  0  0  0  0
  -29.7870  -19.6310   22.2990 C   0  0  0  0  0  1  0  0  0  0  0  0
  -29.2840  -19.4940   20.8440 C   0  0  0  0  0  3  0  0  0  0  0  0
  -30.4450  -17.4950   20.1570 C   0  0  0  0  0  0  0  0  0  0  0  0
  -29.9000  -16.6360   21.2960 C   0  0  0  0  0  1  0  0  0  0  0  0
  -30.2270  -18.7530   19.9930 N   0  0  0  0  0  0  0  0  0  0  0  0
  -31.2470  -16.6950   19.1300 C   0  0  0  0  0  2  0  0  0  0  0  0
  -32.3290  -15.7400   19.7070 C   0  0  0  0  0  2  0  0  0  0  0  0
  -32.5390  -14.5140   18.7980 C   0  0  0  0  0  0  0  0  0  0  0  0
  -31.7360  -12.3900   17.8100 C   0  0  0  0  0  2  0  0  0  0  0  0
  -30.6520  -12.6580   16.7460 C   0  0  0  0  0  2  0  0  0  0  0  0
  -29.2580  -12.7630   17.3940 C   0  0  0  0  0  2  0  0  0  0  0  0
  -29.2410  -13.7210   18.6130 C   0  0  0  0  0  3  0  0  0  0  0  0
  -30.4080  -13.3950   19.5720 C   0  0  0  0  0  2  0  0  0  0  0  0
  -31.6690  -13.4660   18.8140 N   0  0  0  0  0  0  0  0  0  0  0  0
  -33.5080  -14.5480   18.0320 O   0  0  0  0  0  0  0  0  0  0  0  0
  -27.1640  -14.7480   19.7420 C   0  0  0  0  0  0  0  0  0  0  0  0
  -26.0320  -14.1820   20.2610 C   0  0  0  0  0  0  0  0  0  0  0  0
  -26.1790  -12.7730   20.0790 C   0  0  0  0  0  0  0  0  0  0  0  0
  -27.9510  -13.6940   19.2990 N   0  0  0  0  0  0  0  0  0  0  0  0
  -27.3650  -12.4960   19.5520 N   0  0  0  0  0  0  0  0  0  0  0  0
  -25.2340  -11.6760   20.3220 C   0  0  0  0  0  0  0  0  0  0  0  0
  -25.5370  -10.6250   21.2150 C   0  0  0  0  0  3  0  0  0  0  0  0
  -24.6050   -9.5900   21.4440 C   0  0  0  0  0  3  0  0  0  0  0  0
  -23.3540   -9.6020   20.7820 C   0  0  0  0  0  0  0  0  0  0  0  0
  -23.0670  -10.6390   19.8760 C   0  0  0  0  0  3  0  0  0  0  0  0
  -23.9980  -11.6640   19.6450 C   0  0  0  0  0  3  0  0  0  0  0  0
  -22.3980   -8.6260   20.9240 O   0  0  0  0  0  0  0  0  0  0  0  0
  -22.1710   -8.0100   22.1290 C   0  0  0  0  0  0  0  0  0  0  0  0
  -21.8790   -8.7460   23.2980 C   0  0  0  0  0  3  0  0  0  0  0  0
  -21.5850   -8.0710   24.5000 C   0  0  0  0  0  3  0  0  0  0  0  0
  -21.5710   -6.6630   24.5330 C   0  0  0  0  0  0  0  0  0  0  0  0
  -21.8570   -5.9290   23.3690 C   0  0  0  0  0  3  0  0  0  0  0  0
  -22.1520   -6.6010   22.1700 C   0  0  0  0  0  0  0  0  0  0  0  0
  -22.4050   -5.8880   21.0450 F   0  0  0  0  0  0  0  0  0  0  0  0
  -21.2810   -6.0130   25.6840 F   0  0  0  0  0  0  0  0  0  0  0  0
  -24.8340  -14.9100   20.8010 C   0  0  0  0  0  0  0  0  0  0  0  0
  -24.1690  -14.3420   21.8010 N   0  0  0  0  0  0  0  0  0  0  0  0
  -24.5070  -16.0150   20.3670 O   0  0  0  0  0  0  0  0  0  0  0  0
  -24.4470  -13.4460   22.1720 H   0  0  0  0  0  0  0  0  0  0  0  0
  -23.3700  -14.8120   22.2040 H   0  0  0  0  0  0  0  0  0  0  0  0
  -27.5750  -16.0670   19.5860 N   0  0  0  0  0  0  0  0  0  0  0  0
  -26.9690  -16.8430   19.8280 H   0  0  0  0  0  0  0  0  0  0  0  0
  -28.4000  -16.3520   19.0780 H   0  0  0  0  0  0  0  0  0  0  0  0
  -28.6060  -24.5720   20.3040 C   0  0  0  0  0  2  0  0  0  0  0  0
  -28.7630  -25.5920   19.1550 C   0  0  0  0  0  2  0  0  0  0  0  0
  -28.6700  -26.9390   19.6490 O   0  0  0  0  0  0  0  0  0  0  0  0
  -24.6640  -31.6690   23.1720 C   0  0  0  0  0  0  0  0  0  0  0  0
  -27.4470  -27.5880   19.7130 C   0  0  0  0  0  0  0  0  0  0  0  0
  -23.5140  -30.4140   21.3800 C   0  0  0  0  0  3  0  0  0  0  0  0
  -25.0190  -29.0470   19.8450 C   0  0  0  0  0  0  0  0  0  0  0  0
  -26.0380  -30.8330   21.2640 C   0  0  0  0  0  2  0  0  0  0  0  0
  -26.1590  -29.5310   20.4960 C   0  0  0  0  0  0  0  0  0  0  0  0
  -27.3730  -28.8100   20.4260 C   0  0  0  0  0  3  0  0  0  0  0  0
  -26.2750  -27.1130   19.0770 C   0  0  0  0  0  3  0  0  0  0  0  0
  -25.0710  -27.8380   19.1370 C   0  0  0  0  0  3  0  0  0  0  0  0
  -23.7590  -29.8780   19.9460 C   0  0  0  0  0  2  0  0  0  0  0  0
  -24.7560  -30.9810   21.9990 N   0  0  0  0  0  0  0  0  0  0  0  0
  -23.5690  -31.8680   23.7150 O   0  0  0  0  0  0  0  0  0  0  0  0
  -22.8690  -29.2910   22.2240 C   0  0  0  0  0  0  0  0  0  0  0  0
  -21.5510  -29.0960   22.0510 N   0  0  0  0  0  0  0  0  0  0  0  0
  -23.5500  -28.6020   22.9870 O   0  0  0  0  0  0  0  0  0  0  0  0
  -21.0630  -29.7080   21.4120 H   0  0  0  0  0  0  0  0  0  0  0  0
  -18.1940  -27.7940   22.3510 C   0  0  0  0  0  0  0  0  0  0  0  0
  -20.7390  -28.0730   22.7090 C   0  0  0  0  0  3  0  0  0  0  0  0
  -20.8840  -26.7060   22.0000 C   0  0  0  0  0  2  0  0  0  0  0  0
  -19.8120  -26.4620   20.9340 C   0  0  0  0  0  2  0  0  0  0  0  0
  -18.4140  -26.5180   21.5570 C   0  0  0  0  0  2  0  0  0  0  0  0
  -19.2860  -28.5330   22.8790 C   0  0  0  0  0  0  0  0  0  0  0  0
  -19.0290  -29.7300   23.5810 C   0  0  0  0  0  3  0  0  0  0  0  0
  -17.7100  -30.1890   23.7620 C   0  0  0  0  0  3  0  0  0  0  0  0
  -16.6330  -29.4460   23.2510 C   0  0  0  0  0  3  0  0  0  0  0  0
  -16.8740  -28.2500   22.5520 C   0  0  0  0  0  3  0  0  0  0  0  0
  -25.9280  -32.2580   23.8750 C   0  0  0  0  0  3  0  0  0  0  0  0
  -25.6020  -33.6290   24.2890 N   0  0  0  0  0  0  0  0  0  0  0  0
  -25.9870  -34.7320   23.6330 C   0  0  0  0  0  0  0  0  0  0  0  0
  -26.7210  -34.7000   22.6420 O   0  0  0  0  0  0  0  0  0  0  0  0
  -24.9560  -33.7290   25.0580 H   0  0  0  0  0  0  0  0  0  0  0  0
  -24.2980  -36.5660   23.2930 C   0  0  0  0  0  1  0  0  0  0  0  0
  -25.4730  -36.0860   24.1600 C   0  0  0  0  0  3  0  0  0  0  0  0
  -27.5430  -36.8790   25.2160 C   0  0  0  0  0  1  0  0  0  0  0  0
  -26.5170  -37.1330   24.2070 N   0  0  0  0  0  0  0  0  0  0  0  0
  -26.1060  -38.0440   24.3950 H   0  0  0  0  0  0  0  0  0  0  0  0
  -26.4090  -31.4000   25.1080 C   0  0  1  0  0  0  0  0  0  0  0  0
  -25.2820  -31.0680   26.1130 C   0  0  0  0  0  1  0  0  0  0  0  0
  -27.0300  -30.0640   24.6350 C   0  0  0  0  0  1  0  0  0  0  0  0
  -27.5210  -32.1590   25.8720 C   0  0  0  0  0  1  0  0  0  0  0  0
  1  2  1  0
  3 48  1  0
  3  1  2  0
  4  1  1  0
  4  6  1  0
  6  5  1  0
  7  8  1  0
  9  7  2  0
  9  6  1  0
 10 11  1  0
 10  7  1  0
 12 18  1  0
 12 11  1  0
 13 18  1  0
 14 15  1  0
 14 13  1  0
 16 15  1  0
 16 23  1  0
 16 17  1  0
 18 17  1  0
 19 12  2  0
 20 21  2  0
 21 40  1  0
 22 21  1  0
 22 25  1  0
 23 24  1  0
 23 20  1  0
 24 22  2  0
 25 26  1  0
 26 27  2  0
 28 31  1  0
 28 27  1  0
 29 28  2  0
 30 29  1  0
 30 25  2  0
 31 32  1  0
 32 37  2  0
 32 33  1  0
 33 34  2  0
 34 35  1  0
 35 39  1  0
 36 35  2  0
 37 36  1  0
 38 37  1  0
 40 41  1  0
 41 43  1  0
 41 44  1  0
 42 40  2  0
 45 20  1  0
 45 46  1  0
 47 45  1  0
 49 50  1  0
 49 48  1  0
 50 52  1  0
 51 62  2  0
 52 57  1  0
 53 61  1  0
 53 63  1  0
 54 60  1  0
 54 56  1  0
 55 61  1  0
 56 55  1  0
 57 56  2  0
 58 59  1  0
 58 52  2  0
 59 54  2  0
 60 53  1  0
 61 51  1  0
 63 65  2  0
 64 63  1  0
 66 64  1  0
 67 76  2  0
 67 72  1  0
 68 64  1  0
 68 72  1  0
 69 68  1  0
 70 71  1  0
 70 69  1  0
 71 67  1  0
 72 73  2  0
 73 74  1  0
 75 74  2  0
 76 75  1  0
 77 51  1  0
 77 78  1  0
 77 87  1  0
 78 81  1  0
 79 83  1  0
 79 78  1  0
 80 79  2  0
 83 82  1  0
 83 85  1  0
 85 86  1  0
 85 84  1  0
 87 90  1  1
 87 88  1  0
 89 87  1  0
M  ISO  4  11 100  12 100  49 101  50 101
M  END
>  <TORSDO>  (44) 
F 23

>  <SCORE>  (44) 
-6.848

>  <name>  (44) 
44

>  <ligand_id>  (44) 
44

>  <original_smiles>  (44) 
[H]c1c([H])c([H])c2c(c1[H])C([H])([H])C([H])([H])C([H])([H])C2([H])N([H])C(=O)C1([H])N(C(=O)C([H])(N([H])C(=O)C([H])(N([H])C([H])([H])[H])C([H])([H])[H])C(C([H])([H])[H])(C([H])([H])[H])C([H])([H])[H])C([H])([H])c2c([H])c(OC([H])([H])C([H])([H])N=C(C([H])([H])[H])C([H])([H])C([H])(N=C(C([H])([H])[H])C([H])([H])C([H])([H])C(=O)N3C([H])([H])C([H])([H])C([H])([H])C([H])(n4nc(-c5c([H])c([H])c(Oc6c([H])c([H])c(F)c([H])c6F)c([H])c5[H])c(C(=O)N([H])[H])c4N([H])[H])C3([H])[H])C([H])([H])[H])c([H])c([H])c2C1([H])[H]

>  <smiles>  (44) 
[H]c1c([H])c([H])c2c(c1[H])C([H])([H])C([H])([H])C([H])([H])C2([H])N([H])C(=O)C1([H])N(C(=O)C([H])(N([H])C(=O)C([H])(N([H])C([H])([H])[H])C([H])([H])[H])C(C([H])([H])[H])(C([H])([H])[H])C([H])([H])[H])C([H])([H])c2c([H])c(OC([H])([H])C([H])([H])N=C(C([H])([H])[H])C([H])([H])C([H])(N=C(C([H])([H])[H])C([H])([H])C([H])([H])C(=O)N3C([H])([H])C([H])([H])C([H])([H])C([H])(n4nc(-c5c([H])c([H])c(Oc6c([H])c([H])c(F)c([H])c6F)c([H])c5[H])c(C(=O)N([H])[H])c4N([H])[H])C3([H])[H])C([H])([H])[H])c([H])c([H])c2C1([H])[H]

$$$$
45:0:0
     RDKit          3D

 86 94  0  0  1  0  0  0  0  0999 V2000
  -29.1870  -21.3180   21.2240 C   0  0  0  0  0  3  0  0  0  0  0  0
  -28.3800  -21.1180   19.1690 C   0  0  0  0  0  3  0  0  0  0  0  0
  -29.5320  -19.8170   21.2250 C   0  0  0  0  0  3  0  0  0  0  0  0
  -28.7130  -19.6270   19.1720 C   0  0  0  0  0  3  0  0  0  0  0  0
  -28.5590  -22.1940   20.1860 C   0  0  0  0  0  0  0  0  0  0  0  0
  -29.3450  -18.7470   20.1930 C   0  0  0  0  0  0  0  0  0  0  0  0
  -30.2600  -15.7190   20.1520 C   0  0  0  0  0  0  0  0  0  0  0  0
  -30.3680  -13.1860   19.3140 C   0  0  0  0  0  2  0  0  0  0  0  0
  -29.4450  -12.7990   18.1230 C   0  0  0  0  0  2  0  0  0  0  0  0
  -28.0320  -12.4420   18.6110 C   0  0  0  0  0  2  0  0  0  0  0  0
  -27.5460  -13.4280   19.6970 C   0  0  0  0  0  3  0  0  0  0  0  0
  -28.6050  -13.7230   20.7850 C   0  0  0  0  0  2  0  0  0  0  0  0
  -29.7610  -14.3480   20.1030 N   0  0  0  0  0  0  0  0  0  0  0  0
  -31.4880  -15.6960   19.9420 O   0  0  0  0  0  0  0  0  0  0  0  0
  -29.4300  -17.0280   20.2420 N   0  0  0  0  0  0  0  0  0  0  0  0
  -28.4830  -16.6860   20.3090 H   0  0  0  0  0  0  0  0  0  0  0  0
  -25.2060  -13.9340   20.5460 C   0  0  0  0  0  0  0  0  0  0  0  0
  -24.1600  -13.1410   20.9260 C   0  0  0  0  0  0  0  0  0  0  0  0
  -24.6350  -11.7950   20.8480 C   0  0  0  0  0  0  0  0  0  0  0  0
  -26.2460  -13.0750   20.2480 N   0  0  0  0  0  0  0  0  0  0  0  0
  -25.9180  -11.7780   20.4970 N   0  0  0  0  0  0  0  0  0  0  0  0
  -23.9180  -10.5250   21.0260 C   0  0  0  0  0  0  0  0  0  0  0  0
  -24.3490   -9.5550   21.9580 C   0  0  0  0  0  3  0  0  0  0  0  0
  -23.6270   -8.3540   22.1270 C   0  0  0  0  0  3  0  0  0  0  0  0
  -22.4590   -8.1140   21.3660 C   0  0  0  0  0  0  0  0  0  0  0  0
  -22.0470   -9.0720   20.4240 C   0  0  0  0  0  3  0  0  0  0  0  0
  -22.7690  -10.2640   20.2520 C   0  0  0  0  0  3  0  0  0  0  0  0
  -21.7100   -6.9650   21.4440 O   0  0  0  0  0  0  0  0  0  0  0  0
  -21.6210   -6.2410   22.6070 C   0  0  0  0  0  0  0  0  0  0  0  0
  -21.1120   -6.8040   23.7970 C   0  0  0  0  0  3  0  0  0  0  0  0
  -20.9720   -6.0060   24.9500 C   0  0  0  0  0  3  0  0  0  0  0  0
  -21.3310   -4.6460   24.9130 C   0  0  0  0  0  0  0  0  0  0  0  0
  -21.8340   -4.0820   23.7270 C   0  0  0  0  0  3  0  0  0  0  0  0
  -21.9740   -4.8770   22.5770 C   0  0  0  0  0  0  0  0  0  0  0  0
  -22.4380   -4.3230   21.4310 F   0  0  0  0  0  0  0  0  0  0  0  0
  -21.1910   -3.8770   26.0190 F   0  0  0  0  0  0  0  0  0  0  0  0
  -22.7690  -13.6060   21.2420 C   0  0  0  0  0  0  0  0  0  0  0  0
  -22.0680  -12.8890   22.1130 N   0  0  0  0  0  0  0  0  0  0  0  0
  -22.3150  -14.6380   20.7530 O   0  0  0  0  0  0  0  0  0  0  0  0
  -22.4500  -12.0540   22.5310 H   0  0  0  0  0  0  0  0  0  0  0  0
  -21.1340  -13.1820   22.3670 H   0  0  0  0  0  0  0  0  0  0  0  0
  -25.3510  -15.3100   20.3950 N   0  0  0  0  0  0  0  0  0  0  0  0
  -24.5750  -15.9490   20.5370 H   0  0  0  0  0  0  0  0  0  0  0  0
  -26.1650  -15.7610   20.0010 H   0  0  0  0  0  0  0  0  0  0  0  0
  -27.7930  -23.9010   20.1770 C   0  0  0  0  0  2  0  0  0  0  0  0
  -28.1150  -25.6130   20.3110 O   0  0  0  0  0  0  0  0  0  0  0  0
  -24.6620  -31.9150   23.2510 C   0  0  0  0  0  0  0  0  0  0  0  0
  -27.1570  -26.8350   20.2600 C   0  0  0  0  0  0  0  0  0  0  0  0
  -23.4600  -30.5190   21.6230 C   0  0  0  0  0  3  0  0  0  0  0  0
  -24.8950  -28.8660   20.2080 C   0  0  0  0  0  0  0  0  0  0  0  0
  -26.0380  -30.6560   21.4870 C   0  0  0  0  0  2  0  0  0  0  0  0
  -26.0950  -29.2230   20.8340 C   0  0  0  0  0  0  0  0  0  0  0  0
  -27.2120  -28.2350   20.8280 C   0  0  0  0  0  3  0  0  0  0  0  0
  -25.9230  -26.6850   19.5790 C   0  0  0  0  0  3  0  0  0  0  0  0
  -24.8460  -27.6220   19.5560 C   0  0  0  0  0  3  0  0  0  0  0  0
  -23.6900  -29.8190   20.2540 C   0  0  0  0  0  2  0  0  0  0  0  0
  -24.7450  -31.0630   22.1720 N   0  0  0  0  0  0  0  0  0  0  0  0
  -23.5730  -32.2210   23.7660 O   0  0  0  0  0  0  0  0  0  0  0  0
  -22.7450  -29.5460   22.5990 C   0  0  0  0  0  0  0  0  0  0  0  0
  -21.4140  -29.3860   22.4710 N   0  0  0  0  0  0  0  0  0  0  0  0
  -23.4000  -28.9330   23.4470 O   0  0  0  0  0  0  0  0  0  0  0  0
  -20.9350  -29.9310   21.7680 H   0  0  0  0  0  0  0  0  0  0  0  0
  -18.0320  -28.1550   22.9720 C   0  0  0  0  0  0  0  0  0  0  0  0
  -20.5870  -28.4540   23.2490 C   0  0  0  0  0  3  0  0  0  0  0  0
  -20.7060  -27.0130   22.6990 C   0  0  0  0  0  2  0  0  0  0  0  0
  -19.6170  -26.6650   21.6810 C   0  0  0  0  0  2  0  0  0  0  0  0
  -18.2280  -26.8010   22.3110 C   0  0  0  0  0  2  0  0  0  0  0  0
  -19.1380  -28.9370   23.3980 C   0  0  0  0  0  0  0  0  0  0  0  0
  -18.8970  -30.2000   23.9820 C   0  0  0  0  0  3  0  0  0  0  0  0
  -17.5830  -30.6820   24.1390 C   0  0  0  0  0  3  0  0  0  0  0  0
  -16.4920  -29.8990   23.7250 C   0  0  0  0  0  3  0  0  0  0  0  0
  -16.7170  -28.6360   23.1490 C   0  0  0  0  0  3  0  0  0  0  0  0
  -25.9320  -32.5610   23.8830 C   0  0  0  0  0  3  0  0  0  0  0  0
  -25.6160  -33.9640   24.2200 N   0  0  0  0  0  0  0  0  0  0  0  0
  -25.9160  -35.0270   23.4620 C   0  0  0  0  0  0  0  0  0  0  0  0
  -26.5470  -34.9310   22.4070 O   0  0  0  0  0  0  0  0  0  0  0  0
  -25.0470  -34.1100   25.0410 H   0  0  0  0  0  0  0  0  0  0  0  0
  -24.1590  -36.8170   23.2140 C   0  0  0  0  0  1  0  0  0  0  0  0
  -25.4490  -36.4160   23.9480 C   0  0  0  0  0  3  0  0  0  0  0  0
  -27.6160  -37.3300   24.6580 C   0  0  0  0  0  1  0  0  0  0  0  0
  -26.4640  -37.4780   23.7730 N   0  0  0  0  0  0  0  0  0  0  0  0
  -26.0580  -38.3960   23.9330 H   0  0  0  0  0  0  0  0  0  0  0  0
  -26.4320  -31.8030   25.1750 C   0  0  1  0  0  0  0  0  0  0  0  0
  -25.3290  -31.5820   26.2370 C   0  0  0  0  0  1  0  0  0  0  0  0
  -27.0120  -30.4160   24.8140 C   0  0  0  0  0  1  0  0  0  0  0  0
  -27.5810  -32.5990   25.8380 C   0  0  0  0  0  1  0  0  0  0  0  0
  1  3  1  0
  2  4  2  0
  2  5  1  0
  4  6  1  0
  5  1  2  0
  6 15  1  0
  6  3  2  0
  7 15  1  0
  8 13  1  0
  9 10  1  0
  9  8  1  0
 11 10  1  0
 11 20  1  0
 11 12  1  0
 13  7  1  0
 13 12  1  0
 14  7  2  0
 15 16  1  0
 17 18  2  0
 18 37  1  0
 19 18  1  0
 19 22  1  0
 20 21  1  0
 20 17  1  0
 21 19  2  0
 22 23  1  0
 23 24  2  0
 25 28  1  0
 25 24  1  0
 26 25  2  0
 27 26  1  0
 27 22  2  0
 28 29  1  0
 29 30  1  0
 30 31  2  0
 32 31  1  0
 32 36  1  0
 33 32  2  0
 34 29  2  0
 34 33  1  0
 35 34  1  0
 37 38  1  0
 38 41  1  0
 38 40  1  0
 39 37  2  0
 42 43  1  0
 42 17  1  0
 44 42  1  0
 45  5  1  0
 45 46  1  0
 47 58  2  0
 48 46  1  0
 48 53  1  0
 49 57  1  0
 49 59  1  0
 50 56  1  0
 50 52  1  0
 51 57  1  0
 52 51  1  0
 53 52  2  0
 54 48  2  0
 55 54  1  0
 55 50  2  0
 56 49  1  0
 57 47  1  0
 59 61  2  0
 60 59  1  0
 62 60  1  0
 63 72  2  0
 63 68  1  0
 64 60  1  0
 64 68  1  0
 65 64  1  0
 66 67  1  0
 66 65  1  0
 67 63  1  0
 68 69  2  0
 69 70  1  0
 71 70  2  0
 72 71  1  0
 73 47  1  0
 73 74  1  0
 73 83  1  0
 74 77  1  0
 75 79  1  0
 75 74  1  0
 76 75  2  0
 79 78  1  0
 81 82  1  0
 81 79  1  0
 81 80  1  0
 83 86  1  1
 83 84  1  0
 85 83  1  0
M  ISO  4   7 100  15 100  45 101  46 101
M  END
>  <TORSDO>  (45) 
F 17

>  <SCORE>  (45) 
-16.448

>  <name>  (45) 
45

>  <ligand_id>  (45) 
45

>  <original_smiles>  (45) 
[H]c1c([H])c([H])c2c(c1[H])C([H])([H])C([H])([H])C([H])([H])C2([H])N([H])C(=O)C1([H])N(C(=O)C([H])(N([H])C(=O)C([H])(N([H])C([H])([H])[H])C([H])([H])[H])C(C([H])([H])[H])(C([H])([H])[H])C([H])([H])[H])C([H])([H])c2c([H])c(OC([H])([H])c3c([H])c([H])c(N([H])C(=O)N4C([H])([H])C([H])([H])C([H])([H])C([H])(n5nc(-c6c([H])c([H])c(Oc7c([H])c([H])c(F)c([H])c7F)c([H])c6[H])c(C(=O)N([H])[H])c5N([H])[H])C4([H])[H])c([H])c3[H])c([H])c([H])c2C1([H])[H]

>  <smiles>  (45) 
[H]c1c([H])c([H])c2c(c1[H])C([H])([H])C([H])([H])C([H])([H])C2([H])N([H])C(=O)C1([H])N(C(=O)C([H])(N([H])C(=O)C([H])(N([H])C([H])([H])[H])C([H])([H])[H])C(C([H])([H])[H])(C([H])([H])[H])C([H])([H])[H])C([H])([H])c2c([H])c(OC([H])([H])c3c([H])c([H])c(N([H])C(=O)N4C([H])([H])C([H])([H])C([H])([H])C([H])(n5nc(-c6c([H])c([H])c(Oc7c([H])c([H])c(F)c([H])c7F)c([H])c6[H])c(C(=O)N([H])[H])c5N([H])[H])C4([H])[H])c([H])c3[H])c([H])c([H])c2C1([H])[H]

$$$$
46:0:0
     RDKit          3D

 95102  0  0  1  0  0  0  0  0999 V2000
  -28.0650  -18.7590   19.7730 C   0  0  0  0  0  0  0  0  0  0  0  0
  -27.6040  -19.1760   20.9590 N   0  0  0  0  0  4  0  0  0  0  0  0
  -29.0980  -17.8930   19.6490 N   0  0  0  0  0  0  0  0  0  0  0  0
  -26.7880  -19.7690   20.9980 H   0  0  0  0  0  0  0  0  0  0  0  0
  -28.0040  -18.8610   21.8280 H   0  0  0  0  0  0  0  0  0  0  0  0
  -29.2940  -17.6340   18.6930 H   0  0  0  0  0  0  0  0  0  0  0  0
  -29.8120  -17.7790   22.0680 C   0  0  0  0  0  1  0  0  0  0  0  0
  -31.4930  -17.9540   20.2030 C   0  0  0  0  0  1  0  0  0  0  0  0
  -30.1190  -17.3890   20.6080 C   0  0  2  0  0  0  0  0  0  0  0  0
  -30.1260  -15.8410   20.5420 C   0  0  0  0  0  2  0  0  0  0  0  0
  -31.6670  -14.1420   19.4060 C   0  0  0  0  0  0  0  0  0  0  0  0
  -31.1950  -11.8630   18.6100 C   0  0  0  0  0  2  0  0  0  0  0  0
  -30.1560  -11.9170   17.4700 C   0  0  0  0  0  2  0  0  0  0  0  0
  -28.7160  -11.9190   18.0290 C   0  0  0  0  0  2  0  0  0  0  0  0
  -28.5210  -12.9460   19.1770 C   0  0  0  0  0  3  0  0  0  0  0  0
  -29.6570  -12.7960   20.2140 C   0  0  0  0  0  2  0  0  0  0  0  0
  -30.9250  -13.0020   19.5020 N   0  0  0  0  0  0  0  0  0  0  0  0
  -32.7720  -14.1680   18.8660 O   0  0  0  0  0  0  0  0  0  0  0  0
  -31.0490  -15.3290   19.5270 N   0  0  0  0  0  0  0  0  0  0  0  0
  -31.6360  -16.0510   19.1410 H   0  0  0  0  0  0  0  0  0  0  0  0
  -26.3060  -13.8100   20.1650 C   0  0  0  0  0  0  0  0  0  0  0  0
  -25.1940  -13.1560   20.6220 C   0  0  0  0  0  0  0  0  0  0  0  0
  -25.4750  -11.7610   20.4870 C   0  0  0  0  0  0  0  0  0  0  0  0
  -27.2010  -12.8200   19.7890 N   0  0  0  0  0  0  0  0  0  0  0  0
  -26.7080  -11.5800   20.0360 N   0  0  0  0  0  0  0  0  0  0  0  0
  -24.6180  -10.5890   20.7020 C   0  0  0  0  0  0  0  0  0  0  0  0
  -24.9810   -9.5680   21.6080 C   0  0  0  0  0  3  0  0  0  0  0  0
  -24.1340   -8.4580   21.8110 C   0  0  0  0  0  3  0  0  0  0  0  0
  -22.9100   -8.3620   21.1090 C   0  0  0  0  0  0  0  0  0  0  0  0
  -22.5650   -9.3690   20.1900 C   0  0  0  0  0  3  0  0  0  0  0  0
  -23.4120  -10.4710   19.9860 C   0  0  0  0  0  3  0  0  0  0  0  0
  -22.0360   -7.3100   21.2260 O   0  0  0  0  0  0  0  0  0  0  0  0
  -21.9160   -6.6010   22.3960 C   0  0  0  0  0  0  0  0  0  0  0  0
  -21.5470   -7.2220   23.6090 C   0  0  0  0  0  3  0  0  0  0  0  0
  -21.3670   -6.4450   24.7720 C   0  0  0  0  0  3  0  0  0  0  0  0
  -21.5450   -5.0500   24.7210 C   0  0  0  0  0  0  0  0  0  0  0  0
  -21.9050   -4.4280   23.5120 C   0  0  0  0  0  3  0  0  0  0  0  0
  -22.0870   -5.2020   22.3520 C   0  0  0  0  0  0  0  0  0  0  0  0
  -22.4160   -4.5960   21.1850 F   0  0  0  0  0  0  0  0  0  0  0  0
  -21.3640   -4.3020   25.8340 F   0  0  0  0  0  0  0  0  0  0  0  0
  -23.9030  -13.7850   21.0620 C   0  0  0  0  0  0  0  0  0  0  0  0
  -23.2040  -13.1550   22.0010 N   0  0  0  0  0  0  0  0  0  0  0  0
  -23.5310  -14.8670   20.6100 O   0  0  0  0  0  0  0  0  0  0  0  0
  -23.5210  -12.2780   22.3880 H   0  0  0  0  0  0  0  0  0  0  0  0
  -22.3380  -13.5530   22.3340 H   0  0  0  0  0  0  0  0  0  0  0  0
  -26.6200  -15.1580   20.0170 N   0  0  0  0  0  0  0  0  0  0  0  0
  -25.9470  -15.8870   20.2280 H   0  0  0  0  0  0  0  0  0  0  0  0
  -27.4370  -15.4990   19.5310 H   0  0  0  0  0  0  0  0  0  0  0  0
  -27.4200  -19.2090   18.6010 C   0  0  0  0  0  3  0  0  0  0  0  0
  -27.0650  -20.4850   18.3380 C   0  0  0  0  0  3  0  0  0  0  0  0
  -27.3190  -21.6970   19.2200 C   0  0  0  0  0  2  0  0  0  0  0  0
  -27.7320  -22.9470   18.4230 C   0  0  0  0  0  2  0  0  0  0  0  0
  -27.9660  -24.1710   19.3310 C   0  0  0  0  0  2  0  0  0  0  0  0
  -28.2530  -25.4630   18.5370 C   0  0  0  0  0  2  0  0  0  0  0  0
  -28.2110  -26.6280   19.3660 O   0  0  0  0  0  0  0  0  0  0  0  0
  -24.6420  -31.5500   23.0690 C   0  0  0  0  0  0  0  0  0  0  0  0
  -27.0240  -27.3220   19.4980 C   0  0  0  0  0  0  0  0  0  0  0  0
  -23.3170  -30.2970   21.4000 C   0  0  0  0  0  3  0  0  0  0  0  0
  -24.6550  -28.8460   19.7870 C   0  0  0  0  0  0  0  0  0  0  0  0
  -25.8340  -30.6250   21.0850 C   0  0  0  0  0  2  0  0  0  0  0  0
  -25.8530  -29.3030   20.3480 C   0  0  0  0  0  0  0  0  0  0  0  0
  -27.0360  -28.5420   20.2140 C   0  0  0  0  0  3  0  0  0  0  0  0
  -25.7990  -26.8750   18.9450 C   0  0  0  0  0  3  0  0  0  0  0  0
  -24.6210  -27.6260   19.0920 C   0  0  0  0  0  3  0  0  0  0  0  0
  -23.4340  -29.7180   19.9640 C   0  0  0  0  0  2  0  0  0  0  0  0
  -24.6180  -30.8340   21.9100 N   0  0  0  0  0  0  0  0  0  0  0  0
  -23.5990  -31.8000   23.6890 O   0  0  0  0  0  0  0  0  0  0  0  0
  -22.7010  -29.2150   22.3180 C   0  0  0  0  0  0  0  0  0  0  0  0
  -21.3740  -29.0310   22.2160 N   0  0  0  0  0  0  0  0  0  0  0  0
  -23.4120  -28.5470   23.0710 O   0  0  0  0  0  0  0  0  0  0  0  0
  -20.8630  -29.6250   21.5820 H   0  0  0  0  0  0  0  0  0  0  0  0
  -18.0330  -27.7510   22.6940 C   0  0  0  0  0  0  0  0  0  0  0  0
  -20.5860  -28.0430   22.9500 C   0  0  0  0  0  3  0  0  0  0  0  0
  -20.7100  -26.6430   22.3070 C   0  0  0  0  0  2  0  0  0  0  0  0
  -19.6000  -26.3390   21.2970 C   0  0  0  0  0  2  0  0  0  0  0  0
  -18.2240  -26.4340   21.9610 C   0  0  0  0  0  2  0  0  0  0  0  0
  -19.1410  -28.5120   23.1460 C   0  0  0  0  0  0  0  0  0  0  0  0
  -18.9080  -29.7440   23.7940 C   0  0  0  0  0  3  0  0  0  0  0  0
  -17.5960  -30.2140   23.9940 C   0  0  0  0  0  3  0  0  0  0  0  0
  -16.5010  -29.4490   23.5580 C   0  0  0  0  0  3  0  0  0  0  0  0
  -16.7200  -28.2190   22.9140 C   0  0  0  0  0  3  0  0  0  0  0  0
  -25.9740  -32.1120   23.6590 C   0  0  0  0  0  3  0  0  0  0  0  0
  -25.7050  -33.4740   24.1400 N   0  0  0  0  0  0  0  0  0  0  0  0
  -26.0020  -34.5910   23.4630 C   0  0  0  0  0  0  0  0  0  0  0  0
  -26.6040  -34.5800   22.3850 O   0  0  0  0  0  0  0  0  0  0  0  0
  -25.1650  -33.5540   24.9890 H   0  0  0  0  0  0  0  0  0  0  0  0
  -24.2720  -36.4140   23.3900 C   0  0  0  0  0  1  0  0  0  0  0  0
  -25.5590  -35.9320   24.0770 C   0  0  0  0  0  3  0  0  0  0  0  0
  -27.7500  -36.7280   24.8500 C   0  0  0  0  0  1  0  0  0  0  0  0
  -26.5930  -36.9860   23.9960 N   0  0  0  0  0  0  0  0  0  0  0  0
  -26.2060  -37.8900   24.2510 H   0  0  0  0  0  0  0  0  0  0  0  0
  -26.5670  -31.2180   24.8160 C   0  0  1  0  0  0  0  0  0  0  0  0
  -25.5470  -30.8790   25.9270 C   0  0  0  0  0  1  0  0  0  0  0  0
  -27.1080  -29.8850   24.2490 C   0  0  0  0  0  1  0  0  0  0  0  0
  -27.7660  -31.9400   25.4740 C   0  0  0  0  0  1  0  0  0  0  0  0
  1  2  2  0
  2  4  1  0
  2  5  1  0
  3  1  1  0
  3  9  1  0
  6  3  1  0
  9  8  1  6
  9  7  1  0
 10  9  1  0
 11 17  1  0
 11 19  1  0
 12 17  1  0
 13 14  1  0
 13 12  1  0
 15 14  1  0
 15 24  1  0
 15 16  1  0
 17 16  1  0
 18 11  2  0
 19 10  1  0
 20 19  1  0
 21 22  2  0
 22 41  1  0
 23 22  1  0
 23 26  1  0
 24 25  1  0
 24 21  1  0
 25 23  2  0
 26 27  1  0
 27 28  2  0
 29 32  1  0
 29 28  1  0
 30 29  2  0
 31 30  1  0
 31 26  2  0
 32 33  1  0
 33 34  1  0
 34 35  2  0
 36 35  1  0
 36 40  1  0
 37 36  2  0
 38 33  2  0
 38 37  1  0
 39 38  1  0
 41 42  1  0
 42 45  1  0
 42 44  1  0
 43 41  2  0
 46 21  1  0
 46 47  1  0
 48 46  1  0
 49  1  1  0
 50 49  2  0
 50 51  1  0
 52 51  1  0
 52 53  1  0
 54 53  1  0
 54 55  1  0
 55 57  1  0
 56 67  2  0
 57 62  1  0
 58 66  1  0
 58 68  1  0
 59 65  1  0
 59 61  1  0
 60 66  1  0
 61 60  1  0
 62 61  2  0
 63 64  1  0
 63 57  2  0
 64 59  2  0
 65 58  1  0
 66 56  1  0
 68 70  2  0
 69 68  1  0
 71 69  1  0
 72 81  2  0
 72 77  1  0
 73 69  1  0
 73 77  1  0
 74 73  1  0
 75 76  1  0
 75 74  1  0
 76 72  1  0
 77 78  2  0
 78 79  1  0
 80 79  2  0
 81 80  1  0
 82 56  1  0
 82 83  1  0
 82 92  1  0
 83 86  1  0
 84 88  1  0
 84 83  1  0
 85 84  2  0
 88 87  1  0
 90 88  1  0
 90 91  1  0
 90 89  1  0
 92 95  1  1
 92 93  1  0
 94 92  1  0
M  ISO  4  11 100  19 100  54 101  55 101
M  END
>  <TORSDO>  (46) 
F 23

>  <SCORE>  (46) 
-10.762

>  <name>  (46) 
46

>  <ligand_id>  (46) 
46

>  <original_smiles>  (46) 
[H]C(=C([H])C([H])([H])C([H])([H])C([H])([H])C([H])([H])Oc1c([H])c([H])c2c(c1[H])C([H])([H])N(C(=O)C([H])(N([H])C(=O)C([H])(N([H])C([H])([H])[H])C([H])([H])[H])C(C([H])([H])[H])(C([H])([H])[H])C([H])([H])[H])C([H])(C(=O)N([H])C1([H])c3c([H])c([H])c([H])c([H])c3C([H])([H])C([H])([H])C1([H])[H])C2([H])[H])C(N([H])[H])=[N+]([H])C(C([H])([H])[H])(C([H])([H])[H])C([H])([H])N([H])C(=O)N1C([H])([H])C([H])([H])C([H])([H])C([H])(n2nc(-c3c([H])c([H])c(Oc4c([H])c([H])c(F)c([H])c4F)c([H])c3[H])c(C(=O)N([H])[H])c2N([H])[H])C1([H])[H]

>  <smiles>  (46) 
[H]C(=C([H])C([H])([H])C([H])([H])C([H])([H])C([H])([H])Oc1c([H])c([H])c2c(c1[H])C([H])([H])N(C(=O)C([H])(N([H])C(=O)C([H])(N([H])C([H])([H])[H])C([H])([H])[H])C(C([H])([H])[H])(C([H])([H])[H])C([H])([H])[H])C([H])(C(=O)N([H])C1([H])c3c([H])c([H])c([H])c([H])c3C([H])([H])C([H])([H])C1([H])[H])C2([H])[H])C(N([H])[H])=[N+]([H])C(C([H])([H])[H])(C([H])([H])[H])C([H])([H])N([H])C(=O)N1C([H])([H])C([H])([H])C([H])([H])C([H])(n2nc(-c3c([H])c([H])c(Oc4c([H])c([H])c(F)c([H])c4F)c([H])c3[H])c(C(=O)N([H])[H])c2N([H])[H])C1([H])[H]

$$$$
47:0:0
     RDKit          3D

 90 97  0  0  1  0  0  0  0  0999 V2000
  -29.6570  -21.6680   20.0920 C   0  0  0  0  0  2  0  0  0  0  0  0
  -28.9170  -20.3790   19.9680 N   0  0  0  0  0  4  0  0  0  0  0  0
  -28.2250  -20.3370   20.7020 H   0  0  0  0  0  0  0  0  0  0  0  0
  -28.4130  -20.3840   19.0970 H   0  0  0  0  0  0  0  0  0  0  0  0
  -30.8760  -19.1960   21.0340 C   0  0  0  0  0  1  0  0  0  0  0  0
  -29.7430  -19.1390   19.9860 C   0  0  0  0  0  3  0  0  0  0  0  0
  -28.1880  -17.7290   21.5200 C   0  0  0  0  0  1  0  0  0  0  0  0
  -28.8780  -17.8520   20.1470 C   0  0  0  0  0  3  0  0  0  0  0  0
  -30.0440  -15.5720   20.5620 C   0  0  0  0  0  3  0  0  0  0  0  0
  -29.6810  -16.6070   19.7700 C   0  0  0  0  0  3  0  0  0  0  0  0
  -30.8010  -14.4770   19.9720 C   0  0  0  0  0  0  0  0  0  0  0  0
  -30.4630  -12.3070   18.8580 C   0  0  0  0  0  2  0  0  0  0  0  0
  -29.4780  -12.5400   17.6940 C   0  0  0  0  0  2  0  0  0  0  0  0
  -28.0150  -12.4260   18.1730 C   0  0  0  0  0  2  0  0  0  0  0  0
  -27.7410  -13.2520   19.4600 C   0  0  0  0  0  3  0  0  0  0  0  0
  -28.8340  -12.9980   20.5190 C   0  0  0  0  0  2  0  0  0  0  0  0
  -30.1410  -13.2890   19.9060 N   0  0  0  0  0  0  0  0  0  0  0  0
  -31.8970  -14.6590   19.4340 O   0  0  0  0  0  0  0  0  0  0  0  0
  -25.3760  -13.8820   20.2600 C   0  0  0  0  0  0  0  0  0  0  0  0
  -24.3160  -13.1190   20.6770 C   0  0  0  0  0  0  0  0  0  0  0  0
  -24.7650  -11.7620   20.6270 C   0  0  0  0  0  0  0  0  0  0  0  0
  -26.4040  -12.9910   19.9910 N   0  0  0  0  0  0  0  0  0  0  0  0
  -26.0390  -11.7110   20.2630 N   0  0  0  0  0  0  0  0  0  0  0  0
  -24.0400  -10.5050   20.8510 C   0  0  0  0  0  0  0  0  0  0  0  0
  -24.4630   -9.5690   21.8210 C   0  0  0  0  0  3  0  0  0  0  0  0
  -23.7370   -8.3780   22.0310 C   0  0  0  0  0  3  0  0  0  0  0  0
  -22.5760   -8.1130   21.2700 C   0  0  0  0  0  0  0  0  0  0  0  0
  -22.1700   -9.0380   20.2920 C   0  0  0  0  0  3  0  0  0  0  0  0
  -22.8960  -10.2220   20.0800 C   0  0  0  0  0  3  0  0  0  0  0  0
  -21.8230   -6.9690   21.3850 O   0  0  0  0  0  0  0  0  0  0  0  0
  -21.6970   -6.3060   22.5790 C   0  0  0  0  0  0  0  0  0  0  0  0
  -21.1810   -6.9400   23.7310 C   0  0  0  0  0  3  0  0  0  0  0  0
  -21.0030   -6.2040   24.9210 C   0  0  0  0  0  3  0  0  0  0  0  0
  -21.3320   -4.8370   24.9570 C   0  0  0  0  0  0  0  0  0  0  0  0
  -21.8420   -4.2020   23.8110 C   0  0  0  0  0  3  0  0  0  0  0  0
  -22.0210   -4.9350   22.6250 C   0  0  0  0  0  0  0  0  0  0  0  0
  -22.4920   -4.3140   21.5170 F   0  0  0  0  0  0  0  0  0  0  0  0
  -21.1570   -4.1280   26.0970 F   0  0  0  0  0  0  0  0  0  0  0  0
  -22.9380  -13.6060   21.0130 C   0  0  0  0  0  0  0  0  0  0  0  0
  -22.2520  -12.9180   21.9210 N   0  0  0  0  0  0  0  0  0  0  0  0
  -22.4760  -14.6290   20.5080 O   0  0  0  0  0  0  0  0  0  0  0  0
  -22.6410  -12.0910   22.3500 H   0  0  0  0  0  0  0  0  0  0  0  0
  -21.3250  -13.2180   22.1890 H   0  0  0  0  0  0  0  0  0  0  0  0
  -25.5420  -15.2510   20.0710 N   0  0  0  0  0  0  0  0  0  0  0  0
  -24.7860  -15.9170   20.2030 H   0  0  0  0  0  0  0  0  0  0  0  0
  -26.4020  -15.6820   19.7500 H   0  0  0  0  0  0  0  0  0  0  0  0
  -28.8450  -22.8660   19.5500 C   0  0  0  0  0  2  0  0  0  0  0  0
  -29.2740  -24.2620   20.0820 C   0  0  0  0  0  2  0  0  0  0  0  0
  -28.2600  -25.3320   19.6510 C   0  0  0  0  0  2  0  0  0  0  0  0
  -28.4220  -26.6530   20.2090 O   0  0  0  0  0  0  0  0  0  0  0  0
  -24.6250  -31.8500   23.3560 C   0  0  0  0  0  0  0  0  0  0  0  0
  -27.2750  -27.4390   20.1950 C   0  0  0  0  0  0  0  0  0  0  0  0
  -23.4400  -30.4840   21.6790 C   0  0  0  0  0  3  0  0  0  0  0  0
  -24.9010  -28.9910   20.2310 C   0  0  0  0  0  0  0  0  0  0  0  0
  -25.9770  -30.8280   21.5240 C   0  0  0  0  0  2  0  0  0  0  0  0
  -26.0620  -29.4730   20.8500 C   0  0  0  0  0  0  0  0  0  0  0  0
  -27.2540  -28.7040   20.8330 C   0  0  0  0  0  3  0  0  0  0  0  0
  -26.0870  -26.9980   19.5530 C   0  0  0  0  0  3  0  0  0  0  0  0
  -24.9090  -27.7530   19.5820 C   0  0  0  0  0  3  0  0  0  0  0  0
  -23.6670  -29.8590   20.2820 C   0  0  0  0  0  2  0  0  0  0  0  0
  -24.6990  -31.0660   22.2430 N   0  0  0  0  0  0  0  0  0  0  0  0
  -23.5360  -32.1140   23.8850 O   0  0  0  0  0  0  0  0  0  0  0  0
  -22.7800  -29.4320   22.6020 C   0  0  0  0  0  0  0  0  0  0  0  0
  -21.4590  -29.2450   22.4480 N   0  0  0  0  0  0  0  0  0  0  0  0
  -23.4540  -28.7940   23.4150 O   0  0  0  0  0  0  0  0  0  0  0  0
  -20.9730  -29.8180   21.7710 H   0  0  0  0  0  0  0  0  0  0  0  0
  -18.0780  -28.0410   22.8760 C   0  0  0  0  0  0  0  0  0  0  0  0
  -20.6320  -28.2920   23.1890 C   0  0  0  0  0  3  0  0  0  0  0  0
  -20.7430  -26.8720   22.5870 C   0  0  0  0  0  2  0  0  0  0  0  0
  -19.6550  -26.5690   21.5520 C   0  0  0  0  0  2  0  0  0  0  0  0
  -18.2650  -26.7040   22.1790 C   0  0  0  0  0  2  0  0  0  0  0  0
  -19.1910  -28.7940   23.3370 C   0  0  0  0  0  0  0  0  0  0  0  0
  -18.9640  -30.0480   23.9450 C   0  0  0  0  0  3  0  0  0  0  0  0
  -17.6580  -30.5490   24.0980 C   0  0  0  0  0  3  0  0  0  0  0  0
  -16.5590  -29.7920   23.6570 C   0  0  0  0  0  3  0  0  0  0  0  0
  -16.7700  -28.5420   23.0510 C   0  0  0  0  0  3  0  0  0  0  0  0
  -25.9020  -32.4730   23.9990 C   0  0  0  0  0  3  0  0  0  0  0  0
  -26.3650  -31.7200   25.3050 C   0  0  1  0  0  0  0  0  0  0  0  0
  -25.2340  -31.5170   26.3400 C   0  0  0  0  0  1  0  0  0  0  0  0
  -26.9410  -30.3280   24.9530 C   0  0  0  0  0  1  0  0  0  0  0  0
  -27.5060  -32.5090   25.9900 C   0  0  0  0  0  1  0  0  0  0  0  0
  -25.6110  -33.8820   24.2870 N   0  0  0  0  0  0  0  0  0  0  0  0
  -25.9620  -34.9090   23.5020 C   0  0  0  0  0  0  0  0  0  0  0  0
  -26.6410  -34.7680   22.4810 O   0  0  0  0  0  0  0  0  0  0  0  0
  -25.0100  -34.0680   25.0770 H   0  0  0  0  0  0  0  0  0  0  0  0
  -24.2540  -36.7040   23.0790 C   0  0  0  0  0  1  0  0  0  0  0  0
  -25.4850  -36.3150   23.9120 C   0  0  0  0  0  3  0  0  0  0  0  0
  -27.6210  -37.2030   24.7340 C   0  0  0  0  0  1  0  0  0  0  0  0
  -26.5300  -37.3530   23.7750 N   0  0  0  0  0  0  0  0  0  0  0  0
  -26.1320  -38.2820   23.8920 H   0  0  0  0  0  0  0  0  0  0  0  0
  2  6  1  0
  2  1  1  0
  2  3  1  0
  4  2  1  0
  6  8  1  0
  6  5  1  0
  8  7  1  0
 10  8  1  0
 10  9  2  0
 11  9  1  0
 12 17  1  0
 13 14  1  0
 13 12  1  0
 15 14  1  0
 15 22  1  0
 15 16  1  0
 17 11  1  0
 17 16  1  0
 18 11  2  0
 19 20  2  0
 20 39  1  0
 21 20  1  0
 21 24  1  0
 22 19  1  0
 22 23  1  0
 23 21  2  0
 24 25  1  0
 25 26  2  0
 27 30  1  0
 27 26  1  0
 28 27  2  0
 29 28  1  0
 29 24  2  0
 30 31  1  0
 31 36  2  0
 31 32  1  0
 32 33  2  0
 33 34  1  0
 34 38  1  0
 35 34  2  0
 36 35  1  0
 37 36  1  0
 39 40  1  0
 40 43  1  0
 40 42  1  0
 41 39  2  0
 44 45  1  0
 44 19  1  0
 46 44  1  0
 47 48  1  0
 47  1  1  0
 49 48  1  0
 49 50  1  0
 51 62  2  0
 52 50  1  0
 52 57  1  0
 53 61  1  0
 53 63  1  0
 54 60  1  0
 54 56  1  0
 55 61  1  0
 56 55  1  0
 57 56  2  0
 58 59  1  0
 58 52  2  0
 59 54  2  0
 60 53  1  0
 61 51  1  0
 63 65  2  0
 64 63  1  0
 66 64  1  0
 67 76  2  0
 67 72  1  0
 68 64  1  0
 68 72  1  0
 69 68  1  0
 70 71  1  0
 70 69  1  0
 71 67  1  0
 72 73  2  0
 73 74  1  0
 75 74  2  0
 76 75  1  0
 77 51  1  0
 77 82  1  0
 77 78  1  0
 78 81  1  1
 78 79  1  0
 80 78  1  0
 82 85  1  0
 83 87  1  0
 83 82  1  0
 84 83  2  0
 87 86  1  0
 89 90  1  0
 89 87  1  0
 89 88  1  0
M  ISO  4   9 100  11 100  49 101  50 101
M  END
>  <TORSDO>  (47) 
F 23

>  <SCORE>  (47) 
-10.980

>  <name>  (47) 
47

>  <ligand_id>  (47) 
47

>  <original_smiles>  (47) 
[H]C(C(=O)N1C([H])([H])C([H])([H])C([H])([H])C([H])(n2nc(-c3c([H])c([H])c(Oc4c([H])c([H])c(F)c([H])c4F)c([H])c3[H])c(C(=O)N([H])[H])c2N([H])[H])C1([H])[H])=C([H])C([H])(C([H])([H])[H])C([H])(C([H])([H])[H])[N+]([H])([H])C([H])([H])C([H])([H])C([H])([H])C([H])([H])Oc1c([H])c([H])c2c(c1[H])C([H])([H])N(C(=O)C([H])(N([H])C(=O)C([H])(N([H])C([H])([H])[H])C([H])([H])[H])C(C([H])([H])[H])(C([H])([H])[H])C([H])([H])[H])C([H])(C(=O)N([H])C1([H])c3c([H])c([H])c([H])c([H])c3C([H])([H])C([H])([H])C1([H])[H])C2([H])[H]

>  <smiles>  (47) 
[H]C(C(=O)N1C([H])([H])C([H])([H])C([H])([H])C([H])(n2nc(-c3c([H])c([H])c(Oc4c([H])c([H])c(F)c([H])c4F)c([H])c3[H])c(C(=O)N([H])[H])c2N([H])[H])C1([H])[H])=C([H])C([H])(C([H])([H])[H])C([H])(C([H])([H])[H])[N+]([H])([H])C([H])([H])C([H])([H])C([H])([H])C([H])([H])Oc1c([H])c([H])c2c(c1[H])C([H])([H])N(C(=O)C([H])(N([H])C(=O)C([H])(N([H])C([H])([H])[H])C([H])([H])[H])C(C([H])([H])[H])(C([H])([H])[H])C([H])([H])[H])C([H])(C(=O)N([H])C1([H])c3c([H])c([H])c([H])c([H])c3C([H])([H])C([H])([H])C1([H])[H])C2([H])[H]

$$$$
48:0:0
     RDKit          3D

 90 97  0  0  1  0  0  0  0  0999 V2000
  -29.8560  -21.6850   20.5350 C   0  0  0  0  0  0  0  0  0  0  0  0
  -29.7250  -22.8050   19.8070 N   0  0  0  0  0  0  0  0  0  0  0  0
  -30.6180  -21.6100   21.5010 O   0  0  0  0  0  0  0  0  0  0  0  0
  -29.1110  -22.7650   19.0040 H   0  0  0  0  0  0  0  0  0  0  0  0
  -28.9820  -20.4830   20.1500 C   0  0  0  0  0  2  0  0  0  0  0  0
  -29.2420  -18.1070   20.1460 C   0  0  0  0  0  0  0  0  0  0  0  0
  -27.7550  -17.8720   20.3980 C   0  0  0  0  0  1  0  0  0  0  0  0
  -29.7770  -19.2640   20.0340 N   0  0  0  0  0  0  0  0  0  0  0  0
  -30.0830  -16.9040   19.9500 C   0  0  0  0  0  3  0  0  0  0  0  0
  -29.8390  -15.6820   20.4820 C   0  0  0  0  0  3  0  0  0  0  0  0
  -30.6650  -14.5400   20.1030 C   0  0  0  0  0  0  0  0  0  0  0  0
  -30.4070  -12.2790   19.1680 C   0  0  0  0  0  2  0  0  0  0  0  0
  -29.4360  -12.3740   17.9700 C   0  0  0  0  0  2  0  0  0  0  0  0
  -27.9660  -12.2550   18.4280 C   0  0  0  0  0  2  0  0  0  0  0  0
  -27.6420  -13.1660   19.6440 C   0  0  0  0  0  3  0  0  0  0  0  0
  -28.7280  -13.0250   20.7340 C   0  0  0  0  0  2  0  0  0  0  0  0
  -30.0350  -13.3310   20.1250 N   0  0  0  0  0  0  0  0  0  0  0  0
  -31.7930  -14.6850   19.6180 O   0  0  0  0  0  0  0  0  0  0  0  0
  -25.2810  -13.7850   20.4690 C   0  0  0  0  0  0  0  0  0  0  0  0
  -24.2220  -13.0170   20.8730 C   0  0  0  0  0  0  0  0  0  0  0  0
  -24.6650  -11.6620   20.7870 C   0  0  0  0  0  0  0  0  0  0  0  0
  -26.3050  -12.9000   20.1740 N   0  0  0  0  0  0  0  0  0  0  0  0
  -25.9400  -11.6160   20.4190 N   0  0  0  0  0  0  0  0  0  0  0  0
  -23.9330  -10.4040   20.9780 C   0  0  0  0  0  0  0  0  0  0  0  0
  -24.3580   -9.4390   21.9170 C   0  0  0  0  0  3  0  0  0  0  0  0
  -23.6240   -8.2440   22.0980 C   0  0  0  0  0  3  0  0  0  0  0  0
  -22.4540   -8.0090   21.3380 C   0  0  0  0  0  0  0  0  0  0  0  0
  -22.0490   -8.9630   20.3870 C   0  0  0  0  0  3  0  0  0  0  0  0
  -22.7830  -10.1480   20.2060 C   0  0  0  0  0  3  0  0  0  0  0  0
  -21.6960   -6.8670   21.4250 O   0  0  0  0  0  0  0  0  0  0  0  0
  -21.5930   -6.1610   22.5970 C   0  0  0  0  0  0  0  0  0  0  0  0
  -21.0840   -6.7420   23.7790 C   0  0  0  0  0  3  0  0  0  0  0  0
  -20.9310   -5.9590   24.9400 C   0  0  0  0  0  3  0  0  0  0  0  0
  -21.2780   -4.5960   24.9200 C   0  0  0  0  0  0  0  0  0  0  0  0
  -21.7800   -4.0120   23.7430 C   0  0  0  0  0  3  0  0  0  0  0  0
  -21.9350   -4.7930   22.5840 C   0  0  0  0  0  0  0  0  0  0  0  0
  -22.3980   -4.2210   21.4460 F   0  0  0  0  0  0  0  0  0  0  0  0
  -21.1250   -3.8410   26.0330 F   0  0  0  0  0  0  0  0  0  0  0  0
  -22.8440  -13.5060   21.2190 C   0  0  0  0  0  0  0  0  0  0  0  0
  -22.1450  -12.8020   22.1020 N   0  0  0  0  0  0  0  0  0  0  0  0
  -22.3990  -14.5500   20.7420 O   0  0  0  0  0  0  0  0  0  0  0  0
  -22.5180  -11.9610   22.5160 H   0  0  0  0  0  0  0  0  0  0  0  0
  -21.2210  -13.1120   22.3690 H   0  0  0  0  0  0  0  0  0  0  0  0
  -25.4440  -15.1560   20.3040 N   0  0  0  0  0  0  0  0  0  0  0  0
  -24.6720  -15.8020   20.4290 H   0  0  0  0  0  0  0  0  0  0  0  0
  -26.2490  -15.5820   19.8650 H   0  0  0  0  0  0  0  0  0  0  0  0
  -30.4100  -24.0770   20.0620 C   0  0  0  0  0  2  0  0  0  0  0  0
  -29.7920  -24.8610   21.2400 C   0  0  0  0  0  2  0  0  0  0  0  0
  -28.3950  -25.4470   20.9590 C   0  0  0  0  0  2  0  0  0  0  0  0
  -28.5090  -26.7340   20.3540 O   0  0  0  0  0  0  0  0  0  0  0  0
  -24.5970  -31.8960   23.2850 C   0  0  0  0  0  0  0  0  0  0  0  0
  -27.3340  -27.4430   20.3230 C   0  0  0  0  0  0  0  0  0  0  0  0
  -23.4340  -30.4610   21.6400 C   0  0  0  0  0  3  0  0  0  0  0  0
  -24.9240  -28.9110   20.2700 C   0  0  0  0  0  0  0  0  0  0  0  0
  -25.9590  -30.8370   21.4880 C   0  0  0  0  0  2  0  0  0  0  0  0
  -26.0670  -29.4610   20.8670 C   0  0  0  0  0  0  0  0  0  0  0  0
  -27.2770  -28.7350   20.8860 C   0  0  0  0  0  3  0  0  0  0  0  0
  -26.1770  -26.8980   19.7270 C   0  0  0  0  0  3  0  0  0  0  0  0
  -24.9730  -27.6270   19.6980 C   0  0  0  0  0  3  0  0  0  0  0  0
  -23.6750  -29.7620   20.2760 C   0  0  0  0  0  2  0  0  0  0  0  0
  -24.6790  -31.0800   22.1960 N   0  0  0  0  0  0  0  0  0  0  0  0
  -23.5040  -32.1730   23.7960 O   0  0  0  0  0  0  0  0  0  0  0  0
  -22.7690  -29.4520   22.6030 C   0  0  0  0  0  0  0  0  0  0  0  0
  -21.4480  -29.2610   22.4510 N   0  0  0  0  0  0  0  0  0  0  0  0
  -23.4380  -28.8430   23.4410 O   0  0  0  0  0  0  0  0  0  0  0  0
  -20.9690  -29.8050   21.7460 H   0  0  0  0  0  0  0  0  0  0  0  0
  -18.0690  -28.0690   22.9080 C   0  0  0  0  0  0  0  0  0  0  0  0
  -20.6210  -28.3330   23.2210 C   0  0  0  0  0  3  0  0  0  0  0  0
  -20.7340  -26.8950   22.6660 C   0  0  0  0  0  2  0  0  0  0  0  0
  -19.6510  -26.5580   21.6360 C   0  0  0  0  0  2  0  0  0  0  0  0
  -18.2580  -26.7110   22.2540 C   0  0  0  0  0  2  0  0  0  0  0  0
  -19.1790  -28.8370   23.3490 C   0  0  0  0  0  0  0  0  0  0  0  0
  -18.9500  -30.1080   23.9180 C   0  0  0  0  0  3  0  0  0  0  0  0
  -17.6440  -30.6110   24.0550 C   0  0  0  0  0  3  0  0  0  0  0  0
  -16.5470  -29.8410   23.6300 C   0  0  0  0  0  3  0  0  0  0  0  0
  -16.7610  -28.5720   23.0630 C   0  0  0  0  0  3  0  0  0  0  0  0
  -25.8680  -32.5440   23.9190 C   0  0  0  0  0  3  0  0  0  0  0  0
  -25.5460  -33.9450   24.2190 N   0  0  0  0  0  0  0  0  0  0  0  0
  -25.8960  -34.9860   23.4530 C   0  0  0  0  0  0  0  0  0  0  0  0
  -26.5950  -34.8680   22.4410 O   0  0  0  0  0  0  0  0  0  0  0  0
  -24.9260  -34.1090   24.9980 H   0  0  0  0  0  0  0  0  0  0  0  0
  -24.1770  -36.7700   23.0160 C   0  0  0  0  0  1  0  0  0  0  0  0
  -25.3910  -36.3780   23.8740 C   0  0  0  0  0  3  0  0  0  0  0  0
  -27.4910  -37.2790   24.7710 C   0  0  0  0  0  1  0  0  0  0  0  0
  -26.4250  -37.4310   23.7850 N   0  0  0  0  0  0  0  0  0  0  0  0
  -26.0130  -38.3530   23.9030 H   0  0  0  0  0  0  0  0  0  0  0  0
  -26.3690  -31.7950   25.2150 C   0  0  1  0  0  0  0  0  0  0  0  0
  -25.2590  -31.5600   26.2670 C   0  0  0  0  0  1  0  0  0  0  0  0
  -26.9750  -30.4190   24.8540 C   0  0  0  0  0  1  0  0  0  0  0  0
  -27.5010  -32.6100   25.8860 C   0  0  0  0  0  1  0  0  0  0  0  0
  1  3  2  0
  2 47  1  0
  2  1  1  0
  4  2  1  0
  5  1  1  0
  6  7  1  0
  8  6  2  0
  8  5  1  0
  9  6  1  0
  9 10  2  0
 11 17  1  0
 11 10  1  0
 12 17  1  0
 13 14  1  0
 13 12  1  0
 15 14  1  0
 15 22  1  0
 15 16  1  0
 17 16  1  0
 18 11  2  0
 19 20  2  0
 20 39  1  0
 21 20  1  0
 21 24  1  0
 22 23  1  0
 22 19  1  0
 23 21  2  0
 24 25  1  0
 25 26  2  0
 27 30  1  0
 27 26  1  0
 28 27  2  0
 29 28  1  0
 29 24  2  0
 30 31  1  0
 31 32  1  0
 32 33  2  0
 34 33  1  0
 34 38  1  0
 35 34  2  0
 36 31  2  0
 36 35  1  0
 37 36  1  0
 39 40  1  0
 40 43  1  0
 40 42  1  0
 41 39  2  0
 44 45  1  0
 44 19  1  0
 46 44  1  0
 47 48  1  0
 49 48  1  0
 50 49  1  0
 51 62  2  0
 52 50  1  0
 52 57  1  0
 53 61  1  0
 53 63  1  0
 54 60  1  0
 54 56  1  0
 55 61  1  0
 56 57  2  0
 56 55  1  0
 58 52  2  0
 59 58  1  0
 59 54  2  0
 60 53  1  0
 61 51  1  0
 63 65  2  0
 64 63  1  0
 66 64  1  0
 67 76  2  0
 67 72  1  0
 68 64  1  0
 68 72  1  0
 69 68  1  0
 70 71  1  0
 70 69  1  0
 71 67  1  0
 72 73  2  0
 73 74  1  0
 75 74  2  0
 76 75  1  0
 77 51  1  0
 77 78  1  0
 77 87  1  0
 78 81  1  0
 79 83  1  0
 79 78  1  0
 80 79  2  0
 83 82  1  0
 85 83  1  0
 85 86  1  0
 85 84  1  0
 87 90  1  1
 87 88  1  0
 89 87  1  0
M  ISO  4  10 100  11 100  49 101  50 101
M  END
>  <TORSDO>  (48) 
F 22

>  <SCORE>  (48) 
-13.094

>  <name>  (48) 
48

>  <ligand_id>  (48) 
48

>  <original_smiles>  (48) 
[H]C(C(=O)N1C([H])([H])C([H])([H])C([H])([H])C([H])(n2nc(-c3c([H])c([H])c(Oc4c([H])c([H])c(F)c([H])c4F)c([H])c3[H])c(C(=O)N([H])[H])c2N([H])[H])C1([H])[H])=C([H])C(=NC([H])([H])C(=O)N([H])C([H])([H])C([H])([H])C([H])([H])Oc1c([H])c([H])c2c(c1[H])C([H])([H])N(C(=O)C([H])(N([H])C(=O)C([H])(N([H])C([H])([H])[H])C([H])([H])[H])C(C([H])([H])[H])(C([H])([H])[H])C([H])([H])[H])C([H])(C(=O)N([H])C1([H])c3c([H])c([H])c([H])c([H])c3C([H])([H])C([H])([H])C1([H])[H])C2([H])[H])C([H])([H])[H]

>  <smiles>  (48) 
[H]C(C(=O)N1C([H])([H])C([H])([H])C([H])([H])C([H])(n2nc(-c3c([H])c([H])c(Oc4c([H])c([H])c(F)c([H])c4F)c([H])c3[H])c(C(=O)N([H])[H])c2N([H])[H])C1([H])[H])=C([H])C(=NC([H])([H])C(=O)N([H])C([H])([H])C([H])([H])C([H])([H])Oc1c([H])c([H])c2c(c1[H])C([H])([H])N(C(=O)C([H])(N([H])C(=O)C([H])(N([H])C([H])([H])[H])C([H])([H])[H])C(C([H])([H])[H])(C([H])([H])[H])C([H])([H])[H])C([H])(C(=O)N([H])C1([H])c3c([H])c([H])c([H])c([H])c3C([H])([H])C([H])([H])C1([H])[H])C2([H])[H])C([H])([H])[H]

$$$$
49:0:0
     RDKit          3D

 91 99  0  0  1  0  0  0  0  0999 V2000
  -28.9650  -23.3400   20.1930 C   0  0  0  0  0  0  0  0  0  0  0  0
  -30.2250  -23.7310   20.4140 N   0  0  0  0  0  4  0  0  0  0  0  0
  -28.7070  -21.9140   20.1280 N   0  0  0  0  0  0  0  0  0  0  0  0
  -30.4270  -24.7190   20.4550 H   0  0  0  0  0  0  0  0  0  0  0  0
  -30.9940  -23.0880   20.4860 H   0  0  0  0  0  0  0  0  0  0  0  0
  -27.7440  -21.7060   19.8980 H   0  0  0  0  0  0  0  0  0  0  0  0
  -29.9170  -17.5830   20.1630 C   0  0  0  0  0  0  0  0  0  0  0  0
  -31.1060  -17.9600   19.2770 C   0  0  0  0  0  2  0  0  0  0  0  0
  -29.0050  -18.9800   20.4250 C   0  0  0  0  0  2  0  0  0  0  0  0
  -30.8800  -19.2350   18.4220 C   0  0  0  0  0  2  0  0  0  0  0  0
  -30.7370  -20.5560   19.2180 C   0  0  0  0  0  2  0  0  0  0  0  0
  -29.5990  -20.5690   20.2670 C   0  0  0  0  0  3  0  0  0  0  0  0
  -29.6770  -16.2930   20.5680 N   0  0  0  0  0  0  0  0  0  0  0  0
  -30.5040  -15.0650   20.3350 C   0  0  0  0  0  0  0  0  0  0  0  0
  -30.4050  -12.6850   19.4320 C   0  0  0  0  0  2  0  0  0  0  0  0
  -29.4910  -12.6410   18.1850 C   0  0  0  0  0  2  0  0  0  0  0  0
  -28.0240  -12.4170   18.5940 C   0  0  0  0  0  2  0  0  0  0  0  0
  -27.5980  -13.3420   19.7660 C   0  0  0  0  0  3  0  0  0  0  0  0
  -28.6420  -13.3760   20.9010 C   0  0  0  0  0  2  0  0  0  0  0  0
  -29.9220  -13.7910   20.3150 N   0  0  0  0  0  0  0  0  0  0  0  0
  -31.6990  -15.0830   20.0340 O   0  0  0  0  0  0  0  0  0  0  0  0
  -25.2130  -13.9070   20.4900 C   0  0  0  0  0  0  0  0  0  0  0  0
  -24.1490  -13.1270   20.8520 C   0  0  0  0  0  0  0  0  0  0  0  0
  -24.6210  -11.7790   20.8320 C   0  0  0  0  0  0  0  0  0  0  0  0
  -26.2610  -13.0320   20.2580 N   0  0  0  0  0  0  0  0  0  0  0  0
  -25.9150  -11.7480   20.5340 N   0  0  0  0  0  0  0  0  0  0  0  0
  -23.8960  -10.5130   21.0210 C   0  0  0  0  0  0  0  0  0  0  0  0
  -24.3170   -9.5570   21.9710 C   0  0  0  0  0  3  0  0  0  0  0  0
  -23.5920   -8.3580   22.1460 C   0  0  0  0  0  3  0  0  0  0  0  0
  -22.4340   -8.1070   21.3730 C   0  0  0  0  0  0  0  0  0  0  0  0
  -22.0320   -9.0520   20.4150 C   0  0  0  0  0  3  0  0  0  0  0  0
  -22.7560  -10.2430   20.2360 C   0  0  0  0  0  3  0  0  0  0  0  0
  -21.6800   -6.9610   21.4590 O   0  0  0  0  0  0  0  0  0  0  0  0
  -21.6070   -6.2330   22.6190 C   0  0  0  0  0  0  0  0  0  0  0  0
  -21.1330   -6.7960   23.8250 C   0  0  0  0  0  3  0  0  0  0  0  0
  -21.0110   -5.9920   24.9770 C   0  0  0  0  0  3  0  0  0  0  0  0
  -21.3490   -4.6250   24.9220 C   0  0  0  0  0  0  0  0  0  0  0  0
  -21.8140   -4.0630   23.7210 C   0  0  0  0  0  3  0  0  0  0  0  0
  -21.9400   -4.8640   22.5720 C   0  0  0  0  0  0  0  0  0  0  0  0
  -22.3680   -4.3110   21.4110 F   0  0  0  0  0  0  0  0  0  0  0  0
  -21.2240   -3.8510   26.0250 F   0  0  0  0  0  0  0  0  0  0  0  0
  -22.7460  -13.5990   21.1060 C   0  0  0  0  0  0  0  0  0  0  0  0
  -22.0130  -12.9090   21.9700 N   0  0  0  0  0  0  0  0  0  0  0  0
  -22.3100  -14.6170   20.5710 O   0  0  0  0  0  0  0  0  0  0  0  0
  -22.3770  -12.0860   22.4280 H   0  0  0  0  0  0  0  0  0  0  0  0
  -21.0690  -13.2040   22.1780 H   0  0  0  0  0  0  0  0  0  0  0  0
  -25.3720  -15.2790   20.3150 N   0  0  0  0  0  0  0  0  0  0  0  0
  -24.6110  -15.9380   20.4400 H   0  0  0  0  0  0  0  0  0  0  0  0
  -26.2460  -15.7170   20.0500 H   0  0  0  0  0  0  0  0  0  0  0  0
  -27.9130  -24.6020   19.9950 C   0  0  0  0  0  2  0  0  0  0  0  0
  -28.2220  -26.1310   20.2340 O   0  0  0  0  0  0  0  0  0  0  0  0
  -24.6390  -31.8970   23.2620 C   0  0  0  0  0  0  0  0  0  0  0  0
  -27.1810  -27.1460   20.1900 C   0  0  0  0  0  0  0  0  0  0  0  0
  -23.4260  -30.5070   21.6280 C   0  0  0  0  0  3  0  0  0  0  0  0
  -24.8590  -28.9230   20.1930 C   0  0  0  0  0  0  0  0  0  0  0  0
  -25.9840  -30.7490   21.4530 C   0  0  0  0  0  2  0  0  0  0  0  0
  -26.0480  -29.3550   20.7920 C   0  0  0  0  0  0  0  0  0  0  0  0
  -27.2090  -28.4860   20.7700 C   0  0  0  0  0  3  0  0  0  0  0  0
  -25.9600  -26.8260   19.5570 C   0  0  0  0  0  3  0  0  0  0  0  0
  -24.8280  -27.6710   19.5630 C   0  0  0  0  0  3  0  0  0  0  0  0
  -23.6380  -29.8340   20.2490 C   0  0  0  0  0  2  0  0  0  0  0  0
  -24.7050  -31.0730   22.1680 N   0  0  0  0  0  0  0  0  0  0  0  0
  -23.5560  -32.1860   23.7930 O   0  0  0  0  0  0  0  0  0  0  0  0
  -22.7440  -29.5040   22.5910 C   0  0  0  0  0  0  0  0  0  0  0  0
  -21.4160  -29.3320   22.4660 N   0  0  0  0  0  0  0  0  0  0  0  0
  -23.4150  -28.8800   23.4170 O   0  0  0  0  0  0  0  0  0  0  0  0
  -20.9270  -29.8900   21.7790 H   0  0  0  0  0  0  0  0  0  0  0  0
  -18.0370  -28.1190   22.9700 C   0  0  0  0  0  0  0  0  0  0  0  0
  -20.5950  -28.3960   23.2400 C   0  0  0  0  0  3  0  0  0  0  0  0
  -20.7040  -26.9590   22.6770 C   0  0  0  0  0  2  0  0  0  0  0  0
  -19.6070  -26.6250   21.6610 C   0  0  0  0  0  2  0  0  0  0  0  0
  -18.2230  -26.7670   22.3000 C   0  0  0  0  0  2  0  0  0  0  0  0
  -19.1520  -28.8890   23.3970 C   0  0  0  0  0  0  0  0  0  0  0  0
  -18.9230  -30.1520   23.9860 C   0  0  0  0  0  3  0  0  0  0  0  0
  -17.6150  -30.6460   24.1490 C   0  0  0  0  0  3  0  0  0  0  0  0
  -16.5160  -29.8720   23.7360 C   0  0  0  0  0  3  0  0  0  0  0  0
  -16.7290  -28.6110   23.1530 C   0  0  0  0  0  3  0  0  0  0  0  0
  -25.9210  -32.5290   23.8830 C   0  0  0  0  0  3  0  0  0  0  0  0
  -25.6120  -33.9270   24.2250 N   0  0  0  0  0  0  0  0  0  0  0  0
  -25.9100  -34.9850   23.4600 C   0  0  0  0  0  0  0  0  0  0  0  0
  -26.5400  -34.8880   22.4030 O   0  0  0  0  0  0  0  0  0  0  0  0
  -25.0470  -34.0740   25.0490 H   0  0  0  0  0  0  0  0  0  0  0  0
  -24.1500  -36.7660   23.1970 C   0  0  0  0  0  1  0  0  0  0  0  0
  -25.4360  -36.3720   23.9410 C   0  0  0  0  0  3  0  0  0  0  0  0
  -27.6030  -37.2820   24.6550 C   0  0  0  0  0  1  0  0  0  0  0  0
  -26.4510  -37.4350   23.7710 N   0  0  0  0  0  0  0  0  0  0  0  0
  -26.0440  -38.3520   23.9370 H   0  0  0  0  0  0  0  0  0  0  0  0
  -26.4360  -31.7540   25.1590 C   0  0  1  0  0  0  0  0  0  0  0  0
  -25.3460  -31.5200   26.2300 C   0  0  0  0  0  1  0  0  0  0  0  0
  -27.0140  -30.3750   24.7720 C   0  0  0  0  0  1  0  0  0  0  0  0
  -27.5920  -32.5440   25.8180 C   0  0  0  0  0  1  0  0  0  0  0  0
  1  2  2  0
  2  4  1  0
  2  5  1  0
  3  1  1  0
  6  3  1  0
  7  9  1  0
  7 13  2  0
  8  7  1  0
 10 11  1  0
 10  8  1  0
 11 12  1  0
 12  3  1  0
 12  9  1  0
 14 13  1  0
 15 20  1  0
 16 17  1  0
 16 15  1  0
 18 17  1  0
 18 25  1  0
 18 19  1  0
 20 14  1  0
 20 19  1  0
 21 14  2  0
 22 23  2  0
 23 42  1  0
 24 23  1  0
 24 27  1  0
 25 22  1  0
 25 26  1  0
 26 24  2  0
 27 28  1  0
 28 29  2  0
 30 33  1  0
 30 29  1  0
 31 30  2  0
 32 31  1  0
 32 27  2  0
 33 34  1  0
 34 35  1  0
 35 36  2  0
 37 36  1  0
 37 41  1  0
 38 37  2  0
 39 34  2  0
 39 38  1  0
 40 39  1  0
 42 43  1  0
 43 46  1  0
 43 45  1  0
 44 42  2  0
 47 48  1  0
 47 22  1  0
 49 47  1  0
 50  1  1  0
 50 51  1  0
 52 63  2  0
 53 51  1  0
 53 58  1  0
 54 62  1  0
 54 64  1  0
 55 61  1  0
 55 57  1  0
 56 62  1  0
 57 56  1  0
 58 57  2  0
 59 60  1  0
 59 53  2  0
 60 55  2  0
 61 54  1  0
 62 52  1  0
 64 66  2  0
 65 64  1  0
 67 65  1  0
 68 77  2  0
 68 73  1  0
 69 65  1  0
 69 73  1  0
 70 69  1  0
 71 72  1  0
 71 70  1  0
 72 68  1  0
 73 74  2  0
 74 75  1  0
 76 75  2  0
 77 76  1  0
 78 52  1  0
 78 79  1  0
 78 88  1  0
 79 82  1  0
 80 84  1  0
 80 79  1  0
 81 80  2  0
 84 83  1  0
 86 87  1  0
 86 84  1  0
 86 85  1  0
 88 91  1  1
 88 89  1  0
 90 88  1  0
M  ISO  4  13 100  14 100  50 101  51 101
M  END
>  <TORSDO>  (49) 
F 18

>  <SCORE>  (49) 
-14.527

>  <name>  (49) 
49

>  <ligand_id>  (49) 
49

>  <original_smiles>  (49) 
[H]c1c([H])c([H])c2c(c1[H])C([H])([H])C([H])([H])C([H])([H])C2([H])N([H])C(=O)C1([H])N(C(=O)C([H])(N([H])C(=O)C([H])(N([H])C([H])([H])[H])C([H])([H])[H])C(C([H])([H])[H])(C([H])([H])[H])C([H])([H])[H])C([H])([H])c2c([H])c(OC([H])([H])C(N([H])[H])=[N+]([H])C3([H])C([H])([H])C(=NC(=O)N4C([H])([H])C([H])([H])C([H])([H])C([H])(n5nc(-c6c([H])c([H])c(Oc7c([H])c([H])c(F)c([H])c7F)c([H])c6[H])c(C(=O)N([H])[H])c5N([H])[H])C4([H])[H])C([H])([H])C([H])([H])C3([H])[H])c([H])c([H])c2C1([H])[H]

>  <smiles>  (49) 
[H]c1c([H])c([H])c2c(c1[H])C([H])([H])C([H])([H])C([H])([H])C2([H])N([H])C(=O)C1([H])N(C(=O)C([H])(N([H])C(=O)C([H])(N([H])C([H])([H])[H])C([H])([H])[H])C(C([H])([H])[H])(C([H])([H])[H])C([H])([H])[H])C([H])([H])c2c([H])c(OC([H])([H])C(N([H])[H])=[N+]([H])C3([H])C([H])([H])C(=NC(=O)N4C([H])([H])C([H])([H])C([H])([H])C([H])(n5nc(-c6c([H])c([H])c(Oc7c([H])c([H])c(F)c([H])c7F)c([H])c6[H])c(C(=O)N([H])[H])c5N([H])[H])C4([H])[H])C([H])([H])C([H])([H])C3([H])[H])c([H])c([H])c2C1([H])[H]

$$$$
50:0:0
     RDKit          3D

 91 99  0  0  1  0  0  0  0  0999 V2000
  -28.7970  -19.8910   21.2520 C   0  0  0  0  0  2  0  0  0  0  0  0
  -28.2580  -21.3820   21.1070 C   0  0  0  0  0  2  0  0  0  0  0  0
  -29.7750  -20.9050   19.3990 C   0  0  0  0  0  2  0  0  0  0  0  0
  -29.3020  -19.3990   19.8800 C   0  0  0  0  0  3  0  0  0  0  0  0
  -28.7880  -22.0200   19.8620 N   0  0  2  0  0  4  0  0  0  0  0  0
  -28.0330  -21.9580   19.1930 H   0  0  0  0  0  0  0  0  0  0  0  0
  -30.7270  -15.3280   19.9050 C   0  0  0  0  0  0  0  0  0  0  0  0
  -30.5930  -12.9500   19.0160 C   0  0  0  0  0  2  0  0  0  0  0  0
  -29.5990  -12.8440   17.8360 C   0  0  0  0  0  2  0  0  0  0  0  0
  -28.1660  -12.6140   18.3520 C   0  0  0  0  0  2  0  0  0  0  0  0
  -27.7990  -13.5600   19.5240 C   0  0  0  0  0  3  0  0  0  0  0  0
  -28.9120  -13.6320   20.5920 C   0  0  0  0  0  2  0  0  0  0  0  0
  -30.1350  -14.0610   19.9020 N   0  0  0  0  0  0  0  0  0  0  0  0
  -31.9260  -15.3930   19.5880 O   0  0  0  0  0  0  0  0  0  0  0  0
  -30.2830  -18.0520   19.8760 C   0  0  0  0  0  0  0  0  0  0  0  0
  -29.9100  -16.6590   20.0220 N   0  0  0  0  0  0  0  0  0  0  0  0
  -31.5940  -18.3210   19.7070 N   0  0  0  0  0  4  0  0  0  0  0  0
  -28.9230  -16.5800   20.2030 H   0  0  0  0  0  0  0  0  0  0  0  0
  -32.2700  -17.5660   19.6460 H   0  0  0  0  0  0  0  0  0  0  0  0
  -31.9550  -19.2600   19.6090 H   0  0  0  0  0  0  0  0  0  0  0  0
  -25.4810  -14.1200   20.4470 C   0  0  0  0  0  0  0  0  0  0  0  0
  -24.4400  -13.3370   20.8580 C   0  0  0  0  0  0  0  0  0  0  0  0
  -24.8900  -11.9860   20.7430 C   0  0  0  0  0  0  0  0  0  0  0  0
  -26.4980  -13.2470   20.1010 N   0  0  0  0  0  0  0  0  0  0  0  0
  -26.1580  -11.9550   20.3470 N   0  0  0  0  0  0  0  0  0  0  0  0
  -24.1680  -10.7210   20.9280 C   0  0  0  0  0  0  0  0  0  0  0  0
  -24.5880   -9.7610   21.8740 C   0  0  0  0  0  3  0  0  0  0  0  0
  -23.8640   -8.5610   22.0490 C   0  0  0  0  0  3  0  0  0  0  0  0
  -22.7040   -8.3150   21.2750 C   0  0  0  0  0  0  0  0  0  0  0  0
  -22.3020   -9.2640   20.3190 C   0  0  0  0  0  3  0  0  0  0  0  0
  -23.0280  -10.4540   20.1430 C   0  0  0  0  0  3  0  0  0  0  0  0
  -21.9520   -7.1680   21.3580 O   0  0  0  0  0  0  0  0  0  0  0  0
  -21.8010   -6.4910   22.5420 C   0  0  0  0  0  0  0  0  0  0  0  0
  -21.1590   -7.0750   23.6570 C   0  0  0  0  0  3  0  0  0  0  0  0
  -20.9630   -6.3190   24.8300 C   0  0  0  0  0  3  0  0  0  0  0  0
  -21.3950   -4.9810   24.8880 C   0  0  0  0  0  0  0  0  0  0  0  0
  -22.0290   -4.3970   23.7770 C   0  0  0  0  0  3  0  0  0  0  0  0
  -22.2270   -5.1500   22.6060 C   0  0  0  0  0  0  0  0  0  0  0  0
  -22.8190   -4.5750   21.5310 F   0  0  0  0  0  0  0  0  0  0  0  0
  -21.2000   -4.2530   26.0120 F   0  0  0  0  0  0  0  0  0  0  0  0
  -23.0660  -13.8110   21.2350 C   0  0  0  0  0  0  0  0  0  0  0  0
  -22.3950  -13.0930   22.1280 N   0  0  0  0  0  0  0  0  0  0  0  0
  -22.6010  -14.8520   20.7720 O   0  0  0  0  0  0  0  0  0  0  0  0
  -22.7860  -12.2510   22.5220 H   0  0  0  0  0  0  0  0  0  0  0  0
  -21.4750  -13.3920   22.4230 H   0  0  0  0  0  0  0  0  0  0  0  0
  -25.6390  -15.4960   20.3060 N   0  0  0  0  0  0  0  0  0  0  0  0
  -24.8590  -16.1270   20.4590 H   0  0  0  0  0  0  0  0  0  0  0  0
  -26.3950  -15.9290   19.7950 H   0  0  0  0  0  0  0  0  0  0  0  0
  -29.1600  -23.5840   19.9170 C   0  0  0  0  0  3  0  0  0  0  0  0
  -28.0530  -24.8760   19.8430 C   0  0  0  0  0  3  0  0  0  0  0  0
  -28.3170  -26.4200   20.0140 O   0  0  0  0  0  0  0  0  0  0  0  0
  -24.6900  -31.9610   23.3180 C   0  0  0  0  0  0  0  0  0  0  0  0
  -27.2540  -27.4060   20.0180 C   0  0  0  0  0  0  0  0  0  0  0  0
  -23.4760  -30.6360   21.6320 C   0  0  0  0  0  3  0  0  0  0  0  0
  -24.9140  -29.1450   20.1080 C   0  0  0  0  0  0  0  0  0  0  0  0
  -26.0270  -30.9280   21.4390 C   0  0  0  0  0  2  0  0  0  0  0  0
  -26.1020  -29.5680   20.7180 C   0  0  0  0  0  0  0  0  0  0  0  0
  -27.2720  -28.7180   20.6540 C   0  0  0  0  0  3  0  0  0  0  0  0
  -26.0360  -27.0930   19.3760 C   0  0  0  0  0  3  0  0  0  0  0  0
  -24.8950  -27.9240   19.4210 C   0  0  0  0  0  3  0  0  0  0  0  0
  -23.6810  -30.0300   20.2190 C   0  0  0  0  0  2  0  0  0  0  0  0
  -24.7520  -31.1940   22.1860 N   0  0  0  0  0  0  0  0  0  0  0  0
  -23.6100  -32.2080   23.8760 O   0  0  0  0  0  0  0  0  0  0  0  0
  -22.8220  -29.5760   22.5540 C   0  0  0  0  0  0  0  0  0  0  0  0
  -21.5010  -29.3660   22.4080 N   0  0  0  0  0  0  0  0  0  0  0  0
  -23.5050  -28.9460   23.3650 O   0  0  0  0  0  0  0  0  0  0  0  0
  -21.0040  -29.9260   21.7310 H   0  0  0  0  0  0  0  0  0  0  0  0
  -18.1560  -28.0420   22.8430 C   0  0  0  0  0  0  0  0  0  0  0  0
  -20.7040  -28.3770   23.1400 C   0  0  0  0  0  3  0  0  0  0  0  0
  -20.8550  -26.9690   22.5200 C   0  0  0  0  0  2  0  0  0  0  0  0
  -19.7720  -26.6460   21.4860 C   0  0  0  0  0  2  0  0  0  0  0  0
  -18.3820  -26.7240   22.1230 C   0  0  0  0  0  2  0  0  0  0  0  0
  -19.2460  -28.8260   23.3070 C   0  0  0  0  0  0  0  0  0  0  0  0
  -18.9810  -30.0580   23.9420 C   0  0  0  0  0  3  0  0  0  0  0  0
  -17.6580  -30.5090   24.1160 C   0  0  0  0  0  3  0  0  0  0  0  0
  -16.5830  -29.7230   23.6670 C   0  0  0  0  0  3  0  0  0  0  0  0
  -16.8330  -28.4920   23.0360 C   0  0  0  0  0  3  0  0  0  0  0  0
  -25.9710  -32.5780   23.9560 C   0  0  0  0  0  3  0  0  0  0  0  0
  -25.6750  -33.9810   24.2890 N   0  0  0  0  0  0  0  0  0  0  0  0
  -25.9610  -35.0300   23.5070 C   0  0  0  0  0  0  0  0  0  0  0  0
  -26.5690  -34.9200   22.4400 O   0  0  0  0  0  0  0  0  0  0  0  0
  -25.1270  -34.1380   25.1220 H   0  0  0  0  0  0  0  0  0  0  0  0
  -24.1880  -36.8030   23.2830 C   0  0  0  0  0  1  0  0  0  0  0  0
  -25.5020  -36.4230   23.9850 C   0  0  0  0  0  3  0  0  0  0  0  0
  -27.6780  -37.3620   24.6260 C   0  0  0  0  0  1  0  0  0  0  0  0
  -26.5080  -37.4840   23.7610 N   0  0  0  0  0  0  0  0  0  0  0  0
  -26.1000  -38.4040   23.9070 H   0  0  0  0  0  0  0  0  0  0  0  0
  -26.4610  -31.8010   25.2390 C   0  0  1  0  0  0  0  0  0  0  0  0
  -25.3490  -31.5660   26.2880 C   0  0  0  0  0  1  0  0  0  0  0  0
  -27.0440  -30.4200   24.8570 C   0  0  0  0  0  1  0  0  0  0  0  0
  -27.6040  -32.5880   25.9230 C   0  0  0  0  0  1  0  0  0  0  0  0
  2  1  1  0
  3  5  1  0
  3  4  1  0
  4 15  1  0
  4  1  1  0
  5 49  1  0
  5  2  1  0
  5  6  1  6
  7 16  1  0
  8 13  1  0
  9 10  1  0
  9  8  1  0
 11 10  1  0
 11 24  1  0
 11 12  1  0
 13  7  1  0
 13 12  1  0
 14  7  2  0
 15 16  1  0
 16 18  1  0
 17 15  2  0
 19 17  1  0
 20 17  1  0
 21 22  2  0
 22 41  1  0
 23 22  1  0
 23 26  1  0
 24 25  1  0
 24 21  1  0
 25 23  2  0
 26 27  1  0
 27 28  2  0
 29 32  1  0
 29 28  1  0
 30 29  2  0
 31 30  1  0
 31 26  2  0
 32 33  1  0
 33 38  2  0
 33 34  1  0
 34 35  2  0
 35 36  1  0
 36 40  1  0
 37 36  2  0
 38 37  1  0
 39 38  1  0
 41 42  1  0
 42 45  1  0
 42 44  1  0
 43 41  2  0
 46 21  1  0
 46 47  1  0
 48 46  1  0
 50 49  2  0
 50 51  1  0
 51 53  1  0
 52 63  2  0
 53 58  1  0
 54 62  1  0
 54 64  1  0
 55 61  1  0
 55 57  1  0
 56 62  1  0
 57 56  1  0
 58 57  2  0
 59 60  1  0
 59 53  2  0
 60 55  2  0
 61 54  1  0
 62 52  1  0
 64 66  2  0
 65 64  1  0
 67 65  1  0
 68 77  2  0
 68 73  1  0
 69 65  1  0
 69 73  1  0
 70 69  1  0
 71 72  1  0
 71 70  1  0
 72 68  1  0
 73 74  2  0
 74 75  1  0
 76 75  2  0
 77 76  1  0
 78 52  1  0
 78 79  1  0
 78 88  1  0
 79 82  1  0
 80 84  1  0
 80 79  1  0
 81 80  2  0
 84 83  1  0
 86 87  1  0
 86 84  1  0
 86 85  1  0
 88 91  1  1
 88 89  1  0
 90 88  1  0
M  ISO  4   7 100  16 100  50 101  51 101
M  END
>  <TORSDO>  (50) 
F 18

>  <SCORE>  (50) 
-14.606

>  <name>  (50) 
50

>  <ligand_id>  (50) 
50

>  <original_smiles>  (50) 
[H]c1c([H])c([H])c2c(c1[H])C([H])([H])C([H])([H])C([H])([H])C2([H])N([H])C(=O)C1([H])N(C(=O)C([H])(N([H])C(=O)C([H])(N([H])C([H])([H])[H])C([H])([H])[H])C(C([H])([H])[H])(C([H])([H])[H])C([H])([H])[H])C([H])([H])c2c([H])c(OC([H])([H])C([H])([H])[N+]3([H])C([H])([H])C([H])([H])C([H])(C(N([H])C(=O)N4C([H])([H])C([H])([H])C([H])([H])C([H])(n5nc(-c6c([H])c([H])c(Oc7c([H])c([H])c(F)c([H])c7F)c([H])c6[H])c(C(=O)N([H])[H])c5N([H])[H])C4([H])[H])=[N+]([H])[H])C3([H])[H])c([H])c([H])c2C1([H])[H]

>  <smiles>  (50) 
[H]c1c([H])c([H])c2c(c1[H])C([H])([H])C([H])([H])C([H])([H])C2([H])N([H])C(=O)C1([H])N(C(=O)C([H])(N([H])C(=O)C([H])(N([H])C([H])([H])[H])C([H])([H])[H])C(C([H])([H])[H])(C([H])([H])[H])C([H])([H])[H])C([H])([H])c2c([H])c(OC([H])([H])C([H])([H])[N+]3([H])C([H])([H])C([H])([H])C([H])(C(N([H])C(=O)N4C([H])([H])C([H])([H])C([H])([H])C([H])(n5nc(-c6c([H])c([H])c(Oc7c([H])c([H])c(F)c([H])c7F)c([H])c6[H])c(C(=O)N([H])[H])c5N([H])[H])C4([H])[H])=[N+]([H])[H])C3([H])[H])c([H])c([H])c2C1([H])[H]

$$$$
51:0:0
     RDKit          3D

 99107  0  0  1  0  0  0  0  0999 V2000
  -27.7990  -20.9430   20.8070 C   0  0  0  0  0  2  0  0  0  0  0  0
  -27.3800  -22.3160   20.2920 C   0  0  0  0  0  2  0  0  0  0  0  0
  -28.4120  -20.2530   19.5900 C   0  0  0  0  0  2  0  0  0  0  0  0
  -28.4500  -22.7140   19.2580 C   0  0  0  0  0  3  0  0  0  0  0  0
  -29.0490  -21.3750   18.7510 C   0  0  0  0  0  3  0  0  0  0  0  0
  -31.2990  -20.2480   18.7010 C   0  0  0  0  0  0  0  0  0  0  0  0
  -32.6190  -20.3640   18.8270 N   0  0  0  0  0  4  0  0  0  0  0  0
  -30.7290  -19.0610   18.4410 N   0  0  0  0  0  0  0  0  0  0  0  0
  -30.5260  -21.3380   18.8360 N   0  0  0  0  0  0  0  0  0  0  0  0
  -33.2250  -19.5610   18.7430 H   0  0  0  0  0  0  0  0  0  0  0  0
  -33.0660  -21.2520   19.0100 H   0  0  0  0  0  0  0  0  0  0  0  0
  -29.7180  -19.0600   18.4150 H   0  0  0  0  0  0  0  0  0  0  0  0
  -30.9690  -22.2050   19.1140 H   0  0  0  0  0  0  0  0  0  0  0  0
  -30.6780  -17.1260   16.9630 C   0  0  0  0  0  1  0  0  0  0  0  0
  -31.3510  -17.7430   18.2100 C   0  0  0  0  0  3  0  0  0  0  0  0
  -31.2790  -16.9020   19.5170 C   0  0  0  0  0  2  0  0  0  0  0  0
  -32.2190  -15.6840   19.6540 C   0  0  0  0  0  0  0  0  0  0  0  0
  -32.4300  -13.2730   20.1390 C   0  0  0  0  0  2  0  0  0  0  0  0
  -31.6690  -12.4560   19.0760 C   0  0  0  0  0  2  0  0  0  0  0  0
  -30.1840  -12.3030   19.4580 C   0  0  0  0  0  2  0  0  0  0  0  0
  -29.5250  -13.6540   19.8450 C   0  0  0  0  0  3  0  0  0  0  0  0
  -30.4100  -14.4180   20.8570 C   0  0  0  0  0  2  0  0  0  0  0  0
  -31.7520  -14.5690   20.2710 N   0  0  0  0  0  0  0  0  0  0  0  0
  -33.3450  -15.7250   19.1490 O   0  0  0  0  0  0  0  0  0  0  0  0
  -27.2090  -14.4080   20.6860 C   0  0  0  0  0  0  0  0  0  0  0  0
  -26.0870  -13.7020   21.0260 C   0  0  0  0  0  0  0  0  0  0  0  0
  -26.4250  -12.3230   20.8670 C   0  0  0  0  0  0  0  0  0  0  0  0
  -28.1660  -13.4620   20.3470 N   0  0  0  0  0  0  0  0  0  0  0  0
  -27.6970  -12.1980   20.5110 N   0  0  0  0  0  0  0  0  0  0  0  0
  -25.5960  -11.1160   20.9780 C   0  0  0  0  0  0  0  0  0  0  0  0
  -25.7320  -10.2250   22.0640 C   0  0  0  0  0  3  0  0  0  0  0  0
  -24.9110   -9.0810   22.1600 C   0  0  0  0  0  3  0  0  0  0  0  0
  -23.9400   -8.8200   21.1640 C   0  0  0  0  0  0  0  0  0  0  0  0
  -23.8250   -9.6980   20.0710 C   0  0  0  0  0  3  0  0  0  0  0  0
  -24.6460  -10.8340   19.9760 C   0  0  0  0  0  3  0  0  0  0  0  0
  -23.1180   -7.7200   21.1590 O   0  0  0  0  0  0  0  0  0  0  0  0
  -22.4310   -7.3300   22.2810 C   0  0  0  0  0  0  0  0  0  0  0  0
  -21.4920   -8.1750   22.9110 C   0  0  0  0  0  3  0  0  0  0  0  0
  -20.7580   -7.7080   24.0200 C   0  0  0  0  0  3  0  0  0  0  0  0
  -20.9540   -6.3970   24.4930 C   0  0  0  0  0  0  0  0  0  0  0  0
  -21.8860   -5.5530   23.8630 C   0  0  0  0  0  3  0  0  0  0  0  0
  -22.6190   -6.0180   22.7580 C   0  0  0  0  0  0  0  0  0  0  0  0
  -23.5000   -5.1920   22.1420 F   0  0  0  0  0  0  0  0  0  0  0  0
  -20.2440   -5.9450   25.5540 F   0  0  0  0  0  0  0  0  0  0  0  0
  -24.7450  -14.2720   21.3890 C   0  0  0  0  0  0  0  0  0  0  0  0
  -23.9940  -13.5770   22.2370 N   0  0  0  0  0  0  0  0  0  0  0  0
  -24.3760  -15.3630   20.9580 O   0  0  0  0  0  0  0  0  0  0  0  0
  -24.3060  -12.6900   22.6050 H   0  0  0  0  0  0  0  0  0  0  0  0
  -23.0950  -13.9400   22.5230 H   0  0  0  0  0  0  0  0  0  0  0  0
  -27.4920  -15.7700   20.6200 N   0  0  0  0  0  0  0  0  0  0  0  0
  -26.7890  -16.4730   20.8160 H   0  0  0  0  0  0  0  0  0  0  0  0
  -28.3690  -16.1590   20.3000 H   0  0  0  0  0  0  0  0  0  0  0  0
  -27.8320  -23.5770   18.1410 C   0  0  0  0  0  0  0  0  0  0  0  0
  -28.2900  -24.8270   18.0240 N   0  0  0  0  0  0  0  0  0  0  0  0
  -26.9230  -23.1390   17.4310 O   0  0  0  0  0  0  0  0  0  0  0  0
  -29.0430  -25.1140   18.6350 H   0  0  0  0  0  0  0  0  0  0  0  0
  -27.6710  -25.8630   17.2090 C   0  0  0  0  0  2  0  0  0  0  0  0
  -28.0510  -27.2500   17.7440 C   0  0  0  0  0  2  0  0  0  0  0  0
  -27.1000  -28.2220   17.3280 O   0  0  0  0  0  0  0  0  0  0  0  0
  -25.5950  -28.8560   24.2400 C   0  0  0  0  0  0  0  0  0  0  0  0
  -26.1570  -28.5190   18.2770 C   0  0  0  0  0  0  0  0  0  0  0  0
  -23.6590  -28.9680   22.7030 C   0  0  0  0  0  3  0  0  0  0  0  0
  -24.2270  -29.1680   20.2240 C   0  0  0  0  0  0  0  0  0  0  0  0
  -25.9840  -29.6900   21.9270 C   0  0  0  0  0  2  0  0  0  0  0  0
  -25.5910  -29.2470   20.5360 C   0  0  0  0  0  0  0  0  0  0  0  0
  -26.5600  -28.9240   19.5650 C   0  0  0  0  0  3  0  0  0  0  0  0
  -24.7840  -28.4370   17.9700 C   0  0  0  0  0  3  0  0  0  0  0  0
  -23.8160  -28.7570   18.9430 C   0  0  0  0  0  3  0  0  0  0  0  0
  -23.2550  -29.5460   21.3200 C   0  0  0  0  0  2  0  0  0  0  0  0
  -25.1190  -29.1380   22.9950 N   0  0  0  0  0  0  0  0  0  0  0  0
  -24.8340  -28.5030   25.1520 O   0  0  0  0  0  0  0  0  0  0  0  0
  -23.1870  -27.4980   22.7750 C   0  0  0  0  0  0  0  0  0  0  0  0
  -21.8980  -27.2700   22.4800 N   0  0  0  0  0  0  0  0  0  0  0  0
  -23.9780  -26.5950   23.0600 O   0  0  0  0  0  0  0  0  0  0  0  0
  -21.3150  -28.0670   22.2630 H   0  0  0  0  0  0  0  0  0  0  0  0
  -18.9910  -25.5130   21.2590 C   0  0  0  0  0  0  0  0  0  0  0  0
  -21.2430  -25.9630   22.4410 C   0  0  0  0  0  3  0  0  0  0  0  0
  -21.8760  -25.0560   21.3600 C   0  0  0  0  0  2  0  0  0  0  0  0
  -21.1580  -25.1370   20.0090 C   0  0  0  0  0  2  0  0  0  0  0  0
  -19.6890  -24.7330   20.1580 C   0  0  0  0  0  2  0  0  0  0  0  0
  -19.7220  -26.1040   22.3230 C   0  0  0  0  0  0  0  0  0  0  0  0
  -19.0280  -26.8470   23.3010 C   0  0  0  0  0  3  0  0  0  0  0  0
  -17.6310  -27.0030   23.2300 C   0  0  0  0  0  3  0  0  0  0  0  0
  -16.9110  -26.4030   22.1840 C   0  0  0  0  0  3  0  0  0  0  0  0
  -17.5880  -25.6570   21.2050 C   0  0  0  0  0  3  0  0  0  0  0  0
  -27.1120  -28.9880   24.5860 C   0  0  0  0  0  3  0  0  0  0  0  0
  -27.2300  -29.9330   25.7040 N   0  0  0  0  0  0  0  0  0  0  0  0
  -27.7780  -31.1520   25.6140 C   0  0  0  0  0  0  0  0  0  0  0  0
  -28.3080  -31.5730   24.5810 O   0  0  0  0  0  0  0  0  0  0  0  0
  -26.7650  -29.6780   26.5630 H   0  0  0  0  0  0  0  0  0  0  0  0
  -26.6850  -33.1590   26.6650 C   0  0  0  0  0  1  0  0  0  0  0  0
  -27.7280  -32.0480   26.8660 C   0  0  0  0  0  3  0  0  0  0  0  0
  -30.0080  -31.6710   27.6960 C   0  0  0  0  0  1  0  0  0  0  0  0
  -29.0350  -32.6480   27.2120 N   0  0  0  0  0  0  0  0  0  0  0  0
  -28.9250  -33.3650   27.9240 H   0  0  0  0  0  0  0  0  0  0  0  0
  -27.7910  -27.6090   24.9460 C   0  0  1  0  0  0  0  0  0  0  0  0
  -27.0350  -26.8070   26.0320 C   0  0  0  0  0  1  0  0  0  0  0  0
  -27.9010  -26.7120   23.6900 C   0  0  0  0  0  1  0  0  0  0  0  0
  -29.2340  -27.8490   25.4450 C   0  0  0  0  0  1  0  0  0  0  0  0
  2  1  1  0
  3  1  1  0
  4 53  1  0
  4  2  1  0
  5  9  1  0
  5  4  1  0
  5  3  1  0
  6  7  2  0
  6  9  1  0
  7 11  1  0
  8  6  1  0
  9 13  1  0
 10  7  1  0
 12  8  1  0
 15 14  1  0
 15  8  1  0
 15 16  1  0
 16 17  1  0
 17 23  1  0
 18 23  1  0
 19 20  1  0
 19 18  1  0
 21 20  1  0
 21 28  1  0
 21 22  1  0
 23 22  1  0
 24 17  2  0
 25 26  2  0
 26 45  1  0
 27 30  1  0
 27 26  1  0
 28 29  1  0
 28 25  1  0
 29 27  2  0
 30 31  1  0
 31 32  2  0
 33 32  1  0
 34 33  2  0
 35 34  1  0
 35 30  2  0
 36 33  1  0
 36 37  1  0
 37 42  2  0
 37 38  1  0
 38 39  2  0
 39 40  1  0
 40 44  1  0
 41 40  2  0
 42 41  1  0
 43 42  1  0
 45 46  1  0
 46 49  1  0
 46 48  1  0
 47 45  2  0
 50 25  1  0
 50 51  1  0
 52 50  1  0
 54 53  1  0
 54 56  1  0
 55 53  2  0
 57 58  1  0
 57 54  1  0
 59 58  1  0
 59 61  1  0
 60 71  2  0
 61 66  1  0
 62 72  1  0
 62 70  1  0
 63 65  1  0
 63 69  1  0
 64 70  1  0
 65 64  1  0
 66 65  2  0
 67 61  2  0
 67 68  1  0
 68 63  2  0
 69 62  1  0
 70 60  1  0
 72 74  2  0
 73 72  1  0
 75 73  1  0
 76 81  1  0
 77 73  1  0
 78 77  1  0
 79 80  1  0
 79 78  1  0
 80 76  1  0
 81 77  1  0
 81 82  2  0
 83 82  1  0
 84 83  2  0
 85 76  2  0
 85 84  1  0
 86 60  1  0
 86 96  1  0
 86 87  1  0
 87 90  1  0
 88 87  1  0
 88 92  1  0
 89 88  2  0
 92 91  1  0
 92 94  1  0
 94 93  1  0
 94 95  1  0
 96 99  1  1
 96 97  1  0
 98 96  1  0
M  ISO  4  16 100  17 100  58 101  59 101
M  END
>  <TORSDO>  (51) 
F 22

>  <SCORE>  (51) 
-6.487

>  <name>  (51) 
51

>  <ligand_id>  (51) 
51

>  <original_smiles>  (51) 
[H]c1c([H])c([H])c2c(c1[H])C([H])([H])C([H])([H])C([H])([H])C2([H])N([H])C(=O)C1([H])N(C(=O)C([H])(N([H])C(=O)C([H])(N([H])C([H])([H])[H])C([H])([H])[H])C(C([H])([H])[H])(C([H])([H])[H])C([H])([H])[H])C([H])([H])c2c([H])c(OC([H])([H])C([H])([H])N([H])C(=O)C3([H])C([H])([H])C([H])([H])C([H])([H])C3([H])[N+]([H])=C(N([H])[H])N([H])C([H])(C([H])([H])[H])C([H])([H])C(=O)N3C([H])([H])C([H])([H])C([H])([H])C([H])(n4nc(-c5c([H])c([H])c(Oc6c([H])c([H])c(F)c([H])c6F)c([H])c5[H])c(C(=O)N([H])[H])c4N([H])[H])C3([H])[H])c([H])c([H])c2C1([H])[H]

>  <smiles>  (51) 
[H]c1c([H])c([H])c2c(c1[H])C([H])([H])C([H])([H])C([H])([H])C2([H])N([H])C(=O)C1([H])N(C(=O)C([H])(N([H])C(=O)C([H])(N([H])C([H])([H])[H])C([H])([H])[H])C(C([H])([H])[H])(C([H])([H])[H])C([H])([H])[H])C([H])([H])c2c([H])c(OC([H])([H])C([H])([H])N([H])C(=O)C3([H])C([H])([H])C([H])([H])C([H])([H])C3([H])[N+]([H])=C(N([H])[H])N([H])C([H])(C([H])([H])[H])C([H])([H])C(=O)N3C([H])([H])C([H])([H])C([H])([H])C([H])(n4nc(-c5c([H])c([H])c(Oc6c([H])c([H])c(F)c([H])c6F)c([H])c5[H])c(C(=O)N([H])[H])c4N([H])[H])C3([H])[H])c([H])c([H])c2C1([H])[H]

$$$$
52:0:0
     RDKit          3D

 99106  0  0  1  0  0  0  0  0999 V2000
  -30.0920  -20.8720   20.4610 C   0  0  0  0  0  3  0  0  0  0  0  0
  -31.0950  -21.7530   19.7020 C   0  0  0  0  0  0  0  0  0  0  0  0
  -30.9900  -23.0670   19.9310 N   0  0  0  0  0  0  0  0  0  0  0  0
  -31.8640  -21.2870   18.8560 O   0  0  0  0  0  0  0  0  0  0  0  0
  -30.3280  -23.3180   20.6470 H   0  0  0  0  0  0  0  0  0  0  0  0
  -31.3380  -24.0960   18.9700 C   0  0  0  0  0  2  0  0  0  0  0  0
  -31.3250  -25.5110   19.5730 C   0  0  0  0  0  2  0  0  0  0  0  0
  -30.1920  -25.7970   20.5570 C   0  0  0  0  0  2  0  0  0  0  0  0
  -30.0860  -27.2210   20.6460 O   0  0  0  0  0  0  0  0  0  0  0  0
  -25.1970  -31.4470   23.4100 C   0  0  0  0  0  0  0  0  0  0  0  0
  -28.8380  -27.7610   20.4490 C   0  0  0  0  0  0  0  0  0  0  0  0
  -24.4150  -30.0300   21.5390 C   0  0  0  0  0  3  0  0  0  0  0  0
  -26.2540  -28.8690   20.2070 C   0  0  0  0  0  0  0  0  0  0  0  0
  -26.8500  -30.8250   21.6440 C   0  0  0  0  0  2  0  0  0  0  0  0
  -27.2320  -29.5310   20.9630 C   0  0  0  0  0  0  0  0  0  0  0  0
  -28.5250  -28.9820   21.0860 C   0  0  0  0  0  3  0  0  0  0  0  0
  -27.8650  -27.1440   19.6310 C   0  0  0  0  0  3  0  0  0  0  0  0
  -26.5710  -27.6810   19.5270 C   0  0  0  0  0  3  0  0  0  0  0  0
  -24.8790  -29.5000   20.1570 C   0  0  0  0  0  2  0  0  0  0  0  0
  -25.4990  -30.7730   22.2650 N   0  0  0  0  0  0  0  0  0  0  0  0
  -24.0360  -31.4920   23.8450 O   0  0  0  0  0  0  0  0  0  0  0  0
  -23.8460  -28.8380   22.3370 C   0  0  0  0  0  0  0  0  0  0  0  0
  -22.5760  -28.4820   22.0680 N   0  0  0  0  0  0  0  0  0  0  0  0
  -24.5480  -28.2380   23.1520 O   0  0  0  0  0  0  0  0  0  0  0  0
  -22.0480  -29.0220   21.3960 H   0  0  0  0  0  0  0  0  0  0  0  0
  -19.3890  -26.8060   22.1490 C   0  0  0  0  0  0  0  0  0  0  0  0
  -21.8550  -27.3690   22.6780 C   0  0  0  0  0  3  0  0  0  0  0  0
  -22.2050  -26.0340   21.9780 C   0  0  0  0  0  2  0  0  0  0  0  0
  -21.2460  -25.6860   20.8380 C   0  0  0  0  0  2  0  0  0  0  0  0
  -19.8100  -25.5770   21.3610 C   0  0  0  0  0  2  0  0  0  0  0  0
  -20.3520  -27.6550   22.7580 C   0  0  0  0  0  0  0  0  0  0  0  0
  -19.9140  -28.8060   23.4520 C   0  0  0  0  0  3  0  0  0  0  0  0
  -18.5440  -29.1150   23.5400 C   0  0  0  0  0  3  0  0  0  0  0  0
  -17.5960  -28.2640   22.9440 C   0  0  0  0  0  3  0  0  0  0  0  0
  -18.0140  -27.1110   22.2580 C   0  0  0  0  0  3  0  0  0  0  0  0
  -26.2910  -32.2150   24.2150 C   0  0  0  0  0  3  0  0  0  0  0  0
  -26.6930  -31.5010   25.5600 C   0  0  1  0  0  0  0  0  0  0  0  0
  -25.4850  -31.1080   26.4360 C   0  0  0  0  0  1  0  0  0  0  0  0
  -27.5060  -30.2190   25.2670 C   0  0  0  0  0  1  0  0  0  0  0  0
  -27.6040  -32.4240   26.3990 C   0  0  0  0  0  1  0  0  0  0  0  0
  -25.7770  -33.5660   24.4780 N   0  0  0  0  0  0  0  0  0  0  0  0
  -26.0930  -34.6510   23.7570 C   0  0  0  0  0  0  0  0  0  0  0  0
  -26.9190  -34.6280   22.8400 O   0  0  0  0  0  0  0  0  0  0  0  0
  -25.0580  -33.6500   25.1820 H   0  0  0  0  0  0  0  0  0  0  0  0
  -24.2370  -36.2270   23.1230 C   0  0  0  0  0  1  0  0  0  0  0  0
  -25.3850  -35.9760   24.1140 C   0  0  0  0  0  3  0  0  0  0  0  0
  -27.2590  -37.1160   25.2180 C   0  0  0  0  0  1  0  0  0  0  0  0
  -26.2890  -37.1450   24.1240 N   0  0  0  0  0  0  0  0  0  0  0  0
  -25.7550  -38.0060   24.1990 H   0  0  0  0  0  0  0  0  0  0  0  0
  -31.3920  -18.5200   20.6020 C   0  0  0  0  0  0  0  0  0  0  0  0
  -30.4050  -19.4310   20.4760 N   0  0  0  0  0  0  0  0  0  0  0  0
  -32.5490  -18.7390   20.9570 O   0  0  0  0  0  0  0  0  0  0  0  0
  -29.5660  -18.9650   20.1490 H   0  0  0  0  0  0  0  0  0  0  0  0
  -30.8870  -17.0890   20.1910 C   0  0  0  0  0  3  0  0  0  0  0  0
  -31.8840  -14.7220   19.6250 C   0  0  0  0  0  0  0  0  0  0  0  0
  -31.4670  -12.3320   19.0530 C   0  0  0  0  0  2  0  0  0  0  0  0
  -30.4680  -12.1520   17.8880 C   0  0  0  0  0  2  0  0  0  0  0  0
  -29.0240  -12.0980   18.4120 C   0  0  0  0  0  2  0  0  0  0  0  0
  -28.7240  -13.2710   19.3770 C   0  0  0  0  0  3  0  0  0  0  0  0
  -29.8550  -13.3830   20.4590 C   0  0  0  0  0  2  0  0  0  0  0  0
  -31.1440  -13.5730   19.7920 N   0  0  0  0  0  0  0  0  0  0  0  0
  -32.9000  -14.7100   18.9310 O   0  0  0  0  0  0  0  0  0  0  0  0
  -31.6910  -15.8360   20.3790 N   0  0  0  0  0  0  0  0  0  0  0  0
  -32.6230  -16.1570   20.6190 H   0  0  0  0  0  0  0  0  0  0  0  0
  -26.4290  -14.2010   20.1990 C   0  0  0  0  0  0  0  0  0  0  0  0
  -25.3080  -13.5860   20.6510 C   0  0  0  0  0  0  0  0  0  0  0  0
  -25.5830  -12.1910   20.5490 C   0  0  0  0  0  0  0  0  0  0  0  0
  -27.3630  -13.1980   19.9270 N   0  0  0  0  0  0  0  0  0  0  0  0
  -26.8360  -11.9780   20.1820 N   0  0  0  0  0  0  0  0  0  0  0  0
  -24.6940  -11.0430   20.7250 C   0  0  0  0  0  0  0  0  0  0  0  0
  -25.0000  -10.0110   21.6350 C   0  0  0  0  0  3  0  0  0  0  0  0
  -24.1120   -8.9290   21.8030 C   0  0  0  0  0  3  0  0  0  0  0  0
  -22.9110   -8.8760   21.0600 C   0  0  0  0  0  0  0  0  0  0  0  0
  -22.6280   -9.8950   20.1380 C   0  0  0  0  0  3  0  0  0  0  0  0
  -23.5120  -10.9680   19.9650 C   0  0  0  0  0  3  0  0  0  0  0  0
  -22.0010   -7.8530   21.1370 O   0  0  0  0  0  0  0  0  0  0  0  0
  -21.8130   -7.1530   22.3000 C   0  0  0  0  0  0  0  0  0  0  0  0
  -21.4040   -7.7830   23.4930 C   0  0  0  0  0  3  0  0  0  0  0  0
  -21.1540   -7.0150   24.6460 C   0  0  0  0  0  3  0  0  0  0  0  0
  -21.3090   -5.6170   24.6040 C   0  0  0  0  0  0  0  0  0  0  0  0
  -21.7190   -4.9850   23.4150 C   0  0  0  0  0  3  0  0  0  0  0  0
  -21.9670   -5.7530   22.2650 C   0  0  0  0  0  0  0  0  0  0  0  0
  -22.3450   -5.1400   21.1170 F   0  0  0  0  0  0  0  0  0  0  0  0
  -21.0550   -4.8760   25.7080 F   0  0  0  0  0  0  0  0  0  0  0  0
  -24.0170  -14.2510   21.0440 C   0  0  0  0  0  0  0  0  0  0  0  0
  -23.2690  -13.6440   21.9590 N   0  0  0  0  0  0  0  0  0  0  0  0
  -23.7010  -15.3450   20.5780 O   0  0  0  0  0  0  0  0  0  0  0  0
  -23.5370  -12.7530   22.3580 H   0  0  0  0  0  0  0  0  0  0  0  0
  -22.4100  -14.0770   22.2610 H   0  0  0  0  0  0  0  0  0  0  0  0
  -26.6810  -15.5470   20.0090 N   0  0  0  0  0  0  0  0  0  0  0  0
  -25.9820  -16.1520   20.4230 H   0  0  0  0  0  0  0  0  0  0  0  0
  -27.6260  -15.8850   20.1360 H   0  0  0  0  0  0  0  0  0  0  0  0
  -30.9730  -17.7380   17.7270 C   0  0  0  0  0  1  0  0  0  0  0  0
  -28.9940  -16.0930   18.7380 C   0  0  0  0  0  1  0  0  0  0  0  0
  -30.0910  -17.1710   18.8720 C   0  0  0  0  0  3  0  0  0  0  0  0
  -28.0490  -22.4300   19.6800 C   0  0  0  0  0  1  0  0  0  0  0  0
  -28.4700  -20.3390   18.4620 C   0  0  0  0  0  1  0  0  0  0  0  0
  -27.6160  -20.3330   20.8650 C   0  0  0  0  0  1  0  0  0  0  0  0
  -28.6010  -20.9980   19.8690 C   0  0  1  0  0  0  0  0  0  0  0  0
  1  2  1  0
  1 51  1  0
  2  3  1  0
  3  5  1  0
  4  2  2  0
  6  7  1  0
  6  3  1  0
  7  8  1  0
  8  9  1  0
 10 21  2  0
 11  9  1  0
 11 16  1  0
 12 20  1  0
 12 22  1  0
 13 15  1  0
 14 20  1  0
 15 16  2  0
 15 14  1  0
 17 11  2  0
 18 17  1  0
 18 13  2  0
 19 13  1  0
 19 12  1  0
 20 10  1  0
 22 24  2  0
 23 22  1  0
 25 23  1  0
 26 35  2  0
 26 31  1  0
 27 23  1  0
 27 31  1  0
 28 27  1  0
 29 30  1  0
 29 28  1  0
 30 26  1  0
 31 32  2  0
 32 33  1  0
 34 33  2  0
 35 34  1  0
 36 10  1  0
 36 41  1  0
 36 37  1  0
 37 40  1  1
 37 38  1  0
 39 37  1  0
 41 44  1  0
 42 46  1  0
 42 41  1  0
 43 42  2  0
 46 45  1  0
 46 48  1  0
 48 49  1  0
 48 47  1  0
 50 52  2  0
 51 50  1  0
 53 51  1  0
 54 95  1  0
 54 63  1  0
 54 50  1  0
 55 61  1  0
 55 63  1  0
 56 61  1  0
 57 58  1  0
 57 56  1  0
 59 58  1  0
 59 68  1  0
 59 60  1  0
 61 60  1  0
 62 55  2  0
 63 64  1  0
 65 66  2  0
 66 85  1  0
 67 66  1  0
 67 70  1  0
 68 69  1  0
 68 65  1  0
 69 67  2  0
 70 71  1  0
 71 72  2  0
 73 76  1  0
 73 72  1  0
 74 73  2  0
 75 74  1  0
 75 70  2  0
 76 77  1  0
 77 78  1  0
 78 79  2  0
 80 79  1  0
 80 84  1  0
 81 80  2  0
 82 77  2  0
 82 81  1  0
 83 82  1  0
 85 86  1  0
 86 89  1  0
 86 88  1  0
 87 85  2  0
 90 92  1  0
 90 65  1  0
 90 91  1  0
 93 95  1  0
 94 95  1  0
 99 96  1  6
 97 99  1  0
 99  1  1  0
 99 98  1  0
M  ISO  4   8 101   9 101  55 100  63 100
M  END
>  <TORSDO>  (52) 
F 24

>  <SCORE>  (52) 
-8.965

>  <name>  (52) 
52

>  <ligand_id>  (52) 
52

>  <original_smiles>  (52) 
[H]c1c([H])c([H])c2c(c1[H])C([H])([H])C([H])([H])C([H])([H])C2([H])N([H])C(=O)C1([H])N(C(=O)C([H])(N([H])C(=O)C([H])(N([H])C([H])([H])[H])C([H])([H])[H])C(C([H])([H])[H])(C([H])([H])[H])C([H])([H])[H])C([H])([H])c2c([H])c(OC([H])([H])C([H])([H])C([H])([H])N([H])C(=O)C([H])(N([H])C(=O)C([H])(N([H])C(=O)N3C([H])([H])C([H])([H])C([H])([H])C([H])(n4nc(-c5c([H])c([H])c(Oc6c([H])c([H])c(F)c([H])c6F)c([H])c5[H])c(C(=O)N([H])[H])c4N([H])[H])C3([H])[H])C([H])(C([H])([H])[H])C([H])([H])[H])C(C([H])([H])[H])(C([H])([H])[H])C([H])([H])[H])c([H])c([H])c2C1([H])[H]

>  <smiles>  (52) 
[H]c1c([H])c([H])c2c(c1[H])C([H])([H])C([H])([H])C([H])([H])C2([H])N([H])C(=O)C1([H])N(C(=O)C([H])(N([H])C(=O)C([H])(N([H])C([H])([H])[H])C([H])([H])[H])C(C([H])([H])[H])(C([H])([H])[H])C([H])([H])[H])C([H])([H])c2c([H])c(OC([H])([H])C([H])([H])C([H])([H])N([H])C(=O)C([H])(N([H])C(=O)C([H])(N([H])C(=O)N3C([H])([H])C([H])([H])C([H])([H])C([H])(n4nc(-c5c([H])c([H])c(Oc6c([H])c([H])c(F)c([H])c6F)c([H])c5[H])c(C(=O)N([H])[H])c4N([H])[H])C3([H])[H])C([H])(C([H])([H])[H])C([H])([H])[H])C(C([H])([H])[H])(C([H])([H])[H])C([H])([H])[H])c([H])c([H])c2C1([H])[H]

$$$$
53:0:0
     RDKit          3D

 91 99  0  0  1  0  0  0  0  0999 V2000
  -29.7530  -20.0420   20.3700 N   0  0  0  0  0  4  0  0  0  0  0  0
  -30.7150  -20.2140   20.6150 H   0  0  0  0  0  0  0  0  0  0  0  0
  -29.7070  -20.0570   19.3630 H   0  0  0  0  0  0  0  0  0  0  0  0
  -27.9240  -18.2830   20.6270 C   0  0  0  0  0  1  0  0  0  0  0  0
  -29.4230  -18.6060   20.8080 C   0  0  0  0  0  3  0  0  0  0  0  0
  -30.6360  -14.8400   20.3430 C   0  0  0  0  0  0  0  0  0  0  0  0
  -30.4570  -12.5180   19.4640 C   0  0  0  0  0  2  0  0  0  0  0  0
  -29.5390  -12.4320   18.2250 C   0  0  0  0  0  2  0  0  0  0  0  0
  -28.0530  -12.3320   18.6300 C   0  0  0  0  0  2  0  0  0  0  0  0
  -27.6380  -13.2770   19.7890 C   0  0  0  0  0  3  0  0  0  0  0  0
  -28.6830  -13.3080   20.9240 C   0  0  0  0  0  2  0  0  0  0  0  0
  -29.9810  -13.6280   20.3150 N   0  0  0  0  0  0  0  0  0  0  0  0
  -31.8670  -14.8650   20.2900 O   0  0  0  0  0  0  0  0  0  0  0  0
  -29.8940  -17.2220   17.9390 C   0  0  0  0  0  2  0  0  0  0  0  0
  -30.9650  -17.7780   18.8500 C   0  0  0  0  0  2  0  0  0  0  0  0
  -29.2700  -16.0820   18.7570 C   0  0  0  0  0  2  0  0  0  0  0  0
  -30.4240  -17.4470   20.2490 C   0  0  0  0  0  3  0  0  0  0  0  0
  -29.9070  -16.0130   20.0980 N   0  0  0  0  0  0  0  0  0  0  0  0
  -25.2410  -13.8910   20.4660 C   0  0  0  0  0  0  0  0  0  0  0  0
  -24.1660  -13.1210   20.8180 C   0  0  0  0  0  0  0  0  0  0  0  0
  -24.6330  -11.7720   20.8250 C   0  0  0  0  0  0  0  0  0  0  0  0
  -26.2900  -13.0050   20.2720 N   0  0  0  0  0  0  0  0  0  0  0  0
  -25.9310  -11.7300   20.5590 N   0  0  0  0  0  0  0  0  0  0  0  0
  -23.9080  -10.5110   21.0130 C   0  0  0  0  0  0  0  0  0  0  0  0
  -24.3280   -9.5550   21.9650 C   0  0  0  0  0  3  0  0  0  0  0  0
  -23.6050   -8.3560   22.1410 C   0  0  0  0  0  3  0  0  0  0  0  0
  -22.4490   -8.1060   21.3660 C   0  0  0  0  0  0  0  0  0  0  0  0
  -22.0480   -9.0500   20.4030 C   0  0  0  0  0  3  0  0  0  0  0  0
  -22.7720  -10.2400   20.2250 C   0  0  0  0  0  3  0  0  0  0  0  0
  -21.6960   -6.9590   21.4520 O   0  0  0  0  0  0  0  0  0  0  0  0
  -21.6330   -6.2250   22.6080 C   0  0  0  0  0  0  0  0  0  0  0  0
  -21.1850   -6.7870   23.8230 C   0  0  0  0  0  3  0  0  0  0  0  0
  -21.0710   -5.9800   24.9730 C   0  0  0  0  0  3  0  0  0  0  0  0
  -21.3930   -4.6120   24.9080 C   0  0  0  0  0  0  0  0  0  0  0  0
  -21.8330   -4.0480   23.6970 C   0  0  0  0  0  3  0  0  0  0  0  0
  -21.9500   -4.8520   22.5500 C   0  0  0  0  0  0  0  0  0  0  0  0
  -22.3540   -4.3000   21.3810 F   0  0  0  0  0  0  0  0  0  0  0  0
  -21.2760   -3.8340   26.0090 F   0  0  0  0  0  0  0  0  0  0  0  0
  -22.7580  -13.5970   21.0390 C   0  0  0  0  0  0  0  0  0  0  0  0
  -22.0080  -12.9170   21.8970 N   0  0  0  0  0  0  0  0  0  0  0  0
  -22.3320  -14.6090   20.4840 O   0  0  0  0  0  0  0  0  0  0  0  0
  -22.3660  -12.0990   22.3680 H   0  0  0  0  0  0  0  0  0  0  0  0
  -21.0620  -13.2180   22.0870 H   0  0  0  0  0  0  0  0  0  0  0  0
  -25.4080  -15.2580   20.2670 N   0  0  0  0  0  0  0  0  0  0  0  0
  -24.6420  -15.9170   20.3500 H   0  0  0  0  0  0  0  0  0  0  0  0
  -26.2740  -15.6930   19.9750 H   0  0  0  0  0  0  0  0  0  0  0  0
  -28.9490  -21.2450   20.8600 C   0  0  0  0  0  3  0  0  0  0  0  0
  -29.1830  -22.6300   20.0850 C   0  0  0  0  0  3  0  0  0  0  0  0
  -28.5060  -23.9860   20.6100 C   0  0  0  0  0  2  0  0  0  0  0  0
  -28.6270  -25.2820   19.6870 C   0  0  0  0  0  2  0  0  0  0  0  0
  -28.4720  -26.6320   20.2680 O   0  0  0  0  0  0  0  0  0  0  0  0
  -24.6140  -31.9110   23.2480 C   0  0  0  0  0  0  0  0  0  0  0  0
  -27.3010  -27.3990   20.1990 C   0  0  0  0  0  0  0  0  0  0  0  0
  -23.4330  -30.5060   21.5910 C   0  0  0  0  0  3  0  0  0  0  0  0
  -24.9090  -28.9680   20.1750 C   0  0  0  0  0  0  0  0  0  0  0  0
  -25.9680  -30.8540   21.4250 C   0  0  0  0  0  2  0  0  0  0  0  0
  -26.0650  -29.4770   20.7800 C   0  0  0  0  0  0  0  0  0  0  0  0
  -27.2570  -28.7010   20.7840 C   0  0  0  0  0  3  0  0  0  0  0  0
  -26.1180  -26.9270   19.5870 C   0  0  0  0  0  3  0  0  0  0  0  0
  -24.9370  -27.6990   19.5730 C   0  0  0  0  0  3  0  0  0  0  0  0
  -23.6640  -29.8300   20.2120 C   0  0  0  0  0  2  0  0  0  0  0  0
  -24.6900  -31.1090   22.1450 N   0  0  0  0  0  0  0  0  0  0  0  0
  -23.5240  -32.1770   23.7750 O   0  0  0  0  0  0  0  0  0  0  0  0
  -22.7710  -29.4830   22.5450 C   0  0  0  0  0  0  0  0  0  0  0  0
  -21.4480  -29.2960   22.4050 N   0  0  0  0  0  0  0  0  0  0  0  0
  -23.4480  -28.8620   23.3680 O   0  0  0  0  0  0  0  0  0  0  0  0
  -20.9620  -29.8510   21.7150 H   0  0  0  0  0  0  0  0  0  0  0  0
  -18.0760  -28.0720   22.8640 C   0  0  0  0  0  0  0  0  0  0  0  0
  -20.6290  -28.3510   23.1650 C   0  0  0  0  0  3  0  0  0  0  0  0
  -20.7490  -26.9220   22.5870 C   0  0  0  0  0  2  0  0  0  0  0  0
  -19.6610  -26.5920   21.5600 C   0  0  0  0  0  2  0  0  0  0  0  0
  -18.2710  -26.7250   22.1890 C   0  0  0  0  0  2  0  0  0  0  0  0
  -19.1840  -28.8420   23.3080 C   0  0  0  0  0  0  0  0  0  0  0  0
  -18.9460  -30.1030   23.8980 C   0  0  0  0  0  3  0  0  0  0  0  0
  -17.6360  -30.5940   24.0490 C   0  0  0  0  0  3  0  0  0  0  0  0
  -16.5440  -29.8190   23.6220 C   0  0  0  0  0  3  0  0  0  0  0  0
  -16.7640  -28.5610   23.0360 C   0  0  0  0  0  3  0  0  0  0  0  0
  -25.8860  -32.5510   23.8830 C   0  0  0  0  0  3  0  0  0  0  0  0
  -25.5690  -33.9490   24.2020 N   0  0  0  0  0  0  0  0  0  0  0  0
  -25.9080  -34.9990   23.4430 C   0  0  0  0  0  0  0  0  0  0  0  0
  -26.5910  -34.8930   22.4200 O   0  0  0  0  0  0  0  0  0  0  0  0
  -24.9690  -34.1060   24.9980 H   0  0  0  0  0  0  0  0  0  0  0  0
  -24.1840  -36.7890   23.0560 C   0  0  0  0  0  1  0  0  0  0  0  0
  -25.4130  -36.3890   23.8880 C   0  0  0  0  0  3  0  0  0  0  0  0
  -27.5330  -37.2810   24.7480 C   0  0  0  0  0  1  0  0  0  0  0  0
  -26.4450  -37.4440   23.7880 N   0  0  0  0  0  0  0  0  0  0  0  0
  -26.0340  -38.3630   23.9230 H   0  0  0  0  0  0  0  0  0  0  0  0
  -26.3890  -31.7880   25.1710 C   0  0  1  0  0  0  0  0  0  0  0  0
  -25.2840  -31.5570   26.2270 C   0  0  0  0  0  1  0  0  0  0  0  0
  -26.9770  -30.4080   24.7940 C   0  0  0  0  0  1  0  0  0  0  0  0
  -27.5310  -32.5870   25.8420 C   0  0  0  0  0  1  0  0  0  0  0  0
  1  2  1  0
  1  5  1  0
  1 47  1  0
  3  1  1  0
  5  4  1  0
  7 12  1  0
  8  9  1  0
  8  7  1  0
 10  9  1  0
 10 22  1  0
 10 11  1  0
 12  6  1  0
 12 11  1  0
 13  6  2  0
 14 16  1  0
 14 15  1  0
 15 17  1  0
 16 18  1  0
 17  5  1  0
 18 17  1  0
 18  6  1  0
 19 20  2  0
 20 21  1  0
 20 39  1  0
 21 24  1  0
 22 19  1  0
 22 23  1  0
 23 21  2  0
 24 25  1  0
 25 26  2  0
 27 30  1  0
 27 26  1  0
 28 27  2  0
 29 28  1  0
 29 24  2  0
 30 31  1  0
 31 32  1  0
 32 33  2  0
 34 33  1  0
 34 38  1  0
 35 34  2  0
 36 31  2  0
 36 35  1  0
 37 36  1  0
 39 40  1  0
 40 43  1  0
 40 42  1  0
 41 39  2  0
 44 45  1  0
 44 19  1  0
 46 44  1  0
 48 49  1  0
 48 47  2  0
 50 51  1  0
 50 49  1  0
 52 63  2  0
 53 51  1  0
 53 58  1  0
 54 62  1  0
 54 64  1  0
 55 61  1  0
 55 57  1  0
 56 62  1  0
 57 58  2  0
 57 56  1  0
 59 53  2  0
 60 59  1  0
 60 55  2  0
 61 54  1  0
 62 52  1  0
 64 66  2  0
 65 64  1  0
 67 65  1  0
 68 77  2  0
 68 73  1  0
 69 65  1  0
 69 73  1  0
 70 69  1  0
 71 72  1  0
 71 70  1  0
 72 68  1  0
 73 74  2  0
 74 75  1  0
 76 75  2  0
 77 76  1  0
 78 52  1  0
 78 79  1  0
 78 88  1  0
 79 82  1  0
 80 84  1  0
 80 79  1  0
 81 80  2  0
 84 83  1  0
 86 84  1  0
 86 87  1  0
 86 85  1  0
 88 91  1  1
 88 89  1  0
 90 88  1  0
M  ISO  4   6 100  18 100  50 101  51 101
M  END
>  <TORSDO>  (53) 
F 21

>  <SCORE>  (53) 
-12.690

>  <name>  (53) 
53

>  <ligand_id>  (53) 
53

>  <original_smiles>  (53) 
[H]c1c([H])c([H])c2c(c1[H])C([H])([H])C([H])([H])C([H])([H])C2([H])N([H])C(=O)C1([H])N(C(=O)C([H])(N([H])C(=O)C([H])(N([H])C([H])([H])[H])C([H])([H])[H])C(C([H])([H])[H])(C([H])([H])[H])C([H])([H])[H])C([H])([H])c2c([H])c(OC([H])([H])C([H])([H])C([H])([H])C([H])([H])[N+]([H])([H])C([H])(C([H])([H])[H])C3([H])N(C(=O)N4C([H])([H])C([H])([H])C([H])([H])C([H])(n5nc(-c6c([H])c([H])c(Oc7c([H])c([H])c(F)c([H])c7F)c([H])c6[H])c(C(=O)N([H])[H])c5N([H])[H])C4([H])[H])C([H])([H])C([H])([H])C3([H])[H])c([H])c([H])c2C1([H])[H]

>  <smiles>  (53) 
[H]c1c([H])c([H])c2c(c1[H])C([H])([H])C([H])([H])C([H])([H])C2([H])N([H])C(=O)C1([H])N(C(=O)C([H])(N([H])C(=O)C([H])(N([H])C([H])([H])[H])C([H])([H])[H])C(C([H])([H])[H])(C([H])([H])[H])C([H])([H])[H])C([H])([H])c2c([H])c(OC([H])([H])C([H])([H])C([H])([H])C([H])([H])[N+]([H])([H])C([H])(C([H])([H])[H])C3([H])N(C(=O)N4C([H])([H])C([H])([H])C([H])([H])C([H])(n5nc(-c6c([H])c([H])c(Oc7c([H])c([H])c(F)c([H])c7F)c([H])c6[H])c(C(=O)N([H])[H])c5N([H])[H])C4([H])[H])C([H])([H])C([H])([H])C3([H])[H])c([H])c([H])c2C1([H])[H]

$$$$
54:0:0
     RDKit          3D

100107  0  0  1  0  0  0  0  0999 V2000
  -30.1780  -20.0230   18.9730 C   0  0  0  0  0  3  0  0  0  0  0  0
  -30.0580  -18.6240   19.1000 C   0  0  0  0  0  0  0  0  0  0  0  0
  -30.5650  -17.8120   17.9090 C   0  0  0  0  0  1  0  0  0  0  0  0
  -29.8970  -21.2380   19.8240 C   0  0  0  0  0  0  0  0  0  0  0  0
  -29.7350  -22.4470   19.1450 N   0  0  0  0  0  0  0  0  0  0  0  0
  -29.8620  -21.2150   21.0540 O   0  0  0  0  0  0  0  0  0  0  0  0
  -29.7870  -22.3810   18.1360 H   0  0  0  0  0  0  0  0  0  0  0  0
  -29.6810  -23.9000   19.6610 C   0  0  0  0  0  3  0  0  0  0  0  0
  -28.7130  -25.0140   18.9610 C   0  0  0  0  0  3  0  0  0  0  0  0
  -28.7670  -26.4980   19.2740 O   0  0  0  0  0  0  0  0  0  0  0  0
  -24.6550  -31.3830   22.7840 C   0  0  0  0  0  0  0  0  0  0  0  0
  -27.5910  -27.3000   19.2960 C   0  0  0  0  0  0  0  0  0  0  0  0
  -23.5480  -30.0430   21.0320 C   0  0  0  0  0  3  0  0  0  0  0  0
  -25.1030  -28.7510   19.4550 C   0  0  0  0  0  0  0  0  0  0  0  0
  -26.0560  -30.5730   20.8650 C   0  0  0  0  0  2  0  0  0  0  0  0
  -26.2400  -29.2660   20.0900 C   0  0  0  0  0  0  0  0  0  0  0  0
  -27.4830  -28.5520   20.0020 C   0  0  0  0  0  3  0  0  0  0  0  0
  -26.4200  -26.8650   18.6310 C   0  0  0  0  0  3  0  0  0  0  0  0
  -25.1980  -27.5630   18.7140 C   0  0  0  0  0  3  0  0  0  0  0  0
  -23.7990  -29.5110   19.5950 C   0  0  0  0  0  2  0  0  0  0  0  0
  -24.7710  -30.6820   21.6170 N   0  0  0  0  0  0  0  0  0  0  0  0
  -23.5570  -31.5230   23.3470 O   0  0  0  0  0  0  0  0  0  0  0  0
  -22.9780  -28.8960   21.9010 C   0  0  0  0  0  0  0  0  0  0  0  0
  -21.6630  -28.6430   21.7910 N   0  0  0  0  0  0  0  0  0  0  0  0
  -23.7170  -28.2410   22.6370 O   0  0  0  0  0  0  0  0  0  0  0  0
  -21.1180  -29.2340   21.1800 H   0  0  0  0  0  0  0  0  0  0  0  0
  -18.3840  -27.1800   22.2540 C   0  0  0  0  0  0  0  0  0  0  0  0
  -20.9310  -27.5800   22.4790 C   0  0  0  0  0  3  0  0  0  0  0  0
  -21.1010  -26.2230   21.7540 C   0  0  0  0  0  2  0  0  0  0  0  0
  -19.9870  -25.9360   20.7430 C   0  0  0  0  0  2  0  0  0  0  0  0
  -18.6220  -25.9230   21.4360 C   0  0  0  0  0  2  0  0  0  0  0  0
  -19.4670  -27.9680   22.7310 C   0  0  0  0  0  0  0  0  0  0  0  0
  -19.1860  -29.1460   23.4560 C   0  0  0  0  0  3  0  0  0  0  0  0
  -17.8590  -29.5370   23.7120 C   0  0  0  0  0  3  0  0  0  0  0  0
  -16.7920  -28.7460   23.2510 C   0  0  0  0  0  3  0  0  0  0  0  0
  -17.0560  -27.5690   22.5270 C   0  0  0  0  0  3  0  0  0  0  0  0
  -25.8880  -32.0630   23.4550 C   0  0  0  0  0  3  0  0  0  0  0  0
  -25.4650  -33.3900   23.9260 N   0  0  0  0  0  0  0  0  0  0  0  0
  -25.7290  -34.5420   23.2940 C   0  0  0  0  0  0  0  0  0  0  0  0
  -26.4150  -34.6010   22.2710 O   0  0  0  0  0  0  0  0  0  0  0  0
  -24.8490  -33.4120   24.7230 H   0  0  0  0  0  0  0  0  0  0  0  0
  -23.8740  -36.2320   23.1070 C   0  0  0  0  0  1  0  0  0  0  0  0
  -25.1340  -35.8330   23.8910 C   0  0  0  0  0  3  0  0  0  0  0  0
  -27.1870  -36.7800   24.8500 C   0  0  0  0  0  1  0  0  0  0  0  0
  -26.0840  -36.9660   23.9110 N   0  0  0  0  0  0  0  0  0  0  0  0
  -25.6080  -37.8300   24.1530 H   0  0  0  0  0  0  0  0  0  0  0  0
  -26.4880  -31.2180   24.6440 C   0  0  1  0  0  0  0  0  0  0  0  0
  -25.4370  -30.7920   25.6950 C   0  0  0  0  0  1  0  0  0  0  0  0
  -27.1690  -29.9340   24.1180 C   0  0  0  0  0  1  0  0  0  0  0  0
  -27.5830  -32.0350   25.3680 C   0  0  0  0  0  1  0  0  0  0  0  0
  -29.4920  -17.6160   20.2200 C   0  0  0  0  0  3  0  0  0  0  0  0
  -30.3520  -15.0290   19.8450 C   0  0  0  0  0  0  0  0  0  0  0  0
  -30.2440  -12.6930   18.9280 C   0  0  0  0  0  2  0  0  0  0  0  0
  -29.2270  -12.6660   17.7640 C   0  0  0  0  0  2  0  0  0  0  0  0
  -27.7900  -12.4470   18.2860 C   0  0  0  0  0  2  0  0  0  0  0  0
  -27.4480  -13.3550   19.4990 C   0  0  0  0  0  3  0  0  0  0  0  0
  -28.5810  -13.3560   20.5500 C   0  0  0  0  0  2  0  0  0  0  0  0
  -29.8090  -13.7620   19.8530 N   0  0  0  0  0  0  0  0  0  0  0  0
  -31.5410  -15.1920   19.5600 O   0  0  0  0  0  0  0  0  0  0  0  0
  -29.4550  -16.0920   19.9380 N   0  0  0  0  0  0  0  0  0  0  0  0
  -28.5120  -15.7420   19.9400 H   0  0  0  0  0  0  0  0  0  0  0  0
  -25.1220  -13.8820   20.4380 C   0  0  0  0  0  0  0  0  0  0  0  0
  -24.0910  -13.0860   20.8490 C   0  0  0  0  0  0  0  0  0  0  0  0
  -24.5560  -11.7440   20.7190 C   0  0  0  0  0  0  0  0  0  0  0  0
  -26.1500  -13.0270   20.0800 N   0  0  0  0  0  0  0  0  0  0  0  0
  -25.8220  -11.7300   20.3140 N   0  0  0  0  0  0  0  0  0  0  0  0
  -23.8510  -10.4700   20.9070 C   0  0  0  0  0  0  0  0  0  0  0  0
  -24.3390   -9.4780   21.7830 C   0  0  0  0  0  3  0  0  0  0  0  0
  -23.6370   -8.2670   21.9580 C   0  0  0  0  0  3  0  0  0  0  0  0
  -22.4310   -8.0400   21.2530 C   0  0  0  0  0  0  0  0  0  0  0  0
  -21.9640   -9.0200   20.3590 C   0  0  0  0  0  3  0  0  0  0  0  0
  -22.6670  -10.2230   20.1860 C   0  0  0  0  0  3  0  0  0  0  0  0
  -21.6900   -6.8880   21.3410 O   0  0  0  0  0  0  0  0  0  0  0  0
  -21.6770   -6.1280   22.4820 C   0  0  0  0  0  0  0  0  0  0  0  0
  -21.2840   -6.6610   23.7300 C   0  0  0  0  0  3  0  0  0  0  0  0
  -21.2230   -5.8280   24.8640 C   0  0  0  0  0  3  0  0  0  0  0  0
  -21.5380   -4.4600   24.7520 C   0  0  0  0  0  0  0  0  0  0  0  0
  -21.9200   -3.9260   23.5090 C   0  0  0  0  0  3  0  0  0  0  0  0
  -21.9880   -4.7580   22.3760 C   0  0  0  0  0  0  0  0  0  0  0  0
  -22.3400   -4.2350   21.1780 F   0  0  0  0  0  0  0  0  0  0  0  0
  -21.4670   -3.6550   25.8370 F   0  0  0  0  0  0  0  0  0  0  0  0
  -22.7180  -13.5410   21.2460 C   0  0  0  0  0  0  0  0  0  0  0  0
  -22.0680  -12.8100   22.1450 N   0  0  0  0  0  0  0  0  0  0  0  0
  -22.2290  -14.5740   20.7930 O   0  0  0  0  0  0  0  0  0  0  0  0
  -22.4840  -11.9740   22.5310 H   0  0  0  0  0  0  0  0  0  0  0  0
  -21.1470  -13.0890   22.4500 H   0  0  0  0  0  0  0  0  0  0  0  0
  -25.2560  -15.2570   20.3230 N   0  0  0  0  0  0  0  0  0  0  0  0
  -24.4840  -15.8790   20.5290 H   0  0  0  0  0  0  0  0  0  0  0  0
  -26.0570  -15.7340   19.9420 H   0  0  0  0  0  0  0  0  0  0  0  0
  -28.0370  -17.9370   20.7220 C   0  0  0  0  0  2  0  0  0  0  0  0
  -27.2590  -19.1020   20.1090 C   0  0  0  0  0  3  0  0  0  0  0  0
  -26.9030  -19.2920   18.8160 C   0  0  0  0  0  0  0  0  0  0  0  0
  -27.2720  -18.3120   17.7070 C   0  0  0  0  0  1  0  0  0  0  0  0
  -26.2090  -20.4680   18.4000 C   0  0  0  0  0  0  0  0  0  0  0  0
  -25.9230  -21.4660   19.2420 N   0  0  0  0  0  0  0  0  0  0  0  0
  -25.8340  -20.6050   17.1240 N   0  0  0  0  0  4  0  0  0  0  0  0
  -26.1540  -21.3880   20.2210 H   0  0  0  0  0  0  0  0  0  0  0  0
  -25.4030  -22.2840   18.9660 H   0  0  0  0  0  0  0  0  0  0  0  0
  -26.0600  -19.8650   16.4760 H   0  0  0  0  0  0  0  0  0  0  0  0
  -25.3960  -21.4350   16.7590 H   0  0  0  0  0  0  0  0  0  0  0  0
  1  2  2  0
  1  4  1  0
  2 51  1  0
  3  2  1  0
  4  6  2  0
  5  8  1  0
  5  4  1  0
  7  5  1  0
  9 10  1  0
  9  8  2  0
 10 12  1  0
 11 22  2  0
 12 17  1  0
 13 21  1  0
 13 23  1  0
 14 20  1  0
 14 16  1  0
 15 21  1  0
 16 15  1  0
 17 16  2  0
 18 19  1  0
 18 12  2  0
 19 14  2  0
 20 13  1  0
 21 11  1  0
 23 25  2  0
 24 23  1  0
 26 24  1  0
 27 36  2  0
 27 32  1  0
 28 24  1  0
 28 32  1  0
 29 28  1  0
 30 31  1  0
 30 29  1  0
 31 27  1  0
 32 33  2  0
 33 34  1  0
 35 34  2  0
 36 35  1  0
 37 11  1  0
 37 38  1  0
 37 47  1  0
 38 41  1  0
 39 43  1  0
 39 38  1  0
 40 39  2  0
 43 42  1  0
 43 45  1  0
 45 46  1  0
 45 44  1  0
 47 50  1  1
 47 48  1  0
 49 47  1  0
 51 90  1  0
 52 58  1  0
 52 60  1  0
 53 58  1  0
 54 55  1  0
 54 53  1  0
 56 55  1  0
 56 65  1  0
 56 57  1  0
 58 57  1  0
 59 52  2  0
 60 61  1  0
 60 51  1  0
 62 63  2  0
 63 82  1  0
 64 63  1  0
 64 67  1  0
 65 66  1  0
 65 62  1  0
 66 64  2  0
 67 68  1  0
 68 69  2  0
 70 73  1  0
 70 69  1  0
 71 70  2  0
 72 71  1  0
 72 67  2  0
 73 74  1  0
 74 75  1  0
 75 76  2  0
 77 76  1  0
 77 81  1  0
 78 77  2  0
 79 74  2  0
 79 78  1  0
 80 79  1  0
 82 83  1  0
 83 86  1  0
 83 85  1  0
 84 82  2  0
 87 62  1  0
 87 88  1  0
 89 87  1  0
 91 90  1  0
 92 91  2  0
 93 92  1  0
 94 92  1  0
 94 95  1  0
 95 97  1  0
 96 94  2  0
 98 95  1  0
 99 96  1  0
100 96  1  0
M  ISO  4   9 101  10 101  52 100  60 100
M  END
>  <TORSDO>  (54) 
F 23

>  <SCORE>  (54) 
-10.482

>  <name>  (54) 
54

>  <ligand_id>  (54) 
54

>  <original_smiles>  (54) 
[H]C(C(=O)N([H])C([H])([H])C([H])([H])Oc1c([H])c([H])c2c(c1[H])C([H])([H])N(C(=O)C([H])(N([H])C(=O)C([H])(N([H])C([H])([H])[H])C([H])([H])[H])C(C([H])([H])[H])(C([H])([H])[H])C([H])([H])[H])C([H])(C(=O)N([H])C1([H])c3c([H])c([H])c([H])c([H])c3C([H])([H])C([H])([H])C1([H])[H])C2([H])[H])=C(C([H])([H])[H])C([H])(N([H])C(=O)N1C([H])([H])C([H])([H])C([H])([H])C([H])(n2nc(-c3c([H])c([H])c(Oc4c([H])c([H])c(F)c([H])c4F)c([H])c3[H])c(C(=O)N([H])[H])c2N([H])[H])C1([H])[H])C([H])([H])C([H])=C(C(N([H])[H])=[N+]([H])[H])C([H])([H])[H]

>  <smiles>  (54) 
[H]C(C(=O)N([H])C([H])([H])C([H])([H])Oc1c([H])c([H])c2c(c1[H])C([H])([H])N(C(=O)C([H])(N([H])C(=O)C([H])(N([H])C([H])([H])[H])C([H])([H])[H])C(C([H])([H])[H])(C([H])([H])[H])C([H])([H])[H])C([H])(C(=O)N([H])C1([H])c3c([H])c([H])c([H])c([H])c3C([H])([H])C([H])([H])C1([H])[H])C2([H])[H])=C(C([H])([H])[H])C([H])(N([H])C(=O)N1C([H])([H])C([H])([H])C([H])([H])C([H])(n2nc(-c3c([H])c([H])c(Oc4c([H])c([H])c(F)c([H])c4F)c([H])c3[H])c(C(=O)N([H])[H])c2N([H])[H])C1([H])[H])C([H])([H])C([H])=C(C(N([H])[H])=[N+]([H])[H])C([H])([H])[H]

$$$$
55:0:0
     RDKit          3D

103110  0  0  1  0  0  0  0  0999 V2000
  -28.9180  -21.7990   20.7730 C   0  0  0  0  0  3  0  0  0  0  0  0
  -29.1640  -19.0460   20.3900 C   0  0  0  0  0  0  0  0  0  0  0  0
  -29.4130  -20.4310   20.1140 N   0  0  0  0  0  0  0  0  0  0  0  0
  -28.2190  -18.7550   21.1230 O   0  0  0  0  0  0  0  0  0  0  0  0
  -30.1570  -20.5630   19.4430 H   0  0  0  0  0  0  0  0  0  0  0  0
  -30.0910  -17.7580   19.8680 C   0  0  0  0  0  3  0  0  0  0  0  0
  -30.4310  -14.9840   19.8300 C   0  0  0  0  0  0  0  0  0  0  0  0
  -30.2200  -12.6180   18.9350 C   0  0  0  0  0  2  0  0  0  0  0  0
  -29.2190  -12.5750   17.7570 C   0  0  0  0  0  2  0  0  0  0  0  0
  -27.7830  -12.3700   18.2780 C   0  0  0  0  0  2  0  0  0  0  0  0
  -27.4570  -13.2870   19.4870 C   0  0  0  0  0  3  0  0  0  0  0  0
  -28.5850  -13.3210   20.5400 C   0  0  0  0  0  2  0  0  0  0  0  0
  -29.8100  -13.7330   19.8440 N   0  0  0  0  0  0  0  0  0  0  0  0
  -31.5830  -14.9890   19.3930 O   0  0  0  0  0  0  0  0  0  0  0  0
  -29.7510  -16.2130   20.1170 N   0  0  0  0  0  0  0  0  0  0  0  0
  -28.8180  -16.0820   20.4800 H   0  0  0  0  0  0  0  0  0  0  0  0
  -25.1390  -13.8360   20.4220 C   0  0  0  0  0  0  0  0  0  0  0  0
  -24.1070  -13.0480   20.8560 C   0  0  0  0  0  0  0  0  0  0  0  0
  -24.5720  -11.7010   20.7590 C   0  0  0  0  0  0  0  0  0  0  0  0
  -26.1610  -12.9690   20.0790 N   0  0  0  0  0  0  0  0  0  0  0  0
  -25.8340  -11.6760   20.3460 N   0  0  0  0  0  0  0  0  0  0  0  0
  -23.8630  -10.4310   20.9760 C   0  0  0  0  0  0  0  0  0  0  0  0
  -24.3500   -9.4520   21.8690 C   0  0  0  0  0  3  0  0  0  0  0  0
  -23.6340   -8.2520   22.0750 C   0  0  0  0  0  3  0  0  0  0  0  0
  -22.4200   -8.0220   21.3870 C   0  0  0  0  0  0  0  0  0  0  0  0
  -21.9530   -8.9880   20.4790 C   0  0  0  0  0  3  0  0  0  0  0  0
  -22.6680  -10.1790   20.2720 C   0  0  0  0  0  3  0  0  0  0  0  0
  -21.6720   -6.8740   21.5060 O   0  0  0  0  0  0  0  0  0  0  0  0
  -21.6770   -6.1250   22.6560 C   0  0  0  0  0  0  0  0  0  0  0  0
  -21.3100   -6.6740   23.9040 C   0  0  0  0  0  3  0  0  0  0  0  0
  -21.2600   -5.8530   25.0470 C   0  0  0  0  0  3  0  0  0  0  0  0
  -21.5690   -4.4820   24.9450 C   0  0  0  0  0  0  0  0  0  0  0  0
  -21.9280   -3.9340   23.7030 C   0  0  0  0  0  3  0  0  0  0  0  0
  -21.9780   -4.7510   22.5600 C   0  0  0  0  0  0  0  0  0  0  0  0
  -22.3060   -4.2110   21.3620 F   0  0  0  0  0  0  0  0  0  0  0  0
  -21.5120   -3.6920   26.0420 F   0  0  0  0  0  0  0  0  0  0  0  0
  -22.7360  -13.5170   21.2450 C   0  0  0  0  0  0  0  0  0  0  0  0
  -22.0770  -12.8070   22.1560 N   0  0  0  0  0  0  0  0  0  0  0  0
  -22.2560  -14.5460   20.7730 O   0  0  0  0  0  0  0  0  0  0  0  0
  -22.4750  -11.9720   22.5580 H   0  0  0  0  0  0  0  0  0  0  0  0
  -21.1590  -13.1050   22.4550 H   0  0  0  0  0  0  0  0  0  0  0  0
  -25.2850  -15.2100   20.2640 N   0  0  0  0  0  0  0  0  0  0  0  0
  -24.5330  -15.8610   20.4660 H   0  0  0  0  0  0  0  0  0  0  0  0
  -26.0970  -15.6630   19.8630 H   0  0  0  0  0  0  0  0  0  0  0  0
  -31.8370  -17.5700   21.7730 C   0  0  0  0  0  1  0  0  0  0  0  0
  -32.6540  -17.6560   19.3500 C   0  0  0  0  0  1  0  0  0  0  0  0
  -31.5490  -18.0670   20.3440 C   0  0  0  0  0  3  0  0  0  0  0  0
  -29.9140  -22.2040   21.9060 C   0  0  0  0  0  2  0  0  0  0  0  0
  -30.6980  -21.0950   22.6420 C   0  0  0  0  0  2  0  0  0  0  0  0
  -31.7210  -21.6620   23.6550 C   0  0  0  0  0  2  0  0  0  0  0  0
  -32.8810  -20.7050   23.9890 C   0  0  0  0  0  2  0  0  0  0  0  0
  -35.0410  -20.4180   22.6920 C   0  0  0  0  0  0  0  0  0  0  0  0
  -35.5970  -20.0730   21.5350 N   0  0  0  0  0  4  0  0  0  0  0  0
  -35.8300  -20.7520   23.7090 N   0  0  0  0  0  0  0  0  0  0  0  0
  -33.7040  -20.4240   22.7990 N   0  0  0  0  0  0  0  0  0  0  0  0
  -36.5970  -20.0370   21.4010 H   0  0  0  0  0  0  0  0  0  0  0  0
  -35.0380  -19.8210   20.7320 H   0  0  0  0  0  0  0  0  0  0  0  0
  -36.8370  -20.7530   23.6330 H   0  0  0  0  0  0  0  0  0  0  0  0
  -35.4360  -21.0620   24.5840 H   0  0  0  0  0  0  0  0  0  0  0  0
  -33.1690  -20.1810   21.9810 H   0  0  0  0  0  0  0  0  0  0  0  0
  -28.6450  -23.2610   19.9390 C   0  0  0  0  0  2  0  0  0  0  0  0
  -27.9670  -24.6830   20.5930 C   0  0  0  0  0  2  0  0  0  0  0  0
  -28.1960  -26.1840   20.2110 O   0  0  0  0  0  0  0  0  0  0  0  0
  -24.5670  -31.8670   23.2300 C   0  0  0  0  0  0  0  0  0  0  0  0
  -27.1300  -27.1580   20.1950 C   0  0  0  0  0  0  0  0  0  0  0  0
  -23.3580  -30.4750   21.5930 C   0  0  0  0  0  3  0  0  0  0  0  0
  -24.8000  -28.8990   20.1600 C   0  0  0  0  0  0  0  0  0  0  0  0
  -25.9090  -30.7400   21.4170 C   0  0  0  0  0  2  0  0  0  0  0  0
  -25.9800  -29.3480   20.7630 C   0  0  0  0  0  0  0  0  0  0  0  0
  -27.1500  -28.4980   20.7580 C   0  0  0  0  0  3  0  0  0  0  0  0
  -25.9260  -26.8100   19.5480 C   0  0  0  0  0  3  0  0  0  0  0  0
  -24.7850  -27.6440   19.5300 C   0  0  0  0  0  3  0  0  0  0  0  0
  -23.5710  -29.7970   20.2120 C   0  0  0  0  0  2  0  0  0  0  0  0
  -24.6310  -31.0500   22.1320 N   0  0  0  0  0  0  0  0  0  0  0  0
  -23.4840  -32.1500   23.7640 O   0  0  0  0  0  0  0  0  0  0  0  0
  -22.6840  -29.4670   22.5580 C   0  0  0  0  0  0  0  0  0  0  0  0
  -21.3590  -29.2820   22.4240 N   0  0  0  0  0  0  0  0  0  0  0  0
  -23.3580  -28.8500   23.3880 O   0  0  0  0  0  0  0  0  0  0  0  0
  -20.8720  -29.8280   21.7270 H   0  0  0  0  0  0  0  0  0  0  0  0
  -17.9920  -28.0260   22.8910 C   0  0  0  0  0  0  0  0  0  0  0  0
  -20.5420  -28.3400   23.1960 C   0  0  0  0  0  3  0  0  0  0  0  0
  -20.6790  -26.9040   22.6410 C   0  0  0  0  0  2  0  0  0  0  0  0
  -19.5990  -26.5460   21.6150 C   0  0  0  0  0  2  0  0  0  0  0  0
  -18.2040  -26.6730   22.2330 C   0  0  0  0  0  2  0  0  0  0  0  0
  -19.0900  -28.8160   23.3280 C   0  0  0  0  0  0  0  0  0  0  0  0
  -18.8370  -30.0810   23.9000 C   0  0  0  0  0  3  0  0  0  0  0  0
  -17.5210  -30.5590   24.0400 C   0  0  0  0  0  3  0  0  0  0  0  0
  -16.4380  -29.7670   23.6210 C   0  0  0  0  0  3  0  0  0  0  0  0
  -16.6750  -28.5030   23.0520 C   0  0  0  0  0  3  0  0  0  0  0  0
  -25.8500  -32.4970   23.8520 C   0  0  0  0  0  3  0  0  0  0  0  0
  -26.3520  -31.7350   25.1410 C   0  0  1  0  0  0  0  0  0  0  0  0
  -25.2520  -31.5210   26.2070 C   0  0  0  0  0  1  0  0  0  0  0  0
  -26.9240  -30.3470   24.7710 C   0  0  0  0  0  1  0  0  0  0  0  0
  -27.5080  -32.5260   25.7960 C   0  0  0  0  0  1  0  0  0  0  0  0
  -25.5450  -33.9000   24.1750 N   0  0  0  0  0  0  0  0  0  0  0  0
  -25.8890  -34.9510   23.4160 C   0  0  0  0  0  0  0  0  0  0  0  0
  -26.5610  -34.8400   22.3890 O   0  0  0  0  0  0  0  0  0  0  0  0
  -24.9460  -34.0590   24.9700 H   0  0  0  0  0  0  0  0  0  0  0  0
  -24.1730  -36.7580   23.0590 C   0  0  0  0  0  1  0  0  0  0  0  0
  -25.4120  -36.3450   23.8710 C   0  0  0  0  0  3  0  0  0  0  0  0
  -27.5540  -37.2180   24.6940 C   0  0  0  0  0  1  0  0  0  0  0  0
  -26.4520  -37.3900   23.7520 N   0  0  0  0  0  0  0  0  0  0  0  0
  -26.0530  -38.3150   23.8940 H   0  0  0  0  0  0  0  0  0  0  0  0
  1 61  1  0
  1 48  1  0
  2  4  2  0
  3  2  1  0
  3  1  1  0
  5  3  1  0
  6 15  1  0
  6 47  1  0
  6  2  1  0
  7 13  1  0
  7 15  1  0
  8 13  1  0
  9 10  1  0
  9  8  1  0
 11 10  1  0
 11 20  1  0
 11 12  1  0
 13 12  1  0
 14  7  2  0
 15 16  1  0
 17 18  2  0
 18 37  1  0
 19 18  1  0
 19 22  1  0
 20 21  1  0
 20 17  1  0
 21 19  2  0
 22 23  1  0
 23 24  2  0
 25 28  1  0
 25 24  1  0
 26 25  2  0
 27 26  1  0
 27 22  2  0
 28 29  1  0
 29 30  1  0
 30 31  2  0
 32 31  1  0
 32 36  1  0
 33 32  2  0
 34 29  2  0
 34 33  1  0
 35 34  1  0
 37 38  1  0
 38 41  1  0
 38 40  1  0
 39 37  2  0
 42 17  1  0
 42 43  1  0
 44 42  1  0
 46 47  1  0
 47 45  1  0
 48 49  1  0
 49 50  1  0
 50 51  1  0
 52 55  1  0
 52 54  1  0
 53 52  2  0
 54 59  1  0
 55 51  1  0
 56 53  1  0
 57 53  1  0
 58 54  1  0
 60 55  1  0
 61 62  1  0
 63 62  1  0
 64 75  2  0
 65 63  1  0
 65 70  1  0
 66 74  1  0
 66 76  1  0
 67 73  1  0
 67 69  1  0
 68 74  1  0
 69 68  1  0
 70 69  2  0
 71 65  2  0
 72 71  1  0
 72 67  2  0
 73 66  1  0
 74 64  1  0
 76 78  2  0
 77 76  1  0
 79 77  1  0
 80 89  2  0
 80 85  1  0
 81 77  1  0
 81 85  1  0
 82 81  1  0
 83 84  1  0
 83 82  1  0
 84 80  1  0
 85 86  2  0
 86 87  1  0
 88 87  2  0
 89 88  1  0
 90 64  1  0
 90 95  1  0
 90 91  1  0
 91 94  1  1
 91 92  1  0
 93 91  1  0
 95 98  1  0
 96100  1  0
 96 95  1  0
 97 96  2  0
100 99  1  0
102100  1  0
102103  1  0
102101  1  0
M  ISO  4   7 100  15 100  62 101  63 101
M  END
>  <TORSDO>  (55) 
F 26

>  <SCORE>  (55) 
-12.338

>  <name>  (55) 
55

>  <ligand_id>  (55) 
55

>  <original_smiles>  (55) 
[H]c1c([H])c([H])c2c(c1[H])C([H])([H])C([H])([H])C([H])([H])C2([H])N([H])C(=O)C1([H])N(C(=O)C([H])(N([H])C(=O)C([H])(N([H])C([H])([H])[H])C([H])([H])[H])C(C([H])([H])[H])(C([H])([H])[H])C([H])([H])[H])C([H])([H])c2c([H])c(OC([H])([H])C([H])([H])C([H])(N([H])C(=O)C([H])(N([H])C(=O)N3C([H])([H])C([H])([H])C([H])([H])C([H])(n4nc(-c5c([H])c([H])c(Oc6c([H])c([H])c(F)c([H])c6F)c([H])c5[H])c(C(=O)N([H])[H])c4N([H])[H])C3([H])[H])C([H])(C([H])([H])[H])C([H])([H])[H])C([H])([H])C([H])([H])C([H])([H])C([H])([H])N([H])C(N([H])[H])=[N+]([H])[H])c([H])c([H])c2C1([H])[H]

>  <smiles>  (55) 
[H]c1c([H])c([H])c2c(c1[H])C([H])([H])C([H])([H])C([H])([H])C2([H])N([H])C(=O)C1([H])N(C(=O)C([H])(N([H])C(=O)C([H])(N([H])C([H])([H])[H])C([H])([H])[H])C(C([H])([H])[H])(C([H])([H])[H])C([H])([H])[H])C([H])([H])c2c([H])c(OC([H])([H])C([H])([H])C([H])(N([H])C(=O)C([H])(N([H])C(=O)N3C([H])([H])C([H])([H])C([H])([H])C([H])(n4nc(-c5c([H])c([H])c(Oc6c([H])c([H])c(F)c([H])c6F)c([H])c5[H])c(C(=O)N([H])[H])c4N([H])[H])C3([H])[H])C([H])(C([H])([H])[H])C([H])([H])[H])C([H])([H])C([H])([H])C([H])([H])C([H])([H])N([H])C(N([H])[H])=[N+]([H])[H])c([H])c([H])c2C1([H])[H]

$$$$
56:0:0
     RDKit          3D

 87 95  0  0  1  0  0  0  0  0999 V2000
  -29.4770  -19.8170   20.4750 C   0  0  0  0  0  0  0  0  0  0  0  0
  -29.4910  -19.7800   21.8150 C   0  0  0  0  0  2  0  0  0  0  0  0
  -29.3520  -20.6420   18.2820 C   0  0  0  0  0  2  0  0  0  0  0  0
  -29.4170  -19.0370   18.2640 C   0  0  0  0  0  2  0  0  0  0  0  0
  -28.9160  -21.1880   19.6780 C   0  0  0  0  0  3  0  0  0  0  0  0
  -29.9840  -18.4760   19.6050 C   0  0  0  0  0  3  0  0  0  0  0  0
  -30.6030  -15.5680   19.7400 C   0  0  0  0  0  0  0  0  0  0  0  0
  -30.5750  -13.0980   18.9310 C   0  0  0  0  0  2  0  0  0  0  0  0
  -29.5830  -12.8500   17.7660 C   0  0  0  0  0  2  0  0  0  0  0  0
  -28.1710  -12.5590   18.3050 C   0  0  0  0  0  2  0  0  0  0  0  0
  -27.7760  -13.5350   19.4410 C   0  0  0  0  0  3  0  0  0  0  0  0
  -28.8920  -13.7310   20.4910 C   0  0  0  0  0  2  0  0  0  0  0  0
  -30.0670  -14.2470   19.7700 N   0  0  0  0  0  0  0  0  0  0  0  0
  -31.7960  -15.5860   19.4010 O   0  0  0  0  0  0  0  0  0  0  0  0
  -29.8250  -16.8280   19.8930 N   0  0  0  0  0  0  0  0  0  0  0  0
  -28.8850  -16.6080   20.1870 H   0  0  0  0  0  0  0  0  0  0  0  0
  -25.4830  -14.0670   20.4180 C   0  0  0  0  0  0  0  0  0  0  0  0
  -24.4490  -13.2780   20.8360 C   0  0  0  0  0  0  0  0  0  0  0  0
  -24.8990  -11.9280   20.7000 C   0  0  0  0  0  0  0  0  0  0  0  0
  -26.4930  -13.1990   20.0440 N   0  0  0  0  0  0  0  0  0  0  0  0
  -26.1590  -11.9030   20.2810 N   0  0  0  0  0  0  0  0  0  0  0  0
  -24.1760  -10.6630   20.8870 C   0  0  0  0  0  0  0  0  0  0  0  0
  -24.6130   -9.6920   21.8160 C   0  0  0  0  0  3  0  0  0  0  0  0
  -23.8880   -8.4930   21.9930 C   0  0  0  0  0  3  0  0  0  0  0  0
  -22.7120   -8.2570   21.2410 C   0  0  0  0  0  0  0  0  0  0  0  0
  -22.2950   -9.2160   20.3020 C   0  0  0  0  0  3  0  0  0  0  0  0
  -23.0200  -10.4060   20.1230 C   0  0  0  0  0  3  0  0  0  0  0  0
  -21.9590   -7.1120   21.3280 O   0  0  0  0  0  0  0  0  0  0  0  0
  -21.8330   -6.4200   22.5060 C   0  0  0  0  0  0  0  0  0  0  0  0
  -21.2150   -6.9880   23.6410 C   0  0  0  0  0  3  0  0  0  0  0  0
  -21.0440   -6.2180   24.8100 C   0  0  0  0  0  3  0  0  0  0  0  0
  -21.4810   -4.8810   24.8420 C   0  0  0  0  0  0  0  0  0  0  0  0
  -22.0910   -4.3120   23.7110 C   0  0  0  0  0  3  0  0  0  0  0  0
  -22.2630   -5.0780   22.5440 C   0  0  0  0  0  0  0  0  0  0  0  0
  -22.8330   -4.5190   21.4500 F   0  0  0  0  0  0  0  0  0  0  0  0
  -21.3100   -4.1380   25.9610 F   0  0  0  0  0  0  0  0  0  0  0  0
  -23.0830  -13.7500   21.2410 C   0  0  0  0  0  0  0  0  0  0  0  0
  -22.4260  -13.0250   22.1390 N   0  0  0  0  0  0  0  0  0  0  0  0
  -22.6120  -14.7960   20.7960 O   0  0  0  0  0  0  0  0  0  0  0  0
  -22.8230  -12.1780   22.5180 H   0  0  0  0  0  0  0  0  0  0  0  0
  -21.5130  -13.3220   22.4520 H   0  0  0  0  0  0  0  0  0  0  0  0
  -25.6410  -15.4440   20.2930 N   0  0  0  0  0  0  0  0  0  0  0  0
  -24.8850  -16.0910   20.4930 H   0  0  0  0  0  0  0  0  0  0  0  0
  -26.4480  -15.8960   19.8820 H   0  0  0  0  0  0  0  0  0  0  0  0
  -29.0900  -22.9610   20.0530 C   0  0  0  0  0  3  0  0  0  0  0  0
  -28.1460  -24.4770   19.7240 C   0  0  0  0  0  3  0  0  0  0  0  0
  -28.2960  -26.0830   20.1010 O   0  0  0  0  0  0  0  0  0  0  0  0
  -24.6380  -31.9100   23.2230 C   0  0  0  0  0  0  0  0  0  0  0  0
  -27.2710  -27.1710   20.0480 C   0  0  0  0  0  0  0  0  0  0  0  0
  -23.4690  -30.5560   21.5320 C   0  0  0  0  0  3  0  0  0  0  0  0
  -24.9440  -29.0210   20.0570 C   0  0  0  0  0  0  0  0  0  0  0  0
  -26.0330  -30.8060   21.4040 C   0  0  0  0  0  2  0  0  0  0  0  0
  -26.1240  -29.4210   20.6980 C   0  0  0  0  0  0  0  0  0  0  0  0
  -27.2790  -28.5170   20.6690 C   0  0  0  0  0  3  0  0  0  0  0  0
  -26.0600  -26.9270   19.3610 C   0  0  0  0  0  3  0  0  0  0  0  0
  -24.9380  -27.7970   19.3690 C   0  0  0  0  0  3  0  0  0  0  0  0
  -23.7120  -29.9240   20.1330 C   0  0  0  0  0  2  0  0  0  0  0  0
  -24.7340  -31.1170   22.1070 N   0  0  0  0  0  0  0  0  0  0  0  0
  -23.5440  -32.1670   23.7510 O   0  0  0  0  0  0  0  0  0  0  0  0
  -22.7850  -29.5190   22.4610 C   0  0  0  0  0  0  0  0  0  0  0  0
  -21.4640  -29.3140   22.2990 N   0  0  0  0  0  0  0  0  0  0  0  0
  -23.4490  -28.9000   23.2950 O   0  0  0  0  0  0  0  0  0  0  0  0
  -20.9800  -29.8650   21.6040 H   0  0  0  0  0  0  0  0  0  0  0  0
  -18.1140  -27.9750   22.6920 C   0  0  0  0  0  0  0  0  0  0  0  0
  -20.6550  -28.3340   23.0310 C   0  0  0  0  0  3  0  0  0  0  0  0
  -20.8250  -26.9160   22.4360 C   0  0  0  0  0  2  0  0  0  0  0  0
  -19.7640  -26.5710   21.3860 C   0  0  0  0  0  2  0  0  0  0  0  0
  -18.3610  -26.6480   21.9930 C   0  0  0  0  0  2  0  0  0  0  0  0
  -19.1900  -28.7730   23.1640 C   0  0  0  0  0  0  0  0  0  0  0  0
  -18.9040  -30.0110   23.7800 C   0  0  0  0  0  3  0  0  0  0  0  0
  -17.5760  -30.4540   23.9240 C   0  0  0  0  0  3  0  0  0  0  0  0
  -16.5140  -29.6550   23.4650 C   0  0  0  0  0  3  0  0  0  0  0  0
  -16.7840  -28.4170   22.8550 C   0  0  0  0  0  3  0  0  0  0  0  0
  -25.8990  -32.5470   23.8840 C   0  0  0  0  0  3  0  0  0  0  0  0
  -25.5920  -33.9590   24.1770 N   0  0  0  0  0  0  0  0  0  0  0  0
  -25.9110  -34.9950   23.3890 C   0  0  0  0  0  0  0  0  0  0  0  0
  -26.5570  -34.8610   22.3460 O   0  0  0  0  0  0  0  0  0  0  0  0
  -25.0140  -34.1340   24.9870 H   0  0  0  0  0  0  0  0  0  0  0  0
  -24.1630  -36.7790   23.0650 C   0  0  0  0  0  1  0  0  0  0  0  0
  -25.4450  -36.3980   23.8260 C   0  0  0  0  0  3  0  0  0  0  0  0
  -27.5990  -37.3360   24.5410 C   0  0  0  0  0  1  0  0  0  0  0  0
  -26.4670  -37.4490   23.6260 N   0  0  0  0  0  0  0  0  0  0  0  0
  -26.0600  -38.3740   23.7390 H   0  0  0  0  0  0  0  0  0  0  0  0
  -26.3480  -31.8050   25.2040 C   0  0  1  0  0  0  0  0  0  0  0  0
  -25.2050  -31.6030   26.2260 C   0  0  0  0  0  1  0  0  0  0  0  0
  -26.9370  -30.4130   24.8830 C   0  0  0  0  0  1  0  0  0  0  0  0
  -27.4730  -32.6070   25.8980 C   0  0  0  0  0  1  0  0  0  0  0  0
  1  2  2  0
  3  5  1  0
  4  3  1  0
  4  6  1  0
  5 45  1  0
  5  1  1  0
  6 15  1  0
  6  1  1  0
  7 13  1  0
  7 15  1  0
  8 13  1  0
  9 10  1  0
  9  8  1  0
 11 10  1  0
 11 20  1  0
 11 12  1  0
 13 12  1  0
 14  7  2  0
 15 16  1  0
 17 18  2  0
 18 37  1  0
 19 18  1  0
 19 22  1  0
 20 21  1  0
 20 17  1  0
 21 19  2  0
 22 23  1  0
 23 24  2  0
 25 28  1  0
 25 24  1  0
 26 25  2  0
 27 26  1  0
 27 22  2  0
 28 29  1  0
 29 34  2  0
 29 30  1  0
 30 31  2  0
 31 32  1  0
 32 36  1  0
 33 32  2  0
 34 33  1  0
 35 34  1  0
 37 38  1  0
 38 41  1  0
 38 40  1  0
 39 37  2  0
 42 17  1  0
 42 43  1  0
 44 42  1  0
 46 45  2  0
 46 47  1  0
 48 59  2  0
 49 47  1  0
 49 54  1  0
 50 58  1  0
 50 60  1  0
 51 57  1  0
 51 53  1  0
 52 58  1  0
 53 52  1  0
 54 53  2  0
 55 56  1  0
 55 49  2  0
 56 51  2  0
 57 50  1  0
 58 48  1  0
 60 62  2  0
 61 60  1  0
 63 61  1  0
 64 73  2  0
 64 69  1  0
 65 61  1  0
 65 69  1  0
 66 65  1  0
 67 68  1  0
 67 66  1  0
 68 64  1  0
 69 70  2  0
 70 71  1  0
 72 71  2  0
 73 72  1  0
 74 48  1  0
 74 75  1  0
 74 84  1  0
 75 78  1  0
 76 80  1  0
 76 75  1  0
 77 76  2  0
 80 79  1  0
 82 83  1  0
 82 80  1  0
 82 81  1  0
 84 87  1  1
 84 85  1  0
 86 84  1  0
M  ISO  4   7 100  15 100  46 101  47 101
M  END
>  <TORSDO>  (56) 
F 18

>  <SCORE>  (56) 
-15.448

>  <name>  (56) 
56

>  <ligand_id>  (56) 
56

>  <original_smiles>  (56) 
[H]C([H])=C1C([H])(N([H])C(=O)N2C([H])([H])C([H])([H])C([H])([H])C([H])(n3nc(-c4c([H])c([H])c(Oc5c([H])c([H])c(F)c([H])c5F)c([H])c4[H])c(C(=O)N([H])[H])c3N([H])[H])C2([H])[H])C([H])([H])C([H])([H])C1([H])C([H])([H])C([H])([H])Oc1c([H])c([H])c2c(c1[H])C([H])([H])N(C(=O)C([H])(N([H])C(=O)C([H])(N([H])C([H])([H])[H])C([H])([H])[H])C(C([H])([H])[H])(C([H])([H])[H])C([H])([H])[H])C([H])(C(=O)N([H])C1([H])c3c([H])c([H])c([H])c([H])c3C([H])([H])C([H])([H])C1([H])[H])C2([H])[H]

>  <smiles>  (56) 
[H]C([H])=C1C([H])(N([H])C(=O)N2C([H])([H])C([H])([H])C([H])([H])C([H])(n3nc(-c4c([H])c([H])c(Oc5c([H])c([H])c(F)c([H])c5F)c([H])c4[H])c(C(=O)N([H])[H])c3N([H])[H])C2([H])[H])C([H])([H])C([H])([H])C1([H])C([H])([H])C([H])([H])Oc1c([H])c([H])c2c(c1[H])C([H])([H])N(C(=O)C([H])(N([H])C(=O)C([H])(N([H])C([H])([H])[H])C([H])([H])[H])C(C([H])([H])[H])(C([H])([H])[H])C([H])([H])[H])C([H])(C(=O)N([H])C1([H])c3c([H])c([H])c([H])c([H])c3C([H])([H])C([H])([H])C1([H])[H])C2([H])[H]

$$$$
57:0:0
     RDKit          3D

 85 93  0  0  1  0  0  0  0  0999 V2000
  -30.3170  -20.8800   20.6350 C   0  0  0  0  0  2  0  0  0  0  0  0
  -29.9200  -22.3390   20.6130 C   0  0  0  0  0  3  0  0  0  0  0  0
  -29.3970  -19.8420   20.3860 C   0  0  0  0  0  0  0  0  0  0  0  0
  -28.6060  -22.7240   20.3160 C   0  0  0  0  0  0  0  0  0  0  0  0
  -27.9130  -20.9660   20.0930 S   0  0  0  0  0  0  0  0  0  0  0  0
  -29.6560  -18.2130   20.3770 C   0  0  0  0  0  0  0  0  0  0  0  0
  -29.4790  -16.7290   20.4040 C   0  0  0  0  0  3  0  0  0  0  0  0
  -30.3790  -15.3700   20.2650 C   0  0  0  0  0  0  0  0  0  0  0  0
  -30.3970  -12.9060   19.4120 C   0  0  0  0  0  2  0  0  0  0  0  0
  -29.4730  -12.6890   18.1840 C   0  0  0  0  0  2  0  0  0  0  0  0
  -28.0270  -12.4030   18.6300 C   0  0  0  0  0  2  0  0  0  0  0  0
  -27.5730  -13.3610   19.7570 C   0  0  0  0  0  3  0  0  0  0  0  0
  -28.6260  -13.5220   20.8730 C   0  0  0  0  0  2  0  0  0  0  0  0
  -29.8530  -14.0410   20.2480 N   0  0  0  0  0  0  0  0  0  0  0  0
  -31.5950  -15.3780   20.0130 O   0  0  0  0  0  0  0  0  0  0  0  0
  -25.2110  -13.8970   20.5480 C   0  0  0  0  0  0  0  0  0  0  0  0
  -24.1570  -13.1110   20.9210 C   0  0  0  0  0  0  0  0  0  0  0  0
  -24.6300  -11.7630   20.8690 C   0  0  0  0  0  0  0  0  0  0  0  0
  -26.2540  -13.0300   20.2790 N   0  0  0  0  0  0  0  0  0  0  0  0
  -25.9190  -11.7400   20.5420 N   0  0  0  0  0  0  0  0  0  0  0  0
  -23.9110  -10.4950   21.0520 C   0  0  0  0  0  0  0  0  0  0  0  0
  -24.3450   -9.5270   21.9830 C   0  0  0  0  0  3  0  0  0  0  0  0
  -23.6230   -8.3260   22.1570 C   0  0  0  0  0  3  0  0  0  0  0  0
  -22.4530   -8.0850   21.3980 C   0  0  0  0  0  0  0  0  0  0  0  0
  -22.0380   -9.0430   20.4560 C   0  0  0  0  0  3  0  0  0  0  0  0
  -22.7600  -10.2350   20.2820 C   0  0  0  0  0  3  0  0  0  0  0  0
  -21.7020   -6.9360   21.4800 O   0  0  0  0  0  0  0  0  0  0  0  0
  -21.6380   -6.1990   22.6350 C   0  0  0  0  0  0  0  0  0  0  0  0
  -21.1670   -6.7500   23.8470 C   0  0  0  0  0  3  0  0  0  0  0  0
  -21.0540   -5.9380   24.9920 C   0  0  0  0  0  3  0  0  0  0  0  0
  -21.4010   -4.5760   24.9280 C   0  0  0  0  0  0  0  0  0  0  0  0
  -21.8640   -4.0230   23.7210 C   0  0  0  0  0  3  0  0  0  0  0  0
  -21.9800   -4.8320   22.5770 C   0  0  0  0  0  0  0  0  0  0  0  0
  -22.4070   -4.2900   21.4120 F   0  0  0  0  0  0  0  0  0  0  0  0
  -21.2840   -3.7930   26.0260 F   0  0  0  0  0  0  0  0  0  0  0  0
  -22.7600  -13.5790   21.2070 C   0  0  0  0  0  0  0  0  0  0  0  0
  -22.0440  -12.8770   22.0770 N   0  0  0  0  0  0  0  0  0  0  0  0
  -22.3130  -14.6030   20.6940 O   0  0  0  0  0  0  0  0  0  0  0  0
  -22.4190  -12.0480   22.5140 H   0  0  0  0  0  0  0  0  0  0  0  0
  -21.1080  -13.1750   22.3120 H   0  0  0  0  0  0  0  0  0  0  0  0
  -25.3640  -15.2720   20.3830 N   0  0  0  0  0  0  0  0  0  0  0  0
  -24.5950  -15.9210   20.5080 H   0  0  0  0  0  0  0  0  0  0  0  0
  -26.1970  -15.7130   20.0170 H   0  0  0  0  0  0  0  0  0  0  0  0
  -27.7330  -24.2460   20.1650 C   0  0  0  0  0  2  0  0  0  0  0  0
  -28.1470  -25.8390   20.3360 O   0  0  0  0  0  0  0  0  0  0  0  0
  -24.6570  -31.8970   23.2700 C   0  0  0  0  0  0  0  0  0  0  0  0
  -27.1740  -26.9800   20.2640 C   0  0  0  0  0  0  0  0  0  0  0  0
  -23.4570  -30.5120   21.6290 C   0  0  0  0  0  3  0  0  0  0  0  0
  -24.8970  -28.8980   20.2090 C   0  0  0  0  0  0  0  0  0  0  0  0
  -26.0290  -30.6970   21.4910 C   0  0  0  0  0  2  0  0  0  0  0  0
  -26.0900  -29.2860   20.8340 C   0  0  0  0  0  0  0  0  0  0  0  0
  -27.2230  -28.3500   20.8350 C   0  0  0  0  0  3  0  0  0  0  0  0
  -25.9530  -26.7560   19.5860 C   0  0  0  0  0  3  0  0  0  0  0  0
  -24.8560  -27.6550   19.5630 C   0  0  0  0  0  3  0  0  0  0  0  0
  -23.6860  -29.8290   20.2540 C   0  0  0  0  0  2  0  0  0  0  0  0
  -24.7360  -31.0630   22.1830 N   0  0  0  0  0  0  0  0  0  0  0  0
  -23.5680  -32.1960   23.7870 O   0  0  0  0  0  0  0  0  0  0  0  0
  -22.7520  -29.5210   22.5910 C   0  0  0  0  0  0  0  0  0  0  0  0
  -21.4220  -29.3640   22.4590 N   0  0  0  0  0  0  0  0  0  0  0  0
  -23.4080  -28.8930   23.4260 O   0  0  0  0  0  0  0  0  0  0  0  0
  -20.9460  -29.9190   21.7610 H   0  0  0  0  0  0  0  0  0  0  0  0
  -18.0290  -28.1740   22.9510 C   0  0  0  0  0  0  0  0  0  0  0  0
  -20.5880  -28.4320   23.2260 C   0  0  0  0  0  3  0  0  0  0  0  0
  -20.6860  -26.9970   22.6550 C   0  0  0  0  0  2  0  0  0  0  0  0
  -19.5880  -26.6780   21.6350 C   0  0  0  0  0  2  0  0  0  0  0  0
  -18.2040  -26.8260   22.2720 C   0  0  0  0  0  2  0  0  0  0  0  0
  -19.1470  -28.9350   23.3840 C   0  0  0  0  0  0  0  0  0  0  0  0
  -18.9250  -30.1950   23.9800 C   0  0  0  0  0  3  0  0  0  0  0  0
  -17.6190  -30.6950   24.1450 C   0  0  0  0  0  3  0  0  0  0  0  0
  -16.5160  -29.9310   23.7260 C   0  0  0  0  0  3  0  0  0  0  0  0
  -16.7210  -28.6720   23.1350 C   0  0  0  0  0  3  0  0  0  0  0  0
  -25.9300  -32.5320   23.9090 C   0  0  0  0  0  3  0  0  0  0  0  0
  -25.6210  -33.9350   24.2380 N   0  0  0  0  0  0  0  0  0  0  0  0
  -25.9300  -34.9890   23.4710 C   0  0  0  0  0  0  0  0  0  0  0  0
  -26.5670  -34.8830   22.4200 O   0  0  0  0  0  0  0  0  0  0  0  0
  -25.0520  -34.0890   25.0580 H   0  0  0  0  0  0  0  0  0  0  0  0
  -24.1740  -36.7750   23.1940 C   0  0  0  0  0  1  0  0  0  0  0  0
  -25.4590  -36.3810   23.9420 C   0  0  0  0  0  3  0  0  0  0  0  0
  -27.6300  -37.2860   24.6490 C   0  0  0  0  0  1  0  0  0  0  0  0
  -26.4750  -37.4430   23.7700 N   0  0  0  0  0  0  0  0  0  0  0  0
  -26.0700  -38.3580   23.9410 H   0  0  0  0  0  0  0  0  0  0  0  0
  -26.4170  -31.7670   25.2020 C   0  0  1  0  0  0  0  0  0  0  0  0
  -25.3070  -31.5500   26.2580 C   0  0  0  0  0  1  0  0  0  0  0  0
  -26.9920  -30.3790   24.8390 C   0  0  0  0  0  1  0  0  0  0  0  0
  -27.5690  -32.5540   25.8720 C   0  0  0  0  0  1  0  0  0  0  0  0
  2  1  1  0
  3  1  1  0
  4  2  2  0
  5  4  1  0
  5  3  1  0
  6  3  2  0
  6  7  2  0
  8  7  1  0
  9 14  1  0
 10 11  1  0
 10  9  1  0
 12 11  1  0
 12 19  1  0
 12 13  1  0
 14  8  1  0
 14 13  1  0
 15  8  2  0
 16 17  2  0
 17 36  1  0
 18 17  1  0
 18 21  1  0
 19 20  1  0
 19 16  1  0
 20 18  2  0
 21 22  1  0
 22 23  2  0
 24 27  1  0
 24 23  1  0
 25 24  2  0
 26 25  1  0
 26 21  2  0
 27 28  1  0
 28 29  1  0
 29 30  2  0
 31 30  1  0
 31 35  1  0
 32 31  2  0
 33 28  2  0
 33 32  1  0
 34 33  1  0
 36 37  1  0
 37 40  1  0
 37 39  1  0
 38 36  2  0
 41 42  1  0
 41 16  1  0
 43 41  1  0
 44  4  1  0
 44 45  1  0
 46 57  2  0
 47 45  1  0
 47 52  1  0
 48 56  1  0
 48 58  1  0
 49 55  1  0
 49 51  1  0
 50 56  1  0
 51 52  2  0
 51 50  1  0
 53 47  2  0
 54 53  1  0
 54 49  2  0
 55 48  1  0
 56 46  1  0
 58 60  2  0
 59 58  1  0
 61 59  1  0
 62 71  2  0
 62 67  1  0
 63 59  1  0
 63 67  1  0
 64 63  1  0
 65 66  1  0
 65 64  1  0
 66 62  1  0
 67 68  2  0
 68 69  1  0
 70 69  2  0
 71 70  1  0
 72 46  1  0
 72 73  1  0
 72 82  1  0
 73 76  1  0
 74 78  1  0
 74 73  1  0
 75 74  2  0
 78 77  1  0
 80 81  1  0
 80 78  1  0
 80 79  1  0
 82 85  1  1
 82 83  1  0
 84 82  1  0
M  ISO  4   7 100   8 100  44 101  45 101
M  END
>  <TORSDO>  (57) 
F 18

>  <SCORE>  (57) 
-15.425

>  <name>  (57) 
57

>  <ligand_id>  (57) 
57

>  <original_smiles>  (57) 
[H]C(C(=O)N1C([H])([H])C([H])([H])C([H])([H])C([H])(n2nc(-c3c([H])c([H])c(Oc4c([H])c([H])c(F)c([H])c4F)c([H])c3[H])c(C(=O)N([H])[H])c2N([H])[H])C1([H])[H])=C([H])c1sc(C([H])([H])Oc2c([H])c([H])c3c(c2[H])C([H])([H])N(C(=O)C([H])(N([H])C(=O)C([H])(N([H])C([H])([H])[H])C([H])([H])[H])C(C([H])([H])[H])(C([H])([H])[H])C([H])([H])[H])C([H])(C(=O)N([H])C2([H])c4c([H])c([H])c([H])c([H])c4C([H])([H])C([H])([H])C2([H])[H])C3([H])[H])c([H])c1[H]

>  <smiles>  (57) 
[H]C(C(=O)N1C([H])([H])C([H])([H])C([H])([H])C([H])(n2nc(-c3c([H])c([H])c(Oc4c([H])c([H])c(F)c([H])c4F)c([H])c3[H])c(C(=O)N([H])[H])c2N([H])[H])C1([H])[H])=C([H])c1sc(C([H])([H])Oc2c([H])c([H])c3c(c2[H])C([H])([H])N(C(=O)C([H])(N([H])C(=O)C([H])(N([H])C([H])([H])[H])C([H])([H])[H])C(C([H])([H])[H])(C([H])([H])[H])C([H])([H])[H])C([H])(C(=O)N([H])C2([H])c4c([H])c([H])c([H])c([H])c4C([H])([H])C([H])([H])C2([H])[H])C3([H])[H])c([H])c1[H]

$$$$
58:0:0
     RDKit          3D

 89 97  0  0  1  0  0  0  0  0999 V2000
  -29.3740  -19.0620   19.8740 C   0  0  0  0  0  0  0  0  0  0  0  0
  -29.3700  -20.3960   20.3880 N   0  0  0  0  0  0  0  0  0  0  0  0
  -28.7760  -18.8500   18.8180 O   0  0  0  0  0  0  0  0  0  0  0  0
  -29.9010  -20.4990   21.2440 H   0  0  0  0  0  0  0  0  0  0  0  0
  -30.5870  -15.0250   20.0100 C   0  0  0  0  0  0  0  0  0  0  0  0
  -30.4010  -12.7180   18.9380 C   0  0  0  0  0  2  0  0  0  0  0  0
  -29.3860  -12.7170   17.7700 C   0  0  0  0  0  2  0  0  0  0  0  0
  -27.9530  -12.4860   18.2840 C   0  0  0  0  0  2  0  0  0  0  0  0
  -27.6310  -13.3560   19.5260 C   0  0  0  0  0  3  0  0  0  0  0  0
  -28.7540  -13.2940   20.5790 C   0  0  0  0  0  2  0  0  0  0  0  0
  -29.9870  -13.7620   19.9240 N   0  0  0  0  0  0  0  0  0  0  0  0
  -31.6990  -15.1480   19.4830 O   0  0  0  0  0  0  0  0  0  0  0  0
  -30.6940  -17.1610   22.7470 C   0  0  0  0  0  2  0  0  0  0  0  0
  -31.1850  -18.0300   21.5920 C   0  0  0  0  0  2  0  0  0  0  0  0
  -30.0700  -15.9090   22.0780 C   0  0  0  0  0  2  0  0  0  0  0  0
  -30.0890  -17.7380   20.5840 C   0  0  0  0  0  3  0  0  0  0  0  0
  -29.9120  -16.1430   20.6010 N   0  0  0  0  0  0  0  0  0  0  0  0
  -25.3040  -13.9100   20.4350 C   0  0  0  0  0  0  0  0  0  0  0  0
  -24.2640  -13.1220   20.8470 C   0  0  0  0  0  0  0  0  0  0  0  0
  -24.7230  -11.7730   20.7420 C   0  0  0  0  0  0  0  0  0  0  0  0
  -26.3270  -13.0410   20.0970 N   0  0  0  0  0  0  0  0  0  0  0  0
  -25.9920  -11.7480   20.3460 N   0  0  0  0  0  0  0  0  0  0  0  0
  -24.0100  -10.5040   20.9390 C   0  0  0  0  0  0  0  0  0  0  0  0
  -24.4520   -9.5430   21.8740 C   0  0  0  0  0  3  0  0  0  0  0  0
  -23.7360   -8.3410   22.0570 C   0  0  0  0  0  3  0  0  0  0  0  0
  -22.5630   -8.0910   21.3050 C   0  0  0  0  0  0  0  0  0  0  0  0
  -22.1400   -9.0410   20.3600 C   0  0  0  0  0  3  0  0  0  0  0  0
  -22.8560  -10.2350   20.1740 C   0  0  0  0  0  3  0  0  0  0  0  0
  -21.8170   -6.9400   21.3980 O   0  0  0  0  0  0  0  0  0  0  0  0
  -21.7050   -6.2490   22.5780 C   0  0  0  0  0  0  0  0  0  0  0  0
  -21.1900   -6.8490   23.7470 C   0  0  0  0  0  3  0  0  0  0  0  0
  -21.0260   -6.0820   24.9180 C   0  0  0  0  0  3  0  0  0  0  0  0
  -21.3680   -4.7170   24.9200 C   0  0  0  0  0  0  0  0  0  0  0  0
  -21.8760   -4.1160   23.7550 C   0  0  0  0  0  3  0  0  0  0  0  0
  -22.0420   -4.8800   22.5870 C   0  0  0  0  0  0  0  0  0  0  0  0
  -22.5100   -4.2910   21.4610 F   0  0  0  0  0  0  0  0  0  0  0  0
  -21.2040   -3.9790   26.0440 F   0  0  0  0  0  0  0  0  0  0  0  0
  -22.8880  -13.5890   21.2240 C   0  0  0  0  0  0  0  0  0  0  0  0
  -22.2240  -12.8730   22.1250 N   0  0  0  0  0  0  0  0  0  0  0  0
  -22.4150  -14.6240   20.7570 O   0  0  0  0  0  0  0  0  0  0  0  0
  -22.6220  -12.0360   22.5240 H   0  0  0  0  0  0  0  0  0  0  0  0
  -21.3040  -13.1660   22.4190 H   0  0  0  0  0  0  0  0  0  0  0  0
  -25.4600  -15.2860   20.2970 N   0  0  0  0  0  0  0  0  0  0  0  0
  -24.7110  -15.9420   20.4890 H   0  0  0  0  0  0  0  0  0  0  0  0
  -26.3000  -15.7330   19.9510 H   0  0  0  0  0  0  0  0  0  0  0  0
  -28.6130  -21.7200   19.9410 C   0  0  0  0  0  2  0  0  0  0  0  0
  -28.8850  -23.3010   20.5000 C   0  0  0  0  0  3  0  0  0  0  0  0
  -27.9580  -24.6680   20.1000 C   0  0  0  0  0  3  0  0  0  0  0  0
  -28.1900  -26.1780   20.4450 O   0  0  0  0  0  0  0  0  0  0  0  0
  -24.5860  -31.9290   23.3480 C   0  0  0  0  0  0  0  0  0  0  0  0
  -27.1450  -27.1750   20.3520 C   0  0  0  0  0  0  0  0  0  0  0  0
  -23.3850  -30.5350   21.7090 C   0  0  0  0  0  3  0  0  0  0  0  0
  -24.8300  -28.9430   20.2980 C   0  0  0  0  0  0  0  0  0  0  0  0
  -25.9430  -30.7780   21.5600 C   0  0  0  0  0  2  0  0  0  0  0  0
  -26.0100  -29.3810   20.9130 C   0  0  0  0  0  0  0  0  0  0  0  0
  -27.1660  -28.5120   20.9240 C   0  0  0  0  0  3  0  0  0  0  0  0
  -25.9420  -26.8450   19.6900 C   0  0  0  0  0  3  0  0  0  0  0  0
  -24.8100  -27.6890   19.6710 C   0  0  0  0  0  3  0  0  0  0  0  0
  -23.6090  -29.8490   20.3340 C   0  0  0  0  0  2  0  0  0  0  0  0
  -24.6580  -31.1030   22.2600 N   0  0  0  0  0  0  0  0  0  0  0  0
  -23.4980  -32.2260   23.8670 O   0  0  0  0  0  0  0  0  0  0  0  0
  -22.6910  -29.5390   22.6710 C   0  0  0  0  0  0  0  0  0  0  0  0
  -21.3670  -29.3570   22.5180 N   0  0  0  0  0  0  0  0  0  0  0  0
  -23.3480  -28.9300   23.5200 O   0  0  0  0  0  0  0  0  0  0  0  0
  -20.8940  -29.8990   21.8080 H   0  0  0  0  0  0  0  0  0  0  0  0
  -17.9880  -28.1240   22.9450 C   0  0  0  0  0  0  0  0  0  0  0  0
  -20.5340  -28.4280   23.2850 C   0  0  0  0  0  3  0  0  0  0  0  0
  -20.6720  -26.9840   22.7490 C   0  0  0  0  0  2  0  0  0  0  0  0
  -19.6070  -26.6220   21.7090 C   0  0  0  0  0  2  0  0  0  0  0  0
  -18.2040  -26.7620   22.3060 C   0  0  0  0  0  2  0  0  0  0  0  0
  -19.0820  -28.9130   23.3910 C   0  0  0  0  0  0  0  0  0  0  0  0
  -18.8270  -30.1830   23.9480 C   0  0  0  0  0  3  0  0  0  0  0  0
  -17.5100  -30.6680   24.0650 C   0  0  0  0  0  3  0  0  0  0  0  0
  -16.4300  -29.8770   23.6350 C   0  0  0  0  0  3  0  0  0  0  0  0
  -16.6700  -28.6070   23.0810 C   0  0  0  0  0  3  0  0  0  0  0  0
  -25.8640  -32.5580   23.9810 C   0  0  0  0  0  3  0  0  0  0  0  0
  -26.3490  -31.8030   25.2810 C   0  0  1  0  0  0  0  0  0  0  0  0
  -25.2340  -31.5960   26.3320 C   0  0  0  0  0  1  0  0  0  0  0  0
  -26.9240  -30.4130   24.9270 C   0  0  0  0  0  1  0  0  0  0  0  0
  -27.4960  -32.5960   25.9500 C   0  0  0  0  0  1  0  0  0  0  0  0
  -25.5660  -33.9660   24.2890 N   0  0  0  0  0  0  0  0  0  0  0  0
  -25.9010  -35.0060   23.5130 C   0  0  0  0  0  0  0  0  0  0  0  0
  -26.5580  -34.8800   22.4770 O   0  0  0  0  0  0  0  0  0  0  0  0
  -24.9800  -34.1380   25.0920 H   0  0  0  0  0  0  0  0  0  0  0  0
  -24.1710  -36.8030   23.1720 C   0  0  0  0  0  1  0  0  0  0  0  0
  -25.4330  -36.4070   23.9560 C   0  0  0  0  0  3  0  0  0  0  0  0
  -27.5920  -37.3020   24.7110 C   0  0  0  0  0  1  0  0  0  0  0  0
  -26.4660  -37.4530   23.7920 N   0  0  0  0  0  0  0  0  0  0  0  0
  -26.0680  -38.3780   23.9280 H   0  0  0  0  0  0  0  0  0  0  0  0
  1  2  1  0
  2  4  1  0
  3  1  2  0
  5 17  1  0
  6 11  1  0
  7  8  1  0
  7  6  1  0
  9  8  1  0
  9 21  1  0
  9 10  1  0
 11  5  1  0
 11 10  1  0
 12  5  2  0
 14 13  1  0
 15 13  1  0
 16  1  1  0
 16 17  1  0
 16 14  1  0
 17 15  1  0
 18 19  2  0
 19 38  1  0
 20 19  1  0
 20 23  1  0
 21 22  1  0
 21 18  1  0
 22 20  2  0
 23 24  1  0
 24 25  2  0
 26 29  1  0
 26 25  1  0
 27 26  2  0
 28 27  1  0
 28 23  2  0
 29 30  1  0
 30 35  2  0
 30 31  1  0
 31 32  2  0
 32 33  1  0
 33 37  1  0
 34 33  2  0
 35 34  1  0
 36 35  1  0
 38 39  1  0
 39 42  1  0
 39 41  1  0
 40 38  2  0
 43 18  1  0
 43 44  1  0
 45 43  1  0
 46  2  1  0
 46 47  1  0
 48 49  1  0
 48 47  2  0
 50 61  2  0
 51 49  1  0
 51 56  1  0
 52 60  1  0
 52 62  1  0
 53 59  1  0
 53 55  1  0
 54 60  1  0
 55 56  2  0
 55 54  1  0
 57 51  2  0
 58 57  1  0
 58 53  2  0
 59 52  1  0
 60 50  1  0
 62 64  2  0
 63 62  1  0
 65 63  1  0
 66 75  2  0
 66 71  1  0
 67 63  1  0
 67 71  1  0
 68 67  1  0
 69 70  1  0
 69 68  1  0
 70 66  1  0
 71 72  2  0
 72 73  1  0
 74 73  2  0
 75 74  1  0
 76 50  1  0
 76 81  1  0
 76 77  1  0
 77 80  1  1
 77 78  1  0
 79 77  1  0
 81 84  1  0
 82 86  1  0
 82 81  1  0
 83 82  2  0
 86 85  1  0
 88 89  1  0
 88 86  1  0
 88 87  1  0
M  ISO  4   5 100  17 100  48 101  49 101
M  END
>  <TORSDO>  (58) 
F 19

>  <SCORE>  (58) 
-14.861

>  <name>  (58) 
58

>  <ligand_id>  (58) 
58

>  <original_smiles>  (58) 
[H]c1c([H])c([H])c2c(c1[H])C([H])([H])C([H])([H])C([H])([H])C2([H])N([H])C(=O)C1([H])N(C(=O)C([H])(N([H])C(=O)C([H])(N([H])C([H])([H])[H])C([H])([H])[H])C(C([H])([H])[H])(C([H])([H])[H])C([H])([H])[H])C([H])([H])c2c([H])c(OC([H])([H])C([H])([H])C([H])([H])N([H])C(=O)C3([H])N(C(=O)N4C([H])([H])C([H])([H])C([H])([H])C([H])(n5nc(-c6c([H])c([H])c(Oc7c([H])c([H])c(F)c([H])c7F)c([H])c6[H])c(C(=O)N([H])[H])c5N([H])[H])C4([H])[H])C([H])([H])C([H])([H])C3([H])[H])c([H])c([H])c2C1([H])[H]

>  <smiles>  (58) 
[H]c1c([H])c([H])c2c(c1[H])C([H])([H])C([H])([H])C([H])([H])C2([H])N([H])C(=O)C1([H])N(C(=O)C([H])(N([H])C(=O)C([H])(N([H])C([H])([H])[H])C([H])([H])[H])C(C([H])([H])[H])(C([H])([H])[H])C([H])([H])[H])C([H])([H])c2c([H])c(OC([H])([H])C([H])([H])C([H])([H])N([H])C(=O)C3([H])N(C(=O)N4C([H])([H])C([H])([H])C([H])([H])C([H])(n5nc(-c6c([H])c([H])c(Oc7c([H])c([H])c(F)c([H])c7F)c([H])c6[H])c(C(=O)N([H])[H])c5N([H])[H])C4([H])[H])C([H])([H])C([H])([H])C3([H])[H])c([H])c([H])c2C1([H])[H]

$$$$
59:0:0
     RDKit          3D

 86 90  0  0  1  0  0  0  0  0999 V2000
  -29.1890  -20.4110   20.2980 C   0  0  0  0  0  1  0  0  0  0  0  0
  -29.8930  -16.6660   20.2090 C   0  0  0  0  0  0  0  0  0  0  0  0
  -30.2680  -13.8990   19.4470 C   0  0  0  0  0  2  0  0  0  0  0  0
  -29.5140  -13.0590   18.3340 C   0  0  0  0  0  2  0  0  0  0  0  0
  -28.1870  -12.4850   18.8330 C   0  0  0  0  0  2  0  0  0  0  0  0
  -27.5280  -13.5180   19.7580 C   0  0  0  0  0  3  0  0  0  0  0  0
  -28.4770  -14.2170   20.8020 C   0  0  0  0  0  2  0  0  0  0  0  0
  -29.4740  -15.1370   20.0940 N   0  0  0  0  0  0  0  0  0  0  0  0
  -31.1400  -16.4520   20.1290 O   0  0  0  0  0  0  0  0  0  0  0  0
  -29.1690  -18.2950   20.2550 N   0  0  0  0  0  2  0  0  0  0  0  0
  -28.1810  -18.0770   20.2530 H   0  0  0  0  0  0  0  0  0  0  0  0
  -25.1680  -13.9230   20.5350 C   0  0  0  0  0  0  0  0  0  0  0  0
  -24.1290  -13.1150   20.8880 C   0  0  0  0  0  0  0  0  0  0  0  0
  -24.6290  -11.7760   20.8430 C   0  0  0  0  0  0  0  0  0  0  0  0
  -26.2400  -13.0900   20.2950 N   0  0  0  0  0  0  0  0  0  0  0  0
  -25.9290  -11.7820   20.5320 N   0  0  0  0  0  0  0  0  0  0  0  0
  -23.9150  -10.5000   21.0210 C   0  0  0  0  0  0  0  0  0  0  0  0
  -24.3300   -9.5400   21.9710 C   0  0  0  0  0  3  0  0  0  0  0  0
  -23.6050   -8.3390   22.1450 C   0  0  0  0  0  3  0  0  0  0  0  0
  -22.4490   -8.0870   21.3690 C   0  0  0  0  0  0  0  0  0  0  0  0
  -22.0500   -9.0350   20.4100 C   0  0  0  0  0  3  0  0  0  0  0  0
  -22.7760  -10.2270   20.2360 C   0  0  0  0  0  3  0  0  0  0  0  0
  -21.7000   -6.9380   21.4500 O   0  0  0  0  0  0  0  0  0  0  0  0
  -21.6110   -6.2140   22.6120 C   0  0  0  0  0  0  0  0  0  0  0  0
  -21.0980   -6.7770   23.8010 C   0  0  0  0  0  3  0  0  0  0  0  0
  -20.9590   -5.9790   24.9550 C   0  0  0  0  0  3  0  0  0  0  0  0
  -21.3220   -4.6190   24.9200 C   0  0  0  0  0  0  0  0  0  0  0  0
  -21.8270   -4.0550   23.7340 C   0  0  0  0  0  3  0  0  0  0  0  0
  -21.9670   -4.8510   22.5840 C   0  0  0  0  0  0  0  0  0  0  0  0
  -22.4330   -4.2960   21.4380 F   0  0  0  0  0  0  0  0  0  0  0  0
  -21.1820   -3.8500   26.0260 F   0  0  0  0  0  0  0  0  0  0  0  0
  -22.7220  -13.5660   21.1470 C   0  0  0  0  0  0  0  0  0  0  0  0
  -22.0020  -12.8640   22.0140 N   0  0  0  0  0  0  0  0  0  0  0  0
  -22.2730  -14.5820   20.6180 O   0  0  0  0  0  0  0  0  0  0  0  0
  -22.3820  -12.0440   22.4640 H   0  0  0  0  0  0  0  0  0  0  0  0
  -21.0590  -13.1510   22.2320 H   0  0  0  0  0  0  0  0  0  0  0  0
  -25.2900  -15.2990   20.3600 N   0  0  0  0  0  0  0  0  0  0  0  0
  -24.5020  -15.9290   20.4630 H   0  0  0  0  0  0  0  0  0  0  0  0
  -26.1270  -15.7600   20.0280 H   0  0  0  0  0  0  0  0  0  0  0  0
  -30.5860  -20.7000   19.7400 C   0  0  0  0  0  0  0  0  0  0  0  0
  -31.3440  -19.6520   19.4560 N   0  0  0  0  0  0  0  0  0  0  0  0
  -30.9910  -21.8460   19.5620 O   0  0  0  0  0  0  0  0  0  0  0  0
  -30.9390  -18.7400   19.6400 H   0  0  0  0  0  0  0  0  0  0  0  0
  -32.2790  -19.7430   19.0870 H   0  0  0  0  0  0  0  0  0  0  0  0
  -28.1660  -22.5360   20.1860 C   0  0  0  0  0 15  0  0  0  0  0  0
  -28.1080  -24.6400   20.3490 O   0  0  0  0  0  1  0  0  0  0  0  0
  -24.6890  -31.7890   23.1670 C   0  0  0  0  0  0  0  0  0  0  0  0
  -27.2020  -26.1380   20.2980 C   0  0  0  0  0  0  0  0  0  0  0  0
  -23.5370  -30.3640   21.5380 C   0  0  0  0  0  3  0  0  0  0  0  0
  -24.9960  -28.5720   20.1930 C   0  0  0  0  0  0  0  0  0  0  0  0
  -26.1370  -30.3150   21.5150 C   0  0  0  0  0  2  0  0  0  0  0  0
  -26.1960  -28.8080   20.8700 C   0  0  0  0  0  0  0  0  0  0  0  0
  -27.2470  -27.6440   20.8720 C   0  0  0  0  0  3  0  0  0  0  0  0
  -25.9630  -26.2770   19.5550 C   0  0  0  0  0  3  0  0  0  0  0  0
  -24.9570  -27.3350   19.5090 C   0  0  0  0  0  3  0  0  0  0  0  0
  -23.8200  -29.6020   20.1990 C   0  0  0  0  0  2  0  0  0  0  0  0
  -24.8200  -30.8710   22.1250 N   0  0  0  0  0  0  0  0  0  0  0  0
  -23.5790  -32.1230   23.6290 O   0  0  0  0  0  0  0  0  0  0  0  0
  -22.7480  -29.4570   22.5270 C   0  0  0  0  0  0  0  0  0  0  0  0
  -21.4070  -29.3540   22.4010 N   0  0  0  0  0  0  0  0  0  0  0  0
  -23.3660  -28.8330   23.3900 O   0  0  0  0  0  0  0  0  0  0  0  0
  -20.9480  -29.9050   21.6890 H   0  0  0  0  0  0  0  0  0  0  0  0
  -17.9850  -28.2110   22.9490 C   0  0  0  0  0  0  0  0  0  0  0  0
  -20.5550  -28.4370   23.1770 C   0  0  0  0  0  3  0  0  0  0  0  0
  -20.6190  -27.0030   22.5980 C   0  0  0  0  0  2  0  0  0  0  0  0
  -19.5030  -26.7110   21.5910 C   0  0  0  0  0  2  0  0  0  0  0  0
  -18.1300  -26.8700   22.2500 C   0  0  0  0  0  2  0  0  0  0  0  0
  -19.1220  -28.9540   23.3680 C   0  0  0  0  0  0  0  0  0  0  0  0
  -18.9240  -30.2040   23.9940 C   0  0  0  0  0  3  0  0  0  0  0  0
  -17.6280  -30.7140   24.1970 C   0  0  0  0  0  3  0  0  0  0  0  0
  -16.5070  -29.9700   23.7860 C   0  0  0  0  0  3  0  0  0  0  0  0
  -16.6870  -28.7200   23.1690 C   0  0  0  0  0  3  0  0  0  0  0  0
  -25.9170  -32.4760   23.8420 C   0  0  0  0  0  3  0  0  0  0  0  0
  -25.5710  -33.8830   24.1660 N   0  0  0  0  0  0  0  0  0  0  0  0
  -25.9050  -34.9620   23.4440 C   0  0  0  0  0  0  0  0  0  0  0  0
  -26.5770  -34.8800   22.4130 O   0  0  0  0  0  0  0  0  0  0  0  0
  -24.9680  -34.0180   24.9640 H   0  0  0  0  0  0  0  0  0  0  0  0
  -24.1670  -36.7730   23.1560 C   0  0  0  0  0  1  0  0  0  0  0  0
  -25.4260  -36.3500   23.9320 C   0  0  0  0  0  3  0  0  0  0  0  0
  -27.5690  -37.2530   24.7340 C   0  0  0  0  0  1  0  0  0  0  0  0
  -26.4510  -37.4130   23.8070 N   0  0  0  0  0  0  0  0  0  0  0  0
  -26.0410  -38.3290   23.9600 H   0  0  0  0  0  0  0  0  0  0  0  0
  -26.3780  -31.7470   25.1660 C   0  0  1  0  0  0  0  0  0  0  0  0
  -25.2420  -31.5430   26.1990 C   0  0  0  0  0  1  0  0  0  0  0  0
  -26.9730  -30.3570   24.8610 C   0  0  0  0  0  1  0  0  0  0  0  0
  -27.5050  -32.5580   25.8500 C   0  0  0  0  0  1  0  0  0  0  0  0
  2 10  1  0
  3  8  1  0
  4  5  1  0
  4  3  1  0
  6  5  1  0
  6 15  1  0
  6  7  1  0
  8  2  1  0
  8  7  1  0
  9  2  2  0
 11 10  1  0
 12 13  2  0
 13 32  1  0
 14 13  1  0
 14 17  1  0
 15 16  1  0
 15 12  1  0
 16 14  2  0
 17 18  1  0
 18 19  2  0
 20 23  1  0
 20 19  1  0
 21 20  2  0
 22 21  1  0
 22 17  2  0
 23 24  1  0
 24 25  1  0
 25 26  2  0
 27 26  1  0
 27 31  1  0
 28 27  2  0
 29 24  2  0
 29 28  1  0
 30 29  1  0
 32 33  1  0
 33 36  1  0
 33 35  1  0
 34 32  2  0
 37 38  1  0
 37 12  1  0
 39 37  1  0
 40  1  1  0
 41 43  1  0
 41 40  1  0
 42 40  2  0
 44 41  1  0
 47 58  2  0
 48 46  1  0
 48 53  1  0
 49 57  1  0
 49 59  1  0
 50 56  1  0
 50 52  1  0
 51 57  1  0
 52 53  2  0
 52 51  1  0
 54 48  2  0
 55 54  1  0
 55 50  2  0
 56 49  1  0
 57 47  1  0
 59 61  2  0
 60 59  1  0
 62 60  1  0
 63 72  2  0
 63 68  1  0
 64 60  1  0
 64 68  1  0
 65 64  1  0
 66 67  1  0
 66 65  1  0
 67 63  1  0
 68 69  2  0
 69 70  1  0
 71 70  2  0
 72 71  1  0
 73 47  1  0
 73 74  1  0
 73 83  1  0
 74 77  1  0
 75 79  1  0
 75 74  1  0
 76 75  2  0
 79 78  1  0
 81 79  1  0
 81 82  1  0
 81 80  1  0
 83 86  1  1
 83 84  1  0
 85 83  1  0
M  ISO  4   2 100  10 100  45 101  46 101
M  END
>  <TORSDO>  (59) 
F 18

>  <SCORE>  (59) 
-16.034

>  <name>  (59) 
59

>  <ligand_id>  (59) 
59

>  <original_smiles>  (59) 
[H]c1c([H])c([H])c2c(c1[H])C([H])([H])C([H])([H])C([H])([H])C2([H])N([H])C(=O)C1([H])N(C(=O)C([H])(N([H])C(=O)C([H])(N([H])C([H])([H])[H])C([H])([H])[H])C(C([H])([H])[H])(C([H])([H])[H])C([H])([H])[H])C([H])([H])c2c([H])c(OC([H])([H])C([H])(C(=O)N([H])[H])N([H])C(=O)N3C([H])([H])C([H])([H])C([H])([H])C([H])(n4nc(-c5c([H])c([H])c(Oc6c([H])c([H])c(F)c([H])c6F)c([H])c5[H])c(C(=O)N([H])[H])c4N([H])[H])C3([H])[H])c([H])c([H])c2C1([H])[H]

>  <smiles>  (59) 
[H]c1c([H])c([H])c2c(c1[H])C([H])([H])C([H])([H])C([H])([H])C2([H])N([H])C(=O)C1([H])N(C(=O)C([H])(N([H])C(=O)C([H])(N([H])C([H])([H])[H])C([H])([H])[H])C(C([H])([H])[H])(C([H])([H])[H])C([H])([H])[H])C([H])([H])c2c([H])c(OC([H])([H])C([H])(C(=O)N([H])[H])N([H])C(=O)N3C([H])([H])C([H])([H])C([H])([H])C([H])(n4nc(-c5c([H])c([H])c(Oc6c([H])c([H])c(F)c([H])c6F)c([H])c5[H])c(C(=O)N([H])[H])c4N([H])[H])C3([H])[H])c([H])c([H])c2C1([H])[H]

$$$$
60:0:0
     RDKit          3D

 98107  0  0  1  0  0  0  0  0999 V2000
  -30.4720  -19.9920   18.1670 C   0  0  0  0  0  3  0  0  0  0  0  0
  -29.0500  -19.8150   17.5570 C   0  0  0  0  0  3  0  0  0  0  0  0
  -30.7080  -19.4410   19.6040 C   0  0  0  0  0  2  0  0  0  0  0  0
  -27.4690  -20.5450   19.4940 C   0  0  0  0  0  2  0  0  0  0  0  0
  -28.4220  -18.4150   19.5410 C   0  0  0  0  0  3  0  0  0  0  0  0
  -27.9240  -19.4330   18.5540 C   0  0  0  0  0  3  0  0  0  0  0  0
  -29.4210  -19.2250   20.4310 C   0  0  2  0  0  0  0  0  0  0  0  0
  -28.5910  -20.8050   20.4260 N   0  0  1  0  0  4  0  0  0  0  0  0
  -28.1660  -20.8680   21.3390 H   0  0  0  0  0  0  0  0  0  0  0  0
  -28.1010  -16.0170   18.8120 C   0  0  0  0  0  3  0  0  0  0  0  0
  -28.8710  -17.1230   18.8620 C   0  0  0  0  0  3  0  0  0  0  0  0
  -28.4270  -14.8110   18.1520 C   0  0  0  0  0  0  0  0  0  0  0  0
  -29.6290  -14.6160   17.5990 N   0  0  0  0  0  4  0  0  0  0  0  0
  -27.4990  -13.8550   18.0530 N   0  0  0  0  0  0  0  0  0  0  0  0
  -30.3130  -15.3570   17.5920 H   0  0  0  0  0  0  0  0  0  0  0  0
  -29.8740  -13.7720   17.1050 H   0  0  0  0  0  0  0  0  0  0  0  0
  -26.5650  -14.0190   18.4000 H   0  0  0  0  0  0  0  0  0  0  0  0
  -27.6590  -12.9810   17.5790 H   0  0  0  0  0  0  0  0  0  0  0  0
  -29.7130  -17.7980   21.6790 C   0  0  0  0  0  2  0  0  0  0  0  0
  -30.5750  -16.1530   21.8180 C   0  0  0  0  0  0  0  0  0  0  0  0
  -30.9940  -13.5360   21.5310 C   0  0  0  0  0  2  0  0  0  0  0  0
  -30.5110  -12.9330   20.1830 C   0  0  0  0  0  2  0  0  0  0  0  0
  -29.0260  -12.5470   20.2530 C   0  0  0  0  0  2  0  0  0  0  0  0
  -28.1970  -13.6430   20.9650 C   0  0  0  0  0  3  0  0  0  0  0  0
  -28.8430  -14.1770   22.2620 C   0  0  0  0  0  2  0  0  0  0  0  0
  -30.1520  -14.7600   21.9030 N   0  0  0  0  0  0  0  0  0  0  0  0
  -31.8200  -16.1530   21.8810 O   0  0  0  0  0  0  0  0  0  0  0  0
  -25.7050  -14.1120   21.1020 C   0  0  0  0  0  0  0  0  0  0  0  0
  -24.6090  -13.3050   21.2080 C   0  0  0  0  0  0  0  0  0  0  0  0
  -25.1090  -11.9700   21.3240 C   0  0  0  0  0  0  0  0  0  0  0  0
  -26.8000  -13.2720   21.1430 N   0  0  0  0  0  0  0  0  0  0  0  0
  -26.4390  -11.9760   21.3470 N   0  0  0  0  0  0  0  0  0  0  0  0
  -24.3910  -10.6870   21.3550 C   0  0  0  0  0  0  0  0  0  0  0  0
  -24.5810   -9.7570   22.3990 C   0  0  0  0  0  3  0  0  0  0  0  0
  -23.8610   -8.5430   22.4180 C   0  0  0  0  0  3  0  0  0  0  0  0
  -22.9380   -8.2480   21.3860 C   0  0  0  0  0  0  0  0  0  0  0  0
  -22.7690   -9.1670   20.3350 C   0  0  0  0  0  3  0  0  0  0  0  0
  -23.4890  -10.3750   20.3160 C   0  0  0  0  0  3  0  0  0  0  0  0
  -22.2170   -7.0810   21.3040 O   0  0  0  0  0  0  0  0  0  0  0  0
  -21.7660   -6.4340   22.4260 C   0  0  0  0  0  0  0  0  0  0  0  0
  -20.9320   -7.0720   23.3700 C   0  0  0  0  0  3  0  0  0  0  0  0
  -20.4350   -6.3500   24.4730 C   0  0  0  0  0  3  0  0  0  0  0  0
  -20.7620   -4.9890   24.6300 C   0  0  0  0  0  0  0  0  0  0  0  0
  -21.5870   -4.3500   23.6880 C   0  0  0  0  0  3  0  0  0  0  0  0
  -22.0860   -5.0710   22.5880 C   0  0  0  0  0  0  0  0  0  0  0  0
  -22.8620   -4.4450   21.6720 F   0  0  0  0  0  0  0  0  0  0  0  0
  -20.2810   -4.2920   25.6860 F   0  0  0  0  0  0  0  0  0  0  0  0
  -23.1770  -13.7390   21.1080 C   0  0  0  0  0  0  0  0  0  0  0  0
  -22.2770  -13.0510   21.8010 N   0  0  0  0  0  0  0  0  0  0  0  0
  -22.8560  -14.7280   20.4490 O   0  0  0  0  0  0  0  0  0  0  0  0
  -22.5420  -12.2520   22.3550 H   0  0  0  0  0  0  0  0  0  0  0  0
  -21.3050  -13.3280   21.7700 H   0  0  0  0  0  0  0  0  0  0  0  0
  -25.8710  -15.4870   20.9460 N   0  0  0  0  0  0  0  0  0  0  0  0
  -25.0840  -16.1220   20.8920 H   0  0  0  0  0  0  0  0  0  0  0  0
  -26.7640  -15.9580   20.9450 H   0  0  0  0  0  0  0  0  0  0  0  0
  -28.9340  -22.4780   20.0250 C   0  0  0  0  0  3  0  0  0  0  0  0
  -27.8780  -24.0710   19.8700 C   0  0  0  0  0  3  0  0  0  0  0  0
  -28.0330  -25.7970   19.7210 O   0  0  0  0  0  0  0  0  0  0  0  0
  -24.4950  -31.7730   23.0780 C   0  0  0  0  0  0  0  0  0  0  0  0
  -27.0180  -26.9510   19.7590 C   0  0  0  0  0  0  0  0  0  0  0  0
  -23.2710  -30.4250   21.4250 C   0  0  0  0  0  3  0  0  0  0  0  0
  -24.6950  -28.8870   19.8810 C   0  0  0  0  0  0  0  0  0  0  0  0
  -25.8350  -30.6520   21.2040 C   0  0  0  0  0  2  0  0  0  0  0  0
  -25.9060  -29.2590   20.4790 C   0  0  0  0  0  0  0  0  0  0  0  0
  -27.0520  -28.3200   20.3870 C   0  0  0  0  0  3  0  0  0  0  0  0
  -25.7680  -26.7750   19.1160 C   0  0  0  0  0  3  0  0  0  0  0  0
  -24.6610  -27.6720   19.1760 C   0  0  0  0  0  3  0  0  0  0  0  0
  -23.4670  -29.7980   20.0160 C   0  0  0  0  0  2  0  0  0  0  0  0
  -24.5590  -30.9800   21.9550 N   0  0  0  0  0  0  0  0  0  0  0  0
  -23.4180  -32.0210   23.6450 O   0  0  0  0  0  0  0  0  0  0  0  0
  -22.6200  -29.3840   22.3750 C   0  0  0  0  0  0  0  0  0  0  0  0
  -21.2900  -29.1950   22.2850 N   0  0  0  0  0  0  0  0  0  0  0  0
  -23.3220  -28.7460   23.1630 O   0  0  0  0  0  0  0  0  0  0  0  0
  -20.7720  -29.7610   21.6280 H   0  0  0  0  0  0  0  0  0  0  0  0
  -17.9630  -27.8360   22.8230 C   0  0  0  0  0  0  0  0  0  0  0  0
  -20.5160  -28.2040   23.0440 C   0  0  0  0  0  3  0  0  0  0  0  0
  -20.6620  -26.7930   22.4270 C   0  0  0  0  0  2  0  0  0  0  0  0
  -19.5540  -26.4540   21.4250 C   0  0  0  0  0  2  0  0  0  0  0  0
  -18.1810  -26.5190   22.0980 C   0  0  0  0  0  2  0  0  0  0  0  0
  -19.0570  -28.6340   23.2530 C   0  0  0  0  0  0  0  0  0  0  0  0
  -18.7940  -29.8620   23.8980 C   0  0  0  0  0  3  0  0  0  0  0  0
  -17.4720  -30.2970   24.1110 C   0  0  0  0  0  3  0  0  0  0  0  0
  -16.3940  -29.4980   23.6940 C   0  0  0  0  0  3  0  0  0  0  0  0
  -16.6400  -28.2680   23.0570 C   0  0  0  0  0  3  0  0  0  0  0  0
  -25.7700  -32.4200   23.6980 C   0  0  0  0  0  3  0  0  0  0  0  0
  -25.4490  -33.8170   24.0520 N   0  0  0  0  0  0  0  0  0  0  0  0
  -25.7910  -34.8930   23.3310 C   0  0  0  0  0  0  0  0  0  0  0  0
  -26.4680  -34.8150   22.3030 O   0  0  0  0  0  0  0  0  0  0  0  0
  -24.8470  -33.9490   24.8510 H   0  0  0  0  0  0  0  0  0  0  0  0
  -24.0680  -36.7080   23.0310 C   0  0  0  0  0  1  0  0  0  0  0  0
  -25.3110  -36.2740   23.8260 C   0  0  0  0  0  3  0  0  0  0  0  0
  -27.4530  -37.1340   24.6700 C   0  0  0  0  0  1  0  0  0  0  0  0
  -26.3460  -37.3290   23.7360 N   0  0  0  0  0  0  0  0  0  0  0  0
  -25.9430  -38.2460   23.9080 H   0  0  0  0  0  0  0  0  0  0  0  0
  -26.2950  -31.6500   24.9730 C   0  0  1  0  0  0  0  0  0  0  0  0
  -25.2140  -31.4200   26.0550 C   0  0  0  0  0  1  0  0  0  0  0  0
  -26.8670  -30.2670   24.5900 C   0  0  0  0  0  1  0  0  0  0  0  0
  -27.4570  -32.4430   25.6200 C   0  0  0  0  0  1  0  0  0  0  0  0
  1  3  1  0
  2  1  2  0
  3  7  1  0
  4  8  1  0
  5 11  1  0
  5  7  1  0
  6  2  1  0
  6  4  1  0
  6  5  1  0
  7 19  1  1
  8  7  1  0
  8  9  1  1
 10 11  2  0
 12 10  1  0
 13 12  2  0
 14 12  1  0
 14 17  1  0
 15 13  1  0
 16 13  1  0
 18 14  1  0
 19 20  1  0
 20 27  2  0
 20 26  1  0
 21 26  1  0
 22 23  1  0
 22 21  1  0
 24 23  1  0
 24 31  1  0
 24 25  1  0
 26 25  1  0
 28 31  1  0
 28 29  2  0
 29 30  1  0
 30 32  2  0
 30 33  1  0
 31 32  1  0
 33 34  1  0
 34 35  2  0
 36 35  1  0
 37 36  2  0
 38 37  1  0
 38 33  2  0
 39 36  1  0
 39 40  1  0
 40 45  2  0
 40 41  1  0
 41 42  2  0
 42 43  1  0
 43 47  1  0
 44 43  2  0
 45 44  1  0
 46 45  1  0
 48 29  1  0
 48 49  1  0
 49 51  1  0
 50 48  2  0
 52 49  1  0
 53 28  1  0
 54 53  1  0
 55 53  1  0
 56  8  1  0
 57 56  2  0
 58 60  1  0
 58 57  1  0
 59 70  2  0
 60 65  1  0
 61 69  1  0
 61 71  1  0
 62 68  1  0
 62 64  1  0
 63 69  1  0
 64 63  1  0
 65 64  2  0
 66 67  1  0
 66 60  2  0
 67 62  2  0
 68 61  1  0
 69 59  1  0
 71 73  2  0
 72 71  1  0
 74 72  1  0
 75 84  2  0
 75 80  1  0
 76 72  1  0
 76 80  1  0
 77 76  1  0
 78 79  1  0
 78 77  1  0
 79 75  1  0
 80 81  2  0
 81 82  1  0
 83 82  2  0
 84 83  1  0
 85 59  1  0
 85 86  1  0
 85 95  1  0
 86 89  1  0
 87 91  1  0
 87 86  1  0
 88 87  2  0
 91 90  1  0
 93 91  1  0
 93 94  1  0
 93 92  1  0
 95 98  1  1
 95 96  1  0
 97 95  1  0
M  ISO  4  19 100  20 100  57 101  58 101
M  END
>  <TORSDO>  (60) 
F 21

>  <SCORE>  (60) 
-7.727

>  <name>  (60) 
60

>  <ligand_id>  (60) 
60

>  <original_smiles>  (60) 
[H]C(=C([H])C1([H])C2([H])C([H])([H])C([H])([H])C([H])([H])C1(C([H])([H])C(=O)N1C([H])([H])C([H])([H])C([H])([H])C([H])(n3nc(-c4c([H])c([H])c(Oc5c([H])c([H])c(F)c([H])c5F)c([H])c4[H])c(C(=O)N([H])[H])c3N([H])[H])C1([H])[H])[N+]([H])(C([H])([H])C([H])([H])Oc1c([H])c([H])c3c(c1[H])C([H])([H])N(C(=O)C([H])(N([H])C(=O)C([H])(N([H])C([H])([H])[H])C([H])([H])[H])C(C([H])([H])[H])(C([H])([H])[H])C([H])([H])[H])C([H])(C(=O)N([H])C1([H])c4c([H])c([H])c([H])c([H])c4C([H])([H])C([H])([H])C1([H])[H])C3([H])[H])C2([H])[H])C(N([H])[H])=[N+]([H])[H]

>  <smiles>  (60) 
[H]C(=C([H])C1([H])C2([H])C([H])([H])C([H])([H])C([H])([H])C1(C([H])([H])C(=O)N1C([H])([H])C([H])([H])C([H])([H])C([H])(n3nc(-c4c([H])c([H])c(Oc5c([H])c([H])c(F)c([H])c5F)c([H])c4[H])c(C(=O)N([H])[H])c3N([H])[H])C1([H])[H])[N+]([H])(C([H])([H])C([H])([H])Oc1c([H])c([H])c3c(c1[H])C([H])([H])N(C(=O)C([H])(N([H])C(=O)C([H])(N([H])C([H])([H])[H])C([H])([H])[H])C(C([H])([H])[H])(C([H])([H])[H])C([H])([H])[H])C([H])(C(=O)N([H])C1([H])c4c([H])c([H])c([H])c([H])c4C([H])([H])C([H])([H])C1([H])[H])C3([H])[H])C2([H])[H])C(N([H])[H])=[N+]([H])[H]

$$$$
61:0:0
     RDKit          3D

102111  0  0  1  0  0  0  0  0999 V2000
  -29.6560  -21.7310   22.3990 C   0  0  0  0  0  0  0  0  0  0  0  0
  -31.5550  -18.5840   22.8630 C   0  0  0  0  0  2  0  0  0  0  0  0
  -30.5820  -19.8120   21.0690 C   0  0  0  0  0  2  0  0  0  0  0  0
  -30.9300  -18.3790   21.4870 C   0  0  0  0  0  3  0  0  0  0  0  0
  -30.7610  -19.7550   23.4630 C   0  0  0  0  0  3  0  0  0  0  0  0
  -29.5920  -19.2420   24.3280 C   0  0  0  0  0  1  0  0  0  0  0  0
  -30.2710  -20.5250   22.3100 N   0  0  0  0  0  0  0  0  0  0  0  0
  -29.6130  -22.3640   23.4600 O   0  0  0  0  0  0  0  0  0  0  0  0
  -28.9410  -22.3280   21.1620 C   0  0  0  0  0  3  0  0  0  0  0  0
  -28.9470  -23.8090   21.2670 N   0  0  0  0  0  4  0  0  0  0  0  0
  -28.1930  -24.0720   21.8830 H   0  0  0  0  0  0  0  0  0  0  0  0
  -29.8010  -24.0280   21.7610 H   0  0  0  0  0  0  0  0  0  0  0  0
  -28.9020  -24.5720   19.9910 C   0  0  0  0  0  2  0  0  0  0  0  0
  -28.9880  -26.0920   20.2130 C   0  0  0  0  0  2  0  0  0  0  0  0
  -28.5470  -26.7770   19.0390 O   0  0  0  0  0  0  0  0  0  0  0  0
  -24.5290  -31.2050   22.8590 C   0  0  0  0  0  0  0  0  0  0  0  0
  -27.3220  -27.3730   19.1880 C   0  0  0  0  0  0  0  0  0  0  0  0
  -23.3280  -29.8280   21.1900 C   0  0  0  0  0  3  0  0  0  0  0  0
  -24.7970  -28.5770   19.5220 C   0  0  0  0  0  0  0  0  0  0  0  0
  -25.7730  -30.4760   20.8300 C   0  0  0  0  0  2  0  0  0  0  0  0
  -25.9390  -29.1810   20.0650 C   0  0  0  0  0  0  0  0  0  0  0  0
  -27.2050  -28.5850   19.9000 C   0  0  0  0  0  3  0  0  0  0  0  0
  -26.1700  -26.7720   18.6390 C   0  0  0  0  0  3  0  0  0  0  0  0
  -24.9050  -27.3690   18.8070 C   0  0  0  0  0  3  0  0  0  0  0  0
  -23.4810  -29.2900   19.7410 C   0  0  0  0  0  2  0  0  0  0  0  0
  -24.5640  -30.5140   21.6840 N   0  0  0  0  0  0  0  0  0  0  0  0
  -23.4780  -31.3150   23.5040 O   0  0  0  0  0  0  0  0  0  0  0  0
  -22.8660  -28.6660   22.0990 C   0  0  0  0  0  0  0  0  0  0  0  0
  -21.5820  -28.2930   21.9820 N   0  0  0  0  0  0  0  0  0  0  0  0
  -23.6590  -28.1070   22.8620 O   0  0  0  0  0  0  0  0  0  0  0  0
  -20.9960  -28.8050   21.3390 H   0  0  0  0  0  0  0  0  0  0  0  0
  -18.4770  -26.4870   22.3590 C   0  0  0  0  0  0  0  0  0  0  0  0
  -20.9360  -27.2000   22.7090 C   0  0  0  0  0  3  0  0  0  0  0  0
  -21.3140  -25.8290   22.1020 C   0  0  0  0  0  2  0  0  0  0  0  0
  -20.3140  -25.3380   21.0510 C   0  0  0  0  0  2  0  0  0  0  0  0
  -18.9150  -25.2120   21.6580 C   0  0  0  0  0  2  0  0  0  0  0  0
  -19.4260  -27.4280   22.8390 C   0  0  0  0  0  0  0  0  0  0  0  0
  -18.9660  -28.6130   23.4510 C   0  0  0  0  0  3  0  0  0  0  0  0
  -17.5890  -28.8630   23.5920 C   0  0  0  0  0  3  0  0  0  0  0  0
  -16.6530  -27.9210   23.1290 C   0  0  0  0  0  3  0  0  0  0  0  0
  -17.0980  -26.7350   22.5190 C   0  0  0  0  0  3  0  0  0  0  0  0
  -25.7980  -31.9110   23.4330 C   0  0  0  0  0  3  0  0  0  0  0  0
  -25.3920  -33.2460   23.8890 N   0  0  0  0  0  0  0  0  0  0  0  0
  -25.6230  -34.3800   23.2160 C   0  0  0  0  0  0  0  0  0  0  0  0
  -26.2740  -34.4170   22.1670 O   0  0  0  0  0  0  0  0  0  0  0  0
  -24.8080  -33.2850   24.7110 H   0  0  0  0  0  0  0  0  0  0  0  0
  -23.7650  -36.0630   23.0320 C   0  0  0  0  0  1  0  0  0  0  0  0
  -25.0420  -35.6820   23.7990 C   0  0  0  0  0  3  0  0  0  0  0  0
  -27.1190  -36.6400   24.6880 C   0  0  0  0  0  1  0  0  0  0  0  0
  -25.9930  -36.8150   23.7760 N   0  0  0  0  0  0  0  0  0  0  0  0
  -25.5230  -37.6840   24.0140 H   0  0  0  0  0  0  0  0  0  0  0  0
  -26.4830  -31.1030   24.6030 C   0  0  1  0  0  0  0  0  0  0  0  0
  -25.5050  -30.6870   25.7270 C   0  0  0  0  0  1  0  0  0  0  0  0
  -27.1530  -29.8200   24.0610 C   0  0  0  0  0  1  0  0  0  0  0  0
  -27.6050  -31.9560   25.2410 C   0  0  0  0  0  1  0  0  0  0  0  0
  -27.0490  -21.4400   19.5920 C   0  0  0  0  0  1  0  0  0  0  0  0
  -26.4040  -22.5740   21.7550 C   0  0  0  0  0  1  0  0  0  0  0  0
  -27.4910  -21.7460   21.0360 C   0  0  0  0  0  3  0  0  0  0  0  0
  -31.7880  -17.5500   20.4970 C   0  0  0  0  0  3  0  0  0  0  0  0
  -32.1410  -15.0490   20.3860 C   0  0  0  0  0  0  0  0  0  0  0  0
  -31.7150  -12.9990   19.1160 C   0  0  0  0  0  2  0  0  0  0  0  0
  -30.8240  -13.3810   17.9160 C   0  0  0  0  0  2  0  0  0  0  0  0
  -29.3310  -13.3530   18.3010 C   0  0  0  0  0  2  0  0  0  0  0  0
  -29.0320  -14.1100   19.6240 C   0  0  0  0  0  3  0  0  0  0  0  0
  -30.0370  -13.7150   20.7310 C   0  0  0  0  0  2  0  0  0  0  0  0
  -31.3980  -13.9300   20.2060 N   0  0  0  0  0  0  0  0  0  0  0  0
  -33.3320  -15.1380   20.0790 O   0  0  0  0  0  0  0  0  0  0  0  0
  -31.4040  -16.1400   20.6460 N   0  0  0  0  0  0  0  0  0  0  0  0
  -30.4350  -15.9610   20.8520 H   0  0  0  0  0  0  0  0  0  0  0  0
  -26.6530  -14.8780   20.2420 C   0  0  0  0  0  0  0  0  0  0  0  0
  -25.5240  -14.1770   20.5640 C   0  0  0  0  0  0  0  0  0  0  0  0
  -25.8970  -12.7970   20.5420 C   0  0  0  0  0  0  0  0  0  0  0  0
  -27.6480  -13.9310   20.0490 N   0  0  0  0  0  0  0  0  0  0  0  0
  -27.1930  -12.6740   20.2870 N   0  0  0  0  0  0  0  0  0  0  0  0
  -25.0840  -11.5840   20.6920 C   0  0  0  0  0  0  0  0  0  0  0  0
  -25.3840  -10.6130   21.6720 C   0  0  0  0  0  3  0  0  0  0  0  0
  -24.5770   -9.4630   21.8110 C   0  0  0  0  0  3  0  0  0  0  0  0
  -23.4550   -9.2780   20.9670 C   0  0  0  0  0  0  0  0  0  0  0  0
  -23.1740  -10.2370   19.9790 C   0  0  0  0  0  3  0  0  0  0  0  0
  -23.9820  -11.3780   19.8390 C   0  0  0  0  0  3  0  0  0  0  0  0
  -22.6330   -8.1780   21.0110 O   0  0  0  0  0  0  0  0  0  0  0  0
  -22.3090   -7.5690   22.1980 C   0  0  0  0  0  0  0  0  0  0  0  0
  -21.7630   -8.2900   23.2820 C   0  0  0  0  0  3  0  0  0  0  0  0
  -21.3790   -7.6140   24.4560 C   0  0  0  0  0  3  0  0  0  0  0  0
  -21.5330   -6.2170   24.5480 C   0  0  0  0  0  0  0  0  0  0  0  0
  -22.0740   -5.4960   23.4680 C   0  0  0  0  0  3  0  0  0  0  0  0
  -22.4560   -6.1710   22.2950 C   0  0  0  0  0  0  0  0  0  0  0  0
  -22.9550   -5.4700   21.2490 F   0  0  0  0  0  0  0  0  0  0  0  0
  -21.1570   -5.5670   25.6720 F   0  0  0  0  0  0  0  0  0  0  0  0
  -24.1510  -14.7420   20.7850 C   0  0  0  0  0  0  0  0  0  0  0  0
  -23.3670  -14.1250   21.6610 N   0  0  0  0  0  0  0  0  0  0  0  0
  -23.7820  -15.7690   20.2160 O   0  0  0  0  0  0  0  0  0  0  0  0
  -23.6770  -13.2950   22.1460 H   0  0  0  0  0  0  0  0  0  0  0  0
  -22.4450  -14.4890   21.8550 H   0  0  0  0  0  0  0  0  0  0  0  0
  -26.9100  -16.2360   20.0740 N   0  0  0  0  0  0  0  0  0  0  0  0
  -26.1670  -16.9240   20.1190 H   0  0  0  0  0  0  0  0  0  0  0  0
  -27.7790  -16.6180   19.7230 H   0  0  0  0  0  0  0  0  0  0  0  0
  -31.9020  -17.7950   16.6050 C   0  0  0  0  0  2  0  0  0  0  0  0
  -30.4910  -18.3090   16.9270 C   0  0  0  0  0  2  0  0  0  0  0  0
  -32.5550  -17.4510   17.9540 C   0  0  0  0  0  2  0  0  0  0  0  0
  -30.2560  -17.9770   18.4010 C   0  0  0  0  0  2  0  0  0  0  0  0
  -31.6490  -18.0750   19.0300 C   0  0  0  0  0  3  0  0  0  0  0  0
  1  8  2  0
  2  5  1  0
  3  4  1  0
  3  7  1  0
  4 59  1  0
  4  2  1  0
  5  6  1  0
  7  1  1  0
  7  5  1  0
  9 58  1  0
  9 10  1  0
  9  1  1  0
 10 12  1  0
 10 11  1  0
 13 14  1  0
 13 10  1  0
 15 17  1  0
 15 14  1  0
 16 27  2  0
 17 22  1  0
 18 26  1  0
 18 28  1  0
 19 25  1  0
 19 21  1  0
 20 26  1  0
 21 20  1  0
 22 21  2  0
 23 24  1  0
 23 17  2  0
 24 19  2  0
 25 18  1  0
 26 16  1  0
 28 30  2  0
 29 28  1  0
 31 29  1  0
 32 41  2  0
 32 37  1  0
 33 29  1  0
 33 37  1  0
 34 33  1  0
 35 36  1  0
 35 34  1  0
 36 32  1  0
 37 38  2  0
 38 39  1  0
 40 39  2  0
 41 40  1  0
 42 16  1  0
 42 43  1  0
 42 52  1  0
 43 46  1  0
 44 48  1  0
 44 43  1  0
 45 44  2  0
 48 47  1  0
 50 48  1  0
 50 51  1  0
 50 49  1  0
 52 55  1  1
 52 53  1  0
 54 52  1  0
 56 58  1  0
 58 57  1  0
 59 68  1  0
 60 68  1  0
 61 66  1  0
 62 63  1  0
 62 61  1  0
 64 63  1  0
 64 73  1  0
 64 65  1  0
 66 60  1  0
 66 65  1  0
 67 60  2  0
 68 69  1  0
 70 71  2  0
 71 90  1  0
 72 71  1  0
 72 75  1  0
 73 70  1  0
 73 74  1  0
 74 72  2  0
 75 76  1  0
 76 77  2  0
 78 81  1  0
 78 77  1  0
 79 78  2  0
 80 79  1  0
 80 75  2  0
 81 82  1  0
 82 87  2  0
 82 83  1  0
 83 84  2  0
 84 85  1  0
 85 89  1  0
 86 85  2  0
 87 86  1  0
 88 87  1  0
 90 91  1  0
 91 94  1  0
 91 93  1  0
 92 90  2  0
 95 96  1  0
 95 70  1  0
 97 95  1  0
 98 99  1  0
 98100  1  0
 99101  1  0
100102  1  0
101102  1  0
102 59  1  0
M  ISO  4  14 101  15 101  60 100  68 100
M  END
>  <TORSDO>  (61) 
F 23

>  <SCORE>  (61) 
-6.074

>  <name>  (61) 
61

>  <ligand_id>  (61) 
61

>  <original_smiles>  (61) 
[H]c1c([H])c([H])c2c(c1[H])C([H])([H])C([H])([H])C([H])([H])C2([H])N([H])C(=O)C1([H])N(C(=O)C([H])(N([H])C(=O)C([H])(N([H])C([H])([H])[H])C([H])([H])[H])C(C([H])([H])[H])(C([H])([H])[H])C([H])([H])[H])C([H])([H])c2c([H])c(OC([H])([H])C([H])([H])[N+]([H])([H])C([H])(C(=O)N3C([H])([H])C([H])(C([H])(N([H])C(=O)N4C([H])([H])C([H])([H])C([H])([H])C([H])(n5nc(-c6c([H])c([H])c(Oc7c([H])c([H])c(F)c([H])c7F)c([H])c6[H])c(C(=O)N([H])[H])c5N([H])[H])C4([H])[H])C4([H])C([H])([H])C([H])([H])C([H])([H])C4([H])[H])C([H])([H])C3([H])C([H])([H])[H])C([H])(C([H])([H])[H])C([H])([H])[H])c([H])c([H])c2C1([H])[H]

>  <smiles>  (61) 
[H]c1c([H])c([H])c2c(c1[H])C([H])([H])C([H])([H])C([H])([H])C2([H])N([H])C(=O)C1([H])N(C(=O)C([H])(N([H])C(=O)C([H])(N([H])C([H])([H])[H])C([H])([H])[H])C(C([H])([H])[H])(C([H])([H])[H])C([H])([H])[H])C([H])([H])c2c([H])c(OC([H])([H])C([H])([H])[N+]([H])([H])C([H])(C(=O)N3C([H])([H])C([H])(C([H])(N([H])C(=O)N4C([H])([H])C([H])([H])C([H])([H])C([H])(n5nc(-c6c([H])c([H])c(Oc7c([H])c([H])c(F)c([H])c7F)c([H])c6[H])c(C(=O)N([H])[H])c5N([H])[H])C4([H])[H])C4([H])C([H])([H])C([H])([H])C([H])([H])C4([H])[H])C([H])([H])C3([H])C([H])([H])[H])C([H])(C([H])([H])[H])C([H])([H])[H])c([H])c([H])c2C1([H])[H]

$$$$
62:0:0
     RDKit          3D

 96104  0  0  1  0  0  0  0  0999 V2000
  -30.1480  -21.4480   20.5520 C   0  0  0  0  0  3  0  0  0  0  0  0
  -29.4670  -20.1030   20.8850 C   0  0  0  0  0  0  0  0  0  0  0  0
  -30.2520  -19.0540   21.1770 N   0  0  0  0  0  0  0  0  0  0  0  0
  -28.2360  -20.0210   20.8720 O   0  0  0  0  0  0  0  0  0  0  0  0
  -31.2520  -19.2000   21.1610 H   0  0  0  0  0  0  0  0  0  0  0  0
  -30.7720  -14.4870   20.0510 C   0  0  0  0  0  0  0  0  0  0  0  0
  -30.3280  -12.4390   18.7500 C   0  0  0  0  0  2  0  0  0  0  0  0
  -29.3100  -12.7400   17.6320 C   0  0  0  0  0  2  0  0  0  0  0  0
  -27.8660  -12.5980   18.1520 C   0  0  0  0  0  2  0  0  0  0  0  0
  -27.6340  -13.3540   19.4880 C   0  0  0  0  0  3  0  0  0  0  0  0
  -28.7550  -13.0350   20.5020 C   0  0  0  0  0  2  0  0  0  0  0  0
  -30.0500  -13.3480   19.8700 N   0  0  0  0  0  0  0  0  0  0  0  0
  -31.8050  -14.7370   19.4210 O   0  0  0  0  0  0  0  0  0  0  0  0
  -30.6250  -17.0360   22.5690 C   0  0  0  0  0  2  0  0  0  0  0  0
  -30.5520  -15.5410   22.2460 C   0  0  0  0  0  2  0  0  0  0  0  0
  -29.9090  -16.7600   20.2940 C   0  0  0  0  0  2  0  0  0  0  0  0
  -29.7790  -17.7060   21.4930 C   0  0  0  0  0  3  0  0  0  0  0  0
  -30.1950  -15.4250   20.8300 N   0  0  0  0  0  0  0  0  0  0  0  0
  -25.2750  -13.9420   20.3420 C   0  0  0  0  0  0  0  0  0  0  0  0
  -24.2340  -13.1590   20.7640 C   0  0  0  0  0  0  0  0  0  0  0  0
  -24.6980  -11.8100   20.6890 C   0  0  0  0  0  0  0  0  0  0  0  0
  -26.3090  -13.0690   20.0400 N   0  0  0  0  0  0  0  0  0  0  0  0
  -25.9670  -11.7810   20.3030 N   0  0  0  0  0  0  0  0  0  0  0  0
  -23.9900  -10.5420   20.9060 C   0  0  0  0  0  0  0  0  0  0  0  0
  -24.4570   -9.5850   21.8340 C   0  0  0  0  0  3  0  0  0  0  0  0
  -23.7510   -8.3810   22.0380 C   0  0  0  0  0  3  0  0  0  0  0  0
  -22.5620   -8.1240   21.3150 C   0  0  0  0  0  0  0  0  0  0  0  0
  -22.1140   -9.0680   20.3750 C   0  0  0  0  0  3  0  0  0  0  0  0
  -22.8210  -10.2640   20.1680 C   0  0  0  0  0  3  0  0  0  0  0  0
  -21.8250   -6.9710   21.4280 O   0  0  0  0  0  0  0  0  0  0  0  0
  -21.7850   -6.2530   22.5960 C   0  0  0  0  0  0  0  0  0  0  0  0
  -21.3560   -6.8320   23.8110 C   0  0  0  0  0  3  0  0  0  0  0  0
  -21.2650   -6.0390   24.9740 C   0  0  0  0  0  3  0  0  0  0  0  0
  -21.5900   -4.6710   24.9210 C   0  0  0  0  0  0  0  0  0  0  0  0
  -22.0100   -4.0930   23.7120 C   0  0  0  0  0  3  0  0  0  0  0  0
  -22.1030   -4.8810   22.5520 C   0  0  0  0  0  0  0  0  0  0  0  0
  -22.4890   -4.3140   21.3830 F   0  0  0  0  0  0  0  0  0  0  0  0
  -21.4950   -3.9100   26.0360 F   0  0  0  0  0  0  0  0  0  0  0  0
  -22.8530  -13.6250   21.1260 C   0  0  0  0  0  0  0  0  0  0  0  0
  -22.1920  -12.9300   22.0470 N   0  0  0  0  0  0  0  0  0  0  0  0
  -22.3680  -14.6400   20.6280 O   0  0  0  0  0  0  0  0  0  0  0  0
  -22.5990  -12.1110   22.4750 H   0  0  0  0  0  0  0  0  0  0  0  0
  -21.2690  -13.2240   22.3300 H   0  0  0  0  0  0  0  0  0  0  0  0
  -25.4240  -15.3160   20.1750 N   0  0  0  0  0  0  0  0  0  0  0  0
  -24.6660  -15.9670   20.3480 H   0  0  0  0  0  0  0  0  0  0  0  0
  -26.2580  -15.7650   19.8190 H   0  0  0  0  0  0  0  0  0  0  0  0
  -29.1570  -22.5320   20.7650 N   0  0  0  0  0  4  0  0  0  0  0  0
  -28.3870  -22.3820   20.1310 H   0  0  0  0  0  0  0  0  0  0  0  0
  -28.7870  -22.3580   21.6860 H   0  0  0  0  0  0  0  0  0  0  0  0
  -29.6260  -23.9350   20.7100 C   0  0  0  0  0  2  0  0  0  0  0  0
  -28.7310  -24.8800   21.5380 C   0  0  0  0  0  2  0  0  0  0  0  0
  -29.0750  -26.3670   21.3440 C   0  0  0  0  0  2  0  0  0  0  0  0
  -28.5560  -26.8080   20.0910 O   0  0  0  0  0  0  0  0  0  0  0  0
  -24.7150  -31.9030   23.2780 C   0  0  0  0  0  0  0  0  0  0  0  0
  -27.3910  -27.5310   20.1580 C   0  0  0  0  0  0  0  0  0  0  0  0
  -23.5150  -30.5140   21.6170 C   0  0  0  0  0  3  0  0  0  0  0  0
  -24.9800  -28.9930   20.1850 C   0  0  0  0  0  0  0  0  0  0  0  0
  -26.0350  -30.8930   21.4260 C   0  0  0  0  0  2  0  0  0  0  0  0
  -26.1290  -29.5260   20.7820 C   0  0  0  0  0  0  0  0  0  0  0  0
  -27.3370  -28.8000   20.7740 C   0  0  0  0  0  3  0  0  0  0  0  0
  -26.2320  -27.0060   19.5520 C   0  0  0  0  0  3  0  0  0  0  0  0
  -25.0220  -27.7280   19.5710 C   0  0  0  0  0  3  0  0  0  0  0  0
  -23.7300  -29.8420   20.2330 C   0  0  0  0  0  2  0  0  0  0  0  0
  -24.7730  -31.1170   22.1670 N   0  0  0  0  0  0  0  0  0  0  0  0
  -23.6320  -32.1680   23.8190 O   0  0  0  0  0  0  0  0  0  0  0  0
  -22.8660  -29.4820   22.5670 C   0  0  0  0  0  0  0  0  0  0  0  0
  -21.5440  -29.2940   22.4300 N   0  0  0  0  0  0  0  0  0  0  0  0
  -23.5500  -28.8540   23.3810 O   0  0  0  0  0  0  0  0  0  0  0  0
  -21.0540  -29.8520   21.7440 H   0  0  0  0  0  0  0  0  0  0  0  0
  -18.1720  -28.0900   22.9000 C   0  0  0  0  0  0  0  0  0  0  0  0
  -20.7270  -28.3470   23.1880 C   0  0  0  0  0  3  0  0  0  0  0  0
  -20.8350  -26.9240   22.5960 C   0  0  0  0  0  2  0  0  0  0  0  0
  -19.7390  -26.6090   21.5750 C   0  0  0  0  0  2  0  0  0  0  0  0
  -18.3540  -26.7470   22.2120 C   0  0  0  0  0  2  0  0  0  0  0  0
  -19.2870  -28.8480   23.3440 C   0  0  0  0  0  0  0  0  0  0  0  0
  -19.0650  -30.1060   23.9450 C   0  0  0  0  0  3  0  0  0  0  0  0
  -17.7590  -30.6050   24.1090 C   0  0  0  0  0  3  0  0  0  0  0  0
  -16.6570  -29.8430   23.6830 C   0  0  0  0  0  3  0  0  0  0  0  0
  -16.8650  -28.5880   23.0840 C   0  0  0  0  0  3  0  0  0  0  0  0
  -26.0000  -32.5280   23.9080 C   0  0  0  0  0  3  0  0  0  0  0  0
  -25.6890  -33.9230   24.2520 N   0  0  0  0  0  0  0  0  0  0  0  0
  -26.0280  -34.9830   23.5070 C   0  0  0  0  0  0  0  0  0  0  0  0
  -26.7070  -34.8900   22.4800 O   0  0  0  0  0  0  0  0  0  0  0  0
  -25.0850  -34.0690   25.0480 H   0  0  0  0  0  0  0  0  0  0  0  0
  -24.3080  -36.7820   23.1490 C   0  0  0  0  0  1  0  0  0  0  0  0
  -25.5360  -36.3660   23.9740 C   0  0  0  0  0  3  0  0  0  0  0  0
  -27.6610  -37.2320   24.8470 C   0  0  0  0  0  1  0  0  0  0  0  0
  -26.5740  -37.4180   23.8910 N   0  0  0  0  0  0  0  0  0  0  0  0
  -26.1670  -38.3360   24.0480 H   0  0  0  0  0  0  0  0  0  0  0  0
  -26.5190  -31.7410   25.1720 C   0  0  1  0  0  0  0  0  0  0  0  0
  -25.4250  -31.4870   26.2350 C   0  0  0  0  0  1  0  0  0  0  0  0
  -27.1050  -30.3700   24.7590 C   0  0  0  0  0  1  0  0  0  0  0  0
  -27.6680  -32.5260   25.8460 C   0  0  0  0  0  1  0  0  0  0  0  0
  -31.9990  -22.3600   18.9580 C   0  0  0  0  0  1  0  0  0  0  0  0
  -29.7910  -21.5900   17.9600 C   0  0  0  0  0  1  0  0  0  0  0  0
  -30.7900  -21.4140   19.1220 C   0  0  0  0  0  3  0  0  0  0  0  0
  1 96  1  0
  1 47  1  0
  1  2  1  0
  2  3  1  0
  4  2  2  0
  5  3  1  0
  6 18  1  0
  7 12  1  0
  8  9  1  0
  8  7  1  0
 10  9  1  0
 10 22  1  0
 10 11  1  0
 12  6  1  0
 12 11  1  0
 13  6  2  0
 15 14  1  0
 16 18  1  0
 16 17  1  0
 17  3  1  0
 17 14  1  0
 18 15  1  0
 19 20  2  0
 20 39  1  0
 21 20  1  0
 21 24  1  0
 22 23  1  0
 22 19  1  0
 23 21  2  0
 24 25  1  0
 25 26  2  0
 27 30  1  0
 27 26  1  0
 28 27  2  0
 29 28  1  0
 29 24  2  0
 30 31  1  0
 31 32  1  0
 32 33  2  0
 34 33  1  0
 34 38  1  0
 35 34  2  0
 36 31  2  0
 36 35  1  0
 37 36  1  0
 39 40  1  0
 40 43  1  0
 40 42  1  0
 41 39  2  0
 44 19  1  0
 44 45  1  0
 46 44  1  0
 47 49  1  0
 48 47  1  0
 50 47  1  0
 50 51  1  0
 52 51  1  0
 53 55  1  0
 53 52  1  0
 54 65  2  0
 55 60  1  0
 56 64  1  0
 56 66  1  0
 57 63  1  0
 57 59  1  0
 58 64  1  0
 59 58  1  0
 60 59  2  0
 61 62  1  0
 61 55  2  0
 62 57  2  0
 63 56  1  0
 64 54  1  0
 66 68  2  0
 67 66  1  0
 69 67  1  0
 70 79  2  0
 70 75  1  0
 71 67  1  0
 71 75  1  0
 72 71  1  0
 73 74  1  0
 73 72  1  0
 74 70  1  0
 75 76  2  0
 76 77  1  0
 78 77  2  0
 79 78  1  0
 80 54  1  0
 80 81  1  0
 80 90  1  0
 81 84  1  0
 82 86  1  0
 82 81  1  0
 83 82  2  0
 86 85  1  0
 88 86  1  0
 88 89  1  0
 88 87  1  0
 90 93  1  1
 90 91  1  0
 92 90  1  0
 94 96  1  0
 95 96  1  0
M  ISO  4   6 100  18 100  52 101  53 101
M  END
>  <TORSDO>  (62) 
F 22

>  <SCORE>  (62) 
-12.483

>  <name>  (62) 
62

>  <ligand_id>  (62) 
62

>  <original_smiles>  (62) 
[H]c1c([H])c([H])c2c(c1[H])C([H])([H])C([H])([H])C([H])([H])C2([H])N([H])C(=O)C1([H])N(C(=O)C([H])(N([H])C(=O)C([H])(N([H])C([H])([H])[H])C([H])([H])[H])C(C([H])([H])[H])(C([H])([H])[H])C([H])([H])[H])C([H])([H])c2c([H])c(OC([H])([H])C([H])([H])C([H])([H])[N+]([H])([H])C([H])(C(=O)N([H])C3([H])C([H])([H])N(C(=O)N4C([H])([H])C([H])([H])C([H])([H])C([H])(n5nc(-c6c([H])c([H])c(Oc7c([H])c([H])c(F)c([H])c7F)c([H])c6[H])c(C(=O)N([H])[H])c5N([H])[H])C4([H])[H])C([H])([H])C3([H])[H])C([H])(C([H])([H])[H])C([H])([H])[H])c([H])c([H])c2C1([H])[H]

>  <smiles>  (62) 
[H]c1c([H])c([H])c2c(c1[H])C([H])([H])C([H])([H])C([H])([H])C2([H])N([H])C(=O)C1([H])N(C(=O)C([H])(N([H])C(=O)C([H])(N([H])C([H])([H])[H])C([H])([H])[H])C(C([H])([H])[H])(C([H])([H])[H])C([H])([H])[H])C([H])([H])c2c([H])c(OC([H])([H])C([H])([H])C([H])([H])[N+]([H])([H])C([H])(C(=O)N([H])C3([H])C([H])([H])N(C(=O)N4C([H])([H])C([H])([H])C([H])([H])C([H])(n5nc(-c6c([H])c([H])c(Oc7c([H])c([H])c(F)c([H])c7F)c([H])c6[H])c(C(=O)N([H])[H])c5N([H])[H])C4([H])[H])C([H])([H])C3([H])[H])C([H])(C([H])([H])[H])C([H])([H])[H])c([H])c([H])c2C1([H])[H]

$$$$
63:0:0
     RDKit          3D

 95103  0  0  1  0  0  0  0  0999 V2000
  -29.2100  -18.3190   20.0050 C   0  0  0  0  0  0  0  0  0  0  0  0
  -31.1010  -17.9100   21.7140 C   0  0  0  0  0  2  0  0  0  0  0  0
  -30.4620  -20.2540   20.9720 C   0  0  0  0  0  2  0  0  0  0  0  0
  -30.2920  -17.3410   20.5410 C   0  0  0  0  0  3  0  0  0  0  0  0
  -31.6300  -19.2990   21.3160 C   0  0  0  0  0  3  0  0  0  0  0  0
  -29.4150  -19.6750   20.1050 N   0  0  0  0  0  0  0  0  0  0  0  0
  -28.2320  -17.8300   19.4300 O   0  0  0  0  0  0  0  0  0  0  0  0
  -30.6790  -14.8380   20.5250 C   0  0  0  0  0  0  0  0  0  0  0  0
  -30.5350  -12.5360   19.6450 C   0  0  0  0  0  2  0  0  0  0  0  0
  -29.6390  -12.5450   18.3900 C   0  0  0  0  0  2  0  0  0  0  0  0
  -28.1570  -12.3750   18.7790 C   0  0  0  0  0  2  0  0  0  0  0  0
  -27.7250  -13.3240   19.9300 C   0  0  0  0  0  3  0  0  0  0  0  0
  -28.7470  -13.3100   21.0900 C   0  0  0  0  0  2  0  0  0  0  0  0
  -30.0670  -13.6190   20.5260 N   0  0  0  0  0  0  0  0  0  0  0  0
  -31.8460  -14.9800   20.1520 O   0  0  0  0  0  0  0  0  0  0  0  0
  -29.8930  -15.9190   20.7480 N   0  0  0  0  0  0  0  0  0  0  0  0
  -28.9210  -15.7500   20.9650 H   0  0  0  0  0  0  0  0  0  0  0  0
  -25.3160  -13.8940   20.6170 C   0  0  0  0  0  0  0  0  0  0  0  0
  -24.2520  -13.1070   20.9650 C   0  0  0  0  0  0  0  0  0  0  0  0
  -24.7280  -11.7600   20.9280 C   0  0  0  0  0  0  0  0  0  0  0  0
  -26.3730  -13.0270   20.3920 N   0  0  0  0  0  0  0  0  0  0  0  0
  -26.0230  -11.7380   20.6370 N   0  0  0  0  0  0  0  0  0  0  0  0
  -24.0110  -10.4890   21.0950 C   0  0  0  0  0  0  0  0  0  0  0  0
  -24.4210   -9.5290   22.0460 C   0  0  0  0  0  3  0  0  0  0  0  0
  -23.7050   -8.3230   22.2020 C   0  0  0  0  0  3  0  0  0  0  0  0
  -22.5640   -8.0670   21.4060 C   0  0  0  0  0  0  0  0  0  0  0  0
  -22.1750   -9.0140   20.4430 C   0  0  0  0  0  3  0  0  0  0  0  0
  -22.8910  -10.2120   20.2850 C   0  0  0  0  0  3  0  0  0  0  0  0
  -21.8220   -6.9120   21.4690 O   0  0  0  0  0  0  0  0  0  0  0  0
  -21.7050   -6.1950   22.6330 C   0  0  0  0  0  0  0  0  0  0  0  0
  -21.1620   -6.7640   23.8070 C   0  0  0  0  0  3  0  0  0  0  0  0
  -20.9960   -5.9710   24.9590 C   0  0  0  0  0  3  0  0  0  0  0  0
  -21.3610   -4.6110   24.9400 C   0  0  0  0  0  0  0  0  0  0  0  0
  -21.8940   -4.0430   23.7700 C   0  0  0  0  0  3  0  0  0  0  0  0
  -22.0630   -4.8320   22.6190 C   0  0  0  0  0  0  0  0  0  0  0  0
  -22.5580   -4.2740   21.4890 F   0  0  0  0  0  0  0  0  0  0  0  0
  -21.1930   -3.8470   26.0440 F   0  0  0  0  0  0  0  0  0  0  0  0
  -22.8460  -13.5670   21.2220 C   0  0  0  0  0  0  0  0  0  0  0  0
  -22.1190  -12.8590   22.0800 N   0  0  0  0  0  0  0  0  0  0  0  0
  -22.4030  -14.5890   20.6990 O   0  0  0  0  0  0  0  0  0  0  0  0
  -22.4900  -12.0330   22.5230 H   0  0  0  0  0  0  0  0  0  0  0  0
  -21.1750  -13.1480   22.2940 H   0  0  0  0  0  0  0  0  0  0  0  0
  -25.4680  -15.2680   20.4530 N   0  0  0  0  0  0  0  0  0  0  0  0
  -24.6880  -15.9090   20.5490 H   0  0  0  0  0  0  0  0  0  0  0  0
  -26.3090  -15.7210   20.1170 H   0  0  0  0  0  0  0  0  0  0  0  0
  -33.8850  -20.1050   22.0580 C   0  0  0  0  0  2  0  0  0  0  0  0
  -32.5910  -19.8870   22.3470 C   0  0  0  0  0  0  0  0  0  0  0  0
  -32.0290  -20.2060   23.7210 C   0  0  0  0  0  1  0  0  0  0  0  0
  -28.6900  -20.6460   19.2270 C   0  0  0  0  0  2  0  0  0  0  0  0
  -28.3270  -22.0950   19.7560 C   0  0  0  0  0  2  0  0  0  0  0  0
  -27.6440  -24.4200   18.7560 C   0  0  0  0  0  3  0  0  0  0  0  0
  -27.7710  -23.0650   18.6740 C   0  0  0  0  0  0  0  0  0  0  0  0
  -27.2910  -22.4000   17.3890 C   0  0  0  0  0  1  0  0  0  0  0  0
  -27.9250  -25.3980   19.9020 C   0  0  0  0  0  2  0  0  0  0  0  0
  -27.9630  -26.7990   19.5010 O   0  0  0  0  0  0  0  0  0  0  0  0
  -24.4780  -31.8920   23.1320 C   0  0  0  0  0  0  0  0  0  0  0  0
  -26.8100  -27.5630   19.6280 C   0  0  0  0  0  0  0  0  0  0  0  0
  -23.1340  -30.6080   21.5010 C   0  0  0  0  0  3  0  0  0  0  0  0
  -24.4540  -29.1350   19.8910 C   0  0  0  0  0  0  0  0  0  0  0  0
  -25.6510  -30.9370   21.1400 C   0  0  0  0  0  2  0  0  0  0  0  0
  -25.6660  -29.6030   20.4150 C   0  0  0  0  0  0  0  0  0  0  0  0
  -26.8480  -28.8310   20.2660 C   0  0  0  0  0  3  0  0  0  0  0  0
  -25.5730  -27.1170   19.1120 C   0  0  0  0  0  3  0  0  0  0  0  0
  -24.4060  -27.8950   19.2320 C   0  0  0  0  0  3  0  0  0  0  0  0
  -23.2340  -30.0110   20.0730 C   0  0  0  0  0  2  0  0  0  0  0  0
  -24.4440  -31.1570   21.9820 N   0  0  0  0  0  0  0  0  0  0  0  0
  -23.4420  -32.1420   23.7630 O   0  0  0  0  0  0  0  0  0  0  0  0
  -22.5340  -29.5390   22.4430 C   0  0  0  0  0  0  0  0  0  0  0  0
  -21.2070  -29.3450   22.3630 N   0  0  0  0  0  0  0  0  0  0  0  0
  -23.2570  -28.8900   23.2030 O   0  0  0  0  0  0  0  0  0  0  0  0
  -20.6810  -29.9250   21.7240 H   0  0  0  0  0  0  0  0  0  0  0  0
  -17.8800  -28.0350   22.8900 C   0  0  0  0  0  0  0  0  0  0  0  0
  -20.4320  -28.3650   23.1250 C   0  0  0  0  0  3  0  0  0  0  0  0
  -20.5680  -26.9500   22.5130 C   0  0  0  0  0  2  0  0  0  0  0  0
  -19.4590  -26.6180   21.5100 C   0  0  0  0  0  2  0  0  0  0  0  0
  -18.0850  -26.7060   22.1820 C   0  0  0  0  0  2  0  0  0  0  0  0
  -18.9820  -28.8200   23.3200 C   0  0  0  0  0  0  0  0  0  0  0  0
  -18.7350  -30.0630   23.9420 C   0  0  0  0  0  3  0  0  0  0  0  0
  -17.4190  -30.5200   24.1420 C   0  0  0  0  0  3  0  0  0  0  0  0
  -16.3320  -29.7300   23.7310 C   0  0  0  0  0  3  0  0  0  0  0  0
  -16.5630  -28.4900   23.1100 C   0  0  0  0  0  3  0  0  0  0  0  0
  -25.8130  -32.4700   23.6950 C   0  0  0  0  0  3  0  0  0  0  0  0
  -25.5550  -33.8550   24.1140 N   0  0  0  0  0  0  0  0  0  0  0  0
  -25.8860  -34.9400   23.4010 C   0  0  0  0  0  0  0  0  0  0  0  0
  -26.5110  -34.8770   22.3390 O   0  0  0  0  0  0  0  0  0  0  0  0
  -25.0000  -33.9830   24.9480 H   0  0  0  0  0  0  0  0  0  0  0  0
  -24.1980  -36.7950   23.2070 C   0  0  0  0  0  1  0  0  0  0  0  0
  -25.4530  -36.3120   23.9530 C   0  0  0  0  0  3  0  0  0  0  0  0
  -27.6370  -37.0890   24.7650 C   0  0  0  0  0  1  0  0  0  0  0  0
  -26.5110  -37.3420   23.8680 N   0  0  0  0  0  0  0  0  0  0  0  0
  -26.1360  -38.2630   24.0800 H   0  0  0  0  0  0  0  0  0  0  0  0
  -26.3990  -31.6260   24.8920 C   0  0  1  0  0  0  0  0  0  0  0  0
  -25.3800  -31.3530   26.0210 C   0  0  0  0  0  1  0  0  0  0  0  0
  -26.9190  -30.2600   24.3890 C   0  0  0  0  0  1  0  0  0  0  0  0
  -27.6150  -32.3600   25.5070 C   0  0  0  0  0  1  0  0  0  0  0  0
  1  6  1  0
  1  4  1  0
  3  5  1  0
  4 16  1  0
  4  2  1  0
  5  2  1  0
  5 47  1  0
  6  3  1  0
  7  1  2  0
  8 14  1  0
  8 16  1  0
  9 14  1  0
 10 11  1  0
 10  9  1  0
 12 11  1  0
 12 21  1  0
 12 13  1  0
 14 13  1  0
 15  8  2  0
 16 17  1  0
 18 19  2  0
 19 38  1  0
 20 19  1  0
 20 23  1  0
 21 18  1  0
 21 22  1  0
 22 20  2  0
 23 24  1  0
 24 25  2  0
 26 29  1  0
 26 25  1  0
 27 26  2  0
 28 27  1  0
 28 23  2  0
 29 30  1  0
 30 31  1  0
 31 32  2  0
 33 32  1  0
 33 37  1  0
 34 33  2  0
 35 30  2  0
 35 34  1  0
 36 35  1  0
 38 39  1  0
 39 42  1  0
 39 41  1  0
 40 38  2  0
 43 44  1  0
 43 18  1  0
 45 43  1  0
 46 47  2  0
 47 48  1  0
 49 50  1  0
 49  6  1  0
 51 54  1  0
 52 51  2  0
 52 50  1  0
 53 52  1  0
 55 57  1  0
 55 54  1  0
 56 67  2  0
 57 62  1  0
 58 66  1  0
 58 68  1  0
 59 65  1  0
 59 61  1  0
 60 66  1  0
 61 60  1  0
 62 61  2  0
 63 64  1  0
 63 57  2  0
 64 59  2  0
 65 58  1  0
 66 56  1  0
 68 70  2  0
 69 68  1  0
 71 69  1  0
 72 81  2  0
 72 77  1  0
 73 69  1  0
 73 77  1  0
 74 73  1  0
 75 76  1  0
 75 74  1  0
 76 72  1  0
 77 78  2  0
 78 79  1  0
 80 79  2  0
 81 80  1  0
 82 56  1  0
 82 83  1  0
 82 92  1  0
 83 86  1  0
 84 88  1  0
 84 83  1  0
 85 84  2  0
 88 87  1  0
 90 88  1  0
 90 91  1  0
 90 89  1  0
 92 95  1  1
 92 93  1  0
 94 92  1  0
M  ISO  4   8 100  16 100  54 101  55 101
M  END
>  <TORSDO>  (63) 
F 21

>  <SCORE>  (63) 
-13.282

>  <name>  (63) 
63

>  <ligand_id>  (63) 
63

>  <original_smiles>  (63) 
[H]C([H])=C(C([H])([H])[H])C1([H])C([H])([H])N(C([H])([H])C([H])([H])C(=C([H])C([H])([H])Oc2c([H])c([H])c3c(c2[H])C([H])([H])N(C(=O)C([H])(N([H])C(=O)C([H])(N([H])C([H])([H])[H])C([H])([H])[H])C(C([H])([H])[H])(C([H])([H])[H])C([H])([H])[H])C([H])(C(=O)N([H])C2([H])c4c([H])c([H])c([H])c([H])c4C([H])([H])C([H])([H])C2([H])[H])C3([H])[H])C([H])([H])[H])C(=O)C([H])(N([H])C(=O)N2C([H])([H])C([H])([H])C([H])([H])C([H])(n3nc(-c4c([H])c([H])c(Oc5c([H])c([H])c(F)c([H])c5F)c([H])c4[H])c(C(=O)N([H])[H])c3N([H])[H])C2([H])[H])C1([H])[H]

>  <smiles>  (63) 
[H]C([H])=C(C([H])([H])[H])C1([H])C([H])([H])N(C([H])([H])C([H])([H])C(=C([H])C([H])([H])Oc2c([H])c([H])c3c(c2[H])C([H])([H])N(C(=O)C([H])(N([H])C(=O)C([H])(N([H])C([H])([H])[H])C([H])([H])[H])C(C([H])([H])[H])(C([H])([H])[H])C([H])([H])[H])C([H])(C(=O)N([H])C2([H])c4c([H])c([H])c([H])c([H])c4C([H])([H])C([H])([H])C2([H])[H])C3([H])[H])C([H])([H])[H])C(=O)C([H])(N([H])C(=O)N2C([H])([H])C([H])([H])C([H])([H])C([H])(n3nc(-c4c([H])c([H])c(Oc5c([H])c([H])c(F)c([H])c5F)c([H])c4[H])c(C(=O)N([H])[H])c3N([H])[H])C2([H])[H])C1([H])[H]

$$$$
64:0:0
     RDKit          3D

 97106  0  0  1  0  0  0  0  0999 V2000
  -29.8670  -18.9180   21.0880 C   0  0  0  0  0  0  0  0  0  0  0  0
  -29.4170  -18.2560   18.6870 C   0  0  0  0  0  2  0  0  0  0  0  0
  -30.0550  -21.5530   21.0510 C   0  0  0  0  0  2  0  0  0  0  0  0
  -30.1090  -17.7590   20.0020 C   0  0  0  0  0  3  0  0  0  0  0  0
  -29.4840  -19.8280   18.4290 C   0  0  0  0  0  3  0  0  0  0  0  0
  -29.3270  -22.2820   19.8490 C   0  0  0  0  0  3  0  0  0  0  0  0
  -28.7730  -20.7610   19.5070 C   0  0  1  0  0  0  0  0  0  0  0  0
  -27.2640  -20.5040   19.5790 C   0  0  0  0  0  1  0  0  0  0  0  0
  -29.3820  -20.2680   20.7520 N   0  0  0  0  0  0  0  0  0  0  0  0
  -30.0950  -18.6610   22.2690 O   0  0  0  0  0  0  0  0  0  0  0  0
  -30.6850  -15.0480   19.9810 C   0  0  0  0  0  0  0  0  0  0  0  0
  -30.4900  -12.7350   18.9700 C   0  0  0  0  0  2  0  0  0  0  0  0
  -29.4820  -12.7530   17.7960 C   0  0  0  0  0  2  0  0  0  0  0  0
  -28.0480  -12.5320   18.3120 C   0  0  0  0  0  2  0  0  0  0  0  0
  -27.7220  -13.4250   19.5370 C   0  0  0  0  0  3  0  0  0  0  0  0
  -28.8390  -13.3740   20.6020 C   0  0  0  0  0  2  0  0  0  0  0  0
  -30.0840  -13.7900   19.9440 N   0  0  0  0  0  0  0  0  0  0  0  0
  -31.8440  -15.1300   19.5580 O   0  0  0  0  0  0  0  0  0  0  0  0
  -29.9390  -16.2100   20.3060 N   0  0  0  0  0  0  0  0  0  0  0  0
  -29.0570  -15.9950   20.7480 H   0  0  0  0  0  0  0  0  0  0  0  0
  -25.3900  -14.0020   20.4240 C   0  0  0  0  0  0  0  0  0  0  0  0
  -24.3440  -13.2240   20.8380 C   0  0  0  0  0  0  0  0  0  0  0  0
  -24.7980  -11.8720   20.7490 C   0  0  0  0  0  0  0  0  0  0  0  0
  -26.4120  -13.1250   20.1020 N   0  0  0  0  0  0  0  0  0  0  0  0
  -26.0700  -11.8360   20.3650 N   0  0  0  0  0  0  0  0  0  0  0  0
  -24.0770  -10.6060   20.9510 C   0  0  0  0  0  0  0  0  0  0  0  0
  -24.5260   -9.6360   21.8730 C   0  0  0  0  0  3  0  0  0  0  0  0
  -23.8050   -8.4390   22.0620 C   0  0  0  0  0  3  0  0  0  0  0  0
  -22.6180   -8.2020   21.3270 C   0  0  0  0  0  0  0  0  0  0  0  0
  -22.1890   -9.1580   20.3910 C   0  0  0  0  0  3  0  0  0  0  0  0
  -22.9120  -10.3480   20.2010 C   0  0  0  0  0  3  0  0  0  0  0  0
  -21.8680   -7.0560   21.4270 O   0  0  0  0  0  0  0  0  0  0  0  0
  -21.7980   -6.3390   22.5940 C   0  0  0  0  0  0  0  0  0  0  0  0
  -21.2890   -6.9000   23.7850 C   0  0  0  0  0  3  0  0  0  0  0  0
  -21.1720   -6.1060   24.9430 C   0  0  0  0  0  3  0  0  0  0  0  0
  -21.5550   -4.7520   24.9110 C   0  0  0  0  0  0  0  0  0  0  0  0
  -22.0560   -4.1900   23.7240 C   0  0  0  0  0  3  0  0  0  0  0  0
  -22.1740   -4.9810   22.5680 C   0  0  0  0  0  0  0  0  0  0  0  0
  -22.6370   -4.4290   21.4210 F   0  0  0  0  0  0  0  0  0  0  0  0
  -21.4350   -3.9870   26.0200 F   0  0  0  0  0  0  0  0  0  0  0  0
  -22.9670  -13.6990   21.2020 C   0  0  0  0  0  0  0  0  0  0  0  0
  -22.2830  -12.9820   22.0860 N   0  0  0  0  0  0  0  0  0  0  0  0
  -22.5070  -14.7380   20.7310 O   0  0  0  0  0  0  0  0  0  0  0  0
  -22.6640  -12.1360   22.4820 H   0  0  0  0  0  0  0  0  0  0  0  0
  -21.3610  -13.2840   22.3710 H   0  0  0  0  0  0  0  0  0  0  0  0
  -25.5520  -15.3770   20.2670 N   0  0  0  0  0  0  0  0  0  0  0  0
  -24.7940  -16.0320   20.4190 H   0  0  0  0  0  0  0  0  0  0  0  0
  -26.3730  -15.8090   19.8650 H   0  0  0  0  0  0  0  0  0  0  0  0
  -28.5080  -23.6630   20.2900 C   0  0  0  0  0  0  0  0  0  0  0  0
  -27.7840  -23.6280   21.4180 N   0  0  0  0  0  4  0  0  0  0  0  0
  -28.5230  -24.9390   19.6380 N   0  0  0  0  0  0  0  0  0  0  0  0
  -27.6920  -22.7930   21.9710 H   0  0  0  0  0  0  0  0  0  0  0  0
  -27.2770  -24.4510   21.7060 H   0  0  0  0  0  0  0  0  0  0  0  0
  -28.9680  -24.9780   18.7310 H   0  0  0  0  0  0  0  0  0  0  0  0
  -28.4320  -26.2970   20.2810 O   0  0  0  0  0  0  0  0  0  0  0  0
  -24.6930  -31.8490   23.2730 C   0  0  0  0  0  0  0  0  0  0  0  0
  -27.3410  -27.2250   20.1430 C   0  0  0  0  0  0  0  0  0  0  0  0
  -23.5170  -30.4820   21.5900 C   0  0  0  0  0  3  0  0  0  0  0  0
  -24.9870  -28.9390   20.1410 C   0  0  0  0  0  0  0  0  0  0  0  0
  -26.0680  -30.7680   21.4500 C   0  0  0  0  0  2  0  0  0  0  0  0
  -26.1540  -29.3880   20.7700 C   0  0  0  0  0  0  0  0  0  0  0  0
  -27.3250  -28.5450   20.7560 C   0  0  0  0  0  3  0  0  0  0  0  0
  -26.1450  -26.8660   19.4850 C   0  0  0  0  0  3  0  0  0  0  0  0
  -24.9930  -27.6930   19.4870 C   0  0  0  0  0  3  0  0  0  0  0  0
  -23.7520  -29.8280   20.2000 C   0  0  0  0  0  2  0  0  0  0  0  0
  -24.7790  -31.0560   22.1590 N   0  0  0  0  0  0  0  0  0  0  0  0
  -23.6000  -32.1160   23.7980 O   0  0  0  0  0  0  0  0  0  0  0  0
  -22.8350  -29.4550   22.5260 C   0  0  0  0  0  0  0  0  0  0  0  0
  -21.5140  -29.2560   22.3590 N   0  0  0  0  0  0  0  0  0  0  0  0
  -23.4960  -28.8380   23.3650 O   0  0  0  0  0  0  0  0  0  0  0  0
  -21.0360  -29.8030   21.6590 H   0  0  0  0  0  0  0  0  0  0  0  0
  -18.1520  -27.9620   22.7340 C   0  0  0  0  0  0  0  0  0  0  0  0
  -20.6920  -28.2940   23.0990 C   0  0  0  0  0  3  0  0  0  0  0  0
  -20.8540  -26.8680   22.5240 C   0  0  0  0  0  2  0  0  0  0  0  0
  -19.8020  -26.5230   21.4670 C   0  0  0  0  0  2  0  0  0  0  0  0
  -18.3920  -26.6230   22.0580 C   0  0  0  0  0  2  0  0  0  0  0  0
  -19.2310  -28.7550   23.2080 C   0  0  0  0  0  0  0  0  0  0  0  0
  -18.9520  -30.0090   23.7960 C   0  0  0  0  0  3  0  0  0  0  0  0
  -17.6280  -30.4670   23.9180 C   0  0  0  0  0  3  0  0  0  0  0  0
  -16.5630  -29.6730   23.4610 C   0  0  0  0  0  3  0  0  0  0  0  0
  -16.8250  -28.4220   22.8750 C   0  0  0  0  0  3  0  0  0  0  0  0
  -25.9590  -32.4800   23.9300 C   0  0  0  0  0  3  0  0  0  0  0  0
  -25.6470  -33.8800   24.2550 N   0  0  0  0  0  0  0  0  0  0  0  0
  -25.9620  -34.9340   23.4900 C   0  0  0  0  0  0  0  0  0  0  0  0
  -26.6130  -34.8300   22.4460 O   0  0  0  0  0  0  0  0  0  0  0  0
  -25.0670  -34.0340   25.0670 H   0  0  0  0  0  0  0  0  0  0  0  0
  -24.2050  -36.7090   23.1860 C   0  0  0  0  0  1  0  0  0  0  0  0
  -25.4800  -36.3240   23.9520 C   0  0  0  0  0  3  0  0  0  0  0  0
  -27.6300  -37.2440   24.7010 C   0  0  0  0  0  1  0  0  0  0  0  0
  -26.4970  -37.3860   23.7900 N   0  0  0  0  0  0  0  0  0  0  0  0
  -26.0860  -38.3040   23.9360 H   0  0  0  0  0  0  0  0  0  0  0  0
  -26.4360  -31.7110   25.2230 C   0  0  1  0  0  0  0  0  0  0  0  0
  -25.3140  -31.4880   26.2650 C   0  0  0  0  0  1  0  0  0  0  0  0
  -27.0190  -30.3270   24.8530 C   0  0  0  0  0  1  0  0  0  0  0  0
  -27.5750  -32.5000   25.9110 C   0  0  0  0  0  1  0  0  0  0  0  0
  -29.9130  -20.3760   16.0020 C   0  0  0  0  0  2  0  0  0  0  0  0
  -29.0510  -20.1210   17.0040 C   0  0  0  0  0  3  0  0  0  0  0  0
  1 10  2  0
  2  4  1  0
  4 19  1  0
  4  1  1  0
  5 97  1  0
  5  2  1  0
  5  7  1  0
  6 49  1  0
  6  3  1  0
  7  8  1  1
  7  6  1  0
  7  9  1  0
  9  3  1  0
  9  1  1  0
 11 19  1  0
 12 17  1  0
 13 14  1  0
 13 12  1  0
 15 14  1  0
 15 24  1  0
 15 16  1  0
 17 11  1  0
 17 16  1  0
 18 11  2  0
 19 20  1  0
 21 22  2  0
 22 41  1  0
 23 22  1  0
 23 26  1  0
 24 25  1  0
 24 21  1  0
 25 23  2  0
 26 27  1  0
 27 28  2  0
 29 32  1  0
 29 28  1  0
 30 29  2  0
 31 30  1  0
 31 26  2  0
 32 33  1  0
 33 34  1  0
 34 35  2  0
 36 35  1  0
 36 40  1  0
 37 36  2  0
 38 33  2  0
 38 37  1  0
 39 38  1  0
 41 42  1  0
 42 45  1  0
 42 44  1  0
 43 41  2  0
 46 47  1  0
 46 21  1  0
 48 46  1  0
 49 50  2  0
 50 53  1  0
 50 52  1  0
 51 55  1  0
 51 49  1  0
 54 51  1  0
 56 67  2  0
 57 55  1  0
 57 62  1  0
 58 66  1  0
 58 68  1  0
 59 65  1  0
 59 61  1  0
 60 66  1  0
 61 60  1  0
 62 61  2  0
 63 64  1  0
 63 57  2  0
 64 59  2  0
 65 58  1  0
 66 56  1  0
 68 70  2  0
 69 68  1  0
 71 69  1  0
 72 81  2  0
 72 77  1  0
 73 69  1  0
 73 77  1  0
 74 73  1  0
 75 76  1  0
 75 74  1  0
 76 72  1  0
 77 78  2  0
 78 79  1  0
 80 79  2  0
 81 80  1  0
 82 56  1  0
 82 83  1  0
 82 92  1  0
 83 86  1  0
 84 88  1  0
 84 83  1  0
 85 84  2  0
 88 87  1  0
 90 91  1  0
 90 88  1  0
 90 89  1  0
 92 95  1  1
 92 93  1  0
 94 92  1  0
 96 97  2  0
M  ISO  4  11 100  19 100  51 101  55 101
M  END
>  <TORSDO>  (64) 
F 18

>  <SCORE>  (64) 
-14.116

>  <name>  (64) 
64

>  <ligand_id>  (64) 
64

>  <original_smiles>  (64) 
[H]C([H])=C([H])C1([H])C([H])([H])C([H])(N([H])C(=O)N2C([H])([H])C([H])([H])C([H])([H])C([H])(n3nc(-c4c([H])c([H])c(Oc5c([H])c([H])c(F)c([H])c5F)c([H])c4[H])c(C(=O)N([H])[H])c3N([H])[H])C2([H])[H])C(=O)N2C([H])([H])C([H])(C(N([H])[H])=[N+]([H])Oc3c([H])c([H])c4c(c3[H])C([H])([H])N(C(=O)C([H])(N([H])C(=O)C([H])(N([H])C([H])([H])[H])C([H])([H])[H])C(C([H])([H])[H])(C([H])([H])[H])C([H])([H])[H])C([H])(C(=O)N([H])C3([H])c5c([H])c([H])c([H])c([H])c5C([H])([H])C([H])([H])C3([H])[H])C4([H])[H])C21C([H])([H])[H]

>  <smiles>  (64) 
[H]C([H])=C([H])C1([H])C([H])([H])C([H])(N([H])C(=O)N2C([H])([H])C([H])([H])C([H])([H])C([H])(n3nc(-c4c([H])c([H])c(Oc5c([H])c([H])c(F)c([H])c5F)c([H])c4[H])c(C(=O)N([H])[H])c3N([H])[H])C2([H])[H])C(=O)N2C([H])([H])C([H])(C(N([H])[H])=[N+]([H])Oc3c([H])c([H])c4c(c3[H])C([H])([H])N(C(=O)C([H])(N([H])C(=O)C([H])(N([H])C([H])([H])[H])C([H])([H])[H])C(C([H])([H])[H])(C([H])([H])[H])C([H])([H])[H])C([H])(C(=O)N([H])C3([H])c5c([H])c([H])c([H])c([H])c5C([H])([H])C([H])([H])C3([H])[H])C4([H])[H])C21C([H])([H])[H]

$$$$
65:0:0
     RDKit          3D

 90 97  0  0  1  0  0  0  0  0999 V2000
  -29.0700  -21.1180   20.8630 C   0  0  0  0  0  3  0  0  0  0  0  0
  -29.6180  -19.8090   20.2680 N   0  0  0  0  0  4  0  0  0  0  0  0
  -30.4740  -20.0330   19.7880 H   0  0  0  0  0  0  0  0  0  0  0  0
  -28.9660  -19.4960   19.5660 H   0  0  0  0  0  0  0  0  0  0  0  0
  -29.8980  -18.6120   21.1940 C   0  0  0  0  0  3  0  0  0  0  0  0
  -32.1740  -19.5730   21.9770 C   0  0  0  0  0  1  0  0  0  0  0  0
  -30.9690  -17.9040   23.4410 C   0  0  0  0  0  1  0  0  0  0  0  0
  -30.7940  -19.0310   22.4040 C   0  0  0  0  0  3  0  0  0  0  0  0
  -30.1080  -15.9800   20.7540 C   0  0  0  0  0  3  0  0  0  0  0  0
  -30.5010  -17.2920   20.5560 C   0  0  0  0  0  3  0  0  0  0  0  0
  -30.8490  -14.7810   20.2330 C   0  0  0  0  0  0  0  0  0  0  0  0
  -30.5670  -12.5680   19.1160 C   0  0  0  0  0  2  0  0  0  0  0  0
  -29.6090  -12.7460   17.9170 C   0  0  0  0  0  2  0  0  0  0  0  0
  -28.1400  -12.6000   18.3620 C   0  0  0  0  0  2  0  0  0  0  0  0
  -27.8200  -13.4240   19.6380 C   0  0  0  0  0  3  0  0  0  0  0  0
  -28.8940  -13.2130   20.7260 C   0  0  0  0  0  2  0  0  0  0  0  0
  -30.1940  -13.5720   20.1410 N   0  0  0  0  0  0  0  0  0  0  0  0
  -32.0000  -14.8740   19.7940 O   0  0  0  0  0  0  0  0  0  0  0  0
  -25.4390  -14.0360   20.3810 C   0  0  0  0  0  0  0  0  0  0  0  0
  -24.3730  -13.2690   20.7630 C   0  0  0  0  0  0  0  0  0  0  0  0
  -24.8290  -11.9140   20.7340 C   0  0  0  0  0  0  0  0  0  0  0  0
  -26.4760  -13.1490   20.1380 N   0  0  0  0  0  0  0  0  0  0  0  0
  -26.1170  -11.8690   20.4130 N   0  0  0  0  0  0  0  0  0  0  0  0
  -24.0990  -10.6560   20.9370 C   0  0  0  0  0  0  0  0  0  0  0  0
  -24.5250   -9.6990   21.8860 C   0  0  0  0  0  3  0  0  0  0  0  0
  -23.7940   -8.5060   22.0750 C   0  0  0  0  0  3  0  0  0  0  0  0
  -22.6240   -8.2620   21.3180 C   0  0  0  0  0  0  0  0  0  0  0  0
  -22.2190   -9.2060   20.3580 C   0  0  0  0  0  3  0  0  0  0  0  0
  -22.9510  -10.3910   20.1660 C   0  0  0  0  0  3  0  0  0  0  0  0
  -21.8660   -7.1210   21.4170 O   0  0  0  0  0  0  0  0  0  0  0  0
  -21.7850   -6.4090   22.5860 C   0  0  0  0  0  0  0  0  0  0  0  0
  -21.3410   -7.0020   23.7880 C   0  0  0  0  0  3  0  0  0  0  0  0
  -21.2060   -6.2180   24.9520 C   0  0  0  0  0  3  0  0  0  0  0  0
  -21.5050   -4.8430   24.9130 C   0  0  0  0  0  0  0  0  0  0  0  0
  -21.9400   -4.2500   23.7140 C   0  0  0  0  0  3  0  0  0  0  0  0
  -22.0760   -5.0320   22.5540 C   0  0  0  0  0  0  0  0  0  0  0  0
  -22.4770   -4.4520   21.3960 F   0  0  0  0  0  0  0  0  0  0  0  0
  -21.3680   -4.0860   26.0270 F   0  0  0  0  0  0  0  0  0  0  0  0
  -22.9810  -13.7520   21.0480 C   0  0  0  0  0  0  0  0  0  0  0  0
  -22.2620  -13.0690   21.9320 N   0  0  0  0  0  0  0  0  0  0  0  0
  -22.5390  -14.7730   20.5210 O   0  0  0  0  0  0  0  0  0  0  0  0
  -22.6340  -12.2440   22.3800 H   0  0  0  0  0  0  0  0  0  0  0  0
  -21.3280  -13.3730   22.1640 H   0  0  0  0  0  0  0  0  0  0  0  0
  -25.6110  -15.4040   20.1940 N   0  0  0  0  0  0  0  0  0  0  0  0
  -24.8540  -16.0680   20.3110 H   0  0  0  0  0  0  0  0  0  0  0  0
  -26.4650  -15.8310   19.8570 H   0  0  0  0  0  0  0  0  0  0  0  0
  -28.8820  -22.4030   19.9140 C   0  0  0  0  0  3  0  0  0  0  0  0
  -28.4690  -23.8200   20.5660 C   0  0  0  0  0  3  0  0  0  0  0  0
  -28.3760  -25.1130   19.6220 C   0  0  0  0  0  3  0  0  0  0  0  0
  -28.2800  -26.4850   20.1970 O   0  0  0  0  0  0  0  0  0  0  0  0
  -24.5860  -31.8940   23.2150 C   0  0  0  0  0  0  0  0  0  0  0  0
  -27.1360  -27.2990   20.1390 C   0  0  0  0  0  0  0  0  0  0  0  0
  -23.3530  -30.4910   21.6000 C   0  0  0  0  0  3  0  0  0  0  0  0
  -24.7730  -28.9260   20.1570 C   0  0  0  0  0  0  0  0  0  0  0  0
  -25.8880  -30.7960   21.3760 C   0  0  0  0  0  2  0  0  0  0  0  0
  -25.9500  -29.4130   20.7360 C   0  0  0  0  0  0  0  0  0  0  0  0
  -27.1300  -28.6090   20.7200 C   0  0  0  0  0  3  0  0  0  0  0  0
  -25.9280  -26.8620   19.5470 C   0  0  0  0  0  3  0  0  0  0  0  0
  -24.7650  -27.6590   19.5550 C   0  0  0  0  0  3  0  0  0  0  0  0
  -23.5420  -29.8080   20.2180 C   0  0  0  0  0  2  0  0  0  0  0  0
  -24.6280  -31.0780   22.1200 N   0  0  0  0  0  0  0  0  0  0  0  0
  -23.5120  -32.1800   23.7630 O   0  0  0  0  0  0  0  0  0  0  0  0
  -22.7010  -29.4830   22.5760 C   0  0  0  0  0  0  0  0  0  0  0  0
  -21.3740  -29.3030   22.4630 N   0  0  0  0  0  0  0  0  0  0  0  0
  -23.3870  -28.8660   23.3940 O   0  0  0  0  0  0  0  0  0  0  0  0
  -20.8780  -29.8500   21.7750 H   0  0  0  0  0  0  0  0  0  0  0  0
  -18.0070  -28.0900   22.9850 C   0  0  0  0  0  0  0  0  0  0  0  0
  -20.5630  -28.3700   23.2500 C   0  0  0  0  0  3  0  0  0  0  0  0
  -20.6740  -26.9320   22.6950 C   0  0  0  0  0  2  0  0  0  0  0  0
  -19.5740  -26.5860   21.6870 C   0  0  0  0  0  2  0  0  0  0  0  0
  -18.1920  -26.7320   22.3300 C   0  0  0  0  0  2  0  0  0  0  0  0
  -19.1200  -28.8670   23.4030 C   0  0  0  0  0  0  0  0  0  0  0  0
  -18.8930  -30.1370   23.9760 C   0  0  0  0  0  3  0  0  0  0  0  0
  -17.5850  -30.6300   24.1360 C   0  0  0  0  0  3  0  0  0  0  0  0
  -16.4860  -29.8510   23.7360 C   0  0  0  0  0  3  0  0  0  0  0  0
  -16.6960  -28.5830   23.1660 C   0  0  0  0  0  3  0  0  0  0  0  0
  -25.8800  -32.5250   23.8160 C   0  0  0  0  0  3  0  0  0  0  0  0
  -25.5720  -33.9190   24.1680 N   0  0  0  0  0  0  0  0  0  0  0  0
  -25.8860  -34.9820   23.4160 C   0  0  0  0  0  0  0  0  0  0  0  0
  -26.5350  -34.8940   22.3700 O   0  0  0  0  0  0  0  0  0  0  0  0
  -24.9920  -34.0620   24.9820 H   0  0  0  0  0  0  0  0  0  0  0  0
  -24.1460  -36.7750   23.1190 C   0  0  0  0  0  1  0  0  0  0  0  0
  -25.4040  -36.3630   23.9010 C   0  0  0  0  0  3  0  0  0  0  0  0
  -27.5540  -37.2410   24.7000 C   0  0  0  0  0  1  0  0  0  0  0  0
  -26.4330  -37.4200   23.7820 N   0  0  0  0  0  0  0  0  0  0  0  0
  -26.0270  -38.3380   23.9510 H   0  0  0  0  0  0  0  0  0  0  0  0
  -26.4260  -31.7430   25.0730 C   0  0  1  0  0  0  0  0  0  0  0  0
  -25.3560  -31.4890   26.1610 C   0  0  0  0  0  1  0  0  0  0  0  0
  -27.0040  -30.3720   24.6520 C   0  0  0  0  0  1  0  0  0  0  0  0
  -27.5900  -32.5330   25.7160 C   0  0  0  0  0  1  0  0  0  0  0  0
  2  1  1  0
  2  5  1  0
  3  2  1  0
  4  2  1  0
  5 10  1  0
  5  8  1  0
  6  8  1  0
  8  7  1  0
 10  9  2  0
 11  9  1  0
 12 17  1  0
 13 14  1  0
 13 12  1  0
 15 14  1  0
 15 22  1  0
 15 16  1  0
 17 11  1  0
 17 16  1  0
 18 11  2  0
 19 20  2  0
 20 39  1  0
 21 20  1  0
 21 24  1  0
 22 19  1  0
 22 23  1  0
 23 21  2  0
 24 25  1  0
 25 26  2  0
 27 30  1  0
 27 26  1  0
 28 27  2  0
 29 28  1  0
 29 24  2  0
 30 31  1  0
 31 32  1  0
 32 33  2  0
 34 33  1  0
 34 38  1  0
 35 34  2  0
 36 31  2  0
 36 35  1  0
 37 36  1  0
 39 40  1  0
 40 43  1  0
 40 42  1  0
 41 39  2  0
 44 45  1  0
 44 19  1  0
 46 44  1  0
 47 48  1  0
 47  1  2  0
 49 50  1  0
 49 48  2  0
 51 62  2  0
 52 50  1  0
 52 57  1  0
 53 61  1  0
 53 63  1  0
 54 60  1  0
 54 56  1  0
 55 61  1  0
 56 55  1  0
 57 56  2  0
 58 59  1  0
 58 52  2  0
 59 54  2  0
 60 53  1  0
 61 51  1  0
 63 65  2  0
 64 63  1  0
 66 64  1  0
 67 76  2  0
 67 72  1  0
 68 64  1  0
 68 72  1  0
 69 68  1  0
 70 71  1  0
 70 69  1  0
 71 67  1  0
 72 73  2  0
 73 74  1  0
 75 74  2  0
 76 75  1  0
 77 51  1  0
 77 78  1  0
 77 87  1  0
 78 81  1  0
 79 83  1  0
 79 78  1  0
 80 79  2  0
 83 82  1  0
 85 83  1  0
 85 86  1  0
 85 84  1  0
 87 90  1  1
 87 88  1  0
 89 87  1  0
M  ISO  4   9 100  11 100  49 101  50 101
M  END
>  <TORSDO>  (65) 
F 23

>  <SCORE>  (65) 
-12.057

>  <name>  (65) 
65

>  <ligand_id>  (65) 
65

>  <original_smiles>  (65) 
[H]C(C(=O)N1C([H])([H])C([H])([H])C([H])([H])C([H])(n2nc(-c3c([H])c([H])c(Oc4c([H])c([H])c(F)c([H])c4F)c([H])c3[H])c(C(=O)N([H])[H])c2N([H])[H])C1([H])[H])=C([H])C([H])(C([H])(C([H])([H])[H])C([H])([H])[H])[N+]([H])([H])C([H])([H])C([H])([H])C([H])([H])C([H])([H])Oc1c([H])c([H])c2c(c1[H])C([H])([H])N(C(=O)C([H])(N([H])C(=O)C([H])(N([H])C([H])([H])[H])C([H])([H])[H])C(C([H])([H])[H])(C([H])([H])[H])C([H])([H])[H])C([H])(C(=O)N([H])C1([H])c3c([H])c([H])c([H])c([H])c3C([H])([H])C([H])([H])C1([H])[H])C2([H])[H]

>  <smiles>  (65) 
[H]C(C(=O)N1C([H])([H])C([H])([H])C([H])([H])C([H])(n2nc(-c3c([H])c([H])c(Oc4c([H])c([H])c(F)c([H])c4F)c([H])c3[H])c(C(=O)N([H])[H])c2N([H])[H])C1([H])[H])=C([H])C([H])(C([H])(C([H])([H])[H])C([H])([H])[H])[N+]([H])([H])C([H])([H])C([H])([H])C([H])([H])C([H])([H])Oc1c([H])c([H])c2c(c1[H])C([H])([H])N(C(=O)C([H])(N([H])C(=O)C([H])(N([H])C([H])([H])[H])C([H])([H])[H])C(C([H])([H])[H])(C([H])([H])[H])C([H])([H])[H])C([H])(C(=O)N([H])C1([H])c3c([H])c([H])c([H])c([H])c3C([H])([H])C([H])([H])C1([H])[H])C2([H])[H]

$$$$
66:0:0
     RDKit          3D

 89 96  0  0  1  0  0  0  0  0999 V2000
  -29.0950  -19.8080   20.4740 C   0  0  0  0  0  0  0  0  0  0  0  0
  -27.6940  -19.4410   20.0000 C   0  0  0  0  0  1  0  0  0  0  0  0
  -29.4240  -21.0820   20.6150 N   0  0  0  0  0  0  0  0  0  0  0  0
  -29.9640  -18.5270   20.8660 C   0  0  0  0  0  0  0  0  0  0  0  0
  -30.6210  -18.5780   21.9120 O   0  0  0  0  0  0  0  0  0  0  0  0
  -29.5080  -17.2730   18.5380 C   0  0  0  0  0  1  0  0  0  0  0  0
  -30.1140  -17.1970   19.9580 C   0  0  0  0  0  0  0  0  0  0  0  0
  -30.6320  -14.6800   20.3480 C   0  0  0  0  0  0  0  0  0  0  0  0
  -30.3700  -12.4300   19.3390 C   0  0  0  0  0  2  0  0  0  0  0  0
  -29.4340  -12.5550   18.1160 C   0  0  0  0  0  2  0  0  0  0  0  0
  -27.9610  -12.4140   18.5450 C   0  0  0  0  0  2  0  0  0  0  0  0
  -27.6060  -13.2880   19.7780 C   0  0  0  0  0  3  0  0  0  0  0  0
  -28.6670  -13.1630   20.8960 C   0  0  0  0  0  2  0  0  0  0  0  0
  -29.9770  -13.4750   20.3090 N   0  0  0  0  0  0  0  0  0  0  0  0
  -31.8010  -14.7690   19.9650 O   0  0  0  0  0  0  0  0  0  0  0  0
  -29.8840  -15.8150   20.5620 N   0  0  0  0  0  4  0  0  0  0  0  0
  -28.9610  -15.6550   20.9340 H   0  0  0  0  0  0  0  0  0  0  0  0
  -25.2200  -13.9000   20.5010 C   0  0  0  0  0  0  0  0  0  0  0  0
  -24.1490  -13.1360   20.8730 C   0  0  0  0  0  0  0  0  0  0  0  0
  -24.6020  -11.7800   20.8490 C   0  0  0  0  0  0  0  0  0  0  0  0
  -26.2580  -13.0120   20.2680 N   0  0  0  0  0  0  0  0  0  0  0  0
  -25.8940  -11.7330   20.5420 N   0  0  0  0  0  0  0  0  0  0  0  0
  -23.8660  -10.5260   21.0480 C   0  0  0  0  0  0  0  0  0  0  0  0
  -24.3070   -9.5490   21.9690 C   0  0  0  0  0  3  0  0  0  0  0  0
  -23.5720   -8.3580   22.1560 C   0  0  0  0  0  3  0  0  0  0  0  0
  -22.3820   -8.1350   21.4210 C   0  0  0  0  0  0  0  0  0  0  0  0
  -21.9610   -9.0990   20.4900 C   0  0  0  0  0  3  0  0  0  0  0  0
  -22.6950  -10.2830   20.3020 C   0  0  0  0  0  3  0  0  0  0  0  0
  -21.6180   -6.9980   21.5160 O   0  0  0  0  0  0  0  0  0  0  0  0
  -21.5990   -6.2380   22.6580 C   0  0  0  0  0  0  0  0  0  0  0  0
  -21.2390   -6.7830   23.9090 C   0  0  0  0  0  3  0  0  0  0  0  0
  -21.1630   -5.9520   25.0450 C   0  0  0  0  0  3  0  0  0  0  0  0
  -21.4380   -4.5760   24.9310 C   0  0  0  0  0  0  0  0  0  0  0  0
  -21.7910   -4.0300   23.6860 C   0  0  0  0  0  3  0  0  0  0  0  0
  -21.8680   -4.8590   22.5520 C   0  0  0  0  0  0  0  0  0  0  0  0
  -22.1890   -4.3230   21.3490 F   0  0  0  0  0  0  0  0  0  0  0  0
  -21.3570   -3.7760   26.0200 F   0  0  0  0  0  0  0  0  0  0  0  0
  -22.7550  -13.6260   21.1420 C   0  0  0  0  0  0  0  0  0  0  0  0
  -22.0240  -12.9440   22.0160 N   0  0  0  0  0  0  0  0  0  0  0  0
  -22.3240  -14.6490   20.6120 O   0  0  0  0  0  0  0  0  0  0  0  0
  -22.3880  -12.1180   22.4690 H   0  0  0  0  0  0  0  0  0  0  0  0
  -21.0880  -13.2540   22.2390 H   0  0  0  0  0  0  0  0  0  0  0  0
  -25.3920  -15.2690   20.3150 N   0  0  0  0  0  0  0  0  0  0  0  0
  -24.6220  -15.9240   20.4090 H   0  0  0  0  0  0  0  0  0  0  0  0
  -26.2300  -15.6940   19.9430 H   0  0  0  0  0  0  0  0  0  0  0  0
  -28.4770  -22.2330   20.3430 C   0  0  0  0  0  2  0  0  0  0  0  0
  -29.1110  -23.7050   20.3000 C   0  0  0  0  0  3  0  0  0  0  0  0
  -28.1360  -24.9870   20.0710 C   0  0  0  0  0  3  0  0  0  0  0  0
  -28.3180  -26.4560   20.2350 O   0  0  0  0  0  0  0  0  0  0  0  0
  -24.6440  -31.8930   23.2530 C   0  0  0  0  0  0  0  0  0  0  0  0
  -27.1940  -27.3000   20.1900 C   0  0  0  0  0  0  0  0  0  0  0  0
  -23.4310  -30.4840   21.6510 C   0  0  0  0  0  3  0  0  0  0  0  0
  -24.8340  -28.9150   20.2050 C   0  0  0  0  0  0  0  0  0  0  0  0
  -25.9520  -30.7970   21.4120 C   0  0  0  0  0  2  0  0  0  0  0  0
  -26.0130  -29.4120   20.7740 C   0  0  0  0  0  0  0  0  0  0  0  0
  -27.1960  -28.6160   20.7530 C   0  0  0  0  0  3  0  0  0  0  0  0
  -25.9910  -26.8530   19.5980 C   0  0  0  0  0  3  0  0  0  0  0  0
  -24.8240  -27.6440   19.6070 C   0  0  0  0  0  3  0  0  0  0  0  0
  -23.6040  -29.7920   20.2730 C   0  0  0  0  0  2  0  0  0  0  0  0
  -24.6980  -31.0760   22.1620 N   0  0  0  0  0  0  0  0  0  0  0  0
  -23.5650  -32.1740   23.7970 O   0  0  0  0  0  0  0  0  0  0  0  0
  -22.7810  -29.4890   22.6380 C   0  0  0  0  0  0  0  0  0  0  0  0
  -21.4590  -29.4230   22.5150 N   0  0  0  0  0  0  0  0  0  0  0  0
  -23.4400  -28.8060   23.4230 O   0  0  0  0  0  0  0  0  0  0  0  0
  -21.0660  -30.1130   21.8890 H   0  0  0  0  0  0  0  0  0  0  0  0
  -18.0280  -28.0170   23.0070 C   0  0  0  0  0  0  0  0  0  0  0  0
  -20.5040  -28.4240   22.9230 C   0  0  0  0  0  3  0  0  0  0  0  0
  -20.7580  -26.9250   22.7320 C   0  0  0  0  0  2  0  0  0  0  0  0
  -19.6470  -26.3560   21.8250 C   0  0  0  0  0  2  0  0  0  0  0  0
  -18.2350  -26.6310   22.3890 C   0  0  0  0  0  2  0  0  0  0  0  0
  -19.1230  -28.8380   23.3690 C   0  0  0  0  0  0  0  0  0  0  0  0
  -18.9030  -30.1020   23.9500 C   0  0  0  0  0  3  0  0  0  0  0  0
  -17.5900  -30.5750   24.1280 C   0  0  0  0  0  3  0  0  0  0  0  0
  -16.4990  -29.7760   23.7400 C   0  0  0  0  0  3  0  0  0  0  0  0
  -16.7170  -28.4950   23.1960 C   0  0  0  0  0  3  0  0  0  0  0  0
  -25.9310  -32.5270   23.8540 C   0  0  0  0  0  3  0  0  0  0  0  0
  -25.6190  -33.9220   24.1930 N   0  0  0  0  0  0  0  0  0  0  0  0
  -25.9270  -34.9770   23.4280 C   0  0  0  0  0  0  0  0  0  0  0  0
  -26.5730  -34.8770   22.3800 O   0  0  0  0  0  0  0  0  0  0  0  0
  -25.0430  -34.0730   25.0080 H   0  0  0  0  0  0  0  0  0  0  0  0
  -24.1820  -36.7640   23.1180 C   0  0  0  0  0  1  0  0  0  0  0  0
  -25.4450  -36.3620   23.8980 C   0  0  0  0  0  3  0  0  0  0  0  0
  -27.5970  -37.2520   24.6740 C   0  0  0  0  0  1  0  0  0  0  0  0
  -26.4690  -37.4190   23.7620 N   0  0  0  0  0  0  0  0  0  0  0  0
  -26.0630  -38.3360   23.9250 H   0  0  0  0  0  0  0  0  0  0  0  0
  -26.4660  -31.7510   25.1180 C   0  0  1  0  0  0  0  0  0  0  0  0
  -25.3920  -31.5110   26.2040 C   0  0  0  0  0  1  0  0  0  0  0  0
  -27.0420  -30.3740   24.7120 C   0  0  0  0  0  1  0  0  0  0  0  0
  -27.6270  -32.5440   25.7620 C   0  0  0  0  0  1  0  0  0  0  0  0
  1  3  2  0
  1  4  1  0
  2  1  1  0
  4  5  2  0
  6  7  1  0
  7 16  2  3
  7  4  1  0
  8 16  1  0
  9 14  1  0
 10 11  1  0
 10  9  1  0
 12 11  1  0
 12 21  1  0
 12 13  1  0
 14  8  1  0
 14 13  1  0
 15  8  2  0
 16 17  1  0
 18 19  2  0
 19 38  1  0
 20 19  1  0
 20 23  1  0
 21 18  1  0
 21 22  1  0
 22 20  2  0
 23 24  1  0
 24 25  2  0
 26 29  1  0
 26 25  1  0
 27 26  2  0
 28 27  1  0
 28 23  2  0
 29 30  1  0
 30 31  1  0
 31 32  2  0
 33 32  1  0
 33 37  1  0
 34 33  2  0
 35 30  2  0
 35 34  1  0
 36 35  1  0
 38 39  1  0
 39 42  1  0
 39 41  1  0
 40 38  2  0
 43 44  1  0
 43 18  1  0
 45 43  1  0
 46  3  1  0
 47 46  1  0
 48 49  1  0
 48 47  2  0
 50 61  2  0
 51 49  1  0
 51 56  1  0
 52 60  1  0
 52 62  1  0
 53 59  1  0
 53 55  1  0
 54 60  1  0
 55 54  1  0
 56 55  2  0
 57 58  1  0
 57 51  2  0
 58 53  2  0
 59 52  1  0
 60 50  1  0
 62 64  2  0
 63 62  1  0
 65 63  1  0
 66 75  2  0
 66 71  1  0
 67 63  1  0
 67 71  1  0
 68 67  1  0
 69 70  1  0
 69 68  1  0
 70 66  1  0
 71 72  2  0
 72 73  1  0
 74 73  2  0
 75 74  1  0
 76 50  1  0
 76 77  1  0
 76 86  1  0
 77 80  1  0
 78 82  1  0
 78 77  1  0
 79 78  2  0
 82 81  1  0
 84 82  1  0
 84 85  1  0
 84 83  1  0
 86 89  1  1
 86 87  1  0
 88 86  1  0
M  ISO  4   8 100  16 100  48 101  49 101
M  END
>  <TORSDO>  (66) 
F 21

>  <SCORE>  (66) 
-13.250

>  <name>  (66) 
66

>  <ligand_id>  (66) 
66

>  <original_smiles>  (66) 
[H]c1c([H])c([H])c2c(c1[H])C([H])([H])C([H])([H])C([H])([H])C2([H])N([H])C(=O)C1([H])N(C(=O)C([H])(N([H])C(=O)C([H])(N([H])C([H])([H])[H])C([H])([H])[H])C(C([H])([H])[H])(C([H])([H])[H])C([H])([H])[H])C([H])([H])c2c([H])c(OC([H])([H])C([H])([H])C([H])([H])N=C(C(=O)C([H])(N([H])C(=O)N3C([H])([H])C([H])([H])C([H])([H])C([H])(n4nc(-c5c([H])c([H])c(Oc6c([H])c([H])c(F)c([H])c6F)c([H])c5[H])c(C(=O)N([H])[H])c4N([H])[H])C3([H])[H])C([H])([H])[H])C([H])([H])[H])c([H])c([H])c2C1([H])[H]

>  <smiles>  (66) 
[H]c1c([H])c([H])c2c(c1[H])C([H])([H])C([H])([H])C([H])([H])C2([H])N([H])C(=O)C1([H])N(C(=O)C([H])(N([H])C(=O)C([H])(N([H])C([H])([H])[H])C([H])([H])[H])C(C([H])([H])[H])(C([H])([H])[H])C([H])([H])[H])C([H])([H])c2c([H])c(OC([H])([H])C([H])([H])C([H])([H])N=C(C(=O)C([H])(N([H])C(=O)N3C([H])([H])C([H])([H])C([H])([H])C([H])(n4nc(-c5c([H])c([H])c(Oc6c([H])c([H])c(F)c([H])c6F)c([H])c5[H])c(C(=O)N([H])[H])c4N([H])[H])C3([H])[H])C([H])([H])[H])C([H])([H])[H])c([H])c([H])c2C1([H])[H]

$$$$
67:0:0
     RDKit          3D

 89 96  0  0  1  0  0  0  0  0999 V2000
  -28.9830  -22.7300   20.1490 C   0  0  0  0  0  0  0  0  0  0  0  0
  -28.9060  -21.3000   19.6440 N   0  0  0  0  0  0  0  0  0  0  0  0
  -29.8570  -22.9190   21.0000 O   0  0  0  0  0  0  0  0  0  0  0  0
  -29.0600  -21.8080   17.1570 C   0  0  0  0  0  1  0  0  0  0  0  0
  -28.2920  -21.1080   18.3060 C   0  0  0  0  0  3  0  0  0  0  0  0
  -25.9910  -20.7020   17.3850 C   0  0  0  0  0  2  0  0  0  0  0  0
  -26.7930  -21.3550   18.2450 C   0  0  0  0  0  3  0  0  0  0  0  0
  -29.7000  -19.8280   20.0040 C   0  0  0  0  0  2  0  0  0  0  0  0
  -29.4100  -16.6910   20.0770 C   0  0  0  0  0  3  0  0  0  0  0  0
  -29.1160  -18.1690   20.1320 C   0  0  0  0  0  0  0  0  0  0  0  0
  -27.6560  -18.4080   20.5230 C   0  0  0  0  0  1  0  0  0  0  0  0
  -30.4060  -15.4020   19.9060 C   0  0  0  0  0  0  0  0  0  0  0  0
  -30.4900  -12.8830   19.2220 C   0  0  0  0  0  2  0  0  0  0  0  0
  -29.5480  -12.5860   18.0250 C   0  0  0  0  0  2  0  0  0  0  0  0
  -28.1070  -12.3080   18.4960 C   0  0  0  0  0  2  0  0  0  0  0  0
  -27.6620  -13.3180   19.5840 C   0  0  0  0  0  3  0  0  0  0  0  0
  -28.7340  -13.5230   20.6770 C   0  0  0  0  0  2  0  0  0  0  0  0
  -29.9380  -14.0510   20.0030 N   0  0  0  0  0  0  0  0  0  0  0  0
  -31.6090  -15.4470   19.6000 O   0  0  0  0  0  0  0  0  0  0  0  0
  -25.3320  -13.8970   20.4330 C   0  0  0  0  0  0  0  0  0  0  0  0
  -24.2740  -13.1300   20.8320 C   0  0  0  0  0  0  0  0  0  0  0  0
  -24.7170  -11.7740   20.7600 C   0  0  0  0  0  0  0  0  0  0  0  0
  -26.3490  -13.0090   20.1340 N   0  0  0  0  0  0  0  0  0  0  0  0
  -25.9930  -11.7240   20.3930 N   0  0  0  0  0  0  0  0  0  0  0  0
  -23.9780  -10.5220   20.9580 C   0  0  0  0  0  0  0  0  0  0  0  0
  -24.4020   -9.5510   21.8900 C   0  0  0  0  0  3  0  0  0  0  0  0
  -23.6610   -8.3630   22.0740 C   0  0  0  0  0  3  0  0  0  0  0  0
  -22.4790   -8.1380   21.3300 C   0  0  0  0  0  0  0  0  0  0  0  0
  -22.0760   -9.0990   20.3850 C   0  0  0  0  0  3  0  0  0  0  0  0
  -22.8160  -10.2780   20.1980 C   0  0  0  0  0  3  0  0  0  0  0  0
  -21.7100   -7.0040   21.4260 O   0  0  0  0  0  0  0  0  0  0  0  0
  -21.6280   -6.2850   22.5930 C   0  0  0  0  0  0  0  0  0  0  0  0
  -21.1680   -6.8630   23.7960 C   0  0  0  0  0  3  0  0  0  0  0  0
  -21.0340   -6.0680   24.9530 C   0  0  0  0  0  3  0  0  0  0  0  0
  -21.3470   -4.6960   24.9070 C   0  0  0  0  0  0  0  0  0  0  0  0
  -21.8000   -4.1180   23.7080 C   0  0  0  0  0  3  0  0  0  0  0  0
  -21.9350   -4.9090   22.5530 C   0  0  0  0  0  0  0  0  0  0  0  0
  -22.3470   -4.3400   21.3960 F   0  0  0  0  0  0  0  0  0  0  0  0
  -21.2130   -3.9300   26.0160 F   0  0  0  0  0  0  0  0  0  0  0  0
  -22.8950  -13.6220   21.1610 C   0  0  0  0  0  0  0  0  0  0  0  0
  -22.1900  -12.9280   22.0460 N   0  0  0  0  0  0  0  0  0  0  0  0
  -22.4540  -14.6560   20.6620 O   0  0  0  0  0  0  0  0  0  0  0  0
  -22.5530  -12.0840   22.4670 H   0  0  0  0  0  0  0  0  0  0  0  0
  -21.2640  -13.2410   22.3080 H   0  0  0  0  0  0  0  0  0  0  0  0
  -25.5020  -15.2680   20.2720 N   0  0  0  0  0  0  0  0  0  0  0  0
  -24.7390  -15.9140   20.4360 H   0  0  0  0  0  0  0  0  0  0  0  0
  -26.3270  -15.7170   19.8940 H   0  0  0  0  0  0  0  0  0  0  0  0
  -28.0490  -24.2150   19.7810 C   0  0  0  0  0  2  0  0  0  0  0  0
  -28.2700  -25.8180   20.2280 O   0  0  0  0  0  0  0  0  0  0  0  0
  -24.6650  -31.8190   23.2450 C   0  0  0  0  0  0  0  0  0  0  0  0
  -27.2730  -26.9490   20.1760 C   0  0  0  0  0  0  0  0  0  0  0  0
  -23.4950  -30.4460   21.5710 C   0  0  0  0  0  3  0  0  0  0  0  0
  -24.9670  -28.8530   20.1420 C   0  0  0  0  0  0  0  0  0  0  0  0
  -26.0660  -30.6490   21.4640 C   0  0  0  0  0  2  0  0  0  0  0  0
  -26.1510  -29.2430   20.7840 C   0  0  0  0  0  0  0  0  0  0  0  0
  -27.2970  -28.3150   20.7680 C   0  0  0  0  0  3  0  0  0  0  0  0
  -26.0540  -26.7210   19.4960 C   0  0  0  0  0  3  0  0  0  0  0  0
  -24.9490  -27.6140   19.4790 C   0  0  0  0  0  3  0  0  0  0  0  0
  -23.7430  -29.7740   20.1900 C   0  0  0  0  0  2  0  0  0  0  0  0
  -24.7650  -30.9940   22.1500 N   0  0  0  0  0  0  0  0  0  0  0  0
  -23.5640  -32.1050   23.7520 O   0  0  0  0  0  0  0  0  0  0  0  0
  -22.7790  -29.4420   22.5140 C   0  0  0  0  0  0  0  0  0  0  0  0
  -21.4490  -29.2890   22.3720 N   0  0  0  0  0  0  0  0  0  0  0  0
  -23.4300  -28.8020   23.3430 O   0  0  0  0  0  0  0  0  0  0  0  0
  -20.9740  -29.8580   21.6870 H   0  0  0  0  0  0  0  0  0  0  0  0
  -18.0550  -28.0980   22.8520 C   0  0  0  0  0  0  0  0  0  0  0  0
  -20.6180  -28.3400   23.1190 C   0  0  0  0  0  3  0  0  0  0  0  0
  -20.7030  -26.9190   22.5120 C   0  0  0  0  0  2  0  0  0  0  0  0
  -19.5990  -26.6300   21.4890 C   0  0  0  0  0  2  0  0  0  0  0  0
  -18.2210  -26.7680   22.1380 C   0  0  0  0  0  2  0  0  0  0  0  0
  -19.1780  -28.8440   23.3000 C   0  0  0  0  0  0  0  0  0  0  0  0
  -18.9670  -30.0900   23.9300 C   0  0  0  0  0  3  0  0  0  0  0  0
  -17.6640  -30.5890   24.1160 C   0  0  0  0  0  3  0  0  0  0  0  0
  -16.5550  -29.8400   23.6840 C   0  0  0  0  0  3  0  0  0  0  0  0
  -16.7500  -28.5970   23.0560 C   0  0  0  0  0  3  0  0  0  0  0  0
  -25.9220  -32.4580   23.9080 C   0  0  0  0  0  3  0  0  0  0  0  0
  -25.6110  -33.8650   24.2170 N   0  0  0  0  0  0  0  0  0  0  0  0
  -25.9550  -34.9160   23.4580 C   0  0  0  0  0  0  0  0  0  0  0  0
  -26.6300  -34.8010   22.4340 O   0  0  0  0  0  0  0  0  0  0  0  0
  -25.0130  -34.0280   25.0130 H   0  0  0  0  0  0  0  0  0  0  0  0
  -24.2370  -36.7250   23.0970 C   0  0  0  0  0  1  0  0  0  0  0  0
  -25.4760  -36.3140   23.9060 C   0  0  0  0  0  3  0  0  0  0  0  0
  -27.6160  -37.2040   24.7250 C   0  0  0  0  0  1  0  0  0  0  0  0
  -26.5150  -37.3610   23.7800 N   0  0  0  0  0  0  0  0  0  0  0  0
  -26.1100  -38.2840   23.9140 H   0  0  0  0  0  0  0  0  0  0  0  0
  -26.3790  -31.7060   25.2210 C   0  0  1  0  0  0  0  0  0  0  0  0
  -25.2460  -31.5040   26.2540 C   0  0  0  0  0  1  0  0  0  0  0  0
  -26.9570  -30.3100   24.8860 C   0  0  0  0  0  1  0  0  0  0  0  0
  -27.5120  -32.4990   25.9120 C   0  0  0  0  0  1  0  0  0  0  0  0
  1  3  2  0
  2  8  1  0
  2  1  1  0
  5  4  1  0
  5  2  1  0
  6  7  2  0
  7  5  1  0
  8 10  1  0
  9 10  2  0
 10 11  1  0
 12 18  1  0
 12  9  1  0
 13 18  1  0
 14 15  1  0
 14 13  1  0
 16 15  1  0
 16 23  1  0
 16 17  1  0
 18 17  1  0
 19 12  2  0
 20 21  2  0
 21 40  1  0
 22 21  1  0
 22 25  1  0
 23 24  1  0
 23 20  1  0
 24 22  2  0
 25 26  1  0
 26 27  2  0
 28 31  1  0
 28 27  1  0
 29 28  2  0
 30 29  1  0
 30 25  2  0
 31 32  1  0
 32 33  1  0
 33 34  2  0
 35 34  1  0
 35 39  1  0
 36 35  2  0
 37 32  2  0
 37 36  1  0
 38 37  1  0
 40 41  1  0
 41 44  1  0
 41 43  1  0
 42 40  2  0
 45 20  1  0
 45 46  1  0
 47 45  1  0
 48  1  1  0
 48 49  1  0
 50 61  2  0
 51 49  1  0
 51 56  1  0
 52 60  1  0
 52 62  1  0
 53 59  1  0
 53 55  1  0
 54 60  1  0
 55 54  1  0
 56 55  2  0
 57 51  2  0
 58 57  1  0
 58 53  2  0
 59 52  1  0
 60 50  1  0
 62 64  2  0
 63 62  1  0
 65 63  1  0
 66 75  2  0
 66 71  1  0
 67 63  1  0
 67 71  1  0
 68 67  1  0
 69 70  1  0
 69 68  1  0
 70 66  1  0
 71 72  2  0
 72 73  1  0
 74 73  2  0
 75 74  1  0
 76 50  1  0
 76 77  1  0
 76 86  1  0
 77 80  1  0
 78 82  1  0
 78 77  1  0
 79 78  2  0
 82 81  1  0
 84 82  1  0
 84 85  1  0
 84 83  1  0
 86 89  1  1
 86 87  1  0
 88 86  1  0
M  ISO  4   9 100  12 100  48 101  49 101
M  END
>  <TORSDO>  (67) 
F 21

>  <SCORE>  (67) 
-15.154

>  <name>  (67) 
67

>  <ligand_id>  (67) 
67

>  <original_smiles>  (67) 
[H]C([H])=C([H])C([H])(N(C(=O)C([H])([H])Oc1c([H])c([H])c2c(c1[H])C([H])([H])N(C(=O)C([H])(N([H])C(=O)C([H])(N([H])C([H])([H])[H])C([H])([H])[H])C(C([H])([H])[H])(C([H])([H])[H])C([H])([H])[H])C([H])(C(=O)N([H])C1([H])c3c([H])c([H])c([H])c([H])c3C([H])([H])C([H])([H])C1([H])[H])C2([H])[H])C([H])([H])C(=C([H])C(=O)N1C([H])([H])C([H])([H])C([H])([H])C([H])(n2nc(-c3c([H])c([H])c(Oc4c([H])c([H])c(F)c([H])c4F)c([H])c3[H])c(C(=O)N([H])[H])c2N([H])[H])C1([H])[H])C([H])([H])[H])C([H])([H])[H]

>  <smiles>  (67) 
[H]C([H])=C([H])C([H])(N(C(=O)C([H])([H])Oc1c([H])c([H])c2c(c1[H])C([H])([H])N(C(=O)C([H])(N([H])C(=O)C([H])(N([H])C([H])([H])[H])C([H])([H])[H])C(C([H])([H])[H])(C([H])([H])[H])C([H])([H])[H])C([H])(C(=O)N([H])C1([H])c3c([H])c([H])c([H])c([H])c3C([H])([H])C([H])([H])C1([H])[H])C2([H])[H])C([H])([H])C(=C([H])C(=O)N1C([H])([H])C([H])([H])C([H])([H])C([H])(n2nc(-c3c([H])c([H])c(Oc4c([H])c([H])c(F)c([H])c4F)c([H])c3[H])c(C(=O)N([H])[H])c2N([H])[H])C1([H])[H])C([H])([H])[H])C([H])([H])[H]

$$$$
68:0:0
     RDKit          3D

 98105  0  0  1  0  0  0  0  0999 V2000
  -28.1590  -21.3240   22.0660 C   0  0  0  0  0  3  0  0  0  0  0  0
  -29.4690  -21.2820   21.7570 C   0  0  0  0  0  3  0  0  0  0  0  0
  -27.2640  -22.2650   21.4240 C   0  0  0  0  0  0  0  0  0  0  0  0
  -27.4940  -22.3740   20.1080 N   0  0  0  0  0  0  0  0  0  0  0  0
  -26.3740  -22.8870   22.0040 O   0  0  0  0  0  0  0  0  0  0  0  0
  -28.2230  -21.7970   19.7150 H   0  0  0  0  0  0  0  0  0  0  0  0
  -26.7370  -23.1850   19.1680 C   0  0  0  0  0  2  0  0  0  0  0  0
  -27.6610  -24.1490   18.4140 C   0  0  0  0  0  2  0  0  0  0  0  0
  -28.3410  -25.2040   19.3060 C   0  0  0  0  0  2  0  0  0  0  0  0
  -28.8660  -26.4040   18.4870 C   0  0  0  0  0  2  0  0  0  0  0  0
  -28.6670  -27.6540   19.1480 O   0  0  0  0  0  0  0  0  0  0  0  0
  -24.4170  -31.5630   23.2370 C   0  0  0  0  0  0  0  0  0  0  0  0
  -27.3900  -28.1620   19.2810 C   0  0  0  0  0  0  0  0  0  0  0  0
  -23.2870  -30.3300   21.4150 C   0  0  0  0  0  3  0  0  0  0  0  0
  -24.8220  -29.2850   19.6680 C   0  0  0  0  0  0  0  0  0  0  0  0
  -25.7260  -31.0610   21.1810 C   0  0  0  0  0  2  0  0  0  0  0  0
  -25.9370  -29.8470   20.3000 C   0  0  0  0  0  0  0  0  0  0  0  0
  -27.2140  -29.2850   20.1170 C   0  0  0  0  0  3  0  0  0  0  0  0
  -26.2530  -27.6130   18.6400 C   0  0  0  0  0  3  0  0  0  0  0  0
  -24.9720  -28.1610   18.8390 C   0  0  0  0  0  3  0  0  0  0  0  0
  -23.4880  -29.9440   19.9250 C   0  0  0  0  0  2  0  0  0  0  0  0
  -24.4980  -30.9900   22.0040 N   0  0  0  0  0  0  0  0  0  0  0  0
  -23.3470  -31.5870   23.8590 O   0  0  0  0  0  0  0  0  0  0  0  0
  -22.8350  -29.0740   22.1910 C   0  0  0  0  0  0  0  0  0  0  0  0
  -21.5630  -28.6860   22.0040 N   0  0  0  0  0  0  0  0  0  0  0  0
  -23.6200  -28.4590   22.9160 O   0  0  0  0  0  0  0  0  0  0  0  0
  -20.9860  -29.2380   21.3850 H   0  0  0  0  0  0  0  0  0  0  0  0
  -18.4990  -26.7760   22.1180 C   0  0  0  0  0  0  0  0  0  0  0  0
  -20.9270  -27.5150   22.6040 C   0  0  0  0  0  3  0  0  0  0  0  0
  -21.3620  -26.2180   21.8840 C   0  0  0  0  0  2  0  0  0  0  0  0
  -20.4030  -25.8090   20.7620 C   0  0  0  0  0  2  0  0  0  0  0  0
  -18.9930  -25.5840   21.3190 C   0  0  0  0  0  2  0  0  0  0  0  0
  -19.4080  -27.6920   22.7120 C   0  0  0  0  0  0  0  0  0  0  0  0
  -18.8980  -28.8010   23.4200 C   0  0  0  0  0  3  0  0  0  0  0  0
  -17.5110  -29.0020   23.5420 C   0  0  0  0  0  3  0  0  0  0  0  0
  -16.6150  -28.0850   22.9630 C   0  0  0  0  0  3  0  0  0  0  0  0
  -17.1110  -26.9740   22.2580 C   0  0  0  0  0  3  0  0  0  0  0  0
  -25.6520  -32.2360   23.9080 C   0  0  0  0  0  3  0  0  0  0  0  0
  -25.2970  -33.6340   24.1810 N   0  0  0  0  0  0  0  0  0  0  0  0
  -25.6790  -34.6760   23.4300 C   0  0  0  0  0  0  0  0  0  0  0  0
  -26.4340  -34.5600   22.4600 O   0  0  0  0  0  0  0  0  0  0  0  0
  -24.6340  -33.7970   24.9240 H   0  0  0  0  0  0  0  0  0  0  0  0
  -23.9630  -36.4340   22.8850 C   0  0  0  0  0  1  0  0  0  0  0  0
  -25.1320  -36.0640   23.8130 C   0  0  0  0  0  3  0  0  0  0  0  0
  -27.1770  -36.9880   24.8110 C   0  0  0  0  0  1  0  0  0  0  0  0
  -26.1540  -37.1330   23.7770 N   0  0  0  0  0  0  0  0  0  0  0  0
  -25.7250  -38.0480   23.8850 H   0  0  0  0  0  0  0  0  0  0  0  0
  -26.1200  -31.5050   25.2260 C   0  0  1  0  0  0  0  0  0  0  0  0
  -24.9770  -31.2570   26.2350 C   0  0  0  0  0  1  0  0  0  0  0  0
  -26.7560  -30.1350   24.8920 C   0  0  0  0  0  1  0  0  0  0  0  0
  -27.2140  -32.3400   25.9330 C   0  0  0  0  0  1  0  0  0  0  0  0
  -31.8530  -21.0040   22.5740 C   0  0  0  0  0  1  0  0  0  0  0  0
  -30.4760  -20.3380   22.3890 C   0  0  0  0  0  3  0  0  0  0  0  0
  -30.5260  -18.9930   21.7500 N   0  0  0  0  0  4  0  0  0  0  0  0
  -29.6280  -18.5650   21.9150 H   0  0  0  0  0  0  0  0  0  0  0  0
  -31.1830  -18.4380   22.2760 H   0  0  0  0  0  0  0  0  0  0  0  0
  -31.1630  -20.0010   19.4250 C   0  0  0  0  0  1  0  0  0  0  0  0
  -30.8560  -18.7680   20.3120 C   0  0  0  0  0  3  0  0  0  0  0  0
  -32.3270  -15.3640   19.8930 C   0  0  0  0  0  0  0  0  0  0  0  0
  -31.9450  -13.0680   19.0790 C   0  0  0  0  0  2  0  0  0  0  0  0
  -30.9360  -13.1050   17.9160 C   0  0  0  0  0  2  0  0  0  0  0  0
  -29.4890  -13.0450   18.4500 C   0  0  0  0  0  2  0  0  0  0  0  0
  -29.2240  -14.0630   19.5880 C   0  0  0  0  0  3  0  0  0  0  0  0
  -30.3420  -14.0040   20.6530 C   0  0  0  0  0  2  0  0  0  0  0  0
  -31.6370  -14.1980   19.9680 N   0  0  0  0  0  0  0  0  0  0  0  0
  -33.4430  -15.4440   19.3650 O   0  0  0  0  0  0  0  0  0  0  0  0
  -31.9900  -17.7360   20.2510 C   0  0  0  0  0  0  0  0  0  0  0  0
  -31.6160  -16.4430   20.2650 N   0  0  0  0  0  0  0  0  0  0  0  0
  -33.1560  -18.1380   20.2150 O   0  0  0  0  0  0  0  0  0  0  0  0
  -30.6500  -16.2380   20.4640 H   0  0  0  0  0  0  0  0  0  0  0  0
  -27.0020  -14.8190   20.6450 C   0  0  0  0  0  0  0  0  0  0  0  0
  -25.8890  -14.1210   21.0290 C   0  0  0  0  0  0  0  0  0  0  0  0
  -26.1730  -12.7470   20.7600 C   0  0  0  0  0  0  0  0  0  0  0  0
  -27.9010  -13.8730   20.1780 N   0  0  0  0  0  0  0  0  0  0  0  0
  -27.4120  -12.6150   20.3060 N   0  0  0  0  0  0  0  0  0  0  0  0
  -25.3190  -11.5570   20.8600 C   0  0  0  0  0  0  0  0  0  0  0  0
  -25.6740  -10.4600   21.6760 C   0  0  0  0  0  3  0  0  0  0  0  0
  -24.8300   -9.3320   21.7670 C   0  0  0  0  0  3  0  0  0  0  0  0
  -23.6150   -9.2960   21.0440 C   0  0  0  0  0  0  0  0  0  0  0  0
  -23.2780  -10.3800   20.2150 C   0  0  0  0  0  3  0  0  0  0  0  0
  -24.1210  -11.5000   20.1210 C   0  0  0  0  0  3  0  0  0  0  0  0
  -22.7450   -8.2320   21.0530 O   0  0  0  0  0  0  0  0  0  0  0  0
  -22.4710   -7.5390   22.2030 C   0  0  0  0  0  0  0  0  0  0  0  0
  -21.9260   -8.1720   23.3420 C   0  0  0  0  0  3  0  0  0  0  0  0
  -21.5890   -7.4080   24.4780 C   0  0  0  0  0  3  0  0  0  0  0  0
  -21.7890   -6.0150   24.4750 C   0  0  0  0  0  0  0  0  0  0  0  0
  -22.3260   -5.3830   23.3410 C   0  0  0  0  0  3  0  0  0  0  0  0
  -22.6620   -6.1430   22.2070 C   0  0  0  0  0  0  0  0  0  0  0  0
  -23.1600   -5.5260   21.1070 F   0  0  0  0  0  0  0  0  0  0  0  0
  -21.4600   -5.2780   25.5630 F   0  0  0  0  0  0  0  0  0  0  0  0
  -24.5940  -14.7000   21.5210 C   0  0  0  0  0  0  0  0  0  0  0  0
  -23.8760  -13.9650   22.3640 N   0  0  0  0  0  0  0  0  0  0  0  0
  -24.2330  -15.8320   21.1960 O   0  0  0  0  0  0  0  0  0  0  0  0
  -24.1820  -13.0430   22.6400 H   0  0  0  0  0  0  0  0  0  0  0  0
  -23.0100  -14.3270   22.7380 H   0  0  0  0  0  0  0  0  0  0  0  0
  -27.3180  -16.1740   20.6290 N   0  0  0  0  0  0  0  0  0  0  0  0
  -26.6120  -16.8720   20.8320 H   0  0  0  0  0  0  0  0  0  0  0  0
  -28.0950  -16.5490   20.0980 H   0  0  0  0  0  0  0  0  0  0  0  0
  2  1  2  0
  2 53  1  0
  3  5  2  0
  3  1  1  0
  4  3  1  0
  6  4  1  0
  7  4  1  0
  8  7  1  0
  8  9  1  0
 10 11  1  0
 10  9  1  0
 11 13  1  0
 12 23  2  0
 13 18  1  0
 14 22  1  0
 14 24  1  0
 15 21  1  0
 15 17  1  0
 16 22  1  0
 17 16  1  0
 18 17  2  0
 19 20  1  0
 19 13  2  0
 20 15  2  0
 21 14  1  0
 22 12  1  0
 24 26  2  0
 25 24  1  0
 27 25  1  0
 28 37  2  0
 28 33  1  0
 29 25  1  0
 29 33  1  0
 30 29  1  0
 31 32  1  0
 31 30  1  0
 32 28  1  0
 33 34  2  0
 34 35  1  0
 36 35  2  0
 37 36  1  0
 38 12  1  0
 38 39  1  0
 38 48  1  0
 39 42  1  0
 40 44  1  0
 40 39  1  0
 41 40  2  0
 44 43  1  0
 46 44  1  0
 46 47  1  0
 46 45  1  0
 48 51  1  1
 48 49  1  0
 50 48  1  0
 53 52  1  0
 54 55  1  0
 54 56  1  0
 54 53  1  0
 58 57  1  0
 58 54  1  0
 59 65  1  0
 59 68  1  0
 60 65  1  0
 61 62  1  0
 61 60  1  0
 63 62  1  0
 63 74  1  0
 63 64  1  0
 65 64  1  0
 66 59  2  0
 67 68  1  0
 67 58  1  0
 68 70  1  0
 69 67  2  0
 71 72  2  0
 72 91  1  0
 73 76  1  0
 73 72  1  0
 74 75  1  0
 74 71  1  0
 75 73  2  0
 76 77  1  0
 77 78  2  0
 79 82  1  0
 79 78  1  0
 80 79  2  0
 81 80  1  0
 81 76  2  0
 82 83  1  0
 83 88  2  0
 83 84  1  0
 84 85  2  0
 86 85  1  0
 86 90  1  0
 87 86  2  0
 88 87  1  0
 89 88  1  0
 91 92  1  0
 92 94  1  0
 92 95  1  0
 93 91  2  0
 96 71  1  0
 96 97  1  0
 98 96  1  0
M  ISO  4  10 101  11 101  59 100  68 100
M  END
>  <TORSDO>  (68) 
F 24

>  <SCORE>  (68) 
-7.545

>  <name>  (68) 
68

>  <ligand_id>  (68) 
68

>  <original_smiles>  (68) 
[H]C(C(=O)N([H])C([H])([H])C([H])([H])C([H])([H])C([H])([H])Oc1c([H])c([H])c2c(c1[H])C([H])([H])N(C(=O)C([H])(N([H])C(=O)C([H])(N([H])C([H])([H])[H])C([H])([H])[H])C(C([H])([H])[H])(C([H])([H])[H])C([H])([H])[H])C([H])(C(=O)N([H])C1([H])c3c([H])c([H])c([H])c([H])c3C([H])([H])C([H])([H])C1([H])[H])C2([H])[H])=C([H])C([H])(C([H])([H])[H])[N+]([H])([H])C([H])(C(=O)N([H])C(=O)N1C([H])([H])C([H])([H])C([H])([H])C([H])(n2nc(-c3c([H])c([H])c(Oc4c([H])c([H])c(F)c([H])c4F)c([H])c3[H])c(C(=O)N([H])[H])c2N([H])[H])C1([H])[H])C([H])([H])[H]

>  <smiles>  (68) 
[H]C(C(=O)N([H])C([H])([H])C([H])([H])C([H])([H])C([H])([H])Oc1c([H])c([H])c2c(c1[H])C([H])([H])N(C(=O)C([H])(N([H])C(=O)C([H])(N([H])C([H])([H])[H])C([H])([H])[H])C(C([H])([H])[H])(C([H])([H])[H])C([H])([H])[H])C([H])(C(=O)N([H])C1([H])c3c([H])c([H])c([H])c([H])c3C([H])([H])C([H])([H])C1([H])[H])C2([H])[H])=C([H])C([H])(C([H])([H])[H])[N+]([H])([H])C([H])(C(=O)N([H])C(=O)N1C([H])([H])C([H])([H])C([H])([H])C([H])(n2nc(-c3c([H])c([H])c(Oc4c([H])c([H])c(F)c([H])c4F)c([H])c3[H])c(C(=O)N([H])[H])c2N([H])[H])C1([H])[H])C([H])([H])[H]

$$$$
69:0:0
     RDKit          3D

 89 97  0  0  1  0  0  0  0  0999 V2000
  -29.3740  -19.0620   19.8740 C   0  0  0  0  0  0  0  0  0  0  0  0
  -29.3700  -20.3960   20.3880 N   0  0  0  0  0  0  0  0  0  0  0  0
  -28.7760  -18.8500   18.8180 O   0  0  0  0  0  0  0  0  0  0  0  0
  -29.9010  -20.4990   21.2440 H   0  0  0  0  0  0  0  0  0  0  0  0
  -30.5870  -15.0250   20.0100 C   0  0  0  0  0  0  0  0  0  0  0  0
  -30.4010  -12.7180   18.9380 C   0  0  0  0  0  2  0  0  0  0  0  0
  -29.3860  -12.7170   17.7700 C   0  0  0  0  0  2  0  0  0  0  0  0
  -27.9530  -12.4860   18.2840 C   0  0  0  0  0  2  0  0  0  0  0  0
  -27.6310  -13.3560   19.5260 C   0  0  0  0  0  3  0  0  0  0  0  0
  -28.7540  -13.2940   20.5790 C   0  0  0  0  0  2  0  0  0  0  0  0
  -29.9870  -13.7620   19.9240 N   0  0  0  0  0  0  0  0  0  0  0  0
  -31.6990  -15.1480   19.4830 O   0  0  0  0  0  0  0  0  0  0  0  0
  -30.6940  -17.1610   22.7470 C   0  0  0  0  0  2  0  0  0  0  0  0
  -31.1850  -18.0300   21.5920 C   0  0  0  0  0  2  0  0  0  0  0  0
  -30.0700  -15.9090   22.0780 C   0  0  0  0  0  2  0  0  0  0  0  0
  -30.0890  -17.7380   20.5840 C   0  0  0  0  0  3  0  0  0  0  0  0
  -29.9120  -16.1430   20.6010 N   0  0  0  0  0  0  0  0  0  0  0  0
  -25.3040  -13.9100   20.4350 C   0  0  0  0  0  0  0  0  0  0  0  0
  -24.2640  -13.1220   20.8470 C   0  0  0  0  0  0  0  0  0  0  0  0
  -24.7230  -11.7730   20.7420 C   0  0  0  0  0  0  0  0  0  0  0  0
  -26.3270  -13.0410   20.0970 N   0  0  0  0  0  0  0  0  0  0  0  0
  -25.9920  -11.7480   20.3460 N   0  0  0  0  0  0  0  0  0  0  0  0
  -24.0100  -10.5040   20.9390 C   0  0  0  0  0  0  0  0  0  0  0  0
  -24.4520   -9.5430   21.8740 C   0  0  0  0  0  3  0  0  0  0  0  0
  -23.7360   -8.3410   22.0570 C   0  0  0  0  0  3  0  0  0  0  0  0
  -22.5630   -8.0910   21.3050 C   0  0  0  0  0  0  0  0  0  0  0  0
  -22.1400   -9.0410   20.3600 C   0  0  0  0  0  3  0  0  0  0  0  0
  -22.8560  -10.2350   20.1740 C   0  0  0  0  0  3  0  0  0  0  0  0
  -21.8170   -6.9400   21.3980 O   0  0  0  0  0  0  0  0  0  0  0  0
  -21.7050   -6.2490   22.5780 C   0  0  0  0  0  0  0  0  0  0  0  0
  -21.1900   -6.8490   23.7470 C   0  0  0  0  0  3  0  0  0  0  0  0
  -21.0260   -6.0820   24.9180 C   0  0  0  0  0  3  0  0  0  0  0  0
  -21.3680   -4.7170   24.9200 C   0  0  0  0  0  0  0  0  0  0  0  0
  -21.8760   -4.1160   23.7550 C   0  0  0  0  0  3  0  0  0  0  0  0
  -22.0420   -4.8800   22.5870 C   0  0  0  0  0  0  0  0  0  0  0  0
  -22.5100   -4.2910   21.4610 F   0  0  0  0  0  0  0  0  0  0  0  0
  -21.2040   -3.9790   26.0440 F   0  0  0  0  0  0  0  0  0  0  0  0
  -22.8880  -13.5890   21.2240 C   0  0  0  0  0  0  0  0  0  0  0  0
  -22.2240  -12.8730   22.1250 N   0  0  0  0  0  0  0  0  0  0  0  0
  -22.4150  -14.6240   20.7570 O   0  0  0  0  0  0  0  0  0  0  0  0
  -22.6220  -12.0360   22.5240 H   0  0  0  0  0  0  0  0  0  0  0  0
  -21.3040  -13.1660   22.4190 H   0  0  0  0  0  0  0  0  0  0  0  0
  -25.4600  -15.2860   20.2970 N   0  0  0  0  0  0  0  0  0  0  0  0
  -24.7110  -15.9420   20.4890 H   0  0  0  0  0  0  0  0  0  0  0  0
  -26.3000  -15.7330   19.9510 H   0  0  0  0  0  0  0  0  0  0  0  0
  -28.6130  -21.7200   19.9410 C   0  0  0  0  0  2  0  0  0  0  0  0
  -28.8850  -23.3010   20.5000 C   0  0  0  0  0  3  0  0  0  0  0  0
  -27.9580  -24.6680   20.1000 C   0  0  0  0  0  3  0  0  0  0  0  0
  -28.1900  -26.1780   20.4450 O   0  0  0  0  0  0  0  0  0  0  0  0
  -24.5860  -31.9290   23.3480 C   0  0  0  0  0  0  0  0  0  0  0  0
  -27.1450  -27.1750   20.3520 C   0  0  0  0  0  0  0  0  0  0  0  0
  -23.3850  -30.5350   21.7090 C   0  0  0  0  0  3  0  0  0  0  0  0
  -24.8300  -28.9430   20.2980 C   0  0  0  0  0  0  0  0  0  0  0  0
  -25.9430  -30.7780   21.5600 C   0  0  0  0  0  2  0  0  0  0  0  0
  -26.0100  -29.3810   20.9130 C   0  0  0  0  0  0  0  0  0  0  0  0
  -27.1660  -28.5120   20.9240 C   0  0  0  0  0  3  0  0  0  0  0  0
  -25.9420  -26.8450   19.6900 C   0  0  0  0  0  3  0  0  0  0  0  0
  -24.8100  -27.6890   19.6710 C   0  0  0  0  0  3  0  0  0  0  0  0
  -23.6090  -29.8490   20.3340 C   0  0  0  0  0  2  0  0  0  0  0  0
  -24.6580  -31.1030   22.2600 N   0  0  0  0  0  0  0  0  0  0  0  0
  -23.4980  -32.2260   23.8670 O   0  0  0  0  0  0  0  0  0  0  0  0
  -22.6910  -29.5390   22.6710 C   0  0  0  0  0  0  0  0  0  0  0  0
  -21.3670  -29.3570   22.5180 N   0  0  0  0  0  0  0  0  0  0  0  0
  -23.3480  -28.9300   23.5200 O   0  0  0  0  0  0  0  0  0  0  0  0
  -20.8940  -29.8990   21.8080 H   0  0  0  0  0  0  0  0  0  0  0  0
  -17.9880  -28.1240   22.9450 C   0  0  0  0  0  0  0  0  0  0  0  0
  -20.5340  -28.4280   23.2850 C   0  0  0  0  0  3  0  0  0  0  0  0
  -20.6720  -26.9840   22.7490 C   0  0  0  0  0  2  0  0  0  0  0  0
  -19.6070  -26.6220   21.7090 C   0  0  0  0  0  2  0  0  0  0  0  0
  -18.2040  -26.7620   22.3060 C   0  0  0  0  0  2  0  0  0  0  0  0
  -19.0820  -28.9130   23.3910 C   0  0  0  0  0  0  0  0  0  0  0  0
  -18.8270  -30.1830   23.9480 C   0  0  0  0  0  3  0  0  0  0  0  0
  -17.5100  -30.6680   24.0650 C   0  0  0  0  0  3  0  0  0  0  0  0
  -16.4300  -29.8770   23.6350 C   0  0  0  0  0  3  0  0  0  0  0  0
  -16.6700  -28.6070   23.0810 C   0  0  0  0  0  3  0  0  0  0  0  0
  -25.8640  -32.5580   23.9810 C   0  0  0  0  0  3  0  0  0  0  0  0
  -26.3490  -31.8030   25.2810 C   0  0  1  0  0  0  0  0  0  0  0  0
  -25.2340  -31.5960   26.3320 C   0  0  0  0  0  1  0  0  0  0  0  0
  -26.9240  -30.4130   24.9270 C   0  0  0  0  0  1  0  0  0  0  0  0
  -27.4960  -32.5960   25.9500 C   0  0  0  0  0  1  0  0  0  0  0  0
  -25.5660  -33.9660   24.2890 N   0  0  0  0  0  0  0  0  0  0  0  0
  -25.9010  -35.0060   23.5130 C   0  0  0  0  0  0  0  0  0  0  0  0
  -26.5580  -34.8800   22.4770 O   0  0  0  0  0  0  0  0  0  0  0  0
  -24.9800  -34.1380   25.0920 H   0  0  0  0  0  0  0  0  0  0  0  0
  -24.1710  -36.8030   23.1720 C   0  0  0  0  0  1  0  0  0  0  0  0
  -25.4330  -36.4070   23.9560 C   0  0  0  0  0  3  0  0  0  0  0  0
  -27.5920  -37.3020   24.7110 C   0  0  0  0  0  1  0  0  0  0  0  0
  -26.4660  -37.4530   23.7920 N   0  0  0  0  0  0  0  0  0  0  0  0
  -26.0680  -38.3780   23.9280 H   0  0  0  0  0  0  0  0  0  0  0  0
  1  2  1  0
  2  4  1  0
  3  1  2  0
  5 17  1  0
  6 11  1  0
  7  8  1  0
  7  6  1  0
  9  8  1  0
  9 21  1  0
  9 10  1  0
 11  5  1  0
 11 10  1  0
 12  5  2  0
 14 13  1  0
 15 13  1  0
 16  1  1  0
 16 17  1  0
 16 14  1  0
 17 15  1  0
 18 19  2  0
 19 38  1  0
 20 19  1  0
 20 23  1  0
 21 22  1  0
 21 18  1  0
 22 20  2  0
 23 24  1  0
 24 25  2  0
 26 29  1  0
 26 25  1  0
 27 26  2  0
 28 27  1  0
 28 23  2  0
 29 30  1  0
 30 35  2  0
 30 31  1  0
 31 32  2  0
 32 33  1  0
 33 37  1  0
 34 33  2  0
 35 34  1  0
 36 35  1  0
 38 39  1  0
 39 42  1  0
 39 41  1  0
 40 38  2  0
 43 18  1  0
 43 44  1  0
 45 43  1  0
 46  2  1  0
 46 47  1  0
 48 49  1  0
 48 47  2  0
 50 61  2  0
 51 49  1  0
 51 56  1  0
 52 60  1  0
 52 62  1  0
 53 59  1  0
 53 55  1  0
 54 60  1  0
 55 56  2  0
 55 54  1  0
 57 51  2  0
 58 57  1  0
 58 53  2  0
 59 52  1  0
 60 50  1  0
 62 64  2  0
 63 62  1  0
 65 63  1  0
 66 75  2  0
 66 71  1  0
 67 63  1  0
 67 71  1  0
 68 67  1  0
 69 70  1  0
 69 68  1  0
 70 66  1  0
 71 72  2  0
 72 73  1  0
 74 73  2  0
 75 74  1  0
 76 50  1  0
 76 81  1  0
 76 77  1  0
 77 80  1  1
 77 78  1  0
 79 77  1  0
 81 84  1  0
 82 86  1  0
 82 81  1  0
 83 82  2  0
 86 85  1  0
 88 89  1  0
 88 86  1  0
 88 87  1  0
M  ISO  4   5 100  17 100  48 101  49 101
M  END
>  <TORSDO>  (69) 
F 19

>  <SCORE>  (69) 
-14.861

>  <name>  (69) 
69

>  <ligand_id>  (69) 
69

>  <original_smiles>  (69) 
[H]c1c([H])c([H])c2c(c1[H])C([H])([H])C([H])([H])C([H])([H])C2([H])N([H])C(=O)C1([H])N(C(=O)C([H])(N([H])C(=O)C([H])(N([H])C([H])([H])[H])C([H])([H])[H])C(C([H])([H])[H])(C([H])([H])[H])C([H])([H])[H])C([H])([H])c2c([H])c(OC([H])([H])C([H])([H])C([H])([H])N([H])C(=O)C3([H])N(C(=O)N4C([H])([H])C([H])([H])C([H])([H])C([H])(n5nc(-c6c([H])c([H])c(Oc7c([H])c([H])c(F)c([H])c7F)c([H])c6[H])c(C(=O)N([H])[H])c5N([H])[H])C4([H])[H])C([H])([H])C([H])([H])C3([H])[H])c([H])c([H])c2C1([H])[H]

>  <smiles>  (69) 
[H]c1c([H])c([H])c2c(c1[H])C([H])([H])C([H])([H])C([H])([H])C2([H])N([H])C(=O)C1([H])N(C(=O)C([H])(N([H])C(=O)C([H])(N([H])C([H])([H])[H])C([H])([H])[H])C(C([H])([H])[H])(C([H])([H])[H])C([H])([H])[H])C([H])([H])c2c([H])c(OC([H])([H])C([H])([H])C([H])([H])N([H])C(=O)C3([H])N(C(=O)N4C([H])([H])C([H])([H])C([H])([H])C([H])(n5nc(-c6c([H])c([H])c(Oc7c([H])c([H])c(F)c([H])c7F)c([H])c6[H])c(C(=O)N([H])[H])c5N([H])[H])C4([H])[H])C([H])([H])C([H])([H])C3([H])[H])c([H])c([H])c2C1([H])[H]

$$$$
70:0:0
     RDKit          3D

 98106  0  0  1  0  0  0  0  0999 V2000
  -29.5080  -20.8760   21.6600 C   0  0  0  0  0  3  0  0  0  0  0  0
  -28.1010  -21.2100   22.1360 C   0  0  0  0  0  1  0  0  0  0  0  0
  -29.8490  -19.6350   21.7340 N   0  0  0  0  0  2  0  0  0  0  0  0
  -30.2860  -22.0990   21.1790 C   0  0  0  0  0  0  0  0  0  0  0  0
  -29.6000  -22.8750   20.3240 N   0  0  0  0  0  0  0  0  0  0  0  0
  -31.4090  -22.3880   21.5980 O   0  0  0  0  0  0  0  0  0  0  0  0
  -28.6880  -22.5490   20.0360 H   0  0  0  0  0  0  0  0  0  0  0  0
  -30.1100  -24.1120   19.7140 C   0  0  0  0  0  2  0  0  0  0  0  0
  -30.0950  -25.3250   20.6710 C   0  0  0  0  0  2  0  0  0  0  0  0
  -28.7410  -26.0530   20.7740 C   0  0  0  0  0  2  0  0  0  0  0  0
  -28.6720  -27.1270   19.8300 O   0  0  0  0  0  0  0  0  0  0  0  0
  -24.6530  -31.9120   23.2160 C   0  0  0  0  0  0  0  0  0  0  0  0
  -27.4810  -27.8060   19.8770 C   0  0  0  0  0  0  0  0  0  0  0  0
  -23.4980  -30.5350   21.5170 C   0  0  0  0  0  3  0  0  0  0  0  0
  -25.0110  -29.1620   19.9880 C   0  0  0  0  0  0  0  0  0  0  0  0
  -25.9940  -31.0470   21.3040 C   0  0  0  0  0  2  0  0  0  0  0  0
  -26.1450  -29.7210   20.5890 C   0  0  0  0  0  0  0  0  0  0  0  0
  -27.3880  -29.0510   20.5300 C   0  0  0  0  0  3  0  0  0  0  0  0
  -26.3370  -27.2520   19.2670 C   0  0  0  0  0  3  0  0  0  0  0  0
  -25.1030  -27.9260   19.3210 C   0  0  0  0  0  3  0  0  0  0  0  0
  -23.7220  -29.9410   20.0990 C   0  0  0  0  0  2  0  0  0  0  0  0
  -24.7320  -31.1770   22.0710 N   0  0  0  0  0  0  0  0  0  0  0  0
  -23.5670  -32.0920   23.7860 O   0  0  0  0  0  0  0  0  0  0  0  0
  -22.9180  -29.4300   22.4300 C   0  0  0  0  0  0  0  0  0  0  0  0
  -21.6130  -29.1540   22.2780 N   0  0  0  0  0  0  0  0  0  0  0  0
  -23.6410  -28.8240   23.2270 O   0  0  0  0  0  0  0  0  0  0  0  0
  -21.0890  -29.6950   21.6050 H   0  0  0  0  0  0  0  0  0  0  0  0
  -18.3430  -27.6650   22.6540 C   0  0  0  0  0  0  0  0  0  0  0  0
  -20.8610  -28.1270   23.0000 C   0  0  0  0  0  3  0  0  0  0  0  0
  -21.1000  -26.7290   22.3820 C   0  0  0  0  0  2  0  0  0  0  0  0
  -20.0530  -26.3500   21.3320 C   0  0  0  0  0  2  0  0  0  0  0  0
  -18.6490  -26.3570   21.9440 C   0  0  0  0  0  2  0  0  0  0  0  0
  -19.3810  -28.5040   23.1360 C   0  0  0  0  0  0  0  0  0  0  0  0
  -19.0430  -29.7250   23.7560 C   0  0  0  0  0  3  0  0  0  0  0  0
  -17.6970  -30.1110   23.9010 C   0  0  0  0  0  3  0  0  0  0  0  0
  -16.6720  -29.2680   23.4380 C   0  0  0  0  0  3  0  0  0  0  0  0
  -16.9940  -28.0470   22.8200 C   0  0  0  0  0  3  0  0  0  0  0  0
  -25.9130  -32.5760   23.8530 C   0  0  0  0  0  3  0  0  0  0  0  0
  -25.5650  -33.9670   24.1740 N   0  0  0  0  0  0  0  0  0  0  0  0
  -25.8910  -35.0240   23.4190 C   0  0  0  0  0  0  0  0  0  0  0  0
  -26.5860  -34.9340   22.4010 O   0  0  0  0  0  0  0  0  0  0  0  0
  -24.9500  -34.1100   24.9600 H   0  0  0  0  0  0  0  0  0  0  0  0
  -24.1270  -36.7720   23.0230 C   0  0  0  0  0  1  0  0  0  0  0  0
  -25.3610  -36.4010   23.8610 C   0  0  0  0  0  3  0  0  0  0  0  0
  -27.4540  -37.3410   24.7350 C   0  0  0  0  0  1  0  0  0  0  0  0
  -26.3700  -37.4790   23.7650 N   0  0  0  0  0  0  0  0  0  0  0  0
  -25.9390  -38.3890   23.8990 H   0  0  0  0  0  0  0  0  0  0  0  0
  -26.4330  -31.8210   25.1380 C   0  0  1  0  0  0  0  0  0  0  0  0
  -25.3300  -31.5400   26.1830 C   0  0  0  0  0  1  0  0  0  0  0  0
  -27.0750  -30.4680   24.7520 C   0  0  0  0  0  1  0  0  0  0  0  0
  -27.5410  -32.6560   25.8210 C   0  0  0  0  0  1  0  0  0  0  0  0
  -30.9630  -18.9280   21.0750 C   0  0  0  0  0  3  0  0  0  0  0  0
  -29.8490  -18.9240   17.3970 C   0  0  0  0  0  3  0  0  0  0  0  0
  -29.3850  -17.6150   17.2140 C   0  0  0  0  0  3  0  0  0  0  0  0
  -30.4060  -19.2980   18.6350 C   0  0  0  0  0  3  0  0  0  0  0  0
  -29.5200  -16.6810   18.2500 C   0  0  0  0  0  3  0  0  0  0  0  0
  -30.4920  -18.3880   19.7170 C   0  0  0  0  0  0  0  0  0  0  0  0
  -30.0930  -17.0320   19.4970 C   0  0  0  0  0  0  0  0  0  0  0  0
  -31.0150  -14.9540   20.2870 C   0  0  0  0  0  0  0  0  0  0  0  0
  -30.8150  -12.7070   19.3270 C   0  0  0  0  0  2  0  0  0  0  0  0
  -29.8880  -12.7810   18.0960 C   0  0  0  0  0  2  0  0  0  0  0  0
  -28.4020  -12.6670   18.5040 C   0  0  0  0  0  2  0  0  0  0  0  0
  -28.0190  -13.5750   19.7040 C   0  0  0  0  0  3  0  0  0  0  0  0
  -29.0640  -13.4610   20.8370 C   0  0  0  0  0  2  0  0  0  0  0  0
  -30.3920  -13.7480   20.2700 N   0  0  0  0  0  0  0  0  0  0  0  0
  -32.1830  -15.1230   19.9260 O   0  0  0  0  0  0  0  0  0  0  0  0
  -30.1980  -16.0060   20.4810 N   0  0  0  0  0  0  0  0  0  0  0  0
  -29.3210  -15.7350   20.8990 H   0  0  0  0  0  0  0  0  0  0  0  0
  -25.6240  -14.1830   20.4160 C   0  0  0  0  0  0  0  0  0  0  0  0
  -24.5530  -13.4100   20.7780 C   0  0  0  0  0  0  0  0  0  0  0  0
  -25.0190  -12.0590   20.7460 C   0  0  0  0  0  0  0  0  0  0  0  0
  -26.6690  -13.3010   20.1840 N   0  0  0  0  0  0  0  0  0  0  0  0
  -26.3090  -12.0190   20.4380 N   0  0  0  0  0  0  0  0  0  0  0  0
  -24.2990  -10.7940   20.9350 C   0  0  0  0  0  0  0  0  0  0  0  0
  -24.6750   -9.8760   21.9400 C   0  0  0  0  0  3  0  0  0  0  0  0
  -23.9540   -8.6760   22.1140 C   0  0  0  0  0  3  0  0  0  0  0  0
  -22.8490   -8.3840   21.2810 C   0  0  0  0  0  0  0  0  0  0  0  0
  -22.4950   -9.2880   20.2640 C   0  0  0  0  0  3  0  0  0  0  0  0
  -23.2140  -10.4810   20.0910 C   0  0  0  0  0  3  0  0  0  0  0  0
  -22.1050   -7.2320   21.3600 O   0  0  0  0  0  0  0  0  0  0  0  0
  -21.8940   -6.5900   22.5550 C   0  0  0  0  0  0  0  0  0  0  0  0
  -21.2540   -7.2260   23.6400 C   0  0  0  0  0  3  0  0  0  0  0  0
  -20.9970   -6.5110   24.8280 C   0  0  0  0  0  3  0  0  0  0  0  0
  -21.3680   -5.1560   24.9260 C   0  0  0  0  0  0  0  0  0  0  0  0
  -22.0020   -4.5180   23.8440 C   0  0  0  0  0  3  0  0  0  0  0  0
  -22.2600   -5.2330   22.6620 C   0  0  0  0  0  0  0  0  0  0  0  0
  -22.8550   -4.6090   21.6180 F   0  0  0  0  0  0  0  0  0  0  0  0
  -21.1120   -4.4640   26.0610 F   0  0  0  0  0  0  0  0  0  0  0  0
  -23.1560  -13.8840   21.0520 C   0  0  0  0  0  0  0  0  0  0  0  0
  -22.4310  -13.1960   21.9250 N   0  0  0  0  0  0  0  0  0  0  0  0
  -22.7140  -14.9030   20.5210 O   0  0  0  0  0  0  0  0  0  0  0  0
  -22.8020  -12.3690   22.3710 H   0  0  0  0  0  0  0  0  0  0  0  0
  -21.4920  -13.4970   22.1470 H   0  0  0  0  0  0  0  0  0  0  0  0
  -25.7850  -15.5560   20.2520 N   0  0  0  0  0  0  0  0  0  0  0  0
  -25.0130  -16.2010   20.3870 H   0  0  0  0  0  0  0  0  0  0  0  0
  -26.6340  -16.0080   19.9370 H   0  0  0  0  0  0  0  0  0  0  0  0
  -33.4660  -18.7860   20.4870 C   0  0  0  0  0  1  0  0  0  0  0  0
  -32.3240  -19.6630   21.0200 C   0  0  0  0  0  2  0  0  0  0  0  0
  1  3  1  0
  1  2  1  0
  4  6  2  0
  4  1  1  0
  5  4  1  0
  7  5  1  0
  8  5  1  0
  8  9  1  0
  9 10  1  0
 11 13  1  0
 11 10  1  0
 12 23  2  0
 13 18  1  0
 14 22  1  0
 14 24  1  0
 15 21  1  0
 15 17  1  0
 16 22  1  0
 17 16  1  0
 18 17  2  0
 19 20  1  0
 19 13  2  0
 20 15  2  0
 21 14  1  0
 22 12  1  0
 24 26  2  0
 25 24  1  0
 27 25  1  0
 28 37  2  0
 28 33  1  0
 29 25  1  0
 29 33  1  0
 30 29  1  0
 31 32  1  0
 31 30  1  0
 32 28  1  0
 33 34  2  0
 34 35  1  0
 36 35  2  0
 37 36  1  0
 38 12  1  0
 38 39  1  0
 38 48  1  0
 39 42  1  0
 40 44  1  0
 40 39  1  0
 41 40  2  0
 44 43  1  0
 46 44  1  0
 46 47  1  0
 46 45  1  0
 48 51  1  1
 48 49  1  0
 50 48  1  0
 52 98  1  0
 52  3  1  0
 53 55  1  0
 54 53  2  0
 54 56  1  0
 55 57  2  0
 56 58  2  0
 57 52  1  0
 58 57  1  0
 58 67  1  0
 59 67  1  0
 60 65  1  0
 61 62  1  0
 61 60  1  0
 63 62  1  0
 63 72  1  0
 63 64  1  0
 65 59  1  0
 65 64  1  0
 66 59  2  0
 67 68  1  0
 69 70  2  0
 70 89  1  0
 71 70  1  0
 71 74  1  0
 72 69  1  0
 72 73  1  0
 73 71  2  0
 74 75  1  0
 75 76  2  0
 77 80  1  0
 77 76  1  0
 78 77  2  0
 79 78  1  0
 79 74  2  0
 80 81  1  0
 81 86  2  0
 81 82  1  0
 82 83  2  0
 83 84  1  0
 84 88  1  0
 85 84  2  0
 86 85  1  0
 87 86  1  0
 89 90  1  0
 90 93  1  0
 90 92  1  0
 91 89  2  0
 94 95  1  0
 94 69  1  0
 96 94  1  0
 97 98  1  0
M  ISO  4  10 101  11 101  59 100  67 100
M  END
>  <TORSDO>  (70) 
F 23

>  <SCORE>  (70) 
-10.422

>  <name>  (70) 
70

>  <ligand_id>  (70) 
70

>  <original_smiles>  (70) 
[H]c1c([H])c([H])c(C([H])(N=C(C(=O)N([H])C([H])([H])C([H])([H])C([H])([H])Oc2c([H])c([H])c3c(c2[H])C([H])([H])N(C(=O)C([H])(N([H])C(=O)C([H])(N([H])C([H])([H])[H])C([H])([H])[H])C(C([H])([H])[H])(C([H])([H])[H])C([H])([H])[H])C([H])(C(=O)N([H])C2([H])c4c([H])c([H])c([H])c([H])c4C([H])([H])C([H])([H])C2([H])[H])C3([H])[H])C([H])([H])[H])C([H])([H])C([H])([H])[H])c(N([H])C(=O)N2C([H])([H])C([H])([H])C([H])([H])C([H])(n3nc(-c4c([H])c([H])c(Oc5c([H])c([H])c(F)c([H])c5F)c([H])c4[H])c(C(=O)N([H])[H])c3N([H])[H])C2([H])[H])c1[H]

>  <smiles>  (70) 
[H]c1c([H])c([H])c(C([H])(N=C(C(=O)N([H])C([H])([H])C([H])([H])C([H])([H])Oc2c([H])c([H])c3c(c2[H])C([H])([H])N(C(=O)C([H])(N([H])C(=O)C([H])(N([H])C([H])([H])[H])C([H])([H])[H])C(C([H])([H])[H])(C([H])([H])[H])C([H])([H])[H])C([H])(C(=O)N([H])C2([H])c4c([H])c([H])c([H])c([H])c4C([H])([H])C([H])([H])C2([H])[H])C3([H])[H])C([H])([H])[H])C([H])([H])C([H])([H])[H])c(N([H])C(=O)N2C([H])([H])C([H])([H])C([H])([H])C([H])(n3nc(-c4c([H])c([H])c(Oc5c([H])c([H])c(F)c([H])c5F)c([H])c4[H])c(C(=O)N([H])[H])c3N([H])[H])C2([H])[H])c1[H]

$$$$
71:0:0
     RDKit          3D

 92100  0  0  1  0  0  0  0  0999 V2000
  -30.1160  -19.1750   20.1410 C   0  0  0  0  0  3  0  0  0  0  0  0
  -29.9380  -20.6300   20.2870 C   0  0  0  0  0  3  0  0  0  0  0  0
  -31.4910  -18.6620   19.6610 C   0  0  0  0  0  2  0  0  0  0  0  0
  -29.0540  -17.5420   18.4480 C   0  0  0  0  0  2  0  0  0  0  0  0
  -30.0840  -18.2930   17.5770 C   0  0  0  0  0  2  0  0  0  0  0  0
  -29.2730  -17.7470   19.9710 C   0  0  0  0  0  3  0  0  0  0  0  0
  -31.2720  -21.3500   20.5100 C   0  0  0  0  0  1  0  0  0  0  0  0
  -32.3150  -17.2330   17.7710 C   0  0  0  0  0  1  0  0  0  0  0  0
  -31.4430  -18.3520   18.1920 N   0  0  2  0  0  4  0  0  0  0  0  0
  -31.8650  -19.1610   17.7620 H   0  0  0  0  0  0  0  0  0  0  0  0
  -30.4270  -15.0860   20.3070 C   0  0  0  0  0  0  0  0  0  0  0  0
  -30.3590  -12.7100   19.3910 C   0  0  0  0  0  2  0  0  0  0  0  0
  -29.4400  -12.6800   18.1440 C   0  0  0  0  0  2  0  0  0  0  0  0
  -27.9690  -12.4640   18.5530 C   0  0  0  0  0  2  0  0  0  0  0  0
  -27.5570  -13.3540   19.7550 C   0  0  0  0  0  3  0  0  0  0  0  0
  -28.6070  -13.3550   20.8880 C   0  0  0  0  0  2  0  0  0  0  0  0
  -29.8750  -13.7980   20.2990 N   0  0  0  0  0  0  0  0  0  0  0  0
  -31.6040  -15.1670   19.9420 O   0  0  0  0  0  0  0  0  0  0  0  0
  -29.6150  -16.2570   20.5500 N   0  0  0  0  0  0  0  0  0  0  0  0
  -28.8260  -15.9450   21.0980 H   0  0  0  0  0  0  0  0  0  0  0  0
  -25.1720  -13.9170   20.4780 C   0  0  0  0  0  0  0  0  0  0  0  0
  -24.1090  -13.1410   20.8470 C   0  0  0  0  0  0  0  0  0  0  0  0
  -24.5770  -11.7900   20.8210 C   0  0  0  0  0  0  0  0  0  0  0  0
  -26.2180  -13.0410   20.2420 N   0  0  0  0  0  0  0  0  0  0  0  0
  -25.8700  -11.7550   20.5150 N   0  0  0  0  0  0  0  0  0  0  0  0
  -23.8470  -10.5280   21.0090 C   0  0  0  0  0  0  0  0  0  0  0  0
  -24.2750   -9.5630   21.9470 C   0  0  0  0  0  3  0  0  0  0  0  0
  -23.5500   -8.3640   22.1210 C   0  0  0  0  0  3  0  0  0  0  0  0
  -22.3800   -8.1250   21.3630 C   0  0  0  0  0  0  0  0  0  0  0  0
  -21.9720   -9.0800   20.4170 C   0  0  0  0  0  3  0  0  0  0  0  0
  -22.6970  -10.2700   20.2370 C   0  0  0  0  0  3  0  0  0  0  0  0
  -21.6230   -6.9830   21.4520 O   0  0  0  0  0  0  0  0  0  0  0  0
  -21.5670   -6.2430   22.6050 C   0  0  0  0  0  0  0  0  0  0  0  0
  -21.1300   -6.8000   23.8280 C   0  0  0  0  0  3  0  0  0  0  0  0
  -21.0200   -5.9880   24.9730 C   0  0  0  0  0  3  0  0  0  0  0  0
  -21.3350   -4.6160   24.8980 C   0  0  0  0  0  0  0  0  0  0  0  0
  -21.7650   -4.0600   23.6830 C   0  0  0  0  0  3  0  0  0  0  0  0
  -21.8770   -4.8710   22.5390 C   0  0  0  0  0  0  0  0  0  0  0  0
  -22.2700   -4.3220   21.3640 F   0  0  0  0  0  0  0  0  0  0  0  0
  -21.2230   -3.8330   25.9980 F   0  0  0  0  0  0  0  0  0  0  0  0
  -22.7080  -13.6170   21.1090 C   0  0  0  0  0  0  0  0  0  0  0  0
  -21.9730  -12.9260   21.9720 N   0  0  0  0  0  0  0  0  0  0  0  0
  -22.2730  -14.6400   20.5800 O   0  0  0  0  0  0  0  0  0  0  0  0
  -22.3350  -12.0990   22.4240 H   0  0  0  0  0  0  0  0  0  0  0  0
  -21.0320  -13.2270   22.1870 H   0  0  0  0  0  0  0  0  0  0  0  0
  -25.3370  -15.2860   20.2960 N   0  0  0  0  0  0  0  0  0  0  0  0
  -24.5700  -15.9400   20.4020 H   0  0  0  0  0  0  0  0  0  0  0  0
  -26.1720  -15.7150   19.9170 H   0  0  0  0  0  0  0  0  0  0  0  0
  -28.7880  -21.7360   20.3060 C   0  0  0  0  0  3  0  0  0  0  0  0
  -28.8840  -23.1870   20.2130 C   0  0  0  0  0  3  0  0  0  0  0  0
  -27.8270  -24.4930   20.1790 C   0  0  0  0  0  2  0  0  0  0  0  0
  -28.1730  -26.0480   20.2990 O   0  0  0  0  0  0  0  0  0  0  0  0
  -24.6250  -31.9240   23.2450 C   0  0  0  0  0  0  0  0  0  0  0  0
  -27.1560  -27.1010   20.2430 C   0  0  0  0  0  0  0  0  0  0  0  0
  -23.4210  -30.5270   21.6140 C   0  0  0  0  0  3  0  0  0  0  0  0
  -24.8580  -28.9240   20.2020 C   0  0  0  0  0  0  0  0  0  0  0  0
  -25.9830  -30.7480   21.4590 C   0  0  0  0  0  2  0  0  0  0  0  0
  -26.0470  -29.3440   20.8120 C   0  0  0  0  0  0  0  0  0  0  0  0
  -27.1960  -28.4530   20.8090 C   0  0  0  0  0  3  0  0  0  0  0  0
  -25.9380  -26.8070   19.5930 C   0  0  0  0  0  3  0  0  0  0  0  0
  -24.8210  -27.6700   19.5780 C   0  0  0  0  0  3  0  0  0  0  0  0
  -23.6450  -29.8430   20.2400 C   0  0  0  0  0  2  0  0  0  0  0  0
  -24.6980  -31.0900   22.1600 N   0  0  0  0  0  0  0  0  0  0  0  0
  -23.5380  -32.2220   23.7660 O   0  0  0  0  0  0  0  0  0  0  0  0
  -22.7290  -29.5330   22.5810 C   0  0  0  0  0  0  0  0  0  0  0  0
  -21.4000  -29.3630   22.4500 N   0  0  0  0  0  0  0  0  0  0  0  0
  -23.3910  -28.9120   23.4160 O   0  0  0  0  0  0  0  0  0  0  0  0
  -20.9180  -29.9170   21.7560 H   0  0  0  0  0  0  0  0  0  0  0  0
  -18.0170  -28.1590   22.9420 C   0  0  0  0  0  0  0  0  0  0  0  0
  -20.5730  -28.4350   23.2270 C   0  0  0  0  0  3  0  0  0  0  0  0
  -20.6830  -26.9950   22.6760 C   0  0  0  0  0  2  0  0  0  0  0  0
  -19.5930  -26.6520   21.6550 C   0  0  0  0  0  2  0  0  0  0  0  0
  -18.2060  -26.8010   22.2850 C   0  0  0  0  0  2  0  0  0  0  0  0
  -19.1280  -28.9320   23.3690 C   0  0  0  0  0  0  0  0  0  0  0  0
  -18.8990  -30.1990   23.9480 C   0  0  0  0  0  3  0  0  0  0  0  0
  -17.5910  -30.6950   24.0990 C   0  0  0  0  0  3  0  0  0  0  0  0
  -16.4930  -29.9210   23.6830 C   0  0  0  0  0  3  0  0  0  0  0  0
  -16.7080  -28.6530   23.1120 C   0  0  0  0  0  3  0  0  0  0  0  0
  -25.9030  -32.5600   23.8710 C   0  0  0  0  0  3  0  0  0  0  0  0
  -25.5910  -33.9600   24.2050 N   0  0  0  0  0  0  0  0  0  0  0  0
  -25.9080  -35.0170   23.4450 C   0  0  0  0  0  0  0  0  0  0  0  0
  -26.5590  -34.9170   22.4010 O   0  0  0  0  0  0  0  0  0  0  0  0
  -25.0110  -34.1110   25.0170 H   0  0  0  0  0  0  0  0  0  0  0  0
  -24.1650  -36.8080   23.1400 C   0  0  0  0  0  1  0  0  0  0  0  0
  -25.4300  -36.4050   23.9160 C   0  0  0  0  0  3  0  0  0  0  0  0
  -27.5830  -37.3030   24.6860 C   0  0  0  0  0  1  0  0  0  0  0  0
  -26.4550  -37.4630   23.7730 N   0  0  0  0  0  0  0  0  0  0  0  0
  -26.0480  -38.3820   23.9290 H   0  0  0  0  0  0  0  0  0  0  0  0
  -26.4110  -31.7920   25.1530 C   0  0  1  0  0  0  0  0  0  0  0  0
  -25.3140  -31.5600   26.2190 C   0  0  0  0  0  1  0  0  0  0  0  0
  -26.9910  -30.4110   24.7730 C   0  0  0  0  0  1  0  0  0  0  0  0
  -27.5660  -32.5830   25.8140 C   0  0  0  0  0  1  0  0  0  0  0  0
  1  2  1  0
  2 49  1  0
  2  7  1  0
  3  1  1  0
  4  6  1  0
  5  9  1  0
  5  4  1  0
  6  1  1  0
  6 19  1  0
  8  9  1  0
  9  3  1  0
  9 10  1  6
 11 19  1  0
 12 17  1  0
 13 14  1  0
 13 12  1  0
 15 14  1  0
 15 24  1  0
 15 16  1  0
 17 11  1  0
 17 16  1  0
 18 11  2  0
 19 20  1  0
 21 22  2  0
 22 41  1  0
 23 22  1  0
 23 26  1  0
 24 21  1  0
 24 25  1  0
 25 23  2  0
 26 27  1  0
 27 28  2  0
 29 32  1  0
 29 28  1  0
 30 29  2  0
 31 30  1  0
 31 26  2  0
 32 33  1  0
 33 34  1  0
 34 35  2  0
 36 35  1  0
 36 40  1  0
 37 36  2  0
 38 33  2  0
 38 37  1  0
 39 38  1  0
 41 42  1  0
 42 45  1  0
 42 44  1  0
 43 41  2  0
 46 47  1  0
 46 21  1  0
 48 46  1  0
 50 49  2  0
 51 50  1  0
 51 52  1  0
 53 64  2  0
 54 52  1  0
 54 59  1  0
 55 63  1  0
 55 65  1  0
 56 62  1  0
 56 58  1  0
 57 63  1  0
 58 57  1  0
 59 58  2  0
 60 54  2  0
 61 60  1  0
 61 56  2  0
 62 55  1  0
 63 53  1  0
 65 67  2  0
 66 65  1  0
 68 66  1  0
 69 78  2  0
 69 74  1  0
 70 66  1  0
 70 74  1  0
 71 70  1  0
 72 73  1  0
 72 71  1  0
 73 69  1  0
 74 75  2  0
 75 76  1  0
 77 76  2  0
 78 77  1  0
 79 53  1  0
 79 80  1  0
 79 89  1  0
 80 83  1  0
 81 85  1  0
 81 80  1  0
 82 81  2  0
 85 84  1  0
 87 85  1  0
 87 88  1  0
 87 86  1  0
 89 92  1  1
 89 90  1  0
 91 89  1  0
M  ISO  4  11 100  19 100  51 101  52 101
M  END
>  <TORSDO>  (71) 
F 18

>  <SCORE>  (71) 
-14.658

>  <name>  (71) 
71

>  <ligand_id>  (71) 
71

>  <original_smiles>  (71) 
[H]C(C(=C1C([H])(N([H])C(=O)N2C([H])([H])C([H])([H])C([H])([H])C([H])(n3nc(-c4c([H])c([H])c(Oc5c([H])c([H])c(F)c([H])c5F)c([H])c4[H])c(C(=O)N([H])[H])c3N([H])[H])C2([H])[H])C([H])([H])C([H])([H])[N+]([H])(C([H])([H])[H])C1([H])[H])C([H])([H])[H])=C([H])C([H])([H])Oc1c([H])c([H])c2c(c1[H])C([H])([H])N(C(=O)C([H])(N([H])C(=O)C([H])(N([H])C([H])([H])[H])C([H])([H])[H])C(C([H])([H])[H])(C([H])([H])[H])C([H])([H])[H])C([H])(C(=O)N([H])C1([H])c3c([H])c([H])c([H])c([H])c3C([H])([H])C([H])([H])C1([H])[H])C2([H])[H]

>  <smiles>  (71) 
[H]C(C(=C1C([H])(N([H])C(=O)N2C([H])([H])C([H])([H])C([H])([H])C([H])(n3nc(-c4c([H])c([H])c(Oc5c([H])c([H])c(F)c([H])c5F)c([H])c4[H])c(C(=O)N([H])[H])c3N([H])[H])C2([H])[H])C([H])([H])C([H])([H])[N+]([H])(C([H])([H])[H])C1([H])[H])C([H])([H])[H])=C([H])C([H])([H])Oc1c([H])c([H])c2c(c1[H])C([H])([H])N(C(=O)C([H])(N([H])C(=O)C([H])(N([H])C([H])([H])[H])C([H])([H])[H])C(C([H])([H])[H])(C([H])([H])[H])C([H])([H])[H])C([H])(C(=O)N([H])C1([H])c3c([H])c([H])c([H])c([H])c3C([H])([H])C([H])([H])C1([H])[H])C2([H])[H]

$$$$
72:0:0
     RDKit          3D

 93102  0  0  1  0  0  0  0  0999 V2000
  -27.5630  -20.6830   20.5400 C   0  0  0  0  0  2  0  0  0  0  0  0
  -27.3160  -21.8080   19.5080 C   0  0  0  0  0  2  0  0  0  0  0  0
  -29.6500  -21.5330   18.6350 C   0  0  0  0  0  2  0  0  0  0  0  0
  -28.4730  -19.5860   19.9800 C   0  0  0  0  0  3  0  0  0  0  0  0
  -29.3690  -19.9680   18.8060 C   0  0  0  0  0  3  0  0  0  0  0  0
  -30.3760  -18.8390   19.3450 C   0  0  0  0  0  3  0  0  0  0  0  0
  -29.7220  -19.0610   20.7450 C   0  0  2  0  0  0  0  0  0  0  0  0
  -29.4930  -17.8280   21.6190 C   0  0  0  0  0  1  0  0  0  0  0  0
  -30.4670  -20.0590   21.6490 C   0  0  0  0  0  1  0  0  0  0  0  0
  -28.5810  -22.5070   19.1410 N   0  0  1  0  0  4  0  0  0  0  0  0
  -28.9550  -22.8170   20.0270 H   0  0  0  0  0  0  0  0  0  0  0  0
  -30.4340  -17.3830   18.6710 C   0  0  0  0  0  2  0  0  0  0  0  0
  -31.3270  -15.0100   19.2820 C   0  0  0  0  0  0  0  0  0  0  0  0
  -31.1160  -12.6210   18.6220 C   0  0  0  0  0  2  0  0  0  0  0  0
  -30.0500  -12.5230   17.5070 C   0  0  0  0  0  2  0  0  0  0  0  0
  -28.6390  -12.3830   18.1090 C   0  0  0  0  0  2  0  0  0  0  0  0
  -28.3640  -13.4230   19.2270 C   0  0  0  0  0  3  0  0  0  0  0  0
  -29.5350  -13.4900   20.2350 C   0  0  0  0  0  2  0  0  0  0  0  0
  -30.7620  -13.7760   19.4790 N   0  0  0  0  0  0  0  0  0  0  0  0
  -32.4250  -15.1200   18.7320 O   0  0  0  0  0  0  0  0  0  0  0  0
  -30.5220  -16.1080   19.4940 N   0  0  0  0  0  0  0  0  0  0  0  0
  -29.6860  -15.8940   20.0140 H   0  0  0  0  0  0  0  0  0  0  0  0
  -26.1550  -14.0930   20.3560 C   0  0  0  0  0  0  0  0  0  0  0  0
  -25.1040  -13.3570   20.8290 C   0  0  0  0  0  0  0  0  0  0  0  0
  -25.4520  -11.9880   20.6110 C   0  0  0  0  0  0  0  0  0  0  0  0
  -27.0860  -13.1760   19.8930 N   0  0  0  0  0  0  0  0  0  0  0  0
  -26.6760  -11.8980   20.1030 N   0  0  0  0  0  0  0  0  0  0  0  0
  -24.6700  -10.7630   20.8080 C   0  0  0  0  0  0  0  0  0  0  0  0
  -25.0260   -9.8090   21.7860 C   0  0  0  0  0  3  0  0  0  0  0  0
  -24.2480   -8.6440   21.9690 C   0  0  0  0  0  3  0  0  0  0  0  0
  -23.0980   -8.4270   21.1720 C   0  0  0  0  0  0  0  0  0  0  0  0
  -22.7590   -9.3690   20.1860 C   0  0  0  0  0  3  0  0  0  0  0  0
  -23.5390  -10.5240   20.0020 C   0  0  0  0  0  3  0  0  0  0  0  0
  -22.2940   -7.3160   21.2630 O   0  0  0  0  0  0  0  0  0  0  0  0
  -21.9760   -6.7540   22.4740 C   0  0  0  0  0  0  0  0  0  0  0  0
  -21.3010   -7.4820   23.4780 C   0  0  0  0  0  3  0  0  0  0  0  0
  -20.9310   -6.8470   24.6810 C   0  0  0  0  0  3  0  0  0  0  0  0
  -21.2270   -5.4840   24.8770 C   0  0  0  0  0  0  0  0  0  0  0  0
  -21.8940   -4.7570   23.8770 C   0  0  0  0  0  3  0  0  0  0  0  0
  -22.2660   -5.3900   22.6780 C   0  0  0  0  0  0  0  0  0  0  0  0
  -22.8900   -4.6790   21.7080 F   0  0  0  0  0  0  0  0  0  0  0  0
  -20.8660   -4.8710   26.0290 F   0  0  0  0  0  0  0  0  0  0  0  0
  -23.8060  -13.8910   21.3580 C   0  0  0  0  0  0  0  0  0  0  0  0
  -23.1870  -13.1820   22.2960 N   0  0  0  0  0  0  0  0  0  0  0  0
  -23.3560  -14.9700   20.9740 O   0  0  0  0  0  0  0  0  0  0  0  0
  -23.5610  -12.3070   22.6300 H   0  0  0  0  0  0  0  0  0  0  0  0
  -22.3220  -13.5220   22.6900 H   0  0  0  0  0  0  0  0  0  0  0  0
  -26.3820  -15.4620   20.2550 N   0  0  0  0  0  0  0  0  0  0  0  0
  -25.6670  -16.1360   20.5090 H   0  0  0  0  0  0  0  0  0  0  0  0
  -27.1540  -15.8770   19.7530 H   0  0  0  0  0  0  0  0  0  0  0  0
  -28.3660  -23.7950   18.3300 C   0  0  0  0  0  3  0  0  0  0  0  0
  -27.6970  -25.0540   19.0630 C   0  0  0  0  0  3  0  0  0  0  0  0
  -27.8240  -26.4170   18.4730 O   0  0  0  0  0  0  0  0  0  0  0  0
  -24.7820  -31.3120   22.8170 C   0  0  0  0  0  0  0  0  0  0  0  0
  -26.7720  -27.3090   18.7170 C   0  0  0  0  0  0  0  0  0  0  0  0
  -23.3220  -30.2740   21.1170 C   0  0  0  0  0  3  0  0  0  0  0  0
  -24.5130  -28.9680   19.2690 C   0  0  0  0  0  0  0  0  0  0  0  0
  -25.8330  -30.5480   20.6760 C   0  0  0  0  0  2  0  0  0  0  0  0
  -25.7670  -29.3060   19.7940 C   0  0  0  0  0  0  0  0  0  0  0  0
  -26.9010  -28.4910   19.5110 C   0  0  0  0  0  3  0  0  0  0  0  0
  -25.5020  -27.0390   18.1610 C   0  0  0  0  0  3  0  0  0  0  0  0
  -24.3810  -27.8410   18.4410 C   0  0  0  0  0  3  0  0  0  0  0  0
  -23.3380  -29.8570   19.6220 C   0  0  0  0  0  2  0  0  0  0  0  0
  -24.6730  -30.7180   21.5930 N   0  0  0  0  0  0  0  0  0  0  0  0
  -23.7840  -31.5170   23.5240 O   0  0  0  0  0  0  0  0  0  0  0  0
  -22.7250  -29.1190   21.9550 C   0  0  0  0  0  0  0  0  0  0  0  0
  -21.3880  -28.9920   21.9470 N   0  0  0  0  0  0  0  0  0  0  0  0
  -23.4620  -28.3440   22.5720 O   0  0  0  0  0  0  0  0  0  0  0  0
  -20.8520  -29.6730   21.4280 H   0  0  0  0  0  0  0  0  0  0  0  0
  -18.0430  -27.7520   22.5430 C   0  0  0  0  0  0  0  0  0  0  0  0
  -20.6190  -27.9520   22.6320 C   0  0  0  0  0  3  0  0  0  0  0  0
  -20.6470  -26.6240   21.8400 C   0  0  0  0  0  2  0  0  0  0  0  0
  -19.4590  -26.4660   20.8860 C   0  0  0  0  0  2  0  0  0  0  0  0
  -18.1390  -26.5180   21.6610 C   0  0  0  0  0  2  0  0  0  0  0  0
  -19.2070  -28.4330   22.9870 C   0  0  0  0  0  0  0  0  0  0  0  0
  -19.0600  -29.5920   23.7790 C   0  0  0  0  0  3  0  0  0  0  0  0
  -17.7840  -30.0710   24.1290 C   0  0  0  0  0  3  0  0  0  0  0  0
  -16.6340  -29.3850   23.6970 C   0  0  0  0  0  3  0  0  0  0  0  0
  -16.7660  -28.2260   22.9110 C   0  0  0  0  0  3  0  0  0  0  0  0
  -26.1610  -31.7790   23.3760 C   0  0  0  0  0  3  0  0  0  0  0  0
  -26.7930  -30.7610   24.4020 C   0  0  1  0  0  0  0  0  0  0  0  0
  -25.8340  -30.3550   25.5440 C   0  0  0  0  0  1  0  0  0  0  0  0
  -27.2450  -29.4690   23.6830 C   0  0  0  0  0  1  0  0  0  0  0  0
  -28.0610  -31.3780   25.0390 C   0  0  0  0  0  1  0  0  0  0  0  0
  -25.9620  -33.0920   24.0050 N   0  0  0  0  0  0  0  0  0  0  0  0
  -26.3000  -34.2630   23.4490 C   0  0  0  0  0  0  0  0  0  0  0  0
  -26.8870  -34.3430   22.3660 O   0  0  0  0  0  0  0  0  0  0  0  0
  -25.4400  -33.1060   24.8680 H   0  0  0  0  0  0  0  0  0  0  0  0
  -24.6690  -36.1700   23.6070 C   0  0  0  0  0  1  0  0  0  0  0  0
  -25.9350  -35.5480   24.2170 C   0  0  0  0  0  3  0  0  0  0  0  0
  -28.1700  -36.1420   25.0410 C   0  0  0  0  0  1  0  0  0  0  0  0
  -27.0210  -36.5520   24.2390 N   0  0  0  0  0  0  0  0  0  0  0  0
  -26.6830  -37.4410   24.5980 H   0  0  0  0  0  0  0  0  0  0  0  0
  2  1  1  0
  3 10  1  0
  4  1  1  0
  4  7  1  0
  5  3  1  0
  5  6  1  0
  5  4  1  0
  6 12  1  0
  6  7  1  0
  7  8  1  1
  7  9  1  0
 10  2  1  0
 10 11  1  1
 12 21  1  0
 13 19  1  0
 13 21  1  0
 14 19  1  0
 15 16  1  0
 15 14  1  0
 17 16  1  0
 17 26  1  0
 17 18  1  0
 19 18  1  0
 20 13  2  0
 21 22  1  0
 23 24  2  0
 24 43  1  0
 25 28  1  0
 25 24  1  0
 26 27  1  0
 26 23  1  0
 27 25  2  0
 28 29  1  0
 29 30  2  0
 31 34  1  0
 31 30  1  0
 32 31  2  0
 33 32  1  0
 33 28  2  0
 34 35  1  0
 35 40  2  0
 35 36  1  0
 36 37  2  0
 37 38  1  0
 38 42  1  0
 39 38  2  0
 40 39  1  0
 41 40  1  0
 43 44  1  0
 44 46  1  0
 44 47  1  0
 45 43  2  0
 48 23  1  0
 48 49  1  0
 50 48  1  0
 51 52  2  0
 51 10  1  0
 53 55  1  0
 53 52  1  0
 54 65  2  0
 55 60  1  0
 56 64  1  0
 56 66  1  0
 57 63  1  0
 57 59  1  0
 58 64  1  0
 59 58  1  0
 60 59  2  0
 61 62  1  0
 61 55  2  0
 62 57  2  0
 63 56  1  0
 64 54  1  0
 66 68  2  0
 67 66  1  0
 69 67  1  0
 70 79  2  0
 70 75  1  0
 71 67  1  0
 71 75  1  0
 72 71  1  0
 73 74  1  0
 73 72  1  0
 74 70  1  0
 75 76  2  0
 76 77  1  0
 78 77  2  0
 79 78  1  0
 80 54  1  0
 80 85  1  0
 80 81  1  0
 81 84  1  1
 81 82  1  0
 83 81  1  0
 85 88  1  0
 86 85  1  0
 86 90  1  0
 87 86  2  0
 90 89  1  0
 90 92  1  0
 92 93  1  0
 92 91  1  0
M  ISO  4  13 100  21 100  52 101  53 101
M  END
>  <TORSDO>  (72) 
F 19

>  <SCORE>  (72) 
-10.317

>  <name>  (72) 
72

>  <ligand_id>  (72) 
72

>  <original_smiles>  (72) 
[H]c1c([H])c([H])c2c(c1[H])C([H])([H])C([H])([H])C([H])([H])C2([H])N([H])C(=O)C1([H])N(C(=O)C([H])(N([H])C(=O)C([H])(N([H])C([H])([H])[H])C([H])([H])[H])C(C([H])([H])[H])(C([H])([H])[H])C([H])([H])[H])C([H])([H])c2c([H])c(OC([H])([H])C([H])([H])[N+]3([H])C([H])([H])C([H])([H])C4([H])C([H])(C([H])(C([H])([H])N([H])C(=O)N5C([H])([H])C([H])([H])C([H])([H])C([H])(n6nc(-c7c([H])c([H])c(Oc8c([H])c([H])c(F)c([H])c8F)c([H])c7[H])c(C(=O)N([H])[H])c6N([H])[H])C5([H])[H])C4(C([H])([H])[H])C([H])([H])[H])C3([H])[H])c([H])c([H])c2C1([H])[H]

>  <smiles>  (72) 
[H]c1c([H])c([H])c2c(c1[H])C([H])([H])C([H])([H])C([H])([H])C2([H])N([H])C(=O)C1([H])N(C(=O)C([H])(N([H])C(=O)C([H])(N([H])C([H])([H])[H])C([H])([H])[H])C(C([H])([H])[H])(C([H])([H])[H])C([H])([H])[H])C([H])([H])c2c([H])c(OC([H])([H])C([H])([H])[N+]3([H])C([H])([H])C([H])([H])C4([H])C([H])(C([H])(C([H])([H])N([H])C(=O)N5C([H])([H])C([H])([H])C([H])([H])C([H])(n6nc(-c7c([H])c([H])c(Oc8c([H])c([H])c(F)c([H])c8F)c([H])c7[H])c(C(=O)N([H])[H])c6N([H])[H])C5([H])[H])C4(C([H])([H])[H])C([H])([H])[H])C3([H])[H])c([H])c([H])c2C1([H])[H]

$$$$
73:0:0
     RDKit          3D

 98105  0  0  1  0  0  0  0  0999 V2000
  -30.7800  -21.1810   21.8170 C   0  0  0  0  0  3  0  0  0  0  0  0
  -30.0780  -22.5530   21.9520 C   0  0  0  0  0  0  0  0  0  0  0  0
  -30.1690  -23.3880   20.9050 N   0  0  0  0  0  0  0  0  0  0  0  0
  -29.4870  -22.8590   22.9890 O   0  0  0  0  0  0  0  0  0  0  0  0
  -30.6400  -23.0430   20.0780 H   0  0  0  0  0  0  0  0  0  0  0  0
  -29.8730  -24.8200   20.9240 C   0  0  0  0  0  2  0  0  0  0  0  0
  -28.5690  -25.2080   20.2020 C   0  0  0  0  0  2  0  0  0  0  0  0
  -28.5470  -26.6330   20.1860 O   0  0  0  0  0  0  0  0  0  0  0  0
  -24.5910  -31.6460   23.2470 C   0  0  0  0  0  0  0  0  0  0  0  0
  -27.3360  -27.2830   20.1760 C   0  0  0  0  0  0  0  0  0  0  0  0
  -23.4270  -30.2670   21.5500 C   0  0  0  0  0  3  0  0  0  0  0  0
  -24.9220  -28.7490   20.1460 C   0  0  0  0  0  0  0  0  0  0  0  0
  -25.9510  -30.6450   21.4170 C   0  0  0  0  0  2  0  0  0  0  0  0
  -26.0580  -29.2830   20.7630 C   0  0  0  0  0  0  0  0  0  0  0  0
  -27.2670  -28.5590   20.7700 C   0  0  0  0  0  3  0  0  0  0  0  0
  -26.1840  -26.7460   19.5620 C   0  0  0  0  0  3  0  0  0  0  0  0
  -24.9780  -27.4770   19.5420 C   0  0  0  0  0  3  0  0  0  0  0  0
  -23.6720  -29.5990   20.1690 C   0  0  0  0  0  2  0  0  0  0  0  0
  -24.6730  -30.8660   22.1320 N   0  0  0  0  0  0  0  0  0  0  0  0
  -23.4960  -31.9090   23.7650 O   0  0  0  0  0  0  0  0  0  0  0  0
  -22.7540  -29.2330   22.4800 C   0  0  0  0  0  0  0  0  0  0  0  0
  -21.4410  -29.0270   22.2920 N   0  0  0  0  0  0  0  0  0  0  0  0
  -23.4130  -28.6180   23.3230 O   0  0  0  0  0  0  0  0  0  0  0  0
  -20.9730  -29.5790   21.5860 H   0  0  0  0  0  0  0  0  0  0  0  0
  -18.0750  -27.7600   22.6110 C   0  0  0  0  0  0  0  0  0  0  0  0
  -20.6080  -28.0720   23.0190 C   0  0  0  0  0  3  0  0  0  0  0  0
  -20.7720  -26.6450   22.4490 C   0  0  0  0  0  2  0  0  0  0  0  0
  -19.7320  -26.2980   21.3780 C   0  0  0  0  0  2  0  0  0  0  0  0
  -18.3160  -26.4140   21.9490 C   0  0  0  0  0  2  0  0  0  0  0  0
  -19.1520  -28.5450   23.1000 C   0  0  0  0  0  0  0  0  0  0  0  0
  -18.8770  -29.8050   23.6750 C   0  0  0  0  0  3  0  0  0  0  0  0
  -17.5550  -30.2790   23.7690 C   0  0  0  0  0  3  0  0  0  0  0  0
  -16.4900  -29.4900   23.2990 C   0  0  0  0  0  3  0  0  0  0  0  0
  -16.7510  -28.2330   22.7250 C   0  0  0  0  0  3  0  0  0  0  0  0
  -25.8610  -32.2660   23.9100 C   0  0  0  0  0  3  0  0  0  0  0  0
  -26.3250  -31.4960   25.2070 C   0  0  1  0  0  0  0  0  0  0  0  0
  -25.1900  -31.2670   26.2330 C   0  0  0  0  0  1  0  0  0  0  0  0
  -26.9160  -30.1150   24.8380 C   0  0  0  0  0  1  0  0  0  0  0  0
  -27.4530  -32.2860   25.9110 C   0  0  0  0  0  1  0  0  0  0  0  0
  -25.5570  -33.6700   24.2190 N   0  0  0  0  0  0  0  0  0  0  0  0
  -25.8950  -34.7080   23.4440 C   0  0  0  0  0  0  0  0  0  0  0  0
  -26.5680  -34.5880   22.4160 O   0  0  0  0  0  0  0  0  0  0  0  0
  -24.9600  -33.8380   25.0150 H   0  0  0  0  0  0  0  0  0  0  0  0
  -24.1610  -36.4900   23.0760 C   0  0  0  0  0  1  0  0  0  0  0  0
  -25.4120  -36.1040   23.8790 C   0  0  0  0  0  3  0  0  0  0  0  0
  -27.5480  -37.0170   24.6750 C   0  0  0  0  0  1  0  0  0  0  0  0
  -26.4410  -37.1560   23.7320 N   0  0  0  0  0  0  0  0  0  0  0  0
  -26.0330  -38.0800   23.8560 H   0  0  0  0  0  0  0  0  0  0  0  0
  -33.2520  -21.9010   22.0510 C   0  0  0  0  0  1  0  0  0  0  0  0
  -31.9680  -21.3560   24.1500 C   0  0  0  0  0  1  0  0  0  0  0  0
  -32.1040  -21.0610   22.6420 C   0  0  0  0  0  3  0  0  0  0  0  0
  -29.8010  -19.9990   22.0610 C   0  0  0  0  0  2  0  0  0  0  0  0
  -29.7330  -17.8900   20.7300 C   0  0  0  0  0  0  0  0  0  0  0  0
  -30.3560  -18.7340   21.5630 N   0  0  0  0  0  0  0  0  0  0  0  0
  -28.5600  -18.0390   20.3820 O   0  0  0  0  0  0  0  0  0  0  0  0
  -31.3120  -18.5210   21.8130 H   0  0  0  0  0  0  0  0  0  0  0  0
  -30.5490  -16.7420   20.1210 C   0  0  0  0  0  3  0  0  0  0  0  0
  -31.0960  -17.8030   17.9160 C   0  0  0  0  0  1  0  0  0  0  0  0
  -30.3170  -16.7840   18.6540 N   0  0  0  0  0  4  0  0  0  0  0  0
  -30.5380  -15.8900   18.2490 H   0  0  0  0  0  0  0  0  0  0  0  0
  -29.3350  -16.9770   18.5210 H   0  0  0  0  0  0  0  0  0  0  0  0
  -30.1110  -15.3840   20.7480 C   0  0  0  0  0  2  0  0  0  0  0  0
  -30.7220  -14.1580   20.0420 C   0  0  0  0  0  0  0  0  0  0  0  0
  -30.3000  -12.0130   18.8970 C   0  0  0  0  0  2  0  0  0  0  0  0
  -29.2820  -12.2460   17.7610 C   0  0  0  0  0  2  0  0  0  0  0  0
  -27.8360  -12.1450   18.2880 C   0  0  0  0  0  2  0  0  0  0  0  0
  -27.6040  -12.9830   19.5760 C   0  0  0  0  0  3  0  0  0  0  0  0
  -28.7310  -12.7240   20.6050 C   0  0  0  0  0  2  0  0  0  0  0  0
  -30.0200  -12.9960   19.9540 N   0  0  0  0  0  0  0  0  0  0  0  0
  -31.7890  -14.3240   19.4460 O   0  0  0  0  0  0  0  0  0  0  0  0
  -25.2750  -13.6410   20.4560 C   0  0  0  0  0  0  0  0  0  0  0  0
  -24.2170  -12.8900   20.8910 C   0  0  0  0  0  0  0  0  0  0  0  0
  -24.6390  -11.5280   20.8120 C   0  0  0  0  0  0  0  0  0  0  0  0
  -26.2810  -12.7370   20.1440 N   0  0  0  0  0  0  0  0  0  0  0  0
  -25.9040  -11.4610   20.4130 N   0  0  0  0  0  0  0  0  0  0  0  0
  -23.8970  -10.2810   21.0410 C   0  0  0  0  0  0  0  0  0  0  0  0
  -24.3310   -9.3280   21.9870 C   0  0  0  0  0  3  0  0  0  0  0  0
  -23.5910   -8.1450   22.2040 C   0  0  0  0  0  3  0  0  0  0  0  0
  -22.4040   -7.9080   21.4710 C   0  0  0  0  0  0  0  0  0  0  0  0
  -21.9880   -8.8500   20.5140 C   0  0  0  0  0  3  0  0  0  0  0  0
  -22.7280  -10.0240   20.2960 C   0  0  0  0  0  3  0  0  0  0  0  0
  -21.6350   -6.7770   21.5950 O   0  0  0  0  0  0  0  0  0  0  0  0
  -21.5530   -6.0860   22.7770 C   0  0  0  0  0  0  0  0  0  0  0  0
  -21.0800   -6.6910   23.9610 C   0  0  0  0  0  3  0  0  0  0  0  0
  -20.9490   -5.9250   25.1370 C   0  0  0  0  0  3  0  0  0  0  0  0
  -21.2800   -4.5570   25.1290 C   0  0  0  0  0  0  0  0  0  0  0  0
  -21.7480   -3.9530   23.9480 C   0  0  0  0  0  3  0  0  0  0  0  0
  -21.8820   -4.7150   22.7750 C   0  0  0  0  0  0  0  0  0  0  0  0
  -22.3120   -4.1240   21.6350 F   0  0  0  0  0  0  0  0  0  0  0  0
  -21.1470   -3.8200   26.2560 F   0  0  0  0  0  0  0  0  0  0  0  0
  -22.8540  -13.3980   21.2680 C   0  0  0  0  0  0  0  0  0  0  0  0
  -22.1700  -12.7080   22.1740 N   0  0  0  0  0  0  0  0  0  0  0  0
  -22.4090  -14.4430   20.7970 O   0  0  0  0  0  0  0  0  0  0  0  0
  -22.5450  -11.8640   22.5810 H   0  0  0  0  0  0  0  0  0  0  0  0
  -21.2570  -13.0310   22.4660 H   0  0  0  0  0  0  0  0  0  0  0  0
  -25.4590  -15.0100   20.2840 N   0  0  0  0  0  0  0  0  0  0  0  0
  -24.7160  -15.6760   20.4680 H   0  0  0  0  0  0  0  0  0  0  0  0
  -26.3040  -15.4460   19.9400 H   0  0  0  0  0  0  0  0  0  0  0  0
  1  2  1  0
  1 52  1  0
  1 51  1  0
  2  4  2  0
  3  6  1  0
  3  2  1  0
  5  3  1  0
  7  6  1  0
  8  7  1  0
  9 20  2  0
 10  8  1  0
 10 15  1  0
 11 19  1  0
 11 21  1  0
 12 18  1  0
 12 14  1  0
 13 19  1  0
 14 15  2  0
 14 13  1  0
 16 10  2  0
 17 16  1  0
 17 12  2  0
 18 11  1  0
 19  9  1  0
 21 23  2  0
 22 21  1  0
 24 22  1  0
 25 34  2  0
 25 30  1  0
 26 22  1  0
 26 30  1  0
 27 26  1  0
 28 29  1  0
 28 27  1  0
 29 25  1  0
 30 31  2  0
 31 32  1  0
 33 32  2  0
 34 33  1  0
 35  9  1  0
 35 40  1  0
 35 36  1  0
 36 39  1  1
 36 37  1  0
 38 36  1  0
 40 43  1  0
 41 45  1  0
 41 40  1  0
 42 41  2  0
 45 44  1  0
 47 48  1  0
 47 45  1  0
 47 46  1  0
 49 51  1  0
 51 50  1  0
 53 54  1  0
 54 56  1  0
 54 52  1  0
 55 53  2  0
 57 53  1  0
 57 62  1  0
 58 59  1  0
 59 57  1  0
 60 59  1  0
 61 59  1  0
 63 62  1  0
 64 69  1  0
 65 66  1  0
 65 64  1  0
 67 66  1  0
 67 74  1  0
 67 68  1  0
 69 63  1  0
 69 68  1  0
 70 63  2  0
 71 72  2  0
 72 91  1  0
 73 72  1  0
 73 76  1  0
 74 75  1  0
 74 71  1  0
 75 73  2  0
 76 77  1  0
 77 78  2  0
 79 82  1  0
 79 78  1  0
 80 79  2  0
 81 80  1  0
 81 76  2  0
 82 83  1  0
 83 84  1  0
 84 85  2  0
 86 85  1  0
 86 90  1  0
 87 86  2  0
 88 83  2  0
 88 87  1  0
 89 88  1  0
 91 92  1  0
 92 95  1  0
 92 94  1  0
 93 91  2  0
 96 71  1  0
 96 97  1  0
 98 96  1  0
M  ISO  4   7 101   8 101  62 100  63 100
M  END
>  <TORSDO>  (73) 
F 25

>  <SCORE>  (73) 
-11.192

>  <name>  (73) 
73

>  <ligand_id>  (73) 
73

>  <original_smiles>  (73) 
[H]c1c([H])c([H])c2c(c1[H])C([H])([H])C([H])([H])C([H])([H])C2([H])N([H])C(=O)C1([H])N(C(=O)C([H])(N([H])C(=O)C([H])(N([H])C([H])([H])[H])C([H])([H])[H])C(C([H])([H])[H])(C([H])([H])[H])C([H])([H])[H])C([H])([H])c2c([H])c(OC([H])([H])C([H])([H])N([H])C(=O)C([H])(C([H])([H])N([H])C(=O)C([H])(C([H])([H])C(=O)N3C([H])([H])C([H])([H])C([H])([H])C([H])(n4nc(-c5c([H])c([H])c(Oc6c([H])c([H])c(F)c([H])c6F)c([H])c5[H])c(C(=O)N([H])[H])c4N([H])[H])C3([H])[H])[N+]([H])([H])C([H])([H])[H])C([H])(C([H])([H])[H])C([H])([H])[H])c([H])c([H])c2C1([H])[H]

>  <smiles>  (73) 
[H]c1c([H])c([H])c2c(c1[H])C([H])([H])C([H])([H])C([H])([H])C2([H])N([H])C(=O)C1([H])N(C(=O)C([H])(N([H])C(=O)C([H])(N([H])C([H])([H])[H])C([H])([H])[H])C(C([H])([H])[H])(C([H])([H])[H])C([H])([H])[H])C([H])([H])c2c([H])c(OC([H])([H])C([H])([H])N([H])C(=O)C([H])(C([H])([H])N([H])C(=O)C([H])(C([H])([H])C(=O)N3C([H])([H])C([H])([H])C([H])([H])C([H])(n4nc(-c5c([H])c([H])c(Oc6c([H])c([H])c(F)c([H])c6F)c([H])c5[H])c(C(=O)N([H])[H])c4N([H])[H])C3([H])[H])[N+]([H])([H])C([H])([H])[H])C([H])(C([H])([H])[H])C([H])([H])[H])c([H])c([H])c2C1([H])[H]

$$$$
74:0:0
     RDKit          3D

 95102  0  0  1  0  0  0  0  0999 V2000
  -29.3990  -20.0100   20.1180 C   0  0  0  0  0  0  0  0  0  0  0  0
  -29.3820  -21.2930   20.6120 N   0  0  0  0  0  0  0  0  0  0  0  0
  -28.9880  -19.7970   18.9750 O   0  0  0  0  0  0  0  0  0  0  0  0
  -29.6310  -21.4340   21.5790 H   0  0  0  0  0  0  0  0  0  0  0  0
  -28.7990  -22.4840   19.8950 C   0  0  0  0  0  2  0  0  0  0  0  0
  -29.0390  -23.9470   20.4720 C   0  0  0  0  0  2  0  0  0  0  0  0
  -28.0770  -25.0600   19.8780 C   0  0  0  0  0  2  0  0  0  0  0  0
  -28.2530  -26.4900   20.2140 O   0  0  0  0  0  0  0  0  0  0  0  0
  -24.5640  -31.8970   23.2210 C   0  0  0  0  0  0  0  0  0  0  0  0
  -27.1370  -27.3420   20.1380 C   0  0  0  0  0  0  0  0  0  0  0  0
  -23.3390  -30.5020   21.5940 C   0  0  0  0  0  3  0  0  0  0  0  0
  -24.7730  -28.9570   20.1460 C   0  0  0  0  0  0  0  0  0  0  0  0
  -25.8770  -30.8110   21.3920 C   0  0  0  0  0  2  0  0  0  0  0  0
  -25.9450  -29.4360   20.7400 C   0  0  0  0  0  0  0  0  0  0  0  0
  -27.1290  -28.6380   20.7310 C   0  0  0  0  0  3  0  0  0  0  0  0
  -25.9450  -26.9280   19.4950 C   0  0  0  0  0  3  0  0  0  0  0  0
  -24.7740  -27.7060   19.5110 C   0  0  0  0  0  3  0  0  0  0  0  0
  -23.5350  -29.8310   20.2090 C   0  0  0  0  0  2  0  0  0  0  0  0
  -24.6120  -31.0840   22.1250 N   0  0  0  0  0  0  0  0  0  0  0  0
  -23.4870  -32.1800   23.7660 O   0  0  0  0  0  0  0  0  0  0  0  0
  -22.6860  -29.4800   22.5570 C   0  0  0  0  0  0  0  0  0  0  0  0
  -21.3650  -29.2860   22.4210 N   0  0  0  0  0  0  0  0  0  0  0  0
  -23.3670  -28.8720   23.3880 O   0  0  0  0  0  0  0  0  0  0  0  0
  -20.8790  -29.8340   21.7250 H   0  0  0  0  0  0  0  0  0  0  0  0
  -18.0030  -28.0320   22.8730 C   0  0  0  0  0  0  0  0  0  0  0  0
  -20.5490  -28.3490   23.1940 C   0  0  0  0  0  3  0  0  0  0  0  0
  -20.6930  -26.9080   22.6540 C   0  0  0  0  0  2  0  0  0  0  0  0
  -19.6200  -26.5390   21.6220 C   0  0  0  0  0  2  0  0  0  0  0  0
  -18.2220  -26.6720   22.2340 C   0  0  0  0  0  2  0  0  0  0  0  0
  -19.0970  -28.8270   23.3100 C   0  0  0  0  0  0  0  0  0  0  0  0
  -18.8420  -30.0990   23.8660 C   0  0  0  0  0  3  0  0  0  0  0  0
  -17.5260  -30.5770   23.9970 C   0  0  0  0  0  3  0  0  0  0  0  0
  -16.4450  -29.7780   23.5800 C   0  0  0  0  0  3  0  0  0  0  0  0
  -16.6840  -28.5110   23.0220 C   0  0  0  0  0  3  0  0  0  0  0  0
  -25.8560  -32.5220   23.8330 C   0  0  0  0  0  3  0  0  0  0  0  0
  -26.3800  -31.7490   25.1070 C   0  0  1  0  0  0  0  0  0  0  0  0
  -25.2920  -31.5170   26.1810 C   0  0  0  0  0  1  0  0  0  0  0  0
  -26.9590  -30.3700   24.7160 C   0  0  0  0  0  1  0  0  0  0  0  0
  -27.5370  -32.5430   25.7590 C   0  0  0  0  0  1  0  0  0  0  0  0
  -25.5530  -33.9210   24.1650 N   0  0  0  0  0  0  0  0  0  0  0  0
  -25.8870  -34.9740   23.4100 C   0  0  0  0  0  0  0  0  0  0  0  0
  -26.5560  -34.8710   22.3780 O   0  0  0  0  0  0  0  0  0  0  0  0
  -24.9550  -34.0750   24.9640 H   0  0  0  0  0  0  0  0  0  0  0  0
  -24.1730  -36.7880   23.0530 C   0  0  0  0  0  1  0  0  0  0  0  0
  -25.4050  -36.3630   23.8700 C   0  0  0  0  0  3  0  0  0  0  0  0
  -27.5360  -37.2320   24.7260 C   0  0  0  0  0  1  0  0  0  0  0  0
  -26.4460  -37.4100   23.7730 N   0  0  0  0  0  0  0  0  0  0  0  0
  -26.0420  -38.3310   23.9210 H   0  0  0  0  0  0  0  0  0  0  0  0
  -29.9310  -18.7740   20.9700 C   0  0  0  0  0  3  0  0  0  0  0  0
  -31.2070  -19.1460   21.6000 N   0  0  0  0  0  4  0  0  0  0  0  0
  -31.8330  -18.4990   21.1290 H   0  0  0  0  0  0  0  0  0  0  0  0
  -31.4700  -20.0660   21.2920 H   0  0  0  0  0  0  0  0  0  0  0  0
  -31.4640  -20.3810   23.7520 C   0  0  0  0  0  1  0  0  0  0  0  0
  -31.3080  -19.0120   23.0650 C   0  0  0  0  0  2  0  0  0  0  0  0
  -30.2050  -17.3730   20.2200 C   0  0  0  0  0  3  0  0  0  0  0  0
  -31.4380  -17.5790   19.4480 N   0  0  0  0  0  0  0  0  0  0  0  0
  -31.6330  -16.7430   18.9030 H   0  0  0  0  0  0  0  0  0  0  0  0
  -31.2760  -18.2860   18.7350 H   0  0  0  0  0  0  0  0  0  0  0  0
  -30.2740  -16.0010   21.0780 C   0  0  0  0  0  2  0  0  0  0  0  0
  -30.8310  -14.6650   20.4060 C   0  0  0  0  0  0  0  0  0  0  0  0
  -30.5120  -12.4550   19.3020 C   0  0  0  0  0  2  0  0  0  0  0  0
  -29.5850  -12.6150   18.0770 C   0  0  0  0  0  2  0  0  0  0  0  0
  -28.1130  -12.4740   18.4980 C   0  0  0  0  0  2  0  0  0  0  0  0
  -27.7660  -13.3360   19.7410 C   0  0  0  0  0  3  0  0  0  0  0  0
  -28.8160  -13.1790   20.8640 C   0  0  0  0  0  2  0  0  0  0  0  0
  -30.1350  -13.4860   20.2970 N   0  0  0  0  0  0  0  0  0  0  0  0
  -31.9580  -14.7360   19.9110 O   0  0  0  0  0  0  0  0  0  0  0  0
  -25.3740  -13.9480   20.4360 C   0  0  0  0  0  0  0  0  0  0  0  0
  -24.3010  -13.1840   20.8010 C   0  0  0  0  0  0  0  0  0  0  0  0
  -24.7540  -11.8290   20.7810 C   0  0  0  0  0  0  0  0  0  0  0  0
  -26.4140  -13.0610   20.2180 N   0  0  0  0  0  0  0  0  0  0  0  0
  -26.0480  -11.7810   20.4870 N   0  0  0  0  0  0  0  0  0  0  0  0
  -24.0200  -10.5720   20.9750 C   0  0  0  0  0  0  0  0  0  0  0  0
  -24.4400   -9.6080   21.9190 C   0  0  0  0  0  3  0  0  0  0  0  0
  -23.7080   -8.4150   22.1010 C   0  0  0  0  0  3  0  0  0  0  0  0
  -22.5400   -8.1760   21.3390 C   0  0  0  0  0  0  0  0  0  0  0  0
  -22.1370   -9.1260   20.3850 C   0  0  0  0  0  3  0  0  0  0  0  0
  -22.8710  -10.3120   20.2000 C   0  0  0  0  0  3  0  0  0  0  0  0
  -21.7790   -7.0350   21.4290 O   0  0  0  0  0  0  0  0  0  0  0  0
  -21.7150   -6.3020   22.5870 C   0  0  0  0  0  0  0  0  0  0  0  0
  -21.2800   -6.8690   23.8050 C   0  0  0  0  0  3  0  0  0  0  0  0
  -21.1650   -6.0650   24.9540 C   0  0  0  0  0  3  0  0  0  0  0  0
  -21.4700   -4.6910   24.8880 C   0  0  0  0  0  0  0  0  0  0  0  0
  -21.9000   -4.1250   23.6760 C   0  0  0  0  0  3  0  0  0  0  0  0
  -22.0180   -4.9280   22.5280 C   0  0  0  0  0  0  0  0  0  0  0  0
  -22.4100   -4.3700   21.3580 F   0  0  0  0  0  0  0  0  0  0  0  0
  -21.3520   -3.9160   25.9920 F   0  0  0  0  0  0  0  0  0  0  0  0
  -22.9040  -13.6670   21.0610 C   0  0  0  0  0  0  0  0  0  0  0  0
  -22.1710  -12.9810   21.9300 N   0  0  0  0  0  0  0  0  0  0  0  0
  -22.4710  -14.6880   20.5280 O   0  0  0  0  0  0  0  0  0  0  0  0
  -22.5390  -12.1560   22.3820 H   0  0  0  0  0  0  0  0  0  0  0  0
  -21.2330  -13.2830   22.1480 H   0  0  0  0  0  0  0  0  0  0  0  0
  -25.5510  -15.3160   20.2490 N   0  0  0  0  0  0  0  0  0  0  0  0
  -24.7970  -15.9890   20.3390 H   0  0  0  0  0  0  0  0  0  0  0  0
  -26.4170  -15.7340   19.9320 H   0  0  0  0  0  0  0  0  0  0  0  0
  1  2  1  0
  2  4  1  0
  3  1  2  0
  5  6  1  0
  5  2  1  0
  7  8  1  0
  7  6  1  0
  9 20  2  0
 10  8  1  0
 10 15  1  0
 11 19  1  0
 11 21  1  0
 12 18  1  0
 12 14  1  0
 13 19  1  0
 14 13  1  0
 15 14  2  0
 16 17  1  0
 16 10  2  0
 17 12  2  0
 18 11  1  0
 19  9  1  0
 21 23  2  0
 22 21  1  0
 24 22  1  0
 25 34  2  0
 25 30  1  0
 26 22  1  0
 26 30  1  0
 27 26  1  0
 28 29  1  0
 28 27  1  0
 29 25  1  0
 30 31  2  0
 31 32  1  0
 33 32  2  0
 34 33  1  0
 35  9  1  0
 35 40  1  0
 35 36  1  0
 36 39  1  1
 36 37  1  0
 38 36  1  0
 40 43  1  0
 41 45  1  0
 41 40  1  0
 42 41  2  0
 45 44  1  0
 47 45  1  0
 47 48  1  0
 47 46  1  0
 49  1  1  0
 49 50  1  0
 50 54  1  0
 51 50  1  0
 52 50  1  0
 54 53  1  0
 55 49  1  0
 55 59  1  0
 56 55  1  0
 57 56  1  0
 58 56  1  0
 60 59  1  0
 61 66  1  0
 62 63  1  0
 62 61  1  0
 64 63  1  0
 64 71  1  0
 64 65  1  0
 66 60  1  0
 66 65  1  0
 67 60  2  0
 68 69  2  0
 69 88  1  0
 70 69  1  0
 70 73  1  0
 71 68  1  0
 71 72  1  0
 72 70  2  0
 73 74  1  0
 74 75  2  0
 76 79  1  0
 76 75  1  0
 77 76  2  0
 78 77  1  0
 78 73  2  0
 79 80  1  0
 80 81  1  0
 81 82  2  0
 83 82  1  0
 83 87  1  0
 84 83  2  0
 85 80  2  0
 85 84  1  0
 86 85  1  0
 88 89  1  0
 89 92  1  0
 89 91  1  0
 90 88  2  0
 93 94  1  0
 93 68  1  0
 95 93  1  0
M  ISO  4   7 101   8 101  59 100  60 100
M  END
>  <TORSDO>  (74) 
F 25

>  <SCORE>  (74) 
-12.464

>  <name>  (74) 
74

>  <ligand_id>  (74) 
74

>  <original_smiles>  (74) 
[H]c1c([H])c([H])c2c(c1[H])C([H])([H])C([H])([H])C([H])([H])C2([H])N([H])C(=O)C1([H])N(C(=O)C([H])(N([H])C(=O)C([H])(N([H])C([H])([H])[H])C([H])([H])[H])C(C([H])([H])[H])(C([H])([H])[H])C([H])([H])[H])C([H])([H])c2c([H])c(OC([H])([H])C([H])([H])C([H])([H])N([H])C(=O)C([H])(C([H])(N([H])[H])C([H])([H])C(=O)N3C([H])([H])C([H])([H])C([H])([H])C([H])(n4nc(-c5c([H])c([H])c(Oc6c([H])c([H])c(F)c([H])c6F)c([H])c5[H])c(C(=O)N([H])[H])c4N([H])[H])C3([H])[H])[N+]([H])([H])C([H])([H])C([H])([H])[H])c([H])c([H])c2C1([H])[H]

>  <smiles>  (74) 
[H]c1c([H])c([H])c2c(c1[H])C([H])([H])C([H])([H])C([H])([H])C2([H])N([H])C(=O)C1([H])N(C(=O)C([H])(N([H])C(=O)C([H])(N([H])C([H])([H])[H])C([H])([H])[H])C(C([H])([H])[H])(C([H])([H])[H])C([H])([H])[H])C([H])([H])c2c([H])c(OC([H])([H])C([H])([H])C([H])([H])N([H])C(=O)C([H])(C([H])(N([H])[H])C([H])([H])C(=O)N3C([H])([H])C([H])([H])C([H])([H])C([H])(n4nc(-c5c([H])c([H])c(Oc6c([H])c([H])c(F)c([H])c6F)c([H])c5[H])c(C(=O)N([H])[H])c4N([H])[H])C3([H])[H])[N+]([H])([H])C([H])([H])C([H])([H])[H])c([H])c([H])c2C1([H])[H]

$$$$
75:0:0
     RDKit          3D

 85 92  0  0  1  0  0  0  0  0999 V2000
  -28.6600  -22.0400   20.5600 C   0  0  0  0  0  2  0  0  0  0  0  0
  -29.2700  -20.4260   19.7500 C   0  0  0  0  0  0  0  0  0  0  0  0
  -29.6320  -20.9000   18.6310 N   0  0  0  0  0  0  0  0  0  0  0  0
  -29.4690  -21.8970   18.5730 H   0  0  0  0  0  0  0  0  0  0  0  0
  -29.6390  -18.4960   19.7990 C   0  0  0  0  0  0  0  0  0  0  0  0
  -30.2360  -18.2880   18.3940 C   0  0  0  0  0  1  0  0  0  0  0  0
  -29.6180  -17.1740   20.4720 N   0  0  0  0  0  0  0  0  0  0  0  0
  -30.3220  -15.7100   20.1920 C   0  0  0  0  0  0  0  0  0  0  0  0
  -30.3770  -13.1600   19.3860 C   0  0  0  0  0  2  0  0  0  0  0  0
  -29.4900  -12.8050   18.1590 C   0  0  0  0  0  2  0  0  0  0  0  0
  -28.0630  -12.4520   18.6030 C   0  0  0  0  0  2  0  0  0  0  0  0
  -27.5600  -13.4390   19.6790 C   0  0  0  0  0  3  0  0  0  0  0  0
  -28.5870  -13.7420   20.7960 C   0  0  0  0  0  2  0  0  0  0  0  0
  -29.7840  -14.3460   20.1660 N   0  0  0  0  0  0  0  0  0  0  0  0
  -31.5230  -15.6020   19.8890 O   0  0  0  0  0  0  0  0  0  0  0  0
  -25.2010  -13.9480   20.4600 C   0  0  0  0  0  0  0  0  0  0  0  0
  -24.1480  -13.1590   20.8290 C   0  0  0  0  0  0  0  0  0  0  0  0
  -24.6280  -11.8130   20.7930 C   0  0  0  0  0  0  0  0  0  0  0  0
  -26.2480  -13.0850   20.2050 N   0  0  0  0  0  0  0  0  0  0  0  0
  -25.9200  -11.7930   20.4740 N   0  0  0  0  0  0  0  0  0  0  0  0
  -23.9090  -10.5450   20.9830 C   0  0  0  0  0  0  0  0  0  0  0  0
  -24.3330   -9.5880   21.9320 C   0  0  0  0  0  3  0  0  0  0  0  0
  -23.6080   -8.3890   22.1120 C   0  0  0  0  0  3  0  0  0  0  0  0
  -22.4470   -8.1380   21.3450 C   0  0  0  0  0  0  0  0  0  0  0  0
  -22.0420   -9.0850   20.3850 C   0  0  0  0  0  3  0  0  0  0  0  0
  -22.7670  -10.2740   20.2030 C   0  0  0  0  0  3  0  0  0  0  0  0
  -21.6950   -6.9910   21.4320 O   0  0  0  0  0  0  0  0  0  0  0  0
  -21.6170   -6.2690   22.5960 C   0  0  0  0  0  0  0  0  0  0  0  0
  -21.1280   -6.8360   23.7930 C   0  0  0  0  0  3  0  0  0  0  0  0
  -20.9990   -6.0390   24.9490 C   0  0  0  0  0  3  0  0  0  0  0  0
  -21.3500   -4.6760   24.9070 C   0  0  0  0  0  0  0  0  0  0  0  0
  -21.8320   -4.1080   23.7140 C   0  0  0  0  0  3  0  0  0  0  0  0
  -21.9630   -4.9020   22.5610 C   0  0  0  0  0  0  0  0  0  0  0  0
  -22.4070   -4.3460   21.4090 F   0  0  0  0  0  0  0  0  0  0  0  0
  -21.2200   -3.9070   26.0140 F   0  0  0  0  0  0  0  0  0  0  0  0
  -22.7490  -13.6260   21.1000 C   0  0  0  0  0  0  0  0  0  0  0  0
  -22.0240  -12.9220   21.9620 N   0  0  0  0  0  0  0  0  0  0  0  0
  -22.3080  -14.6520   20.5820 O   0  0  0  0  0  0  0  0  0  0  0  0
  -22.3960  -12.0940   22.4030 H   0  0  0  0  0  0  0  0  0  0  0  0
  -21.0850  -13.2180   22.1870 H   0  0  0  0  0  0  0  0  0  0  0  0
  -25.3520  -15.3210   20.2890 N   0  0  0  0  0  0  0  0  0  0  0  0
  -24.5900  -15.9760   20.4230 H   0  0  0  0  0  0  0  0  0  0  0  0
  -26.2150  -15.7670   20.0030 H   0  0  0  0  0  0  0  0  0  0  0  0
  -28.1550  -23.8360   19.9680 C   0  0  0  0  0  2  0  0  0  0  0  0
  -28.1290  -25.5530   20.4000 O   0  0  0  0  0  0  0  0  0  0  0  0
  -24.5790  -31.8500   23.1970 C   0  0  0  0  0  0  0  0  0  0  0  0
  -27.1620  -26.7650   20.2620 C   0  0  0  0  0  0  0  0  0  0  0  0
  -23.4180  -30.4420   21.5490 C   0  0  0  0  0  3  0  0  0  0  0  0
  -24.8900  -28.7930   20.1590 C   0  0  0  0  0  0  0  0  0  0  0  0
  -25.9970  -30.5890   21.4650 C   0  0  0  0  0  2  0  0  0  0  0  0
  -26.0720  -29.1550   20.8150 C   0  0  0  0  0  0  0  0  0  0  0  0
  -27.1890  -28.1660   20.8380 C   0  0  0  0  0  3  0  0  0  0  0  0
  -25.9510  -26.6180   19.5390 C   0  0  0  0  0  3  0  0  0  0  0  0
  -24.8690  -27.5520   19.4980 C   0  0  0  0  0  3  0  0  0  0  0  0
  -23.6780  -29.7400   20.1840 C   0  0  0  0  0  2  0  0  0  0  0  0
  -24.6870  -30.9940   22.1230 N   0  0  0  0  0  0  0  0  0  0  0  0
  -23.4780  -32.1500   23.6910 O   0  0  0  0  0  0  0  0  0  0  0  0
  -22.6900  -29.4680   22.5150 C   0  0  0  0  0  0  0  0  0  0  0  0
  -21.3570  -29.3280   22.3880 N   0  0  0  0  0  0  0  0  0  0  0  0
  -23.3380  -28.8360   23.3530 O   0  0  0  0  0  0  0  0  0  0  0  0
  -20.8830  -29.8890   21.6930 H   0  0  0  0  0  0  0  0  0  0  0  0
  -17.9520  -28.1680   22.9110 C   0  0  0  0  0  0  0  0  0  0  0  0
  -20.5180  -28.3970   23.1550 C   0  0  0  0  0  3  0  0  0  0  0  0
  -20.5930  -26.9690   22.5670 C   0  0  0  0  0  2  0  0  0  0  0  0
  -19.4800  -26.6750   21.5560 C   0  0  0  0  0  2  0  0  0  0  0  0
  -18.1050  -26.8280   22.2120 C   0  0  0  0  0  2  0  0  0  0  0  0
  -19.0840  -28.9130   23.3390 C   0  0  0  0  0  0  0  0  0  0  0  0
  -18.8830  -30.1650   23.9590 C   0  0  0  0  0  3  0  0  0  0  0  0
  -17.5850  -30.6740   24.1510 C   0  0  0  0  0  3  0  0  0  0  0  0
  -16.4680  -29.9290   23.7350 C   0  0  0  0  0  3  0  0  0  0  0  0
  -16.6530  -28.6770   23.1220 C   0  0  0  0  0  3  0  0  0  0  0  0
  -25.8310  -32.5080   23.8530 C   0  0  0  0  0  3  0  0  0  0  0  0
  -26.2950  -31.7710   25.1720 C   0  0  1  0  0  0  0  0  0  0  0  0
  -25.1650  -31.5760   26.2110 C   0  0  0  0  0  1  0  0  0  0  0  0
  -26.8780  -30.3760   24.8540 C   0  0  0  0  0  1  0  0  0  0  0  0
  -27.4320  -32.5750   25.8480 C   0  0  0  0  0  1  0  0  0  0  0  0
  -25.5070  -33.9150   24.1570 N   0  0  0  0  0  0  0  0  0  0  0  0
  -25.8680  -34.9700   23.4120 C   0  0  0  0  0  0  0  0  0  0  0  0
  -26.5640  -34.8590   22.4000 O   0  0  0  0  0  0  0  0  0  0  0  0
  -24.8890  -34.0750   24.9390 H   0  0  0  0  0  0  0  0  0  0  0  0
  -24.1680  -36.7880   23.0140 C   0  0  0  0  0  1  0  0  0  0  0  0
  -25.3840  -36.3670   23.8560 C   0  0  0  0  0  3  0  0  0  0  0  0
  -27.5000  -37.2440   24.7440 C   0  0  0  0  0  1  0  0  0  0  0  0
  -26.4290  -37.4110   23.7670 N   0  0  0  0  0  0  0  0  0  0  0  0
  -26.0260  -38.3360   23.8920 H   0  0  0  0  0  0  0  0  0  0  0  0
  2  5  1  0
  2  1  1  0
  3  2  2  0
  4  3  1  0
  5  7  2  0
  6  5  1  0
  8  7  1  0
  9 14  1  0
 10 11  1  0
 10  9  1  0
 12 11  1  0
 12 19  1  0
 12 13  1  0
 14  8  1  0
 14 13  1  0
 15  8  2  0
 16 17  2  0
 17 36  1  0
 18 17  1  0
 18 21  1  0
 19 16  1  0
 19 20  1  0
 20 18  2  0
 21 22  1  0
 22 23  2  0
 24 27  1  0
 24 23  1  0
 25 24  2  0
 26 25  1  0
 26 21  2  0
 27 28  1  0
 28 29  1  0
 29 30  2  0
 31 30  1  0
 31 35  1  0
 32 31  2  0
 33 28  2  0
 33 32  1  0
 34 33  1  0
 36 37  1  0
 37 40  1  0
 37 39  1  0
 38 36  2  0
 41 42  1  0
 41 16  1  0
 43 41  1  0
 44 45  1  0
 44  1  1  0
 46 57  2  0
 47 45  1  0
 47 52  1  0
 48 56  1  0
 48 58  1  0
 49 55  1  0
 49 51  1  0
 50 56  1  0
 51 52  2  0
 51 50  1  0
 53 47  2  0
 54 53  1  0
 54 49  2  0
 55 48  1  0
 56 46  1  0
 58 60  2  0
 59 58  1  0
 61 59  1  0
 62 71  2  0
 62 67  1  0
 63 59  1  0
 63 67  1  0
 64 63  1  0
 65 66  1  0
 65 64  1  0
 66 62  1  0
 67 68  2  0
 68 69  1  0
 70 69  2  0
 71 70  1  0
 72 46  1  0
 72 77  1  0
 72 73  1  0
 73 76  1  1
 73 74  1  0
 75 73  1  0
 77 80  1  0
 78 82  1  0
 78 77  1  0
 79 78  2  0
 82 81  1  0
 84 82  1  0
 84 85  1  0
 84 83  1  0
M  ISO  4   7 100   8 100  44 101  45 101
M  END
>  <TORSDO>  (75) 
F 19

>  <SCORE>  (75) 
-15.835

>  <name>  (75) 
75

>  <ligand_id>  (75) 
75

>  <original_smiles>  (75) 
[H]N=C(C(=NC(=O)N1C([H])([H])C([H])([H])C([H])([H])C([H])(n2nc(-c3c([H])c([H])c(Oc4c([H])c([H])c(F)c([H])c4F)c([H])c3[H])c(C(=O)N([H])[H])c2N([H])[H])C1([H])[H])C([H])([H])[H])C([H])([H])C([H])([H])Oc1c([H])c([H])c2c(c1[H])C([H])([H])N(C(=O)C([H])(N([H])C(=O)C([H])(N([H])C([H])([H])[H])C([H])([H])[H])C(C([H])([H])[H])(C([H])([H])[H])C([H])([H])[H])C([H])(C(=O)N([H])C1([H])c3c([H])c([H])c([H])c([H])c3C([H])([H])C([H])([H])C1([H])[H])C2([H])[H]

>  <smiles>  (75) 
[H]N=C(C(=NC(=O)N1C([H])([H])C([H])([H])C([H])([H])C([H])(n2nc(-c3c([H])c([H])c(Oc4c([H])c([H])c(F)c([H])c4F)c([H])c3[H])c(C(=O)N([H])[H])c2N([H])[H])C1([H])[H])C([H])([H])[H])C([H])([H])C([H])([H])Oc1c([H])c([H])c2c(c1[H])C([H])([H])N(C(=O)C([H])(N([H])C(=O)C([H])(N([H])C([H])([H])[H])C([H])([H])[H])C(C([H])([H])[H])(C([H])([H])[H])C([H])([H])[H])C([H])(C(=O)N([H])C1([H])c3c([H])c([H])c([H])c([H])c3C([H])([H])C([H])([H])C1([H])[H])C2([H])[H]

$$$$
76:0:0
     RDKit          3D

 91 99  0  0  1  0  0  0  0  0999 V2000
  -29.7250  -17.8440   21.2340 C   0  0  0  0  0  0  0  0  0  0  0  0
  -29.3300  -19.3260   21.0630 C   0  0  0  0  0  2  0  0  0  0  0  0
  -30.1330  -18.4220   19.0240 C   0  0  0  0  0  2  0  0  0  0  0  0
  -30.5610  -17.2990   20.0680 C   0  0  1  0  0  0  0  0  0  0  0  0
  -32.0590  -17.4560   20.4360 C   0  0  0  0  0  1  0  0  0  0  0  0
  -29.9620  -19.7320   19.7850 N   0  0  1  0  0  4  0  0  0  0  0  0
  -29.3840  -17.1470   22.1940 O   0  0  0  0  0  0  0  0  0  0  0  0
  -30.9030  -20.0030   20.0300 H   0  0  0  0  0  0  0  0  0  0  0  0
  -30.9740  -14.7120   19.4470 C   0  0  0  0  0  0  0  0  0  0  0  0
  -30.6420  -12.4230   18.5030 C   0  0  0  0  0  2  0  0  0  0  0  0
  -29.5530  -12.4780   17.4090 C   0  0  0  0  0  2  0  0  0  0  0  0
  -28.1480  -12.3300   18.0270 C   0  0  0  0  0  2  0  0  0  0  0  0
  -27.9370  -13.2500   19.2580 C   0  0  0  0  0  3  0  0  0  0  0  0
  -29.1270  -13.1650   20.2380 C   0  0  0  0  0  2  0  0  0  0  0  0
  -30.3420  -13.4930   19.4800 N   0  0  0  0  0  0  0  0  0  0  0  0
  -32.0950  -14.8200   18.9440 O   0  0  0  0  0  0  0  0  0  0  0  0
  -30.2410  -15.8160   19.8330 N   0  0  0  0  0  0  0  0  0  0  0  0
  -29.3240  -15.5660   20.1740 H   0  0  0  0  0  0  0  0  0  0  0  0
  -25.7260  -13.8960   20.3900 C   0  0  0  0  0  0  0  0  0  0  0  0
  -24.6770  -13.1450   20.8490 C   0  0  0  0  0  0  0  0  0  0  0  0
  -25.0390  -11.7820   20.6250 C   0  0  0  0  0  0  0  0  0  0  0  0
  -26.6630  -12.9900   19.9200 N   0  0  0  0  0  0  0  0  0  0  0  0
  -26.2650  -11.7070   20.1210 N   0  0  0  0  0  0  0  0  0  0  0  0
  -24.2650  -10.5470   20.8070 C   0  0  0  0  0  0  0  0  0  0  0  0
  -24.6870   -9.5370   21.7010 C   0  0  0  0  0  3  0  0  0  0  0  0
  -23.9150   -8.3670   21.8720 C   0  0  0  0  0  3  0  0  0  0  0  0
  -22.7090   -8.2000   21.1520 C   0  0  0  0  0  0  0  0  0  0  0  0
  -22.3060   -9.1980   20.2480 C   0  0  0  0  0  3  0  0  0  0  0  0
  -23.0780  -10.3590   20.0730 C   0  0  0  0  0  3  0  0  0  0  0  0
  -21.9090   -7.0860   21.2360 O   0  0  0  0  0  0  0  0  0  0  0  0
  -21.7590   -6.3950   22.4120 C   0  0  0  0  0  0  0  0  0  0  0  0
  -21.2100   -6.9960   23.5650 C   0  0  0  0  0  3  0  0  0  0  0  0
  -21.0100   -6.2300   24.7300 C   0  0  0  0  0  3  0  0  0  0  0  0
  -21.3470   -4.8640   24.7430 C   0  0  0  0  0  0  0  0  0  0  0  0
  -21.8900   -4.2620   23.5940 C   0  0  0  0  0  3  0  0  0  0  0  0
  -22.0920   -5.0250   22.4300 C   0  0  0  0  0  0  0  0  0  0  0  0
  -22.5950   -4.4360   21.3190 F   0  0  0  0  0  0  0  0  0  0  0  0
  -21.1490   -4.1250   25.8600 F   0  0  0  0  0  0  0  0  0  0  0  0
  -23.3700  -13.6660   21.3710 C   0  0  0  0  0  0  0  0  0  0  0  0
  -22.7310  -12.9260   22.2710 N   0  0  0  0  0  0  0  0  0  0  0  0
  -22.9310  -14.7600   21.0180 O   0  0  0  0  0  0  0  0  0  0  0  0
  -23.1030  -12.0390   22.5750 H   0  0  0  0  0  0  0  0  0  0  0  0
  -21.8590  -13.2520   22.6610 H   0  0  0  0  0  0  0  0  0  0  0  0
  -25.9510  -15.2670   20.3090 N   0  0  0  0  0  0  0  0  0  0  0  0
  -25.2380  -15.9380   20.5740 H   0  0  0  0  0  0  0  0  0  0  0  0
  -26.7320  -15.6900   19.8280 H   0  0  0  0  0  0  0  0  0  0  0  0
  -29.3630  -20.9650   19.0850 C   0  0  0  0  0  3  0  0  0  0  0  0
  -29.1200  -22.3200   19.9370 C   0  0  0  0  0  3  0  0  0  0  0  0
  -28.8070  -23.7290   19.2020 C   0  0  0  0  0  2  0  0  0  0  0  0
  -28.2880  -24.9830   20.0730 C   0  0  0  0  0  2  0  0  0  0  0  0
  -28.3950  -26.3930   19.5900 O   0  0  0  0  0  0  0  0  0  0  0  0
  -24.5960  -31.5220   23.0360 C   0  0  0  0  0  0  0  0  0  0  0  0
  -27.2630  -27.2230   19.6600 C   0  0  0  0  0  0  0  0  0  0  0  0
  -23.4040  -30.2170   21.3120 C   0  0  0  0  0  3  0  0  0  0  0  0
  -24.8700  -28.7910   19.7720 C   0  0  0  0  0  0  0  0  0  0  0  0
  -25.9350  -30.5950   21.1290 C   0  0  0  0  0  2  0  0  0  0  0  0
  -26.0360  -29.2640   20.3890 C   0  0  0  0  0  0  0  0  0  0  0  0
  -27.2390  -28.4960   20.3170 C   0  0  0  0  0  3  0  0  0  0  0  0
  -26.0750  -26.8020   19.0280 C   0  0  0  0  0  3  0  0  0  0  0  0
  -24.8930  -27.5680   19.0810 C   0  0  0  0  0  3  0  0  0  0  0  0
  -23.6180  -29.6390   19.8870 C   0  0  0  0  0  2  0  0  0  0  0  0
  -24.6650  -30.7930   21.8840 N   0  0  0  0  0  0  0  0  0  0  0  0
  -23.5130  -31.7400   23.5980 O   0  0  0  0  0  0  0  0  0  0  0  0
  -22.7680  -29.1260   22.2060 C   0  0  0  0  0  0  0  0  0  0  0  0
  -21.4390  -28.9580   22.1030 N   0  0  0  0  0  0  0  0  0  0  0  0
  -23.4690  -28.4360   22.9510 O   0  0  0  0  0  0  0  0  0  0  0  0
  -20.9320  -29.5680   21.4770 H   0  0  0  0  0  0  0  0  0  0  0  0
  -18.0690  -27.7570   22.6440 C   0  0  0  0  0  0  0  0  0  0  0  0
  -20.6410  -27.9600   22.8170 C   0  0  0  0  0  3  0  0  0  0  0  0
  -20.6940  -26.5900   22.1020 C   0  0  0  0  0  2  0  0  0  0  0  0
  -19.5410  -26.3790   21.1140 C   0  0  0  0  0  2  0  0  0  0  0  0
  -18.1930  -26.4780   21.8330 C   0  0  0  0  0  2  0  0  0  0  0  0
  -19.2180  -28.4600   23.0920 C   0  0  0  0  0  0  0  0  0  0  0  0
  -19.0460  -29.6620   23.8120 C   0  0  0  0  0  3  0  0  0  0  0  0
  -17.7580  -30.1600   24.0880 C   0  0  0  0  0  3  0  0  0  0  0  0
  -16.6240  -29.4510   23.6540 C   0  0  0  0  0  3  0  0  0  0  0  0
  -16.7800  -28.2500   22.9380 C   0  0  0  0  0  3  0  0  0  0  0  0
  -25.8730  -32.1350   23.6910 C   0  0  0  0  0  3  0  0  0  0  0  0
  -26.3940  -31.3060   24.9290 C   0  0  1  0  0  0  0  0  0  0  0  0
  -25.3000  -31.0050   25.9800 C   0  0  0  0  0  1  0  0  0  0  0  0
  -26.9920  -29.9570   24.4710 C   0  0  0  0  0  1  0  0  0  0  0  0
  -27.5330  -32.0790   25.6350 C   0  0  0  0  0  1  0  0  0  0  0  0
  -25.5500  -33.5120   24.0910 N   0  0  0  0  0  0  0  0  0  0  0  0
  -25.8670  -34.6050   23.3830 C   0  0  0  0  0  0  0  0  0  0  0  0
  -26.5300  -34.5600   22.3440 O   0  0  0  0  0  0  0  0  0  0  0  0
  -24.9600  -33.6210   24.9020 H   0  0  0  0  0  0  0  0  0  0  0  0
  -24.1180  -36.3950   23.1310 C   0  0  0  0  0  1  0  0  0  0  0  0
  -25.3690  -35.9640   23.9130 C   0  0  0  0  0  3  0  0  0  0  0  0
  -27.4910  -36.8410   24.7860 C   0  0  0  0  0  1  0  0  0  0  0  0
  -26.3910  -37.0330   23.8440 N   0  0  0  0  0  0  0  0  0  0  0  0
  -25.9730  -37.9420   24.0240 H   0  0  0  0  0  0  0  0  0  0  0  0
  1  7  2  0
  2  1  1  0
  3  6  1  0
  3  4  1  0
  4  5  1  1
  4  1  1  0
  6  8  1  1
  6  2  1  0
  9 15  1  0
  9 17  1  0
 10 15  1  0
 11 12  1  0
 11 10  1  0
 13 12  1  0
 13 22  1  0
 13 14  1  0
 15 14  1  0
 16  9  2  0
 17  4  1  0
 17 18  1  0
 19 20  2  0
 20 39  1  0
 21 24  1  0
 21 20  1  0
 22 23  1  0
 22 19  1  0
 23 21  2  0
 24 25  1  0
 25 26  2  0
 27 30  1  0
 27 26  1  0
 28 27  2  0
 29 28  1  0
 29 24  2  0
 30 31  1  0
 31 36  2  0
 31 32  1  0
 32 33  2  0
 33 34  1  0
 34 38  1  0
 35 34  2  0
 36 35  1  0
 37 36  1  0
 39 40  1  0
 40 42  1  0
 40 43  1  0
 41 39  2  0
 44 19  1  0
 44 45  1  0
 46 44  1  0
 47  6  1  0
 47 48  2  0
 49 48  1  0
 49 50  1  0
 51 53  1  0
 51 50  1  0
 52 63  2  0
 53 58  1  0
 54 62  1  0
 54 64  1  0
 55 61  1  0
 55 57  1  0
 56 62  1  0
 57 56  1  0
 58 57  2  0
 59 60  1  0
 59 53  2  0
 60 55  2  0
 61 54  1  0
 62 52  1  0
 64 66  2  0
 65 64  1  0
 67 65  1  0
 68 77  2  0
 68 73  1  0
 69 65  1  0
 69 73  1  0
 70 69  1  0
 71 72  1  0
 71 70  1  0
 72 68  1  0
 73 74  2  0
 74 75  1  0
 76 75  2  0
 77 76  1  0
 78 52  1  0
 78 83  1  0
 78 79  1  0
 79 82  1  1
 79 80  1  0
 81 79  1  0
 83 86  1  0
 84 88  1  0
 84 83  1  0
 85 84  2  0
 88 87  1  0
 90 88  1  0
 90 91  1  0
 90 89  1  0
M  ISO  4   9 100  17 100  50 101  51 101
M  END
>  <TORSDO>  (76) 
F 20

>  <SCORE>  (76) 
-11.758

>  <name>  (76) 
76

>  <ligand_id>  (76) 
76

>  <original_smiles>  (76) 
[H]c1c([H])c([H])c2c(c1[H])C([H])([H])C([H])([H])C([H])([H])C2([H])N([H])C(=O)C1([H])N(C(=O)C([H])(N([H])C(=O)C([H])(N([H])C([H])([H])[H])C([H])([H])[H])C(C([H])([H])[H])(C([H])([H])[H])C([H])([H])[H])C([H])([H])c2c([H])c(OC([H])([H])C([H])([H])C([H])([H])C([H])([H])[N+]3([H])C([H])([H])C(=O)C(N([H])C(=O)N4C([H])([H])C([H])([H])C([H])([H])C([H])(n5nc(-c6c([H])c([H])c(Oc7c([H])c([H])c(F)c([H])c7F)c([H])c6[H])c(C(=O)N([H])[H])c5N([H])[H])C4([H])[H])(C([H])([H])[H])C3([H])[H])c([H])c([H])c2C1([H])[H]

>  <smiles>  (76) 
[H]c1c([H])c([H])c2c(c1[H])C([H])([H])C([H])([H])C([H])([H])C2([H])N([H])C(=O)C1([H])N(C(=O)C([H])(N([H])C(=O)C([H])(N([H])C([H])([H])[H])C([H])([H])[H])C(C([H])([H])[H])(C([H])([H])[H])C([H])([H])[H])C([H])([H])c2c([H])c(OC([H])([H])C([H])([H])C([H])([H])C([H])([H])[N+]3([H])C([H])([H])C(=O)C(N([H])C(=O)N4C([H])([H])C([H])([H])C([H])([H])C([H])(n5nc(-c6c([H])c([H])c(Oc7c([H])c([H])c(F)c([H])c7F)c([H])c6[H])c(C(=O)N([H])[H])c5N([H])[H])C4([H])[H])(C([H])([H])[H])C3([H])[H])c([H])c([H])c2C1([H])[H]

$$$$
77:0:0
     RDKit          3D

 93100  0  0  1  0  0  0  0  0999 V2000
  -28.6840  -21.0910   21.4460 C   0  0  0  0  0  0  0  0  0  0  0  0
  -28.3850  -22.2990   20.9470 N   0  0  0  0  0  0  0  0  0  0  0  0
  -29.3260  -20.9430   22.4870 O   0  0  0  0  0  0  0  0  0  0  0  0
  -27.8280  -22.3260   20.1030 H   0  0  0  0  0  0  0  0  0  0  0  0
  -28.2140  -19.8700   20.6430 C   0  0  0  0  0  2  0  0  0  0  0  0
  -30.1120  -18.3510   19.9660 C   0  0  0  0  0  3  0  0  0  0  0  0
  -29.0540  -18.6010   20.7560 C   0  0  0  0  0  3  0  0  0  0  0  0
  -31.1690  -14.7210   19.9910 C   0  0  0  0  0  0  0  0  0  0  0  0
  -30.7720  -12.5140   18.9870 C   0  0  0  0  0  2  0  0  0  0  0  0
  -29.8120  -12.6750   17.7920 C   0  0  0  0  0  2  0  0  0  0  0  0
  -28.3460  -12.5710   18.2650 C   0  0  0  0  0  2  0  0  0  0  0  0
  -28.0430  -13.4870   19.4840 C   0  0  0  0  0  3  0  0  0  0  0  0
  -29.1290  -13.3400   20.5780 C   0  0  0  0  0  2  0  0  0  0  0  0
  -30.4390  -13.5720   19.9540 N   0  0  0  0  0  0  0  0  0  0  0  0
  -32.3340  -14.7880   19.5780 O   0  0  0  0  0  0  0  0  0  0  0  0
  -30.9530  -17.2100   19.9840 C   0  0  0  0  0  0  0  0  0  0  0  0
  -30.4560  -15.9590   20.2300 N   0  0  0  0  0  0  0  0  0  0  0  0
  -32.2330  -17.4620   19.6490 N   0  0  0  0  0  4  0  0  0  0  0  0
  -29.4910  -15.9570   20.5060 H   0  0  0  0  0  0  0  0  0  0  0  0
  -32.5580  -18.3930   19.4350 H   0  0  0  0  0  0  0  0  0  0  0  0
  -32.8790  -16.6820   19.5570 H   0  0  0  0  0  0  0  0  0  0  0  0
  -25.7010  -14.1590   20.3110 C   0  0  0  0  0  0  0  0  0  0  0  0
  -24.6250  -13.4140   20.7080 C   0  0  0  0  0  0  0  0  0  0  0  0
  -25.0400  -12.0470   20.6380 C   0  0  0  0  0  0  0  0  0  0  0  0
  -26.7050  -13.2470   20.0190 N   0  0  0  0  0  0  0  0  0  0  0  0
  -26.3150  -11.9720   20.2750 N   0  0  0  0  0  0  0  0  0  0  0  0
  -24.2790  -10.8060   20.8290 C   0  0  0  0  0  0  0  0  0  0  0  0
  -24.6670   -9.8450   21.7890 C   0  0  0  0  0  3  0  0  0  0  0  0
  -23.9090   -8.6670   21.9690 C   0  0  0  0  0  3  0  0  0  0  0  0
  -22.7490   -8.4420   21.1900 C   0  0  0  0  0  0  0  0  0  0  0  0
  -22.3800   -9.3920   20.2200 C   0  0  0  0  0  3  0  0  0  0  0  0
  -23.1390  -10.5600   20.0390 C   0  0  0  0  0  3  0  0  0  0  0  0
  -21.9610   -7.3180   21.2800 O   0  0  0  0  0  0  0  0  0  0  0  0
  -21.8060   -6.6430   22.4640 C   0  0  0  0  0  0  0  0  0  0  0  0
  -21.2740   -7.2680   23.6140 C   0  0  0  0  0  3  0  0  0  0  0  0
  -21.0710   -6.5200   24.7890 C   0  0  0  0  0  3  0  0  0  0  0  0
  -21.3880   -5.1480   24.8160 C   0  0  0  0  0  0  0  0  0  0  0  0
  -21.9130   -4.5240   23.6720 C   0  0  0  0  0  3  0  0  0  0  0  0
  -22.1210   -5.2700   22.4980 C   0  0  0  0  0  0  0  0  0  0  0  0
  -22.6070   -4.6580   21.3910 F   0  0  0  0  0  0  0  0  0  0  0  0
  -21.1810   -4.4280   25.9440 F   0  0  0  0  0  0  0  0  0  0  0  0
  -23.2560  -13.9320   21.0390 C   0  0  0  0  0  0  0  0  0  0  0  0
  -22.5420  -13.2540   21.9300 N   0  0  0  0  0  0  0  0  0  0  0  0
  -22.8320  -14.9740   20.5420 O   0  0  0  0  0  0  0  0  0  0  0  0
  -22.8910  -12.4080   22.3530 H   0  0  0  0  0  0  0  0  0  0  0  0
  -21.6270  -13.5910   22.1960 H   0  0  0  0  0  0  0  0  0  0  0  0
  -25.8980  -15.5290   20.1540 N   0  0  0  0  0  0  0  0  0  0  0  0
  -25.1400  -16.1880   20.3080 H   0  0  0  0  0  0  0  0  0  0  0  0
  -26.7220  -15.9690   19.7660 H   0  0  0  0  0  0  0  0  0  0  0  0
  -28.8600  -23.5790   21.4790 C   0  0  0  0  0  2  0  0  0  0  0  0
  -28.3870  -24.7550   20.6000 C   0  0  0  0  0  2  0  0  0  0  0  0
  -28.8980  -26.1310   21.0750 C   0  0  0  0  0  2  0  0  0  0  0  0
  -28.6960  -27.1260   20.0750 O   0  0  0  0  0  0  0  0  0  0  0  0
  -24.5220  -31.9260   23.2640 C   0  0  0  0  0  0  0  0  0  0  0  0
  -27.4800  -27.7590   20.1180 C   0  0  0  0  0  0  0  0  0  0  0  0
  -23.4300  -30.5110   21.5480 C   0  0  0  0  0  3  0  0  0  0  0  0
  -25.0000  -29.1010   20.1180 C   0  0  0  0  0  0  0  0  0  0  0  0
  -25.9300  -31.0260   21.4160 C   0  0  0  0  0  2  0  0  0  0  0  0
  -26.1080  -29.6770   20.7520 C   0  0  0  0  0  0  0  0  0  0  0  0
  -27.3510  -29.0100   20.7540 C   0  0  0  0  0  3  0  0  0  0  0  0
  -26.3620  -27.1870   19.4800 C   0  0  0  0  0  3  0  0  0  0  0  0
  -25.1190  -27.8510   19.4800 C   0  0  0  0  0  3  0  0  0  0  0  0
  -23.7070  -29.8820   20.1550 C   0  0  0  0  0  2  0  0  0  0  0  0
  -24.6430  -31.1690   22.1360 N   0  0  0  0  0  0  0  0  0  0  0  0
  -23.4150  -32.1170   23.7870 O   0  0  0  0  0  0  0  0  0  0  0  0
  -22.8190  -29.4250   22.4630 C   0  0  0  0  0  0  0  0  0  0  0  0
  -21.5140  -29.1660   22.2880 N   0  0  0  0  0  0  0  0  0  0  0  0
  -23.5170  -28.8220   23.2840 O   0  0  0  0  0  0  0  0  0  0  0  0
  -21.0130  -29.7080   21.5990 H   0  0  0  0  0  0  0  0  0  0  0  0
  -18.2020  -27.7640   22.6420 C   0  0  0  0  0  0  0  0  0  0  0  0
  -20.7330  -28.1560   23.0030 C   0  0  0  0  0  3  0  0  0  0  0  0
  -20.9350  -26.7540   22.3830 C   0  0  0  0  0  2  0  0  0  0  0  0
  -19.8840  -26.4030   21.3280 C   0  0  0  0  0  2  0  0  0  0  0  0
  -18.4770  -26.4490   21.9330 C   0  0  0  0  0  2  0  0  0  0  0  0
  -19.2630  -28.5720   23.1300 C   0  0  0  0  0  0  0  0  0  0  0  0
  -18.9550  -29.8050   23.7500 C   0  0  0  0  0  3  0  0  0  0  0  0
  -17.6190  -30.2240   23.8910 C   0  0  0  0  0  3  0  0  0  0  0  0
  -16.5720  -29.4100   23.4240 C   0  0  0  0  0  3  0  0  0  0  0  0
  -16.8650  -28.1830   22.8040 C   0  0  0  0  0  3  0  0  0  0  0  0
  -25.7560  -32.6060   23.9350 C   0  0  0  0  0  3  0  0  0  0  0  0
  -25.3900  -33.9970   24.2290 N   0  0  0  0  0  0  0  0  0  0  0  0
  -25.7140  -35.0470   23.4620 C   0  0  0  0  0  0  0  0  0  0  0  0
  -26.4280  -34.9480   22.4600 O   0  0  0  0  0  0  0  0  0  0  0  0
  -24.7640  -34.1460   25.0070 H   0  0  0  0  0  0  0  0  0  0  0  0
  -23.9350  -36.7680   23.0180 C   0  0  0  0  0  1  0  0  0  0  0  0
  -25.1620  -36.4250   23.8770 C   0  0  0  0  0  3  0  0  0  0  0  0
  -27.2300  -37.4080   24.7620 C   0  0  0  0  0  1  0  0  0  0  0  0
  -26.1580  -37.5130   23.7750 N   0  0  0  0  0  0  0  0  0  0  0  0
  -25.7120  -38.4200   23.8890 H   0  0  0  0  0  0  0  0  0  0  0  0
  -26.2380  -31.8660   25.2440 C   0  0  1  0  0  0  0  0  0  0  0  0
  -25.1060  -31.5890   26.2580 C   0  0  0  0  0  1  0  0  0  0  0  0
  -26.8960  -30.5130   24.8880 C   0  0  0  0  0  1  0  0  0  0  0  0
  -27.3170  -32.7130   25.9570 C   0  0  0  0  0  1  0  0  0  0  0  0
  1  3  2  0
  2  1  1  0
  2 50  1  0
  4  2  1  0
  5  7  1  0
  5  1  1  0
  6 16  1  0
  6  7  2  0
  8 17  1  0
  9 14  1  0
 10 11  1  0
 10  9  1  0
 12 11  1  0
 12 25  1  0
 12 13  1  0
 14  8  1  0
 14 13  1  0
 15  8  2  0
 16 17  1  0
 17 19  1  0
 18 16  2  0
 20 18  1  0
 21 18  1  0
 22 23  2  0
 23 42  1  0
 24 23  1  0
 24 27  1  0
 25 26  1  0
 25 22  1  0
 26 24  2  0
 27 28  1  0
 28 29  2  0
 30 33  1  0
 30 29  1  0
 31 30  2  0
 32 31  1  0
 32 27  2  0
 33 34  1  0
 34 39  2  0
 34 35  1  0
 35 36  2  0
 36 37  1  0
 37 41  1  0
 38 37  2  0
 39 38  1  0
 40 39  1  0
 42 43  1  0
 43 46  1  0
 43 45  1  0
 44 42  2  0
 47 48  1  0
 47 22  1  0
 49 47  1  0
 51 52  1  0
 51 50  1  0
 53 55  1  0
 53 52  1  0
 54 65  2  0
 55 60  1  0
 56 64  1  0
 56 66  1  0
 57 63  1  0
 57 59  1  0
 58 64  1  0
 59 60  2  0
 59 58  1  0
 61 62  1  0
 61 55  2  0
 62 57  2  0
 63 56  1  0
 64 54  1  0
 66 68  2  0
 67 66  1  0
 69 67  1  0
 70 79  2  0
 70 75  1  0
 71 67  1  0
 71 75  1  0
 72 71  1  0
 73 74  1  0
 73 72  1  0
 74 70  1  0
 75 76  2  0
 76 77  1  0
 78 77  2  0
 79 78  1  0
 80 54  1  0
 80 81  1  0
 80 90  1  0
 81 84  1  0
 82 86  1  0
 82 81  1  0
 83 82  2  0
 86 85  1  0
 88 86  1  0
 88 89  1  0
 88 87  1  0
 90 93  1  1
 90 91  1  0
 92 90  1  0
M  ISO  4   8 100  17 100  52 101  53 101
M  END
>  <TORSDO>  (77) 
F 21

>  <SCORE>  (77) 
-12.479

>  <name>  (77) 
77

>  <ligand_id>  (77) 
77

>  <original_smiles>  (77) 
[H]C(=C([H])C([H])([H])C(=O)N([H])C([H])([H])C([H])([H])C([H])([H])Oc1c([H])c([H])c2c(c1[H])C([H])([H])N(C(=O)C([H])(N([H])C(=O)C([H])(N([H])C([H])([H])[H])C([H])([H])[H])C(C([H])([H])[H])(C([H])([H])[H])C([H])([H])[H])C([H])(C(=O)N([H])C1([H])c3c([H])c([H])c([H])c([H])c3C([H])([H])C([H])([H])C1([H])[H])C2([H])[H])C(N([H])C(=O)N1C([H])([H])C([H])([H])C([H])([H])C([H])(n2nc(-c3c([H])c([H])c(Oc4c([H])c([H])c(F)c([H])c4F)c([H])c3[H])c(C(=O)N([H])[H])c2N([H])[H])C1([H])[H])=[N+]([H])[H]

>  <smiles>  (77) 
[H]C(=C([H])C([H])([H])C(=O)N([H])C([H])([H])C([H])([H])C([H])([H])Oc1c([H])c([H])c2c(c1[H])C([H])([H])N(C(=O)C([H])(N([H])C(=O)C([H])(N([H])C([H])([H])[H])C([H])([H])[H])C(C([H])([H])[H])(C([H])([H])[H])C([H])([H])[H])C([H])(C(=O)N([H])C1([H])c3c([H])c([H])c([H])c([H])c3C([H])([H])C([H])([H])C1([H])[H])C2([H])[H])C(N([H])C(=O)N1C([H])([H])C([H])([H])C([H])([H])C([H])(n2nc(-c3c([H])c([H])c(Oc4c([H])c([H])c(F)c([H])c4F)c([H])c3[H])c(C(=O)N([H])[H])c2N([H])[H])C1([H])[H])=[N+]([H])[H]

$$$$
78:0:0
     RDKit          3D

 89 96  0  0  1  0  0  0  0  0999 V2000
  -28.9230  -19.9170   20.1330 C   0  0  0  0  0  0  0  0  0  0  0  0
  -30.2970  -21.6620   21.3220 C   0  0  0  0  0  1  0  0  0  0  0  0
  -29.1590  -21.3490   20.4580 N   0  0  0  0  0  0  0  0  0  0  0  0
  -27.8820  -19.6900   19.5140 O   0  0  0  0  0  0  0  0  0  0  0  0
  -28.5280  -22.7970   19.9240 C   0  0  0  0  0  2  0  0  0  0  0  0
  -28.2130  -24.3710   20.7110 C   0  0  0  0  0  2  0  0  0  0  0  0
  -28.2800  -25.9590   20.3000 O   0  0  0  0  0  0  0  0  0  0  0  0
  -24.6370  -31.8840   23.2480 C   0  0  0  0  0  0  0  0  0  0  0  0
  -27.2270  -27.0040   20.3170 C   0  0  0  0  0  0  0  0  0  0  0  0
  -23.4590  -30.4700   21.6130 C   0  0  0  0  0  3  0  0  0  0  0  0
  -24.9200  -28.8530   20.2270 C   0  0  0  0  0  0  0  0  0  0  0  0
  -26.0230  -30.6950   21.4820 C   0  0  0  0  0  2  0  0  0  0  0  0
  -26.1020  -29.2790   20.8450 C   0  0  0  0  0  0  0  0  0  0  0  0
  -27.2550  -28.3790   20.8560 C   0  0  0  0  0  3  0  0  0  0  0  0
  -26.0120  -26.7120   19.6620 C   0  0  0  0  0  3  0  0  0  0  0  0
  -24.8980  -27.5890   19.6140 C   0  0  0  0  0  3  0  0  0  0  0  0
  -23.7000  -29.7690   20.2480 C   0  0  0  0  0  2  0  0  0  0  0  0
  -24.7270  -31.0440   22.1680 N   0  0  0  0  0  0  0  0  0  0  0  0
  -23.5440  -32.1750   23.7600 O   0  0  0  0  0  0  0  0  0  0  0  0
  -22.7620  -29.4810   22.5830 C   0  0  0  0  0  0  0  0  0  0  0  0
  -21.4320  -29.3190   22.4550 N   0  0  0  0  0  0  0  0  0  0  0  0
  -23.4240  -28.8580   23.4170 O   0  0  0  0  0  0  0  0  0  0  0  0
  -20.9520  -29.8720   21.7570 H   0  0  0  0  0  0  0  0  0  0  0  0
  -18.0430  -28.1350   22.9700 C   0  0  0  0  0  0  0  0  0  0  0  0
  -20.6040  -28.3880   23.2300 C   0  0  0  0  0  3  0  0  0  0  0  0
  -20.6970  -26.9540   22.6600 C   0  0  0  0  0  2  0  0  0  0  0  0
  -19.5930  -26.6350   21.6480 C   0  0  0  0  0  2  0  0  0  0  0  0
  -18.2130  -26.7850   22.2940 C   0  0  0  0  0  2  0  0  0  0  0  0
  -19.1660  -28.8940   23.3950 C   0  0  0  0  0  0  0  0  0  0  0  0
  -18.9520  -30.1550   23.9930 C   0  0  0  0  0  3  0  0  0  0  0  0
  -17.6500  -30.6590   24.1670 C   0  0  0  0  0  3  0  0  0  0  0  0
  -16.5410  -29.8970   23.7570 C   0  0  0  0  0  3  0  0  0  0  0  0
  -16.7380  -28.6390   23.1640 C   0  0  0  0  0  3  0  0  0  0  0  0
  -25.9020  -32.5340   23.8840 C   0  0  0  0  0  3  0  0  0  0  0  0
  -25.5820  -33.9400   24.1910 N   0  0  0  0  0  0  0  0  0  0  0  0
  -25.9260  -34.9890   23.4330 C   0  0  0  0  0  0  0  0  0  0  0  0
  -26.6090  -34.8770   22.4120 O   0  0  0  0  0  0  0  0  0  0  0  0
  -24.9730  -34.1000   24.9810 H   0  0  0  0  0  0  0  0  0  0  0  0
  -24.2080  -36.7910   23.0500 C   0  0  0  0  0  1  0  0  0  0  0  0
  -25.4380  -36.3840   23.8770 C   0  0  0  0  0  3  0  0  0  0  0  0
  -27.5610  -37.2750   24.7300 C   0  0  0  0  0  1  0  0  0  0  0  0
  -26.4740  -37.4340   23.7690 N   0  0  0  0  0  0  0  0  0  0  0  0
  -26.0680  -38.3560   23.9010 H   0  0  0  0  0  0  0  0  0  0  0  0
  -26.3900  -31.7920   25.1890 C   0  0  1  0  0  0  0  0  0  0  0  0
  -25.2750  -31.5850   26.2410 C   0  0  0  0  0  1  0  0  0  0  0  0
  -26.9780  -30.4020   24.8500 C   0  0  0  0  0  1  0  0  0  0  0  0
  -27.5290  -32.5990   25.8560 C   0  0  0  0  0  1  0  0  0  0  0  0
  -29.8990  -18.4830   20.3630 C   0  0  0  0  0  3  0  0  0  0  0  0
  -31.0100  -18.6440   19.4090 N   0  0  0  0  0  4  0  0  0  0  0  0
  -30.6780  -18.5170   18.4680 H   0  0  0  0  0  0  0  0  0  0  0  0
  -31.7370  -17.9770   19.5900 H   0  0  0  0  0  0  0  0  0  0  0  0
  -31.3970  -19.5670   19.4730 H   0  0  0  0  0  0  0  0  0  0  0  0
  -29.4580  -16.7480   20.3200 C   0  0  0  0  0  2  0  0  0  0  0  0
  -30.3600  -15.2530   20.2190 C   0  0  0  0  0  0  0  0  0  0  0  0
  -30.3700  -12.8240   19.3150 C   0  0  0  0  0  2  0  0  0  0  0  0
  -29.4290  -12.6850   18.0890 C   0  0  0  0  0  2  0  0  0  0  0  0
  -27.9780  -12.4200   18.5340 C   0  0  0  0  0  2  0  0  0  0  0  0
  -27.5500  -13.3500   19.6960 C   0  0  0  0  0  3  0  0  0  0  0  0
  -28.6110  -13.4330   20.8110 C   0  0  0  0  0  2  0  0  0  0  0  0
  -29.8500  -13.9300   20.1960 N   0  0  0  0  0  0  0  0  0  0  0  0
  -31.5730  -15.2980   19.9680 O   0  0  0  0  0  0  0  0  0  0  0  0
  -25.1790  -13.8940   20.4630 C   0  0  0  0  0  0  0  0  0  0  0  0
  -24.1240  -13.1100   20.8390 C   0  0  0  0  0  0  0  0  0  0  0  0
  -24.6020  -11.7630   20.8060 C   0  0  0  0  0  0  0  0  0  0  0  0
  -26.2260  -13.0270   20.2110 N   0  0  0  0  0  0  0  0  0  0  0  0
  -25.8920  -11.7400   20.4860 N   0  0  0  0  0  0  0  0  0  0  0  0
  -23.8860  -10.4960   21.0010 C   0  0  0  0  0  0  0  0  0  0  0  0
  -24.3210   -9.5360   21.9410 C   0  0  0  0  0  3  0  0  0  0  0  0
  -23.6020   -8.3350   22.1240 C   0  0  0  0  0  3  0  0  0  0  0  0
  -22.4340   -8.0850   21.3660 C   0  0  0  0  0  0  0  0  0  0  0  0
  -22.0180   -9.0330   20.4140 C   0  0  0  0  0  3  0  0  0  0  0  0
  -22.7370  -10.2250   20.2300 C   0  0  0  0  0  3  0  0  0  0  0  0
  -21.6870   -6.9350   21.4580 O   0  0  0  0  0  0  0  0  0  0  0  0
  -21.6280   -6.2050   22.6170 C   0  0  0  0  0  0  0  0  0  0  0  0
  -21.1670   -6.7670   23.8290 C   0  0  0  0  0  3  0  0  0  0  0  0
  -21.0570   -5.9630   24.9800 C   0  0  0  0  0  3  0  0  0  0  0  0
  -21.3960   -4.5970   24.9220 C   0  0  0  0  0  0  0  0  0  0  0  0
  -21.8500   -4.0360   23.7170 C   0  0  0  0  0  3  0  0  0  0  0  0
  -21.9630   -4.8370   22.5660 C   0  0  0  0  0  0  0  0  0  0  0  0
  -22.3790   -4.2850   21.4020 F   0  0  0  0  0  0  0  0  0  0  0  0
  -21.2840   -3.8230   26.0260 F   0  0  0  0  0  0  0  0  0  0  0  0
  -22.7240  -13.5760   21.1140 C   0  0  0  0  0  0  0  0  0  0  0  0
  -22.0040  -12.8730   21.9800 N   0  0  0  0  0  0  0  0  0  0  0  0
  -22.2800  -14.6000   20.5980 O   0  0  0  0  0  0  0  0  0  0  0  0
  -22.3760  -12.0420   22.4180 H   0  0  0  0  0  0  0  0  0  0  0  0
  -21.0650  -13.1690   22.2090 H   0  0  0  0  0  0  0  0  0  0  0  0
  -25.3290  -15.2670   20.2880 N   0  0  0  0  0  0  0  0  0  0  0  0
  -24.5580  -15.9130   20.4120 H   0  0  0  0  0  0  0  0  0  0  0  0
  -26.1710  -15.7180   19.9500 H   0  0  0  0  0  0  0  0  0  0  0  0
  1 48  1  0
  1  3  1  0
  3  2  1  0
  4  1  2  0
  5  3  1  0
  5  6  1  0
  7  9  1  0
  7  6  1  0
  8 19  2  0
  9 14  1  0
 10 18  1  0
 10 20  1  0
 11 17  1  0
 11 13  1  0
 12 18  1  0
 13 14  2  0
 13 12  1  0
 15  9  2  0
 16 15  1  0
 16 11  2  0
 17 10  1  0
 18  8  1  0
 20 22  2  0
 21 20  1  0
 23 21  1  0
 24 33  2  0
 24 29  1  0
 25 21  1  0
 25 29  1  0
 26 25  1  0
 27 28  1  0
 27 26  1  0
 28 24  1  0
 29 30  2  0
 30 31  1  0
 32 31  2  0
 33 32  1  0
 34  8  1  0
 34 35  1  0
 34 44  1  0
 35 38  1  0
 36 40  1  0
 36 35  1  0
 37 36  2  0
 40 39  1  0
 42 40  1  0
 42 43  1  0
 42 41  1  0
 44 47  1  1
 44 45  1  0
 46 44  1  0
 48 53  1  0
 49 52  1  0
 49 51  1  0
 49 48  1  0
 50 49  1  0
 54 53  1  0
 55 60  1  0
 56 57  1  0
 56 55  1  0
 58 57  1  0
 58 65  1  0
 58 59  1  0
 60 54  1  0
 60 59  1  0
 61 54  2  0
 62 63  2  0
 63 82  1  0
 64 63  1  0
 64 67  1  0
 65 62  1  0
 65 66  1  0
 66 64  2  0
 67 68  1  0
 68 69  2  0
 70 73  1  0
 70 69  1  0
 71 70  2  0
 72 71  1  0
 72 67  2  0
 73 74  1  0
 74 75  1  0
 75 76  2  0
 77 76  1  0
 77 81  1  0
 78 77  2  0
 79 74  2  0
 79 78  1  0
 80 79  1  0
 82 83  1  0
 83 86  1  0
 83 85  1  0
 84 82  2  0
 87 88  1  0
 87 62  1  0
 89 87  1  0
M  ISO  4   6 101   7 101  53 100  54 100
M  END
>  <TORSDO>  (78) 
F 21

>  <SCORE>  (78) 
-15.888

>  <name>  (78) 
78

>  <ligand_id>  (78) 
78

>  <original_smiles>  (78) 
[H]c1c([H])c([H])c2c(c1[H])C([H])([H])C([H])([H])C([H])([H])C2([H])N([H])C(=O)C1([H])N(C(=O)C([H])(N([H])C(=O)C([H])(N([H])C([H])([H])[H])C([H])([H])[H])C(C([H])([H])[H])(C([H])([H])[H])C([H])([H])[H])C([H])([H])c2c([H])c(OC([H])([H])C([H])([H])N(C(=O)C([H])(C([H])([H])C(=O)N3C([H])([H])C([H])([H])C([H])([H])C([H])(n4nc(-c5c([H])c([H])c(Oc6c([H])c([H])c(F)c([H])c6F)c([H])c5[H])c(C(=O)N([H])[H])c4N([H])[H])C3([H])[H])[N+]([H])([H])[H])C([H])([H])[H])c([H])c([H])c2C1([H])[H]

>  <smiles>  (78) 
[H]c1c([H])c([H])c2c(c1[H])C([H])([H])C([H])([H])C([H])([H])C2([H])N([H])C(=O)C1([H])N(C(=O)C([H])(N([H])C(=O)C([H])(N([H])C([H])([H])[H])C([H])([H])[H])C(C([H])([H])[H])(C([H])([H])[H])C([H])([H])[H])C([H])([H])c2c([H])c(OC([H])([H])C([H])([H])N(C(=O)C([H])(C([H])([H])C(=O)N3C([H])([H])C([H])([H])C([H])([H])C([H])(n4nc(-c5c([H])c([H])c(Oc6c([H])c([H])c(F)c([H])c6F)c([H])c5[H])c(C(=O)N([H])[H])c4N([H])[H])C3([H])[H])[N+]([H])([H])[H])C([H])([H])[H])c([H])c([H])c2C1([H])[H]

$$$$
79:0:0
     RDKit          3D

 94102  0  0  1  0  0  0  0  0999 V2000
  -30.2270  -20.6050   20.2710 C   0  0  0  0  0  0  0  0  0  0  0  0
  -30.0710  -19.2270   19.9770 N   0  0  0  0  0  0  0  0  0  0  0  0
  -31.3410  -21.0010   20.6130 O   0  0  0  0  0  0  0  0  0  0  0  0
  -29.1540  -18.9780   19.6270 H   0  0  0  0  0  0  0  0  0  0  0  0
  -29.2550  -16.5030   20.9930 C   0  0  0  0  0  3  0  0  0  0  0  0
  -31.4820  -18.2020   21.7380 C   0  0  0  0  0  2  0  0  0  0  0  0
  -30.4520  -17.7070   22.8090 C   0  0  0  0  0  2  0  0  0  0  0  0
  -30.5620  -16.3730   20.3150 C   0  0  0  0  0  3  0  0  0  0  0  0
  -31.0290  -17.9920   20.2570 C   0  0  0  0  0  3  0  0  0  0  0  0
  -29.2450  -17.0660   22.2210 N   0  0  0  0  0  0  0  0  0  0  0  0
  -28.1270  -16.3730   20.2990 N   0  0  0  0  0  0  0  0  0  0  0  0
  -28.3740  -17.2290   22.7090 H   0  0  0  0  0  0  0  0  0  0  0  0
  -28.1370  -16.3210   19.2900 H   0  0  0  0  0  0  0  0  0  0  0  0
  -27.2440  -16.0720   20.7500 H   0  0  0  0  0  0  0  0  0  0  0  0
  -31.0000  -14.9480   19.5430 C   0  0  0  0  0  0  0  0  0  0  0  0
  -30.5560  -12.6830   18.4540 C   0  0  0  0  0  2  0  0  0  0  0  0
  -29.4750  -12.7740   17.3480 C   0  0  0  0  0  2  0  0  0  0  0  0
  -28.0700  -12.5780   17.9490 C   0  0  0  0  0  2  0  0  0  0  0  0
  -27.8590  -13.4420   19.2150 C   0  0  0  0  0  3  0  0  0  0  0  0
  -29.0570  -13.3650   20.2010 C   0  0  0  0  0  2  0  0  0  0  0  0
  -30.2840  -13.7410   19.4770 N   0  0  0  0  0  0  0  0  0  0  0  0
  -32.0920  -14.9440   18.9630 O   0  0  0  0  0  0  0  0  0  0  0  0
  -25.5970  -14.0760   20.2790 C   0  0  0  0  0  0  0  0  0  0  0  0
  -24.5670  -13.3270   20.7640 C   0  0  0  0  0  0  0  0  0  0  0  0
  -24.9670  -11.9670   20.6000 C   0  0  0  0  0  0  0  0  0  0  0  0
  -26.5750  -13.1810   19.8670 N   0  0  0  0  0  0  0  0  0  0  0  0
  -26.2050  -11.9000   20.1250 N   0  0  0  0  0  0  0  0  0  0  0  0
  -24.2080  -10.7320   20.8050 C   0  0  0  0  0  0  0  0  0  0  0  0
  -24.6560   -9.7320   21.6930 C   0  0  0  0  0  3  0  0  0  0  0  0
  -23.8910   -8.5610   21.8920 C   0  0  0  0  0  3  0  0  0  0  0  0
  -22.6690   -8.3880   21.2020 C   0  0  0  0  0  0  0  0  0  0  0  0
  -22.2400   -9.3760   20.3000 C   0  0  0  0  0  3  0  0  0  0  0  0
  -23.0040  -10.5370   20.0980 C   0  0  0  0  0  3  0  0  0  0  0  0
  -21.8730   -7.2740   21.3160 O   0  0  0  0  0  0  0  0  0  0  0  0
  -21.8020   -6.5600   22.4840 C   0  0  0  0  0  0  0  0  0  0  0  0
  -21.4080   -7.1580   23.7020 C   0  0  0  0  0  3  0  0  0  0  0  0
  -21.2840   -6.3720   24.8640 C   0  0  0  0  0  3  0  0  0  0  0  0
  -21.5420   -4.9900   24.8100 C   0  0  0  0  0  0  0  0  0  0  0  0
  -21.9300   -4.3900   23.5970 C   0  0  0  0  0  3  0  0  0  0  0  0
  -22.0570   -5.1750   22.4370 C   0  0  0  0  0  0  0  0  0  0  0  0
  -22.4130   -4.5910   21.2680 F   0  0  0  0  0  0  0  0  0  0  0  0
  -21.4130   -4.2320   25.9240 F   0  0  0  0  0  0  0  0  0  0  0  0
  -23.2390  -13.8530   21.2190 C   0  0  0  0  0  0  0  0  0  0  0  0
  -22.5950  -13.1710   22.1590 N   0  0  0  0  0  0  0  0  0  0  0  0
  -22.7930  -14.9110   20.7760 O   0  0  0  0  0  0  0  0  0  0  0  0
  -22.9730  -12.3160   22.5390 H   0  0  0  0  0  0  0  0  0  0  0  0
  -21.7070  -13.5090   22.5000 H   0  0  0  0  0  0  0  0  0  0  0  0
  -25.7140  -15.4490   20.1130 N   0  0  0  0  0  0  0  0  0  0  0  0
  -24.8300  -15.8610   20.4100 H   0  0  0  0  0  0  0  0  0  0  0  0
  -25.8060  -15.6290   19.1180 H   0  0  0  0  0  0  0  0  0  0  0  0
  -29.0560  -21.7540   20.2460 C   0  0  0  0  0  2  0  0  0  0  0  0
  -29.3490  -23.3930   20.4210 C   0  0  0  0  0  3  0  0  0  0  0  0
  -28.1880  -24.5840   20.3090 C   0  0  0  0  0  3  0  0  0  0  0  0
  -28.4000  -26.1110   20.3870 O   0  0  0  0  0  0  0  0  0  0  0  0
  -24.5330  -31.7150   23.1350 C   0  0  0  0  0  0  0  0  0  0  0  0
  -27.2980  -27.0270   20.2790 C   0  0  0  0  0  0  0  0  0  0  0  0
  -23.4000  -30.2500   21.5070 C   0  0  0  0  0  3  0  0  0  0  0  0
  -24.9160  -28.6790   20.1580 C   0  0  0  0  0  0  0  0  0  0  0  0
  -25.9480  -30.5860   21.3850 C   0  0  0  0  0  2  0  0  0  0  0  0
  -26.0710  -29.1850   20.7680 C   0  0  0  0  0  0  0  0  0  0  0  0
  -27.2630  -28.3750   20.8080 C   0  0  0  0  0  3  0  0  0  0  0  0
  -26.1090  -26.6060   19.6390 C   0  0  0  0  0  3  0  0  0  0  0  0
  -24.9440  -27.4000   19.5850 C   0  0  0  0  0  3  0  0  0  0  0  0
  -23.6660  -29.5450   20.1520 C   0  0  0  0  0  2  0  0  0  0  0  0
  -24.6440  -30.8720   22.0640 N   0  0  0  0  0  0  0  0  0  0  0  0
  -23.4300  -31.9870   23.6340 O   0  0  0  0  0  0  0  0  0  0  0  0
  -22.7280  -29.2500   22.4800 C   0  0  0  0  0  0  0  0  0  0  0  0
  -21.4120  -29.0290   22.3200 N   0  0  0  0  0  0  0  0  0  0  0  0
  -23.3950  -28.6710   23.3430 O   0  0  0  0  0  0  0  0  0  0  0  0
  -20.9280  -29.5450   21.5970 H   0  0  0  0  0  0  0  0  0  0  0  0
  -18.0620  -27.7180   22.7470 C   0  0  0  0  0  0  0  0  0  0  0  0
  -20.5970  -28.0900   23.0970 C   0  0  0  0  0  3  0  0  0  0  0  0
  -20.7740  -26.6420   22.5830 C   0  0  0  0  0  2  0  0  0  0  0  0
  -19.7250  -26.2380   21.5440 C   0  0  0  0  0  2  0  0  0  0  0  0
  -18.3150  -26.3540   22.1300 C   0  0  0  0  0  2  0  0  0  0  0  0
  -19.1340  -28.5400   23.1860 C   0  0  0  0  0  0  0  0  0  0  0  0
  -18.8450  -29.8140   23.7200 C   0  0  0  0  0  3  0  0  0  0  0  0
  -17.5160  -30.2670   23.8220 C   0  0  0  0  0  3  0  0  0  0  0  0
  -16.4580  -29.4450   23.3980 C   0  0  0  0  0  3  0  0  0  0  0  0
  -16.7320  -28.1730   22.8670 C   0  0  0  0  0  3  0  0  0  0  0  0
  -25.7840  -32.3960   23.7690 C   0  0  0  0  0  3  0  0  0  0  0  0
  -26.3200  -31.6390   25.0460 C   0  0  1  0  0  0  0  0  0  0  0  0
  -25.2270  -31.3360   26.0980 C   0  0  0  0  0  1  0  0  0  0  0  0
  -26.9810  -30.2970   24.6540 C   0  0  0  0  0  1  0  0  0  0  0  0
  -27.4210  -32.4830   25.7310 C   0  0  0  0  0  1  0  0  0  0  0  0
  -25.4150  -33.7790   24.1140 N   0  0  0  0  0  0  0  0  0  0  0  0
  -25.7030  -34.8540   23.3670 C   0  0  0  0  0  0  0  0  0  0  0  0
  -26.3770  -34.7890   22.3340 O   0  0  0  0  0  0  0  0  0  0  0  0
  -24.8220  -33.9010   24.9210 H   0  0  0  0  0  0  0  0  0  0  0  0
  -23.9000  -36.5780   23.0360 C   0  0  0  0  0  1  0  0  0  0  0  0
  -25.1610  -36.2180   23.8400 C   0  0  0  0  0  3  0  0  0  0  0  0
  -27.2610  -37.1820   24.6700 C   0  0  0  0  0  1  0  0  0  0  0  0
  -26.1490  -37.3140   23.7320 N   0  0  0  0  0  0  0  0  0  0  0  0
  -25.7070  -38.2150   23.8900 H   0  0  0  0  0  0  0  0  0  0  0  0
  1  3  2  0
  2  1  1  0
  4  2  1  0
  5 11  1  0
  5 10  1  0
  6  7  1  0
  8 15  1  0
  8  5  1  0
  9  2  1  0
  9  8  1  0
  9  6  1  0
 10 12  1  0
 10  7  1  0
 11 14  1  0
 13 11  1  0
 16 21  1  0
 17 18  1  0
 17 16  1  0
 19 18  1  0
 19 26  1  0
 19 20  1  0
 21 15  1  0
 21 20  1  0
 22 15  2  0
 23 24  2  0
 24 43  1  0
 25 24  1  0
 25 28  1  0
 26 27  1  0
 26 23  1  0
 27 25  2  0
 28 29  1  0
 29 30  2  0
 31 34  1  0
 31 30  1  0
 32 31  2  0
 33 32  1  0
 33 28  2  0
 34 35  1  0
 35 36  1  0
 36 37  2  0
 38 37  1  0
 38 42  1  0
 39 38  2  0
 40 35  2  0
 40 39  1  0
 41 40  1  0
 43 44  1  0
 44 47  1  0
 44 46  1  0
 45 43  2  0
 48 23  1  0
 48 49  1  0
 50 48  1  0
 51  1  1  0
 51 52  1  0
 53 54  1  0
 53 52  2  0
 55 66  2  0
 56 54  1  0
 56 61  1  0
 57 65  1  0
 57 67  1  0
 58 60  1  0
 59 65  1  0
 60 61  2  0
 60 59  1  0
 62 56  2  0
 63 62  1  0
 63 58  2  0
 64 58  1  0
 64 57  1  0
 65 55  1  0
 67 69  2  0
 68 67  1  0
 70 68  1  0
 71 80  2  0
 71 76  1  0
 72 68  1  0
 72 76  1  0
 73 72  1  0
 74 75  1  0
 74 73  1  0
 75 71  1  0
 76 77  2  0
 77 78  1  0
 79 78  2  0
 80 79  1  0
 81 55  1  0
 81 86  1  0
 81 82  1  0
 82 85  1  1
 82 83  1  0
 84 82  1  0
 86 89  1  0
 87 91  1  0
 87 86  1  0
 88 87  2  0
 91 90  1  0
 93 91  1  0
 93 94  1  0
 93 92  1  0
M  ISO  4   8 100  15 100  53 101  54 101
M  END
>  <TORSDO>  (79) 
F 20

>  <SCORE>  (79) 
-11.775

>  <name>  (79) 
79

>  <ligand_id>  (79) 
79

>  <original_smiles>  (79) 
[H]c1c([H])c([H])c2c(c1[H])C([H])([H])C([H])([H])C([H])([H])C2([H])N([H])C(=O)C1([H])N(C(=O)C([H])(N([H])C(=O)C([H])(N([H])C([H])([H])[H])C([H])([H])[H])C(C([H])([H])[H])(C([H])([H])[H])C([H])([H])[H])C([H])([H])c2c([H])c(OC([H])([H])C([H])([H])C([H])([H])C(=O)N([H])C3([H])C([H])(C(=O)N4C([H])([H])C([H])([H])C([H])([H])C([H])(n5nc(-c6c([H])c([H])c(Oc7c([H])c([H])c(F)c([H])c7F)c([H])c6[H])c(C(=O)N([H])[H])c5N([H])[H])C4([H])[H])C(N([H])[H])=[N+]([H])C([H])([H])C3([H])[H])c([H])c([H])c2C1([H])[H]

>  <smiles>  (79) 
[H]c1c([H])c([H])c2c(c1[H])C([H])([H])C([H])([H])C([H])([H])C2([H])N([H])C(=O)C1([H])N(C(=O)C([H])(N([H])C(=O)C([H])(N([H])C([H])([H])[H])C([H])([H])[H])C(C([H])([H])[H])(C([H])([H])[H])C([H])([H])[H])C([H])([H])c2c([H])c(OC([H])([H])C([H])([H])C([H])([H])C(=O)N([H])C3([H])C([H])(C(=O)N4C([H])([H])C([H])([H])C([H])([H])C([H])(n5nc(-c6c([H])c([H])c(Oc7c([H])c([H])c(F)c([H])c7F)c([H])c6[H])c(C(=O)N([H])[H])c5N([H])[H])C4([H])[H])C(N([H])[H])=[N+]([H])C([H])([H])C3([H])[H])c([H])c([H])c2C1([H])[H]

$$$$
80:0:0
     RDKit          3D

 93 96  0  0  1  0  0  0  0  0999 V2000
  -29.6180  -19.6350   19.6570 C   0  0  0  0  0  1  0  0  0  0  0  0
  -30.3220  -19.4190   17.2770 C   0  0  0  0  0  0  0  0  0  0  0  0
  -29.9430  -19.6950   15.8310 C   0  0  0  0  0  1  0  0  0  0  0  0
  -29.4250  -19.7500   18.2110 N   0  0  0  0  0  0  0  0  0  0  0  0
  -31.4140  -18.9180   17.5470 O   0  0  0  0  0  0  0  0  0  0  0  0
  -28.5470  -20.1420   17.8980 H   0  0  0  0  0  0  0  0  0  0  0  0
  -28.9170  -21.4560   20.2980 C   0  0  0  0  0 15  0  0  0  0  0  0
  -28.3810  -23.3750   19.8030 C   0  0  0  0  0  1  0  0  0  0  0  0
  -28.2000  -25.1510   20.2930 O   0  0  0  0  0  0  0  0  0  0  0  0
  -24.5680  -31.5880   23.0800 C   0  0  0  0  0  0  0  0  0  0  0  0
  -27.2330  -26.4180   20.1530 C   0  0  0  0  0  0  0  0  0  0  0  0
  -23.4380  -30.1590   21.4310 C   0  0  0  0  0  3  0  0  0  0  0  0
  -24.9410  -28.5090   20.0460 C   0  0  0  0  0  0  0  0  0  0  0  0
  -26.0200  -30.3060   21.3670 C   0  0  0  0  0  2  0  0  0  0  0  0
  -26.1190  -28.8570   20.7140 C   0  0  0  0  0  0  0  0  0  0  0  0
  -27.2360  -27.8420   20.7370 C   0  0  0  0  0  3  0  0  0  0  0  0
  -26.0200  -26.3250   19.4110 C   0  0  0  0  0  3  0  0  0  0  0  0
  -24.9410  -27.2730   19.3690 C   0  0  0  0  0  3  0  0  0  0  0  0
  -23.7210  -29.4550   20.0680 C   0  0  0  0  0  2  0  0  0  0  0  0
  -24.6990  -30.7220   22.0130 N   0  0  0  0  0  0  0  0  0  0  0  0
  -23.4580  -31.8740   23.5660 O   0  0  0  0  0  0  0  0  0  0  0  0
  -22.7110  -29.1830   22.3970 C   0  0  0  0  0  0  0  0  0  0  0  0
  -21.3830  -29.0070   22.2510 N   0  0  0  0  0  0  0  0  0  0  0  0
  -23.3600  -28.5810   23.2560 O   0  0  0  0  0  0  0  0  0  0  0  0
  -20.9060  -29.5460   21.5430 H   0  0  0  0  0  0  0  0  0  0  0  0
  -18.0210  -27.6930   22.6970 C   0  0  0  0  0  0  0  0  0  0  0  0
  -20.5640  -28.0550   23.0150 C   0  0  0  0  0  3  0  0  0  0  0  0
  -20.7270  -26.6170   22.4690 C   0  0  0  0  0  2  0  0  0  0  0  0
  -19.6650  -26.2430   21.4320 C   0  0  0  0  0  2  0  0  0  0  0  0
  -18.2620  -26.3460   22.0360 C   0  0  0  0  0  2  0  0  0  0  0  0
  -19.1000  -28.5020   23.1420 C   0  0  0  0  0  0  0  0  0  0  0  0
  -18.8200  -29.7570   23.7250 C   0  0  0  0  0  3  0  0  0  0  0  0
  -17.4920  -30.2060   23.8620 C   0  0  0  0  0  3  0  0  0  0  0  0
  -16.4270  -29.3980   23.4280 C   0  0  0  0  0  3  0  0  0  0  0  0
  -16.6920  -28.1430   22.8520 C   0  0  0  0  0  3  0  0  0  0  0  0
  -25.8010  -32.2730   23.7440 C   0  0  0  0  0  3  0  0  0  0  0  0
  -25.4470  -33.6750   24.0550 N   0  0  0  0  0  0  0  0  0  0  0  0
  -25.7680  -34.7400   23.3080 C   0  0  0  0  0  0  0  0  0  0  0  0
  -26.4470  -34.6480   22.2830 O   0  0  0  0  0  0  0  0  0  0  0  0
  -24.8420  -33.8180   24.8500 H   0  0  0  0  0  0  0  0  0  0  0  0
  -24.0050  -36.5130   22.9700 C   0  0  0  0  0  1  0  0  0  0  0  0
  -25.2620  -36.1260   23.7670 C   0  0  0  0  0  3  0  0  0  0  0  0
  -27.3860  -37.0650   24.5700 C   0  0  0  0  0  1  0  0  0  0  0  0
  -26.2730  -37.2000   23.6350 N   0  0  0  0  0  0  0  0  0  0  0  0
  -25.8490  -38.1130   23.7780 H   0  0  0  0  0  0  0  0  0  0  0  0
  -26.2760  -31.5450   25.0640 C   0  0  1  0  0  0  0  0  0  0  0  0
  -25.1420  -31.3240   26.0950 C   0  0  0  0  0  1  0  0  0  0  0  0
  -26.8900  -30.1640   24.7490 C   0  0  0  0  0  1  0  0  0  0  0  0
  -27.3890  -32.3740   25.7490 C   0  0  0  0  0  1  0  0  0  0  0  0
  -29.7000  -17.6090   20.0320 C   0  0  0  0  0  1  0  0  0  0  0  0
  -30.4100  -15.8470   19.4850 C   0  0  0  0  0  2  0  0  0  0  0  0
  -30.3960  -13.2960   18.4790 C   0  0  0  0  0  2  0  0  0  0  0  0
  -29.3400  -12.9270   17.3870 C   0  0  0  0  0  2  0  0  0  0  0  0
  -28.0000  -12.5200   18.0160 C   0  0  0  0  0  2  0  0  0  0  0  0
  -27.6570  -13.4520   19.1950 C   0  0  0  0  0  3  0  0  0  0  0  0
  -28.8370  -13.7250   20.1620 C   0  0  0  0  0  2  0  0  0  0  0  0
  -29.9080  -14.4380   19.4100 N   0  0  0  0  0  0  0  0  0  0  0  0
  -31.5790  -15.7370   19.0400 O   0  0  0  0  0  1  0  0  0  0  0  0
  -25.4590  -13.9490   20.3480 C   0  0  0  0  0  0  0  0  0  0  0  0
  -24.4480  -13.1620   20.8200 C   0  0  0  0  0  0  0  0  0  0  0  0
  -24.8710  -11.8110   20.6230 C   0  0  0  0  0  0  0  0  0  0  0  0
  -26.4290  -13.0830   19.8840 N   0  0  0  0  0  0  0  0  0  0  0  0
  -26.1010  -11.7840   20.1130 N   0  0  0  0  0  0  0  0  0  0  0  0
  -24.1430  -10.5500   20.8340 C   0  0  0  0  0  0  0  0  0  0  0  0
  -24.6140   -9.5650   21.7300 C   0  0  0  0  0  3  0  0  0  0  0  0
  -23.8840   -8.3740   21.9340 C   0  0  0  0  0  3  0  0  0  0  0  0
  -22.6670   -8.1580   21.2430 C   0  0  0  0  0  0  0  0  0  0  0  0
  -22.2150   -9.1330   20.3360 C   0  0  0  0  0  3  0  0  0  0  0  0
  -22.9440  -10.3150   20.1300 C   0  0  0  0  0  3  0  0  0  0  0  0
  -21.9050   -7.0200   21.3570 O   0  0  0  0  0  0  0  0  0  0  0  0
  -21.8120   -6.3310   22.5390 C   0  0  0  0  0  0  0  0  0  0  0  0
  -21.3380   -6.9410   23.7220 C   0  0  0  0  0  3  0  0  0  0  0  0
  -21.1920   -6.1790   24.8980 C   0  0  0  0  0  3  0  0  0  0  0  0
  -21.5100   -4.8070   24.8930 C   0  0  0  0  0  0  0  0  0  0  0  0
  -21.9780   -4.1970   23.7160 C   0  0  0  0  0  3  0  0  0  0  0  0
  -22.1250   -4.9560   22.5430 C   0  0  0  0  0  0  0  0  0  0  0  0
  -22.5550   -4.3580   21.4050 F   0  0  0  0  0  0  0  0  0  0  0  0
  -21.3640   -4.0730   26.0210 F   0  0  0  0  0  0  0  0  0  0  0  0
  -23.1180  -13.6440   21.3190 C   0  0  0  0  0  0  0  0  0  0  0  0
  -22.5080  -12.9150   22.2470 N   0  0  0  0  0  0  0  0  0  0  0  0
  -22.6350  -14.7020   20.9190 O   0  0  0  0  0  0  0  0  0  0  0  0
  -22.9150  -12.0590   22.5920 H   0  0  0  0  0  0  0  0  0  0  0  0
  -21.6220  -13.2230   22.6210 H   0  0  0  0  0  0  0  0  0  0  0  0
  -25.6250  -15.3280   20.2340 N   0  0  0  0  0  0  0  0  0  0  0  0
  -24.8050  -15.9100   20.3760 H   0  0  0  0  0  0  0  0  0  0  0  0
  -26.2340  -15.6940   19.5150 H   0  0  0  0  0  0  0  0  0  0  0  0
  -29.8170  -17.5600   21.5400 C   0  0  0  0  0  0  0  0  0  0  0  0
  -28.7810  -17.1510   22.2980 N   0  0  0  0  0  0  0  0  0  0  0  0
  -30.9460  -17.9760   22.1400 N   0  0  0  0  0  4  0  0  0  0  0  0
  -27.9000  -16.8670   21.8840 H   0  0  0  0  0  0  0  0  0  0  0  0
  -28.8100  -17.1270   23.3090 H   0  0  0  0  0  0  0  0  0  0  0  0
  -31.7440  -18.2730   21.5930 H   0  0  0  0  0  0  0  0  0  0  0  0
  -31.0650  -17.9950   23.1440 H   0  0  0  0  0  0  0  0  0  0  0  0
  2  5  2  0
  2  4  1  0
  3  2  1  0
  4  1  1  0
  6  4  1  0
  8  9  1  0
 10 21  2  0
 11  9  1  0
 11 16  1  0
 12 20  1  0
 12 22  1  0
 13 19  1  0
 13 15  1  0
 14 20  1  0
 15 16  2  0
 15 14  1  0
 17 11  2  0
 18 17  1  0
 18 13  2  0
 19 12  1  0
 20 10  1  0
 22 24  2  0
 23 22  1  0
 25 23  1  0
 26 35  2  0
 26 31  1  0
 27 23  1  0
 27 31  1  0
 28 27  1  0
 29 30  1  0
 29 28  1  0
 30 26  1  0
 31 32  2  0
 32 33  1  0
 34 33  2  0
 35 34  1  0
 36 10  1  0
 36 37  1  0
 36 46  1  0
 37 40  1  0
 38 42  1  0
 38 37  1  0
 39 38  2  0
 42 41  1  0
 44 42  1  0
 44 45  1  0
 44 43  1  0
 46 49  1  1
 46 47  1  0
 48 46  1  0
 50 87  1  0
 52 57  1  0
 53 54  1  0
 53 52  1  0
 55 54  1  0
 55 62  1  0
 55 56  1  0
 57 51  1  0
 57 56  1  0
 58 51  1  0
 59 60  2  0
 60 79  1  0
 61 60  1  0
 61 64  1  0
 62 63  1  0
 62 59  1  0
 63 61  2  0
 64 65  1  0
 65 66  2  0
 67 70  1  0
 67 66  1  0
 68 67  2  0
 69 68  1  0
 69 64  2  0
 70 71  1  0
 71 76  2  0
 71 72  1  0
 72 73  2  0
 74 73  1  0
 74 78  1  0
 75 74  2  0
 76 75  1  0
 77 76  1  0
 79 80  1  0
 80 82  1  0
 80 83  1  0
 81 79  2  0
 84 59  1  0
 84 85  1  0
 86 84  1  0
 87 89  2  0
 87 88  1  0
 88 91  1  0
 89 93  1  0
 90 88  1  0
 92 89  1  0
M  ISO  4   8 101   9 101  50 100  51 100
M  END
>  <TORSDO>  (80) 
F 21

>  <SCORE>  (80) 
-12.437

>  <name>  (80) 
80

>  <ligand_id>  (80) 
80

>  <original_smiles>  (80) 
[H]c1c([H])c([H])c2c(c1[H])C([H])([H])C([H])([H])C([H])([H])C2([H])N([H])C(=O)C1([H])N(C(=O)C([H])(N([H])C(=O)C([H])(N([H])C([H])([H])[H])C([H])([H])[H])C(C([H])([H])[H])(C([H])([H])[H])C([H])([H])[H])C([H])([H])c2c([H])c(OC([H])([H])C([H])([H])C([H])(N([H])C(=O)C([H])([H])[H])C([H])(C(=O)N3C([H])([H])C([H])([H])C([H])([H])C([H])(n4nc(-c5c([H])c([H])c(Oc6c([H])c([H])c(F)c([H])c6F)c([H])c5[H])c(C(=O)N([H])[H])c4N([H])[H])C3([H])[H])C(N([H])[H])=[N+]([H])[H])c([H])c([H])c2C1([H])[H]

>  <smiles>  (80) 
[H]c1c([H])c([H])c2c(c1[H])C([H])([H])C([H])([H])C([H])([H])C2([H])N([H])C(=O)C1([H])N(C(=O)C([H])(N([H])C(=O)C([H])(N([H])C([H])([H])[H])C([H])([H])[H])C(C([H])([H])[H])(C([H])([H])[H])C([H])([H])[H])C([H])([H])c2c([H])c(OC([H])([H])C([H])([H])C([H])(N([H])C(=O)C([H])([H])[H])C([H])(C(=O)N3C([H])([H])C([H])([H])C([H])([H])C([H])(n4nc(-c5c([H])c([H])c(Oc6c([H])c([H])c(F)c([H])c6F)c([H])c5[H])c(C(=O)N([H])[H])c4N([H])[H])C3([H])[H])C(N([H])[H])=[N+]([H])[H])c([H])c([H])c2C1([H])[H]

$$$$
81:0:0
     RDKit          3D

 89 97  0  0  1  0  0  0  0  0999 V2000
  -29.3740  -19.0620   19.8740 C   0  0  0  0  0  0  0  0  0  0  0  0
  -29.3700  -20.3960   20.3880 N   0  0  0  0  0  0  0  0  0  0  0  0
  -28.7760  -18.8500   18.8180 O   0  0  0  0  0  0  0  0  0  0  0  0
  -29.9010  -20.4990   21.2440 H   0  0  0  0  0  0  0  0  0  0  0  0
  -30.5870  -15.0250   20.0100 C   0  0  0  0  0  0  0  0  0  0  0  0
  -30.4010  -12.7180   18.9380 C   0  0  0  0  0  2  0  0  0  0  0  0
  -29.3860  -12.7170   17.7700 C   0  0  0  0  0  2  0  0  0  0  0  0
  -27.9530  -12.4860   18.2840 C   0  0  0  0  0  2  0  0  0  0  0  0
  -27.6310  -13.3560   19.5260 C   0  0  0  0  0  3  0  0  0  0  0  0
  -28.7540  -13.2940   20.5790 C   0  0  0  0  0  2  0  0  0  0  0  0
  -29.9870  -13.7620   19.9240 N   0  0  0  0  0  0  0  0  0  0  0  0
  -31.6990  -15.1480   19.4830 O   0  0  0  0  0  0  0  0  0  0  0  0
  -30.6940  -17.1610   22.7470 C   0  0  0  0  0  2  0  0  0  0  0  0
  -31.1850  -18.0300   21.5920 C   0  0  0  0  0  2  0  0  0  0  0  0
  -30.0700  -15.9090   22.0780 C   0  0  0  0  0  2  0  0  0  0  0  0
  -30.0890  -17.7380   20.5840 C   0  0  0  0  0  3  0  0  0  0  0  0
  -29.9120  -16.1430   20.6010 N   0  0  0  0  0  0  0  0  0  0  0  0
  -25.3040  -13.9100   20.4350 C   0  0  0  0  0  0  0  0  0  0  0  0
  -24.2640  -13.1220   20.8470 C   0  0  0  0  0  0  0  0  0  0  0  0
  -24.7230  -11.7730   20.7420 C   0  0  0  0  0  0  0  0  0  0  0  0
  -26.3270  -13.0410   20.0970 N   0  0  0  0  0  0  0  0  0  0  0  0
  -25.9920  -11.7480   20.3460 N   0  0  0  0  0  0  0  0  0  0  0  0
  -24.0100  -10.5040   20.9390 C   0  0  0  0  0  0  0  0  0  0  0  0
  -24.4520   -9.5430   21.8740 C   0  0  0  0  0  3  0  0  0  0  0  0
  -23.7360   -8.3410   22.0570 C   0  0  0  0  0  3  0  0  0  0  0  0
  -22.5630   -8.0910   21.3050 C   0  0  0  0  0  0  0  0  0  0  0  0
  -22.1400   -9.0410   20.3600 C   0  0  0  0  0  3  0  0  0  0  0  0
  -22.8560  -10.2350   20.1740 C   0  0  0  0  0  3  0  0  0  0  0  0
  -21.8170   -6.9400   21.3980 O   0  0  0  0  0  0  0  0  0  0  0  0
  -21.7050   -6.2490   22.5780 C   0  0  0  0  0  0  0  0  0  0  0  0
  -21.1900   -6.8490   23.7470 C   0  0  0  0  0  3  0  0  0  0  0  0
  -21.0260   -6.0820   24.9180 C   0  0  0  0  0  3  0  0  0  0  0  0
  -21.3680   -4.7170   24.9200 C   0  0  0  0  0  0  0  0  0  0  0  0
  -21.8760   -4.1160   23.7550 C   0  0  0  0  0  3  0  0  0  0  0  0
  -22.0420   -4.8800   22.5870 C   0  0  0  0  0  0  0  0  0  0  0  0
  -22.5100   -4.2910   21.4610 F   0  0  0  0  0  0  0  0  0  0  0  0
  -21.2040   -3.9790   26.0440 F   0  0  0  0  0  0  0  0  0  0  0  0
  -22.8880  -13.5890   21.2240 C   0  0  0  0  0  0  0  0  0  0  0  0
  -22.2240  -12.8730   22.1250 N   0  0  0  0  0  0  0  0  0  0  0  0
  -22.4150  -14.6240   20.7570 O   0  0  0  0  0  0  0  0  0  0  0  0
  -22.6220  -12.0360   22.5240 H   0  0  0  0  0  0  0  0  0  0  0  0
  -21.3040  -13.1660   22.4190 H   0  0  0  0  0  0  0  0  0  0  0  0
  -25.4600  -15.2860   20.2970 N   0  0  0  0  0  0  0  0  0  0  0  0
  -24.7110  -15.9420   20.4890 H   0  0  0  0  0  0  0  0  0  0  0  0
  -26.3000  -15.7330   19.9510 H   0  0  0  0  0  0  0  0  0  0  0  0
  -28.6130  -21.7200   19.9410 C   0  0  0  0  0  2  0  0  0  0  0  0
  -28.8850  -23.3010   20.5000 C   0  0  0  0  0  3  0  0  0  0  0  0
  -27.9580  -24.6680   20.1000 C   0  0  0  0  0  3  0  0  0  0  0  0
  -28.1900  -26.1780   20.4450 O   0  0  0  0  0  0  0  0  0  0  0  0
  -24.5860  -31.9290   23.3480 C   0  0  0  0  0  0  0  0  0  0  0  0
  -27.1450  -27.1750   20.3520 C   0  0  0  0  0  0  0  0  0  0  0  0
  -23.3850  -30.5350   21.7090 C   0  0  0  0  0  3  0  0  0  0  0  0
  -24.8300  -28.9430   20.2980 C   0  0  0  0  0  0  0  0  0  0  0  0
  -25.9430  -30.7780   21.5600 C   0  0  0  0  0  2  0  0  0  0  0  0
  -26.0100  -29.3810   20.9130 C   0  0  0  0  0  0  0  0  0  0  0  0
  -27.1660  -28.5120   20.9240 C   0  0  0  0  0  3  0  0  0  0  0  0
  -25.9420  -26.8450   19.6900 C   0  0  0  0  0  3  0  0  0  0  0  0
  -24.8100  -27.6890   19.6710 C   0  0  0  0  0  3  0  0  0  0  0  0
  -23.6090  -29.8490   20.3340 C   0  0  0  0  0  2  0  0  0  0  0  0
  -24.6580  -31.1030   22.2600 N   0  0  0  0  0  0  0  0  0  0  0  0
  -23.4980  -32.2260   23.8670 O   0  0  0  0  0  0  0  0  0  0  0  0
  -22.6910  -29.5390   22.6710 C   0  0  0  0  0  0  0  0  0  0  0  0
  -21.3670  -29.3570   22.5180 N   0  0  0  0  0  0  0  0  0  0  0  0
  -23.3480  -28.9300   23.5200 O   0  0  0  0  0  0  0  0  0  0  0  0
  -20.8940  -29.8990   21.8080 H   0  0  0  0  0  0  0  0  0  0  0  0
  -17.9880  -28.1240   22.9450 C   0  0  0  0  0  0  0  0  0  0  0  0
  -20.5340  -28.4280   23.2850 C   0  0  0  0  0  3  0  0  0  0  0  0
  -20.6720  -26.9840   22.7490 C   0  0  0  0  0  2  0  0  0  0  0  0
  -19.6070  -26.6220   21.7090 C   0  0  0  0  0  2  0  0  0  0  0  0
  -18.2040  -26.7620   22.3060 C   0  0  0  0  0  2  0  0  0  0  0  0
  -19.0820  -28.9130   23.3910 C   0  0  0  0  0  0  0  0  0  0  0  0
  -18.8270  -30.1830   23.9480 C   0  0  0  0  0  3  0  0  0  0  0  0
  -17.5100  -30.6680   24.0650 C   0  0  0  0  0  3  0  0  0  0  0  0
  -16.4300  -29.8770   23.6350 C   0  0  0  0  0  3  0  0  0  0  0  0
  -16.6700  -28.6070   23.0810 C   0  0  0  0  0  3  0  0  0  0  0  0
  -25.8640  -32.5580   23.9810 C   0  0  0  0  0  3  0  0  0  0  0  0
  -26.3490  -31.8030   25.2810 C   0  0  1  0  0  0  0  0  0  0  0  0
  -25.2340  -31.5960   26.3320 C   0  0  0  0  0  1  0  0  0  0  0  0
  -26.9240  -30.4130   24.9270 C   0  0  0  0  0  1  0  0  0  0  0  0
  -27.4960  -32.5960   25.9500 C   0  0  0  0  0  1  0  0  0  0  0  0
  -25.5660  -33.9660   24.2890 N   0  0  0  0  0  0  0  0  0  0  0  0
  -25.9010  -35.0060   23.5130 C   0  0  0  0  0  0  0  0  0  0  0  0
  -26.5580  -34.8800   22.4770 O   0  0  0  0  0  0  0  0  0  0  0  0
  -24.9800  -34.1380   25.0920 H   0  0  0  0  0  0  0  0  0  0  0  0
  -24.1710  -36.8030   23.1720 C   0  0  0  0  0  1  0  0  0  0  0  0
  -25.4330  -36.4070   23.9560 C   0  0  0  0  0  3  0  0  0  0  0  0
  -27.5920  -37.3020   24.7110 C   0  0  0  0  0  1  0  0  0  0  0  0
  -26.4660  -37.4530   23.7920 N   0  0  0  0  0  0  0  0  0  0  0  0
  -26.0680  -38.3780   23.9280 H   0  0  0  0  0  0  0  0  0  0  0  0
  1  2  1  0
  2  4  1  0
  3  1  2  0
  5 17  1  0
  6 11  1  0
  7  8  1  0
  7  6  1  0
  9  8  1  0
  9 21  1  0
  9 10  1  0
 11  5  1  0
 11 10  1  0
 12  5  2  0
 14 13  1  0
 15 13  1  0
 16  1  1  0
 16 17  1  0
 16 14  1  0
 17 15  1  0
 18 19  2  0
 19 38  1  0
 20 19  1  0
 20 23  1  0
 21 22  1  0
 21 18  1  0
 22 20  2  0
 23 24  1  0
 24 25  2  0
 26 29  1  0
 26 25  1  0
 27 26  2  0
 28 27  1  0
 28 23  2  0
 29 30  1  0
 30 35  2  0
 30 31  1  0
 31 32  2  0
 32 33  1  0
 33 37  1  0
 34 33  2  0
 35 34  1  0
 36 35  1  0
 38 39  1  0
 39 42  1  0
 39 41  1  0
 40 38  2  0
 43 18  1  0
 43 44  1  0
 45 43  1  0
 46  2  1  0
 46 47  1  0
 48 49  1  0
 48 47  2  0
 50 61  2  0
 51 49  1  0
 51 56  1  0
 52 60  1  0
 52 62  1  0
 53 59  1  0
 53 55  1  0
 54 60  1  0
 55 56  2  0
 55 54  1  0
 57 51  2  0
 58 57  1  0
 58 53  2  0
 59 52  1  0
 60 50  1  0
 62 64  2  0
 63 62  1  0
 65 63  1  0
 66 75  2  0
 66 71  1  0
 67 63  1  0
 67 71  1  0
 68 67  1  0
 69 70  1  0
 69 68  1  0
 70 66  1  0
 71 72  2  0
 72 73  1  0
 74 73  2  0
 75 74  1  0
 76 50  1  0
 76 81  1  0
 76 77  1  0
 77 80  1  1
 77 78  1  0
 79 77  1  0
 81 84  1  0
 82 86  1  0
 82 81  1  0
 83 82  2  0
 86 85  1  0
 88 89  1  0
 88 86  1  0
 88 87  1  0
M  ISO  4   5 100  17 100  48 101  49 101
M  END
>  <TORSDO>  (81) 
F 19

>  <SCORE>  (81) 
-14.861

>  <name>  (81) 
81

>  <ligand_id>  (81) 
81

>  <original_smiles>  (81) 
[H]c1c([H])c([H])c2c(c1[H])C([H])([H])C([H])([H])C([H])([H])C2([H])N([H])C(=O)C1([H])N(C(=O)C([H])(N([H])C(=O)C([H])(N([H])C([H])([H])[H])C([H])([H])[H])C(C([H])([H])[H])(C([H])([H])[H])C([H])([H])[H])C([H])([H])c2c([H])c(OC([H])([H])C([H])([H])C([H])([H])N([H])C(=O)C3([H])N(C(=O)N4C([H])([H])C([H])([H])C([H])([H])C([H])(n5nc(-c6c([H])c([H])c(Oc7c([H])c([H])c(F)c([H])c7F)c([H])c6[H])c(C(=O)N([H])[H])c5N([H])[H])C4([H])[H])C([H])([H])C([H])([H])C3([H])[H])c([H])c([H])c2C1([H])[H]

>  <smiles>  (81) 
[H]c1c([H])c([H])c2c(c1[H])C([H])([H])C([H])([H])C([H])([H])C2([H])N([H])C(=O)C1([H])N(C(=O)C([H])(N([H])C(=O)C([H])(N([H])C([H])([H])[H])C([H])([H])[H])C(C([H])([H])[H])(C([H])([H])[H])C([H])([H])[H])C([H])([H])c2c([H])c(OC([H])([H])C([H])([H])C([H])([H])N([H])C(=O)C3([H])N(C(=O)N4C([H])([H])C([H])([H])C([H])([H])C([H])(n5nc(-c6c([H])c([H])c(Oc7c([H])c([H])c(F)c([H])c7F)c([H])c6[H])c(C(=O)N([H])[H])c5N([H])[H])C4([H])[H])C([H])([H])C([H])([H])C3([H])[H])c([H])c([H])c2C1([H])[H]

$$$$
82:0:0
     RDKit          3D

 88 96  0  0  1  0  0  0  0  0999 V2000
  -29.4280  -21.7410   19.9810 C   0  0  0  0  0  3  0  0  0  0  0  0
  -29.2700  -20.3410   19.7380 C   0  0  0  0  0  3  0  0  0  0  0  0
  -28.4440  -23.0720   19.7410 C   0  0  0  0  0  2  0  0  0  0  0  0
  -28.2920  -24.5170   20.6300 C   0  0  0  0  0  2  0  0  0  0  0  0
  -28.3500  -26.0220   20.1810 O   0  0  0  0  0  0  0  0  0  0  0  0
  -24.6440  -31.7570   23.0890 C   0  0  0  0  0  0  0  0  0  0  0  0
  -27.2590  -26.9710   20.1900 C   0  0  0  0  0  0  0  0  0  0  0  0
  -23.4630  -30.3290   21.4640 C   0  0  0  0  0  3  0  0  0  0  0  0
  -24.9250  -28.7150   20.0940 C   0  0  0  0  0  0  0  0  0  0  0  0
  -26.0180  -30.5900   21.3200 C   0  0  0  0  0  2  0  0  0  0  0  0
  -26.1000  -29.1800   20.7010 C   0  0  0  0  0  0  0  0  0  0  0  0
  -27.2690  -28.3270   20.7190 C   0  0  0  0  0  3  0  0  0  0  0  0
  -26.0540  -26.5980   19.5600 C   0  0  0  0  0  3  0  0  0  0  0  0
  -24.9160  -27.4380   19.5090 C   0  0  0  0  0  3  0  0  0  0  0  0
  -23.6990  -29.6180   20.1040 C   0  0  0  0  0  2  0  0  0  0  0  0
  -24.7280  -30.9160   22.0130 N   0  0  0  0  0  0  0  0  0  0  0  0
  -23.5520  -32.0510   23.6000 O   0  0  0  0  0  0  0  0  0  0  0  0
  -22.7710  -29.3450   22.4400 C   0  0  0  0  0  0  0  0  0  0  0  0
  -21.4400  -29.1900   22.3170 N   0  0  0  0  0  0  0  0  0  0  0  0
  -23.4350  -28.7190   23.2700 O   0  0  0  0  0  0  0  0  0  0  0  0
  -20.9610  -29.7450   21.6210 H   0  0  0  0  0  0  0  0  0  0  0  0
  -18.0430  -28.0430   22.8420 C   0  0  0  0  0  0  0  0  0  0  0  0
  -20.6080  -28.2710   23.0980 C   0  0  0  0  0  3  0  0  0  0  0  0
  -20.6870  -26.8330   22.5360 C   0  0  0  0  0  2  0  0  0  0  0  0
  -19.5770  -26.5170   21.5280 C   0  0  0  0  0  2  0  0  0  0  0  0
  -18.1990  -26.6860   22.1750 C   0  0  0  0  0  2  0  0  0  0  0  0
  -19.1740  -28.7940   23.2620 C   0  0  0  0  0  0  0  0  0  0  0  0
  -18.9730  -30.0620   23.8470 C   0  0  0  0  0  3  0  0  0  0  0  0
  -17.6750  -30.5800   24.0160 C   0  0  0  0  0  3  0  0  0  0  0  0
  -16.5600  -29.8260   23.6120 C   0  0  0  0  0  3  0  0  0  0  0  0
  -16.7450  -28.5590   23.0310 C   0  0  0  0  0  3  0  0  0  0  0  0
  -25.9150  -32.4050   23.7200 C   0  0  0  0  0  3  0  0  0  0  0  0
  -26.4580  -31.6120   24.9730 C   0  0  1  0  0  0  0  0  0  0  0  0
  -25.3770  -31.3130   26.0380 C   0  0  0  0  0  1  0  0  0  0  0  0
  -27.0780  -30.2630   24.5430 C   0  0  0  0  0  1  0  0  0  0  0  0
  -27.5900  -32.4200   25.6520 C   0  0  0  0  0  1  0  0  0  0  0  0
  -25.5740  -33.7860   24.0980 N   0  0  0  0  0  0  0  0  0  0  0  0
  -25.8690  -34.8730   23.3730 C   0  0  0  0  0  0  0  0  0  0  0  0
  -26.5210  -34.8190   22.3280 O   0  0  0  0  0  0  0  0  0  0  0  0
  -24.9880  -33.8990   24.9130 H   0  0  0  0  0  0  0  0  0  0  0  0
  -24.0890  -36.6360   23.1210 C   0  0  0  0  0  1  0  0  0  0  0  0
  -25.3600  -36.2350   23.8860 C   0  0  0  0  0  3  0  0  0  0  0  0
  -27.4950  -37.1470   24.6880 C   0  0  0  0  0  1  0  0  0  0  0  0
  -26.3640  -37.3170   23.7810 N   0  0  0  0  0  0  0  0  0  0  0  0
  -25.9400  -38.2210   23.9680 H   0  0  0  0  0  0  0  0  0  0  0  0
  -30.3050  -19.0260   19.6290 C   0  0  0  0  0  2  0  0  0  0  0  0
  -30.7430  -16.3170   20.7190 C   0  0  0  0  0  0  0  0  0  0  0  0
  -30.7400  -16.2080   22.0970 C   0  0  0  0  0  0  0  0  0  0  0  0
  -31.2980  -15.1470   23.0070 C   0  0  0  0  0  1  0  0  0  0  0  0
  -30.2050  -17.3350   22.6970 N   0  0  0  0  0  0  0  0  0  0  0  0
  -29.9570  -18.2260   21.8120 N   0  0  0  0  0  0  0  0  0  0  0  0
  -30.3320  -17.7770   20.5890 N   0  0  0  0  0  0  0  0  0  0  0  0
  -31.2820  -15.0920   19.8050 C   0  0  0  0  0  0  0  0  0  0  0  0
  -30.9420  -12.8400   18.6210 C   0  0  0  0  0  2  0  0  0  0  0  0
  -29.8900  -12.9460   17.4870 C   0  0  0  0  0  2  0  0  0  0  0  0
  -28.4600  -12.7700   18.0330 C   0  0  0  0  0  2  0  0  0  0  0  0
  -28.2280  -13.6090   19.3110 C   0  0  0  0  0  3  0  0  0  0  0  0
  -29.3710  -13.4330   20.3220 C   0  0  0  0  0  2  0  0  0  0  0  0
  -30.6260  -13.8550   19.6740 N   0  0  0  0  0  0  0  0  0  0  0  0
  -32.3530  -15.2020   19.1970 O   0  0  0  0  0  0  0  0  0  0  0  0
  -25.9780  -14.2790   20.3340 C   0  0  0  0  0  0  0  0  0  0  0  0
  -24.9050  -13.5450   20.7600 C   0  0  0  0  0  0  0  0  0  0  0  0
  -25.2710  -12.1750   20.5910 C   0  0  0  0  0  0  0  0  0  0  0  0
  -26.9270  -13.3580   19.9210 N   0  0  0  0  0  0  0  0  0  0  0  0
  -26.5180  -12.0810   20.1440 N   0  0  0  0  0  0  0  0  0  0  0  0
  -24.4830  -10.9490   20.7730 C   0  0  0  0  0  0  0  0  0  0  0  0
  -24.8990   -9.9250   21.6540 C   0  0  0  0  0  3  0  0  0  0  0  0
  -24.1130   -8.7650   21.8240 C   0  0  0  0  0  3  0  0  0  0  0  0
  -22.8970   -8.6200   21.1140 C   0  0  0  0  0  0  0  0  0  0  0  0
  -22.4990   -9.6310   20.2220 C   0  0  0  0  0  3  0  0  0  0  0  0
  -23.2850  -10.7830   20.0500 C   0  0  0  0  0  3  0  0  0  0  0  0
  -22.0820   -7.5160   21.1960 O   0  0  0  0  0  0  0  0  0  0  0  0
  -21.9920   -6.7730   22.3450 C   0  0  0  0  0  0  0  0  0  0  0  0
  -21.6410   -7.3550   23.5830 C   0  0  0  0  0  3  0  0  0  0  0  0
  -21.4900   -6.5420   24.7250 C   0  0  0  0  0  3  0  0  0  0  0  0
  -21.6810   -5.1510   24.6300 C   0  0  0  0  0  0  0  0  0  0  0  0
  -22.0240   -4.5700   23.3980 C   0  0  0  0  0  3  0  0  0  0  0  0
  -22.1760   -5.3780   22.2570 C   0  0  0  0  0  0  0  0  0  0  0  0
  -22.4870   -4.8100   21.0670 F   0  0  0  0  0  0  0  0  0  0  0  0
  -21.5280   -4.3700   25.7250 F   0  0  0  0  0  0  0  0  0  0  0  0
  -23.5770  -14.0850   21.2060 C   0  0  0  0  0  0  0  0  0  0  0  0
  -22.9150  -13.4000   22.1310 N   0  0  0  0  0  0  0  0  0  0  0  0
  -23.1410  -15.1500   20.7680 O   0  0  0  0  0  0  0  0  0  0  0  0
  -23.2820  -12.5370   22.5050 H   0  0  0  0  0  0  0  0  0  0  0  0
  -22.0270  -13.7420   22.4700 H   0  0  0  0  0  0  0  0  0  0  0  0
  -26.2180  -15.6460   20.2380 N   0  0  0  0  0  0  0  0  0  0  0  0
  -25.5220  -16.3380   20.4930 H   0  0  0  0  0  0  0  0  0  0  0  0
  -27.0730  -16.0560   19.8860 H   0  0  0  0  0  0  0  0  0  0  0  0
  2  1  2  0
  3  1  1  0
  3  4  1  0
  5  7  1  0
  5  4  1  0
  6 17  2  0
  7 12  1  0
  8 16  1  0
  8 18  1  0
  9 15  1  0
  9 11  1  0
 10 16  1  0
 11 12  2  0
 11 10  1  0
 13  7  2  0
 14 13  1  0
 14  9  2  0
 15  8  1  0
 16  6  1  0
 18 20  2  0
 19 18  1  0
 21 19  1  0
 22 31  2  0
 22 27  1  0
 23 19  1  0
 23 27  1  0
 24 23  1  0
 25 26  1  0
 25 24  1  0
 26 22  1  0
 27 28  2  0
 28 29  1  0
 30 29  2  0
 31 30  1  0
 32  6  1  0
 32 37  1  0
 32 33  1  0
 33 36  1  1
 33 34  1  0
 35 33  1  0
 37 40  1  0
 38 42  1  0
 38 37  1  0
 39 38  2  0
 42 41  1  0
 44 42  1  0
 44 45  1  0
 44 43  1  0
 46  2  1  0
 46 52  1  0
 47 48  2  0
 48 50  1  0
 48 49  1  0
 51 50  2  0
 52 47  1  0
 52 51  1  0
 53 47  1  0
 54 59  1  0
 55 56  1  0
 55 54  1  0
 57 56  1  0
 57 64  1  0
 57 58  1  0
 59 53  1  0
 59 58  1  0
 60 53  2  0
 61 62  2  0
 62 81  1  0
 63 62  1  0
 63 66  1  0
 64 65  1  0
 64 61  1  0
 65 63  2  0
 66 67  1  0
 67 68  2  0
 69 72  1  0
 69 68  1  0
 70 69  2  0
 71 70  1  0
 71 66  2  0
 72 73  1  0
 73 74  1  0
 74 75  2  0
 76 75  1  0
 76 80  1  0
 77 76  2  0
 78 73  2  0
 78 77  1  0
 79 78  1  0
 81 82  1  0
 82 85  1  0
 82 84  1  0
 83 81  2  0
 86 61  1  0
 86 87  1  0
 88 86  1  0
M  ISO  4   4 101   5 101  47 100  53 100
M  END
>  <TORSDO>  (82) 
F 20

>  <SCORE>  (82) 
-10.855

>  <name>  (82) 
82

>  <ligand_id>  (82) 
82

>  <original_smiles>  (82) 
[H]C(=C([H])C([H])([H])C([H])([H])Oc1c([H])c([H])c2c(c1[H])C([H])([H])N(C(=O)C([H])(N([H])C(=O)C([H])(N([H])C([H])([H])[H])C([H])([H])[H])C(C([H])([H])[H])(C([H])([H])[H])C([H])([H])[H])C([H])(C(=O)N([H])C1([H])c3c([H])c([H])c([H])c([H])c3C([H])([H])C([H])([H])C1([H])[H])C2([H])[H])C([H])([H])n1nnc(C([H])([H])[H])c1C(=O)N1C([H])([H])C([H])([H])C([H])([H])C([H])(n2nc(-c3c([H])c([H])c(Oc4c([H])c([H])c(F)c([H])c4F)c([H])c3[H])c(C(=O)N([H])[H])c2N([H])[H])C1([H])[H]

>  <smiles>  (82) 
[H]C(=C([H])C([H])([H])C([H])([H])Oc1c([H])c([H])c2c(c1[H])C([H])([H])N(C(=O)C([H])(N([H])C(=O)C([H])(N([H])C([H])([H])[H])C([H])([H])[H])C(C([H])([H])[H])(C([H])([H])[H])C([H])([H])[H])C([H])(C(=O)N([H])C1([H])c3c([H])c([H])c([H])c([H])c3C([H])([H])C([H])([H])C1([H])[H])C2([H])[H])C([H])([H])n1nnc(C([H])([H])[H])c1C(=O)N1C([H])([H])C([H])([H])C([H])([H])C([H])(n2nc(-c3c([H])c([H])c(Oc4c([H])c([H])c(F)c([H])c4F)c([H])c3[H])c(C(=O)N([H])[H])c2N([H])[H])C1([H])[H]

$$$$
83:0:0
     RDKit          3D

 97104  0  0  1  0  0  0  0  0999 V2000
  -30.5350  -20.6780   19.9620 C   0  0  0  0  0  3  0  0  0  0  0  0
  -29.3910  -21.6150   20.4880 C   0  0  0  0  0  0  0  0  0  0  0  0
  -29.1730  -22.8040   19.8660 N   0  0  0  0  0  0  0  0  0  0  0  0
  -28.7270  -21.2740   21.4700 O   0  0  0  0  0  0  0  0  0  0  0  0
  -29.7520  -23.0060   19.0630 H   0  0  0  0  0  0  0  0  0  0  0  0
  -28.2160  -23.8690   20.2740 C   0  0  0  0  0  2  0  0  0  0  0  0
  -28.3580  -25.1990   19.4540 C   0  0  0  0  0  2  0  0  0  0  0  0
  -28.1980  -26.4540   20.1700 O   0  0  0  0  0  0  0  0  0  0  0  0
  -24.5900  -31.8360   23.1660 C   0  0  0  0  0  0  0  0  0  0  0  0
  -27.0320  -27.2090   20.1280 C   0  0  0  0  0  0  0  0  0  0  0  0
  -23.3120  -30.4370   21.5770 C   0  0  0  0  0  3  0  0  0  0  0  0
  -24.6860  -28.8200   20.1500 C   0  0  0  0  0  0  0  0  0  0  0  0
  -25.8440  -30.6980   21.3220 C   0  0  0  0  0  2  0  0  0  0  0  0
  -25.8690  -29.3060   20.7140 C   0  0  0  0  0  0  0  0  0  0  0  0
  -27.0380  -28.5070   20.7030 C   0  0  0  0  0  3  0  0  0  0  0  0
  -25.8280  -26.7420   19.5540 C   0  0  0  0  0  3  0  0  0  0  0  0
  -24.6630  -27.5410   19.5650 C   0  0  0  0  0  3  0  0  0  0  0  0
  -23.4730  -29.7250   20.2060 C   0  0  0  0  0  2  0  0  0  0  0  0
  -24.6030  -31.0080   22.0790 N   0  0  0  0  0  0  0  0  0  0  0  0
  -23.5280  -32.1510   23.7180 O   0  0  0  0  0  0  0  0  0  0  0  0
  -22.6490  -29.4590   22.5750 C   0  0  0  0  0  0  0  0  0  0  0  0
  -21.3320  -29.2500   22.4220 N   0  0  0  0  0  0  0  0  0  0  0  0
  -23.3180  -28.8850   23.4380 O   0  0  0  0  0  0  0  0  0  0  0  0
  -20.8560  -29.7670   21.6960 H   0  0  0  0  0  0  0  0  0  0  0  0
  -17.9770  -27.9750   22.8130 C   0  0  0  0  0  0  0  0  0  0  0  0
  -20.5030  -28.3380   23.2090 C   0  0  0  0  0  3  0  0  0  0  0  0
  -20.6850  -26.8740   22.7400 C   0  0  0  0  0  2  0  0  0  0  0  0
  -19.6530  -26.4490   21.6920 C   0  0  0  0  0  2  0  0  0  0  0  0
  -18.2330  -26.5900   22.2480 C   0  0  0  0  0  2  0  0  0  0  0  0
  -19.0440  -28.8030   23.2500 C   0  0  0  0  0  0  0  0  0  0  0  0
  -18.7530  -30.0990   23.7270 C   0  0  0  0  0  3  0  0  0  0  0  0
  -17.4240  -30.5600   23.7930 C   0  0  0  0  0  3  0  0  0  0  0  0
  -16.3700  -29.7270   23.3800 C   0  0  0  0  0  3  0  0  0  0  0  0
  -16.6460  -28.4400   22.8890 C   0  0  0  0  0  3  0  0  0  0  0  0
  -25.9040  -32.4370   23.7520 C   0  0  0  0  0  3  0  0  0  0  0  0
  -26.4900  -31.6030   24.9580 C   0  0  1  0  0  0  0  0  0  0  0  0
  -25.4500  -31.2740   26.0550 C   0  0  0  0  0  1  0  0  0  0  0  0
  -27.0840  -30.2690   24.4500 C   0  0  0  0  0  1  0  0  0  0  0  0
  -27.6460  -32.3840   25.6260 C   0  0  0  0  0  1  0  0  0  0  0  0
  -25.6130  -33.8160   24.1670 N   0  0  0  0  0  0  0  0  0  0  0  0
  -25.9040  -34.9060   23.4480 C   0  0  0  0  0  0  0  0  0  0  0  0
  -26.5210  -34.8590   22.3800 O   0  0  0  0  0  0  0  0  0  0  0  0
  -25.0620  -33.9290   25.0060 H   0  0  0  0  0  0  0  0  0  0  0  0
  -24.1530  -36.7060   23.2880 C   0  0  0  0  0  1  0  0  0  0  0  0
  -25.4410  -36.2690   24.0030 C   0  0  0  0  0  3  0  0  0  0  0  0
  -27.6210  -37.1280   24.7440 C   0  0  0  0  0  1  0  0  0  0  0  0
  -26.4610  -37.3340   23.8790 N   0  0  0  0  0  0  0  0  0  0  0  0
  -26.0590  -38.2430   24.0960 H   0  0  0  0  0  0  0  0  0  0  0  0
  -30.5740  -18.1070   19.9760 C   0  0  0  0  0  0  0  0  0  0  0  0
  -30.5750  -19.3230   20.5760 N   0  0  0  0  0  0  0  0  0  0  0  0
  -30.2300  -17.9620   18.8010 O   0  0  0  0  0  0  0  0  0  0  0  0
  -30.7810  -19.3230   21.5630 H   0  0  0  0  0  0  0  0  0  0  0  0
  -31.1180  -16.8750   20.7780 C   0  0  0  0  0  3  0  0  0  0  0  0
  -31.1510  -14.4750   19.9130 C   0  0  0  0  0  0  0  0  0  0  0  0
  -30.7250  -12.2760   18.8500 C   0  0  0  0  0  2  0  0  0  0  0  0
  -29.7320  -12.4440   17.6820 C   0  0  0  0  0  2  0  0  0  0  0  0
  -28.2790  -12.3730   18.1880 C   0  0  0  0  0  2  0  0  0  0  0  0
  -28.0250  -13.2800   19.4220 C   0  0  0  0  0  3  0  0  0  0  0  0
  -29.1230  -13.0790   20.4890 C   0  0  0  0  0  2  0  0  0  0  0  0
  -30.4240  -13.3250   19.8410 N   0  0  0  0  0  0  0  0  0  0  0  0
  -32.2890  -14.5610   19.4390 O   0  0  0  0  0  0  0  0  0  0  0  0
  -30.5180  -15.5620   20.4140 N   0  0  0  0  0  0  0  0  0  0  0  0
  -29.5500  -15.4360   20.6670 H   0  0  0  0  0  0  0  0  0  0  0  0
  -25.7090  -14.0130   20.2610 C   0  0  0  0  0  0  0  0  0  0  0  0
  -24.6160  -13.3010   20.6790 C   0  0  0  0  0  0  0  0  0  0  0  0
  -24.9950  -11.9240   20.6100 C   0  0  0  0  0  0  0  0  0  0  0  0
  -26.6860  -13.0760   19.9690 N   0  0  0  0  0  0  0  0  0  0  0  0
  -26.2640  -11.8130   20.2360 N   0  0  0  0  0  0  0  0  0  0  0  0
  -24.2050  -10.7050   20.8240 C   0  0  0  0  0  0  0  0  0  0  0  0
  -24.5920   -9.7290   21.7690 C   0  0  0  0  0  3  0  0  0  0  0  0
  -23.8040   -8.5740   21.9700 C   0  0  0  0  0  3  0  0  0  0  0  0
  -22.6150   -8.3860   21.2250 C   0  0  0  0  0  0  0  0  0  0  0  0
  -22.2490   -9.3500   20.2680 C   0  0  0  0  0  3  0  0  0  0  0  0
  -23.0360  -10.4960   20.0670 C   0  0  0  0  0  3  0  0  0  0  0  0
  -21.8020   -7.2850   21.3330 O   0  0  0  0  0  0  0  0  0  0  0  0
  -21.6770   -6.5980   22.5150 C   0  0  0  0  0  0  0  0  0  0  0  0
  -21.2350   -7.2290   23.6980 C   0  0  0  0  0  3  0  0  0  0  0  0
  -21.0530   -6.4710   24.8720 C   0  0  0  0  0  3  0  0  0  0  0  0
  -21.3030   -5.0850   24.8630 C   0  0  0  0  0  0  0  0  0  0  0  0
  -21.7360   -4.4560   23.6840 C   0  0  0  0  0  3  0  0  0  0  0  0
  -21.9200   -5.2100   22.5130 C   0  0  0  0  0  0  0  0  0  0  0  0
  -22.3180   -4.5960   21.3730 F   0  0  0  0  0  0  0  0  0  0  0  0
  -21.1200   -4.3550   25.9890 F   0  0  0  0  0  0  0  0  0  0  0  0
  -23.2670  -13.8570   21.0310 C   0  0  0  0  0  0  0  0  0  0  0  0
  -22.5530  -13.2020   21.9400 N   0  0  0  0  0  0  0  0  0  0  0  0
  -22.8590  -14.9060   20.5340 O   0  0  0  0  0  0  0  0  0  0  0  0
  -22.8940  -12.3480   22.3550 H   0  0  0  0  0  0  0  0  0  0  0  0
  -21.6530  -13.5600   22.2260 H   0  0  0  0  0  0  0  0  0  0  0  0
  -25.9450  -15.3720   20.0850 N   0  0  0  0  0  0  0  0  0  0  0  0
  -25.2290  -16.0740   20.2340 H   0  0  0  0  0  0  0  0  0  0  0  0
  -26.7920  -15.7580   19.6860 H   0  0  0  0  0  0  0  0  0  0  0  0
  -29.6030  -17.2960   22.8640 C   0  0  0  0  0  1  0  0  0  0  0  0
  -31.6940  -15.9030   23.0850 C   0  0  0  0  0  1  0  0  0  0  0  0
  -31.0300  -17.0640   22.3240 C   0  0  0  0  0  3  0  0  0  0  0  0
  -32.3430  -21.5390   21.6110 C   0  0  0  0  0  1  0  0  0  0  0  0
  -33.0740  -20.5430   19.4190 C   0  0  0  0  0  1  0  0  0  0  0  0
  -31.9490  -21.3250   20.1340 C   0  0  0  0  0  3  0  0  0  0  0  0
  1 97  1  0
  1  2  1  0
  1 50  1  0
  2  4  2  0
  3  6  1  0
  3  2  1  0
  5  3  1  0
  7  8  1  0
  7  6  1  0
  9 20  2  0
 10  8  1  0
 10 15  1  0
 11 19  1  0
 11 21  1  0
 12 18  1  0
 12 14  1  0
 13 19  1  0
 14 13  1  0
 15 14  2  0
 16 17  1  0
 16 10  2  0
 17 12  2  0
 18 11  1  0
 19  9  1  0
 21 23  2  0
 22 21  1  0
 24 22  1  0
 25 34  2  0
 25 30  1  0
 26 22  1  0
 26 30  1  0
 27 26  1  0
 28 29  1  0
 28 27  1  0
 29 25  1  0
 30 31  2  0
 31 32  1  0
 33 32  2  0
 34 33  1  0
 35  9  1  0
 35 40  1  0
 35 36  1  0
 36 39  1  1
 36 37  1  0
 38 36  1  0
 40 43  1  0
 41 45  1  0
 41 40  1  0
 42 41  2  0
 45 44  1  0
 47 45  1  0
 47 48  1  0
 47 46  1  0
 49 50  1  0
 50 52  1  0
 51 49  2  0
 53 49  1  0
 53 94  1  0
 54 62  1  0
 55 60  1  0
 56 57  1  0
 56 55  1  0
 58 57  1  0
 58 67  1  0
 58 59  1  0
 60 54  1  0
 60 59  1  0
 61 54  2  0
 62 63  1  0
 62 53  1  0
 64 65  2  0
 65 84  1  0
 66 65  1  0
 66 69  1  0
 67 68  1  0
 67 64  1  0
 68 66  2  0
 69 70  1  0
 70 71  2  0
 72 75  1  0
 72 71  1  0
 73 72  2  0
 74 73  1  0
 74 69  2  0
 75 76  1  0
 76 77  1  0
 77 78  2  0
 79 78  1  0
 79 83  1  0
 80 79  2  0
 81 76  2  0
 81 80  1  0
 82 81  1  0
 84 85  1  0
 85 88  1  0
 85 87  1  0
 86 84  2  0
 89 90  1  0
 89 64  1  0
 91 89  1  0
 94 92  1  0
 94 93  1  0
 96 97  1  0
 97 95  1  0
M  ISO  4   7 101   8 101  54 100  62 100
M  END
>  <TORSDO>  (83) 
F 23

>  <SCORE>  (83) 
-9.118

>  <name>  (83) 
83

>  <ligand_id>  (83) 
83

>  <original_smiles>  (83) 
[H]c1c([H])c([H])c2c(c1[H])C([H])([H])C([H])([H])C([H])([H])C2([H])N([H])C(=O)C1([H])N(C(=O)C([H])(N([H])C(=O)C([H])(N([H])C([H])([H])[H])C([H])([H])[H])C(C([H])([H])[H])(C([H])([H])[H])C([H])([H])[H])C([H])([H])c2c([H])c(OC([H])([H])C([H])([H])N([H])C(=O)C([H])(N([H])C(=O)C([H])(N([H])C(=O)N3C([H])([H])C([H])([H])C([H])([H])C([H])(n4nc(-c5c([H])c([H])c(Oc6c([H])c([H])c(F)c([H])c6F)c([H])c5[H])c(C(=O)N([H])[H])c4N([H])[H])C3([H])[H])C([H])(C([H])([H])[H])C([H])([H])[H])C([H])(C([H])([H])[H])C([H])([H])[H])c([H])c([H])c2C1([H])[H]

>  <smiles>  (83) 
[H]c1c([H])c([H])c2c(c1[H])C([H])([H])C([H])([H])C([H])([H])C2([H])N([H])C(=O)C1([H])N(C(=O)C([H])(N([H])C(=O)C([H])(N([H])C([H])([H])[H])C([H])([H])[H])C(C([H])([H])[H])(C([H])([H])[H])C([H])([H])[H])C([H])([H])c2c([H])c(OC([H])([H])C([H])([H])N([H])C(=O)C([H])(N([H])C(=O)C([H])(N([H])C(=O)N3C([H])([H])C([H])([H])C([H])([H])C([H])(n4nc(-c5c([H])c([H])c(Oc6c([H])c([H])c(F)c([H])c6F)c([H])c5[H])c(C(=O)N([H])[H])c4N([H])[H])C3([H])[H])C([H])(C([H])([H])[H])C([H])([H])[H])C([H])(C([H])([H])[H])C([H])([H])[H])c([H])c([H])c2C1([H])[H]

$$$$
84:0:0
     RDKit          3D

 92100  0  0  1  0  0  0  0  0999 V2000
  -29.2000  -20.5390   20.2440 C   0  0  0  0  0  0  0  0  0  0  0  0
  -28.8300  -22.0750   20.2830 C   0  0  0  0  0  0  0  0  0  0  0  0
  -30.6450  -20.3650   20.6870 C   0  0  0  0  0  2  0  0  0  0  0  0
  -28.7580  -19.9590   17.4870 C   0  0  0  0  0  2  0  0  0  0  0  0
  -30.2390  -20.3580   17.2510 C   0  0  0  0  0  2  0  0  0  0  0  0
  -28.5450  -18.6600   18.2850 C   0  0  0  0  0  2  0  0  0  0  0  0
  -31.3450  -19.7770   18.1940 C   0  0  0  0  0  2  0  0  0  0  0  0
  -28.8210  -18.7440   19.8090 C   0  0  0  0  0  3  0  0  0  0  0  0
  -31.7000  -20.4870   19.5410 C   0  0  0  0  0  3  0  0  0  0  0  0
  -30.0380  -15.6880   20.0470 C   0  0  0  0  0  0  0  0  0  0  0  0
  -30.2190  -13.1050   19.2940 C   0  0  0  0  0  2  0  0  0  0  0  0
  -29.3030  -12.6650   18.1110 C   0  0  0  0  0  2  0  0  0  0  0  0
  -27.9160  -12.2480   18.6210 C   0  0  0  0  0  2  0  0  0  0  0  0
  -27.4200  -13.2300   19.7100 C   0  0  0  0  0  3  0  0  0  0  0  0
  -28.4800  -13.5990   20.7800 C   0  0  0  0  0  2  0  0  0  0  0  0
  -29.5970  -14.2780   20.0820 N   0  0  0  0  0  0  0  0  0  0  0  0
  -31.2280  -15.6750   19.6720 O   0  0  0  0  0  0  0  0  0  0  0  0
  -29.2350  -17.0280   20.2710 N   0  0  0  0  0  0  0  0  0  0  0  0
  -28.4390  -16.7090   20.8080 H   0  0  0  0  0  0  0  0  0  0  0  0
  -25.1030  -13.6790   20.6360 C   0  0  0  0  0  0  0  0  0  0  0  0
  -24.0840  -12.8640   21.0400 C   0  0  0  0  0  0  0  0  0  0  0  0
  -24.5730  -11.5260   20.9210 C   0  0  0  0  0  0  0  0  0  0  0  0
  -26.1430  -12.8390   20.2890 N   0  0  0  0  0  0  0  0  0  0  0  0
  -25.8450  -11.5340   20.5270 N   0  0  0  0  0  0  0  0  0  0  0  0
  -23.8770  -10.2430   21.0980 C   0  0  0  0  0  0  0  0  0  0  0  0
  -24.3390   -9.2700   22.0130 C   0  0  0  0  0  3  0  0  0  0  0  0
  -23.6390   -8.0560   22.1840 C   0  0  0  0  0  3  0  0  0  0  0  0
  -22.4640   -7.8040   21.4380 C   0  0  0  0  0  0  0  0  0  0  0  0
  -22.0210   -8.7630   20.5120 C   0  0  0  0  0  3  0  0  0  0  0  0
  -22.7200   -9.9700   20.3390 C   0  0  0  0  0  3  0  0  0  0  0  0
  -21.7330   -6.6410   21.5200 O   0  0  0  0  0  0  0  0  0  0  0  0
  -21.6740   -5.9060   22.6760 C   0  0  0  0  0  0  0  0  0  0  0  0
  -21.1110   -6.4250   23.8620 C   0  0  0  0  0  3  0  0  0  0  0  0
  -21.0090   -5.6110   25.0080 C   0  0  0  0  0  3  0  0  0  0  0  0
  -21.4600   -4.2780   24.9700 C   0  0  0  0  0  0  0  0  0  0  0  0
  -22.0170   -3.7580   23.7860 C   0  0  0  0  0  3  0  0  0  0  0  0
  -22.1200   -4.5690   22.6440 C   0  0  0  0  0  0  0  0  0  0  0  0
  -22.6350   -4.0560   21.4990 F   0  0  0  0  0  0  0  0  0  0  0  0
  -21.3560   -3.4940   26.0660 F   0  0  0  0  0  0  0  0  0  0  0  0
  -22.6970  -13.3020   21.4100 C   0  0  0  0  0  0  0  0  0  0  0  0
  -22.0290  -12.5570   22.2820 N   0  0  0  0  0  0  0  0  0  0  0  0
  -22.2160  -14.3400   20.9540 O   0  0  0  0  0  0  0  0  0  0  0  0
  -22.4340  -11.7170   22.6690 H   0  0  0  0  0  0  0  0  0  0  0  0
  -21.1000  -12.8320   22.5700 H   0  0  0  0  0  0  0  0  0  0  0  0
  -25.2360  -15.0560   20.5000 N   0  0  0  0  0  0  0  0  0  0  0  0
  -24.4790  -15.7070   20.6820 H   0  0  0  0  0  0  0  0  0  0  0  0
  -26.0490  -15.4990   20.0880 H   0  0  0  0  0  0  0  0  0  0  0  0
  -32.7630  -22.3870   18.2090 C   0  0  0  0  0  2  0  0  0  0  0  0
  -32.3830  -21.8610   19.3900 C   0  0  0  0  0  0  0  0  0  0  0  0
  -32.6740  -22.6270   20.6690 C   0  0  0  0  0  1  0  0  0  0  0  0
  -27.7910  -23.6200   20.0490 C   0  0  0  0  0  3  0  0  0  0  0  0
  -28.0070  -25.3760   20.2840 O   0  0  0  0  0  0  0  0  0  0  0  0
  -24.6500  -31.7800   23.2320 C   0  0  0  0  0  0  0  0  0  0  0  0
  -27.0730  -26.6330   20.2210 C   0  0  0  0  0  0  0  0  0  0  0  0
  -23.4420  -30.4160   21.5840 C   0  0  0  0  0  3  0  0  0  0  0  0
  -24.8580  -28.7420   20.1650 C   0  0  0  0  0  0  0  0  0  0  0  0
  -26.0260  -30.4920   21.4760 C   0  0  0  0  0  2  0  0  0  0  0  0
  -26.0590  -29.0600   20.8080 C   0  0  0  0  0  0  0  0  0  0  0  0
  -27.1510  -28.0340   20.8030 C   0  0  0  0  0  3  0  0  0  0  0  0
  -25.8430  -26.5370   19.5160 C   0  0  0  0  0  3  0  0  0  0  0  0
  -24.7930  -27.5060   19.4960 C   0  0  0  0  0  3  0  0  0  0  0  0
  -23.6700  -29.7210   20.2110 C   0  0  0  0  0  2  0  0  0  0  0  0
  -24.7310  -30.9290   22.1500 N   0  0  0  0  0  0  0  0  0  0  0  0
  -23.5590  -32.1030   23.7350 O   0  0  0  0  0  0  0  0  0  0  0  0
  -22.6970  -29.4490   22.5480 C   0  0  0  0  0  0  0  0  0  0  0  0
  -21.3680  -29.2980   22.3920 N   0  0  0  0  0  0  0  0  0  0  0  0
  -23.3320  -28.8320   23.4070 O   0  0  0  0  0  0  0  0  0  0  0  0
  -20.9060  -29.8430   21.6760 H   0  0  0  0  0  0  0  0  0  0  0  0
  -17.9650  -28.0940   22.8330 C   0  0  0  0  0  0  0  0  0  0  0  0
  -20.5200  -28.3700   23.1520 C   0  0  0  0  0  3  0  0  0  0  0  0
  -20.6340  -26.9300   22.5960 C   0  0  0  0  0  2  0  0  0  0  0  0
  -19.5580  -26.5980   21.5580 C   0  0  0  0  0  2  0  0  0  0  0  0
  -18.1610  -26.7430   22.1670 C   0  0  0  0  0  2  0  0  0  0  0  0
  -19.0730  -28.8660   23.2810 C   0  0  0  0  0  0  0  0  0  0  0  0
  -18.8310  -30.1270   23.8680 C   0  0  0  0  0  3  0  0  0  0  0  0
  -17.5210  -30.6180   24.0100 C   0  0  0  0  0  3  0  0  0  0  0  0
  -16.4290  -29.8450   23.5780 C   0  0  0  0  0  3  0  0  0  0  0  0
  -16.6520  -28.5840   22.9950 C   0  0  0  0  0  3  0  0  0  0  0  0
  -25.9200  -32.4040   23.8840 C   0  0  0  0  0  3  0  0  0  0  0  0
  -25.6380  -33.8220   24.1870 N   0  0  0  0  0  0  0  0  0  0  0  0
  -25.9540  -34.8570   23.3960 C   0  0  0  0  0  0  0  0  0  0  0  0
  -26.5670  -34.7180   22.3360 O   0  0  0  0  0  0  0  0  0  0  0  0
  -25.0910  -34.0050   25.0150 H   0  0  0  0  0  0  0  0  0  0  0  0
  -24.2170  -36.6650   23.1390 C   0  0  0  0  0  1  0  0  0  0  0  0
  -25.5230  -36.2690   23.8470 C   0  0  0  0  0  3  0  0  0  0  0  0
  -27.7190  -37.1780   24.4680 C   0  0  0  0  0  1  0  0  0  0  0  0
  -26.5500  -37.3070   23.6030 N   0  0  0  0  0  0  0  0  0  0  0  0
  -26.1620  -38.2370   23.7310 H   0  0  0  0  0  0  0  0  0  0  0  0
  -26.3630  -31.6580   25.2060 C   0  0  1  0  0  0  0  0  0  0  0  0
  -25.2240  -31.4860   26.2390 C   0  0  0  0  0  1  0  0  0  0  0  0
  -26.9190  -30.2520   24.8920 C   0  0  0  0  0  1  0  0  0  0  0  0
  -27.5150  -32.4380   25.8850 C   0  0  0  0  0  1  0  0  0  0  0  0
  1  2  2  0
  1  3  1  0
  4  6  1  0
  5  4  1  0
  5  7  1  0
  6  8  1  0
  7  9  1  0
  8  1  1  0
  8 18  1  0
  9 49  1  0
  9  3  1  0
 10 16  1  0
 10 18  1  0
 11 16  1  0
 12 13  1  0
 12 11  1  0
 14 13  1  0
 14 23  1  0
 14 15  1  0
 16 15  1  0
 17 10  2  0
 18 19  1  0
 20 21  2  0
 21 40  1  0
 22 21  1  0
 22 25  1  0
 23 24  1  0
 23 20  1  0
 24 22  2  0
 25 26  1  0
 26 27  2  0
 28 31  1  0
 28 27  1  0
 29 28  2  0
 30 29  1  0
 30 25  2  0
 31 32  1  0
 32 33  1  0
 33 34  2  0
 35 34  1  0
 35 39  1  0
 36 35  2  0
 37 32  2  0
 37 36  1  0
 38 37  1  0
 40 41  1  0
 41 44  1  0
 41 43  1  0
 42 40  2  0
 45 20  1  0
 45 46  1  0
 47 45  1  0
 48 49  2  0
 49 50  1  0
 51  2  2  0
 51 52  1  0
 53 64  2  0
 54 52  1  0
 54 59  1  0
 55 63  1  0
 55 65  1  0
 56 62  1  0
 56 58  1  0
 57 63  1  0
 58 57  1  0
 59 58  2  0
 60 54  2  0
 61 60  1  0
 61 56  2  0
 62 55  1  0
 63 53  1  0
 65 67  2  0
 66 65  1  0
 68 66  1  0
 69 78  2  0
 69 74  1  0
 70 66  1  0
 70 74  1  0
 71 70  1  0
 72 73  1  0
 72 71  1  0
 73 69  1  0
 74 75  2  0
 75 76  1  0
 77 76  2  0
 78 77  1  0
 79 53  1  0
 79 80  1  0
 79 89  1  0
 80 83  1  0
 81 85  1  0
 81 80  1  0
 82 81  2  0
 85 84  1  0
 87 88  1  0
 87 85  1  0
 87 86  1  0
 89 92  1  1
 89 90  1  0
 91 89  1  0
M  ISO  4  10 100  18 100  51 101  52 101
M  END
>  <TORSDO>  (84) 
F 18

>  <SCORE>  (84) 
-15.784

>  <name>  (84) 
84

>  <ligand_id>  (84) 
84

>  <original_smiles>  (84) 
[H]C([H])=C(C([H])([H])[H])C1([H])C([H])([H])C(=C([H])C([H])([H])Oc2c([H])c([H])c3c(c2[H])C([H])([H])N(C(=O)C([H])(N([H])C(=O)C([H])(N([H])C([H])([H])[H])C([H])([H])[H])C(C([H])([H])[H])(C([H])([H])[H])C([H])([H])[H])C([H])(C(=O)N([H])C2([H])c4c([H])c([H])c([H])c([H])c4C([H])([H])C([H])([H])C2([H])[H])C3([H])[H])C([H])(N([H])C(=O)N2C([H])([H])C([H])([H])C([H])([H])C([H])(n3nc(-c4c([H])c([H])c(Oc5c([H])c([H])c(F)c([H])c5F)c([H])c4[H])c(C(=O)N([H])[H])c3N([H])[H])C2([H])[H])C([H])([H])C([H])([H])C([H])([H])C1([H])[H]

>  <smiles>  (84) 
[H]C([H])=C(C([H])([H])[H])C1([H])C([H])([H])C(=C([H])C([H])([H])Oc2c([H])c([H])c3c(c2[H])C([H])([H])N(C(=O)C([H])(N([H])C(=O)C([H])(N([H])C([H])([H])[H])C([H])([H])[H])C(C([H])([H])[H])(C([H])([H])[H])C([H])([H])[H])C([H])(C(=O)N([H])C2([H])c4c([H])c([H])c([H])c([H])c4C([H])([H])C([H])([H])C2([H])[H])C3([H])[H])C([H])(N([H])C(=O)N2C([H])([H])C([H])([H])C([H])([H])C([H])(n3nc(-c4c([H])c([H])c(Oc5c([H])c([H])c(F)c([H])c5F)c([H])c4[H])c(C(=O)N([H])[H])c3N([H])[H])C2([H])[H])C([H])([H])C([H])([H])C([H])([H])C1([H])[H]

$$$$
85:0:0
     RDKit          3D

 87 94  0  0  1  0  0  0  0  0999 V2000
  -29.8760  -22.7760   21.4900 C   0  0  0  0  0  1  0  0  0  0  0  0
  -28.9780  -22.6730   20.2510 C   0  0  0  0  0  3  0  0  0  0  0  0
  -28.7170  -19.6710   20.2030 C   0  0  0  0  0  0  0  0  0  0  0  0
  -27.4150  -18.8940   20.1620 C   0  0  0  0  0  1  0  0  0  0  0  0
  -28.4380  -21.0840   20.2080 N   0  0  0  0  0  0  0  0  0  0  0  0
  -30.8840  -18.6260   19.0480 C   0  0  0  0  0  1  0  0  0  0  0  0
  -29.9230  -18.3460   20.2130 C   0  0  0  0  0  3  0  0  0  0  0  0
  -30.4700  -15.3940   20.2090 C   0  0  0  0  0  0  0  0  0  0  0  0
  -30.4890  -12.9280   19.3580 C   0  0  0  0  0  2  0  0  0  0  0  0
  -29.5820  -12.6800   18.1270 C   0  0  0  0  0  2  0  0  0  0  0  0
  -28.1310  -12.3990   18.5590 C   0  0  0  0  0  2  0  0  0  0  0  0
  -27.6640  -13.3600   19.6800 C   0  0  0  0  0  3  0  0  0  0  0  0
  -28.7050  -13.5450   20.8030 C   0  0  0  0  0  2  0  0  0  0  0  0
  -29.9210  -14.0750   20.1630 N   0  0  0  0  0  0  0  0  0  0  0  0
  -31.6930  -15.3920   20.0040 O   0  0  0  0  0  0  0  0  0  0  0  0
  -29.6910  -16.6690   20.2820 N   0  0  0  0  0  0  0  0  0  0  0  0
  -28.7120  -16.4540   20.4090 H   0  0  0  0  0  0  0  0  0  0  0  0
  -25.2930  -13.8910   20.4420 C   0  0  0  0  0  0  0  0  0  0  0  0
  -24.2390  -13.1040   20.8140 C   0  0  0  0  0  0  0  0  0  0  0  0
  -24.7190  -11.7570   20.7820 C   0  0  0  0  0  0  0  0  0  0  0  0
  -26.3410  -13.0250   20.1920 N   0  0  0  0  0  0  0  0  0  0  0  0
  -26.0110  -11.7360   20.4670 N   0  0  0  0  0  0  0  0  0  0  0  0
  -24.0040  -10.4890   20.9730 C   0  0  0  0  0  0  0  0  0  0  0  0
  -24.4310   -9.5360   21.9240 C   0  0  0  0  0  3  0  0  0  0  0  0
  -23.7150   -8.3330   22.1030 C   0  0  0  0  0  3  0  0  0  0  0  0
  -22.5570   -8.0750   21.3320 C   0  0  0  0  0  0  0  0  0  0  0  0
  -22.1490   -9.0170   20.3710 C   0  0  0  0  0  3  0  0  0  0  0  0
  -22.8660  -10.2110   20.1890 C   0  0  0  0  0  3  0  0  0  0  0  0
  -21.8110   -6.9250   21.4200 O   0  0  0  0  0  0  0  0  0  0  0  0
  -21.7280   -6.2080   22.5870 C   0  0  0  0  0  0  0  0  0  0  0  0
  -21.2430   -6.7830   23.7820 C   0  0  0  0  0  3  0  0  0  0  0  0
  -21.1100   -5.9910   24.9400 C   0  0  0  0  0  3  0  0  0  0  0  0
  -21.4520   -4.6250   24.9030 C   0  0  0  0  0  0  0  0  0  0  0  0
  -21.9300   -4.0500   23.7120 C   0  0  0  0  0  3  0  0  0  0  0  0
  -22.0640   -4.8390   22.5570 C   0  0  0  0  0  0  0  0  0  0  0  0
  -22.5060   -4.2760   21.4070 F   0  0  0  0  0  0  0  0  0  0  0  0
  -21.3170   -3.8630   26.0130 F   0  0  0  0  0  0  0  0  0  0  0  0
  -22.8380  -13.5690   21.0800 C   0  0  0  0  0  0  0  0  0  0  0  0
  -22.1170  -12.8750   21.9510 N   0  0  0  0  0  0  0  0  0  0  0  0
  -22.3900  -14.5840   20.5460 O   0  0  0  0  0  0  0  0  0  0  0  0
  -22.4930  -12.0550   22.4050 H   0  0  0  0  0  0  0  0  0  0  0  0
  -21.1750  -13.1660   22.1700 H   0  0  0  0  0  0  0  0  0  0  0  0
  -25.4390  -15.2630   20.2620 N   0  0  0  0  0  0  0  0  0  0  0  0
  -24.6590  -15.9020   20.3660 H   0  0  0  0  0  0  0  0  0  0  0  0
  -26.2570  -15.6990   19.8590 H   0  0  0  0  0  0  0  0  0  0  0  0
  -27.9620  -24.1990   20.2000 C   0  0  0  0  0  2  0  0  0  0  0  0
  -28.2190  -25.8490   20.2770 O   0  0  0  0  0  0  0  0  0  0  0  0
  -24.6870  -31.8780   23.2540 C   0  0  0  0  0  0  0  0  0  0  0  0
  -27.2170  -26.9680   20.2320 C   0  0  0  0  0  0  0  0  0  0  0  0
  -23.4900  -30.4920   21.6100 C   0  0  0  0  0  3  0  0  0  0  0  0
  -24.9310  -28.8820   20.1840 C   0  0  0  0  0  0  0  0  0  0  0  0
  -26.0610  -30.6840   21.4710 C   0  0  0  0  0  2  0  0  0  0  0  0
  -26.1220  -29.2730   20.8080 C   0  0  0  0  0  0  0  0  0  0  0  0
  -27.2590  -28.3400   20.8020 C   0  0  0  0  0  3  0  0  0  0  0  0
  -25.9940  -26.7360   19.5620 C   0  0  0  0  0  3  0  0  0  0  0  0
  -24.8950  -27.6350   19.5380 C   0  0  0  0  0  3  0  0  0  0  0  0
  -23.7190  -29.8120   20.2320 C   0  0  0  0  0  2  0  0  0  0  0  0
  -24.7670  -31.0480   22.1630 N   0  0  0  0  0  0  0  0  0  0  0  0
  -23.5980  -32.1690   23.7760 O   0  0  0  0  0  0  0  0  0  0  0  0
  -22.7910  -29.4970   22.5740 C   0  0  0  0  0  0  0  0  0  0  0  0
  -21.4600  -29.3350   22.4470 N   0  0  0  0  0  0  0  0  0  0  0  0
  -23.4540  -28.8700   23.4030 O   0  0  0  0  0  0  0  0  0  0  0  0
  -20.9770  -29.8910   21.7540 H   0  0  0  0  0  0  0  0  0  0  0  0
  -18.0760  -28.1270   22.9490 C   0  0  0  0  0  0  0  0  0  0  0  0
  -20.6360  -28.3980   23.2160 C   0  0  0  0  0  3  0  0  0  0  0  0
  -20.7400  -26.9660   22.6420 C   0  0  0  0  0  2  0  0  0  0  0  0
  -19.6400  -26.6430   21.6250 C   0  0  0  0  0  2  0  0  0  0  0  0
  -18.2570  -26.7820   22.2640 C   0  0  0  0  0  2  0  0  0  0  0  0
  -19.1920  -28.8920   23.3800 C   0  0  0  0  0  0  0  0  0  0  0  0
  -18.9660  -30.1500   23.9820 C   0  0  0  0  0  3  0  0  0  0  0  0
  -17.6590  -30.6430   24.1510 C   0  0  0  0  0  3  0  0  0  0  0  0
  -16.5580  -29.8760   23.7340 C   0  0  0  0  0  3  0  0  0  0  0  0
  -16.7670  -28.6200   23.1380 C   0  0  0  0  0  3  0  0  0  0  0  0
  -25.9590  -32.5150   23.8900 C   0  0  0  0  0  3  0  0  0  0  0  0
  -26.4570  -31.7480   25.1780 C   0  0  1  0  0  0  0  0  0  0  0  0
  -25.3520  -31.5250   26.2370 C   0  0  0  0  0  1  0  0  0  0  0  0
  -27.0330  -30.3620   24.8100 C   0  0  0  0  0  1  0  0  0  0  0  0
  -27.6080  -32.5380   25.8430 C   0  0  0  0  0  1  0  0  0  0  0  0
  -25.6480  -33.9150   24.2270 N   0  0  0  0  0  0  0  0  0  0  0  0
  -25.9570  -34.9760   23.4680 C   0  0  0  0  0  0  0  0  0  0  0  0
  -26.5960  -34.8780   22.4180 O   0  0  0  0  0  0  0  0  0  0  0  0
  -25.0770  -34.0640   25.0460 H   0  0  0  0  0  0  0  0  0  0  0  0
  -24.2000  -36.7580   23.2030 C   0  0  0  0  0  1  0  0  0  0  0  0
  -25.4840  -36.3640   23.9490 C   0  0  0  0  0  3  0  0  0  0  0  0
  -27.6500  -37.2730   24.6680 C   0  0  0  0  0  1  0  0  0  0  0  0
  -26.5000  -37.4250   23.7800 N   0  0  0  0  0  0  0  0  0  0  0  0
  -26.0930  -38.3430   23.9420 H   0  0  0  0  0  0  0  0  0  0  0  0
  2  1  1  0
  3  5  2  0
  3  7  1  0
  4  3  1  0
  5  2  1  0
  7  6  1  0
  7 16  1  0
  8 16  1  0
  9 14  1  0
 10 11  1  0
 10  9  1  0
 12 11  1  0
 12 21  1  0
 12 13  1  0
 14  8  1  0
 14 13  1  0
 15  8  2  0
 16 17  1  0
 18 19  2  0
 19 38  1  0
 20 19  1  0
 20 23  1  0
 21 18  1  0
 21 22  1  0
 22 20  2  0
 23 24  1  0
 24 25  2  0
 26 29  1  0
 26 25  1  0
 27 26  2  0
 28 27  1  0
 28 23  2  0
 29 30  1  0
 30 31  1  0
 31 32  2  0
 33 32  1  0
 33 37  1  0
 34 33  2  0
 35 30  2  0
 35 34  1  0
 36 35  1  0
 38 39  1  0
 39 42  1  0
 39 41  1  0
 40 38  2  0
 43 44  1  0
 43 18  1  0
 45 43  1  0
 46  2  1  0
 46 47  1  0
 48 59  2  0
 49 47  1  0
 49 54  1  0
 50 58  1  0
 50 60  1  0
 51 57  1  0
 51 53  1  0
 52 58  1  0
 53 52  1  0
 54 53  2  0
 55 49  2  0
 56 55  1  0
 56 51  2  0
 57 50  1  0
 58 48  1  0
 60 62  2  0
 61 60  1  0
 63 61  1  0
 64 73  2  0
 64 69  1  0
 65 61  1  0
 65 69  1  0
 66 65  1  0
 67 68  1  0
 67 66  1  0
 68 64  1  0
 69 70  2  0
 70 71  1  0
 72 71  2  0
 73 72  1  0
 74 48  1  0
 74 79  1  0
 74 75  1  0
 75 78  1  1
 75 76  1  0
 77 75  1  0
 79 82  1  0
 80 84  1  0
 80 79  1  0
 81 80  2  0
 84 83  1  0
 86 87  1  0
 86 84  1  0
 86 85  1  0
M  ISO  4   8 100  16 100  46 101  47 101
M  END
>  <TORSDO>  (85) 
F 19

>  <SCORE>  (85) 
-16.513

>  <name>  (85) 
85

>  <ligand_id>  (85) 
85

>  <original_smiles>  (85) 
[H]c1c([H])c([H])c2c(c1[H])C([H])([H])C([H])([H])C([H])([H])C2([H])N([H])C(=O)C1([H])N(C(=O)C([H])(N([H])C(=O)C([H])(N([H])C([H])([H])[H])C([H])([H])[H])C(C([H])([H])[H])(C([H])([H])[H])C([H])([H])[H])C([H])([H])c2c([H])c(OC([H])([H])C([H])(N=C(C([H])([H])[H])C([H])(N([H])C(=O)N3C([H])([H])C([H])([H])C([H])([H])C([H])(n4nc(-c5c([H])c([H])c(Oc6c([H])c([H])c(F)c([H])c6F)c([H])c5[H])c(C(=O)N([H])[H])c4N([H])[H])C3([H])[H])C([H])([H])[H])C([H])([H])[H])c([H])c([H])c2C1([H])[H]

>  <smiles>  (85) 
[H]c1c([H])c([H])c2c(c1[H])C([H])([H])C([H])([H])C([H])([H])C2([H])N([H])C(=O)C1([H])N(C(=O)C([H])(N([H])C(=O)C([H])(N([H])C([H])([H])[H])C([H])([H])[H])C(C([H])([H])[H])(C([H])([H])[H])C([H])([H])[H])C([H])([H])c2c([H])c(OC([H])([H])C([H])(N=C(C([H])([H])[H])C([H])(N([H])C(=O)N3C([H])([H])C([H])([H])C([H])([H])C([H])(n4nc(-c5c([H])c([H])c(Oc6c([H])c([H])c(F)c([H])c6F)c([H])c5[H])c(C(=O)N([H])[H])c4N([H])[H])C3([H])[H])C([H])([H])[H])C([H])([H])[H])c([H])c([H])c2C1([H])[H]

$$$$
86:0:0
     RDKit          3D

 89 97  0  0  1  0  0  0  0  0999 V2000
  -29.6940  -22.2850   21.8780 C   0  0  0  0  0  2  0  0  0  0  0  0
  -29.0950  -22.2180   20.6690 C   0  0  0  0  0  0  0  0  0  0  0  0
  -28.7690  -20.8070   20.1510 C   0  0  0  0  0  0  0  0  0  0  0  0
  -31.1090  -19.9030   20.4090 C   0  0  0  0  0  1  0  0  0  0  0  0
  -29.6500  -19.7040   20.2950 N   0  0  0  0  0  0  0  0  0  0  0  0
  -27.6580  -20.5920   19.6630 O   0  0  0  0  0  0  0  0  0  0  0  0
  -30.5570  -14.8820   20.1800 C   0  0  0  0  0  0  0  0  0  0  0  0
  -30.3630  -12.5710   19.2150 C   0  0  0  0  0  2  0  0  0  0  0  0
  -29.4170  -12.6010   17.9940 C   0  0  0  0  0  2  0  0  0  0  0  0
  -27.9480  -12.4420   18.4400 C   0  0  0  0  0  2  0  0  0  0  0  0
  -27.5820  -13.3270   19.6670 C   0  0  0  0  0  3  0  0  0  0  0  0
  -28.6610  -13.2800   20.7680 C   0  0  0  0  0  2  0  0  0  0  0  0
  -29.9290  -13.6520   20.1310 N   0  0  0  0  0  0  0  0  0  0  0  0
  -31.7590  -14.9420   19.9010 O   0  0  0  0  0  0  0  0  0  0  0  0
  -29.9530  -17.2010   19.2110 C   0  0  0  0  0  2  0  0  0  0  0  0
  -29.8190  -17.1520   21.2310 C   0  0  0  0  0  2  0  0  0  0  0  0
  -29.2490  -18.1890   20.2010 C   0  0  0  0  0  3  0  0  0  0  0  0
  -29.7840  -16.0560   20.1910 N   0  0  0  0  0  0  0  0  0  0  0  0
  -25.2100  -13.8860   20.4620 C   0  0  0  0  0  0  0  0  0  0  0  0
  -24.1580  -13.1000   20.8470 C   0  0  0  0  0  0  0  0  0  0  0  0
  -24.6310  -11.7530   20.8010 C   0  0  0  0  0  0  0  0  0  0  0  0
  -26.2550  -13.0170   20.1920 N   0  0  0  0  0  0  0  0  0  0  0  0
  -25.9150  -11.7290   20.4640 N   0  0  0  0  0  0  0  0  0  0  0  0
  -23.9170  -10.4840   20.9990 C   0  0  0  0  0  0  0  0  0  0  0  0
  -24.3730   -9.5180   21.9240 C   0  0  0  0  0  3  0  0  0  0  0  0
  -23.6550   -8.3150   22.1140 C   0  0  0  0  0  3  0  0  0  0  0  0
  -22.4690   -8.0730   21.3790 C   0  0  0  0  0  0  0  0  0  0  0  0
  -22.0340   -9.0300   20.4450 C   0  0  0  0  0  3  0  0  0  0  0  0
  -22.7510  -10.2220   20.2540 C   0  0  0  0  0  3  0  0  0  0  0  0
  -21.7220   -6.9240   21.4760 O   0  0  0  0  0  0  0  0  0  0  0  0
  -21.6940   -6.1800   22.6290 C   0  0  0  0  0  0  0  0  0  0  0  0
  -21.2810   -6.7310   23.8620 C   0  0  0  0  0  3  0  0  0  0  0  0
  -21.1990   -5.9120   25.0060 C   0  0  0  0  0  3  0  0  0  0  0  0
  -21.5220   -4.5440   24.9200 C   0  0  0  0  0  0  0  0  0  0  0  0
  -21.9300   -3.9940   23.6920 C   0  0  0  0  0  3  0  0  0  0  0  0
  -22.0140   -4.8090   22.5490 C   0  0  0  0  0  0  0  0  0  0  0  0
  -22.3860   -4.2680   21.3640 F   0  0  0  0  0  0  0  0  0  0  0  0
  -21.4370   -3.7560   26.0170 F   0  0  0  0  0  0  0  0  0  0  0  0
  -22.7630  -13.5680   21.1420 C   0  0  0  0  0  0  0  0  0  0  0  0
  -22.0510  -12.8680   22.0170 N   0  0  0  0  0  0  0  0  0  0  0  0
  -22.3090  -14.5920   20.6320 O   0  0  0  0  0  0  0  0  0  0  0  0
  -22.4280  -12.0450   22.4610 H   0  0  0  0  0  0  0  0  0  0  0  0
  -21.1150  -13.1680   22.2550 H   0  0  0  0  0  0  0  0  0  0  0  0
  -25.3580  -15.2590   20.2950 N   0  0  0  0  0  0  0  0  0  0  0  0
  -24.5920  -15.9080   20.4450 H   0  0  0  0  0  0  0  0  0  0  0  0
  -26.2030  -15.7100   19.9750 H   0  0  0  0  0  0  0  0  0  0  0  0
  -28.7420  -23.6030   19.9070 C   0  0  0  0  0  2  0  0  0  0  0  0
  -28.2330  -24.9610   20.6990 C   0  0  0  0  0  2  0  0  0  0  0  0
  -28.3540  -26.3890   20.1920 O   0  0  0  0  0  0  0  0  0  0  0  0
  -24.6190  -31.8940   23.2430 C   0  0  0  0  0  0  0  0  0  0  0  0
  -27.2450  -27.2780   20.2080 C   0  0  0  0  0  0  0  0  0  0  0  0
  -23.4240  -30.4900   21.6050 C   0  0  0  0  0  3  0  0  0  0  0  0
  -24.8790  -28.9280   20.1880 C   0  0  0  0  0  0  0  0  0  0  0  0
  -25.9670  -30.8050   21.4190 C   0  0  0  0  0  2  0  0  0  0  0  0
  -26.0540  -29.4160   20.7770 C   0  0  0  0  0  0  0  0  0  0  0  0
  -27.2420  -28.6090   20.7620 C   0  0  0  0  0  3  0  0  0  0  0  0
  -26.0460  -26.8590   19.5960 C   0  0  0  0  0  3  0  0  0  0  0  0
  -24.8820  -27.6590   19.5850 C   0  0  0  0  0  3  0  0  0  0  0  0
  -23.6440  -29.8090   20.2280 C   0  0  0  0  0  2  0  0  0  0  0  0
  -24.6900  -31.0820   22.1470 N   0  0  0  0  0  0  0  0  0  0  0  0
  -23.5330  -32.1640   23.7790 O   0  0  0  0  0  0  0  0  0  0  0  0
  -22.7590  -29.4740   22.5660 C   0  0  0  0  0  0  0  0  0  0  0  0
  -21.4330  -29.2940   22.4370 N   0  0  0  0  0  0  0  0  0  0  0  0
  -23.4360  -28.8550   23.3890 O   0  0  0  0  0  0  0  0  0  0  0  0
  -20.9460  -29.8420   21.7430 H   0  0  0  0  0  0  0  0  0  0  0  0
  -18.0600  -28.0770   22.9320 C   0  0  0  0  0  0  0  0  0  0  0  0
  -20.6180  -28.3540   23.2070 C   0  0  0  0  0  3  0  0  0  0  0  0
  -20.7290  -26.9210   22.6370 C   0  0  0  0  0  2  0  0  0  0  0  0
  -19.6300  -26.5880   21.6220 C   0  0  0  0  0  2  0  0  0  0  0  0
  -18.2450  -26.7270   22.2600 C   0  0  0  0  0  2  0  0  0  0  0  0
  -19.1730  -28.8460   23.3640 C   0  0  0  0  0  0  0  0  0  0  0  0
  -18.9420  -30.1070   23.9550 C   0  0  0  0  0  3  0  0  0  0  0  0
  -17.6340  -30.5980   24.1180 C   0  0  0  0  0  3  0  0  0  0  0  0
  -16.5370  -29.8270   23.7010 C   0  0  0  0  0  3  0  0  0  0  0  0
  -16.7510  -28.5670   23.1120 C   0  0  0  0  0  3  0  0  0  0  0  0
  -25.8960  -32.5340   23.8700 C   0  0  0  0  0  3  0  0  0  0  0  0
  -26.4010  -31.7740   25.1570 C   0  0  1  0  0  0  0  0  0  0  0  0
  -25.3000  -31.5470   26.2210 C   0  0  0  0  0  1  0  0  0  0  0  0
  -26.9860  -30.3920   24.7820 C   0  0  0  0  0  1  0  0  0  0  0  0
  -27.5510  -32.5710   25.8180 C   0  0  0  0  0  1  0  0  0  0  0  0
  -25.5810  -33.9340   24.1900 N   0  0  0  0  0  0  0  0  0  0  0  0
  -25.9170  -34.9830   23.4310 C   0  0  0  0  0  0  0  0  0  0  0  0
  -26.5920  -34.8740   22.4020 O   0  0  0  0  0  0  0  0  0  0  0  0
  -24.9810  -34.0910   24.9870 H   0  0  0  0  0  0  0  0  0  0  0  0
  -24.1920  -36.7760   23.0560 C   0  0  0  0  0  1  0  0  0  0  0  0
  -25.4280  -36.3740   23.8780 C   0  0  0  0  0  3  0  0  0  0  0  0
  -27.5590  -37.2590   24.7150 C   0  0  0  0  0  1  0  0  0  0  0  0
  -26.4620  -37.4270   23.7670 N   0  0  0  0  0  0  0  0  0  0  0  0
  -26.0560  -38.3470   23.9090 H   0  0  0  0  0  0  0  0  0  0  0  0
  2  1  2  0
  3  5  1  0
  3  2  1  0
  5  4  1  0
  6  3  2  0
  7 18  1  0
  8 13  1  0
  9 10  1  0
  9  8  1  0
 11 10  1  0
 11 22  1  0
 11 12  1  0
 13  7  1  0
 13 12  1  0
 14  7  2  0
 15 18  1  0
 15 17  1  0
 17  5  1  0
 17 16  1  0
 18 16  1  0
 19 20  2  0
 20 39  1  0
 21 20  1  0
 21 24  1  0
 22 19  1  0
 22 23  1  0
 23 21  2  0
 24 25  1  0
 25 26  2  0
 27 30  1  0
 27 26  1  0
 28 27  2  0
 29 28  1  0
 29 24  2  0
 30 31  1  0
 31 32  1  0
 32 33  2  0
 34 33  1  0
 34 38  1  0
 35 34  2  0
 36 31  2  0
 36 35  1  0
 37 36  1  0
 39 40  1  0
 40 43  1  0
 40 42  1  0
 41 39  2  0
 44 45  1  0
 44 19  1  0
 46 44  1  0
 47  2  1  0
 47 48  1  0
 49 51  1  0
 49 48  1  0
 50 61  2  0
 51 56  1  0
 52 60  1  0
 52 62  1  0
 53 59  1  0
 53 55  1  0
 54 60  1  0
 55 54  1  0
 56 55  2  0
 57 51  2  0
 58 57  1  0
 58 53  2  0
 59 52  1  0
 60 50  1  0
 62 64  2  0
 63 62  1  0
 65 63  1  0
 66 75  2  0
 66 71  1  0
 67 63  1  0
 67 71  1  0
 68 67  1  0
 69 70  1  0
 69 68  1  0
 70 66  1  0
 71 72  2  0
 72 73  1  0
 74 73  2  0
 75 74  1  0
 76 50  1  0
 76 81  1  0
 76 77  1  0
 77 80  1  1
 77 78  1  0
 79 77  1  0
 81 84  1  0
 82 86  1  0
 82 81  1  0
 83 82  2  0
 86 85  1  0
 88 86  1  0
 88 89  1  0
 88 87  1  0
M  ISO  4   7 100  18 100  48 101  49 101
M  END
>  <TORSDO>  (86) 
F 19

>  <SCORE>  (86) 
-14.417

>  <name>  (86) 
86

>  <ligand_id>  (86) 
86

>  <original_smiles>  (86) 
[H]C([H])=C(C(=O)N(C([H])([H])[H])C1([H])C([H])([H])N(C(=O)N2C([H])([H])C([H])([H])C([H])([H])C([H])(n3nc(-c4c([H])c([H])c(Oc5c([H])c([H])c(F)c([H])c5F)c([H])c4[H])c(C(=O)N([H])[H])c3N([H])[H])C2([H])[H])C1([H])[H])C([H])([H])C([H])([H])Oc1c([H])c([H])c2c(c1[H])C([H])([H])N(C(=O)C([H])(N([H])C(=O)C([H])(N([H])C([H])([H])[H])C([H])([H])[H])C(C([H])([H])[H])(C([H])([H])[H])C([H])([H])[H])C([H])(C(=O)N([H])C1([H])c3c([H])c([H])c([H])c([H])c3C([H])([H])C([H])([H])C1([H])[H])C2([H])[H]

>  <smiles>  (86) 
[H]C([H])=C(C(=O)N(C([H])([H])[H])C1([H])C([H])([H])N(C(=O)N2C([H])([H])C([H])([H])C([H])([H])C([H])(n3nc(-c4c([H])c([H])c(Oc5c([H])c([H])c(F)c([H])c5F)c([H])c4[H])c(C(=O)N([H])[H])c3N([H])[H])C2([H])[H])C1([H])[H])C([H])([H])C([H])([H])Oc1c([H])c([H])c2c(c1[H])C([H])([H])N(C(=O)C([H])(N([H])C(=O)C([H])(N([H])C([H])([H])[H])C([H])([H])[H])C(C([H])([H])[H])(C([H])([H])[H])C([H])([H])[H])C([H])(C(=O)N([H])C1([H])c3c([H])c([H])c([H])c([H])c3C([H])([H])C([H])([H])C1([H])[H])C2([H])[H]

$$$$
87:0:0
     RDKit          3D

 84 91  0  0  1  0  0  0  0  0999 V2000
  -28.7880  -22.7700   20.5370 C   0  0  0  0  0  3  0  0  0  0  0  0
  -28.8740  -21.1170   19.8520 C   0  0  0  0  0  2  0  0  0  0  0  0
  -29.5430  -18.3860   20.0410 C   0  0  0  0  0  0  0  0  0  0  0  0
  -29.7620  -18.3170   18.5460 C   0  0  0  0  0  1  0  0  0  0  0  0
  -29.2270  -19.6550   20.5710 N   0  0  0  0  0  0  0  0  0  0  0  0
  -29.6600  -16.7600   20.7470 C   0  0  0  0  0  2  0  0  0  0  0  0
  -30.4150  -15.2510   20.2780 C   0  0  0  0  0  0  0  0  0  0  0  0
  -30.3960  -12.8100   19.3860 C   0  0  0  0  0  2  0  0  0  0  0  0
  -29.4790  -12.6560   18.1450 C   0  0  0  0  0  2  0  0  0  0  0  0
  -28.0220  -12.3980   18.5700 C   0  0  0  0  0  2  0  0  0  0  0  0
  -27.5790  -13.3440   19.7140 C   0  0  0  0  0  3  0  0  0  0  0  0
  -28.6240  -13.4460   20.8470 C   0  0  0  0  0  2  0  0  0  0  0  0
  -29.8750  -13.9350   20.2450 N   0  0  0  0  0  0  0  0  0  0  0  0
  -31.6040  -15.2660   19.9240 O   0  0  0  0  0  0  0  0  0  0  0  0
  -25.1990  -13.9050   20.4380 C   0  0  0  0  0  0  0  0  0  0  0  0
  -24.1370  -13.1300   20.8100 C   0  0  0  0  0  0  0  0  0  0  0  0
  -24.6080  -11.7810   20.8000 C   0  0  0  0  0  0  0  0  0  0  0  0
  -26.2460  -13.0300   20.2130 N   0  0  0  0  0  0  0  0  0  0  0  0
  -25.9020  -11.7460   20.4980 N   0  0  0  0  0  0  0  0  0  0  0  0
  -23.8820  -10.5190   21.0010 C   0  0  0  0  0  0  0  0  0  0  0  0
  -24.3170   -9.5560   21.9390 C   0  0  0  0  0  3  0  0  0  0  0  0
  -23.5890   -8.3610   22.1280 C   0  0  0  0  0  3  0  0  0  0  0  0
  -22.4120   -8.1200   21.3810 C   0  0  0  0  0  0  0  0  0  0  0  0
  -21.9960   -9.0710   20.4320 C   0  0  0  0  0  3  0  0  0  0  0  0
  -22.7240  -10.2580   20.2400 C   0  0  0  0  0  3  0  0  0  0  0  0
  -21.6550   -6.9770   21.4780 O   0  0  0  0  0  0  0  0  0  0  0  0
  -21.6230   -6.2320   22.6300 C   0  0  0  0  0  0  0  0  0  0  0  0
  -21.2300   -6.7880   23.8670 C   0  0  0  0  0  3  0  0  0  0  0  0
  -21.1440   -5.9720   25.0110 C   0  0  0  0  0  3  0  0  0  0  0  0
  -21.4400   -4.5980   24.9200 C   0  0  0  0  0  0  0  0  0  0  0  0
  -21.8270   -4.0410   23.6880 C   0  0  0  0  0  3  0  0  0  0  0  0
  -21.9150   -4.8560   22.5460 C   0  0  0  0  0  0  0  0  0  0  0  0
  -22.2660   -4.3090   21.3570 F   0  0  0  0  0  0  0  0  0  0  0  0
  -21.3510   -3.8100   26.0170 F   0  0  0  0  0  0  0  0  0  0  0  0
  -22.7360  -13.6070   21.0610 C   0  0  0  0  0  0  0  0  0  0  0  0
  -22.0030  -12.9220   21.9320 N   0  0  0  0  0  0  0  0  0  0  0  0
  -22.3000  -14.6210   20.5190 O   0  0  0  0  0  0  0  0  0  0  0  0
  -22.3700  -12.1030   22.3930 H   0  0  0  0  0  0  0  0  0  0  0  0
  -21.0630  -13.2250   22.1430 H   0  0  0  0  0  0  0  0  0  0  0  0
  -25.3590  -15.2740   20.2480 N   0  0  0  0  0  0  0  0  0  0  0  0
  -24.5900  -15.9280   20.3480 H   0  0  0  0  0  0  0  0  0  0  0  0
  -26.2070  -15.7130   19.9140 H   0  0  0  0  0  0  0  0  0  0  0  0
  -28.0530  -24.3020   19.9520 C   0  0  0  0  0  3  0  0  0  0  0  0
  -28.1940  -25.8960   20.3210 O   0  0  0  0  0  0  0  0  0  0  0  0
  -24.6230  -31.8520   23.2070 C   0  0  0  0  0  0  0  0  0  0  0  0
  -27.1790  -26.9780   20.2140 C   0  0  0  0  0  0  0  0  0  0  0  0
  -23.4270  -30.4480   21.5760 C   0  0  0  0  0  3  0  0  0  0  0  0
  -24.8750  -28.8400   20.1580 C   0  0  0  0  0  0  0  0  0  0  0  0
  -25.9900  -30.6630   21.4270 C   0  0  0  0  0  2  0  0  0  0  0  0
  -26.0600  -29.2530   20.7780 C   0  0  0  0  0  0  0  0  0  0  0  0
  -27.2040  -28.3420   20.7850 C   0  0  0  0  0  3  0  0  0  0  0  0
  -25.9680  -26.7130   19.5360 C   0  0  0  0  0  3  0  0  0  0  0  0
  -24.8520  -27.5910   19.5160 C   0  0  0  0  0  3  0  0  0  0  0  0
  -23.6540  -29.7570   20.2030 C   0  0  0  0  0  2  0  0  0  0  0  0
  -24.7010  -31.0140   22.1240 N   0  0  0  0  0  0  0  0  0  0  0  0
  -23.5340  -32.1440   23.7290 O   0  0  0  0  0  0  0  0  0  0  0  0
  -22.7340  -29.4560   22.5480 C   0  0  0  0  0  0  0  0  0  0  0  0
  -21.4030  -29.2950   22.4290 N   0  0  0  0  0  0  0  0  0  0  0  0
  -23.4010  -28.8320   23.3780 O   0  0  0  0  0  0  0  0  0  0  0  0
  -20.9190  -29.8500   21.7370 H   0  0  0  0  0  0  0  0  0  0  0  0
  -18.0200  -28.0930   22.9460 C   0  0  0  0  0  0  0  0  0  0  0  0
  -20.5800  -28.3640   23.2060 C   0  0  0  0  0  3  0  0  0  0  0  0
  -20.6830  -26.9270   22.6430 C   0  0  0  0  0  2  0  0  0  0  0  0
  -19.5810  -26.5960   21.6310 C   0  0  0  0  0  2  0  0  0  0  0  0
  -18.1990  -26.7410   22.2750 C   0  0  0  0  0  2  0  0  0  0  0  0
  -19.1380  -28.8610   23.3690 C   0  0  0  0  0  0  0  0  0  0  0  0
  -18.9140  -30.1240   23.9590 C   0  0  0  0  0  3  0  0  0  0  0  0
  -17.6070  -30.6190   24.1270 C   0  0  0  0  0  3  0  0  0  0  0  0
  -16.5050  -29.8490   23.7180 C   0  0  0  0  0  3  0  0  0  0  0  0
  -16.7120  -28.5880   23.1330 C   0  0  0  0  0  3  0  0  0  0  0  0
  -25.8960  -32.4960   23.8360 C   0  0  0  0  0  3  0  0  0  0  0  0
  -26.4060  -31.7330   25.1210 C   0  0  1  0  0  0  0  0  0  0  0  0
  -25.3110  -31.5050   26.1880 C   0  0  0  0  0  1  0  0  0  0  0  0
  -26.9890  -30.3500   24.7480 C   0  0  0  0  0  1  0  0  0  0  0  0
  -27.5580  -32.5290   25.7800 C   0  0  0  0  0  1  0  0  0  0  0  0
  -25.5760  -33.8950   24.1720 N   0  0  0  0  0  0  0  0  0  0  0  0
  -25.9000  -34.9570   23.4220 C   0  0  0  0  0  0  0  0  0  0  0  0
  -26.5600  -34.8640   22.3850 O   0  0  0  0  0  0  0  0  0  0  0  0
  -24.9860  -34.0410   24.9780 H   0  0  0  0  0  0  0  0  0  0  0  0
  -24.1570  -36.7510   23.1130 C   0  0  0  0  0  1  0  0  0  0  0  0
  -25.4150  -36.3430   23.8970 C   0  0  0  0  0  3  0  0  0  0  0  0
  -27.5620  -37.2380   24.6910 C   0  0  0  0  0  1  0  0  0  0  0  0
  -26.4410  -37.4020   23.7680 N   0  0  0  0  0  0  0  0  0  0  0  0
  -26.0350  -38.3210   23.9250 H   0  0  0  0  0  0  0  0  0  0  0  0
  2  1  1  0
  2  5  1  0
  3  5  2  0
  3  6  1  0
  4  3  1  0
  7  6  1  0
  8 13  1  0
  9 10  1  0
  9  8  1  0
 11 10  1  0
 11 18  1  0
 11 12  1  0
 13  7  1  0
 13 12  1  0
 14  7  2  0
 15 16  2  0
 16 35  1  0
 17 16  1  0
 17 20  1  0
 18 15  1  0
 18 19  1  0
 19 17  2  0
 20 21  1  0
 21 22  2  0
 23 26  1  0
 23 22  1  0
 24 23  2  0
 25 24  1  0
 25 20  2  0
 26 27  1  0
 27 28  1  0
 28 29  2  0
 30 29  1  0
 30 34  1  0
 31 30  2  0
 32 27  2  0
 32 31  1  0
 33 32  1  0
 35 36  1  0
 36 39  1  0
 36 38  1  0
 37 35  2  0
 40 41  1  0
 40 15  1  0
 42 40  1  0
 43 44  1  0
 43  1  2  0
 45 56  2  0
 46 44  1  0
 46 51  1  0
 47 55  1  0
 47 57  1  0
 48 54  1  0
 48 50  1  0
 49 55  1  0
 50 51  2  0
 50 49  1  0
 52 46  2  0
 53 52  1  0
 53 48  2  0
 54 47  1  0
 55 45  1  0
 57 59  2  0
 58 57  1  0
 60 58  1  0
 61 70  2  0
 61 66  1  0
 62 58  1  0
 62 66  1  0
 63 62  1  0
 64 65  1  0
 64 63  1  0
 65 61  1  0
 66 67  2  0
 67 68  1  0
 69 68  2  0
 70 69  1  0
 71 45  1  0
 71 76  1  0
 71 72  1  0
 72 75  1  1
 72 73  1  0
 74 72  1  0
 76 79  1  0
 77 81  1  0
 77 76  1  0
 78 77  2  0
 81 80  1  0
 83 81  1  0
 83 84  1  0
 83 82  1  0
M  ISO  4   6 100   7 100  43 101  44 101
M  END
>  <TORSDO>  (87) 
F 20

>  <SCORE>  (87) 
-15.677

>  <name>  (87) 
87

>  <ligand_id>  (87) 
87

>  <original_smiles>  (87) 
[H]c1c([H])c([H])c2c(c1[H])C([H])([H])C([H])([H])C([H])([H])C2([H])N([H])C(=O)C1([H])N(C(=O)C([H])(N([H])C(=O)C([H])(N([H])C([H])([H])[H])C([H])([H])[H])C(C([H])([H])[H])(C([H])([H])[H])C([H])([H])[H])C([H])([H])c2c([H])c(OC([H])([H])C([H])([H])C([H])([H])N=C(C([H])([H])[H])C([H])([H])C(=O)N3C([H])([H])C([H])([H])C([H])([H])C([H])(n4nc(-c5c([H])c([H])c(Oc6c([H])c([H])c(F)c([H])c6F)c([H])c5[H])c(C(=O)N([H])[H])c4N([H])[H])C3([H])[H])c([H])c([H])c2C1([H])[H]

>  <smiles>  (87) 
[H]c1c([H])c([H])c2c(c1[H])C([H])([H])C([H])([H])C([H])([H])C2([H])N([H])C(=O)C1([H])N(C(=O)C([H])(N([H])C(=O)C([H])(N([H])C([H])([H])[H])C([H])([H])[H])C(C([H])([H])[H])(C([H])([H])[H])C([H])([H])[H])C([H])([H])c2c([H])c(OC([H])([H])C([H])([H])C([H])([H])N=C(C([H])([H])[H])C([H])([H])C(=O)N3C([H])([H])C([H])([H])C([H])([H])C([H])(n4nc(-c5c([H])c([H])c(Oc6c([H])c([H])c(F)c([H])c6F)c([H])c5[H])c(C(=O)N([H])[H])c4N([H])[H])C3([H])[H])c([H])c([H])c2C1([H])[H]

$$$$
89:0:0
     RDKit          3D

100108  0  0  1  0  0  0  0  0999 V2000
  -32.5890  -20.8500   20.0720 C   0  0  0  0  0  2  0  0  0  0  0  0
  -31.7760  -21.6110   19.0530 C   0  0  0  0  0  3  0  0  0  0  0  0
  -31.0880  -21.0340   20.2960 C   0  0  1  0  0  0  0  0  0  0  0  0
  -31.5680  -21.0850   17.6470 C   0  0  0  0  0  1  0  0  0  0  0  0
  -30.5030  -18.5710   20.7570 C   0  0  0  0  0  0  0  0  0  0  0  0
  -30.2780  -19.8110   20.2160 N   0  0  0  0  0  0  0  0  0  0  0  0
  -31.4300  -18.3600   21.5380 O   0  0  0  0  0  0  0  0  0  0  0  0
  -29.5170  -19.8430   19.5520 H   0  0  0  0  0  0  0  0  0  0  0  0
  -29.5470  -17.3790   20.3770 C   0  0  0  0  0  0  0  0  0  0  0  0
  -30.5290  -15.0280   21.1510 C   0  0  0  0  0  0  0  0  0  0  0  0
  -30.5450  -12.6710   20.3460 C   0  0  0  0  0  2  0  0  0  0  0  0
  -29.7590  -12.5420   19.0210 C   0  0  0  0  0  2  0  0  0  0  0  0
  -28.2270  -12.5090   19.2380 C   0  0  0  0  0  2  0  0  0  0  0  0
  -27.6970  -13.4280   20.3770 C   0  0  0  0  0  3  0  0  0  0  0  0
  -28.6300  -13.4120   21.6070 C   0  0  0  0  0  2  0  0  0  0  0  0
  -29.9810  -13.7730   21.1510 N   0  0  0  0  0  0  0  0  0  0  0  0
  -31.7290  -15.2030   20.9270 O   0  0  0  0  0  0  0  0  0  0  0  0
  -29.6430  -16.0690   21.1560 N   0  0  0  0  0  4  0  0  0  0  0  0
  -28.7450  -15.7830   21.5090 H   0  0  0  0  0  0  0  0  0  0  0  0
  -25.2250  -13.9580   20.8890 C   0  0  0  0  0  0  0  0  0  0  0  0
  -24.1460  -13.1500   21.1290 C   0  0  0  0  0  0  0  0  0  0  0  0
  -24.6440  -11.8110   21.1140 C   0  0  0  0  0  0  0  0  0  0  0  0
  -26.3100  -13.1100   20.7330 N   0  0  0  0  0  0  0  0  0  0  0  0
  -25.9590  -11.8150   20.9420 N   0  0  0  0  0  0  0  0  0  0  0  0
  -23.9390  -10.5250   21.2010 C   0  0  0  0  0  0  0  0  0  0  0  0
  -24.3370   -9.5320   22.1230 C   0  0  0  0  0  3  0  0  0  0  0  0
  -23.6350   -8.3100   22.2070 C   0  0  0  0  0  3  0  0  0  0  0  0
  -22.5230   -8.0700   21.3650 C   0  0  0  0  0  0  0  0  0  0  0  0
  -22.1420   -9.0550   20.4360 C   0  0  0  0  0  3  0  0  0  0  0  0
  -22.8450  -10.2700   20.3500 C   0  0  0  0  0  3  0  0  0  0  0  0
  -21.7920   -6.9060   21.3560 O   0  0  0  0  0  0  0  0  0  0  0  0
  -21.7180   -6.0950   22.4590 C   0  0  0  0  0  0  0  0  0  0  0  0
  -21.2230   -6.5620   23.6960 C   0  0  0  0  0  3  0  0  0  0  0  0
  -21.0990   -5.6770   24.7840 C   0  0  0  0  0  3  0  0  0  0  0  0
  -21.4560   -4.3240   24.6360 C   0  0  0  0  0  0  0  0  0  0  0  0
  -21.9430   -3.8550   23.4010 C   0  0  0  0  0  3  0  0  0  0  0  0
  -22.0700   -4.7380   22.3170 C   0  0  0  0  0  0  0  0  0  0  0  0
  -22.5180   -4.2750   21.1240 F   0  0  0  0  0  0  0  0  0  0  0  0
  -21.3300   -3.4710   25.6780 F   0  0  0  0  0  0  0  0  0  0  0  0
  -22.7150  -13.5800   21.2650 C   0  0  0  0  0  0  0  0  0  0  0  0
  -21.9240  -12.8510   22.0450 N   0  0  0  0  0  0  0  0  0  0  0  0
  -22.2990  -14.6000   20.7140 O   0  0  0  0  0  0  0  0  0  0  0  0
  -22.2710  -12.0300   22.5190 H   0  0  0  0  0  0  0  0  0  0  0  0
  -20.9620  -13.1220   22.1740 H   0  0  0  0  0  0  0  0  0  0  0  0
  -25.3700  -15.3370   20.7750 N   0  0  0  0  0  0  0  0  0  0  0  0
  -24.5860  -15.9700   20.8910 H   0  0  0  0  0  0  0  0  0  0  0  0
  -26.2430  -15.8270   20.6290 H   0  0  0  0  0  0  0  0  0  0  0  0
  -29.5660  -18.3170   17.8720 C   0  0  0  0  0  1  0  0  0  0  0  0
  -27.4660  -17.4330   18.8340 C   0  0  0  0  0  1  0  0  0  0  0  0
  -29.3600  -15.9510   18.1960 C   0  0  0  0  0  1  0  0  0  0  0  0
  -29.0100  -17.2760   18.8680 C   0  0  2  0  0  0  0  0  0  0  0  0
  -30.5500  -22.1290   21.2690 C   0  0  0  0  0  3  0  0  0  0  0  0
  -29.4630  -22.9830   20.6650 N   0  0  0  0  0  4  0  0  0  0  0  0
  -29.4710  -22.8080   19.6700 H   0  0  0  0  0  0  0  0  0  0  0  0
  -28.5730  -22.6380   20.9980 H   0  0  0  0  0  0  0  0  0  0  0  0
  -29.5620  -24.4810   20.8630 C   0  0  0  0  0  3  0  0  0  0  0  0
  -28.3510  -25.3180   20.3060 C   0  0  0  0  0  3  0  0  0  0  0  0
  -28.4660  -26.7760   20.4010 O   0  0  0  0  0  0  0  0  0  0  0  0
  -24.5430  -32.0080   23.3260 C   0  0  0  0  0  0  0  0  0  0  0  0
  -27.2990  -27.5380   20.3140 C   0  0  0  0  0  0  0  0  0  0  0  0
  -23.3850  -30.5850   21.6710 C   0  0  0  0  0  3  0  0  0  0  0  0
  -24.8860  -29.0660   20.2660 C   0  0  0  0  0  0  0  0  0  0  0  0
  -25.9230  -30.9520   21.5350 C   0  0  0  0  0  2  0  0  0  0  0  0
  -26.0330  -29.5890   20.8760 C   0  0  0  0  0  0  0  0  0  0  0  0
  -27.2410  -28.8380   20.8850 C   0  0  0  0  0  3  0  0  0  0  0  0
  -26.1300  -27.0520   19.6780 C   0  0  0  0  0  3  0  0  0  0  0  0
  -24.9350  -27.8020   19.6580 C   0  0  0  0  0  3  0  0  0  0  0  0
  -23.6300  -29.9160   20.2950 C   0  0  0  0  0  2  0  0  0  0  0  0
  -24.6320  -31.2010   22.2290 N   0  0  0  0  0  0  0  0  0  0  0  0
  -23.4480  -32.2660   23.8450 O   0  0  0  0  0  0  0  0  0  0  0  0
  -22.7370  -29.5480   22.6190 C   0  0  0  0  0  0  0  0  0  0  0  0
  -21.4190  -29.3290   22.4630 N   0  0  0  0  0  0  0  0  0  0  0  0
  -23.4150  -28.9490   23.4560 O   0  0  0  0  0  0  0  0  0  0  0  0
  -20.9300  -29.8670   21.7630 H   0  0  0  0  0  0  0  0  0  0  0  0
  -18.0690  -28.0400   22.8900 C   0  0  0  0  0  0  0  0  0  0  0  0
  -20.6100  -28.3790   23.2270 C   0  0  0  0  0  3  0  0  0  0  0  0
  -20.7700  -26.9410   22.6810 C   0  0  0  0  0  2  0  0  0  0  0  0
  -19.7060  -26.5700   21.6410 C   0  0  0  0  0  2  0  0  0  0  0  0
  -18.3040  -26.6860   22.2400 C   0  0  0  0  0  2  0  0  0  0  0  0
  -19.1540  -28.8400   23.3390 C   0  0  0  0  0  0  0  0  0  0  0  0
  -18.8780  -30.1070   23.9010 C   0  0  0  0  0  3  0  0  0  0  0  0
  -17.5550  -30.5710   24.0170 C   0  0  0  0  0  3  0  0  0  0  0  0
  -16.4860  -29.7670   23.5880 C   0  0  0  0  0  3  0  0  0  0  0  0
  -16.7450  -28.5010   23.0290 C   0  0  0  0  0  3  0  0  0  0  0  0
  -25.8080  -32.6660   23.9580 C   0  0  0  0  0  3  0  0  0  0  0  0
  -25.4770  -34.0690   24.2440 N   0  0  0  0  0  0  0  0  0  0  0  0
  -25.8120  -35.1050   23.4640 C   0  0  0  0  0  0  0  0  0  0  0  0
  -26.5040  -34.9830   22.4490 O   0  0  0  0  0  0  0  0  0  0  0  0
  -24.8680  -34.2360   25.0320 H   0  0  0  0  0  0  0  0  0  0  0  0
  -24.0660  -36.8650   23.0300 C   0  0  0  0  0  1  0  0  0  0  0  0
  -25.2980  -36.4990   23.8760 C   0  0  0  0  0  3  0  0  0  0  0  0
  -27.4050  -37.4320   24.7190 C   0  0  0  0  0  1  0  0  0  0  0  0
  -26.3190  -37.5630   23.7520 N   0  0  0  0  0  0  0  0  0  0  0  0
  -25.8970  -38.4800   23.8680 H   0  0  0  0  0  0  0  0  0  0  0  0
  -26.3020  -31.9350   25.2660 C   0  0  1  0  0  0  0  0  0  0  0  0
  -25.1870  -31.7090   26.3140 C   0  0  0  0  0  1  0  0  0  0  0  0
  -26.9180  -30.5570   24.9340 C   0  0  0  0  0  1  0  0  0  0  0  0
  -27.4200  -32.7660   25.9380 C   0  0  0  0  0  1  0  0  0  0  0  0
  -30.1220  -22.5180   23.8080 C   0  0  0  0  0  1  0  0  0  0  0  0
  -30.1360  -21.5310   22.6290 C   0  0  0  0  0  2  0  0  0  0  0  0
  1  3  1  0
  2  4  1  0
  2  1  1  0
  2  3  1  0
  3  6  1  0
  3 52  1  1
  5  7  2  0
  6  5  1  0
  8  6  1  0
  9  5  1  0
  9 18  2  3
 10 18  1  0
 11 16  1  0
 12 13  1  0
 12 11  1  0
 14 13  1  0
 14 23  1  0
 14 15  1  0
 16 10  1  0
 16 15  1  0
 17 10  2  0
 18 19  1  0
 20 21  2  0
 21 40  1  0
 22 21  1  0
 22 25  1  0
 23 20  1  0
 23 24  1  0
 24 22  2  0
 25 26  1  0
 26 27  2  0
 28 27  1  0
 29 28  2  0
 30 29  1  0
 30 25  2  0
 31 28  1  0
 31 32  1  0
 32 33  1  0
 33 34  2  0
 35 34  1  0
 35 39  1  0
 36 35  2  0
 37 32  2  0
 37 36  1  0
 38 37  1  0
 40 41  1  0
 41 44  1  0
 41 43  1  0
 42 40  2  0
 45 20  1  0
 45 46  1  0
 47 45  1  0
 51 48  1  6
 49 51  1  0
 50 51  1  0
 51  9  1  0
 52100  1  0
 53 56  1  0
 53 55  1  0
 53 52  1  0
 54 53  1  0
 57 58  1  0
 57 56  2  0
 59 70  2  0
 60 58  1  0
 60 65  1  0
 61 69  1  0
 61 71  1  0
 62 68  1  0
 62 64  1  0
 63 69  1  0
 64 65  2  0
 64 63  1  0
 66 60  2  0
 67 66  1  0
 67 62  2  0
 68 61  1  0
 69 59  1  0
 71 73  2  0
 72 71  1  0
 74 72  1  0
 75 84  2  0
 75 80  1  0
 76 72  1  0
 76 80  1  0
 77 76  1  0
 78 79  1  0
 78 77  1  0
 79 75  1  0
 80 81  2  0
 81 82  1  0
 83 82  2  0
 84 83  1  0
 85 59  1  0
 85 86  1  0
 85 95  1  0
 86 89  1  0
 87 91  1  0
 87 86  1  0
 88 87  2  0
 91 90  1  0
 93 94  1  0
 93 91  1  0
 93 92  1  0
 95 98  1  1
 95 96  1  0
 97 95  1  0
100 99  1  0
M  ISO  4  10 100  18 100  57 101  58 101
M  END
>  <TORSDO>  (88) 
F 24

>  <SCORE>  (88) 
-11.833

>  <name>  (88) 
89

>  <ligand_id>  (88) 
89

>  <original_smiles>  (88) 
[H]c1c([H])c([H])c2c(c1[H])C([H])([H])C([H])([H])C([H])([H])C2([H])N([H])C(=O)C1([H])N(C(=O)C([H])(N([H])C(=O)C([H])(N([H])C([H])([H])[H])C([H])([H])[H])C(C([H])([H])[H])(C([H])([H])[H])C([H])([H])[H])C([H])([H])c2c([H])c(OC([H])([H])C([H])([H])[N+]([H])([H])C([H])(C([H])([H])C([H])([H])[H])C3(N([H])C(=O)C([H])(N([H])C(=O)N4C([H])([H])C([H])([H])C([H])([H])C([H])(n5nc(-c6c([H])c([H])c(Oc7c([H])c([H])c(F)c([H])c7F)c([H])c6[H])c(C(=O)N([H])[H])c5N([H])[H])C4([H])[H])C(C([H])([H])[H])(C([H])([H])[H])C([H])([H])[H])C([H])([H])C3([H])C([H])([H])[H])c([H])c([H])c2C1([H])[H]

>  <smiles>  (88) 
[H]c1c([H])c([H])c2c(c1[H])C([H])([H])C([H])([H])C([H])([H])C2([H])N([H])C(=O)C1([H])N(C(=O)C([H])(N([H])C(=O)C([H])(N([H])C([H])([H])[H])C([H])([H])[H])C(C([H])([H])[H])(C([H])([H])[H])C([H])([H])[H])C([H])([H])c2c([H])c(OC([H])([H])C([H])([H])[N+]([H])([H])C([H])(C([H])([H])C([H])([H])[H])C3(N([H])C(=O)C([H])(N([H])C(=O)N4C([H])([H])C([H])([H])C([H])([H])C([H])(n5nc(-c6c([H])c([H])c(Oc7c([H])c([H])c(F)c([H])c7F)c([H])c6[H])c(C(=O)N([H])[H])c5N([H])[H])C4([H])[H])C(C([H])([H])[H])(C([H])([H])[H])C([H])([H])[H])C([H])([H])C3([H])C([H])([H])[H])c([H])c([H])c2C1([H])[H]

$$$$
90:0:0
     RDKit          3D

 93102  0  0  1  0  0  0  0  0999 V2000
  -30.5140  -14.9020   20.3210 C   0  0  0  0  0  0  0  0  0  0  0  0
  -30.4030  -12.5630   19.4240 C   0  0  0  0  0  2  0  0  0  0  0  0
  -29.4910  -12.5660   18.1790 C   0  0  0  0  0  2  0  0  0  0  0  0
  -28.0140  -12.3870   18.5800 C   0  0  0  0  0  2  0  0  0  0  0  0
  -27.6120  -13.3040   19.7660 C   0  0  0  0  0  3  0  0  0  0  0  0
  -28.6450  -13.2680   20.9060 C   0  0  0  0  0  2  0  0  0  0  0  0
  -29.9230  -13.6540   20.3060 N   0  0  0  0  0  0  0  0  0  0  0  0
  -31.7390  -14.9520   20.1470 O   0  0  0  0  0  0  0  0  0  0  0  0
  -28.1230  -22.0120   20.2540 C   0  0  0  0  0  0  0  0  0  0  0  0
  -29.6560  -20.0650   20.8860 C   0  0  0  0  0  2  0  0  0  0  0  0
  -30.0710  -17.3060   21.2000 C   0  0  0  0  0  2  0  0  0  0  0  0
  -29.0050  -16.7610   19.2210 C   0  0  0  0  0  2  0  0  0  0  0  0
  -30.0850  -18.6340   20.3340 C   0  0  0  0  0  3  0  0  0  0  0  0
  -29.1610  -18.3620   19.2050 C   0  0  0  0  0  3  0  0  0  0  0  0
  -28.0300  -19.4910   19.3890 C   0  0  1  0  0  0  0  0  0  0  0  0
  -27.2950  -19.7920   18.0630 C   0  0  0  0  0  1  0  0  0  0  0  0
  -26.9280  -18.9670   20.3440 C   0  0  0  0  0  1  0  0  0  0  0  0
  -28.7120  -20.7520   19.9410 N   0  0  0  0  0  0  0  0  0  0  0  0
  -29.7310  -16.0940   20.3770 N   0  0  0  0  0  0  0  0  0  0  0  0
  -27.1920  -21.9960   21.0570 O   0  0  0  0  0  0  0  0  0  0  0  0
  -25.2340  -13.9360   20.4480 C   0  0  0  0  0  0  0  0  0  0  0  0
  -24.1550  -13.1840   20.8100 C   0  0  0  0  0  0  0  0  0  0  0  0
  -24.6030  -11.8260   20.8100 C   0  0  0  0  0  0  0  0  0  0  0  0
  -26.2680  -13.0400   20.2440 N   0  0  0  0  0  0  0  0  0  0  0  0
  -25.8980  -11.7680   20.5290 N   0  0  0  0  0  0  0  0  0  0  0  0
  -23.8620  -10.5760   21.0030 C   0  0  0  0  0  0  0  0  0  0  0  0
  -24.2800   -9.6090   21.9440 C   0  0  0  0  0  3  0  0  0  0  0  0
  -23.5390   -8.4220   22.1260 C   0  0  0  0  0  3  0  0  0  0  0  0
  -22.3680   -8.1920   21.3670 C   0  0  0  0  0  0  0  0  0  0  0  0
  -21.9700   -9.1460   20.4150 C   0  0  0  0  0  3  0  0  0  0  0  0
  -22.7100  -10.3270   20.2320 C   0  0  0  0  0  3  0  0  0  0  0  0
  -21.6030   -7.0570   21.4590 O   0  0  0  0  0  0  0  0  0  0  0  0
  -21.5540   -6.3110   22.6090 C   0  0  0  0  0  0  0  0  0  0  0  0
  -21.1720   -6.8750   23.8460 C   0  0  0  0  0  3  0  0  0  0  0  0
  -21.0750   -6.0580   24.9900 C   0  0  0  0  0  3  0  0  0  0  0  0
  -21.3460   -4.6790   24.8980 C   0  0  0  0  0  0  0  0  0  0  0  0
  -21.7160   -4.1160   23.6640 C   0  0  0  0  0  3  0  0  0  0  0  0
  -21.8190   -4.9300   22.5230 C   0  0  0  0  0  0  0  0  0  0  0  0
  -22.1600   -4.3800   21.3320 F   0  0  0  0  0  0  0  0  0  0  0  0
  -21.2400   -3.8930   25.9930 F   0  0  0  0  0  0  0  0  0  0  0  0
  -22.7570  -13.6800   21.0380 C   0  0  0  0  0  0  0  0  0  0  0  0
  -22.0010  -13.0120   21.9000 N   0  0  0  0  0  0  0  0  0  0  0  0
  -22.3430  -14.6960   20.4770 O   0  0  0  0  0  0  0  0  0  0  0  0
  -22.3490  -12.1930   22.3770 H   0  0  0  0  0  0  0  0  0  0  0  0
  -21.0600  -13.3260   22.0950 H   0  0  0  0  0  0  0  0  0  0  0  0
  -25.4200  -15.3010   20.2510 N   0  0  0  0  0  0  0  0  0  0  0  0
  -24.6610  -15.9670   20.3420 H   0  0  0  0  0  0  0  0  0  0  0  0
  -26.2950  -15.7170   19.9600 H   0  0  0  0  0  0  0  0  0  0  0  0
  -29.2400  -23.4890   18.5080 C   0  0  0  0  0  3  0  0  0  0  0  0
  -28.5340  -23.3870   19.6660 C   0  0  0  0  0  0  0  0  0  0  0  0
  -29.7700  -22.4250   17.5400 C   0  0  0  0  0  1  0  0  0  0  0  0
  -28.0220  -24.7590   20.4090 C   0  0  0  0  0  2  0  0  0  0  0  0
  -28.3590  -26.2280   20.0320 O   0  0  0  0  0  0  0  0  0  0  0  0
  -24.7180  -31.8900   23.1600 C   0  0  0  0  0  0  0  0  0  0  0  0
  -27.3170  -27.2110   20.0660 C   0  0  0  0  0  0  0  0  0  0  0  0
  -23.5330  -30.4810   21.5340 C   0  0  0  0  0  3  0  0  0  0  0  0
  -24.9840  -28.9240   20.1020 C   0  0  0  0  0  0  0  0  0  0  0  0
  -26.0900  -30.7560   21.3690 C   0  0  0  0  0  2  0  0  0  0  0  0
  -26.1670  -29.3740   20.7020 C   0  0  0  0  0  0  0  0  0  0  0  0
  -27.3440  -28.5340   20.6640 C   0  0  0  0  0  3  0  0  0  0  0  0
  -26.1110  -26.8680   19.4240 C   0  0  0  0  0  3  0  0  0  0  0  0
  -24.9660  -27.6850   19.4510 C   0  0  0  0  0  3  0  0  0  0  0  0
  -23.7540  -29.8160   20.1540 C   0  0  0  0  0  2  0  0  0  0  0  0
  -24.8010  -31.0640   22.0740 N   0  0  0  0  0  0  0  0  0  0  0  0
  -23.6280  -32.1700   23.6820 O   0  0  0  0  0  0  0  0  0  0  0  0
  -22.8740  -29.4570   22.4920 C   0  0  0  0  0  0  0  0  0  0  0  0
  -21.5460  -29.2790   22.3750 N   0  0  0  0  0  0  0  0  0  0  0  0
  -23.5560  -28.8280   23.3070 O   0  0  0  0  0  0  0  0  0  0  0  0
  -21.0510  -29.8390   21.6960 H   0  0  0  0  0  0  0  0  0  0  0  0
  -18.1700  -28.0790   22.9090 C   0  0  0  0  0  0  0  0  0  0  0  0
  -20.7330  -28.3360   23.1460 C   0  0  0  0  0  3  0  0  0  0  0  0
  -20.8240  -26.9070   22.5620 C   0  0  0  0  0  2  0  0  0  0  0  0
  -19.7080  -26.5920   21.5600 C   0  0  0  0  0  2  0  0  0  0  0  0
  -18.3350  -26.7340   22.2230 C   0  0  0  0  0  2  0  0  0  0  0  0
  -19.2950  -28.8400   23.3300 C   0  0  0  0  0  0  0  0  0  0  0  0
  -19.0830  -30.0990   23.9290 C   0  0  0  0  0  3  0  0  0  0  0  0
  -17.7810  -30.5990   24.1160 C   0  0  0  0  0  3  0  0  0  0  0  0
  -16.6700  -29.8360   23.7110 C   0  0  0  0  0  3  0  0  0  0  0  0
  -16.8670  -28.5780   23.1130 C   0  0  0  0  0  3  0  0  0  0  0  0
  -25.9860  -32.5450   23.7870 C   0  0  0  0  0  3  0  0  0  0  0  0
  -25.6440  -33.9350   24.1430 N   0  0  0  0  0  0  0  0  0  0  0  0
  -25.9400  -35.0100   23.4010 C   0  0  0  0  0  0  0  0  0  0  0  0
  -26.6020  -34.9390   22.3630 O   0  0  0  0  0  0  0  0  0  0  0  0
  -25.0690  -34.0630   24.9640 H   0  0  0  0  0  0  0  0  0  0  0  0
  -24.1600  -36.7600   23.0970 C   0  0  0  0  0  1  0  0  0  0  0  0
  -25.4240  -36.3810   23.8840 C   0  0  0  0  0  3  0  0  0  0  0  0
  -27.5510  -37.2980   24.6970 C   0  0  0  0  0  1  0  0  0  0  0  0
  -26.4280  -37.4600   23.7750 N   0  0  0  0  0  0  0  0  0  0  0  0
  -26.0050  -38.3700   23.9370 H   0  0  0  0  0  0  0  0  0  0  0  0
  -26.5230  -31.7700   25.0560 C   0  0  1  0  0  0  0  0  0  0  0  0
  -25.4390  -31.4910   26.1250 C   0  0  0  0  0  1  0  0  0  0  0  0
  -27.1310  -30.4070   24.6500 C   0  0  0  0  0  1  0  0  0  0  0  0
  -27.6650  -32.5750   25.7200 C   0  0  0  0  0  1  0  0  0  0  0  0
  1 19  1  0
  2  7  1  0
  3  4  1  0
  3  2  1  0
  5  4  1  0
  5 24  1  0
  5  6  1  0
  7  1  1  0
  7  6  1  0
  8  1  2  0
  9 20  2  0
 12 19  1  0
 13 10  1  0
 13 11  1  0
 14 12  1  0
 14 15  1  0
 14 13  1  0
 15 18  1  0
 15 17  1  1
 16 15  1  0
 18  9  1  0
 18 10  1  0
 19 11  1  0
 21 22  2  0
 22 23  1  0
 22 41  1  0
 23 26  1  0
 24 21  1  0
 24 25  1  0
 25 23  2  0
 26 27  1  0
 27 28  2  0
 29 32  1  0
 29 28  1  0
 30 29  2  0
 31 30  1  0
 31 26  2  0
 32 33  1  0
 33 34  1  0
 34 35  2  0
 36 35  1  0
 36 40  1  0
 37 36  2  0
 38 33  2  0
 38 37  1  0
 39 38  1  0
 41 42  1  0
 42 45  1  0
 42 44  1  0
 43 41  2  0
 46 47  1  0
 46 21  1  0
 48 46  1  0
 49 50  2  0
 50  9  1  0
 50 52  1  0
 51 49  1  0
 53 55  1  0
 53 52  1  0
 54 65  2  0
 55 60  1  0
 56 64  1  0
 56 66  1  0
 57 63  1  0
 57 59  1  0
 58 64  1  0
 59 58  1  0
 60 59  2  0
 61 62  1  0
 61 55  2  0
 62 57  2  0
 63 56  1  0
 64 54  1  0
 66 68  2  0
 67 66  1  0
 69 67  1  0
 70 79  2  0
 70 75  1  0
 71 67  1  0
 71 75  1  0
 72 71  1  0
 73 74  1  0
 73 72  1  0
 74 70  1  0
 75 76  2  0
 76 77  1  0
 78 77  2  0
 79 78  1  0
 80 54  1  0
 80 81  1  0
 80 90  1  0
 81 84  1  0
 82 86  1  0
 82 81  1  0
 83 82  2  0
 86 85  1  0
 88 86  1  0
 88 89  1  0
 88 87  1  0
 90 93  1  1
 90 91  1  0
 92 90  1  0
M  ISO  4   1 100  19 100  52 101  53 101
M  END
>  <TORSDO>  (89) 
F 17

>  <SCORE>  (89) 
-14.748

>  <name>  (89) 
90

>  <ligand_id>  (89) 
90

>  <original_smiles>  (89) 
[H]C(=C(C(=O)N1C([H])([H])C2([H])C([H])([H])N(C(=O)N3C([H])([H])C([H])([H])C([H])([H])C([H])(n4nc(-c5c([H])c([H])c(Oc6c([H])c([H])c(F)c([H])c6F)c([H])c5[H])c(C(=O)N([H])[H])c4N([H])[H])C3([H])[H])C([H])([H])C2([H])C1(C([H])([H])[H])C([H])([H])[H])C([H])([H])Oc1c([H])c([H])c2c(c1[H])C([H])([H])N(C(=O)C([H])(N([H])C(=O)C([H])(N([H])C([H])([H])[H])C([H])([H])[H])C(C([H])([H])[H])(C([H])([H])[H])C([H])([H])[H])C([H])(C(=O)N([H])C1([H])c3c([H])c([H])c([H])c([H])c3C([H])([H])C([H])([H])C1([H])[H])C2([H])[H])C([H])([H])[H]

>  <smiles>  (89) 
[H]C(=C(C(=O)N1C([H])([H])C2([H])C([H])([H])N(C(=O)N3C([H])([H])C([H])([H])C([H])([H])C([H])(n4nc(-c5c([H])c([H])c(Oc6c([H])c([H])c(F)c([H])c6F)c([H])c5[H])c(C(=O)N([H])[H])c4N([H])[H])C3([H])[H])C([H])([H])C2([H])C1(C([H])([H])[H])C([H])([H])[H])C([H])([H])Oc1c([H])c([H])c2c(c1[H])C([H])([H])N(C(=O)C([H])(N([H])C(=O)C([H])(N([H])C([H])([H])[H])C([H])([H])[H])C(C([H])([H])[H])(C([H])([H])[H])C([H])([H])[H])C([H])(C(=O)N([H])C1([H])c3c([H])c([H])c([H])c([H])c3C([H])([H])C([H])([H])C1([H])[H])C2([H])[H])C([H])([H])[H]

$$$$
91:0:0
     RDKit          3D

 85 91  0  0  1  0  0  0  0  0999 V2000
  -28.8380  -21.5770   19.4560 C   0  0  0  0  0  0  0  0  0  0  0  0
  -28.8110  -21.6070   18.1150 C   0  0  0  0  0  2  0  0  0  0  0  0
  -28.8340  -20.6410   21.5120 C   0  0  0  0  0  2  0  0  0  0  0  0
  -28.7530  -22.3370   21.5760 C   0  0  0  0  0  2  0  0  0  0  0  0
  -29.4100  -19.9110   20.1840 C   0  0  0  0  0  2  0  0  0  0  0  0
  -28.2380  -23.1810   20.2890 C   0  0  0  0  0  2  0  0  0  0  0  0
  -30.2030  -16.4250   19.9380 C   0  0  0  0  0  0  0  0  0  0  0  0
  -30.4540  -13.7540   19.1280 C   0  0  0  0  0  2  0  0  0  0  0  0
  -29.5930  -13.0610   18.0110 C   0  0  0  0  0  2  0  0  0  0  0  0
  -28.2460  -12.5680   18.5510 C   0  0  0  0  0  2  0  0  0  0  0  0
  -27.6810  -13.5940   19.5490 C   0  0  0  0  0  3  0  0  0  0  0  0
  -28.7100  -14.1540   20.5780 C   0  0  0  0  0  2  0  0  0  0  0  0
  -29.7390  -14.9660   19.8330 N   0  0  0  0  0  0  0  0  0  0  0  0
  -31.4480  -16.2650   19.8360 O   0  0  0  0  0  0  0  0  0  0  0  0
  -29.4510  -17.9430   19.9760 N   0  0  0  0  0  2  0  0  0  0  0  0
  -28.4760  -17.6840   19.9030 H   0  0  0  0  0  0  0  0  0  0  0  0
  -25.3630  -14.0450   20.4440 C   0  0  0  0  0  0  0  0  0  0  0  0
  -24.3290  -13.2440   20.8370 C   0  0  0  0  0  0  0  0  0  0  0  0
  -24.8140  -11.9010   20.7510 C   0  0  0  0  0  0  0  0  0  0  0  0
  -26.4070  -13.1980   20.1370 N   0  0  0  0  0  0  0  0  0  0  0  0
  -26.0940  -11.8950   20.3810 N   0  0  0  0  0  0  0  0  0  0  0  0
  -24.1000  -10.6280   20.9440 C   0  0  0  0  0  0  0  0  0  0  0  0
  -24.5400   -9.6650   21.8800 C   0  0  0  0  0  3  0  0  0  0  0  0
  -23.8200   -8.4650   22.0650 C   0  0  0  0  0  3  0  0  0  0  0  0
  -22.6440   -8.2170   21.3160 C   0  0  0  0  0  0  0  0  0  0  0  0
  -22.2220   -9.1680   20.3710 C   0  0  0  0  0  3  0  0  0  0  0  0
  -22.9440  -10.3600   20.1830 C   0  0  0  0  0  3  0  0  0  0  0  0
  -21.8970   -7.0680   21.4100 O   0  0  0  0  0  0  0  0  0  0  0  0
  -21.8130   -6.3560   22.5810 C   0  0  0  0  0  0  0  0  0  0  0  0
  -21.2860   -6.9240   23.7610 C   0  0  0  0  0  3  0  0  0  0  0  0
  -21.1530   -6.1380   24.9230 C   0  0  0  0  0  3  0  0  0  0  0  0
  -21.5370   -4.7830   24.9050 C   0  0  0  0  0  0  0  0  0  0  0  0
  -22.0570   -4.2150   23.7290 C   0  0  0  0  0  3  0  0  0  0  0  0
  -22.1910   -4.9990   22.5700 C   0  0  0  0  0  0  0  0  0  0  0  0
  -22.6720   -4.4390   21.4340 F   0  0  0  0  0  0  0  0  0  0  0  0
  -21.4030   -4.0250   26.0180 F   0  0  0  0  0  0  0  0  0  0  0  0
  -22.9410  -13.7030   21.1650 C   0  0  0  0  0  0  0  0  0  0  0  0
  -22.2580  -12.9970   22.0590 N   0  0  0  0  0  0  0  0  0  0  0  0
  -22.4730  -14.7260   20.6660 O   0  0  0  0  0  0  0  0  0  0  0  0
  -22.6520  -12.1720   22.4850 H   0  0  0  0  0  0  0  0  0  0  0  0
  -21.3280  -13.2890   22.3240 H   0  0  0  0  0  0  0  0  0  0  0  0
  -25.4960  -15.4210   20.2850 N   0  0  0  0  0  0  0  0  0  0  0  0
  -24.7240  -16.0620   20.4380 H   0  0  0  0  0  0  0  0  0  0  0  0
  -26.3210  -15.8740   19.9160 H   0  0  0  0  0  0  0  0  0  0  0  0
  -28.2430  -25.1440   20.1650 O   0  0  0  0  0  1  0  0  0  0  0  0
  -24.7420  -31.8850   23.1710 C   0  0  0  0  0  0  0  0  0  0  0  0
  -27.2860  -26.5110   20.1960 C   0  0  0  0  0  0  0  0  0  0  0  0
  -23.5740  -30.4710   21.5430 C   0  0  0  0  0  3  0  0  0  0  0  0
  -25.0320  -28.7630   20.1470 C   0  0  0  0  0  0  0  0  0  0  0  0
  -26.1670  -30.5290   21.4500 C   0  0  0  0  0  2  0  0  0  0  0  0
  -26.2380  -29.0570   20.7930 C   0  0  0  0  0  0  0  0  0  0  0  0
  -27.3300  -27.9740   20.7690 C   0  0  0  0  0  3  0  0  0  0  0  0
  -26.0330  -26.5260   19.4950 C   0  0  0  0  0  3  0  0  0  0  0  0
  -24.9910  -27.5270   19.4710 C   0  0  0  0  0  3  0  0  0  0  0  0
  -23.8340  -29.7500   20.1830 C   0  0  0  0  0  2  0  0  0  0  0  0
  -24.8570  -31.0050   22.1060 N   0  0  0  0  0  0  0  0  0  0  0  0
  -23.6400  -32.1900   23.6670 O   0  0  0  0  0  0  0  0  0  0  0  0
  -22.8350  -29.5180   22.5250 C   0  0  0  0  0  0  0  0  0  0  0  0
  -21.5000  -29.3640   22.4000 N   0  0  0  0  0  0  0  0  0  0  0  0
  -23.4820  -28.9100   23.3790 O   0  0  0  0  0  0  0  0  0  0  0  0
  -21.0210  -29.9040   21.6930 H   0  0  0  0  0  0  0  0  0  0  0  0
  -18.1190  -28.1170   22.9350 C   0  0  0  0  0  0  0  0  0  0  0  0
  -20.6790  -28.4200   23.1750 C   0  0  0  0  0  3  0  0  0  0  0  0
  -20.7910  -26.9890   22.6020 C   0  0  0  0  0  2  0  0  0  0  0  0
  -19.6880  -26.6560   21.5920 C   0  0  0  0  0  2  0  0  0  0  0  0
  -18.3090  -26.7770   22.2460 C   0  0  0  0  0  2  0  0  0  0  0  0
  -19.2310  -28.8970   23.3570 C   0  0  0  0  0  0  0  0  0  0  0  0
  -18.9930  -30.1450   23.9700 C   0  0  0  0  0  3  0  0  0  0  0  0
  -17.6810  -30.6180   24.1620 C   0  0  0  0  0  3  0  0  0  0  0  0
  -16.5860  -29.8390   23.7510 C   0  0  0  0  0  3  0  0  0  0  0  0
  -16.8060  -28.5890   23.1440 C   0  0  0  0  0  3  0  0  0  0  0  0
  -25.9840  -32.5660   23.8240 C   0  0  0  0  0  3  0  0  0  0  0  0
  -25.6390  -33.9660   24.1570 N   0  0  0  0  0  0  0  0  0  0  0  0
  -25.9440  -35.0430   23.4170 C   0  0  0  0  0  0  0  0  0  0  0  0
  -26.5910  -34.9620   22.3720 O   0  0  0  0  0  0  0  0  0  0  0  0
  -25.0560  -34.1010   24.9690 H   0  0  0  0  0  0  0  0  0  0  0  0
  -24.1750  -36.8260   23.1630 C   0  0  0  0  0  1  0  0  0  0  0  0
  -25.4590  -36.4270   23.9080 C   0  0  0  0  0  3  0  0  0  0  0  0
  -27.6080  -37.3600   24.6540 C   0  0  0  0  0  1  0  0  0  0  0  0
  -26.4680  -37.4990   23.7520 N   0  0  0  0  0  0  0  0  0  0  0  0
  -26.0510  -38.4130   23.9080 H   0  0  0  0  0  0  0  0  0  0  0  0
  -26.4750  -31.8260   25.1320 C   0  0  1  0  0  0  0  0  0  0  0  0
  -25.3570  -31.5980   26.1790 C   0  0  0  0  0  1  0  0  0  0  0  0
  -27.0810  -30.4470   24.8000 C   0  0  0  0  0  1  0  0  0  0  0  0
  -27.6000  -32.6460   25.8070 C   0  0  0  0  0  1  0  0  0  0  0  0
  1  5  1  0
  1  6  1  0
  2  1  2  0
  3  4  1  0
  5  3  1  0
  6  4  1  0
  7 15  1  0
  8 13  1  0
  9 10  1  0
  9  8  1  0
 11 10  1  0
 11 20  1  0
 11 12  1  0
 13  7  1  0
 13 12  1  0
 14  7  2  0
 16 15  1  0
 17 18  2  0
 18 37  1  0
 19 18  1  0
 19 22  1  0
 20 21  1  0
 20 17  1  0
 21 19  2  0
 22 23  1  0
 23 24  2  0
 25 28  1  0
 25 24  1  0
 26 25  2  0
 27 26  1  0
 27 22  2  0
 28 29  1  0
 29 30  1  0
 30 31  2  0
 32 31  1  0
 32 36  1  0
 33 32  2  0
 34 29  2  0
 34 33  1  0
 35 34  1  0
 37 38  1  0
 38 41  1  0
 38 40  1  0
 39 37  2  0
 42 43  1  0
 42 17  1  0
 44 42  1  0
 45 47  1  0
 46 57  2  0
 47 52  1  0
 48 56  1  0
 48 58  1  0
 49 55  1  0
 49 51  1  0
 50 56  1  0
 51 50  1  0
 52 51  2  0
 53 47  2  0
 54 53  1  0
 54 49  2  0
 55 48  1  0
 56 46  1  0
 58 60  2  0
 59 58  1  0
 61 59  1  0
 62 71  2  0
 62 67  1  0
 63 59  1  0
 63 67  1  0
 64 63  1  0
 65 66  1  0
 65 64  1  0
 66 62  1  0
 67 68  2  0
 68 69  1  0
 70 69  2  0
 71 70  1  0
 72 46  1  0
 72 73  1  0
 72 82  1  0
 73 76  1  0
 74 78  1  0
 74 73  1  0
 75 74  2  0
 78 77  1  0
 80 78  1  0
 80 81  1  0
 80 79  1  0
 82 85  1  1
 82 83  1  0
 84 82  1  0
M  ISO  4   6 101   7 100  15 100  45 101
M  END
>  <TORSDO>  (90) 
F 16

>  <SCORE>  (90) 
-16.329

>  <name>  (90) 
91

>  <ligand_id>  (90) 
91

>  <original_smiles>  (90) 
[H]C([H])=C1C([H])(Oc2c([H])c([H])c3c(c2[H])C([H])([H])N(C(=O)C([H])(N([H])C(=O)C([H])(N([H])C([H])([H])[H])C([H])([H])[H])C(C([H])([H])[H])(C([H])([H])[H])C([H])([H])[H])C([H])(C(=O)N([H])C2([H])c4c([H])c([H])c([H])c([H])c4C([H])([H])C([H])([H])C2([H])[H])C3([H])[H])C([H])([H])C([H])([H])C1([H])N([H])C(=O)N1C([H])([H])C([H])([H])C([H])([H])C([H])(n2nc(-c3c([H])c([H])c(Oc4c([H])c([H])c(F)c([H])c4F)c([H])c3[H])c(C(=O)N([H])[H])c2N([H])[H])C1([H])[H]

>  <smiles>  (90) 
[H]C([H])=C1C([H])(Oc2c([H])c([H])c3c(c2[H])C([H])([H])N(C(=O)C([H])(N([H])C(=O)C([H])(N([H])C([H])([H])[H])C([H])([H])[H])C(C([H])([H])[H])(C([H])([H])[H])C([H])([H])[H])C([H])(C(=O)N([H])C2([H])c4c([H])c([H])c([H])c([H])c4C([H])([H])C([H])([H])C2([H])[H])C3([H])[H])C([H])([H])C([H])([H])C1([H])N([H])C(=O)N1C([H])([H])C([H])([H])C([H])([H])C([H])(n2nc(-c3c([H])c([H])c(Oc4c([H])c([H])c(F)c([H])c4F)c([H])c3[H])c(C(=O)N([H])[H])c2N([H])[H])C1([H])[H]

$$$$
92:0:0
     RDKit          3D

 94101  0  0  1  0  0  0  0  0999 V2000
  -31.5930  -21.2550   20.5450 C   0  0  0  0  0  0  0  0  0  0  0  0
  -32.8330  -20.8820   20.1920 N   0  0  0  0  0  4  0  0  0  0  0  0
  -31.1960  -22.5310   20.3370 N   0  0  0  0  0  0  0  0  0  0  0  0
  -33.0550  -19.8960   20.2530 H   0  0  0  0  0  0  0  0  0  0  0  0
  -33.5200  -21.4960   19.7800 H   0  0  0  0  0  0  0  0  0  0  0  0
  -31.8560  -23.1680   19.9170 H   0  0  0  0  0  0  0  0  0  0  0  0
  -30.7040  -20.1890   21.1390 C   0  0  0  0  0  2  0  0  0  0  0  0
  -30.3030  -17.8750   20.7650 C   0  0  0  0  0  0  0  0  0  0  0  0
  -29.7480  -17.6850   22.1720 C   0  0  0  0  0  1  0  0  0  0  0  0
  -30.7850  -18.9760   20.3270 N   0  0  0  0  0  0  0  0  0  0  0  0
  -30.8200  -16.8250   18.4590 C   0  0  0  0  0  1  0  0  0  0  0  0
  -30.1510  -16.6540   19.8450 C   0  0  0  0  0  3  0  0  0  0  0  0
  -31.1560  -14.3320   20.0880 C   0  0  0  0  0  0  0  0  0  0  0  0
  -30.7820  -12.1870   18.9490 C   0  0  0  0  0  2  0  0  0  0  0  0
  -29.8150  -12.4700   17.7790 C   0  0  0  0  0  2  0  0  0  0  0  0
  -28.3470  -12.3930   18.2440 C   0  0  0  0  0  2  0  0  0  0  0  0
  -28.0830  -13.2040   19.5410 C   0  0  0  0  0  3  0  0  0  0  0  0
  -29.1590  -12.8920   20.6100 C   0  0  0  0  0  2  0  0  0  0  0  0
  -30.4840  -13.1530   20.0170 N   0  0  0  0  0  0  0  0  0  0  0  0
  -32.2750  -14.5090   19.5970 O   0  0  0  0  0  0  0  0  0  0  0  0
  -30.3780  -15.3490   20.4980 N   0  0  0  0  0  0  0  0  0  0  0  0
  -29.5780  -15.0290   21.0220 H   0  0  0  0  0  0  0  0  0  0  0  0
  -25.7240  -13.9070   20.3010 C   0  0  0  0  0  0  0  0  0  0  0  0
  -24.6400  -13.1770   20.7060 C   0  0  0  0  0  0  0  0  0  0  0  0
  -25.0500  -11.8090   20.6720 C   0  0  0  0  0  0  0  0  0  0  0  0
  -26.7310  -12.9870   20.0520 N   0  0  0  0  0  0  0  0  0  0  0  0
  -26.3290  -11.7210   20.3280 N   0  0  0  0  0  0  0  0  0  0  0  0
  -24.2860  -10.5760   20.8940 C   0  0  0  0  0  0  0  0  0  0  0  0
  -24.6710   -9.6350   21.8740 C   0  0  0  0  0  3  0  0  0  0  0  0
  -23.9100   -8.4640   22.0810 C   0  0  0  0  0  3  0  0  0  0  0  0
  -22.7500   -8.2260   21.3070 C   0  0  0  0  0  0  0  0  0  0  0  0
  -22.3830   -9.1560   20.3170 C   0  0  0  0  0  3  0  0  0  0  0  0
  -23.1450  -10.3180   20.1080 C   0  0  0  0  0  3  0  0  0  0  0  0
  -21.9650   -7.1040   21.4200 O   0  0  0  0  0  0  0  0  0  0  0  0
  -21.8160   -6.4470   22.6140 C   0  0  0  0  0  0  0  0  0  0  0  0
  -21.2930   -7.0900   23.7570 C   0  0  0  0  0  3  0  0  0  0  0  0
  -21.0890   -6.3590   24.9450 C   0  0  0  0  0  3  0  0  0  0  0  0
  -21.3990   -4.9870   24.9910 C   0  0  0  0  0  0  0  0  0  0  0  0
  -21.9160   -4.3440   23.8510 C   0  0  0  0  0  3  0  0  0  0  0  0
  -22.1200   -5.0710   22.6660 C   0  0  0  0  0  0  0  0  0  0  0  0
  -22.5980   -4.4420   21.5650 F   0  0  0  0  0  0  0  0  0  0  0  0
  -21.1990   -4.2830   26.1280 F   0  0  0  0  0  0  0  0  0  0  0  0
  -23.2690  -13.7060   21.0160 C   0  0  0  0  0  0  0  0  0  0  0  0
  -22.5450  -13.0440   21.9140 N   0  0  0  0  0  0  0  0  0  0  0  0
  -22.8490  -14.7410   20.4990 O   0  0  0  0  0  0  0  0  0  0  0  0
  -22.8980  -12.2050   22.3520 H   0  0  0  0  0  0  0  0  0  0  0  0
  -21.6270  -13.3800   22.1660 H   0  0  0  0  0  0  0  0  0  0  0  0
  -25.9340  -15.2690   20.1060 N   0  0  0  0  0  0  0  0  0  0  0  0
  -25.1890  -15.9470   20.2200 H   0  0  0  0  0  0  0  0  0  0  0  0
  -26.7740  -15.6680   19.7100 H   0  0  0  0  0  0  0  0  0  0  0  0
  -29.8610  -23.1170   20.5630 C   0  0  0  0  0  2  0  0  0  0  0  0
  -29.8720  -24.6570   20.4360 C   0  0  0  0  0  2  0  0  0  0  0  0
  -28.4590  -25.2640   20.3200 C   0  0  0  0  0  2  0  0  0  0  0  0
  -28.5190  -26.6960   20.3130 O   0  0  0  0  0  0  0  0  0  0  0  0
  -24.5810  -31.8310   23.2740 C   0  0  0  0  0  0  0  0  0  0  0  0
  -27.3200  -27.3810   20.2850 C   0  0  0  0  0  0  0  0  0  0  0  0
  -23.4120  -30.3850   21.6460 C   0  0  0  0  0  3  0  0  0  0  0  0
  -24.8960  -28.8500   20.2570 C   0  0  0  0  0  0  0  0  0  0  0  0
  -25.9320  -30.7790   21.4610 C   0  0  0  0  0  2  0  0  0  0  0  0
  -26.0430  -29.4020   20.8400 C   0  0  0  0  0  0  0  0  0  0  0  0
  -27.2580  -28.6800   20.8400 C   0  0  0  0  0  3  0  0  0  0  0  0
  -26.1490  -26.8400   19.7040 C   0  0  0  0  0  3  0  0  0  0  0  0
  -24.9450  -27.5690   19.6840 C   0  0  0  0  0  3  0  0  0  0  0  0
  -23.6400  -29.6920   20.2770 C   0  0  0  0  0  2  0  0  0  0  0  0
  -24.6600  -31.0140   22.1850 N   0  0  0  0  0  0  0  0  0  0  0  0
  -23.4910  -32.0950   23.7990 O   0  0  0  0  0  0  0  0  0  0  0  0
  -22.7670  -29.3670   22.6150 C   0  0  0  0  0  0  0  0  0  0  0  0
  -21.4520  -29.1490   22.4600 N   0  0  0  0  0  0  0  0  0  0  0  0
  -23.4470  -28.7770   23.4580 O   0  0  0  0  0  0  0  0  0  0  0  0
  -20.9670  -29.6770   21.7490 H   0  0  0  0  0  0  0  0  0  0  0  0
  -18.0990  -27.8650   22.8860 C   0  0  0  0  0  0  0  0  0  0  0  0
  -20.6380  -28.2090   23.2310 C   0  0  0  0  0  3  0  0  0  0  0  0
  -20.8020  -26.7660   22.7000 C   0  0  0  0  0  2  0  0  0  0  0  0
  -19.7430  -26.3800   21.6630 C   0  0  0  0  0  2  0  0  0  0  0  0
  -18.3370  -26.5020   22.2590 C   0  0  0  0  0  2  0  0  0  0  0  0
  -19.1810  -28.6730   23.3280 C   0  0  0  0  0  0  0  0  0  0  0  0
  -18.9070  -29.9460   23.8710 C   0  0  0  0  0  3  0  0  0  0  0  0
  -17.5840  -30.4140   23.9800 C   0  0  0  0  0  3  0  0  0  0  0  0
  -16.5160  -29.6040   23.5550 C   0  0  0  0  0  3  0  0  0  0  0  0
  -16.7740  -28.3320   23.0160 C   0  0  0  0  0  3  0  0  0  0  0  0
  -25.8520  -32.4870   23.8950 C   0  0  0  0  0  3  0  0  0  0  0  0
  -25.5250  -33.8880   24.1940 N   0  0  0  0  0  0  0  0  0  0  0  0
  -25.8720  -34.9290   23.4240 C   0  0  0  0  0  0  0  0  0  0  0  0
  -26.5720  -34.8110   22.4140 O   0  0  0  0  0  0  0  0  0  0  0  0
  -24.9090  -34.0540   24.9760 H   0  0  0  0  0  0  0  0  0  0  0  0
  -24.1500  -36.7030   22.9730 C   0  0  0  0  0  1  0  0  0  0  0  0
  -25.3610  -36.3210   23.8400 C   0  0  0  0  0  3  0  0  0  0  0  0
  -27.4530  -37.2290   24.7460 C   0  0  0  0  0  1  0  0  0  0  0  0
  -26.3910  -37.3770   23.7520 N   0  0  0  0  0  0  0  0  0  0  0  0
  -25.9770  -38.2990   23.8660 H   0  0  0  0  0  0  0  0  0  0  0  0
  -26.3640  -31.7470   25.1920 C   0  0  1  0  0  0  0  0  0  0  0  0
  -25.2600  -31.5090   26.2490 C   0  0  0  0  0  1  0  0  0  0  0  0
  -26.9720  -30.3730   24.8270 C   0  0  0  0  0  1  0  0  0  0  0  0
  -27.4940  -32.5700   25.8540 C   0  0  0  0  0  1  0  0  0  0  0  0
  1  7  1  0
  2  4  1  0
  2  1  2  0
  3  1  1  0
  3 51  1  0
  5  2  1  0
  6  3  1  0
  8  9  1  0
 10  8  2  0
 10  7  1  0
 12 11  1  0
 12 21  1  0
 12  8  1  0
 13 21  1  0
 14 19  1  0
 15 16  1  0
 15 14  1  0
 17 16  1  0
 17 26  1  0
 17 18  1  0
 19 13  1  0
 19 18  1  0
 20 13  2  0
 21 22  1  0
 23 24  2  0
 24 43  1  0
 25 24  1  0
 25 28  1  0
 26 23  1  0
 26 27  1  0
 27 25  2  0
 28 29  1  0
 29 30  2  0
 31 34  1  0
 31 30  1  0
 32 31  2  0
 33 32  1  0
 33 28  2  0
 34 35  1  0
 35 40  2  0
 35 36  1  0
 36 37  2  0
 37 38  1  0
 38 42  1  0
 39 38  2  0
 40 39  1  0
 41 40  1  0
 43 44  1  0
 44 47  1  0
 44 46  1  0
 45 43  2  0
 48 49  1  0
 48 23  1  0
 50 48  1  0
 52 51  1  0
 53 52  1  0
 54 53  1  0
 55 66  2  0
 56 54  1  0
 56 61  1  0
 57 65  1  0
 57 67  1  0
 58 64  1  0
 58 60  1  0
 59 65  1  0
 60 61  2  0
 60 59  1  0
 62 56  2  0
 63 62  1  0
 63 58  2  0
 64 57  1  0
 65 55  1  0
 67 69  2  0
 68 67  1  0
 70 68  1  0
 71 80  2  0
 71 76  1  0
 72 68  1  0
 72 76  1  0
 73 72  1  0
 74 75  1  0
 74 73  1  0
 75 71  1  0
 76 77  2  0
 77 78  1  0
 79 78  2  0
 80 79  1  0
 81 55  1  0
 81 82  1  0
 81 91  1  0
 82 85  1  0
 83 87  1  0
 83 82  1  0
 84 83  2  0
 87 86  1  0
 89 87  1  0
 89 90  1  0
 89 88  1  0
 91 94  1  1
 91 92  1  0
 93 91  1  0
M  ISO  4  13 100  21 100  53 101  54 101
M  END
>  <TORSDO>  (91) 
F 22

>  <SCORE>  (91) 
-12.212

>  <name>  (91) 
92

>  <ligand_id>  (91) 
92

>  <original_smiles>  (91) 
[H]c1c([H])c([H])c2c(c1[H])C([H])([H])C([H])([H])C([H])([H])C2([H])N([H])C(=O)C1([H])N(C(=O)C([H])(N([H])C(=O)C([H])(N([H])C([H])([H])[H])C([H])([H])[H])C(C([H])([H])[H])(C([H])([H])[H])C([H])([H])[H])C([H])([H])c2c([H])c(OC([H])([H])C([H])([H])C([H])([H])[N+]([H])=C(N([H])[H])C([H])([H])N=C(C([H])([H])[H])C([H])(N([H])C(=O)N3C([H])([H])C([H])([H])C([H])([H])C([H])(n4nc(-c5c([H])c([H])c(Oc6c([H])c([H])c(F)c([H])c6F)c([H])c5[H])c(C(=O)N([H])[H])c4N([H])[H])C3([H])[H])C([H])([H])[H])c([H])c([H])c2C1([H])[H]

>  <smiles>  (91) 
[H]c1c([H])c([H])c2c(c1[H])C([H])([H])C([H])([H])C([H])([H])C2([H])N([H])C(=O)C1([H])N(C(=O)C([H])(N([H])C(=O)C([H])(N([H])C([H])([H])[H])C([H])([H])[H])C(C([H])([H])[H])(C([H])([H])[H])C([H])([H])[H])C([H])([H])c2c([H])c(OC([H])([H])C([H])([H])C([H])([H])[N+]([H])=C(N([H])[H])C([H])([H])N=C(C([H])([H])[H])C([H])(N([H])C(=O)N3C([H])([H])C([H])([H])C([H])([H])C([H])(n4nc(-c5c([H])c([H])c(Oc6c([H])c([H])c(F)c([H])c6F)c([H])c5[H])c(C(=O)N([H])[H])c4N([H])[H])C3([H])[H])C([H])([H])[H])c([H])c([H])c2C1([H])[H]

$$$$
93:0:0
     RDKit          3D

 94102  0  0  1  0  0  0  0  0999 V2000
  -29.9300  -21.3430   21.0930 C   0  0  0  0  0  0  0  0  0  0  0  0
  -31.4910  -18.4360   23.1040 C   0  0  0  0  0  2  0  0  0  0  0  0
  -30.7650  -17.1580   22.6470 C   0  0  0  0  0  2  0  0  0  0  0  0
  -30.3980  -17.9030   20.2380 C   0  0  0  0  0  2  0  0  0  0  0  0
  -30.7480  -19.7660   22.8280 C   0  0  0  0  0  2  0  0  0  0  0  0
  -31.1030  -19.2750   20.3750 C   0  0  0  0  0  2  0  0  0  0  0  0
  -30.9910  -16.8170   21.1650 C   0  0  0  0  0  3  0  0  0  0  0  0
  -30.5200  -20.1510   21.4190 N   0  0  0  0  0  0  0  0  0  0  0  0
  -29.8130  -21.7200   19.9220 O   0  0  0  0  0  0  0  0  0  0  0  0
  -31.0340  -14.5050   20.1730 C   0  0  0  0  0  0  0  0  0  0  0  0
  -30.6600  -12.3390   19.0460 C   0  0  0  0  0  2  0  0  0  0  0  0
  -29.6690  -12.5180   17.8780 C   0  0  0  0  0  2  0  0  0  0  0  0
  -28.2130  -12.4010   18.3730 C   0  0  0  0  0  2  0  0  0  0  0  0
  -27.9340  -13.2730   19.6260 C   0  0  0  0  0  3  0  0  0  0  0  0
  -29.0300  -13.0620   20.6950 C   0  0  0  0  0  2  0  0  0  0  0  0
  -30.3330  -13.3440   20.0700 N   0  0  0  0  0  0  0  0  0  0  0  0
  -32.1100  -14.6920   19.5950 O   0  0  0  0  0  0  0  0  0  0  0  0
  -30.4420  -15.4820   20.8820 N   0  0  0  0  0  0  0  0  0  0  0  0
  -29.5490  -15.2520   21.2920 H   0  0  0  0  0  0  0  0  0  0  0  0
  -25.5890  -13.9270   20.4630 C   0  0  0  0  0  0  0  0  0  0  0  0
  -24.5180  -13.1750   20.8640 C   0  0  0  0  0  0  0  0  0  0  0  0
  -24.9390  -11.8120   20.7760 C   0  0  0  0  0  0  0  0  0  0  0  0
  -26.5970  -13.0240   20.1620 N   0  0  0  0  0  0  0  0  0  0  0  0
  -26.2100  -11.7460   20.4050 N   0  0  0  0  0  0  0  0  0  0  0  0
  -24.1870  -10.5660   20.9700 C   0  0  0  0  0  0  0  0  0  0  0  0
  -24.6050   -9.5870   21.8980 C   0  0  0  0  0  3  0  0  0  0  0  0
  -23.8560   -8.4050   22.0780 C   0  0  0  0  0  3  0  0  0  0  0  0
  -22.6730   -8.1920   21.3300 C   0  0  0  0  0  0  0  0  0  0  0  0
  -22.2740   -9.1600   20.3920 C   0  0  0  0  0  3  0  0  0  0  0  0
  -23.0240  -10.3340   20.2090 C   0  0  0  0  0  3  0  0  0  0  0  0
  -21.8950   -7.0630   21.4210 O   0  0  0  0  0  0  0  0  0  0  0  0
  -21.7920   -6.3520   22.5900 C   0  0  0  0  0  0  0  0  0  0  0  0
  -21.3200   -6.9430   23.7820 C   0  0  0  0  0  3  0  0  0  0  0  0
  -21.1640   -6.1580   24.9420 C   0  0  0  0  0  3  0  0  0  0  0  0
  -21.4710   -4.7850   24.9100 C   0  0  0  0  0  0  0  0  0  0  0  0
  -21.9360   -4.1940   23.7230 C   0  0  0  0  0  3  0  0  0  0  0  0
  -22.0930   -4.9760   22.5650 C   0  0  0  0  0  0  0  0  0  0  0  0
  -22.5220   -4.3970   21.4170 F   0  0  0  0  0  0  0  0  0  0  0  0
  -21.3130   -4.0290   26.0230 F   0  0  0  0  0  0  0  0  0  0  0  0
  -23.1500  -13.6820   21.2170 C   0  0  0  0  0  0  0  0  0  0  0  0
  -22.4470  -12.9860   22.1050 N   0  0  0  0  0  0  0  0  0  0  0  0
  -22.7140  -14.7300   20.7420 O   0  0  0  0  0  0  0  0  0  0  0  0
  -22.8130  -12.1360   22.5080 H   0  0  0  0  0  0  0  0  0  0  0  0
  -21.5310  -13.3060   22.3830 H   0  0  0  0  0  0  0  0  0  0  0  0
  -25.7850  -15.2970   20.3120 N   0  0  0  0  0  0  0  0  0  0  0  0
  -25.0450  -15.9710   20.4730 H   0  0  0  0  0  0  0  0  0  0  0  0
  -26.6330  -15.7190   19.9530 H   0  0  0  0  0  0  0  0  0  0  0  0
  -29.3650  -22.2810   22.1900 C   0  0  0  0  0  2  0  0  0  0  0  0
  -28.5960  -24.6110   21.5960 C   0  0  0  0  0  0  0  0  0  0  0  0
  -29.5530  -23.7140   21.8940 N   0  0  0  0  0  0  0  0  0  0  0  0
  -27.4170  -24.2780   21.4510 O   0  0  0  0  0  0  0  0  0  0  0  0
  -30.5040  -24.0540   21.9470 H   0  0  0  0  0  0  0  0  0  0  0  0
  -29.0110  -26.0980   21.4860 C   0  0  0  0  0  2  0  0  0  0  0  0
  -28.5680  -26.6880   20.2550 O   0  0  0  0  0  0  0  0  0  0  0  0
  -24.7130  -31.9200   23.2570 C   0  0  0  0  0  0  0  0  0  0  0  0
  -27.4110  -27.4330   20.3030 C   0  0  0  0  0  0  0  0  0  0  0  0
  -23.5310  -30.4800   21.6310 C   0  0  0  0  0  3  0  0  0  0  0  0
  -25.0080  -28.9190   20.2560 C   0  0  0  0  0  0  0  0  0  0  0  0
  -26.0550  -30.8480   21.4510 C   0  0  0  0  0  2  0  0  0  0  0  0
  -26.1560  -29.4600   20.8530 C   0  0  0  0  0  0  0  0  0  0  0  0
  -27.3610  -28.7210   20.8840 C   0  0  0  0  0  3  0  0  0  0  0  0
  -26.2560  -26.9090   19.6910 C   0  0  0  0  0  3  0  0  0  0  0  0
  -25.0520  -27.6380   19.6750 C   0  0  0  0  0  3  0  0  0  0  0  0
  -23.7590  -29.7720   20.2680 C   0  0  0  0  0  2  0  0  0  0  0  0
  -24.7840  -31.1000   22.1720 N   0  0  0  0  0  0  0  0  0  0  0  0
  -23.6260  -32.1990   23.7820 O   0  0  0  0  0  0  0  0  0  0  0  0
  -22.8740  -29.4760   22.6060 C   0  0  0  0  0  0  0  0  0  0  0  0
  -21.5550  -29.2720   22.4580 N   0  0  0  0  0  0  0  0  0  0  0  0
  -23.5480  -28.8820   23.4500 O   0  0  0  0  0  0  0  0  0  0  0  0
  -21.0710  -29.8040   21.7480 H   0  0  0  0  0  0  0  0  0  0  0  0
  -18.1910  -28.0330   22.9090 C   0  0  0  0  0  0  0  0  0  0  0  0
  -20.7360  -28.3430   23.2350 C   0  0  0  0  0  3  0  0  0  0  0  0
  -20.8770  -26.8980   22.7050 C   0  0  0  0  0  2  0  0  0  0  0  0
  -19.8050  -26.5260   21.6740 C   0  0  0  0  0  2  0  0  0  0  0  0
  -18.4060  -26.6670   22.2790 C   0  0  0  0  0  2  0  0  0  0  0  0
  -19.2840  -28.8260   23.3440 C   0  0  0  0  0  0  0  0  0  0  0  0
  -19.0300  -30.1030   23.8900 C   0  0  0  0  0  3  0  0  0  0  0  0
  -17.7140  -30.5880   24.0060 C   0  0  0  0  0  3  0  0  0  0  0  0
  -16.6340  -29.7920   23.5860 C   0  0  0  0  0  3  0  0  0  0  0  0
  -16.8730  -28.5170   23.0440 C   0  0  0  0  0  3  0  0  0  0  0  0
  -25.9920  -32.5680   23.8770 C   0  0  0  0  0  3  0  0  0  0  0  0
  -26.5140  -31.8080   25.1570 C   0  0  1  0  0  0  0  0  0  0  0  0
  -25.4220  -31.5570   26.2220 C   0  0  0  0  0  1  0  0  0  0  0  0
  -27.1160  -30.4370   24.7690 C   0  0  0  0  0  1  0  0  0  0  0  0
  -27.6530  -32.6190   25.8190 C   0  0  0  0  0  1  0  0  0  0  0  0
  -25.6670  -33.9640   24.1970 N   0  0  0  0  0  0  0  0  0  0  0  0
  -25.9920  -35.0140   23.4310 C   0  0  0  0  0  0  0  0  0  0  0  0
  -26.6700  -34.9110   22.4050 O   0  0  0  0  0  0  0  0  0  0  0  0
  -25.0600  -34.1170   24.9890 H   0  0  0  0  0  0  0  0  0  0  0  0
  -24.2490  -36.7880   23.0510 C   0  0  0  0  0  1  0  0  0  0  0  0
  -25.4880  -36.4010   23.8760 C   0  0  0  0  0  3  0  0  0  0  0  0
  -27.6060  -37.3130   24.7160 C   0  0  0  0  0  1  0  0  0  0  0  0
  -26.5100  -37.4630   23.7620 N   0  0  0  0  0  0  0  0  0  0  0  0
  -26.0940  -38.3800   23.8990 H   0  0  0  0  0  0  0  0  0  0  0  0
  1  8  1  0
  1 48  1  0
  3  2  1  0
  4  6  1  0
  4  7  1  0
  5  2  1  0
  6  8  1  0
  7 18  1  0
  7  3  1  0
  8  5  1  0
  9  1  2  0
 10 18  1  0
 11 16  1  0
 12 13  1  0
 12 11  1  0
 14 13  1  0
 14 23  1  0
 14 15  1  0
 16 10  1  0
 16 15  1  0
 17 10  2  0
 18 19  1  0
 20 21  2  0
 21 40  1  0
 22 21  1  0
 22 25  1  0
 23 24  1  0
 23 20  1  0
 24 22  2  0
 25 26  1  0
 26 27  2  0
 28 31  1  0
 28 27  1  0
 29 28  2  0
 30 29  1  0
 30 25  2  0
 31 32  1  0
 32 33  1  0
 33 34  2  0
 35 34  1  0
 35 39  1  0
 36 35  2  0
 37 32  2  0
 37 36  1  0
 38 37  1  0
 40 41  1  0
 41 44  1  0
 41 43  1  0
 42 40  2  0
 45 20  1  0
 45 46  1  0
 47 45  1  0
 49 50  1  0
 50 52  1  0
 50 48  1  0
 51 49  2  0
 53 49  1  0
 54 56  1  0
 54 53  1  0
 55 66  2  0
 56 61  1  0
 57 65  1  0
 57 67  1  0
 58 64  1  0
 58 60  1  0
 59 65  1  0
 60 61  2  0
 60 59  1  0
 62 56  2  0
 63 62  1  0
 63 58  2  0
 64 57  1  0
 65 55  1  0
 67 69  2  0
 68 67  1  0
 70 68  1  0
 71 80  2  0
 71 76  1  0
 72 68  1  0
 72 76  1  0
 73 72  1  0
 74 75  1  0
 74 73  1  0
 75 71  1  0
 76 77  2  0
 77 78  1  0
 79 78  2  0
 80 79  1  0
 81 55  1  0
 81 86  1  0
 81 82  1  0
 82 85  1  1
 82 83  1  0
 84 82  1  0
 86 89  1  0
 87 91  1  0
 87 86  1  0
 88 87  2  0
 91 90  1  0
 93 91  1  0
 93 94  1  0
 93 92  1  0
M  ISO  4  10 100  18 100  53 101  54 101
M  END
>  <TORSDO>  (92) 
F 19

>  <SCORE>  (92) 
-13.746

>  <name>  (92) 
93

>  <ligand_id>  (92) 
93

>  <original_smiles>  (92) 
[H]c1c([H])c([H])c2c(c1[H])C([H])([H])C([H])([H])C([H])([H])C2([H])N([H])C(=O)C1([H])N(C(=O)C([H])(N([H])C(=O)C([H])(N([H])C([H])([H])[H])C([H])([H])[H])C(C([H])([H])[H])(C([H])([H])[H])C([H])([H])[H])C([H])([H])c2c([H])c(OC([H])([H])C(=O)N([H])C([H])([H])C(=O)N3C([H])([H])C([H])([H])C([H])([H])C([H])(N([H])C(=O)N4C([H])([H])C([H])([H])C([H])([H])C([H])(n5nc(-c6c([H])c([H])c(Oc7c([H])c([H])c(F)c([H])c7F)c([H])c6[H])c(C(=O)N([H])[H])c5N([H])[H])C4([H])[H])C([H])([H])C3([H])[H])c([H])c([H])c2C1([H])[H]

>  <smiles>  (92) 
[H]c1c([H])c([H])c2c(c1[H])C([H])([H])C([H])([H])C([H])([H])C2([H])N([H])C(=O)C1([H])N(C(=O)C([H])(N([H])C(=O)C([H])(N([H])C([H])([H])[H])C([H])([H])[H])C(C([H])([H])[H])(C([H])([H])[H])C([H])([H])[H])C([H])([H])c2c([H])c(OC([H])([H])C(=O)N([H])C([H])([H])C(=O)N3C([H])([H])C([H])([H])C([H])([H])C([H])(N([H])C(=O)N4C([H])([H])C([H])([H])C([H])([H])C([H])(n5nc(-c6c([H])c([H])c(Oc7c([H])c([H])c(F)c([H])c7F)c([H])c6[H])c(C(=O)N([H])[H])c5N([H])[H])C4([H])[H])C([H])([H])C3([H])[H])c([H])c([H])c2C1([H])[H]

$$$$
94:0:0
     RDKit          3D

 84 91  0  0  1  0  0  0  0  0999 V2000
  -28.9100  -20.6430   20.2550 C   0  0  0  0  0  3  0  0  0  0  0  0
  -28.9530  -22.2200   20.3250 C   0  0  0  0  0  0  0  0  0  0  0  0
  -30.3150  -22.8920   20.5620 C   0  0  0  0  0  1  0  0  0  0  0  0
  -29.7410  -18.9290   20.3020 C   0  0  0  0  0  2  0  0  0  0  0  0
  -30.2410  -15.7670   20.2180 C   0  0  0  0  0  0  0  0  0  0  0  0
  -30.3550  -13.2230   19.3790 C   0  0  0  0  0  2  0  0  0  0  0  0
  -29.4550  -12.7970   18.1830 C   0  0  0  0  0  2  0  0  0  0  0  0
  -28.0440  -12.4210   18.6600 C   0  0  0  0  0  2  0  0  0  0  0  0
  -27.5360  -13.4120   19.7310 C   0  0  0  0  0  3  0  0  0  0  0  0
  -28.5790  -13.7440   20.8260 C   0  0  0  0  0  2  0  0  0  0  0  0
  -29.7220  -14.3950   20.1440 N   0  0  0  0  0  0  0  0  0  0  0  0
  -31.4740  -15.7000   20.0470 O   0  0  0  0  0  0  0  0  0  0  0  0
  -29.4890  -17.1480   20.2920 N   0  0  0  0  0  0  0  0  0  0  0  0
  -28.5000  -16.9500   20.3590 H   0  0  0  0  0  0  0  0  0  0  0  0
  -25.1860  -13.9060   20.5540 C   0  0  0  0  0  0  0  0  0  0  0  0
  -24.1400  -13.1090   20.9230 C   0  0  0  0  0  0  0  0  0  0  0  0
  -24.6230  -11.7660   20.8570 C   0  0  0  0  0  0  0  0  0  0  0  0
  -26.2340  -13.0500   20.2730 N   0  0  0  0  0  0  0  0  0  0  0  0
  -25.9110  -11.7530   20.5230 N   0  0  0  0  0  0  0  0  0  0  0  0
  -23.9090  -10.4930   21.0330 C   0  0  0  0  0  0  0  0  0  0  0  0
  -24.3370   -9.5270   21.9700 C   0  0  0  0  0  3  0  0  0  0  0  0
  -23.6180   -8.3230   22.1380 C   0  0  0  0  0  3  0  0  0  0  0  0
  -22.4570   -8.0770   21.3680 C   0  0  0  0  0  0  0  0  0  0  0  0
  -22.0470   -9.0310   20.4200 C   0  0  0  0  0  3  0  0  0  0  0  0
  -22.7670  -10.2270   20.2510 C   0  0  0  0  0  3  0  0  0  0  0  0
  -21.7110   -6.9250   21.4440 O   0  0  0  0  0  0  0  0  0  0  0  0
  -21.6190   -6.2020   22.6060 C   0  0  0  0  0  0  0  0  0  0  0  0
  -21.1020   -6.7630   23.7940 C   0  0  0  0  0  3  0  0  0  0  0  0
  -20.9610   -5.9650   24.9470 C   0  0  0  0  0  3  0  0  0  0  0  0
  -21.3270   -4.6060   24.9120 C   0  0  0  0  0  0  0  0  0  0  0  0
  -21.8380   -4.0440   23.7280 C   0  0  0  0  0  3  0  0  0  0  0  0
  -21.9800   -4.8400   22.5780 C   0  0  0  0  0  0  0  0  0  0  0  0
  -22.4520   -4.2870   21.4340 F   0  0  0  0  0  0  0  0  0  0  0  0
  -21.1850   -3.8360   26.0160 F   0  0  0  0  0  0  0  0  0  0  0  0
  -22.7440  -13.5690   21.2170 C   0  0  0  0  0  0  0  0  0  0  0  0
  -22.0340  -12.8590   22.0860 N   0  0  0  0  0  0  0  0  0  0  0  0
  -22.2900  -14.5960   20.7120 O   0  0  0  0  0  0  0  0  0  0  0  0
  -22.4140  -12.0280   22.5160 H   0  0  0  0  0  0  0  0  0  0  0  0
  -21.0970  -13.1500   22.3270 H   0  0  0  0  0  0  0  0  0  0  0  0
  -25.3270  -15.2810   20.3970 N   0  0  0  0  0  0  0  0  0  0  0  0
  -24.5480  -15.9190   20.5250 H   0  0  0  0  0  0  0  0  0  0  0  0
  -26.1540  -15.7360   20.0320 H   0  0  0  0  0  0  0  0  0  0  0  0
  -27.8860  -23.7590   20.2070 C   0  0  0  0  0  2  0  0  0  0  0  0
  -28.1070  -25.5200   20.3480 O   0  0  0  0  0  0  0  0  0  0  0  0
  -24.6200  -31.8780   23.2420 C   0  0  0  0  0  0  0  0  0  0  0  0
  -27.1480  -26.7550   20.2870 C   0  0  0  0  0  0  0  0  0  0  0  0
  -23.4410  -30.4800   21.6010 C   0  0  0  0  0  3  0  0  0  0  0  0
  -24.8920  -28.8160   20.2070 C   0  0  0  0  0  0  0  0  0  0  0  0
  -26.0220  -30.6040   21.5010 C   0  0  0  0  0  2  0  0  0  0  0  0
  -26.0860  -29.1640   20.8490 C   0  0  0  0  0  0  0  0  0  0  0  0
  -27.1980  -28.1650   20.8530 C   0  0  0  0  0  3  0  0  0  0  0  0
  -25.9190  -26.6250   19.5890 C   0  0  0  0  0  3  0  0  0  0  0  0
  -24.8490  -27.5740   19.5520 C   0  0  0  0  0  3  0  0  0  0  0  0
  -23.6900  -29.7760   20.2360 C   0  0  0  0  0  2  0  0  0  0  0  0
  -24.7190  -31.0210   22.1680 N   0  0  0  0  0  0  0  0  0  0  0  0
  -23.5240  -32.1850   23.7420 O   0  0  0  0  0  0  0  0  0  0  0  0
  -22.7090  -29.5100   22.5700 C   0  0  0  0  0  0  0  0  0  0  0  0
  -21.3770  -29.3650   22.4360 N   0  0  0  0  0  0  0  0  0  0  0  0
  -23.3550  -28.8850   23.4150 O   0  0  0  0  0  0  0  0  0  0  0  0
  -20.9060  -29.9210   21.7350 H   0  0  0  0  0  0  0  0  0  0  0  0
  -17.9760  -28.1820   22.9380 C   0  0  0  0  0  0  0  0  0  0  0  0
  -20.5380  -28.4360   23.2040 C   0  0  0  0  0  3  0  0  0  0  0  0
  -20.6290  -27.0010   22.6310 C   0  0  0  0  0  2  0  0  0  0  0  0
  -19.5280  -26.6870   21.6130 C   0  0  0  0  0  2  0  0  0  0  0  0
  -18.1470  -26.8360   22.2540 C   0  0  0  0  0  2  0  0  0  0  0  0
  -19.0980  -28.9400   23.3690 C   0  0  0  0  0  0  0  0  0  0  0  0
  -18.8810  -30.1960   23.9750 C   0  0  0  0  0  3  0  0  0  0  0  0
  -17.5760  -30.6980   24.1480 C   0  0  0  0  0  3  0  0  0  0  0  0
  -16.4700  -29.9380   23.7280 C   0  0  0  0  0  3  0  0  0  0  0  0
  -16.6710  -28.6820   23.1300 C   0  0  0  0  0  3  0  0  0  0  0  0
  -25.8780  -32.5270   23.8940 C   0  0  0  0  0  3  0  0  0  0  0  0
  -25.5630  -33.9360   24.2050 N   0  0  0  0  0  0  0  0  0  0  0  0
  -25.8920  -34.9890   23.4460 C   0  0  0  0  0  0  0  0  0  0  0  0
  -26.5520  -34.8770   22.4090 O   0  0  0  0  0  0  0  0  0  0  0  0
  -24.9740  -34.0960   25.0100 H   0  0  0  0  0  0  0  0  0  0  0  0
  -24.1610  -36.7930   23.1230 C   0  0  0  0  0  1  0  0  0  0  0  0
  -25.4230  -36.3870   23.9030 C   0  0  0  0  0  3  0  0  0  0  0  0
  -27.5770  -37.2860   24.6740 C   0  0  0  0  0  1  0  0  0  0  0  0
  -26.4540  -37.4380   23.7510 N   0  0  0  0  0  0  0  0  0  0  0  0
  -26.0530  -38.3620   23.8890 H   0  0  0  0  0  0  0  0  0  0  0  0
  -26.3450  -31.7840   25.2080 C   0  0  1  0  0  0  0  0  0  0  0  0
  -25.2180  -31.5840   26.2480 C   0  0  0  0  0  1  0  0  0  0  0  0
  -26.9260  -30.3910   24.8790 C   0  0  0  0  0  1  0  0  0  0  0  0
  -27.4840  -32.5840   25.8840 C   0  0  0  0  0  1  0  0  0  0  0  0
  1  4  1  0
  1  2  2  0
  2  3  1  0
  5 13  1  0
  6 11  1  0
  7  8  1  0
  7  6  1  0
  9  8  1  0
  9 18  1  0
  9 10  1  0
 11  5  1  0
 11 10  1  0
 12  5  2  0
 13  4  1  0
 13 14  1  0
 15 16  2  0
 16 35  1  0
 17 16  1  0
 17 20  1  0
 18 19  1  0
 18 15  1  0
 19 17  2  0
 20 21  1  0
 21 22  2  0
 23 26  1  0
 23 22  1  0
 24 23  2  0
 25 24  1  0
 25 20  2  0
 26 27  1  0
 27 28  1  0
 28 29  2  0
 30 29  1  0
 30 34  1  0
 31 30  2  0
 32 27  2  0
 32 31  1  0
 33 32  1  0
 35 36  1  0
 36 39  1  0
 36 38  1  0
 37 35  2  0
 40 41  1  0
 40 15  1  0
 42 40  1  0
 43  2  1  0
 43 44  1  0
 45 56  2  0
 46 44  1  0
 46 51  1  0
 47 55  1  0
 47 57  1  0
 48 54  1  0
 48 50  1  0
 49 55  1  0
 50 51  2  0
 50 49  1  0
 52 46  2  0
 53 52  1  0
 53 48  2  0
 54 47  1  0
 55 45  1  0
 57 59  2  0
 58 57  1  0
 60 58  1  0
 61 70  2  0
 61 66  1  0
 62 58  1  0
 62 66  1  0
 63 62  1  0
 64 65  1  0
 64 63  1  0
 65 61  1  0
 66 67  2  0
 67 68  1  0
 69 68  2  0
 70 69  1  0
 71 45  1  0
 71 72  1  0
 71 81  1  0
 72 75  1  0
 73 77  1  0
 73 72  1  0
 74 73  2  0
 77 76  1  0
 79 80  1  0
 79 77  1  0
 79 78  1  0
 81 84  1  1
 81 82  1  0
 83 81  1  0
M  ISO  4   5 100  13 100  43 101  44 101
M  END
>  <TORSDO>  (93) 
F 18

>  <SCORE>  (93) 
-16.263

>  <name>  (93) 
94

>  <ligand_id>  (93) 
94

>  <original_smiles>  (93) 
[H]C(=C(C([H])([H])[H])C([H])([H])Oc1c([H])c([H])c2c(c1[H])C([H])([H])N(C(=O)C([H])(N([H])C(=O)C([H])(N([H])C([H])([H])[H])C([H])([H])[H])C(C([H])([H])[H])(C([H])([H])[H])C([H])([H])[H])C([H])(C(=O)N([H])C1([H])c3c([H])c([H])c([H])c([H])c3C([H])([H])C([H])([H])C1([H])[H])C2([H])[H])C([H])([H])N([H])C(=O)N1C([H])([H])C([H])([H])C([H])([H])C([H])(n2nc(-c3c([H])c([H])c(Oc4c([H])c([H])c(F)c([H])c4F)c([H])c3[H])c(C(=O)N([H])[H])c2N([H])[H])C1([H])[H]

>  <smiles>  (93) 
[H]C(=C(C([H])([H])[H])C([H])([H])Oc1c([H])c([H])c2c(c1[H])C([H])([H])N(C(=O)C([H])(N([H])C(=O)C([H])(N([H])C([H])([H])[H])C([H])([H])[H])C(C([H])([H])[H])(C([H])([H])[H])C([H])([H])[H])C([H])(C(=O)N([H])C1([H])c3c([H])c([H])c([H])c([H])c3C([H])([H])C([H])([H])C1([H])[H])C2([H])[H])C([H])([H])N([H])C(=O)N1C([H])([H])C([H])([H])C([H])([H])C([H])(n2nc(-c3c([H])c([H])c(Oc4c([H])c([H])c(F)c([H])c4F)c([H])c3[H])c(C(=O)N([H])[H])c2N([H])[H])C1([H])[H]

$$$$
95:0:0
     RDKit          3D

 91 98  0  0  1  0  0  0  0  0999 V2000
  -28.3830  -21.6070   20.6550 C   0  0  0  0  0  0  0  0  0  0  0  0
  -27.1680  -20.6860   20.6520 C   0  0  0  0  0  1  0  0  0  0  0  0
  -28.0950  -22.8630   20.5790 N   0  0  0  0  0  0  0  0  0  0  0  0
  -30.3470  -21.1190   22.2040 C   0  0  0  0  0  1  0  0  0  0  0  0
  -29.7810  -20.9130   20.7790 C   0  0  0  0  0  3  0  0  0  0  0  0
  -29.8020  -19.3990   20.3000 C   0  0  0  0  0  0  0  0  0  0  0  0
  -29.3080  -19.1370   19.2090 O   0  0  0  0  0  0  0  0  0  0  0  0
  -30.4880  -17.1920   21.1160 C   0  0  0  0  0  0  0  0  0  0  0  0
  -31.0590  -16.5580   22.3780 C   0  0  0  0  0  1  0  0  0  0  0  0
  -30.3860  -18.4900   21.2020 N   0  0  0  0  0  0  0  0  0  0  0  0
  -30.2870  -16.6500   18.5410 C   0  0  0  0  0  1  0  0  0  0  0  0
  -30.0940  -16.1340   19.9970 C   0  0  0  0  0  3  0  0  0  0  0  0
  -30.8710  -14.7560   20.0620 C   0  0  0  0  0  0  0  0  0  0  0  0
  -30.5560  -12.5120   19.1150 C   0  0  0  0  0  2  0  0  0  0  0  0
  -29.6070  -12.6590   17.9020 C   0  0  0  0  0  2  0  0  0  0  0  0
  -28.1380  -12.5380   18.3560 C   0  0  0  0  0  2  0  0  0  0  0  0
  -27.8100  -13.4300   19.5830 C   0  0  0  0  0  3  0  0  0  0  0  0
  -28.8880  -13.3090   20.6830 C   0  0  0  0  0  2  0  0  0  0  0  0
  -30.2030  -13.5640   20.0840 N   0  0  0  0  0  0  0  0  0  0  0  0
  -32.0690  -14.7970   19.7710 O   0  0  0  0  0  0  0  0  0  0  0  0
  -25.4390  -14.0520   20.3490 C   0  0  0  0  0  0  0  0  0  0  0  0
  -24.3720  -13.2890   20.7380 C   0  0  0  0  0  0  0  0  0  0  0  0
  -24.8190  -11.9320   20.7000 C   0  0  0  0  0  0  0  0  0  0  0  0
  -26.4700  -13.1620   20.0970 N   0  0  0  0  0  0  0  0  0  0  0  0
  -26.1050  -11.8830   20.3690 N   0  0  0  0  0  0  0  0  0  0  0  0
  -24.0860  -10.6770   20.9020 C   0  0  0  0  0  0  0  0  0  0  0  0
  -24.4970   -9.7250   21.8600 C   0  0  0  0  0  3  0  0  0  0  0  0
  -23.7610   -8.5340   22.0460 C   0  0  0  0  0  3  0  0  0  0  0  0
  -22.6000   -8.2890   21.2740 C   0  0  0  0  0  0  0  0  0  0  0  0
  -22.2080   -9.2290   20.3060 C   0  0  0  0  0  3  0  0  0  0  0  0
  -22.9440  -10.4110   20.1170 C   0  0  0  0  0  3  0  0  0  0  0  0
  -21.8370   -7.1490   21.3690 O   0  0  0  0  0  0  0  0  0  0  0  0
  -21.7370   -6.4470   22.5420 C   0  0  0  0  0  0  0  0  0  0  0  0
  -21.2390   -7.0380   23.7250 C   0  0  0  0  0  3  0  0  0  0  0  0
  -21.0870   -6.2610   24.8900 C   0  0  0  0  0  3  0  0  0  0  0  0
  -21.4250   -4.8940   24.8760 C   0  0  0  0  0  0  0  0  0  0  0  0
  -21.9200   -4.3030   23.6980 C   0  0  0  0  0  3  0  0  0  0  0  0
  -22.0710   -5.0780   22.5360 C   0  0  0  0  0  0  0  0  0  0  0  0
  -22.5250   -4.4990   21.3980 F   0  0  0  0  0  0  0  0  0  0  0  0
  -21.2730   -4.1460   25.9940 F   0  0  0  0  0  0  0  0  0  0  0  0
  -22.9830  -13.7800   21.0370 C   0  0  0  0  0  0  0  0  0  0  0  0
  -22.2710  -13.0940   21.9240 N   0  0  0  0  0  0  0  0  0  0  0  0
  -22.5440  -14.8040   20.5170 O   0  0  0  0  0  0  0  0  0  0  0  0
  -22.6390  -12.2650   22.3640 H   0  0  0  0  0  0  0  0  0  0  0  0
  -21.3430  -13.4070   22.1730 H   0  0  0  0  0  0  0  0  0  0  0  0
  -25.6130  -15.4210   20.1650 N   0  0  0  0  0  0  0  0  0  0  0  0
  -24.8590  -16.0880   20.3010 H   0  0  0  0  0  0  0  0  0  0  0  0
  -26.4600  -15.8490   19.8130 H   0  0  0  0  0  0  0  0  0  0  0  0
  -28.9690  -24.0490   20.6160 C   0  0  0  0  0  2  0  0  0  0  0  0
  -28.1180  -25.2410   20.0570 C   0  0  0  0  0  2  0  0  0  0  0  0
  -28.4180  -26.6580   20.3000 O   0  0  0  0  0  0  0  0  0  0  0  0
  -24.5690  -31.9450   23.2710 C   0  0  0  0  0  0  0  0  0  0  0  0
  -27.3090  -27.5060   20.1950 C   0  0  0  0  0  0  0  0  0  0  0  0
  -23.4260  -30.5620   21.5770 C   0  0  0  0  0  3  0  0  0  0  0  0
  -24.9300  -29.0730   20.1550 C   0  0  0  0  0  0  0  0  0  0  0  0
  -25.9620  -30.9250   21.4660 C   0  0  0  0  0  2  0  0  0  0  0  0
  -26.0740  -29.5650   20.7950 C   0  0  0  0  0  0  0  0  0  0  0  0
  -27.2680  -28.7890   20.8140 C   0  0  0  0  0  3  0  0  0  0  0  0
  -26.1460  -27.0840   19.5010 C   0  0  0  0  0  3  0  0  0  0  0  0
  -24.9660  -27.8380   19.4990 C   0  0  0  0  0  3  0  0  0  0  0  0
  -23.6800  -29.9240   20.1890 C   0  0  0  0  0  2  0  0  0  0  0  0
  -24.6690  -31.1580   22.1630 N   0  0  0  0  0  0  0  0  0  0  0  0
  -23.4670  -32.2010   23.7770 O   0  0  0  0  0  0  0  0  0  0  0  0
  -22.7560  -29.5130   22.4970 C   0  0  0  0  0  0  0  0  0  0  0  0
  -21.4420  -29.3050   22.3140 N   0  0  0  0  0  0  0  0  0  0  0  0
  -23.4160  -28.8970   23.3390 O   0  0  0  0  0  0  0  0  0  0  0  0
  -20.9710  -29.8650   21.6180 H   0  0  0  0  0  0  0  0  0  0  0  0
  -18.0650  -28.0550   22.6760 C   0  0  0  0  0  0  0  0  0  0  0  0
  -20.6100  -28.3440   23.0390 C   0  0  0  0  0  3  0  0  0  0  0  0
  -20.7500  -26.9220   22.4480 C   0  0  0  0  0  2  0  0  0  0  0  0
  -19.6880  -26.5990   21.3920 C   0  0  0  0  0  2  0  0  0  0  0  0
  -18.2820  -26.7160   21.9900 C   0  0  0  0  0  2  0  0  0  0  0  0
  -19.1580  -28.8240   23.1550 C   0  0  0  0  0  0  0  0  0  0  0  0
  -18.9020  -30.0760   23.7540 C   0  0  0  0  0  3  0  0  0  0  0  0
  -17.5860  -30.5600   23.8800 C   0  0  0  0  0  3  0  0  0  0  0  0
  -16.5080  -29.7850   23.4230 C   0  0  0  0  0  3  0  0  0  0  0  0
  -16.7470  -28.5350   22.8250 C   0  0  0  0  0  3  0  0  0  0  0  0
  -25.8280  -32.5810   23.9350 C   0  0  0  0  0  3  0  0  0  0  0  0
  -25.5110  -33.9850   24.2280 N   0  0  0  0  0  0  0  0  0  0  0  0
  -25.8770  -35.0220   23.4640 C   0  0  0  0  0  0  0  0  0  0  0  0
  -26.5860  -34.8970   22.4610 O   0  0  0  0  0  0  0  0  0  0  0  0
  -24.8890  -34.1560   25.0050 H   0  0  0  0  0  0  0  0  0  0  0  0
  -24.1700  -36.8150   23.0100 C   0  0  0  0  0  1  0  0  0  0  0  0
  -25.3770  -36.4190   23.8790 C   0  0  0  0  0  3  0  0  0  0  0  0
  -27.4750  -37.3160   24.7880 C   0  0  0  0  0  1  0  0  0  0  0  0
  -26.4160  -37.4680   23.7920 N   0  0  0  0  0  0  0  0  0  0  0  0
  -26.0070  -38.3920   23.9000 H   0  0  0  0  0  0  0  0  0  0  0  0
  -26.2850  -31.8250   25.2430 C   0  0  1  0  0  0  0  0  0  0  0  0
  -25.1450  -31.5970   26.2630 C   0  0  0  0  0  1  0  0  0  0  0  0
  -26.8870  -30.4440   24.8930 C   0  0  0  0  0  1  0  0  0  0  0  0
  -27.4020  -32.6310   25.9470 C   0  0  0  0  0  1  0  0  0  0  0  0
  1  5  1  0
  2  1  1  0
  3 49  1  0
  3  1  2  0
  5  4  1  0
  6  5  1  0
  6 10  1  0
  7  6  2  0
  8 10  2  0
  8  9  1  0
 12 11  1  0
 12 13  1  0
 12  8  1  0
 13 19  1  0
 14 19  1  0
 15 16  1  0
 15 14  1  0
 17 16  1  0
 17 24  1  0
 17 18  1  0
 19 18  1  0
 20 13  2  0
 21 22  2  0
 22 41  1  0
 23 22  1  0
 23 26  1  0
 24 21  1  0
 24 25  1  0
 25 23  2  0
 26 27  1  0
 27 28  2  0
 29 32  1  0
 29 28  1  0
 30 29  2  0
 31 30  1  0
 31 26  2  0
 32 33  1  0
 33 34  1  0
 34 35  2  0
 36 35  1  0
 36 40  1  0
 37 36  2  0
 38 33  2  0
 38 37  1  0
 39 38  1  0
 41 42  1  0
 42 45  1  0
 42 44  1  0
 43 41  2  0
 46 47  1  0
 46 21  1  0
 48 46  1  0
 50 51  1  0
 50 49  1  0
 52 63  2  0
 53 51  1  0
 53 58  1  0
 54 62  1  0
 54 64  1  0
 55 61  1  0
 55 57  1  0
 56 62  1  0
 57 58  2  0
 57 56  1  0
 59 53  2  0
 60 59  1  0
 60 55  2  0
 61 54  1  0
 62 52  1  0
 64 66  2  0
 65 64  1  0
 67 65  1  0
 68 77  2  0
 68 73  1  0
 69 65  1  0
 69 73  1  0
 70 69  1  0
 71 72  1  0
 71 70  1  0
 72 68  1  0
 73 74  2  0
 74 75  1  0
 76 75  2  0
 77 76  1  0
 78 52  1  0
 78 79  1  0
 78 88  1  0
 79 82  1  0
 80 84  1  0
 80 79  1  0
 81 80  2  0
 84 83  1  0
 86 84  1  0
 86 87  1  0
 86 85  1  0
 88 91  1  1
 88 89  1  0
 90 88  1  0
M  ISO  4  12 100  13 100  50 101  51 101
M  END
>  <TORSDO>  (94) 
F 22

>  <SCORE>  (94) 
-12.154

>  <name>  (94) 
95

>  <ligand_id>  (94) 
95

>  <original_smiles>  (94) 
[H]c1c([H])c([H])c2c(c1[H])C([H])([H])C([H])([H])C([H])([H])C2([H])N([H])C(=O)C1([H])N(C(=O)C([H])(N([H])C(=O)C([H])(N([H])C([H])([H])[H])C([H])([H])[H])C(C([H])([H])[H])(C([H])([H])[H])C([H])([H])[H])C([H])([H])c2c([H])c(OC([H])([H])C([H])([H])N=C(C([H])([H])[H])C([H])(C(=O)N=C(C([H])([H])[H])C([H])(C(=O)N3C([H])([H])C([H])([H])C([H])([H])C([H])(n4nc(-c5c([H])c([H])c(Oc6c([H])c([H])c(F)c([H])c6F)c([H])c5[H])c(C(=O)N([H])[H])c4N([H])[H])C3([H])[H])C([H])([H])[H])C([H])([H])[H])c([H])c([H])c2C1([H])[H]

>  <smiles>  (94) 
[H]c1c([H])c([H])c2c(c1[H])C([H])([H])C([H])([H])C([H])([H])C2([H])N([H])C(=O)C1([H])N(C(=O)C([H])(N([H])C(=O)C([H])(N([H])C([H])([H])[H])C([H])([H])[H])C(C([H])([H])[H])(C([H])([H])[H])C([H])([H])[H])C([H])([H])c2c([H])c(OC([H])([H])C([H])([H])N=C(C([H])([H])[H])C([H])(C(=O)N=C(C([H])([H])[H])C([H])(C(=O)N3C([H])([H])C([H])([H])C([H])([H])C([H])(n4nc(-c5c([H])c([H])c(Oc6c([H])c([H])c(F)c([H])c6F)c([H])c5[H])c(C(=O)N([H])[H])c4N([H])[H])C3([H])[H])C([H])([H])[H])C([H])([H])[H])c([H])c([H])c2C1([H])[H]

$$$$
96:0:0
     RDKit          3D

 92 99  0  0  1  0  0  0  0  0999 V2000
  -29.8980  -20.0780   19.8180 C   0  0  0  0  0  3  0  0  0  0  0  0
  -29.3450  -21.1970   20.2620 N   0  0  0  0  0  0  0  0  0  0  0  0
  -30.3130  -19.8990   17.3130 C   0  0  0  0  0  1  0  0  0  0  0  0
  -30.9700  -20.0740   18.6920 C   0  0  0  0  0  3  0  0  0  0  0  0
  -32.0780  -19.1140   18.8870 N   0  0  0  0  0  4  0  0  0  0  0  0
  -31.7890  -18.1740   18.6840 H   0  0  0  0  0  0  0  0  0  0  0  0
  -32.4200  -19.1540   19.8340 H   0  0  0  0  0  0  0  0  0  0  0  0
  -32.8450  -19.3350   18.2730 H   0  0  0  0  0  0  0  0  0  0  0  0
  -29.3120  -18.6300   20.2080 C   0  0  0  0  0  2  0  0  0  0  0  0
  -29.8290  -16.0590   20.1810 C   0  0  0  0  0  3  0  0  0  0  0  0
  -30.1590  -17.3430   20.6110 C   0  0  0  0  0  0  0  0  0  0  0  0
  -31.3140  -17.6150   21.5750 C   0  0  0  0  0  1  0  0  0  0  0  0
  -30.6170  -14.7790   20.3110 C   0  0  0  0  0  0  0  0  0  0  0  0
  -30.3550  -12.4940   19.3640 C   0  0  0  0  0  2  0  0  0  0  0  0
  -29.4390  -12.5700   18.1240 C   0  0  0  0  0  2  0  0  0  0  0  0
  -27.9670  -12.3870   18.5460 C   0  0  0  0  0  2  0  0  0  0  0  0
  -27.5740  -13.3010   19.7390 C   0  0  0  0  0  3  0  0  0  0  0  0
  -28.6280  -13.2720   20.8610 C   0  0  0  0  0  2  0  0  0  0  0  0
  -29.9410  -13.5780   20.2740 N   0  0  0  0  0  0  0  0  0  0  0  0
  -31.8310  -14.7820   20.1060 O   0  0  0  0  0  0  0  0  0  0  0  0
  -25.1960  -13.8970   20.4850 C   0  0  0  0  0  0  0  0  0  0  0  0
  -24.1280  -13.1230   20.8580 C   0  0  0  0  0  0  0  0  0  0  0  0
  -24.5910  -11.7740   20.8350 C   0  0  0  0  0  0  0  0  0  0  0  0
  -26.2350  -13.0140   20.2460 N   0  0  0  0  0  0  0  0  0  0  0  0
  -25.8810  -11.7340   20.5230 N   0  0  0  0  0  0  0  0  0  0  0  0
  -23.8660  -10.5080   21.0290 C   0  0  0  0  0  0  0  0  0  0  0  0
  -24.2940   -9.5440   21.9700 C   0  0  0  0  0  3  0  0  0  0  0  0
  -23.5650   -8.3470   22.1530 C   0  0  0  0  0  3  0  0  0  0  0  0
  -22.3960   -8.1060   21.3960 C   0  0  0  0  0  0  0  0  0  0  0  0
  -21.9850   -9.0570   20.4480 C   0  0  0  0  0  3  0  0  0  0  0  0
  -22.7140  -10.2440   20.2610 C   0  0  0  0  0  3  0  0  0  0  0  0
  -21.6400   -6.9610   21.4870 O   0  0  0  0  0  0  0  0  0  0  0  0
  -21.5930   -6.2230   22.6420 C   0  0  0  0  0  0  0  0  0  0  0  0
  -21.1640   -6.7820   23.8670 C   0  0  0  0  0  3  0  0  0  0  0  0
  -21.0590   -5.9710   25.0160 C   0  0  0  0  0  3  0  0  0  0  0  0
  -21.3830   -4.6000   24.9420 C   0  0  0  0  0  0  0  0  0  0  0  0
  -21.8080   -4.0430   23.7220 C   0  0  0  0  0  3  0  0  0  0  0  0
  -21.9090   -4.8520   22.5780 C   0  0  0  0  0  0  0  0  0  0  0  0
  -22.3030   -4.3060   21.4010 F   0  0  0  0  0  0  0  0  0  0  0  0
  -21.2760   -3.8170   26.0400 F   0  0  0  0  0  0  0  0  0  0  0  0
  -22.7290  -13.6030   21.1260 C   0  0  0  0  0  0  0  0  0  0  0  0
  -21.9940  -12.9060   21.9860 N   0  0  0  0  0  0  0  0  0  0  0  0
  -22.2910  -14.6230   20.5950 O   0  0  0  0  0  0  0  0  0  0  0  0
  -22.3570  -12.0840   22.4480 H   0  0  0  0  0  0  0  0  0  0  0  0
  -21.0520  -13.2060   22.1930 H   0  0  0  0  0  0  0  0  0  0  0  0
  -25.3600  -15.2660   20.2990 N   0  0  0  0  0  0  0  0  0  0  0  0
  -24.6010  -15.9290   20.3920 H   0  0  0  0  0  0  0  0  0  0  0  0
  -26.2280  -15.6920   20.0060 H   0  0  0  0  0  0  0  0  0  0  0  0
  -29.4440  -22.5580   19.5780 C   0  0  0  0  0  3  0  0  0  0  0  0
  -28.9950  -23.8790   20.3890 C   0  0  0  0  0  3  0  0  0  0  0  0
  -28.6570  -25.2390   19.5700 C   0  0  0  0  0  3  0  0  0  0  0  0
  -28.4280  -26.5460   20.2640 O   0  0  0  0  0  0  0  0  0  0  0  0
  -24.6070  -31.9170   23.2410 C   0  0  0  0  0  0  0  0  0  0  0  0
  -27.2580  -27.3370   20.1900 C   0  0  0  0  0  0  0  0  0  0  0  0
  -23.4040  -30.5040   21.6070 C   0  0  0  0  0  3  0  0  0  0  0  0
  -24.8570  -28.9310   20.1990 C   0  0  0  0  0  0  0  0  0  0  0  0
  -25.9420  -30.8120   21.4280 C   0  0  0  0  0  2  0  0  0  0  0  0
  -26.0220  -29.4270   20.7950 C   0  0  0  0  0  0  0  0  0  0  0  0
  -27.2100  -28.6390   20.7910 C   0  0  0  0  0  3  0  0  0  0  0  0
  -26.0610  -26.8900   19.5760 C   0  0  0  0  0  3  0  0  0  0  0  0
  -24.8780  -27.6650   19.5890 C   0  0  0  0  0  3  0  0  0  0  0  0
  -23.6170  -29.8010   20.2370 C   0  0  0  0  0  2  0  0  0  0  0  0
  -24.6680  -31.1030   22.1440 N   0  0  0  0  0  0  0  0  0  0  0  0
  -23.5240  -32.2020   23.7700 O   0  0  0  0  0  0  0  0  0  0  0  0
  -22.7440  -29.5050   22.5860 C   0  0  0  0  0  0  0  0  0  0  0  0
  -21.4190  -29.3240   22.4490 N   0  0  0  0  0  0  0  0  0  0  0  0
  -23.4180  -28.8960   23.4200 O   0  0  0  0  0  0  0  0  0  0  0  0
  -20.9380  -29.8530   21.7350 H   0  0  0  0  0  0  0  0  0  0  0  0
  -18.0480  -28.1220   22.9570 C   0  0  0  0  0  0  0  0  0  0  0  0
  -20.6040  -28.3940   23.2280 C   0  0  0  0  0  3  0  0  0  0  0  0
  -20.7140  -26.9600   22.6650 C   0  0  0  0  0  2  0  0  0  0  0  0
  -19.6130  -26.6220   21.6520 C   0  0  0  0  0  2  0  0  0  0  0  0
  -18.2290  -26.7690   22.2890 C   0  0  0  0  0  2  0  0  0  0  0  0
  -19.1630  -28.8910   23.3820 C   0  0  0  0  0  0  0  0  0  0  0  0
  -18.9400  -30.1570   23.9650 C   0  0  0  0  0  3  0  0  0  0  0  0
  -17.6330  -30.6530   24.1340 C   0  0  0  0  0  3  0  0  0  0  0  0
  -16.5320  -29.8840   23.7190 C   0  0  0  0  0  3  0  0  0  0  0  0
  -16.7390  -28.6200   23.1380 C   0  0  0  0  0  3  0  0  0  0  0  0
  -25.8930  -32.5510   23.8610 C   0  0  0  0  0  3  0  0  0  0  0  0
  -26.4120  -31.7890   25.1420 C   0  0  1  0  0  0  0  0  0  0  0  0
  -25.3240  -31.5570   26.2130 C   0  0  0  0  0  1  0  0  0  0  0  0
  -26.9970  -30.4070   24.7620 C   0  0  0  0  0  1  0  0  0  0  0  0
  -27.5600  -32.5910   25.8020 C   0  0  0  0  0  1  0  0  0  0  0  0
  -25.5860  -33.9530   24.1820 N   0  0  0  0  0  0  0  0  0  0  0  0
  -25.9170  -35.0030   23.4210 C   0  0  0  0  0  0  0  0  0  0  0  0
  -26.5820  -34.8960   22.3860 O   0  0  0  0  0  0  0  0  0  0  0  0
  -24.9990  -34.1160   24.9880 H   0  0  0  0  0  0  0  0  0  0  0  0
  -24.1830  -36.7930   23.0670 C   0  0  0  0  0  1  0  0  0  0  0  0
  -25.4280  -36.3920   23.8740 C   0  0  0  0  0  3  0  0  0  0  0  0
  -27.5610  -37.2880   24.6970 C   0  0  0  0  0  1  0  0  0  0  0  0
  -26.4570  -37.4470   23.7520 N   0  0  0  0  0  0  0  0  0  0  0  0
  -26.0470  -38.3680   23.8880 H   0  0  0  0  0  0  0  0  0  0  0  0
  1  9  1  0
  1  2  1  0
  4  3  1  0
  4  5  1  0
  4  1  1  0
  5  7  1  0
  6  5  1  0
  8  5  1  0
  9 11  1  0
 10 13  1  0
 10 11  2  0
 11 12  1  0
 14 19  1  0
 15 16  1  0
 15 14  1  0
 17 16  1  0
 17 24  1  0
 17 18  1  0
 19 13  1  0
 19 18  1  0
 20 13  2  0
 21 22  2  0
 22 41  1  0
 23 22  1  0
 23 26  1  0
 24 21  1  0
 24 25  1  0
 25 23  2  0
 26 27  1  0
 27 28  2  0
 29 32  1  0
 29 28  1  0
 30 29  2  0
 31 30  1  0
 31 26  2  0
 32 33  1  0
 33 34  1  0
 34 35  2  0
 36 35  1  0
 36 40  1  0
 37 36  2  0
 38 33  2  0
 38 37  1  0
 39 38  1  0
 41 42  1  0
 42 45  1  0
 42 44  1  0
 43 41  2  0
 46 47  1  0
 46 21  1  0
 48 46  1  0
 49  2  2  0
 49 50  1  0
 51 52  1  0
 51 50  2  0
 53 64  2  0
 54 52  1  0
 54 59  1  0
 55 63  1  0
 55 65  1  0
 56 62  1  0
 56 58  1  0
 57 63  1  0
 58 57  1  0
 59 58  2  0
 60 61  1  0
 60 54  2  0
 61 56  2  0
 62 55  1  0
 63 53  1  0
 65 67  2  0
 66 65  1  0
 68 66  1  0
 69 78  2  0
 69 74  1  0
 70 66  1  0
 70 74  1  0
 71 70  1  0
 72 73  1  0
 72 71  1  0
 73 69  1  0
 74 75  2  0
 75 76  1  0
 77 76  2  0
 78 77  1  0
 79 53  1  0
 79 84  1  0
 79 80  1  0
 80 83  1  1
 80 81  1  0
 82 80  1  0
 84 87  1  0
 85 89  1  0
 85 84  1  0
 86 85  2  0
 89 88  1  0
 91 89  1  0
 91 92  1  0
 91 90  1  0
M  ISO  4  10 100  13 100  51 101  52 101
M  END
>  <TORSDO>  (95) 
F 23

>  <SCORE>  (95) 
-12.946

>  <name>  (95) 
96

>  <ligand_id>  (95) 
96

>  <original_smiles>  (95) 
[H]C(C(=O)N1C([H])([H])C([H])([H])C([H])([H])C([H])(n2nc(-c3c([H])c([H])c(Oc4c([H])c([H])c(F)c([H])c4F)c([H])c3[H])c(C(=O)N([H])[H])c2N([H])[H])C1([H])[H])=C(C([H])([H])[H])C([H])([H])C(=NC([H])([H])C([H])([H])C([H])([H])Oc1c([H])c([H])c2c(c1[H])C([H])([H])N(C(=O)C([H])(N([H])C(=O)C([H])(N([H])C([H])([H])[H])C([H])([H])[H])C(C([H])([H])[H])(C([H])([H])[H])C([H])([H])[H])C([H])(C(=O)N([H])C1([H])c3c([H])c([H])c([H])c([H])c3C([H])([H])C([H])([H])C1([H])[H])C2([H])[H])C([H])(C([H])([H])[H])[N+]([H])([H])[H]

>  <smiles>  (95) 
[H]C(C(=O)N1C([H])([H])C([H])([H])C([H])([H])C([H])(n2nc(-c3c([H])c([H])c(Oc4c([H])c([H])c(F)c([H])c4F)c([H])c3[H])c(C(=O)N([H])[H])c2N([H])[H])C1([H])[H])=C(C([H])([H])[H])C([H])([H])C(=NC([H])([H])C([H])([H])C([H])([H])Oc1c([H])c([H])c2c(c1[H])C([H])([H])N(C(=O)C([H])(N([H])C(=O)C([H])(N([H])C([H])([H])[H])C([H])([H])[H])C(C([H])([H])[H])(C([H])([H])[H])C([H])([H])[H])C([H])(C(=O)N([H])C1([H])c3c([H])c([H])c([H])c([H])c3C([H])([H])C([H])([H])C1([H])[H])C2([H])[H])C([H])(C([H])([H])[H])[N+]([H])([H])[H]

$$$$
97:0:0
     RDKit          3D

 90 98  0  0  1  0  0  0  0  0999 V2000
  -28.7000  -21.7600   20.0250 N   0  0  0  0  0  4  0  0  0  0  0  0
  -27.7030  -21.6210   19.9570 H   0  0  0  0  0  0  0  0  0  0  0  0
  -29.0300  -21.7430   19.0730 H   0  0  0  0  0  0  0  0  0  0  0  0
  -28.8150  -18.9300   20.0870 C   0  0  0  0  0  0  0  0  0  0  0  0
  -30.9590  -18.5760   21.1330 C   0  0  0  0  0  2  0  0  0  0  0  0
  -30.7370  -20.1310   20.8660 C   0  0  0  0  0  2  0  0  0  0  0  0
  -29.9810  -17.7790   20.2280 C   0  0  0  0  0  3  0  0  0  0  0  0
  -29.2150  -20.4050   20.7100 C   0  0  0  0  0  3  0  0  0  0  0  0
  -27.7240  -18.6990   19.5610 O   0  0  0  0  0  0  0  0  0  0  0  0
  -30.4960  -15.0340   20.3170 C   0  0  0  0  0  0  0  0  0  0  0  0
  -30.3730  -12.6750   19.3780 C   0  0  0  0  0  2  0  0  0  0  0  0
  -29.4340  -12.6260   18.1480 C   0  0  0  0  0  2  0  0  0  0  0  0
  -27.9750  -12.4080   18.5900 C   0  0  0  0  0  2  0  0  0  0  0  0
  -27.5730  -13.3290   19.7700 C   0  0  0  0  0  3  0  0  0  0  0  0
  -28.6340  -13.3470   20.8920 C   0  0  0  0  0  2  0  0  0  0  0  0
  -29.9000  -13.7690   20.2790 N   0  0  0  0  0  0  0  0  0  0  0  0
  -31.6860  -15.0940   19.9930 O   0  0  0  0  0  0  0  0  0  0  0  0
  -29.7310  -16.2260   20.5190 N   0  0  0  0  0  0  0  0  0  0  0  0
  -28.7750  -16.0320   20.7770 H   0  0  0  0  0  0  0  0  0  0  0  0
  -25.1960  -13.9010   20.5240 C   0  0  0  0  0  0  0  0  0  0  0  0
  -24.1350  -13.1230   20.8960 C   0  0  0  0  0  0  0  0  0  0  0  0
  -24.6010  -11.7730   20.8590 C   0  0  0  0  0  0  0  0  0  0  0  0
  -26.2390  -13.0250   20.2740 N   0  0  0  0  0  0  0  0  0  0  0  0
  -25.8920  -11.7400   20.5430 N   0  0  0  0  0  0  0  0  0  0  0  0
  -23.8770  -10.5100   21.0470 C   0  0  0  0  0  0  0  0  0  0  0  0
  -24.3120   -9.5380   21.9760 C   0  0  0  0  0  3  0  0  0  0  0  0
  -23.5850   -8.3410   22.1540 C   0  0  0  0  0  3  0  0  0  0  0  0
  -22.4090   -8.1060   21.4010 C   0  0  0  0  0  0  0  0  0  0  0  0
  -21.9940   -9.0660   20.4620 C   0  0  0  0  0  3  0  0  0  0  0  0
  -22.7210  -10.2540   20.2830 C   0  0  0  0  0  3  0  0  0  0  0  0
  -21.6540   -6.9610   21.4890 O   0  0  0  0  0  0  0  0  0  0  0  0
  -21.6070   -6.2160   22.6400 C   0  0  0  0  0  0  0  0  0  0  0  0
  -21.1710   -6.7650   23.8660 C   0  0  0  0  0  3  0  0  0  0  0  0
  -21.0720   -5.9460   25.0080 C   0  0  0  0  0  3  0  0  0  0  0  0
  -21.3990   -4.5790   24.9250 C   0  0  0  0  0  0  0  0  0  0  0  0
  -21.8270   -4.0300   23.7040 C   0  0  0  0  0  3  0  0  0  0  0  0
  -21.9280   -4.8460   22.5640 C   0  0  0  0  0  0  0  0  0  0  0  0
  -22.3210   -4.3060   21.3860 F   0  0  0  0  0  0  0  0  0  0  0  0
  -21.2950   -3.7900   26.0210 F   0  0  0  0  0  0  0  0  0  0  0  0
  -22.7390  -13.5980   21.1720 C   0  0  0  0  0  0  0  0  0  0  0  0
  -22.0130  -12.8990   22.0380 N   0  0  0  0  0  0  0  0  0  0  0  0
  -22.3010  -14.6260   20.6570 O   0  0  0  0  0  0  0  0  0  0  0  0
  -22.3810  -12.0680   22.4760 H   0  0  0  0  0  0  0  0  0  0  0  0
  -21.0770  -13.2000   22.2670 H   0  0  0  0  0  0  0  0  0  0  0  0
  -25.3550  -15.2720   20.3470 N   0  0  0  0  0  0  0  0  0  0  0  0
  -24.5790  -15.9180   20.4540 H   0  0  0  0  0  0  0  0  0  0  0  0
  -26.1830  -15.7140   19.9680 H   0  0  0  0  0  0  0  0  0  0  0  0
  -28.8950  -23.2550   20.5780 C   0  0  0  0  0  3  0  0  0  0  0  0
  -28.0150  -24.6160   20.0310 C   0  0  0  0  0  3  0  0  0  0  0  0
  -28.2300  -26.1480   20.3320 O   0  0  0  0  0  0  0  0  0  0  0  0
  -24.6220  -31.9020   23.2510 C   0  0  0  0  0  0  0  0  0  0  0  0
  -27.1850  -27.1520   20.2350 C   0  0  0  0  0  0  0  0  0  0  0  0
  -23.4200  -30.5080   21.6130 C   0  0  0  0  0  3  0  0  0  0  0  0
  -24.8660  -28.9240   20.1900 C   0  0  0  0  0  0  0  0  0  0  0  0
  -25.9770  -30.7570   21.4550 C   0  0  0  0  0  2  0  0  0  0  0  0
  -26.0460  -29.3610   20.8040 C   0  0  0  0  0  0  0  0  0  0  0  0
  -27.2040  -28.4910   20.8100 C   0  0  0  0  0  3  0  0  0  0  0  0
  -25.9810  -26.8280   19.5690 C   0  0  0  0  0  3  0  0  0  0  0  0
  -24.8490  -27.6720   19.5550 C   0  0  0  0  0  3  0  0  0  0  0  0
  -23.6430  -29.8280   20.2350 C   0  0  0  0  0  2  0  0  0  0  0  0
  -24.6940  -31.0790   22.1610 N   0  0  0  0  0  0  0  0  0  0  0  0
  -23.5360  -32.1930   23.7770 O   0  0  0  0  0  0  0  0  0  0  0  0
  -22.7350  -29.5060   22.5760 C   0  0  0  0  0  0  0  0  0  0  0  0
  -21.4070  -29.3400   22.4470 N   0  0  0  0  0  0  0  0  0  0  0  0
  -23.4020  -28.8810   23.4040 O   0  0  0  0  0  0  0  0  0  0  0  0
  -20.9250  -29.8960   21.7540 H   0  0  0  0  0  0  0  0  0  0  0  0
  -18.0210  -28.1510   22.9450 C   0  0  0  0  0  0  0  0  0  0  0  0
  -20.5800  -28.4070   23.2180 C   0  0  0  0  0  3  0  0  0  0  0  0
  -20.6790  -26.9730   22.6470 C   0  0  0  0  0  2  0  0  0  0  0  0
  -19.5780  -26.6520   21.6310 C   0  0  0  0  0  2  0  0  0  0  0  0
  -18.1960  -26.8010   22.2710 C   0  0  0  0  0  2  0  0  0  0  0  0
  -19.1410  -28.9130   23.3750 C   0  0  0  0  0  0  0  0  0  0  0  0
  -18.9220  -30.1750   23.9680 C   0  0  0  0  0  3  0  0  0  0  0  0
  -17.6180  -30.6780   24.1330 C   0  0  0  0  0  3  0  0  0  0  0  0
  -16.5130  -29.9140   23.7180 C   0  0  0  0  0  3  0  0  0  0  0  0
  -16.7150  -28.6530   23.1300 C   0  0  0  0  0  3  0  0  0  0  0  0
  -25.9010  -32.5370   23.8800 C   0  0  0  0  0  3  0  0  0  0  0  0
  -26.4010  -31.7730   25.1690 C   0  0  1  0  0  0  0  0  0  0  0  0
  -25.2970  -31.5520   26.2300 C   0  0  0  0  0  1  0  0  0  0  0  0
  -26.9790  -30.3880   24.7990 C   0  0  0  0  0  1  0  0  0  0  0  0
  -27.5510  -32.5660   25.8330 C   0  0  0  0  0  1  0  0  0  0  0  0
  -25.5940  -33.9390   24.2040 N   0  0  0  0  0  0  0  0  0  0  0  0
  -25.9220  -34.9900   23.4410 C   0  0  0  0  0  0  0  0  0  0  0  0
  -26.5820  -34.8810   22.4040 O   0  0  0  0  0  0  0  0  0  0  0  0
  -25.0060  -34.0970   25.0090 H   0  0  0  0  0  0  0  0  0  0  0  0
  -24.1920  -36.7890   23.1080 C   0  0  0  0  0  1  0  0  0  0  0  0
  -25.4470  -36.3830   23.9000 C   0  0  0  0  0  3  0  0  0  0  0  0
  -27.5940  -37.2720   24.6950 C   0  0  0  0  0  1  0  0  0  0  0  0
  -26.4790  -37.4340   23.7650 N   0  0  0  0  0  0  0  0  0  0  0  0
  -26.0760  -38.3560   23.9100 H   0  0  0  0  0  0  0  0  0  0  0  0
  1 48  1  0
  2  1  1  0
  3  1  1  0
  4  7  1  0
  4  8  1  0
  6  5  1  0
  7 18  1  0
  7  5  1  0
  8  1  1  0
  8  6  1  0
  9  4  2  0
 10 18  1  0
 11 16  1  0
 12 13  1  0
 12 11  1  0
 14 13  1  0
 14 23  1  0
 14 15  1  0
 16 10  1  0
 16 15  1  0
 17 10  2  0
 18 19  1  0
 20 21  2  0
 21 40  1  0
 22 21  1  0
 22 25  1  0
 23 20  1  0
 23 24  1  0
 24 22  2  0
 25 26  1  0
 26 27  2  0
 28 31  1  0
 28 27  1  0
 29 28  2  0
 30 29  1  0
 30 25  2  0
 31 32  1  0
 32 33  1  0
 33 34  2  0
 35 34  1  0
 35 39  1  0
 36 35  2  0
 37 32  2  0
 37 36  1  0
 38 37  1  0
 40 41  1  0
 41 44  1  0
 41 43  1  0
 42 40  2  0
 45 46  1  0
 45 20  1  0
 47 45  1  0
 49 50  1  0
 49 48  2  0
 51 62  2  0
 52 50  1  0
 52 57  1  0
 53 61  1  0
 53 63  1  0
 54 60  1  0
 54 56  1  0
 55 61  1  0
 56 57  2  0
 56 55  1  0
 58 52  2  0
 59 58  1  0
 59 54  2  0
 60 53  1  0
 61 51  1  0
 63 65  2  0
 64 63  1  0
 66 64  1  0
 67 76  2  0
 67 72  1  0
 68 64  1  0
 68 72  1  0
 69 68  1  0
 70 71  1  0
 70 69  1  0
 71 67  1  0
 72 73  2  0
 73 74  1  0
 75 74  2  0
 76 75  1  0
 77 51  1  0
 77 82  1  0
 77 78  1  0
 78 81  1  1
 78 79  1  0
 80 78  1  0
 82 85  1  0
 83 87  1  0
 83 82  1  0
 84 83  2  0
 87 86  1  0
 89 87  1  0
 89 90  1  0
 89 88  1  0
M  ISO  4  10 100  18 100  49 101  50 101
M  END
>  <TORSDO>  (96) 
F 19

>  <SCORE>  (96) 
-15.156

>  <name>  (96) 
97

>  <ligand_id>  (96) 
97

>  <original_smiles>  (96) 
[H]c1c([H])c([H])c2c(c1[H])C([H])([H])C([H])([H])C([H])([H])C2([H])N([H])C(=O)C1([H])N(C(=O)C([H])(N([H])C(=O)C([H])(N([H])C([H])([H])[H])C([H])([H])[H])C(C([H])([H])[H])(C([H])([H])[H])C([H])([H])[H])C([H])([H])c2c([H])c(OC([H])([H])C([H])([H])[N+]([H])([H])C3([H])C(=O)C([H])(N([H])C(=O)N4C([H])([H])C([H])([H])C([H])([H])C([H])(n5nc(-c6c([H])c([H])c(Oc7c([H])c([H])c(F)c([H])c7F)c([H])c6[H])c(C(=O)N([H])[H])c5N([H])[H])C4([H])[H])C([H])([H])C3([H])[H])c([H])c([H])c2C1([H])[H]

>  <smiles>  (96) 
[H]c1c([H])c([H])c2c(c1[H])C([H])([H])C([H])([H])C([H])([H])C2([H])N([H])C(=O)C1([H])N(C(=O)C([H])(N([H])C(=O)C([H])(N([H])C([H])([H])[H])C([H])([H])[H])C(C([H])([H])[H])(C([H])([H])[H])C([H])([H])[H])C([H])([H])c2c([H])c(OC([H])([H])C([H])([H])[N+]([H])([H])C3([H])C(=O)C([H])(N([H])C(=O)N4C([H])([H])C([H])([H])C([H])([H])C([H])(n5nc(-c6c([H])c([H])c(Oc7c([H])c([H])c(F)c([H])c7F)c([H])c6[H])c(C(=O)N([H])[H])c5N([H])[H])C4([H])[H])C([H])([H])C3([H])[H])c([H])c([H])c2C1([H])[H]

$$$$
98:0:0
     RDKit          3D

 95102  0  0  1  0  0  0  0  0999 V2000
  -30.1500  -22.4730   20.1440 C   0  0  0  0  0  2  0  0  0  0  0  0
  -30.4030  -21.1690   20.8030 N   0  0  0  0  0  4  0  0  0  0  0  0
  -29.5200  -20.7460   21.0430 H   0  0  0  0  0  0  0  0  0  0  0  0
  -30.8790  -21.3190   21.6770 H   0  0  0  0  0  0  0  0  0  0  0  0
  -32.6220  -20.5260   19.8140 C   0  0  0  0  0  1  0  0  0  0  0  0
  -31.1490  -20.1200   20.0690 C   0  0  0  0  0  3  0  0  0  0  0  0
  -31.0710  -18.8250   20.9060 C   0  0  0  0  0  0  0  0  0  0  0  0
  -31.7280  -17.7360   20.4830 N   0  0  0  0  0  0  0  0  0  0  0  0
  -30.4210  -18.8210   21.9570 O   0  0  0  0  0  0  0  0  0  0  0  0
  -32.2380  -17.7960   19.6110 H   0  0  0  0  0  0  0  0  0  0  0  0
  -31.8900  -16.5060   21.2680 C   0  0  0  0  0  2  0  0  0  0  0  0
  -30.8090  -15.4340   20.9930 C   0  0  0  0  0  2  0  0  0  0  0  0
  -31.1610  -14.4140   19.8990 C   0  0  0  0  0  0  0  0  0  0  0  0
  -30.7200  -12.2420   18.8000 C   0  0  0  0  0  2  0  0  0  0  0  0
  -29.6910  -12.3820   17.6660 C   0  0  0  0  0  2  0  0  0  0  0  0
  -28.2550  -12.2740   18.2130 C   0  0  0  0  0  2  0  0  0  0  0  0
  -28.0150  -13.1930   19.4400 C   0  0  0  0  0  3  0  0  0  0  0  0
  -29.1460  -13.0270   20.4800 C   0  0  0  0  0  2  0  0  0  0  0  0
  -30.4320  -13.2720   19.8070 N   0  0  0  0  0  0  0  0  0  0  0  0
  -32.1150  -14.6490   19.1480 O   0  0  0  0  0  0  0  0  0  0  0  0
  -25.7340  -13.8750   20.4240 C   0  0  0  0  0  0  0  0  0  0  0  0
  -24.6590  -13.1350   20.8390 C   0  0  0  0  0  0  0  0  0  0  0  0
  -25.0310  -11.7680   20.6630 C   0  0  0  0  0  0  0  0  0  0  0  0
  -26.6980  -12.9590   20.0280 N   0  0  0  0  0  0  0  0  0  0  0  0
  -26.2810  -11.6830   20.2260 N   0  0  0  0  0  0  0  0  0  0  0  0
  -24.2500  -10.5360   20.8330 C   0  0  0  0  0  0  0  0  0  0  0  0
  -24.5860   -9.5780   21.8160 C   0  0  0  0  0  3  0  0  0  0  0  0
  -23.8110   -8.4090   21.9710 C   0  0  0  0  0  3  0  0  0  0  0  0
  -22.6850   -8.1890   21.1430 C   0  0  0  0  0  0  0  0  0  0  0  0
  -22.3670   -9.1330   20.1510 C   0  0  0  0  0  3  0  0  0  0  0  0
  -23.1430  -10.2960   19.9950 C   0  0  0  0  0  3  0  0  0  0  0  0
  -21.8880   -7.0710   21.2060 O   0  0  0  0  0  0  0  0  0  0  0  0
  -21.6040   -6.4580   22.3990 C   0  0  0  0  0  0  0  0  0  0  0  0
  -20.8980   -7.1200   23.4270 C   0  0  0  0  0  3  0  0  0  0  0  0
  -20.5630   -6.4290   24.6100 C   0  0  0  0  0  3  0  0  0  0  0  0
  -20.9230   -5.0760   24.7610 C   0  0  0  0  0  0  0  0  0  0  0  0
  -21.6200   -4.4130   23.7340 C   0  0  0  0  0  3  0  0  0  0  0  0
  -21.9540   -5.1010   22.5560 C   0  0  0  0  0  0  0  0  0  0  0  0
  -22.6070   -4.4520   21.5610 F   0  0  0  0  0  0  0  0  0  0  0  0
  -20.5940   -4.4090   25.8920 F   0  0  0  0  0  0  0  0  0  0  0  0
  -23.3250  -13.6630   21.2850 C   0  0  0  0  0  0  0  0  0  0  0  0
  -22.6360  -12.9320   22.1550 N   0  0  0  0  0  0  0  0  0  0  0  0
  -22.9090  -14.7560   20.9020 O   0  0  0  0  0  0  0  0  0  0  0  0
  -22.9860  -12.0440   22.4850 H   0  0  0  0  0  0  0  0  0  0  0  0
  -21.7440  -13.2630   22.4940 H   0  0  0  0  0  0  0  0  0  0  0  0
  -25.9640  -15.2450   20.3290 N   0  0  0  0  0  0  0  0  0  0  0  0
  -25.2580  -15.9320   20.5650 H   0  0  0  0  0  0  0  0  0  0  0  0
  -26.8120  -15.6570   19.9600 H   0  0  0  0  0  0  0  0  0  0  0  0
  -29.4020  -23.4210   21.1190 C   0  0  0  0  0  3  0  0  0  0  0  0
  -27.5930  -22.3280   22.3600 C   0  0  0  0  0  1  0  0  0  0  0  0
  -27.9700  -23.1080   21.1860 N   0  0  0  0  0  0  0  0  0  0  0  0
  -27.6010  -22.7080   20.3250 H   0  0  0  0  0  0  0  0  0  0  0  0
  -29.5890  -24.9360   20.8300 C   0  0  0  0  0  2  0  0  0  0  0  0
  -28.8080  -25.5320   19.6390 C   0  0  0  0  0  2  0  0  0  0  0  0
  -28.8360  -26.9690   19.7100 O   0  0  0  0  0  0  0  0  0  0  0  0
  -24.6510  -31.5840   23.1370 C   0  0  0  0  0  0  0  0  0  0  0  0
  -27.6170  -27.6160   19.7290 C   0  0  0  0  0  0  0  0  0  0  0  0
  -23.5580  -30.2510   21.3640 C   0  0  0  0  0  3  0  0  0  0  0  0
  -25.1280  -28.9550   19.8280 C   0  0  0  0  0  0  0  0  0  0  0  0
  -26.0550  -30.7950   21.2390 C   0  0  0  0  0  2  0  0  0  0  0  0
  -26.2400  -29.5000   20.4790 C   0  0  0  0  0  0  0  0  0  0  0  0
  -27.4880  -28.8370   20.4270 C   0  0  0  0  0  3  0  0  0  0  0  0
  -26.4900  -27.0970   19.0520 C   0  0  0  0  0  3  0  0  0  0  0  0
  -25.2470  -27.7530   19.1080 C   0  0  0  0  0  3  0  0  0  0  0  0
  -23.8270  -29.7180   19.9320 C   0  0  0  0  0  2  0  0  0  0  0  0
  -24.7720  -30.8870   21.9720 N   0  0  0  0  0  0  0  0  0  0  0  0
  -23.5490  -31.7350   23.6830 O   0  0  0  0  0  0  0  0  0  0  0  0
  -22.9760  -29.1050   22.2200 C   0  0  0  0  0  0  0  0  0  0  0  0
  -21.6640  -28.8550   22.0690 N   0  0  0  0  0  0  0  0  0  0  0  0
  -23.6980  -28.4500   22.9750 O   0  0  0  0  0  0  0  0  0  0  0  0
  -21.1390  -29.4440   21.4380 H   0  0  0  0  0  0  0  0  0  0  0  0
  -18.3580  -27.4610   22.4850 C   0  0  0  0  0  0  0  0  0  0  0  0
  -20.9060  -27.8020   22.7440 C   0  0  0  0  0  3  0  0  0  0  0  0
  -21.0610  -26.4490   22.0130 C   0  0  0  0  0  2  0  0  0  0  0  0
  -19.9540  -26.1880   20.9880 C   0  0  0  0  0  2  0  0  0  0  0  0
  -18.5790  -26.2010   21.6640 C   0  0  0  0  0  2  0  0  0  0  0  0
  -19.4510  -28.2200   22.9800 C   0  0  0  0  0  0  0  0  0  0  0  0
  -19.1910  -29.4030   23.7060 C   0  0  0  0  0  3  0  0  0  0  0  0
  -17.8680  -29.8240   23.9460 C   0  0  0  0  0  3  0  0  0  0  0  0
  -16.7900  -29.0590   23.4700 C   0  0  0  0  0  3  0  0  0  0  0  0
  -17.0350  -27.8800   22.7430 C   0  0  0  0  0  3  0  0  0  0  0  0
  -25.8850  -32.2460   23.8260 C   0  0  0  0  0  3  0  0  0  0  0  0
  -26.3920  -31.4470   25.0910 C   0  0  1  0  0  0  0  0  0  0  0  0
  -25.2720  -31.1120   26.1040 C   0  0  0  0  0  1  0  0  0  0  0  0
  -27.0590  -30.1180   24.6670 C   0  0  0  0  0  1  0  0  0  0  0  0
  -27.4750  -32.2690   25.8300 C   0  0  0  0  0  1  0  0  0  0  0  0
  -25.5030  -33.6150   24.1930 N   0  0  0  0  0  0  0  0  0  0  0  0
  -25.7890  -34.7030   23.4630 C   0  0  0  0  0  0  0  0  0  0  0  0
  -26.4730  -34.6620   22.4380 O   0  0  0  0  0  0  0  0  0  0  0  0
  -24.8980  -33.7170   24.9950 H   0  0  0  0  0  0  0  0  0  0  0  0
  -23.9690  -36.4070   23.1520 C   0  0  0  0  0  1  0  0  0  0  0  0
  -25.2290  -36.0510   23.9540 C   0  0  0  0  0  3  0  0  0  0  0  0
  -27.3030  -37.0430   24.8190 C   0  0  0  0  0  1  0  0  0  0  0  0
  -26.2050  -37.1590   23.8630 N   0  0  0  0  0  0  0  0  0  0  0  0
  -25.7470  -38.0530   24.0190 H   0  0  0  0  0  0  0  0  0  0  0  0
  1  2  1  0
  2  3  1  0
  2  4  1  0
  6  5  1  0
  6  2  1  0
  6  7  1  0
  7  9  2  0
  8  7  1  0
  8 11  1  0
 10  8  1  0
 12 11  1  0
 13 12  1  0
 14 19  1  0
 15 16  1  0
 15 14  1  0
 17 16  1  0
 17 24  1  0
 17 18  1  0
 19 13  1  0
 19 18  1  0
 20 13  2  0
 21 22  2  0
 22 41  1  0
 23 26  1  0
 23 22  1  0
 24 25  1  0
 24 21  1  0
 25 23  2  0
 26 27  1  0
 27 28  2  0
 29 32  1  0
 29 28  1  0
 30 29  2  0
 31 30  1  0
 31 26  2  0
 32 33  1  0
 33 38  2  0
 33 34  1  0
 34 35  2  0
 35 36  1  0
 36 40  1  0
 37 36  2  0
 38 37  1  0
 39 38  1  0
 41 42  1  0
 42 44  1  0
 42 45  1  0
 43 41  2  0
 46 21  1  0
 46 47  1  0
 48 46  1  0
 49  1  1  0
 49 51  1  0
 51 50  1  0
 52 51  1  0
 53 49  1  0
 54 55  1  0
 54 53  1  0
 55 57  1  0
 56 67  2  0
 57 62  1  0
 58 66  1  0
 58 68  1  0
 59 65  1  0
 59 61  1  0
 60 66  1  0
 61 60  1  0
 62 61  2  0
 63 64  1  0
 63 57  2  0
 64 59  2  0
 65 58  1  0
 66 56  1  0
 68 70  2  0
 69 68  1  0
 71 69  1  0
 72 81  2  0
 72 77  1  0
 73 69  1  0
 73 77  1  0
 74 73  1  0
 75 76  1  0
 75 74  1  0
 76 72  1  0
 77 78  2  0
 78 79  1  0
 80 79  2  0
 81 80  1  0
 82 56  1  0
 82 87  1  0
 82 83  1  0
 83 86  1  1
 83 84  1  0
 85 83  1  0
 87 90  1  0
 88 92  1  0
 88 87  1  0
 89 88  2  0
 92 91  1  0
 94 92  1  0
 94 95  1  0
 94 93  1  0
M  ISO  4  12 100  13 100  54 101  55 101
M  END
>  <TORSDO>  (97) 
F 25

>  <SCORE>  (97) 
-9.780

>  <name>  (97) 
98

>  <ligand_id>  (97) 
98

>  <original_smiles>  (97) 
[H]c1c([H])c([H])c2c(c1[H])C([H])([H])C([H])([H])C([H])([H])C2([H])N([H])C(=O)C1([H])N(C(=O)C([H])(N([H])C(=O)C([H])(N([H])C([H])([H])[H])C([H])([H])[H])C(C([H])([H])[H])(C([H])([H])[H])C([H])([H])[H])C([H])([H])c2c([H])c(OC([H])([H])C([H])([H])C([H])(N([H])C([H])([H])[H])C([H])([H])[N+]([H])([H])C([H])(C(=O)N([H])C([H])([H])C([H])([H])C(=O)N3C([H])([H])C([H])([H])C([H])([H])C([H])(n4nc(-c5c([H])c([H])c(Oc6c([H])c([H])c(F)c([H])c6F)c([H])c5[H])c(C(=O)N([H])[H])c4N([H])[H])C3([H])[H])C([H])([H])[H])c([H])c([H])c2C1([H])[H]

>  <smiles>  (97) 
[H]c1c([H])c([H])c2c(c1[H])C([H])([H])C([H])([H])C([H])([H])C2([H])N([H])C(=O)C1([H])N(C(=O)C([H])(N([H])C(=O)C([H])(N([H])C([H])([H])[H])C([H])([H])[H])C(C([H])([H])[H])(C([H])([H])[H])C([H])([H])[H])C([H])([H])c2c([H])c(OC([H])([H])C([H])([H])C([H])(N([H])C([H])([H])[H])C([H])([H])[N+]([H])([H])C([H])(C(=O)N([H])C([H])([H])C([H])([H])C(=O)N3C([H])([H])C([H])([H])C([H])([H])C([H])(n4nc(-c5c([H])c([H])c(Oc6c([H])c([H])c(F)c([H])c6F)c([H])c5[H])c(C(=O)N([H])[H])c4N([H])[H])C3([H])[H])C([H])([H])[H])c([H])c([H])c2C1([H])[H]

$$$$
