0:0:0
     RDKit          3D

 88 97  0  0  1  0  0  0  0  0999 V2000
  -29.6230  -19.2740   20.1070 C   0  0  0  0  0  0  0  0  0  0  0  0
  -28.9410  -20.5700   20.5470 C   0  0  0  0  0  3  0  0  0  0  0  0
  -32.7750  -18.4710   18.3670 C   0  0  0  0  0  2  0  0  0  0  0  0
  -32.0910  -19.2900   19.4650 C   0  0  0  0  0  2  0  0  0  0  0  0
  -31.6580  -17.8230   17.5250 C   0  0  0  0  0  2  0  0  0  0  0  0
  -29.2530  -17.4910   18.5360 C   0  0  0  0  0  2  0  0  0  0  0  0
  -29.4180  -17.4280   20.0760 C   0  0  0  0  0  3  0  0  0  0  0  0
  -30.6420  -19.5020   19.0190 C   0  0  0  0  0  3  0  0  0  0  0  0
  -30.3190  -18.4630   17.9450 C   0  0  0  0  0  3  0  0  0  0  0  0
  -30.2590  -15.7450   20.1850 C   0  0  0  0  0  0  0  0  0  0  0  0
  -30.3420  -13.1990   19.3860 C   0  0  0  0  0  2  0  0  0  0  0  0
  -29.4320  -12.8550   18.1750 C   0  0  0  0  0  2  0  0  0  0  0  0
  -28.0340  -12.4510   18.6650 C   0  0  0  0  0  2  0  0  0  0  0  0
  -27.5200  -13.4440   19.7270 C   0  0  0  0  0  3  0  0  0  0  0  0
  -28.5630  -13.7610   20.8240 C   0  0  0  0  0  2  0  0  0  0  0  0
  -29.7500  -14.3690   20.1670 N   0  0  0  0  0  0  0  0  0  0  0  0
  -31.4950  -15.6670   20.0440 O   0  0  0  0  0  0  0  0  0  0  0  0
  -25.1700  -13.9380   20.5540 C   0  0  0  0  0  0  0  0  0  0  0  0
  -24.1220  -13.1450   20.9210 C   0  0  0  0  0  0  0  0  0  0  0  0
  -24.5980  -11.7990   20.8460 C   0  0  0  0  0  0  0  0  0  0  0  0
  -26.2160  -13.0820   20.2700 N   0  0  0  0  0  0  0  0  0  0  0  0
  -25.8850  -11.7810   20.5070 N   0  0  0  0  0  0  0  0  0  0  0  0
  -23.8780  -10.5280   21.0210 C   0  0  0  0  0  0  0  0  0  0  0  0
  -24.3170   -9.5500   21.9420 C   0  0  0  0  0  3  0  0  0  0  0  0
  -23.5920   -8.3500   22.1100 C   0  0  0  0  0  3  0  0  0  0  0  0
  -22.4150   -8.1160   21.3570 C   0  0  0  0  0  0  0  0  0  0  0  0
  -21.9950   -9.0850   20.4300 C   0  0  0  0  0  3  0  0  0  0  0  0
  -22.7190  -10.2780   20.2600 C   0  0  0  0  0  3  0  0  0  0  0  0
  -21.6630   -6.9690   21.4340 O   0  0  0  0  0  0  0  0  0  0  0  0
  -21.6050   -6.2230   22.5840 C   0  0  0  0  0  0  0  0  0  0  0  0
  -21.1260   -6.7630   23.7980 C   0  0  0  0  0  3  0  0  0  0  0  0
  -21.0130   -5.9430   24.9380 C   0  0  0  0  0  3  0  0  0  0  0  0
  -21.3710   -4.5820   24.8660 C   0  0  0  0  0  0  0  0  0  0  0  0
  -21.8480   -4.0430   23.6590 C   0  0  0  0  0  3  0  0  0  0  0  0
  -21.9590   -4.8610   22.5200 C   0  0  0  0  0  0  0  0  0  0  0  0
  -22.3910   -4.3320   21.3510 F   0  0  0  0  0  0  0  0  0  0  0  0
  -21.2600   -3.7940   25.9580 F   0  0  0  0  0  0  0  0  0  0  0  0
  -22.7260  -13.6030   21.2260 C   0  0  0  0  0  0  0  0  0  0  0  0
  -22.0230  -12.8850   22.0910 N   0  0  0  0  0  0  0  0  0  0  0  0
  -22.2700  -14.6350   20.7340 O   0  0  0  0  0  0  0  0  0  0  0  0
  -22.4100  -12.0570   22.5160 H   0  0  0  0  0  0  0  0  0  0  0  0
  -21.0850  -13.1660   22.3360 H   0  0  0  0  0  0  0  0  0  0  0  0
  -25.3160  -15.3160   20.4040 N   0  0  0  0  0  0  0  0  0  0  0  0
  -24.5500  -15.9600   20.5620 H   0  0  0  0  0  0  0  0  0  0  0  0
  -26.1520  -15.7740   20.0650 H   0  0  0  0  0  0  0  0  0  0  0  0
  -29.0970  -22.4010   20.3700 C   0  0  0  0  0  3  0  0  0  0  0  0
  -28.0330  -23.9930   20.4050 C   0  0  0  0  0  3  0  0  0  0  0  0
  -28.2030  -25.7200   20.4160 O   0  0  0  0  0  0  0  0  0  0  0  0
  -24.6210  -31.9240   23.2950 C   0  0  0  0  0  0  0  0  0  0  0  0
  -27.1960  -26.8830   20.3650 C   0  0  0  0  0  0  0  0  0  0  0  0
  -23.4400  -30.5050   21.6680 C   0  0  0  0  0  3  0  0  0  0  0  0
  -24.9010  -28.8560   20.2820 C   0  0  0  0  0  0  0  0  0  0  0  0
  -26.0160  -30.6780   21.5440 C   0  0  0  0  0  2  0  0  0  0  0  0
  -26.0920  -29.2450   20.9070 C   0  0  0  0  0  0  0  0  0  0  0  0
  -27.2290  -28.2870   20.9120 C   0  0  0  0  0  3  0  0  0  0  0  0
  -25.9630  -26.6830   19.6990 C   0  0  0  0  0  3  0  0  0  0  0  0
  -24.8680  -27.5970   19.6580 C   0  0  0  0  0  3  0  0  0  0  0  0
  -23.6860  -29.7930   20.3080 C   0  0  0  0  0  2  0  0  0  0  0  0
  -24.7160  -31.0680   22.2210 N   0  0  0  0  0  0  0  0  0  0  0  0
  -23.5260  -32.2220   23.8040 O   0  0  0  0  0  0  0  0  0  0  0  0
  -22.7210  -29.5340   22.6450 C   0  0  0  0  0  0  0  0  0  0  0  0
  -21.3940  -29.3630   22.4990 N   0  0  0  0  0  0  0  0  0  0  0  0
  -23.3700  -28.9310   23.5040 O   0  0  0  0  0  0  0  0  0  0  0  0
  -20.9210  -29.8970   21.7830 H   0  0  0  0  0  0  0  0  0  0  0  0
  -18.0150  -28.1170   22.9720 C   0  0  0  0  0  0  0  0  0  0  0  0
  -20.5670  -28.4360   23.2800 C   0  0  0  0  0  3  0  0  0  0  0  0
  -20.7020  -26.9890   22.7470 C   0  0  0  0  0  2  0  0  0  0  0  0
  -19.6290  -26.6240   21.7170 C   0  0  0  0  0  2  0  0  0  0  0  0
  -18.2310  -26.7590   22.3290 C   0  0  0  0  0  2  0  0  0  0  0  0
  -19.1110  -28.9110   23.4040 C   0  0  0  0  0  0  0  0  0  0  0  0
  -18.8550  -30.1770   23.9730 C   0  0  0  0  0  3  0  0  0  0  0  0
  -17.5370  -30.6530   24.1080 C   0  0  0  0  0  3  0  0  0  0  0  0
  -16.4560  -29.8600   23.6900 C   0  0  0  0  0  3  0  0  0  0  0  0
  -16.6960  -28.5910   23.1290 C   0  0  0  0  0  3  0  0  0  0  0  0
  -25.8860  -32.5750   23.9340 C   0  0  0  0  0  3  0  0  0  0  0  0
  -25.5720  -33.9850   24.2460 N   0  0  0  0  0  0  0  0  0  0  0  0
  -25.9000  -35.0320   23.4770 C   0  0  0  0  0  0  0  0  0  0  0  0
  -26.5590  -34.9160   22.4410 O   0  0  0  0  0  0  0  0  0  0  0  0
  -24.9890  -34.1530   25.0520 H   0  0  0  0  0  0  0  0  0  0  0  0
  -24.1700  -36.8310   23.1340 C   0  0  0  0  0  1  0  0  0  0  0  0
  -25.4260  -36.4310   23.9250 C   0  0  0  0  0  3  0  0  0  0  0  0
  -27.5730  -37.3280   24.7120 C   0  0  0  0  0  1  0  0  0  0  0  0
  -26.4590  -37.4810   23.7790 N   0  0  0  0  0  0  0  0  0  0  0  0
  -26.0570  -38.4010   23.9240 H   0  0  0  0  0  0  0  0  0  0  0  0
  -26.3760  -31.8340   25.2410 C   0  0  1  0  0  0  0  0  0  0  0  0
  -25.2590  -31.6310   26.2890 C   0  0  0  0  0  1  0  0  0  0  0  0
  -26.9560  -30.4420   24.9030 C   0  0  0  0  0  1  0  0  0  0  0  0
  -27.5210  -32.6370   25.9050 C   0  0  0  0  0  1  0  0  0  0  0  0
  1  2  2  0
  3  4  1  0
  5  3  1  0
  6  7  1  0
  7  1  1  0
  7 10  1  0
  8  4  1  0
  8  1  1  0
  9  5  1  0
  9  6  1  0
  9  8  1  0
 11 16  1  0
 12 13  1  0
 12 11  1  0
 14 13  1  0
 14 21  1  0
 14 15  1  0
 16 10  1  0
 16 15  1  0
 17 10  2  0
 18 19  2  0
 19 38  1  0
 20 19  1  0
 20 23  1  0
 21 22  1  0
 21 18  1  0
 22 20  2  0
 23 24  1  0
 24 25  2  0
 26 29  1  0
 26 25  1  0
 27 26  2  0
 28 27  1  0
 28 23  2  0
 29 30  1  0
 30 31  1  0
 31 32  2  0
 33 32  1  0
 33 37  1  0
 34 33  2  0
 35 30  2  0
 35 34  1  0
 36 35  1  0
 38 39  1  0
 39 42  1  0
 39 41  1  0
 40 38  2  0
 43 18  1  0
 43 44  1  0
 45 43  1  0
 46 47  2  0
 46  2  1  0
 47 48  1  0
 49 60  2  0
 50 48  1  0
 50 55  1  0
 51 59  1  0
 51 61  1  0
 52 58  1  0
 52 54  1  0
 53 59  1  0
 54 55  2  0
 54 53  1  0
 56 50  2  0
 57 56  1  0
 57 52  2  0
 58 51  1  0
 59 49  1  0
 61 63  2  0
 62 61  1  0
 64 62  1  0
 65 74  2  0
 65 70  1  0
 66 62  1  0
 66 70  1  0
 67 66  1  0
 68 69  1  0
 68 67  1  0
 69 65  1  0
 70 71  2  0
 71 72  1  0
 73 72  2  0
 74 73  1  0
 75 49  1  0
 75 76  1  0
 75 85  1  0
 76 79  1  0
 77 81  1  0
 77 76  1  0
 78 77  2  0
 81 80  1  0
 83 84  1  0
 83 81  1  0
 83 82  1  0
 85 88  1  1
 85 86  1  0
 87 85  1  0
M  ISO  4   7 100  10 100  47 101  48 101
M  END
>  <TORSDO>  (1) 
F 18

>  <SCORE>  (1) 
-16.606

>  <name>  (1) 
0

>  <ligand_id>  (1) 
0

>  <original_smiles>  (1) 
[H]C(=C1C([H])(C(=O)N2C([H])([H])C([H])([H])C([H])([H])C([H])(n3nc(-c4c([H])c([H])c(Oc5c([H])c([H])c(F)c([H])c5F)c([H])c4[H])c(C(=O)N([H])[H])c3N([H])[H])C2([H])[H])C([H])([H])C2([H])C([H])([H])C([H])([H])C([H])([H])C12[H])C([H])([H])C([H])([H])Oc1c([H])c([H])c2c(c1[H])C([H])([H])N(C(=O)C([H])(N([H])C(=O)C([H])(N([H])C([H])([H])[H])C([H])([H])[H])C(C([H])([H])[H])(C([H])([H])[H])C([H])([H])[H])C([H])(C(=O)N([H])C1([H])c3c([H])c([H])c([H])c([H])c3C([H])([H])C([H])([H])C1([H])[H])C2([H])[H]

>  <smiles>  (1) 
[H]C(=C1C([H])(C(=O)N2C([H])([H])C([H])([H])C([H])([H])C([H])(n3nc(-c4c([H])c([H])c(Oc5c([H])c([H])c(F)c([H])c5F)c([H])c4[H])c(C(=O)N([H])[H])c3N([H])[H])C2([H])[H])C([H])([H])C2([H])C([H])([H])C([H])([H])C([H])([H])C12[H])C([H])([H])C([H])([H])Oc1c([H])c([H])c2c(c1[H])C([H])([H])N(C(=O)C([H])(N([H])C(=O)C([H])(N([H])C([H])([H])[H])C([H])([H])[H])C(C([H])([H])[H])(C([H])([H])[H])C([H])([H])[H])C([H])(C(=O)N([H])C1([H])c3c([H])c([H])c([H])c([H])c3C([H])([H])C([H])([H])C1([H])[H])C2([H])[H]

$$$$
1:0:0
     RDKit          3D

 92101  0  0  1  0  0  0  0  0999 V2000
  -32.2300  -19.9750   20.7530 C   0  0  0  0  0  2  0  0  0  0  0  0
  -31.0220  -19.3250   21.4220 C   0  0  0  0  0  2  0  0  0  0  0  0
  -30.7460  -21.9020   19.6690 C   0  0  0  0  0  2  0  0  0  0  0  0
  -28.9530  -20.3980   20.2040 C   0  0  0  0  0  2  0  0  0  0  0  0
  -31.3030  -20.4700   19.6380 C   0  0  0  0  0  3  0  0  0  0  0  0
  -30.2190  -19.4700   20.1100 C   0  0  1  0  0  0  0  0  0  0  0  0
  -29.5140  -21.7700   20.4680 N   0  0  2  0  0  4  0  0  0  0  0  0
  -29.9030  -21.6150   21.3860 H   0  0  0  0  0  0  0  0  0  0  0  0
  -30.0900  -18.1330   19.2600 C   0  0  0  0  0  2  0  0  0  0  0  0
  -28.2770  -17.0980   20.7560 C   0  0  0  0  0  1  0  0  0  0  0  0
  -29.4890  -16.7910   19.8620 C   0  0  0  0  0  3  0  0  0  0  0  0
  -30.4240  -15.7080   20.5630 C   0  0  0  0  0  2  0  0  0  0  0  0
  -30.8970  -14.4120   19.8110 C   0  0  0  0  0  0  0  0  0  0  0  0
  -30.5660  -12.0870   18.9820 C   0  0  0  0  0  2  0  0  0  0  0  0
  -29.5710  -12.0960   17.8040 C   0  0  0  0  0  2  0  0  0  0  0  0
  -28.1240  -11.9930   18.3190 C   0  0  0  0  0  2  0  0  0  0  0  0
  -27.8340  -13.0070   19.4580 C   0  0  0  0  0  3  0  0  0  0  0  0
  -28.9400  -12.9810   20.5360 C   0  0  0  0  0  2  0  0  0  0  0  0
  -30.2280  -13.2170   19.8730 N   0  0  0  0  0  0  0  0  0  0  0  0
  -31.9470  -14.5010   19.1700 O   0  0  0  0  0  0  0  0  0  0  0  0
  -25.5460  -13.7430   20.3700 C   0  0  0  0  0  0  0  0  0  0  0  0
  -24.4600  -13.0300   20.8030 C   0  0  0  0  0  0  0  0  0  0  0  0
  -24.8280  -11.6540   20.7090 C   0  0  0  0  0  0  0  0  0  0  0  0
  -26.5100  -12.8040   20.0370 N   0  0  0  0  0  0  0  0  0  0  0  0
  -26.0860  -11.5410   20.3010 N   0  0  0  0  0  0  0  0  0  0  0  0
  -24.0370  -10.4370   20.9300 C   0  0  0  0  0  0  0  0  0  0  0  0
  -24.4580   -9.4350   21.8330 C   0  0  0  0  0  3  0  0  0  0  0  0
  -23.6710   -8.2820   22.0410 C   0  0  0  0  0  3  0  0  0  0  0  0
  -22.4490   -8.1240   21.3470 C   0  0  0  0  0  0  0  0  0  0  0  0
  -22.0470   -9.1110   20.4290 C   0  0  0  0  0  3  0  0  0  0  0  0
  -22.8340  -10.2560   20.2200 C   0  0  0  0  0  3  0  0  0  0  0  0
  -21.6300   -7.0260   21.4660 O   0  0  0  0  0  0  0  0  0  0  0  0
  -21.5780   -6.2890   22.6220 C   0  0  0  0  0  0  0  0  0  0  0  0
  -21.2060   -6.8640   23.8560 C   0  0  0  0  0  3  0  0  0  0  0  0
  -21.0990   -6.0550   25.0050 C   0  0  0  0  0  3  0  0  0  0  0  0
  -21.3530   -4.6730   24.9210 C   0  0  0  0  0  0  0  0  0  0  0  0
  -21.7180   -4.0980   23.6900 C   0  0  0  0  0  3  0  0  0  0  0  0
  -21.8270   -4.9040   22.5430 C   0  0  0  0  0  0  0  0  0  0  0  0
  -22.1580   -4.3400   21.3560 F   0  0  0  0  0  0  0  0  0  0  0  0
  -21.2420   -3.8950   26.0210 F   0  0  0  0  0  0  0  0  0  0  0  0
  -23.1230  -13.5900   21.1920 C   0  0  0  0  0  0  0  0  0  0  0  0
  -22.4240  -12.9250   22.1060 N   0  0  0  0  0  0  0  0  0  0  0  0
  -22.7100  -14.6480   20.7200 O   0  0  0  0  0  0  0  0  0  0  0  0
  -22.7750  -12.0710   22.5120 H   0  0  0  0  0  0  0  0  0  0  0  0
  -21.5250  -13.2770   22.4050 H   0  0  0  0  0  0  0  0  0  0  0  0
  -25.7860  -15.1040   20.2120 N   0  0  0  0  0  0  0  0  0  0  0  0
  -25.0780  -15.8010   20.4090 H   0  0  0  0  0  0  0  0  0  0  0  0
  -26.6500  -15.5000   19.8650 H   0  0  0  0  0  0  0  0  0  0  0  0
  -28.6650  -22.9960   20.7500 C   0  0  0  0  0  2  0  0  0  0  0  0
  -28.0530  -23.8460   19.5730 C   0  0  0  0  0  2  0  0  0  0  0  0
  -28.6630  -25.2650   19.2230 C   0  0  0  0  0  2  0  0  0  0  0  0
  -28.4310  -26.4480   20.0490 O   0  0  0  0  0  0  0  0  0  0  0  0
  -24.5890  -31.6560   23.1040 C   0  0  0  0  0  0  0  0  0  0  0  0
  -27.2740  -27.2230   19.9630 C   0  0  0  0  0  0  0  0  0  0  0  0
  -23.4130  -30.2990   21.4030 C   0  0  0  0  0  3  0  0  0  0  0  0
  -24.8910  -28.7910   19.9560 C   0  0  0  0  0  0  0  0  0  0  0  0
  -25.9460  -30.6380   21.2680 C   0  0  0  0  0  2  0  0  0  0  0  0
  -26.0390  -29.2780   20.5900 C   0  0  0  0  0  0  0  0  0  0  0  0
  -27.2270  -28.5000   20.5930 C   0  0  0  0  0  3  0  0  0  0  0  0
  -26.1060  -26.7740   19.3070 C   0  0  0  0  0  3  0  0  0  0  0  0
  -24.9240  -27.5430   19.3070 C   0  0  0  0  0  3  0  0  0  0  0  0
  -23.6470  -29.6530   20.0090 C   0  0  0  0  0  2  0  0  0  0  0  0
  -24.6670  -30.8810   21.9840 N   0  0  0  0  0  0  0  0  0  0  0  0
  -23.4990  -31.9180   23.6290 O   0  0  0  0  0  0  0  0  0  0  0  0
  -22.7380  -29.2590   22.3270 C   0  0  0  0  0  0  0  0  0  0  0  0
  -21.4060  -29.1290   22.2140 N   0  0  0  0  0  0  0  0  0  0  0  0
  -23.4110  -28.5730   23.1010 O   0  0  0  0  0  0  0  0  0  0  0  0
  -20.9250  -29.7300   21.5610 H   0  0  0  0  0  0  0  0  0  0  0  0
  -17.9960  -28.0690   22.7680 C   0  0  0  0  0  0  0  0  0  0  0  0
  -20.5710  -28.1810   22.9520 C   0  0  0  0  0  3  0  0  0  0  0  0
  -20.5780  -26.7910   22.2760 C   0  0  0  0  0  2  0  0  0  0  0  0
  -19.4240  -26.5950   21.2870 C   0  0  0  0  0  2  0  0  0  0  0  0
  -18.0770  -26.7640   21.9940 C   0  0  0  0  0  2  0  0  0  0  0  0
  -19.1670  -28.7430   23.2040 C   0  0  0  0  0  0  0  0  0  0  0  0
  -19.0380  -29.9700   23.8890 C   0  0  0  0  0  3  0  0  0  0  0  0
  -17.7680  -30.5230   24.1420 C   0  0  0  0  0  3  0  0  0  0  0  0
  -16.6110  -29.8440   23.7220 C   0  0  0  0  0  3  0  0  0  0  0  0
  -16.7260  -28.6190   23.0410 C   0  0  0  0  0  3  0  0  0  0  0  0
  -25.8640  -32.2680   23.7630 C   0  0  0  0  0  3  0  0  0  0  0  0
  -25.5550  -33.6610   24.1180 N   0  0  0  0  0  0  0  0  0  0  0  0
  -25.9040  -34.7270   23.3860 C   0  0  0  0  0  0  0  0  0  0  0  0
  -26.5890  -34.6420   22.3640 O   0  0  0  0  0  0  0  0  0  0  0  0
  -24.9480  -33.8020   24.9120 H   0  0  0  0  0  0  0  0  0  0  0  0
  -24.1870  -36.5330   23.0430 C   0  0  0  0  0  1  0  0  0  0  0  0
  -25.4140  -36.1080   23.8640 C   0  0  0  0  0  3  0  0  0  0  0  0
  -27.5350  -36.9700   24.7510 C   0  0  0  0  0  1  0  0  0  0  0  0
  -26.4520  -37.1590   23.7890 N   0  0  0  0  0  0  0  0  0  0  0  0
  -26.0460  -38.0780   23.9470 H   0  0  0  0  0  0  0  0  0  0  0  0
  -26.3540  -31.4690   25.0320 C   0  0  1  0  0  0  0  0  0  0  0  0
  -25.2390  -31.2130   26.0740 C   0  0  0  0  0  1  0  0  0  0  0  0
  -26.9380  -30.0970   24.6230 C   0  0  0  0  0  1  0  0  0  0  0  0
  -27.4970  -32.2420   25.7310 C   0  0  0  0  0  1  0  0  0  0  0  0
  1  2  1  0
  3  7  1  0
  4  7  1  0
  5  3  1  0
  5  6  1  0
  5  1  1  0
  6  9  1  6
  6  4  1  0
  6  2  1  0
  7 49  1  0
  7  8  1  1
  9 11  1  0
 11 12  1  0
 11 10  1  0
 13 19  1  0
 13 12  1  0
 14 19  1  0
 15 16  1  0
 15 14  1  0
 17 16  1  0
 17 24  1  0
 17 18  1  0
 19 18  1  0
 20 13  2  0
 21 22  2  0
 22 41  1  0
 23 22  1  0
 23 26  1  0
 24 25  1  0
 24 21  1  0
 25 23  2  0
 26 27  1  0
 27 28  2  0
 29 32  1  0
 29 28  1  0
 30 29  2  0
 31 30  1  0
 31 26  2  0
 32 33  1  0
 33 34  1  0
 34 35  2  0
 36 35  1  0
 36 40  1  0
 37 36  2  0
 38 33  2  0
 38 37  1  0
 39 38  1  0
 41 42  1  0
 42 45  1  0
 42 44  1  0
 43 41  2  0
 46 21  1  0
 46 47  1  0
 48 46  1  0
 50 49  1  0
 51 50  1  0
 51 52  1  0
 53 64  2  0
 54 52  1  0
 54 59  1  0
 55 63  1  0
 55 65  1  0
 56 62  1  0
 56 58  1  0
 57 63  1  0
 58 59  2  0
 58 57  1  0
 60 61  1  0
 60 54  2  0
 61 56  2  0
 62 55  1  0
 63 53  1  0
 65 67  2  0
 66 65  1  0
 68 66  1  0
 69 78  2  0
 69 74  1  0
 70 66  1  0
 70 74  1  0
 71 70  1  0
 72 73  1  0
 72 71  1  0
 73 69  1  0
 74 75  2  0
 75 76  1  0
 77 76  2  0
 78 77  1  0
 79 53  1  0
 79 80  1  0
 79 89  1  0
 80 83  1  0
 81 85  1  0
 81 80  1  0
 82 81  2  0
 85 84  1  0
 87 85  1  0
 87 88  1  0
 87 86  1  0
 89 92  1  1
 89 90  1  0
 91 89  1  0
M  ISO  4  12 100  13 100  51 101  52 101
M  END
>  <TORSDO>  (2) 
F 22

>  <SCORE>  (2) 
-12.767

>  <name>  (2) 
1

>  <ligand_id>  (2) 
1

>  <original_smiles>  (2) 
[H]c1c([H])c([H])c2c(c1[H])C([H])([H])C([H])([H])C([H])([H])C2([H])N([H])C(=O)C1([H])N(C(=O)C([H])(N([H])C(=O)C([H])(N([H])C([H])([H])[H])C([H])([H])[H])C(C([H])([H])[H])(C([H])([H])[H])C([H])([H])[H])C([H])([H])c2c([H])c(OC([H])([H])C([H])([H])C([H])([H])[N+]3([H])C([H])([H])C4([H])C([H])([H])C([H])([H])C4(C([H])([H])C([H])(C([H])([H])[H])C([H])([H])C(=O)N4C([H])([H])C([H])([H])C([H])([H])C([H])(n5nc(-c6c([H])c([H])c(Oc7c([H])c([H])c(F)c([H])c7F)c([H])c6[H])c(C(=O)N([H])[H])c5N([H])[H])C4([H])[H])C3([H])[H])c([H])c([H])c2C1([H])[H]

>  <smiles>  (2) 
[H]c1c([H])c([H])c2c(c1[H])C([H])([H])C([H])([H])C([H])([H])C2([H])N([H])C(=O)C1([H])N(C(=O)C([H])(N([H])C(=O)C([H])(N([H])C([H])([H])[H])C([H])([H])[H])C(C([H])([H])[H])(C([H])([H])[H])C([H])([H])[H])C([H])([H])c2c([H])c(OC([H])([H])C([H])([H])C([H])([H])[N+]3([H])C([H])([H])C4([H])C([H])([H])C([H])([H])C4(C([H])([H])C([H])(C([H])([H])[H])C([H])([H])C(=O)N4C([H])([H])C([H])([H])C([H])([H])C([H])(n5nc(-c6c([H])c([H])c(Oc7c([H])c([H])c(F)c([H])c7F)c([H])c6[H])c(C(=O)N([H])[H])c5N([H])[H])C4([H])[H])C3([H])[H])c([H])c([H])c2C1([H])[H]

$$$$
2:0:0
     RDKit          3D

 92100  0  0  1  0  0  0  0  0999 V2000
  -29.0610  -18.7520   20.4530 C   0  0  0  0  0  0  0  0  0  0  0  0
  -29.4230  -20.0800   20.4700 N   0  0  0  0  0  0  0  0  0  0  0  0
  -27.8710  -18.4430   20.3870 O   0  0  0  0  0  0  0  0  0  0  0  0
  -30.4190  -20.2380   20.5670 H   0  0  0  0  0  0  0  0  0  0  0  0
  -32.2520  -18.4150   19.3060 C   0  0  0  0  0  2  0  0  0  0  0  0
  -32.6270  -17.8700   20.6740 C   0  0  0  0  0  2  0  0  0  0  0  0
  -30.8800  -17.8030   19.0190 C   0  0  0  0  0  2  0  0  0  0  0  0
  -31.3040  -17.8400   21.4490 C   0  0  0  0  0  3  0  0  0  0  0  0
  -30.1630  -17.5900   20.3920 C   0  0  1  0  0  0  0  0  0  0  0  0
  -31.3650  -16.9160   22.6810 C   0  0  0  0  0  1  0  0  0  0  0  0
  -29.5390  -16.0860   20.4850 C   0  0  0  0  0  2  0  0  0  0  0  0
  -30.3180  -14.7830   19.9900 C   0  0  0  0  0  0  0  0  0  0  0  0
  -30.0410  -12.5710   18.8780 C   0  0  0  0  0  2  0  0  0  0  0  0
  -29.0000  -12.7360   17.7480 C   0  0  0  0  0  2  0  0  0  0  0  0
  -27.5750  -12.5080   18.2920 C   0  0  0  0  0  2  0  0  0  0  0  0
  -27.3000  -13.3240   19.5820 C   0  0  0  0  0  3  0  0  0  0  0  0
  -28.4530  -13.1890   20.5990 C   0  0  0  0  0  2  0  0  0  0  0  0
  -29.7050  -13.5560   19.9270 N   0  0  0  0  0  0  0  0  0  0  0  0
  -31.4490  -14.9090   19.5180 O   0  0  0  0  0  0  0  0  0  0  0  0
  -24.9770  -13.8270   20.5490 C   0  0  0  0  0  0  0  0  0  0  0  0
  -23.9650  -13.0090   20.9760 C   0  0  0  0  0  0  0  0  0  0  0  0
  -24.4530  -11.6730   20.8420 C   0  0  0  0  0  0  0  0  0  0  0  0
  -26.0130  -12.9840   20.1770 N   0  0  0  0  0  0  0  0  0  0  0  0
  -25.7110  -11.6810   20.4160 N   0  0  0  0  0  0  0  0  0  0  0  0
  -23.7740  -10.3860   21.0390 C   0  0  0  0  0  0  0  0  0  0  0  0
  -24.2740   -9.4150   21.9330 C   0  0  0  0  0  3  0  0  0  0  0  0
  -23.5940   -8.1920   22.1180 C   0  0  0  0  0  3  0  0  0  0  0  0
  -22.3970   -7.9330   21.4080 C   0  0  0  0  0  0  0  0  0  0  0  0
  -21.9150   -8.8930   20.5020 C   0  0  0  0  0  3  0  0  0  0  0  0
  -22.5970  -10.1070   20.3150 C   0  0  0  0  0  3  0  0  0  0  0  0
  -21.6800   -6.7650   21.5060 O   0  0  0  0  0  0  0  0  0  0  0  0
  -21.6790   -6.0130   22.6540 C   0  0  0  0  0  0  0  0  0  0  0  0
  -21.2160   -6.5330   23.8820 C   0  0  0  0  0  3  0  0  0  0  0  0
  -21.1680   -5.7070   25.0230 C   0  0  0  0  0  3  0  0  0  0  0  0
  -21.5700   -4.3600   24.9350 C   0  0  0  0  0  0  0  0  0  0  0  0
  -22.0250   -3.8400   23.7120 C   0  0  0  0  0  3  0  0  0  0  0  0
  -22.0760   -4.6630   22.5730 C   0  0  0  0  0  0  0  0  0  0  0  0
  -22.4970   -4.1500   21.3910 F   0  0  0  0  0  0  0  0  0  0  0  0
  -21.5150   -3.5640   26.0280 F   0  0  0  0  0  0  0  0  0  0  0  0
  -22.5880  -13.4380   21.3940 C   0  0  0  0  0  0  0  0  0  0  0  0
  -21.9560  -12.6830   22.2890 N   0  0  0  0  0  0  0  0  0  0  0  0
  -22.0830  -14.4740   20.9670 O   0  0  0  0  0  0  0  0  0  0  0  0
  -22.3810  -11.8450   22.6590 H   0  0  0  0  0  0  0  0  0  0  0  0
  -21.0350  -12.9480   22.6090 H   0  0  0  0  0  0  0  0  0  0  0  0
  -25.0960  -15.2070   20.4230 N   0  0  0  0  0  0  0  0  0  0  0  0
  -24.3380  -15.8390   20.6520 H   0  0  0  0  0  0  0  0  0  0  0  0
  -25.9160  -15.6890   20.0750 H   0  0  0  0  0  0  0  0  0  0  0  0
  -28.6320  -21.2770   20.0020 C   0  0  0  0  0  2  0  0  0  0  0  0
  -28.7790  -22.6660   20.7720 C   0  0  0  0  0  3  0  0  0  0  0  0
  -28.3550  -23.9960   19.9900 C   0  0  0  0  0  3  0  0  0  0  0  0
  -28.0970  -25.3300   20.8200 C   0  0  0  0  0  2  0  0  0  0  0  0
  -28.1780  -26.6380   20.1420 O   0  0  0  0  0  0  0  0  0  0  0  0
  -24.4920  -32.0090   23.2380 C   0  0  0  0  0  0  0  0  0  0  0  0
  -27.0520  -27.4620   20.1580 C   0  0  0  0  0  0  0  0  0  0  0  0
  -23.2640  -30.6180   21.6050 C   0  0  0  0  0  3  0  0  0  0  0  0
  -24.6930  -29.0600   20.1640 C   0  0  0  0  0  0  0  0  0  0  0  0
  -25.7990  -30.9340   21.3900 C   0  0  0  0  0  2  0  0  0  0  0  0
  -25.8660  -29.5550   20.7480 C   0  0  0  0  0  0  0  0  0  0  0  0
  -27.0540  -28.7680   20.7280 C   0  0  0  0  0  3  0  0  0  0  0  0
  -25.8620  -27.0070   19.5560 C   0  0  0  0  0  3  0  0  0  0  0  0
  -24.6910  -27.7930   19.5550 C   0  0  0  0  0  3  0  0  0  0  0  0
  -23.4590  -29.9380   20.2230 C   0  0  0  0  0  2  0  0  0  0  0  0
  -24.5380  -31.2050   22.1350 N   0  0  0  0  0  0  0  0  0  0  0  0
  -23.4170  -32.2920   23.7850 O   0  0  0  0  0  0  0  0  0  0  0  0
  -22.6070  -29.6060   22.5730 C   0  0  0  0  0  0  0  0  0  0  0  0
  -21.2830  -29.4220   22.4430 N   0  0  0  0  0  0  0  0  0  0  0  0
  -23.2870  -28.9870   23.3960 O   0  0  0  0  0  0  0  0  0  0  0  0
  -20.7990  -29.9750   21.7500 H   0  0  0  0  0  0  0  0  0  0  0  0
  -17.9050  -28.2220   22.9400 C   0  0  0  0  0  0  0  0  0  0  0  0
  -20.4630  -28.4860   23.2130 C   0  0  0  0  0  3  0  0  0  0  0  0
  -20.5670  -27.0540   22.6400 C   0  0  0  0  0  2  0  0  0  0  0  0
  -19.4660  -26.7270   21.6260 C   0  0  0  0  0  2  0  0  0  0  0  0
  -18.0830  -26.8710   22.2690 C   0  0  0  0  0  2  0  0  0  0  0  0
  -19.0220  -28.9860   23.3690 C   0  0  0  0  0  0  0  0  0  0  0  0
  -18.8010  -30.2490   23.9610 C   0  0  0  0  0  3  0  0  0  0  0  0
  -17.4970  -30.7510   24.1240 C   0  0  0  0  0  3  0  0  0  0  0  0
  -16.3930  -29.9830   23.7100 C   0  0  0  0  0  3  0  0  0  0  0  0
  -16.5980  -28.7220   23.1260 C   0  0  0  0  0  3  0  0  0  0  0  0
  -25.7850  -32.6320   23.8510 C   0  0  0  0  0  3  0  0  0  0  0  0
  -25.4920  -34.0340   24.1780 N   0  0  0  0  0  0  0  0  0  0  0  0
  -25.8380  -35.0810   23.4190 C   0  0  0  0  0  0  0  0  0  0  0  0
  -26.5070  -34.9690   22.3880 O   0  0  0  0  0  0  0  0  0  0  0  0
  -24.8970  -34.1960   24.9780 H   0  0  0  0  0  0  0  0  0  0  0  0
  -24.1390  -36.9010   23.0540 C   0  0  0  0  0  1  0  0  0  0  0  0
  -25.3670  -36.4770   23.8740 C   0  0  0  0  0  3  0  0  0  0  0  0
  -27.5040  -37.3340   24.7270 C   0  0  0  0  0  1  0  0  0  0  0  0
  -26.4170  -37.5150   23.7690 N   0  0  0  0  0  0  0  0  0  0  0  0
  -26.0240  -38.4410   23.9050 H   0  0  0  0  0  0  0  0  0  0  0  0
  -26.2980  -31.8610   25.1280 C   0  0  1  0  0  0  0  0  0  0  0  0
  -25.2020  -31.6180   26.1940 C   0  0  0  0  0  1  0  0  0  0  0  0
  -26.8860  -30.4860   24.7320 C   0  0  0  0  0  1  0  0  0  0  0  0
  -27.4480  -32.6550   25.7930 C   0  0  0  0  0  1  0  0  0  0  0  0
  1  2  1  0
  2  4  1  0
  3  1  2  0
  5  6  1  0
  6  8  1  0
  7  5  1  0
  7  9  1  0
  8 10  1  0
  9  1  1  0
  9 11  1  6
  9  8  1  0
 12 11  1  0
 13 18  1  0
 14 15  1  0
 14 13  1  0
 16 15  1  0
 16 23  1  0
 16 17  1  0
 18 12  1  0
 18 17  1  0
 19 12  2  0
 20 21  2  0
 21 40  1  0
 22 21  1  0
 22 25  1  0
 23 24  1  0
 23 20  1  0
 24 22  2  0
 25 26  1  0
 26 27  2  0
 28 31  1  0
 28 27  1  0
 29 28  2  0
 30 29  1  0
 30 25  2  0
 31 32  1  0
 32 33  1  0
 33 34  2  0
 35 34  1  0
 35 39  1  0
 36 35  2  0
 37 32  2  0
 37 36  1  0
 38 37  1  0
 40 41  1  0
 41 44  1  0
 41 43  1  0
 42 40  2  0
 45 20  1  0
 45 46  1  0
 47 45  1  0
 48  2  1  0
 48 49  1  0
 50 49  2  0
 50 51  1  0
 52 54  1  0
 52 51  1  0
 53 64  2  0
 54 59  1  0
 55 63  1  0
 55 65  1  0
 56 62  1  0
 56 58  1  0
 57 63  1  0
 58 57  1  0
 59 58  2  0
 60 54  2  0
 61 60  1  0
 61 56  2  0
 62 55  1  0
 63 53  1  0
 65 67  2  0
 66 65  1  0
 68 66  1  0
 69 78  2  0
 69 74  1  0
 70 66  1  0
 70 74  1  0
 71 70  1  0
 72 73  1  0
 72 71  1  0
 73 69  1  0
 74 75  2  0
 75 76  1  0
 77 76  2  0
 78 77  1  0
 79 53  1  0
 79 80  1  0
 79 89  1  0
 80 83  1  0
 81 85  1  0
 81 80  1  0
 82 81  2  0
 85 84  1  0
 87 85  1  0
 87 88  1  0
 87 86  1  0
 89 92  1  1
 89 90  1  0
 91 89  1  0
M  ISO  4  11 100  12 100  51 101  52 101
M  END
>  <TORSDO>  (3) 
F 22

>  <SCORE>  (3) 
-12.506

>  <name>  (3) 
2

>  <ligand_id>  (3) 
2

>  <original_smiles>  (3) 
[H]c1c([H])c([H])c2c(c1[H])C([H])([H])C([H])([H])C([H])([H])C2([H])N([H])C(=O)C1([H])N(C(=O)C([H])(N([H])C(=O)C([H])(N([H])C([H])([H])[H])C([H])([H])[H])C(C([H])([H])[H])(C([H])([H])[H])C([H])([H])[H])C([H])([H])c2c([H])c(OC([H])([H])C([H])([H])C([H])([H])C([H])([H])N([H])C(=O)C3(C([H])([H])C(=O)N4C([H])([H])C([H])([H])C([H])([H])C([H])(n5nc(-c6c([H])c([H])c(Oc7c([H])c([H])c(F)c([H])c7F)c([H])c6[H])c(C(=O)N([H])[H])c5N([H])[H])C4([H])[H])C([H])([H])C([H])([H])C([H])([H])C3([H])C([H])([H])[H])c([H])c([H])c2C1([H])[H]

>  <smiles>  (3) 
[H]c1c([H])c([H])c2c(c1[H])C([H])([H])C([H])([H])C([H])([H])C2([H])N([H])C(=O)C1([H])N(C(=O)C([H])(N([H])C(=O)C([H])(N([H])C([H])([H])[H])C([H])([H])[H])C(C([H])([H])[H])(C([H])([H])[H])C([H])([H])[H])C([H])([H])c2c([H])c(OC([H])([H])C([H])([H])C([H])([H])C([H])([H])N([H])C(=O)C3(C([H])([H])C(=O)N4C([H])([H])C([H])([H])C([H])([H])C([H])(n5nc(-c6c([H])c([H])c(Oc7c([H])c([H])c(F)c([H])c7F)c([H])c6[H])c(C(=O)N([H])[H])c5N([H])[H])C4([H])[H])C([H])([H])C([H])([H])C([H])([H])C3([H])C([H])([H])[H])c([H])c([H])c2C1([H])[H]

$$$$
3:0:0
     RDKit          3D

 87 96  0  0  1  0  0  0  0  0999 V2000
  -28.3600  -21.2360   20.5290 C   0  0  0  0  0  0  0  0  0  0  0  0
  -30.1860  -22.2540   19.7270 C   0  0  0  0  0  2  0  0  0  0  0  0
  -31.0200  -19.5170   19.9660 C   0  0  0  0  0  2  0  0  0  0  0  0
  -28.7060  -22.7660   19.9470 C   0  0  0  0  0  3  0  0  0  0  0  0
  -30.2060  -20.6860   19.3070 C   0  0  0  0  0  3  0  0  0  0  0  0
  -29.7590  -18.7000   20.3980 C   0  0  0  0  0  3  0  0  0  0  0  0
  -29.0370  -20.0580   19.8910 N   0  0  0  0  0  0  0  0  0  0  0  0
  -27.6560  -21.0820   21.5270 O   0  0  0  0  0  0  0  0  0  0  0  0
  -29.5410  -16.9550   19.9470 C   0  0  0  0  0  2  0  0  0  0  0  0
  -30.4490  -15.4360   19.9920 C   0  0  0  0  0  0  0  0  0  0  0  0
  -30.4480  -12.9830   19.1260 C   0  0  0  0  0  2  0  0  0  0  0  0
  -29.4770  -12.7930   17.9310 C   0  0  0  0  0  2  0  0  0  0  0  0
  -28.0440  -12.5130   18.4210 C   0  0  0  0  0  2  0  0  0  0  0  0
  -27.6340  -13.4610   19.5740 C   0  0  0  0  0  3  0  0  0  0  0  0
  -28.7250  -13.5940   20.6550 C   0  0  0  0  0  2  0  0  0  0  0  0
  -29.9380  -14.1050   19.9950 N   0  0  0  0  0  0  0  0  0  0  0  0
  -31.6690  -15.4520   19.7600 O   0  0  0  0  0  0  0  0  0  0  0  0
  -25.3020  -14.0020   20.4510 C   0  0  0  0  0  0  0  0  0  0  0  0
  -24.2570  -13.2170   20.8520 C   0  0  0  0  0  0  0  0  0  0  0  0
  -24.7230  -11.8670   20.7740 C   0  0  0  0  0  0  0  0  0  0  0  0
  -26.3320  -13.1330   20.1380 N   0  0  0  0  0  0  0  0  0  0  0  0
  -25.9990  -11.8410   20.4020 N   0  0  0  0  0  0  0  0  0  0  0  0
  -24.0050  -10.6010   20.9720 C   0  0  0  0  0  0  0  0  0  0  0  0
  -24.4610   -9.6260   21.8850 C   0  0  0  0  0  3  0  0  0  0  0  0
  -23.7400   -8.4270   22.0720 C   0  0  0  0  0  3  0  0  0  0  0  0
  -22.5480   -8.1950   21.3470 C   0  0  0  0  0  0  0  0  0  0  0  0
  -22.1100   -9.1590   20.4220 C   0  0  0  0  0  3  0  0  0  0  0  0
  -22.8320  -10.3480   20.2320 C   0  0  0  0  0  3  0  0  0  0  0  0
  -21.7960   -7.0480   21.4440 O   0  0  0  0  0  0  0  0  0  0  0  0
  -21.7580   -6.3080   22.5980 C   0  0  0  0  0  0  0  0  0  0  0  0
  -21.3160   -6.8560   23.8210 C   0  0  0  0  0  3  0  0  0  0  0  0
  -21.2280   -6.0410   24.9670 C   0  0  0  0  0  3  0  0  0  0  0  0
  -21.5710   -4.6780   24.8910 C   0  0  0  0  0  0  0  0  0  0  0  0
  -22.0070   -4.1290   23.6720 C   0  0  0  0  0  3  0  0  0  0  0  0
  -22.0970   -4.9410   22.5280 C   0  0  0  0  0  0  0  0  0  0  0  0
  -22.4960   -4.4020   21.3520 F   0  0  0  0  0  0  0  0  0  0  0  0
  -21.4800   -3.8930   25.9900 F   0  0  0  0  0  0  0  0  0  0  0  0
  -22.8730  -13.6870   21.1900 C   0  0  0  0  0  0  0  0  0  0  0  0
  -22.1840  -12.9770   22.0750 N   0  0  0  0  0  0  0  0  0  0  0  0
  -22.4150  -14.7210   20.7050 O   0  0  0  0  0  0  0  0  0  0  0  0
  -22.5690  -12.1410   22.4880 H   0  0  0  0  0  0  0  0  0  0  0  0
  -21.2560  -13.2730   22.3440 H   0  0  0  0  0  0  0  0  0  0  0  0
  -25.4550  -15.3760   20.2950 N   0  0  0  0  0  0  0  0  0  0  0  0
  -24.6940  -16.0250   20.4600 H   0  0  0  0  0  0  0  0  0  0  0  0
  -26.2860  -15.8250   19.9310 H   0  0  0  0  0  0  0  0  0  0  0  0
  -28.1900  -24.3940   20.5720 C   0  0  0  0  0  2  0  0  0  0  0  0
  -28.3430  -26.0050   20.2200 O   0  0  0  0  0  0  0  0  0  0  0  0
  -24.6740  -31.9200   23.2340 C   0  0  0  0  0  0  0  0  0  0  0  0
  -27.3000  -27.0740   20.2320 C   0  0  0  0  0  0  0  0  0  0  0  0
  -23.5050  -30.5160   21.5860 C   0  0  0  0  0  3  0  0  0  0  0  0
  -24.9790  -28.9260   20.1750 C   0  0  0  0  0  0  0  0  0  0  0  0
  -26.0690  -30.7570   21.4530 C   0  0  0  0  0  2  0  0  0  0  0  0
  -26.1600  -29.3470   20.7980 C   0  0  0  0  0  0  0  0  0  0  0  0
  -27.3180  -28.4450   20.7960 C   0  0  0  0  0  3  0  0  0  0  0  0
  -26.0840  -26.8010   19.5700 C   0  0  0  0  0  3  0  0  0  0  0  0
  -24.9650  -27.6730   19.5400 C   0  0  0  0  0  3  0  0  0  0  0  0
  -23.7510  -29.8350   20.2110 C   0  0  0  0  0  2  0  0  0  0  0  0
  -24.7710  -31.0910   22.1440 N   0  0  0  0  0  0  0  0  0  0  0  0
  -23.5780  -32.1970   23.7500 O   0  0  0  0  0  0  0  0  0  0  0  0
  -22.8160  -29.5110   22.5450 C   0  0  0  0  0  0  0  0  0  0  0  0
  -21.4880  -29.3340   22.4130 N   0  0  0  0  0  0  0  0  0  0  0  0
  -23.4820  -28.8910   23.3770 O   0  0  0  0  0  0  0  0  0  0  0  0
  -21.0010  -29.8860   21.7200 H   0  0  0  0  0  0  0  0  0  0  0  0
  -18.1130  -28.0930   22.9060 C   0  0  0  0  0  0  0  0  0  0  0  0
  -20.6700  -28.3850   23.1780 C   0  0  0  0  0  3  0  0  0  0  0  0
  -20.7880  -26.9570   22.5970 C   0  0  0  0  0  2  0  0  0  0  0  0
  -19.6910  -26.6270   21.5790 C   0  0  0  0  0  2  0  0  0  0  0  0
  -18.3060  -26.7510   22.2200 C   0  0  0  0  0  2  0  0  0  0  0  0
  -19.2220  -28.8670   23.3410 C   0  0  0  0  0  0  0  0  0  0  0  0
  -18.9850  -30.1210   23.9460 C   0  0  0  0  0  3  0  0  0  0  0  0
  -17.6740  -30.6020   24.1170 C   0  0  0  0  0  3  0  0  0  0  0  0
  -16.5800  -29.8250   23.6960 C   0  0  0  0  0  3  0  0  0  0  0  0
  -16.8000  -28.5740   23.0960 C   0  0  0  0  0  3  0  0  0  0  0  0
  -25.9340  -32.5760   23.8770 C   0  0  0  0  0  3  0  0  0  0  0  0
  -25.6030  -33.9750   24.2000 N   0  0  0  0  0  0  0  0  0  0  0  0
  -25.9270  -35.0350   23.4490 C   0  0  0  0  0  0  0  0  0  0  0  0
  -26.5980  -34.9390   22.4180 O   0  0  0  0  0  0  0  0  0  0  0  0
  -25.0040  -34.1220   24.9990 H   0  0  0  0  0  0  0  0  0  0  0  0
  -24.1850  -36.8220   23.1030 C   0  0  0  0  0  1  0  0  0  0  0  0
  -25.4310  -36.4220   23.9100 C   0  0  0  0  0  3  0  0  0  0  0  0
  -27.5560  -37.3290   24.7440 C   0  0  0  0  0  1  0  0  0  0  0  0
  -26.4550  -37.4830   23.7950 N   0  0  0  0  0  0  0  0  0  0  0  0
  -26.0410  -38.4000   23.9370 H   0  0  0  0  0  0  0  0  0  0  0  0
  -26.4300  -31.8220   25.1730 C   0  0  1  0  0  0  0  0  0  0  0  0
  -25.3180  -31.5870   26.2220 C   0  0  0  0  0  1  0  0  0  0  0  0
  -27.0320  -30.4450   24.8160 C   0  0  0  0  0  1  0  0  0  0  0  0
  -27.5610  -32.6340   25.8490 C   0  0  0  0  0  1  0  0  0  0  0  0
  1  8  2  0
  2  4  1  0
  3  6  1  0
  4  1  1  0
  4 46  1  0
  5  2  1  0
  5  7  1  0
  5  3  1  0
  6  9  1  0
  7  6  1  0
  7  1  1  0
  9 10  1  0
 10 16  1  0
 11 16  1  0
 12 13  1  0
 12 11  1  0
 14 13  1  0
 14 21  1  0
 14 15  1  0
 16 15  1  0
 17 10  2  0
 18 19  2  0
 19 38  1  0
 20 19  1  0
 20 23  1  0
 21 22  1  0
 21 18  1  0
 22 20  2  0
 23 24  1  0
 24 25  2  0
 26 29  1  0
 26 25  1  0
 27 26  2  0
 28 27  1  0
 28 23  2  0
 29 30  1  0
 30 31  1  0
 31 32  2  0
 33 32  1  0
 33 37  1  0
 34 33  2  0
 35 30  2  0
 35 34  1  0
 36 35  1  0
 38 39  1  0
 39 42  1  0
 39 41  1  0
 40 38  2  0
 43 18  1  0
 43 44  1  0
 45 43  1  0
 47 49  1  0
 47 46  1  0
 48 59  2  0
 49 54  1  0
 50 58  1  0
 50 60  1  0
 51 57  1  0
 51 53  1  0
 52 58  1  0
 53 52  1  0
 54 53  2  0
 55 49  2  0
 56 55  1  0
 56 51  2  0
 57 50  1  0
 58 48  1  0
 60 62  2  0
 61 60  1  0
 63 61  1  0
 64 73  2  0
 64 69  1  0
 65 61  1  0
 65 69  1  0
 66 65  1  0
 67 68  1  0
 67 66  1  0
 68 64  1  0
 69 70  2  0
 70 71  1  0
 72 71  2  0
 73 72  1  0
 74 48  1  0
 74 75  1  0
 74 84  1  0
 75 78  1  0
 76 80  1  0
 76 75  1  0
 77 76  2  0
 80 79  1  0
 82 80  1  0
 82 83  1  0
 82 81  1  0
 84 87  1  1
 84 85  1  0
 86 84  1  0
M  ISO  4   9 100  10 100  46 101  47 101
M  END
>  <TORSDO>  (4) 
F 18

>  <SCORE>  (4) 
-16.216

>  <name>  (4) 
3

>  <ligand_id>  (4) 
3

>  <original_smiles>  (4) 
[H]c1c([H])c([H])c2c(c1[H])C([H])([H])C([H])([H])C([H])([H])C2([H])N([H])C(=O)C1([H])N(C(=O)C([H])(N([H])C(=O)C([H])(N([H])C([H])([H])[H])C([H])([H])[H])C(C([H])([H])[H])(C([H])([H])[H])C([H])([H])[H])C([H])([H])c2c([H])c(OC([H])([H])C3([H])C(=O)N4C([H])(C([H])([H])C(=O)N5C([H])([H])C([H])([H])C([H])([H])C([H])(n6nc(-c7c([H])c([H])c(Oc8c([H])c([H])c(F)c([H])c8F)c([H])c7[H])c(C(=O)N([H])[H])c6N([H])[H])C5([H])[H])C([H])([H])C4([H])C3([H])[H])c([H])c([H])c2C1([H])[H]

>  <smiles>  (4) 
[H]c1c([H])c([H])c2c(c1[H])C([H])([H])C([H])([H])C([H])([H])C2([H])N([H])C(=O)C1([H])N(C(=O)C([H])(N([H])C(=O)C([H])(N([H])C([H])([H])[H])C([H])([H])[H])C(C([H])([H])[H])(C([H])([H])[H])C([H])([H])[H])C([H])([H])c2c([H])c(OC([H])([H])C3([H])C(=O)N4C([H])(C([H])([H])C(=O)N5C([H])([H])C([H])([H])C([H])([H])C([H])(n6nc(-c7c([H])c([H])c(Oc8c([H])c([H])c(F)c([H])c8F)c([H])c7[H])c(C(=O)N([H])[H])c6N([H])[H])C5([H])[H])C([H])([H])C4([H])C3([H])[H])c([H])c([H])c2C1([H])[H]

$$$$
4:0:0
     RDKit          3D

 94102  0  0  1  0  0  0  0  0999 V2000
  -28.5630  -21.7080   22.1230 C   0  0  0  0  0  2  0  0  0  0  0  0
  -28.4910  -23.2190   22.3570 C   0  0  0  0  0  2  0  0  0  0  0  0
  -29.7810  -22.8410   20.3940 C   0  0  0  0  0  2  0  0  0  0  0  0
  -29.7570  -21.4260   21.1790 C   0  0  0  0  0  3  0  0  0  0  0  0
  -28.7340  -23.9150   21.0010 C   0  0  1  0  0  0  0  0  0  0  0  0
  -27.4440  -23.8750   20.1580 C   0  0  0  0  0  1  0  0  0  0  0  0
  -29.0770  -25.4690   21.3680 C   0  0  0  0  0  2  0  0  0  0  0  0
  -28.9150  -26.6950   20.5470 O   0  0  0  0  0  0  0  0  0  0  0  0
  -24.7810  -32.0090   23.3830 C   0  0  0  0  0  0  0  0  0  0  0  0
  -27.7630  -27.4990   20.5850 C   0  0  0  0  0  0  0  0  0  0  0  0
  -23.7450  -30.5480   21.6820 C   0  0  0  0  0  3  0  0  0  0  0  0
  -25.3490  -29.0290   20.3890 C   0  0  0  0  0  0  0  0  0  0  0  0
  -26.2800  -30.9520   21.6740 C   0  0  0  0  0  2  0  0  0  0  0  0
  -26.4540  -29.5630   21.0670 C   0  0  0  0  0  0  0  0  0  0  0  0
  -27.6660  -28.8080   21.1610 C   0  0  0  0  0  3  0  0  0  0  0  0
  -26.6430  -27.0320   19.8730 C   0  0  0  0  0  3  0  0  0  0  0  0
  -25.4440  -27.7650   19.7870 C   0  0  0  0  0  3  0  0  0  0  0  0
  -24.0830  -29.8640   20.3320 C   0  0  0  0  0  2  0  0  0  0  0  0
  -24.9500  -31.1900   22.3030 N   0  0  0  0  0  0  0  0  0  0  0  0
  -23.6530  -32.2480   23.8400 O   0  0  0  0  0  0  0  0  0  0  0  0
  -23.0590  -29.5150   22.6080 C   0  0  0  0  0  0  0  0  0  0  0  0
  -21.7540  -29.2770   22.3880 N   0  0  0  0  0  0  0  0  0  0  0  0
  -23.7010  -28.9310   23.4850 O   0  0  0  0  0  0  0  0  0  0  0  0
  -21.2890  -29.8070   21.6640 H   0  0  0  0  0  0  0  0  0  0  0  0
  -18.3970  -27.9610   22.6860 C   0  0  0  0  0  0  0  0  0  0  0  0
  -20.9230  -28.3130   23.1130 C   0  0  0  0  0  3  0  0  0  0  0  0
  -21.1110  -26.8830   22.5540 C   0  0  0  0  0  2  0  0  0  0  0  0
  -20.0870  -26.5190   21.4740 C   0  0  0  0  0  2  0  0  0  0  0  0
  -18.6630  -26.6170   22.0300 C   0  0  0  0  0  2  0  0  0  0  0  0
  -19.4590  -28.7650   23.1800 C   0  0  0  0  0  0  0  0  0  0  0  0
  -19.1590  -30.0210   23.7500 C   0  0  0  0  0  3  0  0  0  0  0  0
  -17.8290  -30.4760   23.8310 C   0  0  0  0  0  3  0  0  0  0  0  0
  -16.7810  -29.6700   23.3530 C   0  0  0  0  0  3  0  0  0  0  0  0
  -17.0660  -28.4150   22.7860 C   0  0  0  0  0  3  0  0  0  0  0  0
  -25.9920  -32.6970   24.0820 C   0  0  0  0  0  3  0  0  0  0  0  0
  -25.6350  -34.1060   24.3050 N   0  0  0  0  0  0  0  0  0  0  0  0
  -26.0010  -35.1210   23.5100 C   0  0  0  0  0  0  0  0  0  0  0  0
  -26.7430  -34.9720   22.5350 O   0  0  0  0  0  0  0  0  0  0  0  0
  -24.9860  -34.2950   25.0540 H   0  0  0  0  0  0  0  0  0  0  0  0
  -24.2590  -36.8460   22.9440 C   0  0  0  0  0  1  0  0  0  0  0  0
  -25.4600  -36.5230   23.8500 C   0  0  0  0  0  3  0  0  0  0  0  0
  -27.5340  -37.4990   24.7300 C   0  0  0  0  0  1  0  0  0  0  0  0
  -26.4760  -37.5910   23.7270 N   0  0  0  0  0  0  0  0  0  0  0  0
  -26.0450  -38.5090   23.8040 H   0  0  0  0  0  0  0  0  0  0  0  0
  -26.3990  -32.0070   25.4410 C   0  0  1  0  0  0  0  0  0  0  0  0
  -25.2050  -31.7490   26.3910 C   0  0  0  0  0  1  0  0  0  0  0  0
  -27.0930  -30.6500   25.1810 C   0  0  0  0  0  1  0  0  0  0  0  0
  -27.4240  -32.8900   26.1910 C   0  0  0  0  0  1  0  0  0  0  0  0
  -29.7900  -19.9330   20.4510 C   0  0  0  0  0  3  0  0  0  0  0  0
  -30.6710  -18.8610   21.1120 N   0  0  0  0  0  4  0  0  0  0  0  0
  -31.5950  -19.2670   21.1130 H   0  0  0  0  0  0  0  0  0  0  0  0
  -30.4200  -18.7740   22.0840 H   0  0  0  0  0  0  0  0  0  0  0  0
  -30.8770  -17.4520   20.5110 C   0  0  0  0  0  2  0  0  0  0  0  0
  -30.4690  -16.1040   21.3170 C   0  0  0  0  0  2  0  0  0  0  0  0
  -31.2070  -14.7120   20.9960 C   0  0  0  0  0  0  0  0  0  0  0  0
  -31.1150  -12.3140   20.2690 C   0  0  0  0  0  2  0  0  0  0  0  0
  -30.3200  -12.2100   18.9480 C   0  0  0  0  0  2  0  0  0  0  0  0
  -28.8080  -12.0860   19.2260 C   0  0  0  0  0  2  0  0  0  0  0  0
  -28.3090  -13.1270   20.2640 C   0  0  0  0  0  3  0  0  0  0  0  0
  -29.2330  -13.1900   21.5000 C   0  0  0  0  0  2  0  0  0  0  0  0
  -30.5930  -13.4780   21.0260 N   0  0  0  0  0  0  0  0  0  0  0  0
  -32.3910  -14.7730   20.6490 O   0  0  0  0  0  0  0  0  0  0  0  0
  -25.8980  -13.8190   20.7890 C   0  0  0  0  0  0  0  0  0  0  0  0
  -24.7690  -13.1010   21.0710 C   0  0  0  0  0  0  0  0  0  0  0  0
  -25.1640  -11.7290   21.0450 C   0  0  0  0  0  0  0  0  0  0  0  0
  -26.9150  -12.8950   20.6330 N   0  0  0  0  0  0  0  0  0  0  0  0
  -26.4730  -11.6280   20.8400 N   0  0  0  0  0  0  0  0  0  0  0  0
  -24.3600  -10.5060   21.1430 C   0  0  0  0  0  0  0  0  0  0  0  0
  -24.6980   -9.4690   22.0400 C   0  0  0  0  0  3  0  0  0  0  0  0
  -23.8980   -8.3100   22.1280 C   0  0  0  0  0  3  0  0  0  0  0  0
  -22.7440   -8.1790   21.3190 C   0  0  0  0  0  0  0  0  0  0  0  0
  -22.4260   -9.2040   20.4100 C   0  0  0  0  0  3  0  0  0  0  0  0
  -23.2260  -10.3550   20.3190 C   0  0  0  0  0  3  0  0  0  0  0  0
  -21.9210   -7.0800   21.3200 O   0  0  0  0  0  0  0  0  0  0  0  0
  -21.7980   -6.2760   22.4250 C   0  0  0  0  0  0  0  0  0  0  0  0
  -21.3850   -6.7850   23.6760 C   0  0  0  0  0  3  0  0  0  0  0  0
  -21.2050   -5.9120   24.7660 C   0  0  0  0  0  3  0  0  0  0  0  0
  -21.4260   -4.5300   24.6070 C   0  0  0  0  0  0  0  0  0  0  0  0
  -21.8320   -4.0210   23.3610 C   0  0  0  0  0  3  0  0  0  0  0  0
  -22.0150   -4.8920   22.2720 C   0  0  0  0  0  0  0  0  0  0  0  0
  -22.3850   -4.3930   21.0690 F   0  0  0  0  0  0  0  0  0  0  0  0
  -21.2450   -3.6900   25.6520 F   0  0  0  0  0  0  0  0  0  0  0  0
  -23.3830  -13.6490   21.2490 C   0  0  0  0  0  0  0  0  0  0  0  0
  -22.5610  -12.9880   22.0580 N   0  0  0  0  0  0  0  0  0  0  0  0
  -23.0350  -14.6980   20.7100 O   0  0  0  0  0  0  0  0  0  0  0  0
  -22.8530  -12.1400   22.5200 H   0  0  0  0  0  0  0  0  0  0  0  0
  -21.6270  -13.3350   22.2160 H   0  0  0  0  0  0  0  0  0  0  0  0
  -26.1370  -15.1750   20.6180 N   0  0  0  0  0  0  0  0  0  0  0  0
  -25.3940  -15.8600   20.6820 H   0  0  0  0  0  0  0  0  0  0  0  0
  -27.0210  -15.5730   20.3350 H   0  0  0  0  0  0  0  0  0  0  0  0
  -28.3690  -19.2820   20.3040 C   0  0  0  0  0  2  0  0  0  0  0  0
  -28.2320  -19.2230   17.7490 C   0  0  0  0  0  1  0  0  0  0  0  0
  -26.6610  -17.8460   19.1660 C   0  0  0  0  0  1  0  0  0  0  0  0
  -28.0850  -18.4250   19.0560 C   0  0  0  0  0  3  0  0  0  0  0  0
  1  2  1  0
  3  5  1  0
  3  4  1  0
  4 49  1  0
  4  1  1  0
  5  6  1  6
  5  7  1  0
  5  2  1  0
  8 10  1  0
  8  7  1  0
  9 20  2  0
 10 15  1  0
 11 19  1  0
 11 21  1  0
 12 14  1  0
 13 19  1  0
 14 15  2  0
 14 13  1  0
 16 10  2  0
 17 16  1  0
 17 12  2  0
 18 12  1  0
 18 11  1  0
 19  9  1  0
 21 23  2  0
 22 21  1  0
 24 22  1  0
 25 34  2  0
 25 30  1  0
 26 22  1  0
 26 30  1  0
 27 26  1  0
 28 29  1  0
 28 27  1  0
 29 25  1  0
 30 31  2  0
 31 32  1  0
 33 32  2  0
 34 33  1  0
 35  9  1  0
 35 36  1  0
 35 45  1  0
 36 39  1  0
 37 41  1  0
 37 36  1  0
 38 37  2  0
 41 40  1  0
 43 44  1  0
 43 41  1  0
 43 42  1  0
 45 48  1  1
 45 46  1  0
 47 45  1  0
 49 91  1  0
 49 50  1  0
 50 51  1  0
 50 52  1  0
 53 50  1  0
 53 54  1  0
 55 61  1  0
 55 54  1  0
 56 61  1  0
 57 58  1  0
 57 56  1  0
 59 58  1  0
 59 66  1  0
 59 60  1  0
 61 60  1  0
 62 55  2  0
 63 64  2  0
 64 83  1  0
 65 64  1  0
 65 68  1  0
 66 63  1  0
 66 67  1  0
 67 65  2  0
 68 69  1  0
 69 70  2  0
 71 74  1  0
 71 70  1  0
 72 71  2  0
 73 72  1  0
 73 68  2  0
 74 75  1  0
 75 76  1  0
 76 77  2  0
 78 77  1  0
 78 82  1  0
 79 78  2  0
 80 75  2  0
 80 79  1  0
 81 80  1  0
 83 84  1  0
 84 87  1  0
 84 86  1  0
 85 83  2  0
 88 89  1  0
 88 63  1  0
 90 88  1  0
 92 94  1  0
 94 93  1  0
 94 91  1  0
M  ISO  4   7 101   8 101  54 100  55 100
M  END
>  <TORSDO>  (5) 
F 23

>  <SCORE>  (5) 
-11.823

>  <name>  (5) 
4

>  <ligand_id>  (5) 
4

>  <original_smiles>  (5) 
[H]c1c([H])c([H])c2c(c1[H])C([H])([H])C([H])([H])C([H])([H])C2([H])N([H])C(=O)C1([H])N(C(=O)C([H])(N([H])C(=O)C([H])(N([H])C([H])([H])[H])C([H])([H])[H])C(C([H])([H])[H])(C([H])([H])[H])C([H])([H])[H])C([H])([H])c2c([H])c(OC([H])([H])C3(C([H])([H])[H])C([H])([H])C([H])([H])C([H])(C([H])(C([H])([H])C([H])(C([H])([H])[H])C([H])([H])[H])[N+]([H])([H])C([H])([H])C([H])([H])C(=O)N4C([H])([H])C([H])([H])C([H])([H])C([H])(n5nc(-c6c([H])c([H])c(Oc7c([H])c([H])c(F)c([H])c7F)c([H])c6[H])c(C(=O)N([H])[H])c5N([H])[H])C4([H])[H])C3([H])[H])c([H])c([H])c2C1([H])[H]

>  <smiles>  (5) 
[H]c1c([H])c([H])c2c(c1[H])C([H])([H])C([H])([H])C([H])([H])C2([H])N([H])C(=O)C1([H])N(C(=O)C([H])(N([H])C(=O)C([H])(N([H])C([H])([H])[H])C([H])([H])[H])C(C([H])([H])[H])(C([H])([H])[H])C([H])([H])[H])C([H])([H])c2c([H])c(OC([H])([H])C3(C([H])([H])[H])C([H])([H])C([H])([H])C([H])(C([H])(C([H])([H])C([H])(C([H])([H])[H])C([H])([H])[H])[N+]([H])([H])C([H])([H])C([H])([H])C(=O)N4C([H])([H])C([H])([H])C([H])([H])C([H])(n5nc(-c6c([H])c([H])c(Oc7c([H])c([H])c(F)c([H])c7F)c([H])c6[H])c(C(=O)N([H])[H])c5N([H])[H])C4([H])[H])C3([H])[H])c([H])c([H])c2C1([H])[H]

$$$$
5:0:0
     RDKit          3D

 90 98  0  0  1  0  0  0  0  0999 V2000
  -27.7160  -21.6550   21.6250 C   0  0  0  0  0  2  0  0  0  0  0  0
  -27.6310  -22.2700   20.2220 C   0  0  0  0  0  2  0  0  0  0  0  0
  -29.2030  -21.3850   21.8890 C   0  0  0  0  0  2  0  0  0  0  0  0
  -29.0740  -22.6510   19.8250 C   0  0  0  0  0  3  0  0  0  0  0  0
  -29.9010  -21.4670   20.5230 C   0  0  0  0  0  3  0  0  0  0  0  0
  -29.3970  -24.1880   20.1870 C   0  0  0  0  0  3  0  0  0  0  0  0
  -28.3760  -25.3080   19.6700 C   0  0  0  0  0  3  0  0  0  0  0  0
  -28.5670  -26.7600   19.9170 O   0  0  0  0  0  0  0  0  0  0  0  0
  -24.6850  -31.8440   23.2690 C   0  0  0  0  0  0  0  0  0  0  0  0
  -27.4200  -27.5800   19.9070 C   0  0  0  0  0  0  0  0  0  0  0  0
  -23.5060  -30.5020   21.5650 C   0  0  0  0  0  3  0  0  0  0  0  0
  -24.9930  -29.1010   20.0270 C   0  0  0  0  0  0  0  0  0  0  0  0
  -26.0300  -30.9250   21.3690 C   0  0  0  0  0  2  0  0  0  0  0  0
  -26.1520  -29.5950   20.6370 C   0  0  0  0  0  0  0  0  0  0  0  0
  -27.3660  -28.8460   20.5720 C   0  0  0  0  0  3  0  0  0  0  0  0
  -26.2340  -27.1540   19.2600 C   0  0  0  0  0  3  0  0  0  0  0  0
  -25.0360  -27.8860   19.3320 C   0  0  0  0  0  3  0  0  0  0  0  0
  -23.7230  -29.9200   20.1450 C   0  0  0  0  0  2  0  0  0  0  0  0
  -24.7590  -31.1040   22.1260 N   0  0  0  0  0  0  0  0  0  0  0  0
  -23.6000  -32.0490   23.8340 O   0  0  0  0  0  0  0  0  0  0  0  0
  -22.8980  -29.4030   22.4680 C   0  0  0  0  0  0  0  0  0  0  0  0
  -21.5900  -29.1400   22.3010 N   0  0  0  0  0  0  0  0  0  0  0  0
  -23.6000  -28.7930   23.2780 O   0  0  0  0  0  0  0  0  0  0  0  0
  -21.0790  -29.6900   21.6250 H   0  0  0  0  0  0  0  0  0  0  0  0
  -18.3030  -27.6750   22.6500 C   0  0  0  0  0  0  0  0  0  0  0  0
  -20.8220  -28.1210   23.0170 C   0  0  0  0  0  3  0  0  0  0  0  0
  -21.0530  -26.7180   22.4100 C   0  0  0  0  0  2  0  0  0  0  0  0
  -20.0140  -26.3410   21.3490 C   0  0  0  0  0  2  0  0  0  0  0  0
  -18.6040  -26.3620   21.9460 C   0  0  0  0  0  2  0  0  0  0  0  0
  -19.3440  -28.5080   23.1390 C   0  0  0  0  0  0  0  0  0  0  0  0
  -19.0100  -29.7330   23.7550 C   0  0  0  0  0  3  0  0  0  0  0  0
  -17.6660  -30.1290   23.8870 C   0  0  0  0  0  3  0  0  0  0  0  0
  -16.6380  -29.2950   23.4140 C   0  0  0  0  0  3  0  0  0  0  0  0
  -16.9570  -28.0700   22.8030 C   0  0  0  0  0  3  0  0  0  0  0  0
  -25.9530  -32.4850   23.9100 C   0  0  0  0  0  3  0  0  0  0  0  0
  -25.6170  -33.8700   24.2680 N   0  0  0  0  0  0  0  0  0  0  0  0
  -25.9440  -34.9460   23.5390 C   0  0  0  0  0  0  0  0  0  0  0  0
  -26.6290  -34.8770   22.5140 O   0  0  0  0  0  0  0  0  0  0  0  0
  -25.0100  -33.9980   25.0650 H   0  0  0  0  0  0  0  0  0  0  0  0
  -24.1990  -36.7280   23.1950 C   0  0  0  0  0  1  0  0  0  0  0  0
  -25.4280  -36.3150   24.0220 C   0  0  0  0  0  3  0  0  0  0  0  0
  -27.5240  -37.2110   24.9340 C   0  0  0  0  0  1  0  0  0  0  0  0
  -26.4490  -37.3830   23.9620 N   0  0  0  0  0  0  0  0  0  0  0  0
  -26.0260  -38.2950   24.1150 H   0  0  0  0  0  0  0  0  0  0  0  0
  -26.4790  -31.6950   25.1710 C   0  0  1  0  0  0  0  0  0  0  0  0
  -25.3790  -31.3930   26.2160 C   0  0  0  0  0  1  0  0  0  0  0  0
  -27.1130  -30.3470   24.7520 C   0  0  0  0  0  1  0  0  0  0  0  0
  -27.5930  -32.5100   25.8710 C   0  0  0  0  0  1  0  0  0  0  0  0
  -29.8760  -20.0580   19.7490 C   0  0  0  0  0  2  0  0  0  0  0  0
  -31.6110  -18.4520   20.8540 C   0  0  0  0  0  1  0  0  0  0  0  0
  -30.1440  -18.6080   20.4290 C   0  0  0  0  0  3  0  0  0  0  0  0
  -29.9490  -16.0120   19.5440 C   0  0  0  0  0  3  0  0  0  0  0  0
  -29.6190  -17.3570   19.6130 C   0  0  0  0  0  0  0  0  0  0  0  0
  -28.4440  -17.7370   18.7090 C   0  0  0  0  0  1  0  0  0  0  0  0
  -30.8750  -15.0150   20.1530 C   0  0  0  0  0  0  0  0  0  0  0  0
  -30.6940  -12.7100   19.2730 C   0  0  0  0  0  2  0  0  0  0  0  0
  -29.7390  -12.7740   18.0600 C   0  0  0  0  0  2  0  0  0  0  0  0
  -28.2690  -12.6170   18.5060 C   0  0  0  0  0  2  0  0  0  0  0  0
  -27.8930  -13.5210   19.7090 C   0  0  0  0  0  3  0  0  0  0  0  0
  -28.9790  -13.4790   20.8130 C   0  0  0  0  0  2  0  0  0  0  0  0
  -30.2970  -13.7710   20.2190 N   0  0  0  0  0  0  0  0  0  0  0  0
  -32.0980  -15.1440   20.0690 O   0  0  0  0  0  0  0  0  0  0  0  0
  -25.5300  -14.1370   20.4840 C   0  0  0  0  0  0  0  0  0  0  0  0
  -24.4580  -13.3690   20.8460 C   0  0  0  0  0  0  0  0  0  0  0  0
  -24.9080  -12.0150   20.7880 C   0  0  0  0  0  0  0  0  0  0  0  0
  -26.5600  -13.2460   20.2230 N   0  0  0  0  0  0  0  0  0  0  0  0
  -26.1940  -11.9650   20.4690 N   0  0  0  0  0  0  0  0  0  0  0  0
  -24.1730  -10.7580   20.9610 C   0  0  0  0  0  0  0  0  0  0  0  0
  -24.5530   -9.8120   21.9390 C   0  0  0  0  0  3  0  0  0  0  0  0
  -23.8200   -8.6170   22.0980 C   0  0  0  0  0  3  0  0  0  0  0  0
  -22.6950   -8.3610   21.2800 C   0  0  0  0  0  0  0  0  0  0  0  0
  -22.3350   -9.2950   20.2930 C   0  0  0  0  0  3  0  0  0  0  0  0
  -23.0700  -10.4820   20.1310 C   0  0  0  0  0  3  0  0  0  0  0  0
  -21.9380   -7.2170   21.3480 O   0  0  0  0  0  0  0  0  0  0  0  0
  -21.7550   -6.5460   22.5300 C   0  0  0  0  0  0  0  0  0  0  0  0
  -21.1280   -7.1500   23.6410 C   0  0  0  0  0  3  0  0  0  0  0  0
  -20.8980   -6.4010   24.8120 C   0  0  0  0  0  3  0  0  0  0  0  0
  -21.2830   -5.0480   24.8720 C   0  0  0  0  0  0  0  0  0  0  0  0
  -21.9030   -4.4440   23.7630 C   0  0  0  0  0  3  0  0  0  0  0  0
  -22.1360   -5.1910   22.5960 C   0  0  0  0  0  0  0  0  0  0  0  0
  -22.7150   -4.5970   21.5230 F   0  0  0  0  0  0  0  0  0  0  0  0
  -21.0550   -4.3270   25.9930 F   0  0  0  0  0  0  0  0  0  0  0  0
  -23.0680  -13.8570   21.1350 C   0  0  0  0  0  0  0  0  0  0  0  0
  -22.3450  -13.1620   22.0050 N   0  0  0  0  0  0  0  0  0  0  0  0
  -22.6330  -14.8890   20.6250 O   0  0  0  0  0  0  0  0  0  0  0  0
  -22.7070  -12.3260   22.4380 H   0  0  0  0  0  0  0  0  0  0  0  0
  -21.4150  -13.4740   22.2440 H   0  0  0  0  0  0  0  0  0  0  0  0
  -25.7050  -15.5100   20.3320 N   0  0  0  0  0  0  0  0  0  0  0  0
  -24.9490  -16.1700   20.4750 H   0  0  0  0  0  0  0  0  0  0  0  0
  -26.5690  -15.9530   20.0450 H   0  0  0  0  0  0  0  0  0  0  0  0
  1  3  1  0
  2  1  1  0
  4  6  1  0
  4  2  1  0
  4  5  1  0
  5 49  1  0
  5  3  1  0
  7  8  1  0
  7  6  2  0
  9 20  2  0
 10  8  1  0
 10 15  1  0
 11 19  1  0
 11 21  1  0
 12 18  1  0
 12 14  1  0
 13 19  1  0
 14 13  1  0
 15 14  2  0
 16 17  1  0
 16 10  2  0
 17 12  2  0
 18 11  1  0
 19  9  1  0
 21 23  2  0
 22 21  1  0
 24 22  1  0
 25 34  2  0
 25 30  1  0
 26 22  1  0
 26 30  1  0
 27 26  1  0
 28 29  1  0
 28 27  1  0
 29 25  1  0
 30 31  2  0
 31 32  1  0
 33 32  2  0
 34 33  1  0
 35  9  1  0
 35 36  1  0
 35 45  1  0
 36 39  1  0
 37 41  1  0
 37 36  1  0
 38 37  2  0
 41 40  1  0
 43 41  1  0
 43 44  1  0
 43 42  1  0
 45 48  1  1
 45 46  1  0
 47 45  1  0
 49 51  1  0
 51 50  1  0
 52 53  2  0
 52 55  1  0
 53 51  1  0
 54 53  1  0
 55 61  1  0
 56 61  1  0
 57 58  1  0
 57 56  1  0
 59 58  1  0
 59 66  1  0
 59 60  1  0
 61 60  1  0
 62 55  2  0
 63 64  2  0
 64 83  1  0
 65 64  1  0
 65 68  1  0
 66 67  1  0
 66 63  1  0
 67 65  2  0
 68 69  1  0
 69 70  2  0
 71 74  1  0
 71 70  1  0
 72 71  2  0
 73 72  1  0
 73 68  2  0
 74 75  1  0
 75 80  2  0
 75 76  1  0
 76 77  2  0
 77 78  1  0
 78 82  1  0
 79 78  2  0
 80 79  1  0
 81 80  1  0
 83 84  1  0
 84 87  1  0
 84 86  1  0
 85 83  2  0
 88 89  1  0
 88 63  1  0
 90 88  1  0
M  ISO  4   7 101   8 101  52 100  55 100
M  END
>  <TORSDO>  (6) 
F 21

>  <SCORE>  (6) 
-12.935

>  <name>  (6) 
5

>  <ligand_id>  (6) 
5

>  <original_smiles>  (6) 
[H]C(C(=O)N1C([H])([H])C([H])([H])C([H])([H])C([H])(n2nc(-c3c([H])c([H])c(Oc4c([H])c([H])c(F)c([H])c4F)c([H])c3[H])c(C(=O)N([H])[H])c2N([H])[H])C1([H])[H])=C(C([H])([H])[H])C([H])(C([H])([H])[H])C([H])([H])C1([H])C([H])([H])C([H])([H])C([H])([H])C1([H])C([H])([H])C([H])([H])Oc1c([H])c([H])c2c(c1[H])C([H])([H])N(C(=O)C([H])(N([H])C(=O)C([H])(N([H])C([H])([H])[H])C([H])([H])[H])C(C([H])([H])[H])(C([H])([H])[H])C([H])([H])[H])C([H])(C(=O)N([H])C1([H])c3c([H])c([H])c([H])c([H])c3C([H])([H])C([H])([H])C1([H])[H])C2([H])[H]

>  <smiles>  (6) 
[H]C(C(=O)N1C([H])([H])C([H])([H])C([H])([H])C([H])(n2nc(-c3c([H])c([H])c(Oc4c([H])c([H])c(F)c([H])c4F)c([H])c3[H])c(C(=O)N([H])[H])c2N([H])[H])C1([H])[H])=C(C([H])([H])[H])C([H])(C([H])([H])[H])C([H])([H])C1([H])C([H])([H])C([H])([H])C([H])([H])C1([H])C([H])([H])C([H])([H])Oc1c([H])c([H])c2c(c1[H])C([H])([H])N(C(=O)C([H])(N([H])C(=O)C([H])(N([H])C([H])([H])[H])C([H])([H])[H])C(C([H])([H])[H])(C([H])([H])[H])C([H])([H])[H])C([H])(C(=O)N([H])C1([H])c3c([H])c([H])c([H])c([H])c3C([H])([H])C([H])([H])C1([H])[H])C2([H])[H]

$$$$
6:0:0
     RDKit          3D

 91 99  0  0  1  0  0  0  0  0999 V2000
  -31.0750  -20.9650   19.7560 C   0  0  0  0  0  1  0  0  0  0  0  0
  -29.6330  -20.6420   20.1820 C   0  0  0  0  0  3  0  0  0  0  0  0
  -29.2630  -19.1710   19.7350 N   0  0  0  0  0  4  0  0  0  0  0  0
  -28.9460  -19.2370   18.7790 H   0  0  0  0  0  0  0  0  0  0  0  0
  -28.4490  -18.9110   20.2700 H   0  0  0  0  0  0  0  0  0  0  0  0
  -30.2680  -17.9440   19.7920 C   0  0  0  0  0  3  0  0  0  0  0  0
  -29.7250  -16.3660   19.7310 C   0  0  0  0  0  2  0  0  0  0  0  0
  -30.6520  -15.0010   19.7400 C   0  0  0  0  0  0  0  0  0  0  0  0
  -30.5460  -12.6220   18.9220 C   0  0  0  0  0  2  0  0  0  0  0  0
  -29.5570  -12.5640   17.7310 C   0  0  0  0  0  2  0  0  0  0  0  0
  -28.1090  -12.3780   18.2260 C   0  0  0  0  0  2  0  0  0  0  0  0
  -27.7540  -13.3430   19.3850 C   0  0  0  0  0  3  0  0  0  0  0  0
  -28.8510  -13.3530   20.4670 C   0  0  0  0  0  2  0  0  0  0  0  0
  -30.1120  -13.7250   19.8160 N   0  0  0  0  0  0  0  0  0  0  0  0
  -31.8460  -15.0920   19.4320 O   0  0  0  0  0  0  0  0  0  0  0  0
  -25.4160  -13.9640   20.2320 C   0  0  0  0  0  0  0  0  0  0  0  0
  -24.3620  -13.2050   20.6590 C   0  0  0  0  0  0  0  0  0  0  0  0
  -24.8090  -11.8480   20.6150 C   0  0  0  0  0  0  0  0  0  0  0  0
  -26.4350  -13.0720   19.9470 N   0  0  0  0  0  0  0  0  0  0  0  0
  -26.0820  -11.7940   20.2440 N   0  0  0  0  0  0  0  0  0  0  0  0
  -24.0790  -10.5950   20.8470 C   0  0  0  0  0  0  0  0  0  0  0  0
  -24.5380   -9.6320   21.7740 C   0  0  0  0  0  3  0  0  0  0  0  0
  -23.8070   -8.4450   21.9920 C   0  0  0  0  0  3  0  0  0  0  0  0
  -22.6030   -8.2110   21.2850 C   0  0  0  0  0  0  0  0  0  0  0  0
  -22.1650   -9.1630   20.3460 C   0  0  0  0  0  3  0  0  0  0  0  0
  -22.8960  -10.3400   20.1260 C   0  0  0  0  0  3  0  0  0  0  0  0
  -21.8400   -7.0760   21.4150 O   0  0  0  0  0  0  0  0  0  0  0  0
  -21.8130   -6.3580   22.5840 C   0  0  0  0  0  0  0  0  0  0  0  0
  -21.4370   -6.9450   23.8120 C   0  0  0  0  0  3  0  0  0  0  0  0
  -21.3540   -6.1540   24.9740 C   0  0  0  0  0  3  0  0  0  0  0  0
  -21.6370   -4.7770   24.9110 C   0  0  0  0  0  0  0  0  0  0  0  0
  -22.0040   -4.1890   23.6880 C   0  0  0  0  0  3  0  0  0  0  0  0
  -22.0890   -4.9770   22.5270 C   0  0  0  0  0  0  0  0  0  0  0  0
  -22.4240   -4.4010   21.3480 F   0  0  0  0  0  0  0  0  0  0  0  0
  -21.5480   -4.0150   26.0260 F   0  0  0  0  0  0  0  0  0  0  0  0
  -22.9840  -13.6990   20.9930 C   0  0  0  0  0  0  0  0  0  0  0  0
  -22.2940  -13.0240   21.9050 N   0  0  0  0  0  0  0  0  0  0  0  0
  -22.5290  -14.7200   20.4770 O   0  0  0  0  0  0  0  0  0  0  0  0
  -22.6740  -12.1950   22.3380 H   0  0  0  0  0  0  0  0  0  0  0  0
  -21.3730  -13.3390   22.1740 H   0  0  0  0  0  0  0  0  0  0  0  0
  -25.5850  -15.3320   20.0380 N   0  0  0  0  0  0  0  0  0  0  0  0
  -24.8270  -15.9910   20.1780 H   0  0  0  0  0  0  0  0  0  0  0  0
  -26.4110  -15.7570   19.6380 H   0  0  0  0  0  0  0  0  0  0  0  0
  -31.2450  -18.0930   20.9880 C   0  0  0  0  0  2  0  0  0  0  0  0
  -30.4640  -16.6730   23.0990 C   0  0  0  0  0  2  0  0  0  0  0  0
  -31.4060  -17.7370   23.6020 C   0  0  0  0  0  2  0  0  0  0  0  0
  -30.5810  -17.9880   22.3580 C   0  0  0  0  0  3  0  0  0  0  0  0
  -28.6770  -21.9530   19.7830 C   0  0  0  0  0  2  0  0  0  0  0  0
  -28.9900  -23.5350   20.2290 C   0  0  0  0  0  3  0  0  0  0  0  0
  -27.9960  -24.8200   19.8900 C   0  0  0  0  0  3  0  0  0  0  0  0
  -28.2620  -26.3060   20.1890 O   0  0  0  0  0  0  0  0  0  0  0  0
  -24.6450  -31.8800   23.2770 C   0  0  0  0  0  0  0  0  0  0  0  0
  -27.1980  -27.2660   20.1330 C   0  0  0  0  0  0  0  0  0  0  0  0
  -23.4330  -30.5280   21.6080 C   0  0  0  0  0  3  0  0  0  0  0  0
  -24.8710  -28.9900   20.1440 C   0  0  0  0  0  0  0  0  0  0  0  0
  -25.9840  -30.8020   21.4360 C   0  0  0  0  0  2  0  0  0  0  0  0
  -26.0520  -29.4270   20.7600 C   0  0  0  0  0  0  0  0  0  0  0  0
  -27.2170  -28.5790   20.7400 C   0  0  0  0  0  3  0  0  0  0  0  0
  -25.9930  -26.9230   19.4780 C   0  0  0  0  0  3  0  0  0  0  0  0
  -24.8540  -27.7510   19.4850 C   0  0  0  0  0  3  0  0  0  0  0  0
  -23.6460  -29.8820   20.2130 C   0  0  0  0  0  2  0  0  0  0  0  0
  -24.7080  -31.0870   22.1640 N   0  0  0  0  0  0  0  0  0  0  0  0
  -23.5600  -32.1550   23.8150 O   0  0  0  0  0  0  0  0  0  0  0  0
  -22.7560  -29.4990   22.5480 C   0  0  0  0  0  0  0  0  0  0  0  0
  -21.4270  -29.3410   22.4220 N   0  0  0  0  0  0  0  0  0  0  0  0
  -23.4290  -28.8490   23.3520 O   0  0  0  0  0  0  0  0  0  0  0  0
  -20.9430  -29.9150   21.7470 H   0  0  0  0  0  0  0  0  0  0  0  0
  -18.0390  -28.1550   22.9060 C   0  0  0  0  0  0  0  0  0  0  0  0
  -20.6010  -28.3900   23.1720 C   0  0  0  0  0  3  0  0  0  0  0  0
  -20.6890  -26.9710   22.5620 C   0  0  0  0  0  2  0  0  0  0  0  0
  -19.5810  -26.6820   21.5450 C   0  0  0  0  0  2  0  0  0  0  0  0
  -18.2030  -26.8220   22.1960 C   0  0  0  0  0  2  0  0  0  0  0  0
  -19.1650  -28.8990   23.3510 C   0  0  0  0  0  0  0  0  0  0  0  0
  -18.9570  -30.1470   23.9750 C   0  0  0  0  0  3  0  0  0  0  0  0
  -17.6560  -30.6530   24.1590 C   0  0  0  0  0  3  0  0  0  0  0  0
  -16.5450  -29.9060   23.7290 C   0  0  0  0  0  3  0  0  0  0  0  0
  -16.7370  -28.6600   23.1080 C   0  0  0  0  0  3  0  0  0  0  0  0
  -25.9270  -32.4940   23.9160 C   0  0  0  0  0  3  0  0  0  0  0  0
  -25.6270  -33.8900   24.2710 N   0  0  0  0  0  0  0  0  0  0  0  0
  -25.9510  -34.9520   23.5240 C   0  0  0  0  0  0  0  0  0  0  0  0
  -26.6030  -34.8620   22.4790 O   0  0  0  0  0  0  0  0  0  0  0  0
  -25.0490  -34.0350   25.0860 H   0  0  0  0  0  0  0  0  0  0  0  0
  -24.2160  -36.7540   23.2440 C   0  0  0  0  0  1  0  0  0  0  0  0
  -25.4800  -36.3370   24.0110 C   0  0  0  0  0  3  0  0  0  0  0  0
  -27.6400  -37.2130   24.7870 C   0  0  0  0  0  1  0  0  0  0  0  0
  -26.5100  -37.3910   23.8790 N   0  0  0  0  0  0  0  0  0  0  0  0
  -26.1100  -38.3100   24.0490 H   0  0  0  0  0  0  0  0  0  0  0  0
  -26.4290  -31.6990   25.1840 C   0  0  1  0  0  0  0  0  0  0  0  0
  -25.3260  -31.4510   26.2410 C   0  0  0  0  0  1  0  0  0  0  0  0
  -27.0050  -30.3240   24.7730 C   0  0  0  0  0  1  0  0  0  0  0  0
  -27.5870  -32.4700   25.8620 C   0  0  0  0  0  1  0  0  0  0  0  0
  2  1  1  0
  3  6  1  0
  3  2  1  0
  3  5  1  0
  4  3  1  0
  6  7  1  0
  6 44  1  0
  7  8  1  0
  8 14  1  0
  9 14  1  0
 10 11  1  0
 10  9  1  0
 12 11  1  0
 12 19  1  0
 12 13  1  0
 14 13  1  0
 15  8  2  0
 16 17  2  0
 17 36  1  0
 18 17  1  0
 18 21  1  0
 19 16  1  0
 19 20  1  0
 20 18  2  0
 21 22  1  0
 22 23  2  0
 24 27  1  0
 24 23  1  0
 25 24  2  0
 26 25  1  0
 26 21  2  0
 27 28  1  0
 28 29  1  0
 29 30  2  0
 31 30  1  0
 31 35  1  0
 32 31  2  0
 33 28  2  0
 33 32  1  0
 34 33  1  0
 36 37  1  0
 37 40  1  0
 37 39  1  0
 38 36  2  0
 41 42  1  0
 41 16  1  0
 43 41  1  0
 44 47  1  0
 45 46  1  0
 47 45  1  0
 47 46  1  0
 48  2  1  0
 48 49  1  0
 50 51  1  0
 50 49  2  0
 52 63  2  0
 53 51  1  0
 53 58  1  0
 54 62  1  0
 54 64  1  0
 55 61  1  0
 55 57  1  0
 56 62  1  0
 57 56  1  0
 58 57  2  0
 59 60  1  0
 59 53  2  0
 60 55  2  0
 61 54  1  0
 62 52  1  0
 64 66  2  0
 65 64  1  0
 67 65  1  0
 68 77  2  0
 68 73  1  0
 69 65  1  0
 69 73  1  0
 70 69  1  0
 71 72  1  0
 71 70  1  0
 72 68  1  0
 73 74  2  0
 74 75  1  0
 76 75  2  0
 77 76  1  0
 78 52  1  0
 78 79  1  0
 78 88  1  0
 79 82  1  0
 80 84  1  0
 80 79  1  0
 81 80  2  0
 84 83  1  0
 86 84  1  0
 86 87  1  0
 86 85  1  0
 88 91  1  1
 88 89  1  0
 90 88  1  0
M  ISO  4   7 100   8 100  50 101  51 101
M  END
>  <TORSDO>  (7) 
F 24

>  <SCORE>  (7) 
-10.589

>  <name>  (7) 
6

>  <ligand_id>  (7) 
6

>  <original_smiles>  (7) 
[H]c1c([H])c([H])c2c(c1[H])C([H])([H])C([H])([H])C([H])([H])C2([H])N([H])C(=O)C1([H])N(C(=O)C([H])(N([H])C(=O)C([H])(N([H])C([H])([H])[H])C([H])([H])[H])C(C([H])([H])[H])(C([H])([H])[H])C([H])([H])[H])C([H])([H])c2c([H])c(OC([H])([H])C([H])([H])C([H])([H])C([H])(C([H])([H])[H])[N+]([H])([H])C([H])(C([H])([H])C(=O)N3C([H])([H])C([H])([H])C([H])([H])C([H])(n4nc(-c5c([H])c([H])c(Oc6c([H])c([H])c(F)c([H])c6F)c([H])c5[H])c(C(=O)N([H])[H])c4N([H])[H])C3([H])[H])C([H])([H])C3([H])C([H])([H])C3([H])[H])c([H])c([H])c2C1([H])[H]

>  <smiles>  (7) 
[H]c1c([H])c([H])c2c(c1[H])C([H])([H])C([H])([H])C([H])([H])C2([H])N([H])C(=O)C1([H])N(C(=O)C([H])(N([H])C(=O)C([H])(N([H])C([H])([H])[H])C([H])([H])[H])C(C([H])([H])[H])(C([H])([H])[H])C([H])([H])[H])C([H])([H])c2c([H])c(OC([H])([H])C([H])([H])C([H])([H])C([H])(C([H])([H])[H])[N+]([H])([H])C([H])(C([H])([H])C(=O)N3C([H])([H])C([H])([H])C([H])([H])C([H])(n4nc(-c5c([H])c([H])c(Oc6c([H])c([H])c(F)c([H])c6F)c([H])c5[H])c(C(=O)N([H])[H])c4N([H])[H])C3([H])[H])C([H])([H])C3([H])C([H])([H])C3([H])[H])c([H])c([H])c2C1([H])[H]

$$$$
7:0:0
     RDKit          3D

 92101  0  0  1  0  0  0  0  0999 V2000
  -27.2950  -22.7600   22.0280 C   0  0  0  0  0  2  0  0  0  0  0  0
  -26.8690  -22.2900   20.6180 C   0  0  0  0  0  2  0  0  0  0  0  0
  -28.5450  -23.6260   21.7100 C   0  0  0  0  0  3  0  0  0  0  0  0
  -28.0250  -22.8420   19.7480 C   0  0  0  0  0  3  0  0  0  0  0  0
  -29.6760  -22.5220   21.3620 C   0  0  0  0  0  3  0  0  0  0  0  0
  -29.2460  -21.6830   20.0880 C   0  0  0  0  0  3  0  0  0  0  0  0
  -28.0220  -24.4210   20.4500 C   0  0  0  0  0  3  0  0  0  0  0  0
  -31.0350  -23.2110   21.1570 C   0  0  0  0  0  1  0  0  0  0  0  0
  -29.0410  -20.0230   20.2410 N   0  0  0  0  0  4  0  0  0  0  0  0
  -28.2970  -19.8250   19.5910 H   0  0  0  0  0  0  0  0  0  0  0  0
  -28.6360  -19.8980   21.1550 H   0  0  0  0  0  0  0  0  0  0  0  0
  -30.0610  -18.7130   20.0600 C   0  0  0  0  0  3  0  0  0  0  0  0
  -32.1180  -19.4950   18.6680 C   0  0  0  0  0  1  0  0  0  0  0  0
  -30.7400  -18.8090   18.6690 C   0  0  0  0  0  2  0  0  0  0  0  0
  -29.6880  -16.9710   20.3520 C   0  0  0  0  0  2  0  0  0  0  0  0
  -30.5620  -15.4610   20.1520 C   0  0  0  0  0  0  0  0  0  0  0  0
  -30.5850  -13.0010   19.3050 C   0  0  0  0  0  2  0  0  0  0  0  0
  -29.6410  -12.8130   18.0900 C   0  0  0  0  0  2  0  0  0  0  0  0
  -28.1930  -12.5410   18.5400 C   0  0  0  0  0  2  0  0  0  0  0  0
  -27.7580  -13.4760   19.6970 C   0  0  0  0  0  3  0  0  0  0  0  0
  -28.8340  -13.6140   20.7960 C   0  0  0  0  0  2  0  0  0  0  0  0
  -30.0580  -14.1270   20.1580 N   0  0  0  0  0  0  0  0  0  0  0  0
  -31.7650  -15.4940   19.8590 O   0  0  0  0  0  0  0  0  0  0  0  0
  -25.4030  -13.9840   20.5350 C   0  0  0  0  0  0  0  0  0  0  0  0
  -24.3590  -13.1850   20.9120 C   0  0  0  0  0  0  0  0  0  0  0  0
  -24.8380  -11.8420   20.8310 C   0  0  0  0  0  0  0  0  0  0  0  0
  -26.4480  -13.1280   20.2360 N   0  0  0  0  0  0  0  0  0  0  0  0
  -26.1210  -11.8320   20.4830 N   0  0  0  0  0  0  0  0  0  0  0  0
  -24.1270  -10.5680   21.0080 C   0  0  0  0  0  0  0  0  0  0  0  0
  -24.5470   -9.6100   21.9570 C   0  0  0  0  0  3  0  0  0  0  0  0
  -23.8290   -8.4050   22.1210 C   0  0  0  0  0  3  0  0  0  0  0  0
  -22.6800   -8.1470   21.3370 C   0  0  0  0  0  0  0  0  0  0  0  0
  -22.2810   -9.0950   20.3780 C   0  0  0  0  0  3  0  0  0  0  0  0
  -22.9990  -10.2910   20.2100 C   0  0  0  0  0  3  0  0  0  0  0  0
  -21.9380   -6.9920   21.4100 O   0  0  0  0  0  0  0  0  0  0  0  0
  -21.8070   -6.2930   22.5830 C   0  0  0  0  0  0  0  0  0  0  0  0
  -21.2340   -6.8710   23.7370 C   0  0  0  0  0  3  0  0  0  0  0  0
  -21.0560   -6.0930   24.8990 C   0  0  0  0  0  3  0  0  0  0  0  0
  -21.4430   -4.7400   24.9070 C   0  0  0  0  0  0  0  0  0  0  0  0
  -22.0100   -4.1620   23.7590 C   0  0  0  0  0  3  0  0  0  0  0  0
  -22.1890   -4.9360   22.5980 C   0  0  0  0  0  0  0  0  0  0  0  0
  -22.7150   -4.3680   21.4860 F   0  0  0  0  0  0  0  0  0  0  0  0
  -21.2660   -3.9900   26.0200 F   0  0  0  0  0  0  0  0  0  0  0  0
  -22.9660  -13.6440   21.2290 C   0  0  0  0  0  0  0  0  0  0  0  0
  -22.2640  -12.9150   22.0910 N   0  0  0  0  0  0  0  0  0  0  0  0
  -22.5100  -14.6810   20.7510 O   0  0  0  0  0  0  0  0  0  0  0  0
  -22.6460  -12.0750   22.5020 H   0  0  0  0  0  0  0  0  0  0  0  0
  -21.3310  -13.2030   22.3450 H   0  0  0  0  0  0  0  0  0  0  0  0
  -25.5450  -15.3610   20.3950 N   0  0  0  0  0  0  0  0  0  0  0  0
  -24.7730  -15.9990   20.5520 H   0  0  0  0  0  0  0  0  0  0  0  0
  -26.3800  -15.8250   20.0600 H   0  0  0  0  0  0  0  0  0  0  0  0
  -28.2340  -26.0410   20.1790 O   0  0  0  0  0  0  0  0  0  0  0  0
  -24.6400  -31.9490   23.2500 C   0  0  0  0  0  0  0  0  0  0  0  0
  -27.2000  -27.1190   20.1810 C   0  0  0  0  0  0  0  0  0  0  0  0
  -23.4320  -30.5660   21.6100 C   0  0  0  0  0  3  0  0  0  0  0  0
  -24.8810  -28.9780   20.1640 C   0  0  0  0  0  0  0  0  0  0  0  0
  -25.9960  -30.7950   21.4380 C   0  0  0  0  0  2  0  0  0  0  0  0
  -26.0730  -29.3900   20.7730 C   0  0  0  0  0  0  0  0  0  0  0  0
  -27.2280  -28.4860   20.7490 C   0  0  0  0  0  3  0  0  0  0  0  0
  -25.9730  -26.8560   19.5290 C   0  0  0  0  0  3  0  0  0  0  0  0
  -24.8560  -27.7310   19.5210 C   0  0  0  0  0  3  0  0  0  0  0  0
  -23.6560  -29.8910   20.2260 C   0  0  0  0  0  2  0  0  0  0  0  0
  -24.7120  -31.1270   22.1540 N   0  0  0  0  0  0  0  0  0  0  0  0
  -23.5530  -32.2280   23.7840 O   0  0  0  0  0  0  0  0  0  0  0  0
  -22.7550  -29.5550   22.5730 C   0  0  0  0  0  0  0  0  0  0  0  0
  -21.4280  -29.3600   22.4380 N   0  0  0  0  0  0  0  0  0  0  0  0
  -23.4260  -28.9470   23.4100 O   0  0  0  0  0  0  0  0  0  0  0  0
  -20.9410  -29.9060   21.7420 H   0  0  0  0  0  0  0  0  0  0  0  0
  -18.0750  -28.0610   22.9070 C   0  0  0  0  0  0  0  0  0  0  0  0
  -20.6210  -28.4060   23.2060 C   0  0  0  0  0  3  0  0  0  0  0  0
  -20.7730  -26.9720   22.6500 C   0  0  0  0  0  2  0  0  0  0  0  0
  -19.6970  -26.6050   21.6210 C   0  0  0  0  0  2  0  0  0  0  0  0
  -18.3020  -26.7130   22.2450 C   0  0  0  0  0  2  0  0  0  0  0  0
  -19.1630  -28.8620   23.3460 C   0  0  0  0  0  0  0  0  0  0  0  0
  -18.8970  -30.1200   23.9310 C   0  0  0  0  0  3  0  0  0  0  0  0
  -17.5740  -30.5780   24.0790 C   0  0  0  0  0  3  0  0  0  0  0  0
  -16.5000  -29.7750   23.6560 C   0  0  0  0  0  3  0  0  0  0  0  0
  -16.7510  -28.5190   23.0760 C   0  0  0  0  0  3  0  0  0  0  0  0
  -25.9120  -32.5940   23.8780 C   0  0  0  0  0  3  0  0  0  0  0  0
  -26.4120  -31.8400   25.1720 C   0  0  1  0  0  0  0  0  0  0  0  0
  -25.3080  -31.6190   26.2350 C   0  0  0  0  0  1  0  0  0  0  0  0
  -26.9970  -30.4550   24.8140 C   0  0  0  0  0  1  0  0  0  0  0  0
  -27.5570  -32.6410   25.8360 C   0  0  0  0  0  1  0  0  0  0  0  0
  -25.5970  -33.9970   24.2040 N   0  0  0  0  0  0  0  0  0  0  0  0
  -25.9170  -35.0510   23.4430 C   0  0  0  0  0  0  0  0  0  0  0  0
  -26.5730  -34.9460   22.4040 O   0  0  0  0  0  0  0  0  0  0  0  0
  -25.0110  -34.1540   25.0100 H   0  0  0  0  0  0  0  0  0  0  0  0
  -24.1830  -36.8500   23.1190 C   0  0  0  0  0  1  0  0  0  0  0  0
  -25.4380  -36.4430   23.9080 C   0  0  0  0  0  3  0  0  0  0  0  0
  -27.5830  -37.3390   24.7030 C   0  0  0  0  0  1  0  0  0  0  0  0
  -26.4680  -37.4970   23.7740 N   0  0  0  0  0  0  0  0  0  0  0  0
  -26.0630  -38.4190   23.9190 H   0  0  0  0  0  0  0  0  0  0  0  0
  2  1  1  0
  3  1  1  0
  4  6  1  0
  4  7  1  0
  4  2  1  0
  5  8  1  0
  5  3  1  0
  6  9  1  0
  6  5  1  0
  7 52  1  0
  7  3  1  0
  9 11  1  0
 10  9  1  0
 12 14  1  0
 12  9  1  0
 12 15  1  0
 13 14  1  0
 16 22  1  0
 16 15  1  0
 17 22  1  0
 18 19  1  0
 18 17  1  0
 20 19  1  0
 20 27  1  0
 20 21  1  0
 22 21  1  0
 23 16  2  0
 24 25  2  0
 25 44  1  0
 26 25  1  0
 26 29  1  0
 27 28  1  0
 27 24  1  0
 28 26  2  0
 29 30  1  0
 30 31  2  0
 32 35  1  0
 32 31  1  0
 33 32  2  0
 34 33  1  0
 34 29  2  0
 35 36  1  0
 36 41  2  0
 36 37  1  0
 37 38  2  0
 38 39  1  0
 39 43  1  0
 40 39  2  0
 41 40  1  0
 42 41  1  0
 44 45  1  0
 45 48  1  0
 45 47  1  0
 46 44  2  0
 49 24  1  0
 49 50  1  0
 51 49  1  0
 52 54  1  0
 53 64  2  0
 54 59  1  0
 55 63  1  0
 55 65  1  0
 56 62  1  0
 56 58  1  0
 57 63  1  0
 58 57  1  0
 59 58  2  0
 60 54  2  0
 61 60  1  0
 61 56  2  0
 62 55  1  0
 63 53  1  0
 65 67  2  0
 66 65  1  0
 68 66  1  0
 69 78  2  0
 69 74  1  0
 70 66  1  0
 70 74  1  0
 71 70  1  0
 72 73  1  0
 72 71  1  0
 73 69  1  0
 74 75  2  0
 75 76  1  0
 77 76  2  0
 78 77  1  0
 79 53  1  0
 79 84  1  0
 79 80  1  0
 80 83  1  1
 80 81  1  0
 82 80  1  0
 84 87  1  0
 85 89  1  0
 85 84  1  0
 86 85  2  0
 89 88  1  0
 91 89  1  0
 91 92  1  0
 91 90  1  0
M  ISO  4   7 101  15 100  16 100  52 101
M  END
>  <TORSDO>  (8) 
F 20

>  <SCORE>  (8) 
-15.401

>  <name>  (8) 
7

>  <ligand_id>  (8) 
7

>  <original_smiles>  (8) 
[H]c1c([H])c([H])c2c(c1[H])C([H])([H])C([H])([H])C([H])([H])C2([H])N([H])C(=O)C1([H])N(C(=O)C([H])(N([H])C(=O)C([H])(N([H])C([H])([H])[H])C([H])([H])[H])C(C([H])([H])[H])(C([H])([H])[H])C([H])([H])[H])C([H])([H])c2c([H])c(OC3([H])C4([H])C([H])([H])C([H])([H])C3([H])C([H])([N+]([H])([H])C([H])(C([H])([H])C(=O)N3C([H])([H])C([H])([H])C([H])([H])C([H])(n5nc(-c6c([H])c([H])c(Oc7c([H])c([H])c(F)c([H])c7F)c([H])c6[H])c(C(=O)N([H])[H])c5N([H])[H])C3([H])[H])C([H])([H])C([H])([H])[H])C4([H])C([H])([H])[H])c([H])c([H])c2C1([H])[H]

>  <smiles>  (8) 
[H]c1c([H])c([H])c2c(c1[H])C([H])([H])C([H])([H])C([H])([H])C2([H])N([H])C(=O)C1([H])N(C(=O)C([H])(N([H])C(=O)C([H])(N([H])C([H])([H])[H])C([H])([H])[H])C(C([H])([H])[H])(C([H])([H])[H])C([H])([H])[H])C([H])([H])c2c([H])c(OC3([H])C4([H])C([H])([H])C([H])([H])C3([H])C([H])([N+]([H])([H])C([H])(C([H])([H])C(=O)N3C([H])([H])C([H])([H])C([H])([H])C([H])(n5nc(-c6c([H])c([H])c(Oc7c([H])c([H])c(F)c([H])c7F)c([H])c6[H])c(C(=O)N([H])[H])c5N([H])[H])C3([H])[H])C([H])([H])C([H])([H])[H])C4([H])C([H])([H])[H])c([H])c([H])c2C1([H])[H]

$$$$
8:0:0
     RDKit          3D

 91 99  0  0  1  0  0  0  0  0999 V2000
  -31.2490  -22.8080   18.2600 C   0  0  0  0  0  2  0  0  0  0  0  0
  -31.7440  -23.6960   19.4200 C   0  0  0  0  0  2  0  0  0  0  0  0
  -29.8710  -22.1560   18.5190 C   0  0  0  0  0  2  0  0  0  0  0  0
  -30.6170  -24.5840   19.9800 C   0  0  0  0  0  2  0  0  0  0  0  0
  -29.4550  -22.2510   20.0030 C   0  0  0  0  0  3  0  0  0  0  0  0
  -29.3280  -23.8330   20.4330 C   0  0  0  0  0  3  0  0  0  0  0  0
  -28.4550  -21.1010   20.4760 C   0  0  0  0  0  2  0  0  0  0  0  0
  -27.3460  -18.7590   20.3910 C   0  0  0  0  0  1  0  0  0  0  0  0
  -28.6400  -19.5370   20.0750 C   0  0  0  0  0  3  0  0  0  0  0  0
  -29.9180  -18.7280   20.5940 C   0  0  0  0  0  2  0  0  0  0  0  0
  -31.1880  -17.0290   22.0130 C   0  0  0  0  0  1  0  0  0  0  0  0
  -29.9180  -17.2090   21.1580 C   0  0  0  0  0  3  0  0  0  0  0  0
  -29.7060  -15.9690   20.1580 C   0  0  0  0  0  2  0  0  0  0  0  0
  -30.5490  -14.6030   20.1850 C   0  0  0  0  0  0  0  0  0  0  0  0
  -30.3490  -12.3070   19.2560 C   0  0  0  0  0  2  0  0  0  0  0  0
  -29.4120  -12.3810   18.0290 C   0  0  0  0  0  2  0  0  0  0  0  0
  -27.9380  -12.2250   18.4540 C   0  0  0  0  0  2  0  0  0  0  0  0
  -27.5690  -13.1320   19.6580 C   0  0  0  0  0  3  0  0  0  0  0  0
  -28.6290  -13.0720   20.7790 C   0  0  0  0  0  2  0  0  0  0  0  0
  -29.9360  -13.3750   20.1900 N   0  0  0  0  0  0  0  0  0  0  0  0
  -31.7470  -14.6800   19.8970 O   0  0  0  0  0  0  0  0  0  0  0  0
  -25.1990  -13.7550   20.4110 C   0  0  0  0  0  0  0  0  0  0  0  0
  -24.1320  -12.9950   20.7980 C   0  0  0  0  0  0  0  0  0  0  0  0
  -24.5810  -11.6380   20.7690 C   0  0  0  0  0  0  0  0  0  0  0  0
  -26.2300  -12.8630   20.1650 N   0  0  0  0  0  0  0  0  0  0  0  0
  -25.8670  -11.5860   20.4470 N   0  0  0  0  0  0  0  0  0  0  0  0
  -23.8470  -10.3850   20.9750 C   0  0  0  0  0  0  0  0  0  0  0  0
  -24.2910   -9.4170   21.9010 C   0  0  0  0  0  3  0  0  0  0  0  0
  -23.5610   -8.2260   22.0980 C   0  0  0  0  0  3  0  0  0  0  0  0
  -22.3710   -7.9940   21.3660 C   0  0  0  0  0  0  0  0  0  0  0  0
  -21.9450   -8.9520   20.4290 C   0  0  0  0  0  3  0  0  0  0  0  0
  -22.6740  -10.1350   20.2310 C   0  0  0  0  0  3  0  0  0  0  0  0
  -21.6110   -6.8550   21.4700 O   0  0  0  0  0  0  0  0  0  0  0  0
  -21.5880   -6.1050   22.6190 C   0  0  0  0  0  0  0  0  0  0  0  0
  -21.2250   -6.6610   23.8650 C   0  0  0  0  0  3  0  0  0  0  0  0
  -21.1490   -5.8390   25.0070 C   0  0  0  0  0  3  0  0  0  0  0  0
  -21.4240   -4.4610   24.9040 C   0  0  0  0  0  0  0  0  0  0  0  0
  -21.7810   -3.9060   23.6620 C   0  0  0  0  0  3  0  0  0  0  0  0
  -21.8620   -4.7260   22.5240 C   0  0  0  0  0  0  0  0  0  0  0  0
  -22.1850   -4.1800   21.3250 F   0  0  0  0  0  0  0  0  0  0  0  0
  -21.3430   -3.6700   26.0000 F   0  0  0  0  0  0  0  0  0  0  0  0
  -22.7420  -13.4860   21.0840 C   0  0  0  0  0  0  0  0  0  0  0  0
  -22.0180  -12.8070   21.9650 N   0  0  0  0  0  0  0  0  0  0  0  0
  -22.3060  -14.5080   20.5540 O   0  0  0  0  0  0  0  0  0  0  0  0
  -22.3870  -11.9830   22.4180 H   0  0  0  0  0  0  0  0  0  0  0  0
  -21.0830  -13.1140   22.1920 H   0  0  0  0  0  0  0  0  0  0  0  0
  -25.3730  -15.1250   20.2260 N   0  0  0  0  0  0  0  0  0  0  0  0
  -24.6060  -15.7760   20.3510 H   0  0  0  0  0  0  0  0  0  0  0  0
  -26.2120  -15.5690   19.8790 H   0  0  0  0  0  0  0  0  0  0  0  0
  -28.0930  -24.8010   20.0530 C   0  0  0  0  0  2  0  0  0  0  0  0
  -28.2680  -26.2940   20.1930 O   0  0  0  0  0  0  0  0  0  0  0  0
  -24.5710  -31.7810   23.1270 C   0  0  0  0  0  0  0  0  0  0  0  0
  -27.1560  -27.1620   20.1200 C   0  0  0  0  0  0  0  0  0  0  0  0
  -23.3580  -30.3770   21.4970 C   0  0  0  0  0  3  0  0  0  0  0  0
  -24.8010  -28.8060   20.0820 C   0  0  0  0  0  0  0  0  0  0  0  0
  -25.8990  -30.6870   21.2990 C   0  0  0  0  0  2  0  0  0  0  0  0
  -25.9740  -29.2970   20.6670 C   0  0  0  0  0  0  0  0  0  0  0  0
  -27.1540  -28.4870   20.6720 C   0  0  0  0  0  3  0  0  0  0  0  0
  -25.9540  -26.7280   19.5170 C   0  0  0  0  0  3  0  0  0  0  0  0
  -24.7950  -27.5290   19.4960 C   0  0  0  0  0  3  0  0  0  0  0  0
  -23.5660  -29.6830   20.1250 C   0  0  0  0  0  2  0  0  0  0  0  0
  -24.6290  -30.9710   22.0300 N   0  0  0  0  0  0  0  0  0  0  0  0
  -23.4880  -32.0660   23.6610 O   0  0  0  0  0  0  0  0  0  0  0  0
  -22.6900  -29.3740   22.4690 C   0  0  0  0  0  0  0  0  0  0  0  0
  -21.3600  -29.2200   22.3600 N   0  0  0  0  0  0  0  0  0  0  0  0
  -23.3680  -28.7380   23.2790 O   0  0  0  0  0  0  0  0  0  0  0  0
  -20.8750  -29.7840   21.6770 H   0  0  0  0  0  0  0  0  0  0  0  0
  -17.9690  -28.0810   22.8970 C   0  0  0  0  0  0  0  0  0  0  0  0
  -20.5360  -28.2920   23.1350 C   0  0  0  0  0  3  0  0  0  0  0  0
  -20.6020  -26.8630   22.5450 C   0  0  0  0  0  2  0  0  0  0  0  0
  -19.4790  -26.5680   21.5450 C   0  0  0  0  0  2  0  0  0  0  0  0
  -18.1100  -26.7340   22.2100 C   0  0  0  0  0  2  0  0  0  0  0  0
  -19.1060  -28.8200   23.3170 C   0  0  0  0  0  0  0  0  0  0  0  0
  -18.9170  -30.0840   23.9190 C   0  0  0  0  0  3  0  0  0  0  0  0
  -17.6220  -30.6040   24.1090 C   0  0  0  0  0  3  0  0  0  0  0  0
  -16.4990  -29.8610   23.7060 C   0  0  0  0  0  3  0  0  0  0  0  0
  -16.6740  -28.6020   23.1030 C   0  0  0  0  0  3  0  0  0  0  0  0
  -25.8550  -32.4070   23.7530 C   0  0  0  0  0  3  0  0  0  0  0  0
  -25.5390  -33.7970   24.1130 N   0  0  0  0  0  0  0  0  0  0  0  0
  -25.8660  -34.8680   23.3780 C   0  0  0  0  0  0  0  0  0  0  0  0
  -26.5320  -34.7920   22.3420 O   0  0  0  0  0  0  0  0  0  0  0  0
  -24.9300  -33.9290   24.9060 H   0  0  0  0  0  0  0  0  0  0  0  0
  -24.1240  -36.6640   23.0870 C   0  0  0  0  0  1  0  0  0  0  0  0
  -25.3800  -36.2460   23.8720 C   0  0  0  0  0  3  0  0  0  0  0  0
  -27.5270  -37.1220   24.6830 C   0  0  0  0  0  1  0  0  0  0  0  0
  -26.4060  -37.3070   23.7640 N   0  0  0  0  0  0  0  0  0  0  0  0
  -25.9970  -38.2200   23.9420 H   0  0  0  0  0  0  0  0  0  0  0  0
  -26.3850  -31.6130   25.0090 C   0  0  1  0  0  0  0  0  0  0  0  0
  -25.3020  -31.3610   26.0860 C   0  0  0  0  0  1  0  0  0  0  0  0
  -26.9580  -30.2400   24.5840 C   0  0  0  0  0  1  0  0  0  0  0  0
  -27.5430  -32.3960   25.6730 C   0  0  0  0  0  1  0  0  0  0  0  0
  1  3  1  0
  1  2  1  0
  2  4  1  0
  3  5  1  0
  4  6  1  0
  5  6  1  0
  5  7  1  0
  6 50  1  0
  9  8  1  0
  9  7  1  0
  9 10  1  0
 10 12  1  0
 12 11  1  0
 13 14  1  0
 13 12  1  0
 14 20  1  0
 15 20  1  0
 16 17  1  0
 16 15  1  0
 18 17  1  0
 18 25  1  0
 18 19  1  0
 20 19  1  0
 21 14  2  0
 22 23  2  0
 23 42  1  0
 24 23  1  0
 24 27  1  0
 25 22  1  0
 25 26  1  0
 26 24  2  0
 27 28  1  0
 28 29  2  0
 30 33  1  0
 30 29  1  0
 31 30  2  0
 32 31  1  0
 32 27  2  0
 33 34  1  0
 34 35  1  0
 35 36  2  0
 37 36  1  0
 37 41  1  0
 38 37  2  0
 39 34  2  0
 39 38  1  0
 40 39  1  0
 42 43  1  0
 43 46  1  0
 43 45  1  0
 44 42  2  0
 47 48  1  0
 47 22  1  0
 49 47  1  0
 50 51  1  0
 52 63  2  0
 53 51  1  0
 53 58  1  0
 54 62  1  0
 54 64  1  0
 55 61  1  0
 55 57  1  0
 56 62  1  0
 57 58  2  0
 57 56  1  0
 59 53  2  0
 60 59  1  0
 60 55  2  0
 61 54  1  0
 62 52  1  0
 64 66  2  0
 65 64  1  0
 67 65  1  0
 68 77  2  0
 68 73  1  0
 69 65  1  0
 69 73  1  0
 70 69  1  0
 71 72  1  0
 71 70  1  0
 72 68  1  0
 73 74  2  0
 74 75  1  0
 76 75  2  0
 77 76  1  0
 78 52  1  0
 78 79  1  0
 78 88  1  0
 79 82  1  0
 80 84  1  0
 80 79  1  0
 81 80  2  0
 84 83  1  0
 86 84  1  0
 86 87  1  0
 86 85  1  0
 88 91  1  1
 88 89  1  0
 90 88  1  0
M  ISO  4  13 100  14 100  50 101  51 101
M  END
>  <TORSDO>  (9) 
F 22

>  <SCORE>  (9) 
-12.834

>  <name>  (9) 
8

>  <ligand_id>  (9) 
8

>  <original_smiles>  (9) 
[H]c1c([H])c([H])c2c(c1[H])C([H])([H])C([H])([H])C([H])([H])C2([H])N([H])C(=O)C1([H])N(C(=O)C([H])(N([H])C(=O)C([H])(N([H])C([H])([H])[H])C([H])([H])[H])C(C([H])([H])[H])(C([H])([H])[H])C([H])([H])[H])C([H])([H])c2c([H])c(OC([H])([H])C3([H])C([H])([H])C([H])([H])C([H])([H])C([H])([H])C3([H])C([H])([H])C([H])(C([H])([H])[H])C([H])([H])C([H])(C([H])([H])[H])C([H])([H])C(=O)N3C([H])([H])C([H])([H])C([H])([H])C([H])(n4nc(-c5c([H])c([H])c(Oc6c([H])c([H])c(F)c([H])c6F)c([H])c5[H])c(C(=O)N([H])[H])c4N([H])[H])C3([H])[H])c([H])c([H])c2C1([H])[H]

>  <smiles>  (9) 
[H]c1c([H])c([H])c2c(c1[H])C([H])([H])C([H])([H])C([H])([H])C2([H])N([H])C(=O)C1([H])N(C(=O)C([H])(N([H])C(=O)C([H])(N([H])C([H])([H])[H])C([H])([H])[H])C(C([H])([H])[H])(C([H])([H])[H])C([H])([H])[H])C([H])([H])c2c([H])c(OC([H])([H])C3([H])C([H])([H])C([H])([H])C([H])([H])C([H])([H])C3([H])C([H])([H])C([H])(C([H])([H])[H])C([H])([H])C([H])(C([H])([H])[H])C([H])([H])C(=O)N3C([H])([H])C([H])([H])C([H])([H])C([H])(n4nc(-c5c([H])c([H])c(Oc6c([H])c([H])c(F)c([H])c6F)c([H])c5[H])c(C(=O)N([H])[H])c4N([H])[H])C3([H])[H])c([H])c([H])c2C1([H])[H]

$$$$
9:0:0
     RDKit          3D

 84 91  0  0  1  0  0  0  0  0999 V2000
  -30.3850  -19.3390   21.1810 C   0  0  0  0  0  2  0  0  0  0  0  0
  -29.9030  -20.8180   19.1400 C   0  0  0  0  0  2  0  0  0  0  0  0
  -29.3900  -17.9460   19.9180 C   0  0  0  0  0  2  0  0  0  0  0  0
  -30.3360  -19.2750   19.6330 C   0  0  1  0  0  0  0  0  0  0  0  0
  -28.9400  -19.6260   20.7120 C   0  0  1  0  0  0  0  0  0  0  0  0
  -28.7120  -21.4130   20.0140 C   0  0  0  0  0  2  0  0  0  0  0  0
  -30.1380  -16.0870   20.1160 C   0  0  0  0  0  2  0  0  0  0  0  0
  -30.3310  -13.4410   19.3590 C   0  0  0  0  0  2  0  0  0  0  0  0
  -29.4680  -12.8800   18.1800 C   0  0  0  0  0  2  0  0  0  0  0  0
  -28.0690  -12.4630   18.6520 C   0  0  0  0  0  2  0  0  0  0  0  0
  -27.5160  -13.4910   19.6580 C   0  0  0  0  0  3  0  0  0  0  0  0
  -28.5300  -13.9490   20.7380 C   0  0  0  0  0  2  0  0  0  0  0  0
  -29.6600  -14.6570   20.0630 N   0  0  0  0  0  0  0  0  0  0  0  0
  -31.3800  -15.9280   20.0290 O   0  0  0  0  0  1  0  0  0  0  0  0
  -25.1730  -13.9980   20.4720 C   0  0  0  0  0  0  0  0  0  0  0  0
  -24.1170  -13.2160   20.8410 C   0  0  0  0  0  0  0  0  0  0  0  0
  -24.5850  -11.8670   20.7930 C   0  0  0  0  0  0  0  0  0  0  0  0
  -26.2140  -13.1310   20.2050 N   0  0  0  0  0  0  0  0  0  0  0  0
  -25.8760  -11.8370   20.4650 N   0  0  0  0  0  0  0  0  0  0  0  0
  -23.8520  -10.6050   20.9800 C   0  0  0  0  0  0  0  0  0  0  0  0
  -24.2810   -9.6280   21.9050 C   0  0  0  0  0  3  0  0  0  0  0  0
  -23.5420   -8.4370   22.0840 C   0  0  0  0  0  3  0  0  0  0  0  0
  -22.3600   -8.2150   21.3390 C   0  0  0  0  0  0  0  0  0  0  0  0
  -21.9480   -9.1810   20.4040 C   0  0  0  0  0  3  0  0  0  0  0  0
  -22.6870  -10.3630   20.2230 C   0  0  0  0  0  3  0  0  0  0  0  0
  -21.5940   -7.0770   21.4270 O   0  0  0  0  0  0  0  0  0  0  0  0
  -21.5490   -6.3250   22.5740 C   0  0  0  0  0  0  0  0  0  0  0  0
  -21.1320   -6.8720   23.8070 C   0  0  0  0  0  3  0  0  0  0  0  0
  -21.0340   -6.0480   24.9460 C   0  0  0  0  0  3  0  0  0  0  0  0
  -21.3420   -4.6770   24.8530 C   0  0  0  0  0  0  0  0  0  0  0  0
  -21.7500   -4.1300   23.6250 C   0  0  0  0  0  3  0  0  0  0  0  0
  -21.8510   -4.9510   22.4880 C   0  0  0  0  0  0  0  0  0  0  0  0
  -22.2240   -4.4120   21.3010 F   0  0  0  0  0  0  0  0  0  0  0  0
  -21.2400   -3.8850   25.9450 F   0  0  0  0  0  0  0  0  0  0  0  0
  -22.7220  -13.6960   21.1180 C   0  0  0  0  0  0  0  0  0  0  0  0
  -21.9970  -13.0030   21.9860 N   0  0  0  0  0  0  0  0  0  0  0  0
  -22.2890  -14.7240   20.6000 O   0  0  0  0  0  0  0  0  0  0  0  0
  -22.3630  -12.1720   22.4280 H   0  0  0  0  0  0  0  0  0  0  0  0
  -21.0610  -13.3080   22.2130 H   0  0  0  0  0  0  0  0  0  0  0  0
  -25.3340  -15.3700   20.3050 N   0  0  0  0  0  0  0  0  0  0  0  0
  -24.5700  -16.0240   20.4370 H   0  0  0  0  0  0  0  0  0  0  0  0
  -26.1850  -15.8170   19.9870 H   0  0  0  0  0  0  0  0  0  0  0  0
  -28.3170  -23.4070   20.5550 C   0  0  0  0  0 15  0  0  0  0  0  0
  -28.2370  -25.2710   20.2420 O   0  0  0  0  0  1  0  0  0  0  0  0
  -24.6930  -31.8610   23.1860 C   0  0  0  0  0  0  0  0  0  0  0  0
  -27.2540  -26.5620   20.2940 C   0  0  0  0  0  0  0  0  0  0  0  0
  -23.5300  -30.4320   21.5660 C   0  0  0  0  0  3  0  0  0  0  0  0
  -24.9920  -28.7280   20.2010 C   0  0  0  0  0  0  0  0  0  0  0  0
  -26.1190  -30.5230   21.4770 C   0  0  0  0  0  2  0  0  0  0  0  0
  -26.1920  -29.0560   20.8420 C   0  0  0  0  0  0  0  0  0  0  0  0
  -27.2980  -28.0120   20.8420 C   0  0  0  0  0  3  0  0  0  0  0  0
  -26.0100  -26.5050   19.5960 C   0  0  0  0  0  3  0  0  0  0  0  0
  -24.9530  -27.4800   19.5530 C   0  0  0  0  0  3  0  0  0  0  0  0
  -23.7910  -29.7020   20.2150 C   0  0  0  0  0  2  0  0  0  0  0  0
  -24.8080  -30.9780   22.1280 N   0  0  0  0  0  0  0  0  0  0  0  0
  -23.5900  -32.1690   23.6760 O   0  0  0  0  0  0  0  0  0  0  0  0
  -22.7940  -29.4810   22.5510 C   0  0  0  0  0  0  0  0  0  0  0  0
  -21.4600  -29.3320   22.4260 N   0  0  0  0  0  0  0  0  0  0  0  0
  -23.4410  -28.8710   23.4060 O   0  0  0  0  0  0  0  0  0  0  0  0
  -20.9840  -29.8730   21.7170 H   0  0  0  0  0  0  0  0  0  0  0  0
  -18.0700  -28.1120   22.9520 C   0  0  0  0  0  0  0  0  0  0  0  0
  -20.6310  -28.4020   23.2060 C   0  0  0  0  0  3  0  0  0  0  0  0
  -20.7380  -26.9620   22.6500 C   0  0  0  0  0  2  0  0  0  0  0  0
  -19.6400  -26.6230   21.6380 C   0  0  0  0  0  2  0  0  0  0  0  0
  -18.2570  -26.7610   22.2810 C   0  0  0  0  0  2  0  0  0  0  0  0
  -19.1840  -28.8900   23.3700 C   0  0  0  0  0  0  0  0  0  0  0  0
  -18.9510  -30.1490   23.9650 C   0  0  0  0  0  3  0  0  0  0  0  0
  -17.6400  -30.6330   24.1390 C   0  0  0  0  0  3  0  0  0  0  0  0
  -16.5430  -29.8540   23.7310 C   0  0  0  0  0  3  0  0  0  0  0  0
  -16.7590  -28.5960   23.1430 C   0  0  0  0  0  3  0  0  0  0  0  0
  -25.9390  -32.5390   23.8340 C   0  0  0  0  0  3  0  0  0  0  0  0
  -25.5960  -33.9420   24.1550 N   0  0  0  0  0  0  0  0  0  0  0  0
  -25.9230  -35.0110   23.4140 C   0  0  0  0  0  0  0  0  0  0  0  0
  -26.5960  -34.9200   22.3850 O   0  0  0  0  0  0  0  0  0  0  0  0
  -24.9940  -34.0830   24.9520 H   0  0  0  0  0  0  0  0  0  0  0  0
  -24.1780  -36.8040   23.0920 C   0  0  0  0  0  1  0  0  0  0  0  0
  -25.4320  -36.3980   23.8840 C   0  0  0  0  0  3  0  0  0  0  0  0
  -27.5650  -37.3080   24.6980 C   0  0  0  0  0  1  0  0  0  0  0  0
  -26.4540  -37.4620   23.7620 N   0  0  0  0  0  0  0  0  0  0  0  0
  -26.0400  -38.3780   23.9100 H   0  0  0  0  0  0  0  0  0  0  0  0
  -26.4260  -31.8040   25.1460 C   0  0  1  0  0  0  0  0  0  0  0  0
  -25.3090  -31.5910   26.1950 C   0  0  0  0  0  1  0  0  0  0  0  0
  -27.0230  -30.4190   24.8190 C   0  0  0  0  0  1  0  0  0  0  0  0
  -27.5600  -32.6210   25.8130 C   0  0  0  0  0  1  0  0  0  0  0  0
  2  6  1  0
  4  2  1  6
  4  3  1  0
  4  5  1  0
  4  1  1  0
  5  3  1  1
  5  1  1  0
  6  5  1  0
  8 13  1  0
  9 10  1  0
  9  8  1  0
 11 10  1  0
 11 18  1  0
 11 12  1  0
 13  7  1  0
 13 12  1  0
 14  7  1  0
 15 16  2  0
 16 35  1  0
 17 16  1  0
 17 20  1  0
 18 19  1  0
 18 15  1  0
 19 17  2  0
 20 21  1  0
 21 22  2  0
 23 26  1  0
 23 22  1  0
 24 23  2  0
 25 24  1  0
 25 20  2  0
 26 27  1  0
 27 28  1  0
 28 29  2  0
 30 29  1  0
 30 34  1  0
 31 30  2  0
 32 27  2  0
 32 31  1  0
 33 32  1  0
 35 36  1  0
 36 39  1  0
 36 38  1  0
 37 35  2  0
 40 41  1  0
 40 15  1  0
 42 40  1  0
 44 46  1  0
 45 56  2  0
 46 51  1  0
 47 55  1  0
 47 57  1  0
 48 54  1  0
 48 50  1  0
 49 55  1  0
 50 49  1  0
 51 50  2  0
 52 46  2  0
 53 52  1  0
 53 48  2  0
 54 47  1  0
 55 45  1  0
 57 59  2  0
 58 57  1  0
 60 58  1  0
 61 70  2  0
 61 66  1  0
 62 58  1  0
 62 66  1  0
 63 62  1  0
 64 65  1  0
 64 63  1  0
 65 61  1  0
 66 67  2  0
 67 68  1  0
 69 68  2  0
 70 69  1  0
 71 45  1  0
 71 72  1  0
 71 81  1  0
 72 75  1  0
 73 77  1  0
 73 72  1  0
 74 73  2  0
 77 76  1  0
 79 77  1  0
 79 80  1  0
 79 78  1  0
 81 84  1  1
 81 82  1  0
 83 81  1  0
M  ISO  4   3 100   7 100  43 101  44 101
M  END
>  <TORSDO>  (10) 
F 17

>  <SCORE>  (10) 
-16.303

>  <name>  (10) 
9

>  <ligand_id>  (10) 
9

>  <original_smiles>  (10) 
[H]c1c([H])c([H])c2c(c1[H])C([H])([H])C([H])([H])C([H])([H])C2([H])N([H])C(=O)C1([H])N(C(=O)C([H])(N([H])C(=O)C([H])(N([H])C([H])([H])[H])C([H])([H])[H])C(C([H])([H])[H])(C([H])([H])[H])C([H])([H])[H])C([H])([H])c2c([H])c(OC([H])([H])C3([H])C([H])([H])C4([H])C([H])([H])C3([H])C4([H])C(=O)N3C([H])([H])C([H])([H])C([H])([H])C([H])(n4nc(-c5c([H])c([H])c(Oc6c([H])c([H])c(F)c([H])c6F)c([H])c5[H])c(C(=O)N([H])[H])c4N([H])[H])C3([H])[H])c([H])c([H])c2C1([H])[H]

>  <smiles>  (10) 
[H]c1c([H])c([H])c2c(c1[H])C([H])([H])C([H])([H])C([H])([H])C2([H])N([H])C(=O)C1([H])N(C(=O)C([H])(N([H])C(=O)C([H])(N([H])C([H])([H])[H])C([H])([H])[H])C(C([H])([H])[H])(C([H])([H])[H])C([H])([H])[H])C([H])([H])c2c([H])c(OC([H])([H])C3([H])C([H])([H])C4([H])C([H])([H])C3([H])C4([H])C(=O)N3C([H])([H])C([H])([H])C([H])([H])C([H])(n4nc(-c5c([H])c([H])c(Oc6c([H])c([H])c(F)c([H])c6F)c([H])c5[H])c(C(=O)N([H])[H])c4N([H])[H])C3([H])[H])c([H])c([H])c2C1([H])[H]

$$$$
10:0:0
     RDKit          3D

 91100  0  0  1  0  0  0  0  0999 V2000
  -30.8000  -18.9370   18.7420 C   0  0  0  0  0  2  0  0  0  0  0  0
  -31.1180  -17.5910   19.4400 C   0  0  0  0  0  2  0  0  0  0  0  0
  -29.4330  -18.1710   21.2770 C   0  0  0  0  0  2  0  0  0  0  0  0
  -29.9400  -21.3750   19.3320 C   0  0  0  0  0  2  0  0  0  0  0  0
  -28.7030  -20.7440   21.2830 C   0  0  0  0  0  2  0  0  0  0  0  0
  -30.3730  -19.9720   19.7870 C   0  0  0  0  0  3  0  0  0  0  0  0
  -29.1340  -19.4820   20.5090 C   0  0  0  0  0  3  0  0  0  0  0  0
  -29.9610  -17.0450   20.3310 C   0  0  0  0  0  3  0  0  0  0  0  0
  -29.1520  -21.9190   20.4720 N   0  0  2  0  0  4  0  0  0  0  0  0
  -29.7970  -22.4160   21.0690 H   0  0  0  0  0  0  0  0  0  0  0  0
  -30.3150  -15.7530   21.1500 C   0  0  0  0  0  2  0  0  0  0  0  0
  -30.8720  -14.5350   20.3580 C   0  0  0  0  0  0  0  0  0  0  0  0
  -30.5270  -12.3960   19.1670 C   0  0  0  0  0  2  0  0  0  0  0  0
  -29.5780  -12.6280   17.9730 C   0  0  0  0  0  2  0  0  0  0  0  0
  -28.1050  -12.5020   18.4140 C   0  0  0  0  0  2  0  0  0  0  0  0
  -27.7920  -13.3220   19.6950 C   0  0  0  0  0  3  0  0  0  0  0  0
  -28.8550  -13.0590   20.7830 C   0  0  0  0  0  2  0  0  0  0  0  0
  -30.1740  -13.3710   20.2130 N   0  0  0  0  0  0  0  0  0  0  0  0
  -31.9760  -14.6790   19.8260 O   0  0  0  0  0  0  0  0  0  0  0  0
  -25.4030  -13.9470   20.4150 C   0  0  0  0  0  0  0  0  0  0  0  0
  -24.3310  -13.1820   20.7950 C   0  0  0  0  0  0  0  0  0  0  0  0
  -24.7840  -11.8270   20.7660 C   0  0  0  0  0  0  0  0  0  0  0  0
  -26.4410  -13.0570   20.1810 N   0  0  0  0  0  0  0  0  0  0  0  0
  -26.0720  -11.7770   20.4490 N   0  0  0  0  0  0  0  0  0  0  0  0
  -24.0510  -10.5710   20.9660 C   0  0  0  0  0  0  0  0  0  0  0  0
  -24.4720   -9.6120   21.9150 C   0  0  0  0  0  3  0  0  0  0  0  0
  -23.7410   -8.4200   22.1020 C   0  0  0  0  0  3  0  0  0  0  0  0
  -22.5720   -8.1770   21.3410 C   0  0  0  0  0  0  0  0  0  0  0  0
  -22.1700   -9.1240   20.3820 C   0  0  0  0  0  3  0  0  0  0  0  0
  -22.9020  -10.3080   20.1930 C   0  0  0  0  0  3  0  0  0  0  0  0
  -21.8130   -7.0370   21.4370 O   0  0  0  0  0  0  0  0  0  0  0  0
  -21.7400   -6.3160   22.6020 C   0  0  0  0  0  0  0  0  0  0  0  0
  -21.2710   -6.8880   23.8050 C   0  0  0  0  0  3  0  0  0  0  0  0
  -21.1470   -6.0930   24.9620 C   0  0  0  0  0  3  0  0  0  0  0  0
  -21.4820   -4.7270   24.9170 C   0  0  0  0  0  0  0  0  0  0  0  0
  -21.9440   -4.1540   23.7190 C   0  0  0  0  0  3  0  0  0  0  0  0
  -22.0700   -4.9460   22.5640 C   0  0  0  0  0  0  0  0  0  0  0  0
  -22.4960   -4.3840   21.4070 F   0  0  0  0  0  0  0  0  0  0  0  0
  -21.3560   -3.9600   26.0250 F   0  0  0  0  0  0  0  0  0  0  0  0
  -22.9400  -13.6690   21.0760 C   0  0  0  0  0  0  0  0  0  0  0  0
  -22.2150  -12.9830   21.9530 N   0  0  0  0  0  0  0  0  0  0  0  0
  -22.5030  -14.6940   20.5520 O   0  0  0  0  0  0  0  0  0  0  0  0
  -22.5810  -12.1540   22.3970 H   0  0  0  0  0  0  0  0  0  0  0  0
  -21.2820  -13.2920   22.1830 H   0  0  0  0  0  0  0  0  0  0  0  0
  -25.5780  -15.3140   20.2320 N   0  0  0  0  0  0  0  0  0  0  0  0
  -24.8200  -15.9800   20.3450 H   0  0  0  0  0  0  0  0  0  0  0  0
  -26.4380  -15.7440   19.9140 H   0  0  0  0  0  0  0  0  0  0  0  0
  -28.0630  -22.8730   20.1010 C   0  0  0  0  0  2  0  0  0  0  0  0
  -28.5240  -24.2930   19.6460 C   0  0  0  0  0  2  0  0  0  0  0  0
  -28.3690  -25.4030   20.7180 C   0  0  0  0  0  2  0  0  0  0  0  0
  -28.4950  -26.7460   20.2070 O   0  0  0  0  0  0  0  0  0  0  0  0
  -24.6020  -31.8740   23.2690 C   0  0  0  0  0  0  0  0  0  0  0  0
  -27.3290  -27.4840   20.1840 C   0  0  0  0  0  0  0  0  0  0  0  0
  -23.4320  -30.4740   21.6000 C   0  0  0  0  0  3  0  0  0  0  0  0
  -24.9190  -28.9680   20.1780 C   0  0  0  0  0  0  0  0  0  0  0  0
  -25.9550  -30.8650   21.4330 C   0  0  0  0  0  2  0  0  0  0  0  0
  -26.0660  -29.5010   20.7790 C   0  0  0  0  0  0  0  0  0  0  0  0
  -27.2770  -28.7690   20.7740 C   0  0  0  0  0  3  0  0  0  0  0  0
  -26.1650  -26.9660   19.5760 C   0  0  0  0  0  3  0  0  0  0  0  0
  -24.9640  -27.7000   19.5720 C   0  0  0  0  0  3  0  0  0  0  0  0
  -23.6640  -29.8100   20.2170 C   0  0  0  0  0  2  0  0  0  0  0  0
  -24.6800  -31.0850   22.1590 N   0  0  0  0  0  0  0  0  0  0  0  0
  -23.5100  -32.1280   23.7980 O   0  0  0  0  0  0  0  0  0  0  0  0
  -22.7810  -29.4370   22.5430 C   0  0  0  0  0  0  0  0  0  0  0  0
  -21.4560  -29.2540   22.4100 N   0  0  0  0  0  0  0  0  0  0  0  0
  -23.4640  -28.7990   23.3480 O   0  0  0  0  0  0  0  0  0  0  0  0
  -20.9670  -29.8220   21.7320 H   0  0  0  0  0  0  0  0  0  0  0  0
  -18.0790  -28.0650   22.8970 C   0  0  0  0  0  0  0  0  0  0  0  0
  -20.6390  -28.3030   23.1630 C   0  0  0  0  0  3  0  0  0  0  0  0
  -20.7320  -26.8850   22.5530 C   0  0  0  0  0  2  0  0  0  0  0  0
  -19.6230  -26.5920   21.5380 C   0  0  0  0  0  2  0  0  0  0  0  0
  -18.2450  -26.7290   22.1910 C   0  0  0  0  0  2  0  0  0  0  0  0
  -19.2030  -28.8110   23.3400 C   0  0  0  0  0  0  0  0  0  0  0  0
  -18.9950  -30.0630   23.9580 C   0  0  0  0  0  3  0  0  0  0  0  0
  -17.6930  -30.5680   24.1400 C   0  0  0  0  0  3  0  0  0  0  0  0
  -16.5830  -29.8180   23.7160 C   0  0  0  0  0  3  0  0  0  0  0  0
  -16.7770  -28.5680   23.0990 C   0  0  0  0  0  3  0  0  0  0  0  0
  -25.8720  -32.5130   23.9100 C   0  0  0  0  0  3  0  0  0  0  0  0
  -26.3640  -31.7560   25.2050 C   0  0  1  0  0  0  0  0  0  0  0  0
  -25.2490  -31.5250   26.2510 C   0  0  0  0  0  1  0  0  0  0  0  0
  -26.9580  -30.3770   24.8360 C   0  0  0  0  0  1  0  0  0  0  0  0
  -27.4980  -32.5610   25.8830 C   0  0  0  0  0  1  0  0  0  0  0  0
  -25.5550  -33.9150   24.2170 N   0  0  0  0  0  0  0  0  0  0  0  0
  -25.9010  -34.9570   23.4490 C   0  0  0  0  0  0  0  0  0  0  0  0
  -26.5910  -34.8420   22.4330 O   0  0  0  0  0  0  0  0  0  0  0  0
  -24.9430  -34.0780   25.0010 H   0  0  0  0  0  0  0  0  0  0  0  0
  -24.1820  -36.7450   23.0320 C   0  0  0  0  0  1  0  0  0  0  0  0
  -25.4020  -36.3500   23.8780 C   0  0  0  0  0  3  0  0  0  0  0  0
  -27.5110  -37.2490   24.7580 C   0  0  0  0  0  1  0  0  0  0  0  0
  -26.4370  -37.4020   23.7800 N   0  0  0  0  0  0  0  0  0  0  0  0
  -26.0260  -38.3240   23.9020 H   0  0  0  0  0  0  0  0  0  0  0  0
  1  2  1  0
  2  8  1  0
  4  6  1  0
  4  9  1  0
  6  1  1  0
  6  7  1  0
  7  3  1  0
  7  5  1  0
  8 11  1  0
  8  3  1  0
  9 10  1  1
  9  5  1  0
 12 11  1  0
 13 18  1  0
 14 15  1  0
 14 13  1  0
 16 15  1  0
 16 23  1  0
 16 17  1  0
 18 12  1  0
 18 17  1  0
 19 12  2  0
 20 21  2  0
 21 40  1  0
 22 21  1  0
 22 25  1  0
 23 20  1  0
 23 24  1  0
 24 22  2  0
 25 26  1  0
 26 27  2  0
 28 31  1  0
 28 27  1  0
 29 28  2  0
 30 29  1  0
 30 25  2  0
 31 32  1  0
 32 33  1  0
 33 34  2  0
 35 34  1  0
 35 39  1  0
 36 35  2  0
 37 32  2  0
 37 36  1  0
 38 37  1  0
 40 41  1  0
 41 44  1  0
 41 43  1  0
 42 40  2  0
 45 46  1  0
 45 20  1  0
 47 45  1  0
 48  9  1  0
 49 48  1  0
 49 50  1  0
 51 50  1  0
 52 63  2  0
 53 51  1  0
 53 58  1  0
 54 62  1  0
 54 64  1  0
 55 61  1  0
 55 57  1  0
 56 62  1  0
 57 56  1  0
 58 57  2  0
 59 53  2  0
 60 59  1  0
 60 55  2  0
 61 54  1  0
 62 52  1  0
 64 66  2  0
 65 64  1  0
 67 65  1  0
 68 77  2  0
 68 73  1  0
 69 65  1  0
 69 73  1  0
 70 69  1  0
 71 72  1  0
 71 70  1  0
 72 68  1  0
 73 74  2  0
 74 75  1  0
 76 75  2  0
 77 76  1  0
 78 52  1  0
 78 83  1  0
 78 79  1  0
 79 82  1  1
 79 80  1  0
 81 79  1  0
 83 86  1  0
 84 88  1  0
 84 83  1  0
 85 84  2  0
 88 87  1  0
 90 88  1  0
 90 91  1  0
 90 89  1  0
M  ISO  4  11 100  12 100  50 101  51 101
M  END
>  <TORSDO>  (11) 
F 20

>  <SCORE>  (11) 
-13.630

>  <name>  (11) 
10

>  <ligand_id>  (11) 
10

>  <original_smiles>  (11) 
[H]c1c([H])c([H])c2c(c1[H])C([H])([H])C([H])([H])C([H])([H])C2([H])N([H])C(=O)C1([H])N(C(=O)C([H])(N([H])C(=O)C([H])(N([H])C([H])([H])[H])C([H])([H])[H])C(C([H])([H])[H])(C([H])([H])[H])C([H])([H])[H])C([H])([H])c2c([H])c(OC([H])([H])C([H])([H])C([H])([H])[N+]3([H])C([H])([H])C4([H])C([H])([H])C([H])([H])C([H])(C([H])([H])C(=O)N5C([H])([H])C([H])([H])C([H])([H])C([H])(n6nc(-c7c([H])c([H])c(Oc8c([H])c([H])c(F)c([H])c8F)c([H])c7[H])c(C(=O)N([H])[H])c6N([H])[H])C5([H])[H])C([H])([H])C4([H])C3([H])[H])c([H])c([H])c2C1([H])[H]

>  <smiles>  (11) 
[H]c1c([H])c([H])c2c(c1[H])C([H])([H])C([H])([H])C([H])([H])C2([H])N([H])C(=O)C1([H])N(C(=O)C([H])(N([H])C(=O)C([H])(N([H])C([H])([H])[H])C([H])([H])[H])C(C([H])([H])[H])(C([H])([H])[H])C([H])([H])[H])C([H])([H])c2c([H])c(OC([H])([H])C([H])([H])C([H])([H])[N+]3([H])C([H])([H])C4([H])C([H])([H])C([H])([H])C([H])(C([H])([H])C(=O)N5C([H])([H])C([H])([H])C([H])([H])C([H])(n6nc(-c7c([H])c([H])c(Oc8c([H])c([H])c(F)c([H])c8F)c([H])c7[H])c(C(=O)N([H])[H])c6N([H])[H])C5([H])[H])C([H])([H])C4([H])C3([H])[H])c([H])c([H])c2C1([H])[H]

$$$$
11:0:0
     RDKit          3D

 94103  0  0  1  0  0  0  0  0999 V2000
  -32.3430  -24.8940   19.4360 C   0  0  0  0  0  2  0  0  0  0  0  0
  -31.0840  -25.5330   20.0110 C   0  0  0  0  0  2  0  0  0  0  0  0
  -30.8140  -23.2070   18.0040 C   0  0  0  0  0  2  0  0  0  0  0  0
  -31.5540  -23.5930   19.2710 C   0  0  0  0  0  3  0  0  0  0  0  0
  -30.4960  -24.1180   20.2230 C   0  0  0  0  0  3  0  0  0  0  0  0
  -29.4770  -22.6020   18.5170 C   0  0  0  0  0  3  0  0  0  0  0  0
  -29.1280  -23.6830   19.6870 C   0  0  0  0  0  3  0  0  0  0  0  0
  -29.6560  -20.3700   17.2120 C   0  0  0  0  0  1  0  0  0  0  0  0
  -29.7810  -20.9870   18.6340 C   0  0  0  0  0  3  0  0  0  0  0  0
  -29.0750  -20.1150   19.6490 N   0  0  0  0  0  4  0  0  0  0  0  0
  -28.1390  -20.4880   19.6690 H   0  0  0  0  0  0  0  0  0  0  0  0
  -29.4620  -20.3110   20.5590 H   0  0  0  0  0  0  0  0  0  0  0  0
  -27.6400  -18.2450   20.3620 C   0  0  0  0  0  1  0  0  0  0  0  0
  -28.8630  -18.5930   19.4880 C   0  0  0  0  0  3  0  0  0  0  0  0
  -30.0500  -17.5130   19.7470 C   0  0  0  0  0  3  0  0  0  0  0  0
  -29.5990  -15.9590   19.8580 C   0  0  0  0  0  3  0  0  0  0  0  0
  -30.5780  -14.6830   19.8690 C   0  0  0  0  0  0  0  0  0  0  0  0
  -30.4720  -12.3030   19.1360 C   0  0  0  0  0  2  0  0  0  0  0  0
  -29.5030  -12.2360   17.9300 C   0  0  0  0  0  2  0  0  0  0  0  0
  -28.0340  -12.1120   18.3890 C   0  0  0  0  0  2  0  0  0  0  0  0
  -27.6740  -13.1100   19.5150 C   0  0  0  0  0  3  0  0  0  0  0  0
  -28.7500  -13.1140   20.6230 C   0  0  0  0  0  2  0  0  0  0  0  0
  -30.0450  -13.4210   19.9990 N   0  0  0  0  0  0  0  0  0  0  0  0
  -31.7620  -14.8220   19.5490 O   0  0  0  0  0  0  0  0  0  0  0  0
  -25.3330  -13.8040   20.3030 C   0  0  0  0  0  0  0  0  0  0  0  0
  -24.2510  -13.0720   20.7120 C   0  0  0  0  0  0  0  0  0  0  0  0
  -24.6650  -11.7050   20.6820 C   0  0  0  0  0  0  0  0  0  0  0  0
  -26.3360  -12.8830   20.0440 N   0  0  0  0  0  0  0  0  0  0  0  0
  -25.9430  -11.6180   20.3330 N   0  0  0  0  0  0  0  0  0  0  0  0
  -23.9010  -10.4700   20.8990 C   0  0  0  0  0  0  0  0  0  0  0  0
  -24.3130   -9.5030   21.8400 C   0  0  0  0  0  3  0  0  0  0  0  0
  -23.5530   -8.3320   22.0420 C   0  0  0  0  0  3  0  0  0  0  0  0
  -22.3630   -8.1230   21.3040 C   0  0  0  0  0  0  0  0  0  0  0  0
  -21.9720   -9.0770   20.3470 C   0  0  0  0  0  3  0  0  0  0  0  0
  -22.7340  -10.2390   20.1440 C   0  0  0  0  0  3  0  0  0  0  0  0
  -21.5740   -7.0040   21.4150 O   0  0  0  0  0  0  0  0  0  0  0  0
  -21.4990   -6.2910   22.5830 C   0  0  0  0  0  0  0  0  0  0  0  0
  -21.1010   -6.8900   23.7980 C   0  0  0  0  0  3  0  0  0  0  0  0
  -20.9740   -6.1050   24.9610 C   0  0  0  0  0  3  0  0  0  0  0  0
  -21.2370   -4.7230   24.9110 C   0  0  0  0  0  0  0  0  0  0  0  0
  -21.6300   -4.1240   23.7010 C   0  0  0  0  0  3  0  0  0  0  0  0
  -21.7580   -4.9050   22.5410 C   0  0  0  0  0  0  0  0  0  0  0  0
  -22.1190   -4.3190   21.3740 F   0  0  0  0  0  0  0  0  0  0  0  0
  -21.1060   -3.9680   26.0260 F   0  0  0  0  0  0  0  0  0  0  0  0
  -22.8790  -13.6010   21.0180 C   0  0  0  0  0  0  0  0  0  0  0  0
  -22.1530  -12.9340   21.9100 N   0  0  0  0  0  0  0  0  0  0  0  0
  -22.4620  -14.6360   20.5000 O   0  0  0  0  0  0  0  0  0  0  0  0
  -22.5010  -12.0920   22.3430 H   0  0  0  0  0  0  0  0  0  0  0  0
  -21.2350  -13.2720   22.1650 H   0  0  0  0  0  0  0  0  0  0  0  0
  -25.5450  -15.1650   20.1110 N   0  0  0  0  0  0  0  0  0  0  0  0
  -24.8070  -15.8500   20.2290 H   0  0  0  0  0  0  0  0  0  0  0  0
  -26.3830  -15.5530   19.6980 H   0  0  0  0  0  0  0  0  0  0  0  0
  -28.2180  -24.9490   19.2290 C   0  0  0  0  0  2  0  0  0  0  0  0
  -28.2870  -26.3200   19.8440 O   0  0  0  0  0  0  0  0  0  0  0  0
  -24.5170  -31.6390   23.0510 C   0  0  0  0  0  0  0  0  0  0  0  0
  -27.1710  -27.1890   19.8140 C   0  0  0  0  0  0  0  0  0  0  0  0
  -23.3270  -30.2740   21.3760 C   0  0  0  0  0  3  0  0  0  0  0  0
  -24.7910  -28.7970   19.8870 C   0  0  0  0  0  0  0  0  0  0  0  0
  -25.8650  -30.6240   21.1960 C   0  0  0  0  0  2  0  0  0  0  0  0
  -25.9600  -29.2670   20.5000 C   0  0  0  0  0  0  0  0  0  0  0  0
  -27.1510  -28.4730   20.4590 C   0  0  0  0  0  3  0  0  0  0  0  0
  -25.9790  -26.7980   19.1640 C   0  0  0  0  0  3  0  0  0  0  0  0
  -24.8050  -27.5700   19.2120 C   0  0  0  0  0  3  0  0  0  0  0  0
  -23.5450  -29.6530   19.9720 C   0  0  0  0  0  2  0  0  0  0  0  0
  -24.5900  -30.8640   21.9300 N   0  0  0  0  0  0  0  0  0  0  0  0
  -23.4310  -31.8840   23.5960 O   0  0  0  0  0  0  0  0  0  0  0  0
  -22.6860  -29.2150   22.3060 C   0  0  0  0  0  0  0  0  0  0  0  0
  -21.3570  -29.0420   22.2000 N   0  0  0  0  0  0  0  0  0  0  0  0
  -23.3810  -28.5570   23.0830 O   0  0  0  0  0  0  0  0  0  0  0  0
  -20.8560  -29.6290   21.5480 H   0  0  0  0  0  0  0  0  0  0  0  0
  -17.9870  -27.8400   22.7420 C   0  0  0  0  0  0  0  0  0  0  0  0
  -20.5530  -28.0730   22.9480 C   0  0  0  0  0  3  0  0  0  0  0  0
  -20.6290  -26.6700   22.3000 C   0  0  0  0  0  2  0  0  0  0  0  0
  -19.4950  -26.4020   21.3070 C   0  0  0  0  0  2  0  0  0  0  0  0
  -18.1340  -26.5230   21.9980 C   0  0  0  0  0  2  0  0  0  0  0  0
  -19.1230  -28.5740   23.1730 C   0  0  0  0  0  0  0  0  0  0  0  0
  -18.9290  -29.8080   23.8330 C   0  0  0  0  0  3  0  0  0  0  0  0
  -17.6350  -30.3080   24.0610 C   0  0  0  0  0  3  0  0  0  0  0  0
  -16.5120  -29.5700   23.6440 C   0  0  0  0  0  3  0  0  0  0  0  0
  -16.6900  -28.3360   22.9920 C   0  0  0  0  0  3  0  0  0  0  0  0
  -25.7920  -32.2720   23.6870 C   0  0  0  0  0  3  0  0  0  0  0  0
  -25.4590  -33.6540   24.0620 N   0  0  0  0  0  0  0  0  0  0  0  0
  -25.7640  -34.7360   23.3320 C   0  0  0  0  0  0  0  0  0  0  0  0
  -26.4250  -34.6770   22.2920 O   0  0  0  0  0  0  0  0  0  0  0  0
  -24.8650  -33.7720   24.8690 H   0  0  0  0  0  0  0  0  0  0  0  0
  -23.9930  -36.5020   23.0640 C   0  0  0  0  0  1  0  0  0  0  0  0
  -25.2570  -36.0990   23.8390 C   0  0  0  0  0  3  0  0  0  0  0  0
  -27.3880  -37.0060   24.6530 C   0  0  0  0  0  1  0  0  0  0  0  0
  -26.2640  -37.1780   23.7370 N   0  0  0  0  0  0  0  0  0  0  0  0
  -25.8420  -38.0830   23.9210 H   0  0  0  0  0  0  0  0  0  0  0  0
  -26.3240  -31.4700   24.9380 C   0  0  1  0  0  0  0  0  0  0  0  0
  -25.2370  -31.1880   26.0010 C   0  0  0  0  0  1  0  0  0  0  0  0
  -26.9250  -30.1140   24.5070 C   0  0  0  0  0  1  0  0  0  0  0  0
  -27.4670  -32.2590   25.6180 C   0  0  0  0  0  1  0  0  0  0  0  0
  1  2  1  0
  3  6  1  0
  4  3  1  0
  4  1  1  0
  4  5  1  0
  5  2  1  0
  6  9  1  0
  6  7  1  0
  7 53  1  0
  7  5  1  0
  9  8  1  0
  9 10  1  0
 10 11  1  0
 10 12  1  0
 14 10  1  0
 14 15  1  0
 14 13  1  0
 15 16  2  0
 16 17  1  0
 17 23  1  0
 18 23  1  0
 19 20  1  0
 19 18  1  0
 21 20  1  0
 21 28  1  0
 21 22  1  0
 23 22  1  0
 24 17  2  0
 25 26  2  0
 26 45  1  0
 27 26  1  0
 27 30  1  0
 28 25  1  0
 28 29  1  0
 29 27  2  0
 30 31  1  0
 31 32  2  0
 33 36  1  0
 33 32  1  0
 34 33  2  0
 35 34  1  0
 35 30  2  0
 36 37  1  0
 37 38  1  0
 38 39  2  0
 40 39  1  0
 40 44  1  0
 41 40  2  0
 42 37  2  0
 42 41  1  0
 43 42  1  0
 45 46  1  0
 46 49  1  0
 46 48  1  0
 47 45  2  0
 50 51  1  0
 50 25  1  0
 52 50  1  0
 53 54  1  0
 55 66  2  0
 56 54  1  0
 56 61  1  0
 57 65  1  0
 57 67  1  0
 58 64  1  0
 58 60  1  0
 59 65  1  0
 60 59  1  0
 61 60  2  0
 62 63  1  0
 62 56  2  0
 63 58  2  0
 64 57  1  0
 65 55  1  0
 67 69  2  0
 68 67  1  0
 70 68  1  0
 71 80  2  0
 71 76  1  0
 72 68  1  0
 72 76  1  0
 73 72  1  0
 74 75  1  0
 74 73  1  0
 75 71  1  0
 76 77  2  0
 77 78  1  0
 79 78  2  0
 80 79  1  0
 81 55  1  0
 81 82  1  0
 81 91  1  0
 82 85  1  0
 83 87  1  0
 83 82  1  0
 84 83  2  0
 87 86  1  0
 89 87  1  0
 89 90  1  0
 89 88  1  0
 91 94  1  1
 91 92  1  0
 93 91  1  0
M  ISO  4  16 100  17 100  53 101  54 101
M  END
>  <TORSDO>  (12) 
F 22

>  <SCORE>  (12) 
-12.662

>  <name>  (12) 
11

>  <ligand_id>  (12) 
11

>  <original_smiles>  (12) 
[H]c1c([H])c([H])c2c(c1[H])C([H])([H])C([H])([H])C([H])([H])C2([H])N([H])C(=O)C1([H])N(C(=O)C([H])(N([H])C(=O)C([H])(N([H])C([H])([H])[H])C([H])([H])[H])C(C([H])([H])[H])(C([H])([H])[H])C([H])([H])[H])C([H])([H])c2c([H])c(OC([H])([H])C3([H])C4([H])C([H])([H])C([H])([H])C4([H])C([H])([H])C3([H])C([H])(C([H])([H])[H])[N+]([H])([H])C([H])(C([H])([H])[H])C([H])([H])C([H])([H])C(=O)N3C([H])([H])C([H])([H])C([H])([H])C([H])(n4nc(-c5c([H])c([H])c(Oc6c([H])c([H])c(F)c([H])c6F)c([H])c5[H])c(C(=O)N([H])[H])c4N([H])[H])C3([H])[H])c([H])c([H])c2C1([H])[H]

>  <smiles>  (12) 
[H]c1c([H])c([H])c2c(c1[H])C([H])([H])C([H])([H])C([H])([H])C2([H])N([H])C(=O)C1([H])N(C(=O)C([H])(N([H])C(=O)C([H])(N([H])C([H])([H])[H])C([H])([H])[H])C(C([H])([H])[H])(C([H])([H])[H])C([H])([H])[H])C([H])([H])c2c([H])c(OC([H])([H])C3([H])C4([H])C([H])([H])C([H])([H])C4([H])C([H])([H])C3([H])C([H])(C([H])([H])[H])[N+]([H])([H])C([H])(C([H])([H])[H])C([H])([H])C([H])([H])C(=O)N3C([H])([H])C([H])([H])C([H])([H])C([H])(n4nc(-c5c([H])c([H])c(Oc6c([H])c([H])c(F)c([H])c6F)c([H])c5[H])c(C(=O)N([H])[H])c4N([H])[H])C3([H])[H])c([H])c([H])c2C1([H])[H]

$$$$
12:0:0
     RDKit          3D

 90 98  0  0  1  0  0  0  0  0999 V2000
  -28.8970  -22.0690   20.4390 N   0  0  0  0  0  4  0  0  0  0  0  0
  -27.9270  -21.8820   20.2380 H   0  0  0  0  0  0  0  0  0  0  0  0
  -28.9820  -22.0050   21.4420 H   0  0  0  0  0  0  0  0  0  0  0  0
  -31.1370  -21.3290   19.5060 C   0  0  0  0  0  1  0  0  0  0  0  0
  -29.7040  -20.8600   19.8260 C   0  0  0  0  0  3  0  0  0  0  0  0
  -31.7290  -18.9770   21.7910 C   0  0  0  0  0  2  0  0  0  0  0  0
  -31.8490  -18.1460   20.5050 C   0  0  0  0  0  2  0  0  0  0  0  0
  -30.2540  -19.3850   21.9370 C   0  0  0  0  0  2  0  0  0  0  0  0
  -30.4160  -17.9310   19.9810 C   0  0  0  0  0  3  0  0  0  0  0  0
  -29.6530  -19.3230   20.5300 C   0  0  0  0  0  3  0  0  0  0  0  0
  -29.9650  -16.3840   20.4380 C   0  0  0  0  0  2  0  0  0  0  0  0
  -30.7280  -14.9880   20.0090 C   0  0  0  0  0  0  0  0  0  0  0  0
  -30.5120  -12.6710   19.0170 C   0  0  0  0  0  2  0  0  0  0  0  0
  -29.5150  -12.7230   17.8370 C   0  0  0  0  0  2  0  0  0  0  0  0
  -28.0760  -12.5140   18.3420 C   0  0  0  0  0  2  0  0  0  0  0  0
  -27.7490  -13.4080   19.5650 C   0  0  0  0  0  3  0  0  0  0  0  0
  -28.8630  -13.3580   20.6330 C   0  0  0  0  0  2  0  0  0  0  0  0
  -30.1260  -13.7340   19.9850 N   0  0  0  0  0  0  0  0  0  0  0  0
  -31.8820  -15.0640   19.5700 O   0  0  0  0  0  0  0  0  0  0  0  0
  -25.4150  -13.9780   20.4550 C   0  0  0  0  0  0  0  0  0  0  0  0
  -24.3690  -13.1980   20.8650 C   0  0  0  0  0  0  0  0  0  0  0  0
  -24.8240  -11.8470   20.7730 C   0  0  0  0  0  0  0  0  0  0  0  0
  -26.4380  -13.1040   20.1310 N   0  0  0  0  0  0  0  0  0  0  0  0
  -26.0940  -11.8150   20.3870 N   0  0  0  0  0  0  0  0  0  0  0  0
  -24.1020  -10.5830   20.9700 C   0  0  0  0  0  0  0  0  0  0  0  0
  -24.5440   -9.6160   21.8990 C   0  0  0  0  0  3  0  0  0  0  0  0
  -23.8210   -8.4180   22.0840 C   0  0  0  0  0  3  0  0  0  0  0  0
  -22.6420   -8.1790   21.3400 C   0  0  0  0  0  0  0  0  0  0  0  0
  -22.2180   -9.1350   20.4020 C   0  0  0  0  0  3  0  0  0  0  0  0
  -22.9410  -10.3240   20.2140 C   0  0  0  0  0  3  0  0  0  0  0  0
  -21.8870   -7.0330   21.4360 O   0  0  0  0  0  0  0  0  0  0  0  0
  -21.8160   -6.3130   22.6020 C   0  0  0  0  0  0  0  0  0  0  0  0
  -21.3390   -6.8840   23.8020 C   0  0  0  0  0  3  0  0  0  0  0  0
  -21.2170   -6.0890   24.9590 C   0  0  0  0  0  3  0  0  0  0  0  0
  -21.5640   -4.7260   24.9170 C   0  0  0  0  0  0  0  0  0  0  0  0
  -22.0350   -4.1540   23.7230 C   0  0  0  0  0  3  0  0  0  0  0  0
  -22.1590   -4.9470   22.5670 C   0  0  0  0  0  0  0  0  0  0  0  0
  -22.5940   -4.3880   21.4120 F   0  0  0  0  0  0  0  0  0  0  0  0
  -21.4410   -3.9590   26.0270 F   0  0  0  0  0  0  0  0  0  0  0  0
  -22.9920  -13.6720   21.2320 C   0  0  0  0  0  0  0  0  0  0  0  0
  -22.3120  -12.9560   22.1190 N   0  0  0  0  0  0  0  0  0  0  0  0
  -22.5310  -14.7130   20.7620 O   0  0  0  0  0  0  0  0  0  0  0  0
  -22.7000  -12.1130   22.5190 H   0  0  0  0  0  0  0  0  0  0  0  0
  -21.3880  -13.2520   22.4030 H   0  0  0  0  0  0  0  0  0  0  0  0
  -25.5780  -15.3530   20.3050 N   0  0  0  0  0  0  0  0  0  0  0  0
  -24.8190  -16.0090   20.4620 H   0  0  0  0  0  0  0  0  0  0  0  0
  -26.4170  -15.7970   19.9530 H   0  0  0  0  0  0  0  0  0  0  0  0
  -29.1740  -23.5810   20.0710 C   0  0  0  0  0  3  0  0  0  0  0  0
  -28.1240  -24.8060   20.4760 C   0  0  0  0  0  3  0  0  0  0  0  0
  -28.3860  -26.3230   20.3140 O   0  0  0  0  0  0  0  0  0  0  0  0
  -24.7010  -31.9410   23.2810 C   0  0  0  0  0  0  0  0  0  0  0  0
  -27.3070  -27.2660   20.2670 C   0  0  0  0  0  0  0  0  0  0  0  0
  -23.5080  -30.5410   21.6410 C   0  0  0  0  0  3  0  0  0  0  0  0
  -24.9670  -28.9780   20.2220 C   0  0  0  0  0  0  0  0  0  0  0  0
  -26.0620  -30.8240   21.4840 C   0  0  0  0  0  2  0  0  0  0  0  0
  -26.1430  -29.4380   20.8290 C   0  0  0  0  0  0  0  0  0  0  0  0
  -27.3160  -28.6010   20.8310 C   0  0  0  0  0  3  0  0  0  0  0  0
  -26.1080  -26.9030   19.6150 C   0  0  0  0  0  3  0  0  0  0  0  0
  -24.9600  -27.7220   19.6000 C   0  0  0  0  0  3  0  0  0  0  0  0
  -23.7350  -29.8670   20.2640 C   0  0  0  0  0  2  0  0  0  0  0  0
  -24.7770  -31.1220   22.1900 N   0  0  0  0  0  0  0  0  0  0  0  0
  -23.6140  -32.2230   23.8050 O   0  0  0  0  0  0  0  0  0  0  0  0
  -22.8340  -29.5280   22.5980 C   0  0  0  0  0  0  0  0  0  0  0  0
  -21.5070  -29.3530   22.4680 N   0  0  0  0  0  0  0  0  0  0  0  0
  -23.5060  -28.9030   23.4220 O   0  0  0  0  0  0  0  0  0  0  0  0
  -21.0240  -29.9090   21.7770 H   0  0  0  0  0  0  0  0  0  0  0  0
  -18.1270  -28.1500   22.9570 C   0  0  0  0  0  0  0  0  0  0  0  0
  -20.6840  -28.4180   23.2390 C   0  0  0  0  0  3  0  0  0  0  0  0
  -20.7920  -26.9840   22.6720 C   0  0  0  0  0  2  0  0  0  0  0  0
  -19.6980  -26.6540   21.6520 C   0  0  0  0  0  2  0  0  0  0  0  0
  -18.3100  -26.7990   22.2840 C   0  0  0  0  0  2  0  0  0  0  0  0
  -19.2420  -28.9170   23.3900 C   0  0  0  0  0  0  0  0  0  0  0  0
  -19.0160  -30.1790   23.9810 C   0  0  0  0  0  3  0  0  0  0  0  0
  -17.7080  -30.6760   24.1400 C   0  0  0  0  0  3  0  0  0  0  0  0
  -16.6090  -29.9060   23.7250 C   0  0  0  0  0  3  0  0  0  0  0  0
  -16.8190  -28.6440   23.1400 C   0  0  0  0  0  3  0  0  0  0  0  0
  -25.9760  -32.5810   23.9110 C   0  0  0  0  0  3  0  0  0  0  0  0
  -25.6650  -33.9870   24.2150 N   0  0  0  0  0  0  0  0  0  0  0  0
  -26.0120  -35.0310   23.4510 C   0  0  0  0  0  0  0  0  0  0  0  0
  -26.6970  -34.9120   22.4310 O   0  0  0  0  0  0  0  0  0  0  0  0
  -25.0630  -34.1560   25.0080 H   0  0  0  0  0  0  0  0  0  0  0  0
  -24.3050  -36.8320   23.0470 C   0  0  0  0  0  1  0  0  0  0  0  0
  -25.5250  -36.4260   23.8880 C   0  0  0  0  0  3  0  0  0  0  0  0
  -27.6480  -37.3020   24.7560 C   0  0  0  0  0  1  0  0  0  0  0  0
  -26.5660  -37.4720   23.7900 N   0  0  0  0  0  0  0  0  0  0  0  0
  -26.1630  -38.3950   23.9260 H   0  0  0  0  0  0  0  0  0  0  0  0
  -26.4670  -31.8340   25.2120 C   0  0  1  0  0  0  0  0  0  0  0  0
  -25.3520  -31.6260   26.2660 C   0  0  0  0  0  1  0  0  0  0  0  0
  -27.0500  -30.4450   24.8670 C   0  0  0  0  0  1  0  0  0  0  0  0
  -27.6110  -32.6370   25.8770 C   0  0  0  0  0  1  0  0  0  0  0  0
  1  3  1  0
  2  1  1  0
  5  4  1  0
  5  1  1  0
  6  8  1  0
  7  6  1  0
  9 11  1  0
  9  7  1  0
  9 10  1  0
 10  5  1  0
 10  8  1  0
 12 11  1  0
 13 18  1  0
 14 15  1  0
 14 13  1  0
 16 15  1  0
 16 23  1  0
 16 17  1  0
 18 12  1  0
 18 17  1  0
 19 12  2  0
 20 21  2  0
 21 40  1  0
 22 21  1  0
 22 25  1  0
 23 24  1  0
 23 20  1  0
 24 22  2  0
 25 26  1  0
 26 27  2  0
 28 31  1  0
 28 27  1  0
 29 28  2  0
 30 29  1  0
 30 25  2  0
 31 32  1  0
 32 33  1  0
 33 34  2  0
 35 34  1  0
 35 39  1  0
 36 35  2  0
 37 32  2  0
 37 36  1  0
 38 37  1  0
 40 41  1  0
 41 44  1  0
 41 43  1  0
 42 40  2  0
 45 20  1  0
 45 46  1  0
 47 45  1  0
 48  1  1  0
 48 49  2  0
 50 49  1  0
 51 62  2  0
 52 50  1  0
 52 57  1  0
 53 61  1  0
 53 63  1  0
 54 60  1  0
 54 56  1  0
 55 61  1  0
 56 57  2  0
 56 55  1  0
 58 52  2  0
 59 58  1  0
 59 54  2  0
 60 53  1  0
 61 51  1  0
 63 65  2  0
 64 63  1  0
 66 64  1  0
 67 76  2  0
 67 72  1  0
 68 64  1  0
 68 72  1  0
 69 68  1  0
 70 71  1  0
 70 69  1  0
 71 67  1  0
 72 73  2  0
 73 74  1  0
 75 74  2  0
 76 75  1  0
 77 51  1  0
 77 78  1  0
 77 87  1  0
 78 81  1  0
 79 83  1  0
 79 78  1  0
 80 79  2  0
 83 82  1  0
 85 83  1  0
 85 86  1  0
 85 84  1  0
 87 90  1  1
 87 88  1  0
 89 87  1  0
M  ISO  4  11 100  12 100  49 101  50 101
M  END
>  <TORSDO>  (13) 
F 21

>  <SCORE>  (13) 
-13.048

>  <name>  (13) 
12

>  <ligand_id>  (13) 
12

>  <original_smiles>  (13) 
[H]c1c([H])c([H])c2c(c1[H])C([H])([H])C([H])([H])C([H])([H])C2([H])N([H])C(=O)C1([H])N(C(=O)C([H])(N([H])C(=O)C([H])(N([H])C([H])([H])[H])C([H])([H])[H])C(C([H])([H])[H])(C([H])([H])[H])C([H])([H])[H])C([H])([H])c2c([H])c(OC([H])([H])C([H])([H])[N+]([H])([H])C([H])(C([H])([H])[H])C3([H])C([H])([H])C([H])([H])C([H])([H])C3([H])C([H])([H])C(=O)N3C([H])([H])C([H])([H])C([H])([H])C([H])(n4nc(-c5c([H])c([H])c(Oc6c([H])c([H])c(F)c([H])c6F)c([H])c5[H])c(C(=O)N([H])[H])c4N([H])[H])C3([H])[H])c([H])c([H])c2C1([H])[H]

>  <smiles>  (13) 
[H]c1c([H])c([H])c2c(c1[H])C([H])([H])C([H])([H])C([H])([H])C2([H])N([H])C(=O)C1([H])N(C(=O)C([H])(N([H])C(=O)C([H])(N([H])C([H])([H])[H])C([H])([H])[H])C(C([H])([H])[H])(C([H])([H])[H])C([H])([H])[H])C([H])([H])c2c([H])c(OC([H])([H])C([H])([H])[N+]([H])([H])C([H])(C([H])([H])[H])C3([H])C([H])([H])C([H])([H])C([H])([H])C3([H])C([H])([H])C(=O)N3C([H])([H])C([H])([H])C([H])([H])C([H])(n4nc(-c5c([H])c([H])c(Oc6c([H])c([H])c(F)c([H])c6F)c([H])c5[H])c(C(=O)N([H])[H])c4N([H])[H])C3([H])[H])c([H])c([H])c2C1([H])[H]

$$$$
13:0:0
     RDKit          3D

 94103  0  0  1  0  0  0  0  0999 V2000
  -28.4930  -18.1300   21.7270 C   0  0  0  0  0  2  0  0  0  0  0  0
  -29.8480  -17.4380   21.9190 C   0  0  0  0  0  2  0  0  0  0  0  0
  -30.7800  -19.6080   19.6240 C   0  0  0  0  0  2  0  0  0  0  0  0
  -28.6840  -20.3380   20.4580 C   0  0  0  0  0  2  0  0  0  0  0  0
  -29.8850  -18.3360   19.6890 C   0  0  0  0  0  3  0  0  0  0  0  0
  -29.7680  -20.7410   19.4460 C   0  0  0  0  0  3  0  0  0  0  0  0
  -28.5490  -18.8070   20.3410 C   0  0  1  0  0  0  0  0  0  0  0  0
  -30.4230  -17.1170   20.5130 C   0  0  1  0  0  0  0  0  0  0  0  0
  -27.2940  -18.4640   19.4970 C   0  0  0  0  0  1  0  0  0  0  0  0
  -31.9740  -17.1080   20.5670 C   0  0  0  0  0  1  0  0  0  0  0  0
  -30.2840  -22.1320   19.6290 N   0  0  0  0  0  4  0  0  0  0  0  0
  -31.0510  -22.2940   18.9910 H   0  0  0  0  0  0  0  0  0  0  0  0
  -30.6390  -22.2690   20.5610 H   0  0  0  0  0  0  0  0  0  0  0  0
  -29.2170  -23.1170   19.3310 C   0  0  0  0  0  2  0  0  0  0  0  0
  -29.4590  -24.5940   19.7050 C   0  0  0  0  0  2  0  0  0  0  0  0
  -28.1020  -25.2970   19.5650 C   0  0  0  0  0  2  0  0  0  0  0  0
  -28.2130  -26.7130   19.6190 O   0  0  0  0  0  0  0  0  0  0  0  0
  -24.4930  -31.6210   23.0770 C   0  0  0  0  0  0  0  0  0  0  0  0
  -27.0220  -27.4050   19.6540 C   0  0  0  0  0  0  0  0  0  0  0  0
  -23.2140  -30.2840   21.4350 C   0  0  0  0  0  3  0  0  0  0  0  0
  -24.6060  -28.8600   19.8470 C   0  0  0  0  0  0  0  0  0  0  0  0
  -25.7210  -30.6950   21.1270 C   0  0  0  0  0  2  0  0  0  0  0  0
  -25.7850  -29.3750   20.3990 C   0  0  0  0  0  0  0  0  0  0  0  0
  -26.9940  -28.6580   20.2980 C   0  0  0  0  0  3  0  0  0  0  0  0
  -25.8260  -26.9030   19.0820 C   0  0  0  0  0  3  0  0  0  0  0  0
  -24.6240  -27.6240   19.1780 C   0  0  0  0  0  3  0  0  0  0  0  0
  -23.3530  -29.6870   20.0090 C   0  0  0  0  0  2  0  0  0  0  0  0
  -24.4940  -30.8800   21.9330 N   0  0  0  0  0  0  0  0  0  0  0  0
  -23.4420  -31.8510   23.6900 O   0  0  0  0  0  0  0  0  0  0  0  0
  -22.6370  -29.1980   22.3710 C   0  0  0  0  0  0  0  0  0  0  0  0
  -21.3220  -28.9560   22.2620 N   0  0  0  0  0  0  0  0  0  0  0  0
  -23.3690  -28.5790   23.1470 O   0  0  0  0  0  0  0  0  0  0  0  0
  -20.7920  -29.5070   21.6010 H   0  0  0  0  0  0  0  0  0  0  0  0
  -18.0260  -27.5630   22.7360 C   0  0  0  0  0  0  0  0  0  0  0  0
  -20.5620  -27.9590   23.0150 C   0  0  0  0  0  3  0  0  0  0  0  0
  -20.7500  -26.5490   22.4120 C   0  0  0  0  0  2  0  0  0  0  0  0
  -19.6680  -26.1790   21.3920 C   0  0  0  0  0  2  0  0  0  0  0  0
  -18.2790  -26.2360   22.0380 C   0  0  0  0  0  2  0  0  0  0  0  0
  -19.0990  -28.3800   23.1790 C   0  0  0  0  0  0  0  0  0  0  0  0
  -18.8090  -29.6210   23.7860 C   0  0  0  0  0  3  0  0  0  0  0  0
  -17.4790  -30.0470   23.9570 C   0  0  0  0  0  3  0  0  0  0  0  0
  -16.4180  -29.2230   23.5390 C   0  0  0  0  0  3  0  0  0  0  0  0
  -16.6930  -27.9850   22.9310 C   0  0  0  0  0  3  0  0  0  0  0  0
  -25.8050  -32.2370   23.6520 C   0  0  0  0  0  3  0  0  0  0  0  0
  -25.5110  -33.6230   24.0320 N   0  0  0  0  0  0  0  0  0  0  0  0
  -25.8040  -34.6970   23.2860 C   0  0  0  0  0  0  0  0  0  0  0  0
  -26.4260  -34.6220   22.2230 O   0  0  0  0  0  0  0  0  0  0  0  0
  -24.9550  -33.7560   24.8640 H   0  0  0  0  0  0  0  0  0  0  0  0
  -24.0470  -36.4810   23.0630 C   0  0  0  0  0  1  0  0  0  0  0  0
  -25.3290  -36.0680   23.8010 C   0  0  0  0  0  3  0  0  0  0  0  0
  -27.4930  -36.9560   24.5490 C   0  0  0  0  0  1  0  0  0  0  0  0
  -26.3470  -37.1330   23.6620 N   0  0  0  0  0  0  0  0  0  0  0  0
  -25.9380  -38.0450   23.8500 H   0  0  0  0  0  0  0  0  0  0  0  0
  -26.3850  -31.4330   24.8810 C   0  0  1  0  0  0  0  0  0  0  0  0
  -25.3410  -31.1550   25.9880 C   0  0  0  0  0  1  0  0  0  0  0  0
  -26.9630  -30.0740   24.4260 C   0  0  0  0  0  1  0  0  0  0  0  0
  -27.5540  -32.2200   25.5200 C   0  0  0  0  0  1  0  0  0  0  0  0
  -29.7880  -15.7550   19.9830 C   0  0  0  0  0  2  0  0  0  0  0  0
  -30.6430  -14.4950   19.5680 C   0  0  0  0  0  0  0  0  0  0  0  0
  -30.3220  -12.2900   18.5050 C   0  0  0  0  0  2  0  0  0  0  0  0
  -29.2550  -12.5100   17.4080 C   0  0  0  0  0  2  0  0  0  0  0  0
  -27.8240  -12.4150   17.9780 C   0  0  0  0  0  2  0  0  0  0  0  0
  -27.6400  -13.2260   19.2920 C   0  0  0  0  0  3  0  0  0  0  0  0
  -28.8030  -12.9250   20.2640 C   0  0  0  0  0  2  0  0  0  0  0  0
  -30.0530  -13.2670   19.5710 N   0  0  0  0  0  0  0  0  0  0  0  0
  -31.7450  -14.6600   19.0380 O   0  0  0  0  0  0  0  0  0  0  0  0
  -25.3530  -13.8810   20.2790 C   0  0  0  0  0  0  0  0  0  0  0  0
  -24.3060  -13.1220   20.7320 C   0  0  0  0  0  0  0  0  0  0  0  0
  -24.7170  -11.7630   20.5990 C   0  0  0  0  0  0  0  0  0  0  0  0
  -26.3350  -12.9750   19.9010 N   0  0  0  0  0  0  0  0  0  0  0  0
  -25.9580  -11.6970   20.1460 N   0  0  0  0  0  0  0  0  0  0  0  0
  -23.9750  -10.5150   20.8280 C   0  0  0  0  0  0  0  0  0  0  0  0
  -24.4600   -9.5210   21.7080 C   0  0  0  0  0  3  0  0  0  0  0  0
  -23.7190   -8.3380   21.9200 C   0  0  0  0  0  3  0  0  0  0  0  0
  -22.4830   -8.1430   21.2580 C   0  0  0  0  0  0  0  0  0  0  0  0
  -22.0220   -9.1220   20.3620 C   0  0  0  0  0  3  0  0  0  0  0  0
  -22.7620  -10.2980   20.1470 C   0  0  0  0  0  3  0  0  0  0  0  0
  -21.7080   -7.0160   21.3900 O   0  0  0  0  0  0  0  0  0  0  0  0
  -21.7050   -6.2750   22.5430 C   0  0  0  0  0  0  0  0  0  0  0  0
  -21.3490   -6.8340   23.7910 C   0  0  0  0  0  3  0  0  0  0  0  0
  -21.2980   -6.0190   24.9400 C   0  0  0  0  0  3  0  0  0  0  0  0
  -21.5940   -4.6450   24.8400 C   0  0  0  0  0  0  0  0  0  0  0  0
  -21.9440   -4.0850   23.6000 C   0  0  0  0  0  3  0  0  0  0  0  0
  -21.9970   -4.8990   22.4540 C   0  0  0  0  0  0  0  0  0  0  0  0
  -22.3170   -4.3530   21.2570 F   0  0  0  0  0  0  0  0  0  0  0  0
  -21.5320   -3.8560   25.9400 F   0  0  0  0  0  0  0  0  0  0  0  0
  -22.9650  -13.6290   21.1800 C   0  0  0  0  0  0  0  0  0  0  0  0
  -22.3280  -12.9140   22.1010 N   0  0  0  0  0  0  0  0  0  0  0  0
  -22.4950  -14.6820   20.7510 O   0  0  0  0  0  0  0  0  0  0  0  0
  -22.7310  -12.0630   22.4670 H   0  0  0  0  0  0  0  0  0  0  0  0
  -21.4240  -13.2090   22.4410 H   0  0  0  0  0  0  0  0  0  0  0  0
  -25.5440  -15.2470   20.1500 N   0  0  0  0  0  0  0  0  0  0  0  0
  -24.8490  -15.9250   20.4430 H   0  0  0  0  0  0  0  0  0  0  0  0
  -26.4000  -15.6740   19.8160 H   0  0  0  0  0  0  0  0  0  0  0  0
  1  2  1  0
  5  3  1  0
  5  7  1  0
  5  8  1  0
  6  3  1  0
  6 11  1  0
  6  4  1  0
  7  9  1  6
  7  4  1  0
  7  1  1  0
  8 10  1  1
  8  2  1  0
 11 13  1  0
 12 11  1  0
 14 11  1  0
 14 15  1  0
 16 17  1  0
 16 15  1  0
 17 19  1  0
 18 29  2  0
 19 24  1  0
 20 28  1  0
 20 30  1  0
 21 27  1  0
 21 23  1  0
 22 28  1  0
 23 22  1  0
 24 23  2  0
 25 26  1  0
 25 19  2  0
 26 21  2  0
 27 20  1  0
 28 18  1  0
 30 32  2  0
 31 30  1  0
 33 31  1  0
 34 43  2  0
 34 39  1  0
 35 31  1  0
 35 39  1  0
 36 35  1  0
 37 38  1  0
 37 36  1  0
 38 34  1  0
 39 40  2  0
 40 41  1  0
 42 41  2  0
 43 42  1  0
 44 18  1  0
 44 45  1  0
 44 54  1  0
 45 48  1  0
 46 50  1  0
 46 45  1  0
 47 46  2  0
 50 49  1  0
 52 50  1  0
 52 53  1  0
 52 51  1  0
 54 57  1  1
 54 55  1  0
 56 54  1  0
 58  8  1  0
 59 65  1  0
 59 58  1  0
 60 65  1  0
 61 62  1  0
 61 60  1  0
 63 62  1  0
 63 70  1  0
 63 64  1  0
 65 64  1  0
 66 59  2  0
 67 68  2  0
 68 87  1  0
 69 68  1  0
 69 72  1  0
 70 71  1  0
 70 67  1  0
 71 69  2  0
 72 73  1  0
 73 74  2  0
 75 78  1  0
 75 74  1  0
 76 75  2  0
 77 76  1  0
 77 72  2  0
 78 79  1  0
 79 80  1  0
 80 81  2  0
 82 81  1  0
 82 86  1  0
 83 82  2  0
 84 79  2  0
 84 83  1  0
 85 84  1  0
 87 88  1  0
 88 91  1  0
 88 90  1  0
 89 87  2  0
 92 67  1  0
 92 93  1  0
 94 92  1  0
M  ISO  4  16 101  17 101  58 100  59 100
M  END
>  <TORSDO>  (14) 
F 21

>  <SCORE>  (14) 
-10.689

>  <name>  (14) 
13

>  <ligand_id>  (14) 
13

>  <original_smiles>  (14) 
[H]c1c([H])c([H])c2c(c1[H])C([H])([H])C([H])([H])C([H])([H])C2([H])N([H])C(=O)C1([H])N(C(=O)C([H])(N([H])C(=O)C([H])(N([H])C([H])([H])[H])C([H])([H])[H])C(C([H])([H])[H])(C([H])([H])[H])C([H])([H])[H])C([H])([H])c2c([H])c(OC([H])([H])C([H])([H])C([H])([H])[N+]([H])([H])C3([H])C([H])([H])C4([H])C(C([H])([H])[H])(C([H])([H])C(=O)N5C([H])([H])C([H])([H])C([H])([H])C([H])(n6nc(-c7c([H])c([H])c(Oc8c([H])c([H])c(F)c([H])c8F)c([H])c7[H])c(C(=O)N([H])[H])c6N([H])[H])C5([H])[H])C([H])([H])C([H])([H])C4(C([H])([H])[H])C3([H])[H])c([H])c([H])c2C1([H])[H]

>  <smiles>  (14) 
[H]c1c([H])c([H])c2c(c1[H])C([H])([H])C([H])([H])C([H])([H])C2([H])N([H])C(=O)C1([H])N(C(=O)C([H])(N([H])C(=O)C([H])(N([H])C([H])([H])[H])C([H])([H])[H])C(C([H])([H])[H])(C([H])([H])[H])C([H])([H])[H])C([H])([H])c2c([H])c(OC([H])([H])C([H])([H])C([H])([H])[N+]([H])([H])C3([H])C([H])([H])C4([H])C(C([H])([H])[H])(C([H])([H])C(=O)N5C([H])([H])C([H])([H])C([H])([H])C([H])(n6nc(-c7c([H])c([H])c(Oc8c([H])c([H])c(F)c([H])c8F)c([H])c7[H])c(C(=O)N([H])[H])c6N([H])[H])C5([H])[H])C([H])([H])C([H])([H])C4(C([H])([H])[H])C3([H])[H])c([H])c([H])c2C1([H])[H]

$$$$
14:0:0
     RDKit          3D

 90 99  0  0  1  0  0  0  0  0999 V2000
  -31.0280  -19.0910   19.7180 C   0  0  0  0  0  2  0  0  0  0  0  0
  -30.6220  -19.6580   18.3590 C   0  0  0  0  0  2  0  0  0  0  0  0
  -28.8660  -20.5340   20.0020 C   0  0  0  0  0  3  0  0  0  0  0  0
  -29.7100  -18.9030   20.4520 C   0  0  0  0  0  3  0  0  0  0  0  0
  -28.9530  -22.4100   20.3390 C   0  0  0  0  0  3  0  0  0  0  0  0
  -29.3620  -20.5410   18.5260 C   0  0  0  0  0  3  0  0  0  0  0  0
  -29.9620  -22.7910   19.2540 C   0  0  0  0  0  3  0  0  0  0  0  0
  -31.4250  -22.7890   19.7240 C   0  0  0  0  0  1  0  0  0  0  0  0
  -29.6920  -21.9110   18.1040 N   0  0  0  0  0  4  0  0  0  0  0  0
  -28.8930  -22.2670   17.6040 H   0  0  0  0  0  0  0  0  0  0  0  0
  -30.4670  -21.8990   17.4610 H   0  0  0  0  0  0  0  0  0  0  0  0
  -29.4050  -17.0700   20.2100 C   0  0  0  0  0  2  0  0  0  0  0  0
  -30.2990  -15.4870   20.2520 C   0  0  0  0  0  0  0  0  0  0  0  0
  -30.3900  -12.9780   19.4400 C   0  0  0  0  0  2  0  0  0  0  0  0
  -29.5010  -12.7150   18.1940 C   0  0  0  0  0  2  0  0  0  0  0  0
  -28.0510  -12.4050   18.6090 C   0  0  0  0  0  2  0  0  0  0  0  0
  -27.5550  -13.3690   19.7150 C   0  0  0  0  0  3  0  0  0  0  0  0
  -28.5810  -13.5850   20.8460 C   0  0  0  0  0  2  0  0  0  0  0  0
  -29.8070  -14.1320   20.2370 N   0  0  0  0  0  0  0  0  0  0  0  0
  -31.5320  -15.4770   20.0870 O   0  0  0  0  0  0  0  0  0  0  0  0
  -25.1790  -13.8880   20.4710 C   0  0  0  0  0  0  0  0  0  0  0  0
  -24.1250  -13.0960   20.8360 C   0  0  0  0  0  0  0  0  0  0  0  0
  -24.6110  -11.7540   20.8110 C   0  0  0  0  0  0  0  0  0  0  0  0
  -26.2330  -13.0270   20.2260 N   0  0  0  0  0  0  0  0  0  0  0  0
  -25.9040  -11.7360   20.5010 N   0  0  0  0  0  0  0  0  0  0  0  0
  -23.8950  -10.4840   21.0010 C   0  0  0  0  0  0  0  0  0  0  0  0
  -24.3170   -9.5300   21.9540 C   0  0  0  0  0  3  0  0  0  0  0  0
  -23.5970   -8.3280   22.1340 C   0  0  0  0  0  3  0  0  0  0  0  0
  -22.4420   -8.0700   21.3590 C   0  0  0  0  0  0  0  0  0  0  0  0
  -22.0390   -9.0120   20.3950 C   0  0  0  0  0  3  0  0  0  0  0  0
  -22.7590  -10.2050   20.2150 C   0  0  0  0  0  3  0  0  0  0  0  0
  -21.6960   -6.9190   21.4440 O   0  0  0  0  0  0  0  0  0  0  0  0
  -21.6160   -6.1980   22.6070 C   0  0  0  0  0  0  0  0  0  0  0  0
  -21.1050   -6.7580   23.7970 C   0  0  0  0  0  3  0  0  0  0  0  0
  -20.9740   -5.9610   24.9520 C   0  0  0  0  0  3  0  0  0  0  0  0
  -21.3460   -4.6040   24.9190 C   0  0  0  0  0  0  0  0  0  0  0  0
  -21.8500   -4.0420   23.7320 C   0  0  0  0  0  3  0  0  0  0  0  0
  -21.9820   -4.8370   22.5800 C   0  0  0  0  0  0  0  0  0  0  0  0
  -22.4480   -4.2840   21.4350 F   0  0  0  0  0  0  0  0  0  0  0  0
  -21.2150   -3.8370   26.0270 F   0  0  0  0  0  0  0  0  0  0  0  0
  -22.7200  -13.5590   21.0900 C   0  0  0  0  0  0  0  0  0  0  0  0
  -21.9940  -12.8640   21.9580 N   0  0  0  0  0  0  0  0  0  0  0  0
  -22.2740  -14.5700   20.5510 O   0  0  0  0  0  0  0  0  0  0  0  0
  -22.3700  -12.0520   22.4240 H   0  0  0  0  0  0  0  0  0  0  0  0
  -21.0460  -13.1520   22.1600 H   0  0  0  0  0  0  0  0  0  0  0  0
  -25.3210  -15.2600   20.2950 N   0  0  0  0  0  0  0  0  0  0  0  0
  -24.5380  -15.8980   20.4050 H   0  0  0  0  0  0  0  0  0  0  0  0
  -26.1560  -15.7160   19.9520 H   0  0  0  0  0  0  0  0  0  0  0  0
  -27.8900  -23.9760   20.2890 C   0  0  0  0  0  2  0  0  0  0  0  0
  -28.1110  -25.6830   20.3460 O   0  0  0  0  0  0  0  0  0  0  0  0
  -24.6260  -31.8860   23.2310 C   0  0  0  0  0  0  0  0  0  0  0  0
  -27.1320  -26.8560   20.2770 C   0  0  0  0  0  0  0  0  0  0  0  0
  -23.4290  -30.4860   21.6020 C   0  0  0  0  0  3  0  0  0  0  0  0
  -24.8700  -28.8410   20.1960 C   0  0  0  0  0  0  0  0  0  0  0  0
  -26.0010  -30.6480   21.4640 C   0  0  0  0  0  2  0  0  0  0  0  0
  -26.0630  -29.2180   20.8240 C   0  0  0  0  0  0  0  0  0  0  0  0
  -27.1830  -28.2480   20.8360 C   0  0  0  0  0  3  0  0  0  0  0  0
  -25.9090  -26.6670   19.5920 C   0  0  0  0  0  3  0  0  0  0  0  0
  -24.8260  -27.5900   19.5560 C   0  0  0  0  0  3  0  0  0  0  0  0
  -23.6610  -29.7840   20.2330 C   0  0  0  0  0  2  0  0  0  0  0  0
  -24.7090  -31.0370   22.1530 N   0  0  0  0  0  0  0  0  0  0  0  0
  -23.5360  -32.1880   23.7460 O   0  0  0  0  0  0  0  0  0  0  0  0
  -22.7170  -29.5080   22.5760 C   0  0  0  0  0  0  0  0  0  0  0  0
  -21.3860  -29.3500   22.4490 N   0  0  0  0  0  0  0  0  0  0  0  0
  -23.3750  -28.8910   23.4160 O   0  0  0  0  0  0  0  0  0  0  0  0
  -20.9060  -29.8990   21.7510 H   0  0  0  0  0  0  0  0  0  0  0  0
  -17.9990  -28.1470   22.9560 C   0  0  0  0  0  0  0  0  0  0  0  0
  -20.5580  -28.4200   23.2260 C   0  0  0  0  0  3  0  0  0  0  0  0
  -20.6630  -26.9820   22.6640 C   0  0  0  0  0  2  0  0  0  0  0  0
  -19.5660  -26.6510   21.6480 C   0  0  0  0  0  2  0  0  0  0  0  0
  -18.1810  -26.7960   22.2850 C   0  0  0  0  0  2  0  0  0  0  0  0
  -19.1140  -28.9170   23.3820 C   0  0  0  0  0  0  0  0  0  0  0  0
  -18.8870  -30.1790   23.9720 C   0  0  0  0  0  3  0  0  0  0  0  0
  -17.5790  -30.6730   24.1360 C   0  0  0  0  0  3  0  0  0  0  0  0
  -16.4790  -29.9000   23.7230 C   0  0  0  0  0  3  0  0  0  0  0  0
  -16.6900  -28.6390   23.1390 C   0  0  0  0  0  3  0  0  0  0  0  0
  -25.8970  -32.5320   23.8640 C   0  0  0  0  0  3  0  0  0  0  0  0
  -25.5890  -33.9400   24.1730 N   0  0  0  0  0  0  0  0  0  0  0  0
  -25.9170  -34.9880   23.4030 C   0  0  0  0  0  0  0  0  0  0  0  0
  -26.5680  -34.8680   22.3630 O   0  0  0  0  0  0  0  0  0  0  0  0
  -25.0070  -34.1060   24.9800 H   0  0  0  0  0  0  0  0  0  0  0  0
  -24.1890  -36.7930   23.0810 C   0  0  0  0  0  1  0  0  0  0  0  0
  -25.4530  -36.3870   23.8570 C   0  0  0  0  0  3  0  0  0  0  0  0
  -27.6110  -37.2850   24.6140 C   0  0  0  0  0  1  0  0  0  0  0  0
  -26.4840  -37.4350   23.6950 N   0  0  0  0  0  0  0  0  0  0  0  0
  -26.0840  -38.3590   23.8340 H   0  0  0  0  0  0  0  0  0  0  0  0
  -26.3810  -31.7860   25.1690 C   0  0  1  0  0  0  0  0  0  0  0  0
  -25.2680  -31.5900   26.2240 C   0  0  0  0  0  1  0  0  0  0  0  0
  -26.9520  -30.3910   24.8280 C   0  0  0  0  0  1  0  0  0  0  0  0
  -27.5300  -32.5820   25.8330 C   0  0  0  0  0  1  0  0  0  0  0  0
  1  4  1  0
  2  6  1  0
  2  1  1  0
  3  5  1  0
  3  4  1  0
  6  3  1  0
  7  8  1  0
  7  5  1  0
  9  6  1  0
  9  7  1  0
 10  9  1  0
 11  9  1  0
 12 13  1  0
 12  4  1  0
 14 19  1  0
 15 16  1  0
 15 14  1  0
 16 17  1  0
 17 24  1  0
 17 18  1  0
 19 13  1  0
 19 18  1  0
 20 13  2  0
 21 22  2  0
 22 41  1  0
 23 22  1  0
 23 26  1  0
 24 21  1  0
 24 25  1  0
 25 23  2  0
 26 27  1  0
 27 28  2  0
 29 32  1  0
 29 28  1  0
 30 29  2  0
 31 30  1  0
 31 26  2  0
 32 33  1  0
 33 34  1  0
 34 35  2  0
 36 35  1  0
 36 40  1  0
 37 36  2  0
 38 33  2  0
 38 37  1  0
 39 38  1  0
 41 42  1  0
 42 45  1  0
 42 44  1  0
 43 41  2  0
 46 47  1  0
 46 21  1  0
 48 46  1  0
 49  5  1  0
 49 50  1  0
 51 62  2  0
 51 77  1  0
 52 50  1  0
 52 57  1  0
 53 61  1  0
 53 63  1  0
 54 60  1  0
 54 56  1  0
 55 61  1  0
 56 57  2  0
 56 55  1  0
 58 52  2  0
 59 58  1  0
 59 54  2  0
 60 53  1  0
 61 51  1  0
 63 65  2  0
 64 63  1  0
 64 68  1  0
 66 64  1  0
 67 76  2  0
 67 72  1  0
 68 72  1  0
 69 68  1  0
 70 71  1  0
 70 69  1  0
 71 67  1  0
 72 73  2  0
 73 74  1  0
 75 74  2  0
 76 75  1  0
 77 78  1  0
 77 87  1  0
 78 81  1  0
 79 83  1  0
 79 78  1  0
 80 79  2  0
 82 83  1  0
 85 86  1  0
 85 83  1  0
 85 84  1  0
 87 90  1  1
 87 88  1  0
 89 87  1  0
M  ISO  4  12 100  13 100  49 101  50 101
M  END
>  <TORSDO>  (15) 
F 18

>  <SCORE>  (15) 
-16.587

>  <name>  (15) 
14

>  <ligand_id>  (15) 
14

>  <original_smiles>  (15) 
[H]c1c([H])c([H])c2c(c1[H])C([H])([H])C([H])([H])C([H])([H])C2([H])N([H])C(=O)C1([H])N(C(=O)C([H])(N([H])C(=O)C([H])(N([H])C([H])([H])[H])C([H])([H])[H])C(C([H])([H])[H])(C([H])([H])[H])C([H])([H])[H])C([H])([H])c2c([H])c(OC([H])([H])C3([H])C4([H])C([H])(C([H])([H])C(=O)N5C([H])([H])C([H])([H])C([H])([H])C([H])(n6nc(-c7c([H])c([H])c(Oc8c([H])c([H])c(F)c([H])c8F)c([H])c7[H])c(C(=O)N([H])[H])c6N([H])[H])C5([H])[H])C([H])([H])C([H])([H])C4([H])[N+]([H])([H])C3([H])C([H])([H])[H])c([H])c([H])c2C1([H])[H]

>  <smiles>  (15) 
[H]c1c([H])c([H])c2c(c1[H])C([H])([H])C([H])([H])C([H])([H])C2([H])N([H])C(=O)C1([H])N(C(=O)C([H])(N([H])C(=O)C([H])(N([H])C([H])([H])[H])C([H])([H])[H])C(C([H])([H])[H])(C([H])([H])[H])C([H])([H])[H])C([H])([H])c2c([H])c(OC([H])([H])C3([H])C4([H])C([H])(C([H])([H])C(=O)N5C([H])([H])C([H])([H])C([H])([H])C([H])(n6nc(-c7c([H])c([H])c(Oc8c([H])c([H])c(F)c([H])c8F)c([H])c7[H])c(C(=O)N([H])[H])c6N([H])[H])C5([H])[H])C([H])([H])C([H])([H])C4([H])[N+]([H])([H])C3([H])C([H])([H])[H])c([H])c([H])c2C1([H])[H]

$$$$
15:0:0
     RDKit          3D

 92101  0  0  1  0  0  0  0  0999 V2000
  -29.6200  -17.3130   20.8060 C   0  0  0  0  0  2  0  0  0  0  0  0
  -28.4470  -20.5460   20.1320 C   0  0  0  0  0  2  0  0  0  0  0  0
  -30.8510  -18.1910   20.6070 C   0  0  0  0  0  3  0  0  0  0  0  0
  -29.3190  -16.8690   19.3820 C   0  0  0  0  0  3  0  0  0  0  0  0
  -29.2900  -18.6290   18.6810 C   0  0  0  0  0  3  0  0  0  0  0  0
  -28.1520  -20.1350   18.7030 C   0  0  0  0  0  3  0  0  0  0  0  0
  -30.4260  -19.2470   19.5620 C   0  0  0  0  0  3  0  0  0  0  0  0
  -29.9080  -20.4610   20.2400 N   0  0  0  0  0  4  0  0  0  0  0  0
  -30.1970  -20.4860   21.2060 H   0  0  0  0  0  0  0  0  0  0  0  0
  -30.3040  -21.2650   19.7810 H   0  0  0  0  0  0  0  0  0  0  0  0
  -30.2040  -15.2620   19.1890 C   0  0  0  0  0  0  0  0  0  0  0  0
  -30.1510  -12.7840   18.2650 C   0  0  0  0  0  2  0  0  0  0  0  0
  -29.0130  -12.5160   17.2340 C   0  0  0  0  0  2  0  0  0  0  0  0
  -27.6770  -12.1950   17.9290 C   0  0  0  0  0  2  0  0  0  0  0  0
  -27.4310  -13.1240   19.1420 C   0  0  0  0  0  3  0  0  0  0  0  0
  -28.6800  -13.2230   20.0390 C   0  0  0  0  0  2  0  0  0  0  0  0
  -29.7310  -13.8860   19.2250 N   0  0  0  0  0  0  0  0  0  0  0  0
  -31.3790  -15.2580   18.7790 O   0  0  0  0  0  0  0  0  0  0  0  0
  -25.2770  -13.6610   20.3900 C   0  0  0  0  0  0  0  0  0  0  0  0
  -24.2820  -12.8760   20.9040 C   0  0  0  0  0  0  0  0  0  0  0  0
  -24.6840  -11.5260   20.6710 C   0  0  0  0  0  0  0  0  0  0  0  0
  -26.2220  -12.7880   19.8800 N   0  0  0  0  0  0  0  0  0  0  0  0
  -25.8900  -11.4910   20.1090 N   0  0  0  0  0  0  0  0  0  0  0  0
  -23.9580  -10.2690   20.8980 C   0  0  0  0  0  0  0  0  0  0  0  0
  -24.4380   -9.2890   21.7940 C   0  0  0  0  0  3  0  0  0  0  0  0
  -23.7100   -8.0980   22.0130 C   0  0  0  0  0  3  0  0  0  0  0  0
  -22.4870   -7.8800   21.3350 C   0  0  0  0  0  0  0  0  0  0  0  0
  -22.0260   -8.8490   20.4260 C   0  0  0  0  0  3  0  0  0  0  0  0
  -22.7550  -10.0290   20.2060 C   0  0  0  0  0  3  0  0  0  0  0  0
  -21.7250   -6.7440   21.4660 O   0  0  0  0  0  0  0  0  0  0  0  0
  -21.6980   -6.0250   22.6330 C   0  0  0  0  0  0  0  0  0  0  0  0
  -21.1840   -6.5670   23.8300 C   0  0  0  0  0  3  0  0  0  0  0  0
  -21.1110   -5.7710   24.9910 C   0  0  0  0  0  3  0  0  0  0  0  0
  -21.5430   -4.4310   24.9550 C   0  0  0  0  0  0  0  0  0  0  0  0
  -22.0490   -3.8870   23.7620 C   0  0  0  0  0  3  0  0  0  0  0  0
  -22.1240   -4.6820   22.6040 C   0  0  0  0  0  0  0  0  0  0  0  0
  -22.5910   -4.1450   21.4510 F   0  0  0  0  0  0  0  0  0  0  0  0
  -21.4670   -3.6620   26.0660 F   0  0  0  0  0  0  0  0  0  0  0  0
  -22.9840  -13.3590   21.4810 C   0  0  0  0  0  0  0  0  0  0  0  0
  -22.4260  -12.6240   22.4360 N   0  0  0  0  0  0  0  0  0  0  0  0
  -22.4810  -14.4220   21.1200 O   0  0  0  0  0  0  0  0  0  0  0  0
  -22.8520  -11.7680   22.7590 H   0  0  0  0  0  0  0  0  0  0  0  0
  -21.5600  -12.9260   22.8590 H   0  0  0  0  0  0  0  0  0  0  0  0
  -25.4400  -15.0380   20.2860 N   0  0  0  0  0  0  0  0  0  0  0  0
  -24.6910  -15.6710   20.5440 H   0  0  0  0  0  0  0  0  0  0  0  0
  -26.1830  -15.4910   19.7720 H   0  0  0  0  0  0  0  0  0  0  0  0
  -31.1310  -18.4020   23.1220 C   0  0  0  0  0  2  0  0  0  0  0  0
  -31.5250  -18.7160   21.8740 C   0  0  0  0  0  0  0  0  0  0  0  0
  -32.7160  -19.6210   21.6230 C   0  0  0  0  0  1  0  0  0  0  0  0
  -27.9720  -21.8100   17.8610 C   0  0  0  0  0  2  0  0  0  0  0  0
  -27.2690  -23.5070   18.2610 C   0  0  0  0  0  2  0  0  0  0  0  0
  -27.6570  -25.1610   18.0930 O   0  0  0  0  0  0  0  0  0  0  0  0
  -25.6730  -30.6000   23.1130 C   0  0  0  0  0  0  0  0  0  0  0  0
  -26.9110  -26.4240   18.5020 C   0  0  0  0  0  0  0  0  0  0  0  0
  -24.1040  -30.0100   21.3130 C   0  0  0  0  0  3  0  0  0  0  0  0
  -25.0770  -28.6660   19.3140 C   0  0  0  0  0  0  0  0  0  0  0  0
  -26.6420  -29.7640   20.9010 C   0  0  0  0  0  2  0  0  0  0  0  0
  -26.3660  -28.6250   19.8600 C   0  0  0  0  0  0  0  0  0  0  0  0
  -27.2760  -27.5400   19.4320 C   0  0  0  0  0  3  0  0  0  0  0  0
  -25.6190  -26.6520   17.9690 C   0  0  0  0  0  3  0  0  0  0  0  0
  -24.7370  -27.7040   18.3490 C   0  0  0  0  0  3  0  0  0  0  0  0
  -24.0890  -29.7400   19.7820 C   0  0  0  0  0  2  0  0  0  0  0  0
  -25.5050  -30.1320   21.8320 N   0  0  0  0  0  0  0  0  0  0  0  0
  -24.7070  -30.9120   23.8290 O   0  0  0  0  0  0  0  0  0  0  0  0
  -23.2760  -28.9170   22.0410 C   0  0  0  0  0  0  0  0  0  0  0  0
  -21.9340  -28.9700   21.9350 N   0  0  0  0  0  0  0  0  0  0  0  0
  -23.8500  -28.0250   22.6710 O   0  0  0  0  0  0  0  0  0  0  0  0
  -21.5280  -29.7370   21.4170 H   0  0  0  0  0  0  0  0  0  0  0  0
  -18.4410  -27.9890   22.0620 C   0  0  0  0  0  0  0  0  0  0  0  0
  -20.9940  -27.9880   22.4870 C   0  0  0  0  0  3  0  0  0  0  0  0
  -21.0200  -26.6740   21.6730 C   0  0  0  0  0  2  0  0  0  0  0  0
  -19.9620  -26.6280   20.5660 C   0  0  0  0  0  2  0  0  0  0  0  0
  -18.5580  -26.7730   21.1600 C   0  0  0  0  0  2  0  0  0  0  0  0
  -19.5850  -28.5720   22.6710 C   0  0  0  0  0  0  0  0  0  0  0  0
  -19.4220  -29.7220   23.4740 C   0  0  0  0  0  3  0  0  0  0  0  0
  -18.1470  -30.2850   23.6740 C   0  0  0  0  0  3  0  0  0  0  0  0
  -17.0180  -29.6980   23.0790 C   0  0  0  0  0  3  0  0  0  0  0  0
  -17.1650  -28.5520   22.2790 C   0  0  0  0  0  3  0  0  0  0  0  0
  -27.0900  -30.7780   23.7400 C   0  0  0  0  0  3  0  0  0  0  0  0
  -27.5770  -29.5090   24.5450 C   0  0  1  0  0  0  0  0  0  0  0  0
  -26.5620  -29.0130   25.6010 C   0  0  0  0  0  1  0  0  0  0  0  0
  -27.8720  -28.3270   23.5930 C   0  0  0  0  0  1  0  0  0  0  0  0
  -28.9060  -29.8290   25.2710 C   0  0  0  0  0  1  0  0  0  0  0  0
  -27.0500  -31.9530   24.6290 N   0  0  0  0  0  0  0  0  0  0  0  0
  -27.5940  -33.1470   24.3540 C   0  0  0  0  0  0  0  0  0  0  0  0
  -28.2400  -33.3610   23.3260 O   0  0  0  0  0  0  0  0  0  0  0  0
  -26.4940  -31.8640   25.4670 H   0  0  0  0  0  0  0  0  0  0  0  0
  -26.3130  -35.2530   24.8780 C   0  0  0  0  0  1  0  0  0  0  0  0
  -27.3930  -34.2810   25.3820 C   0  0  0  0  0  3  0  0  0  0  0  0
  -29.6120  -34.2550   26.4330 C   0  0  0  0  0  1  0  0  0  0  0  0
  -28.6310  -35.0330   25.6820 N   0  0  0  0  0  0  0  0  0  0  0  0
  -28.4220  -35.8740   26.2150 H   0  0  0  0  0  0  0  0  0  0  0  0
  2  8  1  0
  3  1  1  0
  3 48  1  0
  4 11  1  0
  4  1  1  0
  5  6  1  0
  5  4  1  0
  5  7  1  0
  6  2  1  0
  7  8  1  0
  7  3  1  0
  8  9  1  0
 10  8  1  0
 11 17  1  0
 12 17  1  0
 13 14  1  0
 13 12  1  0
 14 15  1  0
 15 22  1  0
 15 16  1  0
 17 16  1  0
 18 11  2  0
 19 20  2  0
 20 39  1  0
 21 24  1  0
 21 20  1  0
 22 23  1  0
 22 19  1  0
 23 21  2  0
 24 25  1  0
 25 26  2  0
 27 30  1  0
 27 26  1  0
 28 27  2  0
 29 28  1  0
 29 24  2  0
 30 31  1  0
 31 32  1  0
 32 33  2  0
 34 33  1  0
 34 38  1  0
 35 34  2  0
 36 31  2  0
 36 35  1  0
 37 36  1  0
 39 40  1  0
 40 42  1  0
 40 43  1  0
 41 39  2  0
 44 19  1  0
 44 45  1  0
 46 44  1  0
 48 47  2  0
 49 48  1  0
 50 51  1  0
 50  6  1  0
 52 51  1  0
 52 54  1  0
 53 79  1  0
 53 64  2  0
 54 59  1  0
 55 63  1  0
 55 65  1  0
 56 62  1  0
 56 58  1  0
 57 63  1  0
 58 57  1  0
 59 58  2  0
 60 61  1  0
 60 54  2  0
 61 56  2  0
 62 55  1  0
 63 53  1  0
 65 67  2  0
 66 65  1  0
 66 70  1  0
 68 66  1  0
 69 78  2  0
 69 74  1  0
 70 74  1  0
 71 70  1  0
 72 73  1  0
 72 71  1  0
 73 69  1  0
 74 75  2  0
 75 76  1  0
 77 76  2  0
 78 77  1  0
 79 80  1  0
 79 84  1  0
 80 83  1  1
 80 81  1  0
 82 80  1  0
 84 87  1  0
 85 84  1  0
 85 89  1  0
 86 85  2  0
 88 89  1  0
 89 91  1  0
 91 92  1  0
 91 90  1  0
M  ISO  4   4 100  11 100  51 101  52 101
M  END
>  <TORSDO>  (16) 
F 19

>  <SCORE>  (16) 
-11.657

>  <name>  (16) 
15

>  <ligand_id>  (16) 
15

>  <original_smiles>  (16) 
[H]C([H])=C(C([H])([H])[H])C1([H])C([H])([H])C([H])(C(=O)N2C([H])([H])C([H])([H])C([H])([H])C([H])(n3nc(-c4c([H])c([H])c(Oc5c([H])c([H])c(F)c([H])c5F)c([H])c4[H])c(C(=O)N([H])[H])c3N([H])[H])C2([H])[H])C2([H])C([H])(C([H])([H])C([H])([H])Oc3c([H])c([H])c4c(c3[H])C([H])([H])N(C(=O)C([H])(N([H])C(=O)C([H])(N([H])C([H])([H])[H])C([H])([H])[H])C(C([H])([H])[H])(C([H])([H])[H])C([H])([H])[H])C([H])(C(=O)N([H])C3([H])c5c([H])c([H])c([H])c([H])c5C([H])([H])C([H])([H])C3([H])[H])C4([H])[H])C([H])([H])[N+]([H])([H])C12[H]

>  <smiles>  (16) 
[H]C([H])=C(C([H])([H])[H])C1([H])C([H])([H])C([H])(C(=O)N2C([H])([H])C([H])([H])C([H])([H])C([H])(n3nc(-c4c([H])c([H])c(Oc5c([H])c([H])c(F)c([H])c5F)c([H])c4[H])c(C(=O)N([H])[H])c3N([H])[H])C2([H])[H])C2([H])C([H])(C([H])([H])C([H])([H])Oc3c([H])c([H])c4c(c3[H])C([H])([H])N(C(=O)C([H])(N([H])C(=O)C([H])(N([H])C([H])([H])[H])C([H])([H])[H])C(C([H])([H])[H])(C([H])([H])[H])C([H])([H])[H])C([H])(C(=O)N([H])C3([H])c5c([H])c([H])c([H])c([H])c5C([H])([H])C([H])([H])C3([H])[H])C4([H])[H])C([H])([H])[N+]([H])([H])C12[H]

$$$$
16:0:0
     RDKit          3D

 85 89  0  0  1  0  0  0  0  0999 V2000
  -27.3040  -20.4560   20.7570 C   0  0  0  0  0  2  0  0  0  0  0  0
  -28.3210  -21.4940   21.2660 C   0  0  0  0  0  2  0  0  0  0  0  0
  -27.8920  -19.6380   19.5740 C   0  0  0  0  0  3  0  0  0  0  0  0
  -29.2370  -21.8120   20.0910 C   0  0  0  0  0  1  0  0  0  0  0  0
  -29.4230  -19.8420   19.5850 C   0  0  0  0  0  1  0  0  0  0  0  0
  -27.2500  -20.0520   18.2400 C   0  0  0  0  0  1  0  0  0  0  0  0
  -30.0730  -17.9830   20.1870 C   0  0  0  0  0 15  0  0  0  0  0  0
  -30.6510  -16.1400   19.7740 C   0  0  0  0  0  2  0  0  0  0  0  0
  -30.7690  -13.4920   19.0680 C   0  0  0  0  0  2  0  0  0  0  0  0
  -29.8590  -12.9840   17.9040 C   0  0  0  0  0  2  0  0  0  0  0  0
  -28.4710  -12.5930   18.4270 C   0  0  0  0  0  2  0  0  0  0  0  0
  -27.9760  -13.6370   19.4460 C   0  0  0  0  0  3  0  0  0  0  0  0
  -29.0260  -14.0610   20.5070 C   0  0  0  0  0  2  0  0  0  0  0  0
  -30.1660  -14.7200   19.8100 N   0  0  0  0  0  0  0  0  0  0  0  0
  -31.8440  -15.9880   19.4250 O   0  0  0  0  0  1  0  0  0  0  0  0
  -25.6920  -14.1920   20.3800 C   0  0  0  0  0  0  0  0  0  0  0  0
  -24.6280  -13.4290   20.7700 C   0  0  0  0  0  0  0  0  0  0  0  0
  -25.0460  -12.0680   20.6450 C   0  0  0  0  0  0  0  0  0  0  0  0
  -26.6850  -13.3020   20.0290 N   0  0  0  0  0  0  0  0  0  0  0  0
  -26.3180  -12.0110   20.2520 N   0  0  0  0  0  0  0  0  0  0  0  0
  -24.2820  -10.8220   20.8180 C   0  0  0  0  0  0  0  0  0  0  0  0
  -24.6750   -9.8350   21.7480 C   0  0  0  0  0  3  0  0  0  0  0  0
  -23.9090   -8.6600   21.9160 C   0  0  0  0  0  3  0  0  0  0  0  0
  -22.7340   -8.4660   21.1530 C   0  0  0  0  0  0  0  0  0  0  0  0
  -22.3570   -9.4420   20.2150 C   0  0  0  0  0  3  0  0  0  0  0  0
  -23.1250  -10.6070   20.0460 C   0  0  0  0  0  3  0  0  0  0  0  0
  -21.9450   -7.3410   21.2260 O   0  0  0  0  0  0  0  0  0  0  0  0
  -21.8000   -6.6370   22.3950 C   0  0  0  0  0  0  0  0  0  0  0  0
  -21.2680   -7.2310   23.5600 C   0  0  0  0  0  3  0  0  0  0  0  0
  -21.0710   -6.4530   24.7190 C   0  0  0  0  0  3  0  0  0  0  0  0
  -21.3960   -5.0840   24.7110 C   0  0  0  0  0  0  0  0  0  0  0  0
  -21.9200   -4.4900   23.5490 C   0  0  0  0  0  3  0  0  0  0  0  0
  -22.1170   -5.2650   22.3930 C   0  0  0  0  0  0  0  0  0  0  0  0
  -22.6020   -4.6830   21.2700 F   0  0  0  0  0  0  0  0  0  0  0  0
  -21.1990   -4.3350   25.8210 F   0  0  0  0  0  0  0  0  0  0  0  0
  -23.2670  -13.9410   21.1350 C   0  0  0  0  0  0  0  0  0  0  0  0
  -22.5680  -13.2500   22.0260 N   0  0  0  0  0  0  0  0  0  0  0  0
  -22.8370  -14.9930   20.6660 O   0  0  0  0  0  0  0  0  0  0  0  0
  -22.9250  -12.3960   22.4300 H   0  0  0  0  0  0  0  0  0  0  0  0
  -21.6590  -13.5860   22.3140 H   0  0  0  0  0  0  0  0  0  0  0  0
  -25.8900  -15.5630   20.2600 N   0  0  0  0  0  0  0  0  0  0  0  0
  -25.1550  -16.2320   20.4630 H   0  0  0  0  0  0  0  0  0  0  0  0
  -26.7300  -15.9980   19.9000 H   0  0  0  0  0  0  0  0  0  0  0  0
  -28.5400  -23.6640   19.5450 C   0  0  0  0  0  1  0  0  0  0  0  0
  -28.4830  -25.4760   19.9080 O   0  0  0  0  0  0  0  0  0  0  0  0
  -24.7340  -31.7150   22.9990 C   0  0  0  0  0  0  0  0  0  0  0  0
  -27.4830  -26.7270   19.8470 C   0  0  0  0  0  0  0  0  0  0  0  0
  -23.6230  -30.3280   21.3060 C   0  0  0  0  0  3  0  0  0  0  0  0
  -25.1460  -28.7680   19.8440 C   0  0  0  0  0  0  0  0  0  0  0  0
  -26.2000  -30.5340   21.2210 C   0  0  0  0  0  2  0  0  0  0  0  0
  -26.3240  -29.1160   20.5100 C   0  0  0  0  0  0  0  0  0  0  0  0
  -27.4650  -28.1270   20.4780 C   0  0  0  0  0  3  0  0  0  0  0  0
  -26.2610  -26.6330   19.1170 C   0  0  0  0  0  3  0  0  0  0  0  0
  -25.1620  -27.5590   19.1210 C   0  0  0  0  0  3  0  0  0  0  0  0
  -23.9040  -29.6850   19.9150 C   0  0  0  0  0  2  0  0  0  0  0  0
  -24.8770  -30.8950   21.8960 N   0  0  0  0  0  0  0  0  0  0  0  0
  -23.6230  -31.9520   23.5040 O   0  0  0  0  0  0  0  0  0  0  0  0
  -22.9300  -29.2940   22.2380 C   0  0  0  0  0  0  0  0  0  0  0  0
  -21.5980  -29.1140   22.1180 N   0  0  0  0  0  0  0  0  0  0  0  0
  -23.6040  -28.6510   23.0450 O   0  0  0  0  0  0  0  0  0  0  0  0
  -21.0980  -29.6850   21.4520 H   0  0  0  0  0  0  0  0  0  0  0  0
  -18.2420  -27.8070   22.6350 C   0  0  0  0  0  0  0  0  0  0  0  0
  -20.8030  -28.1170   22.8500 C   0  0  0  0  0  3  0  0  0  0  0  0
  -20.9180  -26.7210   22.1910 C   0  0  0  0  0  2  0  0  0  0  0  0
  -19.7970  -26.4370   21.1860 C   0  0  0  0  0  2  0  0  0  0  0  0
  -18.4300  -26.5070   21.8720 C   0  0  0  0  0  2  0  0  0  0  0  0
  -19.3560  -28.5690   23.0820 C   0  0  0  0  0  0  0  0  0  0  0  0
  -19.1210  -29.7800   23.7660 C   0  0  0  0  0  3  0  0  0  0  0  0
  -17.8100  -30.2340   24.0040 C   0  0  0  0  0  3  0  0  0  0  0  0
  -16.7120  -29.4700   23.5690 C   0  0  0  0  0  3  0  0  0  0  0  0
  -16.9300  -28.2560   22.8920 C   0  0  0  0  0  3  0  0  0  0  0  0
  -25.9550  -32.4040   23.6790 C   0  0  0  0  0  3  0  0  0  0  0  0
  -25.5680  -33.7810   24.0530 N   0  0  0  0  0  0  0  0  0  0  0  0
  -25.8930  -34.8890   23.3740 C   0  0  0  0  0  0  0  0  0  0  0  0
  -26.6050  -34.8620   22.3680 O   0  0  0  0  0  0  0  0  0  0  0  0
  -24.9420  -33.8700   24.8390 H   0  0  0  0  0  0  0  0  0  0  0  0
  -24.1340  -36.6660   23.0490 C   0  0  0  0  0  1  0  0  0  0  0  0
  -25.3510  -36.2410   23.8880 C   0  0  0  0  0  3  0  0  0  0  0  0
  -27.4120  -37.1500   24.8690 C   0  0  0  0  0  1  0  0  0  0  0  0
  -26.3580  -37.3270   23.8740 N   0  0  0  0  0  0  0  0  0  0  0  0
  -25.9190  -38.2290   24.0370 H   0  0  0  0  0  0  0  0  0  0  0  0
  -26.4600  -31.6310   24.9620 C   0  0  1  0  0  0  0  0  0  0  0  0
  -25.3470  -31.3420   25.9970 C   0  0  0  0  0  1  0  0  0  0  0  0
  -27.1010  -30.2780   24.5810 C   0  0  0  0  0  1  0  0  0  0  0  0
  -27.5670  -32.4510   25.6660 C   0  0  0  0  0  1  0  0  0  0  0  0
  1  2  1  0
  3  5  1  0
  3  1  1  0
  4  2  1  0
  6  3  1  0
  8 14  1  0
  9 14  1  0
 10 11  1  0
 10  9  1  0
 12 11  1  0
 12 19  1  0
 12 13  1  0
 14 13  1  0
 15  8  1  0
 16 17  2  0
 17 36  1  0
 18 17  1  0
 18 21  1  0
 19 20  1  0
 19 16  1  0
 20 18  2  0
 21 22  1  0
 22 23  2  0
 24 27  1  0
 24 23  1  0
 25 24  2  0
 26 25  1  0
 26 21  2  0
 27 28  1  0
 28 29  1  0
 29 30  2  0
 31 30  1  0
 31 35  1  0
 32 31  2  0
 33 28  2  0
 33 32  1  0
 34 33  1  0
 36 37  1  0
 37 40  1  0
 37 39  1  0
 38 36  2  0
 41 16  1  0
 41 42  1  0
 43 41  1  0
 44 45  1  0
 46 57  2  0
 47 45  1  0
 47 52  1  0
 48 56  1  0
 48 58  1  0
 49 55  1  0
 49 51  1  0
 50 56  1  0
 51 50  1  0
 52 51  2  0
 53 54  1  0
 53 47  2  0
 54 49  2  0
 55 48  1  0
 56 46  1  0
 58 60  2  0
 59 58  1  0
 61 59  1  0
 62 71  2  0
 62 67  1  0
 63 59  1  0
 63 67  1  0
 64 63  1  0
 65 66  1  0
 65 64  1  0
 66 62  1  0
 67 68  2  0
 68 69  1  0
 70 69  2  0
 71 70  1  0
 72 46  1  0
 72 73  1  0
 72 82  1  0
 73 76  1  0
 74 78  1  0
 74 73  1  0
 75 74  2  0
 78 77  1  0
 80 78  1  0
 80 81  1  0
 80 79  1  0
 82 85  1  1
 82 83  1  0
 84 82  1  0
M  ISO  4   7 100   8 100  44 101  45 101
M  END
>  <TORSDO>  (17) 
F 18

>  <SCORE>  (17) 
-14.867

>  <name>  (17) 
16

>  <ligand_id>  (17) 
16

>  <original_smiles>  (17) 
[H]c1c([H])c([H])c2c(c1[H])C([H])([H])C([H])([H])C([H])([H])C2([H])N([H])C(=O)C1([H])N(C(=O)C([H])(N([H])C(=O)C([H])(N([H])C([H])([H])[H])C([H])([H])[H])C(C([H])([H])[H])(C([H])([H])[H])C([H])([H])[H])C([H])([H])c2c([H])c(OC([H])([H])C3([H])C([H])([H])C([H])([H])C([H])(C([H])([H])[H])C3([H])C([H])([H])C(=O)N3C([H])([H])C([H])([H])C([H])([H])C([H])(n4nc(-c5c([H])c([H])c(Oc6c([H])c([H])c(F)c([H])c6F)c([H])c5[H])c(C(=O)N([H])[H])c4N([H])[H])C3([H])[H])c([H])c([H])c2C1([H])[H]

>  <smiles>  (17) 
[H]c1c([H])c([H])c2c(c1[H])C([H])([H])C([H])([H])C([H])([H])C2([H])N([H])C(=O)C1([H])N(C(=O)C([H])(N([H])C(=O)C([H])(N([H])C([H])([H])[H])C([H])([H])[H])C(C([H])([H])[H])(C([H])([H])[H])C([H])([H])[H])C([H])([H])c2c([H])c(OC([H])([H])C3([H])C([H])([H])C([H])([H])C([H])(C([H])([H])[H])C3([H])C([H])([H])C(=O)N3C([H])([H])C([H])([H])C([H])([H])C([H])(n4nc(-c5c([H])c([H])c(Oc6c([H])c([H])c(F)c([H])c6F)c([H])c5[H])c(C(=O)N([H])[H])c4N([H])[H])C3([H])[H])c([H])c([H])c2C1([H])[H]

$$$$
17:0:0
     RDKit          3D

 92100  0  0  1  0  0  0  0  0999 V2000
  -28.6270  -21.3130   19.8070 C   0  0  0  0  0  3  0  0  0  0  0  0
  -25.8010  -20.8950   17.1880 C   0  0  0  0  0  2  0  0  0  0  0  0
  -25.1000  -21.7030   18.2890 C   0  0  0  0  0  2  0  0  0  0  0  0
  -27.2700  -20.7530   17.6300 C   0  0  0  0  0  2  0  0  0  0  0  0
  -26.0110  -21.5750   19.5100 C   0  0  0  0  0  2  0  0  0  0  0  0
  -27.4150  -21.6300   18.8850 C   0  0  0  0  0  3  0  0  0  0  0  0
  -28.4770  -19.8710   20.3350 N   0  0  0  0  0  4  0  0  0  0  0  0
  -27.8270  -19.8730   21.1080 H   0  0  0  0  0  0  0  0  0  0  0  0
  -28.0100  -19.3900   19.5840 H   0  0  0  0  0  0  0  0  0  0  0  0
  -29.6460  -18.9600   20.6920 C   0  0  0  0  0  2  0  0  0  0  0  0
  -29.6200  -17.3960   20.2520 C   0  0  0  0  0  2  0  0  0  0  0  0
  -29.5750  -16.1640   21.2910 C   0  0  0  0  0  2  0  0  0  0  0  0
  -30.4130  -14.8380   20.9780 C   0  0  0  0  0  0  0  0  0  0  0  0
  -30.4520  -12.4790   20.1620 C   0  0  0  0  0  2  0  0  0  0  0  0
  -29.6310  -12.4100   18.8540 C   0  0  0  0  0  2  0  0  0  0  0  0
  -28.1320  -12.1960   19.1560 C   0  0  0  0  0  2  0  0  0  0  0  0
  -27.6020  -13.1500   20.2590 C   0  0  0  0  0  3  0  0  0  0  0  0
  -28.5540  -13.1800   21.4750 C   0  0  0  0  0  2  0  0  0  0  0  0
  -29.8850  -13.5670   20.9910 N   0  0  0  0  0  0  0  0  0  0  0  0
  -31.5880  -14.9910   20.6320 O   0  0  0  0  0  0  0  0  0  0  0  0
  -25.1440  -13.6720   20.7970 C   0  0  0  0  0  0  0  0  0  0  0  0
  -24.0790  -12.8700   21.0970 C   0  0  0  0  0  0  0  0  0  0  0  0
  -24.5840  -11.5330   21.1100 C   0  0  0  0  0  0  0  0  0  0  0  0
  -26.2320  -12.8250   20.6470 N   0  0  0  0  0  0  0  0  0  0  0  0
  -25.8960  -11.5340   20.8950 N   0  0  0  0  0  0  0  0  0  0  0  0
  -23.8860  -10.2500   21.2570 C   0  0  0  0  0  0  0  0  0  0  0  0
  -24.2930   -9.2910   22.2110 C   0  0  0  0  0  3  0  0  0  0  0  0
  -23.5960   -8.0730   22.3490 C   0  0  0  0  0  3  0  0  0  0  0  0
  -22.4720   -7.8030   21.5320 C   0  0  0  0  0  0  0  0  0  0  0  0
  -22.0820   -8.7510   20.5680 C   0  0  0  0  0  3  0  0  0  0  0  0
  -22.7820   -9.9610   20.4290 C   0  0  0  0  0  3  0  0  0  0  0  0
  -21.7480   -6.6360   21.5780 O   0  0  0  0  0  0  0  0  0  0  0  0
  -21.6800   -5.8750   22.7180 C   0  0  0  0  0  0  0  0  0  0  0  0
  -21.2110   -6.4020   23.9410 C   0  0  0  0  0  3  0  0  0  0  0  0
  -21.0940   -5.5660   25.0700 C   0  0  0  0  0  3  0  0  0  0  0  0
  -21.4350   -4.2040   24.9750 C   0  0  0  0  0  0  0  0  0  0  0  0
  -21.8950   -3.6740   23.7580 C   0  0  0  0  0  3  0  0  0  0  0  0
  -22.0160   -4.5090   22.6310 C   0  0  0  0  0  0  0  0  0  0  0  0
  -22.4410   -3.9890   21.4540 F   0  0  0  0  0  0  0  0  0  0  0  0
  -21.3160   -3.3990   26.0580 F   0  0  0  0  0  0  0  0  0  0  0  0
  -22.6500  -13.3040   21.2600 C   0  0  0  0  0  0  0  0  0  0  0  0
  -21.8820  -12.6070   22.0880 N   0  0  0  0  0  0  0  0  0  0  0  0
  -22.2170  -14.3000   20.6810 O   0  0  0  0  0  0  0  0  0  0  0  0
  -22.2390  -11.8040   22.5860 H   0  0  0  0  0  0  0  0  0  0  0  0
  -20.9190  -12.8780   22.2260 H   0  0  0  0  0  0  0  0  0  0  0  0
  -25.2740  -15.0480   20.6140 N   0  0  0  0  0  0  0  0  0  0  0  0
  -24.4660  -15.6610   20.6430 H   0  0  0  0  0  0  0  0  0  0  0  0
  -26.1190  -15.5130   20.3150 H   0  0  0  0  0  0  0  0  0  0  0  0
  -28.8680  -22.5140   20.8610 C   0  0  0  0  0  2  0  0  0  0  0  0
  -28.1290  -23.9720   20.8400 C   0  0  0  0  0  2  0  0  0  0  0  0
  -28.5550  -25.2120   19.9100 C   0  0  0  0  0  2  0  0  0  0  0  0
  -28.4220  -26.6270   20.3940 O   0  0  0  0  0  0  0  0  0  0  0  0
  -24.5240  -31.9550   23.3100 C   0  0  0  0  0  0  0  0  0  0  0  0
  -27.2730  -27.4370   20.2840 C   0  0  0  0  0  0  0  0  0  0  0  0
  -23.3870  -30.5700   21.6100 C   0  0  0  0  0  3  0  0  0  0  0  0
  -24.8920  -29.0430   20.2090 C   0  0  0  0  0  0  0  0  0  0  0  0
  -25.9240  -30.9040   21.5130 C   0  0  0  0  0  2  0  0  0  0  0  0
  -26.0340  -29.5320   20.8520 C   0  0  0  0  0  0  0  0  0  0  0  0
  -27.2220  -28.7410   20.8790 C   0  0  0  0  0  3  0  0  0  0  0  0
  -26.1100  -27.0060   19.6070 C   0  0  0  0  0  3  0  0  0  0  0  0
  -24.9350  -27.7870   19.5770 C   0  0  0  0  0  3  0  0  0  0  0  0
  -23.6470  -29.9080   20.2290 C   0  0  0  0  0  2  0  0  0  0  0  0
  -24.6280  -31.1630   22.2020 N   0  0  0  0  0  0  0  0  0  0  0  0
  -23.4210  -32.2150   23.8160 O   0  0  0  0  0  0  0  0  0  0  0  0
  -22.7000  -29.5390   22.5380 C   0  0  0  0  0  0  0  0  0  0  0  0
  -21.3750  -29.3750   22.3840 N   0  0  0  0  0  0  0  0  0  0  0  0
  -23.3600  -28.8920   23.3550 O   0  0  0  0  0  0  0  0  0  0  0  0
  -20.9010  -29.9500   21.7010 H   0  0  0  0  0  0  0  0  0  0  0  0
  -17.9790  -28.2270   22.8410 C   0  0  0  0  0  0  0  0  0  0  0  0
  -20.5400  -28.4250   23.1190 C   0  0  0  0  0  3  0  0  0  0  0  0
  -20.6120  -27.0160   22.4900 C   0  0  0  0  0  2  0  0  0  0  0  0
  -19.5140  -26.7680   21.4510 C   0  0  0  0  0  2  0  0  0  0  0  0
  -18.1300  -26.9120   22.0950 C   0  0  0  0  0  2  0  0  0  0  0  0
  -19.1120  -28.9470   23.3030 C   0  0  0  0  0  0  0  0  0  0  0  0
  -18.9190  -30.1870   23.9510 C   0  0  0  0  0  3  0  0  0  0  0  0
  -17.6240  -30.7040   24.1470 C   0  0  0  0  0  3  0  0  0  0  0  0
  -16.5060  -29.9780   23.7020 C   0  0  0  0  0  3  0  0  0  0  0  0
  -16.6840  -28.7410   23.0560 C   0  0  0  0  0  3  0  0  0  0  0  0
  -25.7790  -32.5890   23.9860 C   0  0  0  0  0  3  0  0  0  0  0  0
  -25.4620  -33.9920   24.2880 N   0  0  0  0  0  0  0  0  0  0  0  0
  -25.8430  -35.0390   23.5450 C   0  0  0  0  0  0  0  0  0  0  0  0
  -26.5650  -34.9240   22.5520 O   0  0  0  0  0  0  0  0  0  0  0  0
  -24.8250  -34.1550   25.0550 H   0  0  0  0  0  0  0  0  0  0  0  0
  -24.1440  -36.8400   23.0940 C   0  0  0  0  0  1  0  0  0  0  0  0
  -25.3440  -36.4350   23.9670 C   0  0  0  0  0  3  0  0  0  0  0  0
  -27.4430  -37.3140   24.8900 C   0  0  0  0  0  1  0  0  0  0  0  0
  -26.3870  -37.4820   23.8940 N   0  0  0  0  0  0  0  0  0  0  0  0
  -25.9810  -38.4050   24.0140 H   0  0  0  0  0  0  0  0  0  0  0  0
  -26.2290  -31.8320   25.2980 C   0  0  1  0  0  0  0  0  0  0  0  0
  -25.0830  -31.6010   26.3100 C   0  0  0  0  0  1  0  0  0  0  0  0
  -26.8330  -30.4520   24.9490 C   0  0  0  0  0  1  0  0  0  0  0  0
  -27.3440  -32.6360   26.0090 C   0  0  0  0  0  1  0  0  0  0  0  0
  1  7  1  0
  1 49  1  0
  2  4  1  0
  2  3  1  0
  3  5  1  0
  4  6  1  0
  6  5  1  0
  6  1  1  0
  7 10  1  0
  7  8  1  0
  9  7  1  0
 11 10  1  0
 11 12  1  0
 13 19  1  0
 13 12  1  0
 14 19  1  0
 15 16  1  0
 15 14  1  0
 17 16  1  0
 17 24  1  0
 17 18  1  0
 19 18  1  0
 20 13  2  0
 21 22  2  0
 22 23  1  0
 22 41  1  0
 23 26  1  0
 24 21  1  0
 24 25  1  0
 25 23  2  0
 26 27  1  0
 27 28  2  0
 29 32  1  0
 29 28  1  0
 30 29  2  0
 31 30  1  0
 31 26  2  0
 32 33  1  0
 33 34  1  0
 34 35  2  0
 36 35  1  0
 36 40  1  0
 37 36  2  0
 38 33  2  0
 38 37  1  0
 39 38  1  0
 41 42  1  0
 42 45  1  0
 42 44  1  0
 43 41  2  0
 46 47  1  0
 46 21  1  0
 48 46  1  0
 50 49  1  0
 51 52  1  0
 51 50  1  0
 53 64  2  0
 54 52  1  0
 54 59  1  0
 55 63  1  0
 55 65  1  0
 56 62  1  0
 56 58  1  0
 57 63  1  0
 58 59  2  0
 58 57  1  0
 60 54  2  0
 61 60  1  0
 61 56  2  0
 62 55  1  0
 63 53  1  0
 65 67  2  0
 66 65  1  0
 68 66  1  0
 69 78  2  0
 69 74  1  0
 70 66  1  0
 70 74  1  0
 71 70  1  0
 72 73  1  0
 72 71  1  0
 73 69  1  0
 74 75  2  0
 75 76  1  0
 77 76  2  0
 78 77  1  0
 79 53  1  0
 79 80  1  0
 79 89  1  0
 80 83  1  0
 81 85  1  0
 81 80  1  0
 82 81  2  0
 85 84  1  0
 87 85  1  0
 87 88  1  0
 87 86  1  0
 89 92  1  1
 89 90  1  0
 91 89  1  0
M  ISO  4  12 100  13 100  51 101  52 101
M  END
>  <TORSDO>  (18) 
F 24

>  <SCORE>  (18) 
-11.625

>  <name>  (18) 
17

>  <ligand_id>  (18) 
17

>  <original_smiles>  (18) 
[H]c1c([H])c([H])c2c(c1[H])C([H])([H])C([H])([H])C([H])([H])C2([H])N([H])C(=O)C1([H])N(C(=O)C([H])(N([H])C(=O)C([H])(N([H])C([H])([H])[H])C([H])([H])[H])C(C([H])([H])[H])(C([H])([H])[H])C([H])([H])[H])C([H])([H])c2c([H])c(OC([H])([H])C([H])([H])C([H])([H])C([H])(C3([H])C([H])([H])C([H])([H])C([H])([H])C3([H])[H])[N+]([H])([H])C([H])([H])C([H])([H])C([H])([H])C(=O)N3C([H])([H])C([H])([H])C([H])([H])C([H])(n4nc(-c5c([H])c([H])c(Oc6c([H])c([H])c(F)c([H])c6F)c([H])c5[H])c(C(=O)N([H])[H])c4N([H])[H])C3([H])[H])c([H])c([H])c2C1([H])[H]

>  <smiles>  (18) 
[H]c1c([H])c([H])c2c(c1[H])C([H])([H])C([H])([H])C([H])([H])C2([H])N([H])C(=O)C1([H])N(C(=O)C([H])(N([H])C(=O)C([H])(N([H])C([H])([H])[H])C([H])([H])[H])C(C([H])([H])[H])(C([H])([H])[H])C([H])([H])[H])C([H])([H])c2c([H])c(OC([H])([H])C([H])([H])C([H])([H])C([H])(C3([H])C([H])([H])C([H])([H])C([H])([H])C3([H])[H])[N+]([H])([H])C([H])([H])C([H])([H])C([H])([H])C(=O)N3C([H])([H])C([H])([H])C([H])([H])C([H])(n4nc(-c5c([H])c([H])c(Oc6c([H])c([H])c(F)c([H])c6F)c([H])c5[H])c(C(=O)N([H])[H])c4N([H])[H])C3([H])[H])c([H])c([H])c2C1([H])[H]

$$$$
18:0:0
     RDKit          3D

 91100  0  0  1  0  0  0  0  0999 V2000
  -30.7950  -19.9670   17.6610 C   0  0  0  0  0  2  0  0  0  0  0  0
  -30.0590  -21.2800   21.1710 C   0  0  0  0  0  2  0  0  0  0  0  0
  -31.0670  -19.0750   18.8820 C   0  0  0  0  0  2  0  0  0  0  0  0
  -29.9290  -22.8740   21.1050 C   0  0  0  0  0  2  0  0  0  0  0  0
  -30.2120  -21.3470   18.0400 C   0  0  0  0  0  2  0  0  0  0  0  0
  -28.3850  -22.7890   19.1550 C   0  0  0  0  0  2  0  0  0  0  0  0
  -29.2340  -20.3830   20.1660 C   0  0  0  0  0  3  0  0  0  0  0  0
  -28.5840  -23.4320   20.5540 C   0  0  0  0  0  3  0  0  0  0  0  0
  -29.8210  -18.8840   19.7670 C   0  0  0  0  0  3  0  0  0  0  0  0
  -28.9090  -21.2870   18.8910 C   0  0  2  0  0  0  0  0  0  0  0  0
  -27.7870  -20.6350   18.0450 C   0  0  0  0  0  1  0  0  0  0  0  0
  -30.0920  -17.6330   20.7780 C   0  0  0  0  0  2  0  0  0  0  0  0
  -29.6120  -16.1120   20.3940 C   0  0  0  0  0  2  0  0  0  0  0  0
  -30.5260  -14.7770   20.3600 C   0  0  0  0  0  0  0  0  0  0  0  0
  -30.3860  -12.4800   19.3770 C   0  0  0  0  0  2  0  0  0  0  0  0
  -29.4420  -12.5520   18.1520 C   0  0  0  0  0  2  0  0  0  0  0  0
  -27.9690  -12.3750   18.5730 C   0  0  0  0  0  2  0  0  0  0  0  0
  -27.5900  -13.2590   19.7900 C   0  0  0  0  0  3  0  0  0  0  0  0
  -28.6490  -13.1580   20.9100 C   0  0  0  0  0  2  0  0  0  0  0  0
  -29.9510  -13.5210   20.3360 N   0  0  0  0  0  0  0  0  0  0  0  0
  -31.7270  -14.8890   20.0990 O   0  0  0  0  0  0  0  0  0  0  0  0
  -25.1980  -13.8520   20.5070 C   0  0  0  0  0  0  0  0  0  0  0  0
  -24.1290  -13.0810   20.8740 C   0  0  0  0  0  0  0  0  0  0  0  0
  -24.5930  -11.7280   20.8510 C   0  0  0  0  0  0  0  0  0  0  0  0
  -26.2430  -12.9730   20.2780 N   0  0  0  0  0  0  0  0  0  0  0  0
  -25.8850  -11.6910   20.5480 N   0  0  0  0  0  0  0  0  0  0  0  0
  -23.8660  -10.4670   21.0420 C   0  0  0  0  0  0  0  0  0  0  0  0
  -24.2990   -9.4990   21.9760 C   0  0  0  0  0  3  0  0  0  0  0  0
  -23.5720   -8.3020   22.1530 C   0  0  0  0  0  3  0  0  0  0  0  0
  -22.3980   -8.0650   21.4000 C   0  0  0  0  0  0  0  0  0  0  0  0
  -21.9860   -9.0210   20.4560 C   0  0  0  0  0  3  0  0  0  0  0  0
  -22.7120  -10.2090   20.2740 C   0  0  0  0  0  3  0  0  0  0  0  0
  -21.6430   -6.9200   21.4890 O   0  0  0  0  0  0  0  0  0  0  0  0
  -21.6000   -6.1720   22.6380 C   0  0  0  0  0  0  0  0  0  0  0  0
  -21.1860   -6.7230   23.8700 C   0  0  0  0  0  3  0  0  0  0  0  0
  -21.0900   -5.9020   25.0120 C   0  0  0  0  0  3  0  0  0  0  0  0
  -21.4010   -4.5310   24.9210 C   0  0  0  0  0  0  0  0  0  0  0  0
  -21.8090   -3.9810   23.6940 C   0  0  0  0  0  3  0  0  0  0  0  0
  -21.9060   -4.7990   22.5550 C   0  0  0  0  0  0  0  0  0  0  0  0
  -22.2790   -4.2590   21.3690 F   0  0  0  0  0  0  0  0  0  0  0  0
  -21.3020   -3.7400   26.0150 F   0  0  0  0  0  0  0  0  0  0  0  0
  -22.7300  -13.5570   21.1360 C   0  0  0  0  0  0  0  0  0  0  0  0
  -21.9980  -12.8620   21.9990 N   0  0  0  0  0  0  0  0  0  0  0  0
  -22.2940  -14.5810   20.6100 O   0  0  0  0  0  0  0  0  0  0  0  0
  -22.3620  -12.0320   22.4440 H   0  0  0  0  0  0  0  0  0  0  0  0
  -21.0590  -13.1620   22.2190 H   0  0  0  0  0  0  0  0  0  0  0  0
  -25.3640  -15.2230   20.3250 N   0  0  0  0  0  0  0  0  0  0  0  0
  -24.6010  -15.8820   20.4320 H   0  0  0  0  0  0  0  0  0  0  0  0
  -26.2210  -15.6580   20.0100 H   0  0  0  0  0  0  0  0  0  0  0  0
  -28.0440  -24.9620   20.8730 C   0  0  0  0  0  2  0  0  0  0  0  0
  -28.3260  -26.3150   20.2620 O   0  0  0  0  0  0  0  0  0  0  0  0
  -24.6250  -31.8660   23.2350 C   0  0  0  0  0  0  0  0  0  0  0  0
  -27.2490  -27.2420   20.2250 C   0  0  0  0  0  0  0  0  0  0  0  0
  -23.4310  -30.4570   21.5980 C   0  0  0  0  0  3  0  0  0  0  0  0
  -24.8920  -28.8980   20.1810 C   0  0  0  0  0  0  0  0  0  0  0  0
  -25.9750  -30.7650   21.4270 C   0  0  0  0  0  2  0  0  0  0  0  0
  -26.0620  -29.3780   20.7870 C   0  0  0  0  0  0  0  0  0  0  0  0
  -27.2430  -28.5630   20.7960 C   0  0  0  0  0  3  0  0  0  0  0  0
  -26.0580  -26.8400   19.5820 C   0  0  0  0  0  3  0  0  0  0  0  0
  -24.8970  -27.6370   19.5670 C   0  0  0  0  0  3  0  0  0  0  0  0
  -23.6540  -29.7770   20.2210 C   0  0  0  0  0  2  0  0  0  0  0  0
  -24.6970  -31.0490   22.1420 N   0  0  0  0  0  0  0  0  0  0  0  0
  -23.5390  -32.1470   23.7630 O   0  0  0  0  0  0  0  0  0  0  0  0
  -22.7630  -29.4470   22.5630 C   0  0  0  0  0  0  0  0  0  0  0  0
  -21.4360  -29.2700   22.4370 N   0  0  0  0  0  0  0  0  0  0  0  0
  -23.4380  -28.8240   23.3850 O   0  0  0  0  0  0  0  0  0  0  0  0
  -20.9470  -29.8270   21.7490 H   0  0  0  0  0  0  0  0  0  0  0  0
  -18.0580  -28.0720   22.9370 C   0  0  0  0  0  0  0  0  0  0  0  0
  -20.6150  -28.3360   23.2110 C   0  0  0  0  0  3  0  0  0  0  0  0
  -20.7190  -26.9000   22.6450 C   0  0  0  0  0  2  0  0  0  0  0  0
  -19.6190  -26.5720   21.6290 C   0  0  0  0  0  2  0  0  0  0  0  0
  -18.2360  -26.7200   22.2680 C   0  0  0  0  0  2  0  0  0  0  0  0
  -19.1750  -28.8370   23.3640 C   0  0  0  0  0  0  0  0  0  0  0  0
  -18.9520  -30.1020   23.9500 C   0  0  0  0  0  3  0  0  0  0  0  0
  -17.6460  -30.6020   24.1120 C   0  0  0  0  0  3  0  0  0  0  0  0
  -16.5430  -29.8340   23.7010 C   0  0  0  0  0  3  0  0  0  0  0  0
  -16.7510  -28.5710   23.1180 C   0  0  0  0  0  3  0  0  0  0  0  0
  -25.9030  -32.5050   23.8580 C   0  0  0  0  0  3  0  0  0  0  0  0
  -26.4180  -31.7400   25.1400 C   0  0  1  0  0  0  0  0  0  0  0  0
  -25.3230  -31.5070   26.2060 C   0  0  0  0  0  1  0  0  0  0  0  0
  -27.0040  -30.3630   24.7560 C   0  0  0  0  0  1  0  0  0  0  0  0
  -27.5650  -32.5400   25.8010 C   0  0  0  0  0  1  0  0  0  0  0  0
  -25.5890  -33.9040   24.1860 N   0  0  0  0  0  0  0  0  0  0  0  0
  -25.9180  -34.9580   23.4270 C   0  0  0  0  0  0  0  0  0  0  0  0
  -26.5880  -34.8550   22.3950 O   0  0  0  0  0  0  0  0  0  0  0  0
  -24.9940  -34.0570   24.9870 H   0  0  0  0  0  0  0  0  0  0  0  0
  -24.1860  -36.7470   23.0750 C   0  0  0  0  0  1  0  0  0  0  0  0
  -25.4290  -36.3460   23.8840 C   0  0  0  0  0  3  0  0  0  0  0  0
  -27.5630  -37.2370   24.7110 C   0  0  0  0  0  1  0  0  0  0  0  0
  -26.4600  -37.4000   23.7680 N   0  0  0  0  0  0  0  0  0  0  0  0
  -26.0520  -38.3190   23.9160 H   0  0  0  0  0  0  0  0  0  0  0  0
  1  5  1  0
  1  3  1  0
  3  9  1  0
  4  2  1  0
  5 10  1  0
  6  8  1  0
  7  2  1  0
  8 50  1  0
  8  4  1  0
  9  7  1  0
  9 12  1  0
 10 11  1  6
 10  6  1  0
 10  7  1  0
 13 12  1  0
 14 13  1  0
 15 20  1  0
 16 17  1  0
 16 15  1  0
 18 17  1  0
 18 25  1  0
 18 19  1  0
 20 14  1  0
 20 19  1  0
 21 14  2  0
 22 23  2  0
 23 42  1  0
 24 23  1  0
 24 27  1  0
 25 22  1  0
 25 26  1  0
 26 24  2  0
 27 28  1  0
 28 29  2  0
 30 33  1  0
 30 29  1  0
 31 30  2  0
 32 31  1  0
 32 27  2  0
 33 34  1  0
 34 35  1  0
 35 36  2  0
 37 36  1  0
 37 41  1  0
 38 37  2  0
 39 34  2  0
 39 38  1  0
 40 39  1  0
 42 43  1  0
 43 46  1  0
 43 45  1  0
 44 42  2  0
 47 48  1  0
 47 22  1  0
 49 47  1  0
 51 50  1  0
 52 63  2  0
 53 51  1  0
 53 58  1  0
 54 62  1  0
 54 64  1  0
 55 61  1  0
 55 57  1  0
 56 62  1  0
 57 58  2  0
 57 56  1  0
 59 53  2  0
 60 59  1  0
 60 55  2  0
 61 54  1  0
 62 52  1  0
 64 66  2  0
 65 64  1  0
 67 65  1  0
 68 77  2  0
 68 73  1  0
 69 65  1  0
 69 73  1  0
 70 69  1  0
 71 72  1  0
 71 70  1  0
 72 68  1  0
 73 74  2  0
 74 75  1  0
 76 75  2  0
 77 76  1  0
 78 52  1  0
 78 83  1  0
 78 79  1  0
 79 82  1  1
 79 80  1  0
 81 79  1  0
 83 86  1  0
 84 88  1  0
 84 83  1  0
 85 84  2  0
 88 87  1  0
 90 88  1  0
 90 91  1  0
 90 89  1  0
M  ISO  4  13 100  14 100  50 101  51 101
M  END
>  <TORSDO>  (19) 
F 19

>  <SCORE>  (19) 
-14.371

>  <name>  (19) 
18

>  <ligand_id>  (19) 
18

>  <original_smiles>  (19) 
[H]c1c([H])c([H])c2c(c1[H])C([H])([H])C([H])([H])C([H])([H])C2([H])N([H])C(=O)C1([H])N(C(=O)C([H])(N([H])C(=O)C([H])(N([H])C([H])([H])[H])C([H])([H])[H])C(C([H])([H])[H])(C([H])([H])[H])C([H])([H])[H])C([H])([H])c2c([H])c(OC([H])([H])C3([H])C([H])([H])C([H])([H])C4([H])C([H])(C([H])([H])C([H])([H])C(=O)N5C([H])([H])C([H])([H])C([H])([H])C([H])(n6nc(-c7c([H])c([H])c(Oc8c([H])c([H])c(F)c([H])c8F)c([H])c7[H])c(C(=O)N([H])[H])c6N([H])[H])C5([H])[H])C([H])([H])C([H])([H])C([H])([H])C4(C([H])([H])[H])C3([H])[H])c([H])c([H])c2C1([H])[H]

>  <smiles>  (19) 
[H]c1c([H])c([H])c2c(c1[H])C([H])([H])C([H])([H])C([H])([H])C2([H])N([H])C(=O)C1([H])N(C(=O)C([H])(N([H])C(=O)C([H])(N([H])C([H])([H])[H])C([H])([H])[H])C(C([H])([H])[H])(C([H])([H])[H])C([H])([H])[H])C([H])([H])c2c([H])c(OC([H])([H])C3([H])C([H])([H])C([H])([H])C4([H])C([H])(C([H])([H])C([H])([H])C(=O)N5C([H])([H])C([H])([H])C([H])([H])C([H])(n6nc(-c7c([H])c([H])c(Oc8c([H])c([H])c(F)c([H])c8F)c([H])c7[H])c(C(=O)N([H])[H])c6N([H])[H])C5([H])[H])C([H])([H])C([H])([H])C([H])([H])C4(C([H])([H])[H])C3([H])[H])c([H])c([H])c2C1([H])[H]

$$$$
19:0:0
     RDKit          3D

 92101  0  0  1  0  0  0  0  0999 V2000
  -29.9350  -18.4560   21.6740 C   0  0  0  0  0  2  0  0  0  0  0  0
  -29.4840  -19.7470   20.9480 C   0  0  0  0  0  2  0  0  0  0  0  0
  -31.4590  -18.2050   21.5740 C   0  0  0  0  0  2  0  0  0  0  0  0
  -30.0950  -22.5240   19.3050 C   0  0  0  0  0  2  0  0  0  0  0  0
  -32.1210  -21.1620   20.0700 C   0  0  0  0  0  2  0  0  0  0  0  0
  -31.6220  -22.7470   19.4920 C   0  0  0  0  0  3  0  0  0  0  0  0
  -30.0550  -19.8700   19.5010 C   0  0  0  0  0  3  0  0  0  0  0  0
  -31.9370  -18.2090   20.1050 C   0  0  0  0  0  3  0  0  0  0  0  0
  -29.6080  -21.1610   18.6940 C   0  0  1  0  0  0  0  0  0  0  0  0
  -28.0590  -21.2310   18.6160 C   0  0  0  0  0  1  0  0  0  0  0  0
  -30.0930  -21.0470   17.2320 C   0  0  0  0  0  1  0  0  0  0  0  0
  -31.5370  -19.7200   19.5370 N   0  0  2  0  0  4  0  0  0  0  0  0
  -31.8180  -19.7030   18.5670 H   0  0  0  0  0  0  0  0  0  0  0  0
  -31.5010  -16.6050   19.4330 C   0  0  0  0  0  2  0  0  0  0  0  0
  -32.2800  -15.0440   19.3370 C   0  0  0  0  0  0  0  0  0  0  0  0
  -32.0050  -12.5680   18.6140 C   0  0  0  0  0  2  0  0  0  0  0  0
  -30.9400  -12.3930   17.4940 C   0  0  0  0  0  2  0  0  0  0  0  0
  -29.5260  -12.2960   18.0900 C   0  0  0  0  0  2  0  0  0  0  0  0
  -29.2860  -13.3750   19.1710 C   0  0  0  0  0  3  0  0  0  0  0  0
  -30.4390  -13.4440   20.1910 C   0  0  0  0  0  2  0  0  0  0  0  0
  -31.6590  -13.7730   19.4460 N   0  0  0  0  0  0  0  0  0  0  0  0
  -33.4630  -14.9600   18.9660 O   0  0  0  0  0  0  0  0  0  0  0  0
  -27.1830  -14.2410   20.3270 C   0  0  0  0  0  0  0  0  0  0  0  0
  -26.0390  -13.6210   20.7460 C   0  0  0  0  0  0  0  0  0  0  0  0
  -26.2190  -12.2310   20.4720 C   0  0  0  0  0  0  0  0  0  0  0  0
  -27.9900  -13.2400   19.8210 N   0  0  0  0  0  0  0  0  0  0  0  0
  -27.4300  -12.0130   19.9730 N   0  0  0  0  0  0  0  0  0  0  0  0
  -25.2840  -11.1060   20.5980 C   0  0  0  0  0  0  0  0  0  0  0  0
  -25.6490   -9.9110   21.2560 C   0  0  0  0  0  3  0  0  0  0  0  0
  -24.7220   -8.8520   21.3820 C   0  0  0  0  0  3  0  0  0  0  0  0
  -23.4170   -8.9830   20.8510 C   0  0  0  0  0  0  0  0  0  0  0  0
  -23.0680  -10.1660   20.1760 C   0  0  0  0  0  3  0  0  0  0  0  0
  -23.9920  -11.2160   20.0460 C   0  0  0  0  0  3  0  0  0  0  0  0
  -22.4590   -7.9980   20.9030 O   0  0  0  0  0  0  0  0  0  0  0  0
  -22.2440   -7.2660   22.0430 C   0  0  0  0  0  0  0  0  0  0  0  0
  -21.9320   -7.8800   23.2760 C   0  0  0  0  0  3  0  0  0  0  0  0
  -21.6490   -7.0860   24.4060 C   0  0  0  0  0  3  0  0  0  0  0  0
  -21.6680   -5.6830   24.3050 C   0  0  0  0  0  0  0  0  0  0  0  0
  -21.9740   -5.0700   23.0760 C   0  0  0  0  0  3  0  0  0  0  0  0
  -22.2580   -5.8590   21.9490 C   0  0  0  0  0  0  0  0  0  0  0  0
  -22.5300   -5.2650   20.7630 F   0  0  0  0  0  0  0  0  0  0  0  0
  -21.3900   -4.9200   25.3870 F   0  0  0  0  0  0  0  0  0  0  0  0
  -24.8080  -14.2940   21.2760 C   0  0  0  0  0  0  0  0  0  0  0  0
  -24.1350  -13.6690   22.2360 N   0  0  0  0  0  0  0  0  0  0  0  0
  -24.4630  -15.4040   20.8730 O   0  0  0  0  0  0  0  0  0  0  0  0
  -24.4290  -12.7640   22.5710 H   0  0  0  0  0  0  0  0  0  0  0  0
  -23.3130  -14.0980   22.6380 H   0  0  0  0  0  0  0  0  0  0  0  0
  -27.5980  -15.5700   20.3050 N   0  0  0  0  0  0  0  0  0  0  0  0
  -26.9960  -16.3280   20.5980 H   0  0  0  0  0  0  0  0  0  0  0  0
  -28.4560  -15.8860   19.8730 H   0  0  0  0  0  0  0  0  0  0  0  0
  -31.8010  -24.3820   20.2110 C   0  0  0  0  0  2  0  0  0  0  0  0
  -31.3240  -25.9320   20.0280 O   0  0  0  0  0  0  0  0  0  0  0  0
  -25.6020  -29.2940   23.6240 C   0  0  0  0  0  0  0  0  0  0  0  0
  -30.0030  -26.5850   20.1210 C   0  0  0  0  0  0  0  0  0  0  0  0
  -25.1930  -28.3340   21.3950 C   0  0  0  0  0  3  0  0  0  0  0  0
  -27.2810  -27.7210   20.0050 C   0  0  0  0  0  0  0  0  0  0  0  0
  -27.5440  -29.2110   21.9790 C   0  0  0  0  0  2  0  0  0  0  0  0
  -28.1580  -28.1730   21.0020 C   0  0  0  0  0  0  0  0  0  0  0  0
  -29.5170  -27.6360   21.0380 C   0  0  0  0  0  3  0  0  0  0  0  0
  -29.0630  -26.2640   19.1220 C   0  0  0  0  0  3  0  0  0  0  0  0
  -27.7480  -26.7960   19.0590 C   0  0  0  0  0  3  0  0  0  0  0  0
  -25.8490  -28.2520   19.9880 C   0  0  0  0  0  2  0  0  0  0  0  0
  -26.1170  -28.9560   22.3980 N   0  0  0  0  0  0  0  0  0  0  0  0
  -24.4070  -29.1030   23.9050 O   0  0  0  0  0  0  0  0  0  0  0  0
  -24.7010  -26.9230   21.8090 C   0  0  0  0  0  0  0  0  0  0  0  0
  -23.6880  -26.3870   21.1010 N   0  0  0  0  0  0  0  0  0  0  0  0
  -25.2480  -26.3230   22.7350 O   0  0  0  0  0  0  0  0  0  0  0  0
  -23.2740  -26.9400   20.3650 H   0  0  0  0  0  0  0  0  0  0  0  0
  -21.4040  -23.9400   19.7120 C   0  0  0  0  0  0  0  0  0  0  0  0
  -23.1270  -25.0470   21.2930 C   0  0  0  0  0  3  0  0  0  0  0  0
  -24.1110  -23.9530   20.8140 C   0  0  0  0  0  2  0  0  0  0  0  0
  -23.8770  -23.5280   19.3610 C   0  0  0  0  0  2  0  0  0  0  0  0
  -22.4570  -22.9830   19.1800 C   0  0  0  0  0  2  0  0  0  0  0  0
  -21.7210  -24.9190   20.6900 C   0  0  0  0  0  0  0  0  0  0  0  0
  -20.7090  -25.8080   21.1200 C   0  0  0  0  0  3  0  0  0  0  0  0
  -19.4080  -25.7270   20.5920 C   0  0  0  0  0  3  0  0  0  0  0  0
  -19.0970  -24.7460   19.6330 C   0  0  0  0  0  3  0  0  0  0  0  0
  -20.0910  -23.8520   19.1990 C   0  0  0  0  0  3  0  0  0  0  0  0
  -26.4840  -29.9530   24.7280 C   0  0  0  0  0  3  0  0  0  0  0  0
  -26.1160  -31.3760   24.8180 N   0  0  0  0  0  0  0  0  0  0  0  0
  -26.8170  -32.3830   24.2770 C   0  0  0  0  0  0  0  0  0  0  0  0
  -27.8880  -32.2080   23.6930 O   0  0  0  0  0  0  0  0  0  0  0  0
  -25.2290  -31.5870   25.2510 H   0  0  0  0  0  0  0  0  0  0  0  0
  -25.6600  -34.2460   23.0410 C   0  0  0  0  0  1  0  0  0  0  0  0
  -26.2340  -33.8070   24.3980 C   0  0  0  0  0  3  0  0  0  0  0  0
  -27.6000  -34.6260   26.2700 C   0  0  0  0  0  1  0  0  0  0  0  0
  -27.2160  -34.8060   24.8710 N   0  0  0  0  0  0  0  0  0  0  0  0
  -26.8510  -35.7480   24.7640 H   0  0  0  0  0  0  0  0  0  0  0  0
  -26.3250  -29.2620   26.1360 C   0  0  1  0  0  0  0  0  0  0  0  0
  -24.8590  -29.1660   26.6210 C   0  0  0  0  0  1  0  0  0  0  0  0
  -26.9120  -27.8340   26.1060 C   0  0  0  0  0  1  0  0  0  0  0  0
  -27.1270  -30.0430   27.2030 C   0  0  0  0  0  1  0  0  0  0  0  0
  2  1  1  0
  3  1  1  0
  4  6  1  0
  6  5  1  0
  6 51  1  0
  7 12  1  0
  7  2  1  0
  8 14  1  0
  8  3  1  0
  9  4  1  0
  9  7  1  0
  9 10  1  6
 11  9  1  0
 12 13  1  6
 12  5  1  0
 12  8  1  0
 15 14  1  0
 15 21  1  0
 16 21  1  0
 17 18  1  0
 17 16  1  0
 19 18  1  0
 19 26  1  0
 19 20  1  0
 21 20  1  0
 22 15  2  0
 23 24  2  0
 24 43  1  0
 25 28  1  0
 25 24  1  0
 26 27  1  0
 26 23  1  0
 27 25  2  0
 28 29  1  0
 29 30  2  0
 31 34  1  0
 31 30  1  0
 32 31  2  0
 33 32  1  0
 33 28  2  0
 34 35  1  0
 35 36  1  0
 36 37  2  0
 38 37  1  0
 38 42  1  0
 39 38  2  0
 40 35  2  0
 40 39  1  0
 41 40  1  0
 43 44  1  0
 44 46  1  0
 44 47  1  0
 45 43  2  0
 48 23  1  0
 48 49  1  0
 50 48  1  0
 52 54  1  0
 52 51  1  0
 53 64  2  0
 54 59  1  0
 55 65  1  0
 55 63  1  0
 56 58  1  0
 57 63  1  0
 58 59  2  0
 58 57  1  0
 60 54  2  0
 61 60  1  0
 61 56  2  0
 62 56  1  0
 62 55  1  0
 63 53  1  0
 65 67  2  0
 66 65  1  0
 68 66  1  0
 69 74  1  0
 70 66  1  0
 71 70  1  0
 72 71  1  0
 73 72  1  0
 73 69  1  0
 74 75  2  0
 74 70  1  0
 76 75  1  0
 77 76  2  0
 78 77  1  0
 78 69  2  0
 79 53  1  0
 79 80  1  0
 79 89  1  0
 80 83  1  0
 81 85  1  0
 81 80  1  0
 82 81  2  0
 85 84  1  0
 85 87  1  0
 87 86  1  0
 88 87  1  0
 89 90  1  1
 89 92  1  0
 91 89  1  0
M  ISO  4  14 100  15 100  51 101  52 101
M  END
>  <TORSDO>  (20) 
F 18

>  <SCORE>  (20) 
-10.337

>  <name>  (20) 
19

>  <ligand_id>  (20) 
19

>  <original_smiles>  (20) 
[H]c1c([H])c([H])c2c(c1[H])C([H])([H])C([H])([H])C([H])([H])C2([H])N([H])C(=O)C1([H])N(C(=O)C([H])(N([H])C(=O)C([H])(N([H])C([H])([H])[H])C([H])([H])[H])C(C([H])([H])[H])(C([H])([H])[H])C([H])([H])[H])C([H])([H])c2c([H])c(OC([H])([H])C3([H])C([H])([H])C(C([H])([H])[H])(C([H])([H])[H])C4([H])C([H])([H])C([H])([H])C([H])([H])C([H])(C([H])([H])C(=O)N5C([H])([H])C([H])([H])C([H])([H])C([H])(n6nc(-c7c([H])c([H])c(Oc8c([H])c([H])c(F)c([H])c8F)c([H])c7[H])c(C(=O)N([H])[H])c6N([H])[H])C5([H])[H])[N+]4([H])C3([H])[H])c([H])c([H])c2C1([H])[H]

>  <smiles>  (20) 
[H]c1c([H])c([H])c2c(c1[H])C([H])([H])C([H])([H])C([H])([H])C2([H])N([H])C(=O)C1([H])N(C(=O)C([H])(N([H])C(=O)C([H])(N([H])C([H])([H])[H])C([H])([H])[H])C(C([H])([H])[H])(C([H])([H])[H])C([H])([H])[H])C([H])([H])c2c([H])c(OC([H])([H])C3([H])C([H])([H])C(C([H])([H])[H])(C([H])([H])[H])C4([H])C([H])([H])C([H])([H])C([H])([H])C([H])(C([H])([H])C(=O)N5C([H])([H])C([H])([H])C([H])([H])C([H])(n6nc(-c7c([H])c([H])c(Oc8c([H])c([H])c(F)c([H])c8F)c([H])c7[H])c(C(=O)N([H])[H])c6N([H])[H])C5([H])[H])[N+]4([H])C3([H])[H])c([H])c([H])c2C1([H])[H]

$$$$
20:0:0
     RDKit          3D

 90 99  0  0  1  0  0  0  0  0999 V2000
  -31.7820  -20.2560   20.5040 C   0  0  0  0  0  2  0  0  0  0  0  0
  -31.0060  -21.5060   19.9740 C   0  0  0  0  0  2  0  0  0  0  0  0
  -31.2770  -18.8410   20.0550 C   0  0  0  0  0  2  0  0  0  0  0  0
  -27.5490  -20.3880   20.3410 C   0  0  0  0  0  2  0  0  0  0  0  0
  -29.5460  -21.4990   20.4480 C   0  0  0  0  0  3  0  0  0  0  0  0
  -29.0170  -19.9780   20.0260 C   0  0  0  0  0  3  0  0  0  0  0  0
  -29.8320  -18.4800   20.4890 C   0  0  0  0  0  3  0  0  0  0  0  0
  -28.5140  -22.7630   19.9670 C   0  0  0  0  0  3  0  0  0  0  0  0
  -27.2960  -21.8620   19.9910 N   0  0  0  0  0  4  0  0  0  0  0  0
  -26.6130  -22.2170   20.6410 H   0  0  0  0  0  0  0  0  0  0  0  0
  -26.8670  -21.8990   19.0800 H   0  0  0  0  0  0  0  0  0  0  0  0
  -29.4920  -16.7550   20.1570 C   0  0  0  0  0  2  0  0  0  0  0  0
  -30.3930  -15.2580   20.1850 C   0  0  0  0  0  0  0  0  0  0  0  0
  -30.3910  -12.8090   19.3490 C   0  0  0  0  0  2  0  0  0  0  0  0
  -29.4570  -12.6370   18.1230 C   0  0  0  0  0  2  0  0  0  0  0  0
  -28.0030  -12.3870   18.5650 C   0  0  0  0  0  2  0  0  0  0  0  0
  -27.5690  -13.3490   19.6980 C   0  0  0  0  0  3  0  0  0  0  0  0
  -28.6240  -13.4650   20.8150 C   0  0  0  0  0  2  0  0  0  0  0  0
  -29.8700  -13.9390   20.1950 N   0  0  0  0  0  0  0  0  0  0  0  0
  -31.6130  -15.2820   19.9660 O   0  0  0  0  0  0  0  0  0  0  0  0
  -25.2060  -13.9190   20.4750 C   0  0  0  0  0  0  0  0  0  0  0  0
  -24.1460  -13.1460   20.8570 C   0  0  0  0  0  0  0  0  0  0  0  0
  -24.6100  -11.7940   20.8270 C   0  0  0  0  0  0  0  0  0  0  0  0
  -26.2430  -13.0400   20.2210 N   0  0  0  0  0  0  0  0  0  0  0  0
  -25.8980  -11.7560   20.5030 N   0  0  0  0  0  0  0  0  0  0  0  0
  -23.8820  -10.5340   21.0300 C   0  0  0  0  0  0  0  0  0  0  0  0
  -24.3270   -9.5600   21.9500 C   0  0  0  0  0  3  0  0  0  0  0  0
  -23.5950   -8.3680   22.1410 C   0  0  0  0  0  3  0  0  0  0  0  0
  -22.4050   -8.1410   21.4110 C   0  0  0  0  0  0  0  0  0  0  0  0
  -21.9780   -9.1020   20.4780 C   0  0  0  0  0  3  0  0  0  0  0  0
  -22.7100  -10.2860   20.2860 C   0  0  0  0  0  3  0  0  0  0  0  0
  -21.6440   -7.0000   21.5120 O   0  0  0  0  0  0  0  0  0  0  0  0
  -21.6260   -6.2450   22.6570 C   0  0  0  0  0  0  0  0  0  0  0  0
  -21.2580   -6.7940   23.9060 C   0  0  0  0  0  3  0  0  0  0  0  0
  -21.1850   -5.9680   25.0440 C   0  0  0  0  0  3  0  0  0  0  0  0
  -21.4710   -4.5930   24.9370 C   0  0  0  0  0  0  0  0  0  0  0  0
  -21.8320   -4.0440   23.6940 C   0  0  0  0  0  3  0  0  0  0  0  0
  -21.9060   -4.8680   22.5560 C   0  0  0  0  0  0  0  0  0  0  0  0
  -22.2340   -4.3300   21.3570 F   0  0  0  0  0  0  0  0  0  0  0  0
  -21.3940   -3.7960   26.0280 F   0  0  0  0  0  0  0  0  0  0  0  0
  -22.7510  -13.6270   21.1350 C   0  0  0  0  0  0  0  0  0  0  0  0
  -22.0290  -12.9380   22.0110 N   0  0  0  0  0  0  0  0  0  0  0  0
  -22.3130  -14.6490   20.6110 O   0  0  0  0  0  0  0  0  0  0  0  0
  -22.3990  -12.1120   22.4580 H   0  0  0  0  0  0  0  0  0  0  0  0
  -21.0950  -13.2430   22.2400 H   0  0  0  0  0  0  0  0  0  0  0  0
  -25.3720  -15.2900   20.2940 N   0  0  0  0  0  0  0  0  0  0  0  0
  -24.6090  -15.9470   20.4150 H   0  0  0  0  0  0  0  0  0  0  0  0
  -26.2210  -15.7240   19.9570 H   0  0  0  0  0  0  0  0  0  0  0  0
  -28.1460  -24.4090   20.5900 C   0  0  0  0  0  2  0  0  0  0  0  0
  -28.2990  -25.9790   20.1600 O   0  0  0  0  0  0  0  0  0  0  0  0
  -24.6930  -31.8780   23.1820 C   0  0  0  0  0  0  0  0  0  0  0  0
  -27.2560  -27.0300   20.1800 C   0  0  0  0  0  0  0  0  0  0  0  0
  -23.4930  -30.4670   21.5600 C   0  0  0  0  0  3  0  0  0  0  0  0
  -24.9390  -28.8640   20.1420 C   0  0  0  0  0  0  0  0  0  0  0  0
  -26.0540  -30.7030   21.3880 C   0  0  0  0  0  2  0  0  0  0  0  0
  -26.1280  -29.2920   20.7450 C   0  0  0  0  0  0  0  0  0  0  0  0
  -27.2870  -28.3970   20.7340 C   0  0  0  0  0  3  0  0  0  0  0  0
  -26.0330  -26.7390   19.5390 C   0  0  0  0  0  3  0  0  0  0  0  0
  -24.9120  -27.6060   19.5180 C   0  0  0  0  0  3  0  0  0  0  0  0
  -23.7150  -29.7760   20.1870 C   0  0  0  0  0  2  0  0  0  0  0  0
  -24.7680  -31.0420   22.0970 N   0  0  0  0  0  0  0  0  0  0  0  0
  -23.6060  -32.1630   23.7110 O   0  0  0  0  0  0  0  0  0  0  0  0
  -22.8130  -29.4700   22.5350 C   0  0  0  0  0  0  0  0  0  0  0  0
  -21.4820  -29.3040   22.4260 N   0  0  0  0  0  0  0  0  0  0  0  0
  -23.4900  -28.8470   23.3570 O   0  0  0  0  0  0  0  0  0  0  0  0
  -20.9890  -29.8600   21.7400 H   0  0  0  0  0  0  0  0  0  0  0  0
  -18.1080  -28.0910   22.9720 C   0  0  0  0  0  0  0  0  0  0  0  0
  -20.6690  -28.3670   23.2080 C   0  0  0  0  0  3  0  0  0  0  0  0
  -20.7690  -26.9320   22.6380 C   0  0  0  0  0  2  0  0  0  0  0  0
  -19.6580  -26.6020   21.6360 C   0  0  0  0  0  2  0  0  0  0  0  0
  -18.2830  -26.7420   22.2940 C   0  0  0  0  0  2  0  0  0  0  0  0
  -19.2280  -28.8600   23.3860 C   0  0  0  0  0  0  0  0  0  0  0  0
  -19.0090  -30.1200   23.9830 C   0  0  0  0  0  3  0  0  0  0  0  0
  -17.7020  -30.6140   24.1660 C   0  0  0  0  0  3  0  0  0  0  0  0
  -16.5980  -29.8420   23.7660 C   0  0  0  0  0  3  0  0  0  0  0  0
  -16.8010  -28.5820   23.1760 C   0  0  0  0  0  3  0  0  0  0  0  0
  -25.9660  -32.5290   23.8010 C   0  0  0  0  0  3  0  0  0  0  0  0
  -25.6360  -33.9210   24.1560 N   0  0  0  0  0  0  0  0  0  0  0  0
  -25.9370  -34.9940   23.4120 C   0  0  0  0  0  0  0  0  0  0  0  0
  -26.5850  -34.9170   22.3660 O   0  0  0  0  0  0  0  0  0  0  0  0
  -25.0570  -34.0510   24.9730 H   0  0  0  0  0  0  0  0  0  0  0  0
  -24.1720  -36.7700   23.1440 C   0  0  0  0  0  1  0  0  0  0  0  0
  -25.4440  -36.3690   23.9070 C   0  0  0  0  0  3  0  0  0  0  0  0
  -27.5920  -37.2790   24.6810 C   0  0  0  0  0  1  0  0  0  0  0  0
  -26.4560  -37.4410   23.7760 N   0  0  0  0  0  0  0  0  0  0  0  0
  -26.0420  -38.3530   23.9500 H   0  0  0  0  0  0  0  0  0  0  0  0
  -26.5000  -31.7580   25.0710 C   0  0  1  0  0  0  0  0  0  0  0  0
  -25.4190  -31.5070   26.1490 C   0  0  0  0  0  1  0  0  0  0  0  0
  -27.0920  -30.3860   24.6760 C   0  0  0  0  0  1  0  0  0  0  0  0
  -27.6510  -32.5590   25.7250 C   0  0  0  0  0  1  0  0  0  0  0  0
  2  1  1  0
  3  7  1  0
  3  1  1  0
  5  2  1  0
  6  4  1  0
  6  5  1  0
  6  7  1  0
  7 12  1  0
  8  9  1  0
  8  5  1  0
  8 49  1  0
  9  4  1  0
  9 10  1  0
 11  9  1  0
 12 13  1  0
 13 19  1  0
 14 19  1  0
 15 16  1  0
 15 14  1  0
 17 16  1  0
 17 24  1  0
 17 18  1  0
 19 18  1  0
 20 13  2  0
 21 22  2  0
 22 41  1  0
 23 22  1  0
 23 26  1  0
 24 21  1  0
 24 25  1  0
 25 23  2  0
 26 27  1  0
 27 28  2  0
 29 32  1  0
 29 28  1  0
 30 29  2  0
 31 30  1  0
 31 26  2  0
 32 33  1  0
 33 34  1  0
 34 35  2  0
 36 35  1  0
 36 40  1  0
 37 36  2  0
 38 33  2  0
 38 37  1  0
 39 38  1  0
 41 42  1  0
 42 45  1  0
 42 44  1  0
 43 41  2  0
 46 47  1  0
 46 21  1  0
 48 46  1  0
 50 52  1  0
 50 49  1  0
 51 62  2  0
 52 57  1  0
 53 61  1  0
 53 63  1  0
 54 60  1  0
 54 56  1  0
 55 61  1  0
 56 55  1  0
 57 56  2  0
 58 52  2  0
 59 58  1  0
 59 54  2  0
 60 53  1  0
 61 51  1  0
 63 65  2  0
 64 63  1  0
 66 64  1  0
 67 76  2  0
 67 72  1  0
 68 64  1  0
 68 72  1  0
 69 68  1  0
 70 71  1  0
 70 69  1  0
 71 67  1  0
 72 73  2  0
 73 74  1  0
 75 74  2  0
 76 75  1  0
 77 51  1  0
 77 78  1  0
 77 87  1  0
 78 81  1  0
 79 83  1  0
 79 78  1  0
 80 79  2  0
 83 82  1  0
 85 83  1  0
 85 86  1  0
 85 84  1  0
 87 90  1  1
 87 88  1  0
 89 87  1  0
M  ISO  4  12 100  13 100  49 101  50 101
M  END
>  <TORSDO>  (21) 
F 18

>  <SCORE>  (21) 
-16.027

>  <name>  (21) 
20

>  <ligand_id>  (21) 
20

>  <original_smiles>  (21) 
[H]c1c([H])c([H])c2c(c1[H])C([H])([H])C([H])([H])C([H])([H])C2([H])N([H])C(=O)C1([H])N(C(=O)C([H])(N([H])C(=O)C([H])(N([H])C([H])([H])[H])C([H])([H])[H])C(C([H])([H])[H])(C([H])([H])[H])C([H])([H])[H])C([H])([H])c2c([H])c(OC([H])([H])C3([H])C4([H])C([H])([H])C([H])([H])C([H])([H])C([H])(C([H])([H])C(=O)N5C([H])([H])C([H])([H])C([H])([H])C([H])(n6nc(-c7c([H])c([H])c(Oc8c([H])c([H])c(F)c([H])c8F)c([H])c7[H])c(C(=O)N([H])[H])c6N([H])[H])C5([H])[H])C4([H])C([H])([H])[N+]3([H])[H])c([H])c([H])c2C1([H])[H]

>  <smiles>  (21) 
[H]c1c([H])c([H])c2c(c1[H])C([H])([H])C([H])([H])C([H])([H])C2([H])N([H])C(=O)C1([H])N(C(=O)C([H])(N([H])C(=O)C([H])(N([H])C([H])([H])[H])C([H])([H])[H])C(C([H])([H])[H])(C([H])([H])[H])C([H])([H])[H])C([H])([H])c2c([H])c(OC([H])([H])C3([H])C4([H])C([H])([H])C([H])([H])C([H])([H])C([H])(C([H])([H])C(=O)N5C([H])([H])C([H])([H])C([H])([H])C([H])(n6nc(-c7c([H])c([H])c(Oc8c([H])c([H])c(F)c([H])c8F)c([H])c7[H])c(C(=O)N([H])[H])c6N([H])[H])C5([H])[H])C4([H])C([H])([H])[N+]3([H])[H])c([H])c([H])c2C1([H])[H]

$$$$
21:0:0
     RDKit          3D

 90 98  0  0  1  0  0  0  0  0999 V2000
  -28.6000  -22.4120   20.3420 C   0  0  0  0  0  2  0  0  0  0  0  0
  -30.3900  -24.2270   20.3440 C   0  0  0  0  0  2  0  0  0  0  0  0
  -29.0880  -23.9070   20.4240 C   0  0  0  0  0  0  0  0  0  0  0  0
  -27.9900  -25.0210   20.5570 C   0  0  0  0  0  2  0  0  0  0  0  0
  -28.3140  -26.4360   20.2290 O   0  0  0  0  0  0  0  0  0  0  0  0
  -24.6200  -31.8810   23.2220 C   0  0  0  0  0  0  0  0  0  0  0  0
  -27.2160  -27.3110   20.1690 C   0  0  0  0  0  0  0  0  0  0  0  0
  -23.4150  -30.4830   21.5850 C   0  0  0  0  0  3  0  0  0  0  0  0
  -24.8620  -28.9400   20.1510 C   0  0  0  0  0  0  0  0  0  0  0  0
  -25.9570  -30.7970   21.4000 C   0  0  0  0  0  2  0  0  0  0  0  0
  -26.0320  -29.4190   20.7550 C   0  0  0  0  0  0  0  0  0  0  0  0
  -27.2130  -28.6150   20.7560 C   0  0  0  0  0  3  0  0  0  0  0  0
  -26.0300  -26.9020   19.5160 C   0  0  0  0  0  3  0  0  0  0  0  0
  -24.8650  -27.6900   19.5170 C   0  0  0  0  0  3  0  0  0  0  0  0
  -23.6250  -29.8140   20.2030 C   0  0  0  0  0  2  0  0  0  0  0  0
  -24.6850  -31.0720   22.1260 N   0  0  0  0  0  0  0  0  0  0  0  0
  -23.5360  -32.1600   23.7550 O   0  0  0  0  0  0  0  0  0  0  0  0
  -22.7530  -29.4660   22.5450 C   0  0  0  0  0  0  0  0  0  0  0  0
  -21.4240  -29.2950   22.4200 N   0  0  0  0  0  0  0  0  0  0  0  0
  -23.4290  -28.8360   23.3620 O   0  0  0  0  0  0  0  0  0  0  0  0
  -20.9380  -29.8490   21.7300 H   0  0  0  0  0  0  0  0  0  0  0  0
  -18.0410  -28.1220   22.9330 C   0  0  0  0  0  0  0  0  0  0  0  0
  -20.6040  -28.3640   23.1930 C   0  0  0  0  0  3  0  0  0  0  0  0
  -20.6960  -26.9330   22.6130 C   0  0  0  0  0  2  0  0  0  0  0  0
  -19.5850  -26.6200   21.6050 C   0  0  0  0  0  2  0  0  0  0  0  0
  -18.2060  -26.7730   22.2530 C   0  0  0  0  0  2  0  0  0  0  0  0
  -19.1670  -28.8750   23.3590 C   0  0  0  0  0  0  0  0  0  0  0  0
  -18.9610  -30.1370   23.9540 C   0  0  0  0  0  3  0  0  0  0  0  0
  -17.6610  -30.6460   24.1330 C   0  0  0  0  0  3  0  0  0  0  0  0
  -16.5490  -29.8890   23.7240 C   0  0  0  0  0  3  0  0  0  0  0  0
  -16.7400  -28.6320   23.1250 C   0  0  0  0  0  3  0  0  0  0  0  0
  -25.9030  -32.5150   23.8430 C   0  0  0  0  0  3  0  0  0  0  0  0
  -25.5930  -33.9110   24.1830 N   0  0  0  0  0  0  0  0  0  0  0  0
  -25.9230  -34.9670   23.4270 C   0  0  0  0  0  0  0  0  0  0  0  0
  -26.5890  -34.8680   22.3940 O   0  0  0  0  0  0  0  0  0  0  0  0
  -25.0050  -34.0630   24.9900 H   0  0  0  0  0  0  0  0  0  0  0  0
  -24.1950  -36.7580   23.0810 C   0  0  0  0  0  1  0  0  0  0  0  0
  -25.4370  -36.3550   23.8910 C   0  0  0  0  0  3  0  0  0  0  0  0
  -27.5730  -37.2340   24.7180 C   0  0  0  0  0  1  0  0  0  0  0  0
  -26.4690  -37.4090   23.7770 N   0  0  0  0  0  0  0  0  0  0  0  0
  -26.0650  -38.3300   23.9310 H   0  0  0  0  0  0  0  0  0  0  0  0
  -26.4180  -31.7360   25.1140 C   0  0  1  0  0  0  0  0  0  0  0  0
  -25.3290  -31.4840   26.1820 C   0  0  0  0  0  1  0  0  0  0  0  0
  -27.0000  -30.3620   24.7120 C   0  0  0  0  0  1  0  0  0  0  0  0
  -27.5720  -32.5260   25.7730 C   0  0  0  0  0  1  0  0  0  0  0  0
  -29.5120  -21.1790   20.8350 C   0  0  0  0  0  2  0  0  0  0  0  0
  -27.5490  -19.2100   19.2360 C   0  0  0  0  0  2  0  0  0  0  0  0
  -28.8770  -19.7430   18.7080 C   0  0  0  0  0  2  0  0  0  0  0  0
  -27.9440  -18.1630   20.2880 C   0  0  0  0  0  2  0  0  0  0  0  0
  -29.7420  -19.8350   19.9700 C   0  0  0  0  0  3  0  0  0  0  0  0
  -29.4280  -18.4180   20.6460 C   0  0  0  0  0  3  0  0  0  0  0  0
  -30.3630  -17.1970   20.2030 C   0  0  0  0  0  2  0  0  0  0  0  0
  -30.6750  -14.6600   20.2030 C   0  0  0  0  0  0  0  0  0  0  0  0
  -30.3710  -12.4500   19.1260 C   0  0  0  0  0  2  0  0  0  0  0  0
  -29.4060  -12.5930   17.9310 C   0  0  0  0  0  2  0  0  0  0  0  0
  -27.9480  -12.4390   18.3990 C   0  0  0  0  0  2  0  0  0  0  0  0
  -27.6170  -13.2940   19.6490 C   0  0  0  0  0  3  0  0  0  0  0  0
  -28.7020  -13.1570   20.7410 C   0  0  0  0  0  2  0  0  0  0  0  0
  -30.0000  -13.4720   20.1270 N   0  0  0  0  0  0  0  0  0  0  0  0
  -31.8220  -14.7710   19.7600 O   0  0  0  0  0  0  0  0  0  0  0  0
  -29.9810  -15.7830   20.5710 N   0  0  0  0  0  0  0  0  0  0  0  0
  -29.0630  -15.6390   20.9610 H   0  0  0  0  0  0  0  0  0  0  0  0
  -25.2370  -13.8740   20.4150 C   0  0  0  0  0  0  0  0  0  0  0  0
  -24.1830  -13.0970   20.8080 C   0  0  0  0  0  0  0  0  0  0  0  0
  -24.6500  -11.7480   20.7690 C   0  0  0  0  0  0  0  0  0  0  0  0
  -26.2800  -12.9990   20.1610 N   0  0  0  0  0  0  0  0  0  0  0  0
  -25.9330  -11.7150   20.4330 N   0  0  0  0  0  0  0  0  0  0  0  0
  -23.9310  -10.4810   20.9720 C   0  0  0  0  0  0  0  0  0  0  0  0
  -24.3830   -9.5140   21.8980 C   0  0  0  0  0  3  0  0  0  0  0  0
  -23.6640   -8.3150   22.0900 C   0  0  0  0  0  3  0  0  0  0  0  0
  -22.4780   -8.0730   21.3570 C   0  0  0  0  0  0  0  0  0  0  0  0
  -22.0450   -9.0270   20.4190 C   0  0  0  0  0  3  0  0  0  0  0  0
  -22.7660  -10.2170   20.2250 C   0  0  0  0  0  3  0  0  0  0  0  0
  -21.7300   -6.9240   21.4590 O   0  0  0  0  0  0  0  0  0  0  0  0
  -21.7000   -6.1850   22.6160 C   0  0  0  0  0  0  0  0  0  0  0  0
  -21.2960   -6.7440   23.8460 C   0  0  0  0  0  3  0  0  0  0  0  0
  -21.2140   -5.9330   24.9960 C   0  0  0  0  0  3  0  0  0  0  0  0
  -21.5270   -4.5630   24.9140 C   0  0  0  0  0  0  0  0  0  0  0  0
  -21.9230   -4.0020   23.6880 C   0  0  0  0  0  3  0  0  0  0  0  0
  -22.0070   -4.8120   22.5410 C   0  0  0  0  0  0  0  0  0  0  0  0
  -22.3700   -4.2630   21.3570 F   0  0  0  0  0  0  0  0  0  0  0  0
  -21.4380   -3.7820   26.0160 F   0  0  0  0  0  0  0  0  0  0  0  0
  -22.7900  -13.5690   21.1160 C   0  0  0  0  0  0  0  0  0  0  0  0
  -22.0850  -12.8670   21.9950 N   0  0  0  0  0  0  0  0  0  0  0  0
  -22.3360  -14.5920   20.6030 O   0  0  0  0  0  0  0  0  0  0  0  0
  -22.4630  -12.0340   22.4250 H   0  0  0  0  0  0  0  0  0  0  0  0
  -21.1520  -13.1640   22.2440 H   0  0  0  0  0  0  0  0  0  0  0  0
  -25.4010  -15.2430   20.2290 N   0  0  0  0  0  0  0  0  0  0  0  0
  -24.6500  -15.9150   20.3380 H   0  0  0  0  0  0  0  0  0  0  0  0
  -26.2410  -15.6560   19.8460 H   0  0  0  0  0  0  0  0  0  0  0  0
  1  3  1  0
  1 46  1  0
  2  3  2  0
  3  4  1  0
  5  4  1  0
  6 17  2  0
  7  5  1  0
  7 12  1  0
  8 16  1  0
  8 18  1  0
  9 15  1  0
  9 11  1  0
 10 16  1  0
 11 12  2  0
 11 10  1  0
 13 14  1  0
 13  7  2  0
 14  9  2  0
 15  8  1  0
 16  6  1  0
 18 20  2  0
 19 18  1  0
 21 19  1  0
 22 31  2  0
 22 27  1  0
 23 19  1  0
 23 27  1  0
 24 23  1  0
 25 26  1  0
 25 24  1  0
 26 22  1  0
 27 28  2  0
 28 29  1  0
 30 29  2  0
 31 30  1  0
 32  6  1  0
 32 33  1  0
 32 42  1  0
 33 36  1  0
 34 38  1  0
 34 33  1  0
 35 34  2  0
 38 37  1  0
 40 38  1  0
 40 41  1  0
 40 39  1  0
 42 45  1  1
 42 43  1  0
 44 42  1  0
 47 49  1  0
 48 47  1  0
 48 50  1  0
 49 51  1  0
 50 51  1  0
 50 46  1  0
 51 52  1  0
 52 61  1  0
 53 61  1  0
 54 59  1  0
 55 56  1  0
 55 54  1  0
 57 56  1  0
 57 66  1  0
 57 58  1  0
 59 53  1  0
 59 58  1  0
 60 53  2  0
 61 62  1  0
 63 64  2  0
 64 83  1  0
 65 64  1  0
 65 68  1  0
 66 63  1  0
 66 67  1  0
 67 65  2  0
 68 69  1  0
 69 70  2  0
 71 74  1  0
 71 70  1  0
 72 71  2  0
 73 72  1  0
 73 68  2  0
 74 75  1  0
 75 76  1  0
 76 77  2  0
 78 77  1  0
 78 82  1  0
 79 78  2  0
 80 75  2  0
 80 79  1  0
 81 80  1  0
 83 84  1  0
 84 87  1  0
 84 86  1  0
 85 83  2  0
 88 89  1  0
 88 63  1  0
 90 88  1  0
M  ISO  4   4 101   5 101  53 100  61 100
M  END
>  <TORSDO>  (22) 
F 21

>  <SCORE>  (22) 
-13.617

>  <name>  (22) 
21

>  <ligand_id>  (22) 
21

>  <original_smiles>  (22) 
[H]C([H])=C(C([H])([H])Oc1c([H])c([H])c2c(c1[H])C([H])([H])N(C(=O)C([H])(N([H])C(=O)C([H])(N([H])C([H])([H])[H])C([H])([H])[H])C(C([H])([H])[H])(C([H])([H])[H])C([H])([H])[H])C([H])(C(=O)N([H])C1([H])c3c([H])c([H])c([H])c([H])c3C([H])([H])C([H])([H])C1([H])[H])C2([H])[H])C([H])([H])C([H])([H])C1([H])C([H])([H])C([H])([H])C([H])([H])C1([H])C([H])([H])N([H])C(=O)N1C([H])([H])C([H])([H])C([H])([H])C([H])(n2nc(-c3c([H])c([H])c(Oc4c([H])c([H])c(F)c([H])c4F)c([H])c3[H])c(C(=O)N([H])[H])c2N([H])[H])C1([H])[H]

>  <smiles>  (22) 
[H]C([H])=C(C([H])([H])Oc1c([H])c([H])c2c(c1[H])C([H])([H])N(C(=O)C([H])(N([H])C(=O)C([H])(N([H])C([H])([H])[H])C([H])([H])[H])C(C([H])([H])[H])(C([H])([H])[H])C([H])([H])[H])C([H])(C(=O)N([H])C1([H])c3c([H])c([H])c([H])c([H])c3C([H])([H])C([H])([H])C1([H])[H])C2([H])[H])C([H])([H])C([H])([H])C1([H])C([H])([H])C([H])([H])C([H])([H])C1([H])C([H])([H])N([H])C(=O)N1C([H])([H])C([H])([H])C([H])([H])C([H])(n2nc(-c3c([H])c([H])c(Oc4c([H])c([H])c(F)c([H])c4F)c([H])c3[H])c(C(=O)N([H])[H])c2N([H])[H])C1([H])[H]

$$$$
22:0:0
     RDKit          3D

 88 93  0  0  1  0  0  0  0  0999 V2000
  -29.7770  -20.0070   16.0610 C   0  0  0  0  0  2  0  0  0  0  0  0
  -28.3760  -19.3890   16.0390 C   0  0  0  0  0  2  0  0  0  0  0  0
  -29.9650  -20.5020   17.5070 C   0  0  0  0  0  2  0  0  0  0  0  0
  -27.0080  -19.7990   18.2310 C   0  0  0  0  0  2  0  0  0  0  0  0
  -27.3450  -19.4770   19.6960 C   0  0  0  0  0  2  0  0  0  0  0  0
  -28.0900  -19.0130   17.5100 C   0  0  0  0  0  3  0  0  0  0  0  0
  -29.3280  -19.3770   18.3450 C   0  0  0  0  0  3  0  0  0  0  0  0
  -28.8940  -19.5960   19.8490 C   0  0  0  0  0  2  0  0  0  0  0  0
  -29.4300  -17.7520   20.5860 C   0  0  0  0  0 15  0  0  0  0  0  0
  -30.1430  -15.9320   20.2800 C   0  0  0  0  0  2  0  0  0  0  0  0
  -30.3860  -13.2890   19.5940 C   0  0  0  0  0  2  0  0  0  0  0  0
  -29.5670  -12.7850   18.3620 C   0  0  0  0  0  2  0  0  0  0  0  0
  -28.1410  -12.3910   18.7690 C   0  0  0  0  0  2  0  0  0  0  0  0
  -27.5720  -13.3990   19.7860 C   0  0  0  0  0  3  0  0  0  0  0  0
  -28.5440  -13.8110   20.9170 C   0  0  0  0  0  2  0  0  0  0  0  0
  -29.7030  -14.5000   20.2910 N   0  0  0  0  0  0  0  0  0  0  0  0
  -31.3690  -15.8160   20.0510 O   0  0  0  0  0  1  0  0  0  0  0  0
  -25.2060  -13.9160   20.5040 C   0  0  0  0  0  0  0  0  0  0  0  0
  -24.1440  -13.1410   20.8520 C   0  0  0  0  0  0  0  0  0  0  0  0
  -24.6140  -11.7890   20.8410 C   0  0  0  0  0  0  0  0  0  0  0  0
  -26.2530  -13.0470   20.2850 N   0  0  0  0  0  0  0  0  0  0  0  0
  -25.9140  -11.7570   20.5570 N   0  0  0  0  0  0  0  0  0  0  0  0
  -23.8780  -10.5300   21.0260 C   0  0  0  0  0  0  0  0  0  0  0  0
  -24.2890   -9.5660   21.9750 C   0  0  0  0  0  3  0  0  0  0  0  0
  -23.5520   -8.3750   22.1530 C   0  0  0  0  0  3  0  0  0  0  0  0
  -22.3900   -8.1380   21.3810 C   0  0  0  0  0  0  0  0  0  0  0  0
  -21.9950   -9.0900   20.4240 C   0  0  0  0  0  3  0  0  0  0  0  0
  -22.7330  -10.2730   20.2450 C   0  0  0  0  0  3  0  0  0  0  0  0
  -21.6300   -6.9950   21.4630 O   0  0  0  0  0  0  0  0  0  0  0  0
  -21.5680   -6.2530   22.6140 C   0  0  0  0  0  0  0  0  0  0  0  0
  -21.1330   -6.8100   23.8360 C   0  0  0  0  0  3  0  0  0  0  0  0
  -21.0150   -5.9960   24.9800 C   0  0  0  0  0  3  0  0  0  0  0  0
  -21.3230   -4.6230   24.9010 C   0  0  0  0  0  0  0  0  0  0  0  0
  -21.7500   -4.0650   23.6820 C   0  0  0  0  0  3  0  0  0  0  0  0
  -21.8700   -4.8790   22.5410 C   0  0  0  0  0  0  0  0  0  0  0  0
  -22.2600   -4.3310   21.3640 F   0  0  0  0  0  0  0  0  0  0  0  0
  -21.2020   -3.8380   25.9950 F   0  0  0  0  0  0  0  0  0  0  0  0
  -22.7400  -13.6200   21.0790 C   0  0  0  0  0  0  0  0  0  0  0  0
  -21.9830  -12.9460   21.9300 N   0  0  0  0  0  0  0  0  0  0  0  0
  -22.3230  -14.6380   20.5250 O   0  0  0  0  0  0  0  0  0  0  0  0
  -22.3270  -12.1180   22.3990 H   0  0  0  0  0  0  0  0  0  0  0  0
  -21.0410  -13.2620   22.1100 H   0  0  0  0  0  0  0  0  0  0  0  0
  -25.3790  -15.2870   20.3160 N   0  0  0  0  0  0  0  0  0  0  0  0
  -24.6330  -15.9640   20.4250 H   0  0  0  0  0  0  0  0  0  0  0  0
  -26.2520  -15.7050   20.0210 H   0  0  0  0  0  0  0  0  0  0  0  0
  -28.9060  -21.6020   20.3000 C   0  0  0  0  0 15  0  0  0  0  0  0
  -28.0590  -23.4420   19.9650 C   0  0  0  0  0  1  0  0  0  0  0  0
  -28.1530  -25.2680   20.2330 O   0  0  0  0  0  0  0  0  0  0  0  0
  -24.6800  -31.7930   23.1340 C   0  0  0  0  0  0  0  0  0  0  0  0
  -27.2110  -26.5620   20.1690 C   0  0  0  0  0  0  0  0  0  0  0  0
  -23.5070  -30.3710   21.5090 C   0  0  0  0  0  3  0  0  0  0  0  0
  -24.9580  -28.6910   20.1110 C   0  0  0  0  0  0  0  0  0  0  0  0
  -26.0930  -30.4750   21.4070 C   0  0  0  0  0  2  0  0  0  0  0  0
  -26.1560  -29.0210   20.7540 C   0  0  0  0  0  0  0  0  0  0  0  0
  -27.2570  -27.9870   20.7500 C   0  0  0  0  0  3  0  0  0  0  0  0
  -25.9810  -26.4890   19.4590 C   0  0  0  0  0  3  0  0  0  0  0  0
  -24.9210  -27.4560   19.4360 C   0  0  0  0  0  3  0  0  0  0  0  0
  -23.7530  -29.6520   20.1510 C   0  0  0  0  0  2  0  0  0  0  0  0
  -24.7860  -30.9150   22.0710 N   0  0  0  0  0  0  0  0  0  0  0  0
  -23.5820  -32.1000   23.6310 O   0  0  0  0  0  0  0  0  0  0  0  0
  -22.7750  -29.4170   22.4930 C   0  0  0  0  0  0  0  0  0  0  0  0
  -21.4400  -29.2730   22.3710 N   0  0  0  0  0  0  0  0  0  0  0  0
  -23.4250  -28.7990   23.3400 O   0  0  0  0  0  0  0  0  0  0  0  0
  -20.9650  -29.8140   21.6600 H   0  0  0  0  0  0  0  0  0  0  0  0
  -18.0420  -28.0820   22.9190 C   0  0  0  0  0  0  0  0  0  0  0  0
  -20.6100  -28.3430   23.1550 C   0  0  0  0  0  3  0  0  0  0  0  0
  -20.6980  -26.9080   22.5860 C   0  0  0  0  0  2  0  0  0  0  0  0
  -19.5830  -26.5830   21.5860 C   0  0  0  0  0  2  0  0  0  0  0  0
  -18.2070  -26.7350   22.2410 C   0  0  0  0  0  2  0  0  0  0  0  0
  -19.1670  -28.8450   23.3360 C   0  0  0  0  0  0  0  0  0  0  0  0
  -18.9520  -30.1020   23.9420 C   0  0  0  0  0  3  0  0  0  0  0  0
  -17.6480  -30.5940   24.1370 C   0  0  0  0  0  3  0  0  0  0  0  0
  -16.5390  -29.8300   23.7320 C   0  0  0  0  0  3  0  0  0  0  0  0
  -16.7390  -28.5800   23.1250 C   0  0  0  0  0  3  0  0  0  0  0  0
  -25.9320  -32.4640   23.7810 C   0  0  0  0  0  3  0  0  0  0  0  0
  -26.4360  -31.7110   25.0750 C   0  0  1  0  0  0  0  0  0  0  0  0
  -25.3320  -31.4770   26.1360 C   0  0  0  0  0  1  0  0  0  0  0  0
  -27.0330  -30.3330   24.7170 C   0  0  0  0  0  1  0  0  0  0  0  0
  -27.5800  -32.5140   25.7380 C   0  0  0  0  0  1  0  0  0  0  0  0
  -25.5910  -33.8600   24.1290 N   0  0  0  0  0  0  0  0  0  0  0  0
  -25.9150  -34.9390   23.4040 C   0  0  0  0  0  0  0  0  0  0  0  0
  -26.5870  -34.8650   22.3730 O   0  0  0  0  0  0  0  0  0  0  0  0
  -25.0030  -33.9910   24.9380 H   0  0  0  0  0  0  0  0  0  0  0  0
  -24.1810  -36.7420   23.0940 C   0  0  0  0  0  1  0  0  0  0  0  0
  -25.4230  -36.3180   23.8960 C   0  0  0  0  0  3  0  0  0  0  0  0
  -27.5460  -37.2040   24.7560 C   0  0  0  0  0  1  0  0  0  0  0  0
  -26.4520  -37.3800   23.8040 N   0  0  0  0  0  0  0  0  0  0  0  0
  -26.0410  -38.2960   23.9570 H   0  0  0  0  0  0  0  0  0  0  0  0
  1  3  1  0
  2  1  1  0
  4  5  1  0
  5  8  1  0
  6  2  1  0
  6  4  1  0
  6  7  1  0
  7  3  1  0
  7  8  1  0
 10 16  1  0
 11 16  1  0
 12 13  1  0
 12 11  1  0
 14 13  1  0
 14 21  1  0
 14 15  1  0
 16 15  1  0
 17 10  1  0
 18 19  2  0
 19 38  1  0
 20 19  1  0
 20 23  1  0
 21 18  1  0
 21 22  1  0
 22 20  2  0
 23 24  1  0
 24 25  2  0
 26 29  1  0
 26 25  1  0
 27 26  2  0
 28 27  1  0
 28 23  2  0
 29 30  1  0
 30 31  1  0
 31 32  2  0
 33 32  1  0
 33 37  1  0
 34 33  2  0
 35 30  2  0
 35 34  1  0
 36 35  1  0
 38 39  1  0
 39 42  1  0
 39 41  1  0
 40 38  2  0
 43 44  1  0
 43 18  1  0
 45 43  1  0
 47 48  1  0
 49 60  2  0
 50 48  1  0
 50 55  1  0
 51 59  1  0
 51 61  1  0
 52 58  1  0
 52 54  1  0
 53 59  1  0
 54 53  1  0
 55 54  2  0
 56 50  2  0
 57 56  1  0
 57 52  2  0
 58 51  1  0
 59 49  1  0
 61 63  2  0
 62 61  1  0
 64 62  1  0
 65 74  2  0
 65 70  1  0
 66 62  1  0
 66 70  1  0
 67 66  1  0
 68 69  1  0
 68 67  1  0
 69 65  1  0
 70 71  2  0
 71 72  1  0
 73 72  2  0
 74 73  1  0
 75 49  1  0
 75 80  1  0
 75 76  1  0
 76 79  1  1
 76 77  1  0
 78 76  1  0
 80 83  1  0
 81 85  1  0
 81 80  1  0
 82 81  2  0
 85 84  1  0
 87 85  1  0
 87 88  1  0
 87 86  1  0
M  ISO  4   9 100  10 100  47 101  48 101
M  END
>  <TORSDO>  (23) 
F 19

>  <SCORE>  (23) 
-16.541

>  <name>  (23) 
22

>  <ligand_id>  (23) 
22

>  <original_smiles>  (23) 
[H]c1c([H])c([H])c2c(c1[H])C([H])([H])C([H])([H])C([H])([H])C2([H])N([H])C(=O)C1([H])N(C(=O)C([H])(N([H])C(=O)C([H])(N([H])C([H])([H])[H])C([H])([H])[H])C(C([H])([H])[H])(C([H])([H])[H])C([H])([H])[H])C([H])([H])c2c([H])c(OC([H])([H])C([H])([H])C3(C([H])([H])C(=O)N4C([H])([H])C([H])([H])C([H])([H])C([H])(n5nc(-c6c([H])c([H])c(Oc7c([H])c([H])c(F)c([H])c7F)c([H])c6[H])c(C(=O)N([H])[H])c5N([H])[H])C4([H])[H])C([H])([H])C([H])([H])C4([H])C([H])([H])C([H])([H])C([H])([H])C43[H])c([H])c([H])c2C1([H])[H]

>  <smiles>  (23) 
[H]c1c([H])c([H])c2c(c1[H])C([H])([H])C([H])([H])C([H])([H])C2([H])N([H])C(=O)C1([H])N(C(=O)C([H])(N([H])C(=O)C([H])(N([H])C([H])([H])[H])C([H])([H])[H])C(C([H])([H])[H])(C([H])([H])[H])C([H])([H])[H])C([H])([H])c2c([H])c(OC([H])([H])C([H])([H])C3(C([H])([H])C(=O)N4C([H])([H])C([H])([H])C([H])([H])C([H])(n5nc(-c6c([H])c([H])c(Oc7c([H])c([H])c(F)c([H])c7F)c([H])c6[H])c(C(=O)N([H])[H])c5N([H])[H])C4([H])[H])C([H])([H])C([H])([H])C4([H])C([H])([H])C([H])([H])C([H])([H])C43[H])c([H])c([H])c2C1([H])[H]

$$$$
23:0:0
     RDKit          3D

 86 89  0  0  1  0  0  0  0  0999 V2000
  -28.9470  -21.7420   19.6340 C   0  0  0  0  0 15  0  0  0  0  0  0
  -28.5190  -23.6010   20.3880 C   0  0  0  0  0  1  0  0  0  0  0  0
  -28.4590  -25.4420   20.1880 O   0  0  0  0  0  0  0  0  0  0  0  0
  -24.6960  -31.7760   23.2100 C   0  0  0  0  0  0  0  0  0  0  0  0
  -27.4340  -26.6740   20.2360 C   0  0  0  0  0  0  0  0  0  0  0  0
  -23.5880  -30.3550   21.5440 C   0  0  0  0  0  3  0  0  0  0  0  0
  -25.1110  -28.7350   20.1560 C   0  0  0  0  0  0  0  0  0  0  0  0
  -26.1700  -30.5380   21.4810 C   0  0  0  0  0  2  0  0  0  0  0  0
  -26.2910  -29.0930   20.8180 C   0  0  0  0  0  0  0  0  0  0  0  0
  -27.4300  -28.0990   20.8140 C   0  0  0  0  0  3  0  0  0  0  0  0
  -26.2040  -26.5640   19.5250 C   0  0  0  0  0  3  0  0  0  0  0  0
  -25.1160  -27.5000   19.4850 C   0  0  0  0  0  3  0  0  0  0  0  0
  -23.8840  -29.6710   20.1780 C   0  0  0  0  0  2  0  0  0  0  0  0
  -24.8420  -30.9260   22.1320 N   0  0  0  0  0  0  0  0  0  0  0  0
  -23.5820  -32.0400   23.6990 O   0  0  0  0  0  0  0  0  0  0  0  0
  -22.8710  -29.3570   22.4950 C   0  0  0  0  0  0  0  0  0  0  0  0
  -21.5500  -29.1490   22.3310 N   0  0  0  0  0  0  0  0  0  0  0  0
  -23.5220  -28.7630   23.3590 O   0  0  0  0  0  0  0  0  0  0  0  0
  -21.0680  -29.6810   21.6200 H   0  0  0  0  0  0  0  0  0  0  0  0
  -18.2140  -27.7460   22.7150 C   0  0  0  0  0  0  0  0  0  0  0  0
  -20.7410  -28.1760   23.0790 C   0  0  0  0  0  3  0  0  0  0  0  0
  -20.9530  -26.7440   22.5330 C   0  0  0  0  0  2  0  0  0  0  0  0
  -19.9180  -26.3420   21.4780 C   0  0  0  0  0  2  0  0  0  0  0  0
  -18.5030  -26.4070   22.0580 C   0  0  0  0  0  2  0  0  0  0  0  0
  -19.2650  -28.5840   23.1800 C   0  0  0  0  0  0  0  0  0  0  0  0
  -18.9400  -29.8280   23.7590 C   0  0  0  0  0  3  0  0  0  0  0  0
  -17.5990  -30.2420   23.8750 C   0  0  0  0  0  3  0  0  0  0  0  0
  -16.5630  -29.4060   23.4240 C   0  0  0  0  0  3  0  0  0  0  0  0
  -16.8720  -28.1600   22.8500 C   0  0  0  0  0  3  0  0  0  0  0  0
  -25.9170  -32.4700   23.8850 C   0  0  0  0  0  3  0  0  0  0  0  0
  -26.3740  -31.7530   25.2170 C   0  0  1  0  0  0  0  0  0  0  0  0
  -25.2270  -31.5350   26.2330 C   0  0  0  0  0  1  0  0  0  0  0  0
  -27.0000  -30.3720   24.9200 C   0  0  0  0  0  1  0  0  0  0  0  0
  -27.4740  -32.5880   25.9150 C   0  0  0  0  0  1  0  0  0  0  0  0
  -25.5580  -33.8720   24.1790 N   0  0  0  0  0  0  0  0  0  0  0  0
  -25.8910  -34.9330   23.4300 C   0  0  0  0  0  0  0  0  0  0  0  0
  -26.5860  -34.8350   22.4160 O   0  0  0  0  0  0  0  0  0  0  0  0
  -24.9430  -34.0210   24.9670 H   0  0  0  0  0  0  0  0  0  0  0  0
  -24.1370  -36.7030   23.0360 C   0  0  0  0  0  1  0  0  0  0  0  0
  -25.3730  -36.3220   23.8660 C   0  0  0  0  0  3  0  0  0  0  0  0
  -27.4750  -37.2660   24.7210 C   0  0  0  0  0  1  0  0  0  0  0  0
  -26.3880  -37.3950   23.7560 N   0  0  0  0  0  0  0  0  0  0  0  0
  -25.9590  -38.3080   23.8820 H   0  0  0  0  0  0  0  0  0  0  0  0
  -29.8620  -19.9120   19.8470 C   0  0  0  0  0  1  0  0  0  0  0  0
  -30.6410  -20.5780   22.1080 C   0  0  0  0  0  1  0  0  0  0  0  0
  -31.0090  -20.1800   20.7360 N   0  0  0  0  0  4  0  0  0  0  0  0
  -31.6040  -19.3680   20.7730 H   0  0  0  0  0  0  0  0  0  0  0  0
  -31.5560  -20.9220   20.3290 H   0  0  0  0  0  0  0  0  0  0  0  0
  -28.4550  -17.6830   20.7730 C   0  0  0  0  0  1  0  0  0  0  0  0
  -29.6390  -17.8740   19.8210 C   0  0  0  0  0  1  0  0  0  0  0  0
  -30.5090  -16.1000   19.8530 C   0  0  0  0  0  2  0  0  0  0  0  0
  -30.6940  -13.4500   19.1640 C   0  0  0  0  0  2  0  0  0  0  0  0
  -29.7980  -12.9190   17.9970 C   0  0  0  0  0  2  0  0  0  0  0  0
  -28.3970  -12.5300   18.4920 C   0  0  0  0  0  2  0  0  0  0  0  0
  -27.8780  -13.5660   19.5100 C   0  0  0  0  0  3  0  0  0  0  0  0
  -28.9210  -13.9980   20.5720 C   0  0  0  0  0  2  0  0  0  0  0  0
  -30.0560  -14.6710   19.8770 N   0  0  0  0  0  0  0  0  0  0  0  0
  -31.7440  -15.9970   19.6710 O   0  0  0  0  0  1  0  0  0  0  0  0
  -25.5520  -14.0890   20.3720 C   0  0  0  0  0  0  0  0  0  0  0  0
  -24.5050  -13.3170   20.7750 C   0  0  0  0  0  0  0  0  0  0  0  0
  -24.9620  -11.9640   20.7090 C   0  0  0  0  0  0  0  0  0  0  0  0
  -26.5840  -13.2170   20.0790 N   0  0  0  0  0  0  0  0  0  0  0  0
  -26.2440  -11.9270   20.3450 N   0  0  0  0  0  0  0  0  0  0  0  0
  -24.2240  -10.7100   20.9060 C   0  0  0  0  0  0  0  0  0  0  0  0
  -24.6360   -9.7500   21.8570 C   0  0  0  0  0  3  0  0  0  0  0  0
  -23.8930   -8.5650   22.0440 C   0  0  0  0  0  3  0  0  0  0  0  0
  -22.7240   -8.3320   21.2810 C   0  0  0  0  0  0  0  0  0  0  0  0
  -22.3310   -9.2800   20.3200 C   0  0  0  0  0  3  0  0  0  0  0  0
  -23.0750  -10.4560   20.1320 C   0  0  0  0  0  3  0  0  0  0  0  0
  -21.9530   -7.1990   21.3770 O   0  0  0  0  0  0  0  0  0  0  0  0
  -21.8360   -6.5040   22.5560 C   0  0  0  0  0  0  0  0  0  0  0  0
  -21.3180   -7.1010   23.7260 C   0  0  0  0  0  3  0  0  0  0  0  0
  -21.1530   -6.3340   24.8940 C   0  0  0  0  0  3  0  0  0  0  0  0
  -21.4970   -4.9680   24.8950 C   0  0  0  0  0  0  0  0  0  0  0  0
  -22.0060   -4.3690   23.7300 C   0  0  0  0  0  3  0  0  0  0  0  0
  -22.1740   -5.1350   22.5630 C   0  0  0  0  0  0  0  0  0  0  0  0
  -22.6470   -4.5490   21.4360 F   0  0  0  0  0  0  0  0  0  0  0  0
  -21.3290   -4.2260   26.0150 F   0  0  0  0  0  0  0  0  0  0  0  0
  -23.1250  -13.8070   21.0970 C   0  0  0  0  0  0  0  0  0  0  0  0
  -22.4270  -13.1220   21.9930 N   0  0  0  0  0  0  0  0  0  0  0  0
  -22.6810  -14.8380   20.5930 O   0  0  0  0  0  0  0  0  0  0  0  0
  -22.8040  -12.2880   22.4210 H   0  0  0  0  0  0  0  0  0  0  0  0
  -21.5020  -13.4320   22.2560 H   0  0  0  0  0  0  0  0  0  0  0  0
  -25.7020  -15.4590   20.1910 N   0  0  0  0  0  0  0  0  0  0  0  0
  -24.9380  -16.1100   20.3360 H   0  0  0  0  0  0  0  0  0  0  0  0
  -26.5150  -15.8850   19.7660 H   0  0  0  0  0  0  0  0  0  0  0  0
  3  5  1  0
  3  2  1  0
  4 15  2  0
  5 10  1  0
  6 14  1  0
  6 16  1  0
  7 13  1  0
  7  9  1  0
  8 14  1  0
  9  8  1  0
 10  9  2  0
 11  5  2  0
 12 11  1  0
 12  7  2  0
 13  6  1  0
 14  4  1  0
 16 18  2  0
 17 16  1  0
 19 17  1  0
 20 29  2  0
 20 25  1  0
 21 17  1  0
 21 25  1  0
 22 21  1  0
 23 24  1  0
 23 22  1  0
 24 20  1  0
 25 26  2  0
 26 27  1  0
 28 27  2  0
 29 28  1  0
 30  4  1  0
 30 35  1  0
 30 31  1  0
 31 34  1  1
 31 32  1  0
 33 31  1  0
 35 38  1  0
 36 40  1  0
 36 35  1  0
 37 36  2  0
 40 39  1  0
 42 40  1  0
 42 43  1  0
 42 41  1  0
 44 46  1  0
 46 47  1  0
 46 45  1  0
 48 46  1  0
 50 49  1  0
 51 57  1  0
 52 57  1  0
 53 54  1  0
 53 52  1  0
 55 54  1  0
 55 62  1  0
 55 56  1  0
 57 56  1  0
 58 51  1  0
 59 60  2  0
 60 79  1  0
 61 60  1  0
 61 64  1  0
 62 63  1  0
 62 59  1  0
 63 61  2  0
 64 65  1  0
 65 66  2  0
 67 70  1  0
 67 66  1  0
 68 67  2  0
 69 68  1  0
 69 64  2  0
 70 71  1  0
 71 76  2  0
 71 72  1  0
 72 73  2  0
 73 74  1  0
 74 78  1  0
 75 74  2  0
 76 75  1  0
 77 76  1  0
 79 80  1  0
 80 83  1  0
 80 82  1  0
 81 79  2  0
 84 85  1  0
 84 59  1  0
 86 84  1  0
M  ISO  4   2 101   3 101  50 100  51 100
M  END
>  <TORSDO>  (24) 
F 20

>  <SCORE>  (24) 
-15.658

>  <name>  (24) 
23

>  <ligand_id>  (24) 
23

>  <original_smiles>  (24) 
[H]c1c([H])c([H])c2c(c1[H])C([H])([H])C([H])([H])C([H])([H])C2([H])N([H])C(=O)C1([H])N(C(=O)C([H])(N([H])C(=O)C([H])(N([H])C([H])([H])[H])C([H])([H])[H])C(C([H])([H])[H])(C([H])([H])[H])C([H])([H])[H])C([H])([H])c2c([H])c(OC([H])([H])C([H])([H])C([H])(C([H])(C(=O)N3C([H])([H])C([H])([H])C([H])([H])C([H])(n4nc(-c5c([H])c([H])c(Oc6c([H])c([H])c(F)c([H])c6F)c([H])c5[H])c(C(=O)N([H])[H])c4N([H])[H])C3([H])[H])C([H])([H])[H])[N+]([H])([H])C([H])([H])[H])c([H])c([H])c2C1([H])[H]

>  <smiles>  (24) 
[H]c1c([H])c([H])c2c(c1[H])C([H])([H])C([H])([H])C([H])([H])C2([H])N([H])C(=O)C1([H])N(C(=O)C([H])(N([H])C(=O)C([H])(N([H])C([H])([H])[H])C([H])([H])[H])C(C([H])([H])[H])(C([H])([H])[H])C([H])([H])[H])C([H])([H])c2c([H])c(OC([H])([H])C([H])([H])C([H])(C([H])(C(=O)N3C([H])([H])C([H])([H])C([H])([H])C([H])(n4nc(-c5c([H])c([H])c(Oc6c([H])c([H])c(F)c([H])c6F)c([H])c5[H])c(C(=O)N([H])[H])c4N([H])[H])C3([H])[H])C([H])([H])[H])[N+]([H])([H])C([H])([H])[H])c([H])c([H])c2C1([H])[H]

$$$$
24:0:0
     RDKit          3D

 88 97  0  0  1  0  0  0  0  0999 V2000
  -29.5030  -17.5760   19.2010 C   0  0  0  0  0  2  0  0  0  0  0  0
  -28.7540  -18.9930   19.4710 C   0  0  0  0  0  2  0  0  0  0  0  0
  -30.4990  -20.4770   22.2110 C   0  0  0  0  0  2  0  0  0  0  0  0
  -29.3670  -21.5380   22.0240 C   0  0  0  0  0  2  0  0  0  0  0  0
  -30.6240  -17.9010   21.3480 C   0  0  0  0  0  2  0  0  0  0  0  0
  -29.9760  -16.7160   20.4560 C   0  0  0  0  0  3  0  0  0  0  0  0
  -30.5890  -19.5270   20.9950 C   0  0  0  0  0  3  0  0  0  0  0  0
  -29.6230  -20.2320   19.9550 C   0  0  0  0  0  3  0  0  0  0  0  0
  -28.9430  -21.6760   20.5370 C   0  0  0  0  0  3  0  0  0  0  0  0
  -30.7630  -15.2280   20.2170 C   0  0  0  0  0  0  0  0  0  0  0  0
  -30.6450  -12.8630   19.2590 C   0  0  0  0  0  2  0  0  0  0  0  0
  -29.6850  -12.8320   18.0440 C   0  0  0  0  0  2  0  0  0  0  0  0
  -28.2290  -12.6280   18.4970 C   0  0  0  0  0  2  0  0  0  0  0  0
  -27.8500  -13.5220   19.7080 C   0  0  0  0  0  3  0  0  0  0  0  0
  -28.9300  -13.5080   20.8060 C   0  0  0  0  0  2  0  0  0  0  0  0
  -30.1860  -13.9460   20.1870 N   0  0  0  0  0  0  0  0  0  0  0  0
  -31.9550  -15.2620   19.8980 O   0  0  0  0  0  0  0  0  0  0  0  0
  -25.4860  -14.0830   20.5090 C   0  0  0  0  0  0  0  0  0  0  0  0
  -24.4250  -13.3030   20.8790 C   0  0  0  0  0  0  0  0  0  0  0  0
  -24.8840  -11.9500   20.8110 C   0  0  0  0  0  0  0  0  0  0  0  0
  -26.5230  -13.2080   20.2280 N   0  0  0  0  0  0  0  0  0  0  0  0
  -26.1700  -11.9180   20.4730 N   0  0  0  0  0  0  0  0  0  0  0  0
  -24.1550  -10.6880   20.9860 C   0  0  0  0  0  0  0  0  0  0  0  0
  -24.5610   -9.7200   21.9300 C   0  0  0  0  0  3  0  0  0  0  0  0
  -23.8260   -8.5250   22.0970 C   0  0  0  0  0  3  0  0  0  0  0  0
  -22.6720   -8.2890   21.3150 C   0  0  0  0  0  0  0  0  0  0  0  0
  -22.2840   -9.2460   20.3600 C   0  0  0  0  0  3  0  0  0  0  0  0
  -23.0190  -10.4300   20.1930 C   0  0  0  0  0  3  0  0  0  0  0  0
  -21.9120   -7.1470   21.3890 O   0  0  0  0  0  0  0  0  0  0  0  0
  -21.7660   -6.4530   22.5630 C   0  0  0  0  0  0  0  0  0  0  0  0
  -21.2170   -7.0510   23.7200 C   0  0  0  0  0  3  0  0  0  0  0  0
  -21.0230   -6.2830   24.8850 C   0  0  0  0  0  3  0  0  0  0  0  0
  -21.3680   -4.9180   24.8940 C   0  0  0  0  0  0  0  0  0  0  0  0
  -21.9100   -4.3210   23.7420 C   0  0  0  0  0  3  0  0  0  0  0  0
  -22.1020   -5.0850   22.5790 C   0  0  0  0  0  0  0  0  0  0  0  0
  -22.6060   -4.4990   21.4650 F   0  0  0  0  0  0  0  0  0  0  0  0
  -21.1750   -4.1770   26.0090 F   0  0  0  0  0  0  0  0  0  0  0  0
  -23.0350  -13.7770   21.1840 C   0  0  0  0  0  0  0  0  0  0  0  0
  -22.3250  -13.0780   22.0640 N   0  0  0  0  0  0  0  0  0  0  0  0
  -22.5850  -14.8050   20.6800 O   0  0  0  0  0  0  0  0  0  0  0  0
  -22.6970  -12.2440   22.4940 H   0  0  0  0  0  0  0  0  0  0  0  0
  -21.3960  -13.3840   22.3150 H   0  0  0  0  0  0  0  0  0  0  0  0
  -25.6480  -15.4570   20.3660 N   0  0  0  0  0  0  0  0  0  0  0  0
  -24.8830  -16.1030   20.5350 H   0  0  0  0  0  0  0  0  0  0  0  0
  -26.4960  -15.9210   20.0660 H   0  0  0  0  0  0  0  0  0  0  0  0
  -29.1320  -23.2970   19.9710 C   0  0  0  0  0  3  0  0  0  0  0  0
  -28.0850  -24.6510   20.1690 C   0  0  0  0  0  3  0  0  0  0  0  0
  -28.3300  -26.2010   19.9350 O   0  0  0  0  0  0  0  0  0  0  0  0
  -24.6330  -31.7930   23.1280 C   0  0  0  0  0  0  0  0  0  0  0  0
  -27.2660  -27.1960   19.9250 C   0  0  0  0  0  0  0  0  0  0  0  0
  -23.4520  -30.4420   21.4430 C   0  0  0  0  0  3  0  0  0  0  0  0
  -24.9190  -28.9430   19.9510 C   0  0  0  0  0  0  0  0  0  0  0  0
  -26.0020  -30.7450   21.2780 C   0  0  0  0  0  2  0  0  0  0  0  0
  -26.0960  -29.3750   20.5770 C   0  0  0  0  0  0  0  0  0  0  0  0
  -27.2690  -28.5210   20.5420 C   0  0  0  0  0  3  0  0  0  0  0  0
  -26.0590  -26.8830   19.2600 C   0  0  0  0  0  3  0  0  0  0  0  0
  -24.9160  -27.7150   19.2750 C   0  0  0  0  0  3  0  0  0  0  0  0
  -23.6780  -29.8220   20.0390 C   0  0  0  0  0  2  0  0  0  0  0  0
  -24.7170  -31.0150   22.0050 N   0  0  0  0  0  0  0  0  0  0  0  0
  -23.5440  -32.0390   23.6710 O   0  0  0  0  0  0  0  0  0  0  0  0
  -22.7950  -29.3880   22.3680 C   0  0  0  0  0  0  0  0  0  0  0  0
  -21.4660  -29.2120   22.2530 N   0  0  0  0  0  0  0  0  0  0  0  0
  -23.4830  -28.7300   23.1530 O   0  0  0  0  0  0  0  0  0  0  0  0
  -20.9670  -29.7880   21.5890 H   0  0  0  0  0  0  0  0  0  0  0  0
  -18.0980  -27.9850   22.7820 C   0  0  0  0  0  0  0  0  0  0  0  0
  -20.6640  -28.2340   22.9940 C   0  0  0  0  0  3  0  0  0  0  0  0
  -20.7520  -26.8380   22.3370 C   0  0  0  0  0  2  0  0  0  0  0  0
  -19.6220  -26.5690   21.3370 C   0  0  0  0  0  2  0  0  0  0  0  0
  -18.2560  -26.6770   22.0250 C   0  0  0  0  0  2  0  0  0  0  0  0
  -19.2300  -28.7230   23.2240 C   0  0  0  0  0  0  0  0  0  0  0  0
  -19.0270  -29.9470   23.8950 C   0  0  0  0  0  3  0  0  0  0  0  0
  -17.7270  -30.4350   24.1300 C   0  0  0  0  0  3  0  0  0  0  0  0
  -16.6120  -29.6940   23.7040 C   0  0  0  0  0  3  0  0  0  0  0  0
  -16.7980  -28.4700   23.0370 C   0  0  0  0  0  3  0  0  0  0  0  0
  -25.9020  -32.4300   23.7750 C   0  0  0  0  0  3  0  0  0  0  0  0
  -25.5700  -33.8150   24.1430 N   0  0  0  0  0  0  0  0  0  0  0  0
  -25.8710  -34.8950   23.4090 C   0  0  0  0  0  0  0  0  0  0  0  0
  -26.5230  -34.8300   22.3640 O   0  0  0  0  0  0  0  0  0  0  0  0
  -24.9830  -33.9390   24.9560 H   0  0  0  0  0  0  0  0  0  0  0  0
  -24.1000  -36.6660   23.1490 C   0  0  0  0  0  1  0  0  0  0  0  0
  -25.3710  -36.2650   23.9130 C   0  0  0  0  0  3  0  0  0  0  0  0
  -27.5090  -37.1770   24.7090 C   0  0  0  0  0  1  0  0  0  0  0  0
  -26.3800  -37.3400   23.7960 N   0  0  0  0  0  0  0  0  0  0  0  0
  -25.9590  -38.2480   23.9730 H   0  0  0  0  0  0  0  0  0  0  0  0
  -26.4160  -31.6360   25.0380 C   0  0  1  0  0  0  0  0  0  0  0  0
  -25.3170  -31.3740   26.0960 C   0  0  0  0  0  1  0  0  0  0  0  0
  -27.0060  -30.2670   24.6270 C   0  0  0  0  0  1  0  0  0  0  0  0
  -27.5570  -32.4230   25.7220 C   0  0  0  0  0  1  0  0  0  0  0  0
  1  2  1  0
  1  6  1  0
  4  3  1  0
  6 10  1  0
  6  5  1  0
  7  5  1  0
  7  3  1  0
  8  2  1  0
  8  9  1  0
  8  7  1  0
  9 46  1  0
  9  4  1  0
 11 16  1  0
 12 13  1  0
 12 11  1  0
 14 13  1  0
 14 21  1  0
 14 15  1  0
 16 10  1  0
 16 15  1  0
 17 10  2  0
 18 19  2  0
 19 38  1  0
 20 19  1  0
 20 23  1  0
 21 22  1  0
 21 18  1  0
 22 20  2  0
 23 24  1  0
 24 25  2  0
 26 29  1  0
 26 25  1  0
 27 26  2  0
 28 27  1  0
 28 23  2  0
 29 30  1  0
 30 35  2  0
 30 31  1  0
 31 32  2  0
 32 33  1  0
 33 37  1  0
 34 33  2  0
 35 34  1  0
 36 35  1  0
 38 39  1  0
 39 42  1  0
 39 41  1  0
 40 38  2  0
 43 18  1  0
 43 44  1  0
 45 43  1  0
 46 47  2  0
 48 47  1  0
 49 60  2  0
 50 48  1  0
 50 55  1  0
 51 59  1  0
 51 61  1  0
 52 58  1  0
 52 54  1  0
 53 59  1  0
 54 53  1  0
 55 54  2  0
 56 57  1  0
 56 50  2  0
 57 52  2  0
 58 51  1  0
 59 49  1  0
 61 63  2  0
 62 61  1  0
 64 62  1  0
 65 74  2  0
 65 70  1  0
 66 62  1  0
 66 70  1  0
 67 66  1  0
 68 69  1  0
 68 67  1  0
 69 65  1  0
 70 71  2  0
 71 72  1  0
 73 72  2  0
 74 73  1  0
 75 49  1  0
 75 76  1  0
 75 85  1  0
 76 79  1  0
 77 81  1  0
 77 76  1  0
 78 77  2  0
 81 80  1  0
 83 81  1  0
 83 84  1  0
 83 82  1  0
 85 88  1  1
 85 86  1  0
 87 85  1  0
M  ISO  4   6 100  10 100  47 101  48 101
M  END
>  <TORSDO>  (25) 
F 18

>  <SCORE>  (25) 
-16.136

>  <name>  (25) 
24

>  <ligand_id>  (25) 
24

>  <original_smiles>  (25) 
[H]c1c([H])c([H])c2c(c1[H])C([H])([H])C([H])([H])C([H])([H])C2([H])N([H])C(=O)C1([H])N(C(=O)C([H])(N([H])C(=O)C([H])(N([H])C([H])([H])[H])C([H])([H])[H])C(C([H])([H])[H])(C([H])([H])[H])C([H])([H])[H])C([H])([H])c2c([H])c(OC([H])([H])C([H])([H])C3([H])C([H])([H])C([H])([H])C4([H])C([H])([H])C([H])(C(=O)N5C([H])([H])C([H])([H])C([H])([H])C([H])(n6nc(-c7c([H])c([H])c(Oc8c([H])c([H])c(F)c([H])c8F)c([H])c7[H])c(C(=O)N([H])[H])c6N([H])[H])C5([H])[H])C([H])([H])C([H])([H])C34[H])c([H])c([H])c2C1([H])[H]

>  <smiles>  (25) 
[H]c1c([H])c([H])c2c(c1[H])C([H])([H])C([H])([H])C([H])([H])C2([H])N([H])C(=O)C1([H])N(C(=O)C([H])(N([H])C(=O)C([H])(N([H])C([H])([H])[H])C([H])([H])[H])C(C([H])([H])[H])(C([H])([H])[H])C([H])([H])[H])C([H])([H])c2c([H])c(OC([H])([H])C([H])([H])C3([H])C([H])([H])C([H])([H])C4([H])C([H])([H])C([H])(C(=O)N5C([H])([H])C([H])([H])C([H])([H])C([H])(n6nc(-c7c([H])c([H])c(Oc8c([H])c([H])c(F)c([H])c8F)c([H])c7[H])c(C(=O)N([H])[H])c6N([H])[H])C5([H])[H])C([H])([H])C([H])([H])C34[H])c([H])c([H])c2C1([H])[H]

$$$$
25:0:0
     RDKit          3D

 92100  0  0  1  0  0  0  0  0999 V2000
  -26.2150  -23.7400   22.4760 C   0  0  0  0  0  2  0  0  0  0  0  0
  -27.1730  -22.5860   22.2550 C   0  0  0  0  0  2  0  0  0  0  0  0
  -26.1290  -24.3930   21.1050 C   0  0  0  0  0  2  0  0  0  0  0  0
  -28.1520  -23.0350   21.1390 C   0  0  0  0  0  3  0  0  0  0  0  0
  -27.5600  -24.3540   20.5300 C   0  0  0  0  0  3  0  0  0  0  0  0
  -28.4270  -21.8560   20.1500 C   0  0  0  0  0  2  0  0  0  0  0  0
  -28.8960  -20.6580   20.8940 N   0  0  0  0  0  4  0  0  0  0  0  0
  -28.1830  -20.3970   21.5540 H   0  0  0  0  0  0  0  0  0  0  0  0
  -29.6960  -20.9470   21.4270 H   0  0  0  0  0  0  0  0  0  0  0  0
  -28.1190  -18.7660   19.4330 C   0  0  0  0  0  1  0  0  0  0  0  0
  -29.3120  -19.4360   20.1500 C   0  0  0  0  0  3  0  0  0  0  0  0
  -30.0180  -18.4970   21.1810 C   0  0  0  0  0  2  0  0  0  0  0  0
  -30.7570  -17.2170   20.6920 C   0  0  0  0  0  3  0  0  0  0  0  0
  -29.9500  -15.8840   20.7540 C   0  0  0  0  0  3  0  0  0  0  0  0
  -30.7290  -14.6120   20.3140 C   0  0  0  0  0  0  0  0  0  0  0  0
  -30.4630  -12.4110   19.2320 C   0  0  0  0  0  2  0  0  0  0  0  0
  -29.5110  -12.5580   18.0240 C   0  0  0  0  0  2  0  0  0  0  0  0
  -28.0410  -12.4110   18.4580 C   0  0  0  0  0  2  0  0  0  0  0  0
  -27.6940  -13.2970   19.6820 C   0  0  0  0  0  3  0  0  0  0  0  0
  -28.7460  -13.1470   20.8010 C   0  0  0  0  0  2  0  0  0  0  0  0
  -30.0710  -13.4230   20.2260 N   0  0  0  0  0  0  0  0  0  0  0  0
  -31.8860  -14.7520   19.8990 O   0  0  0  0  0  0  0  0  0  0  0  0
  -25.3100  -13.9290   20.3960 C   0  0  0  0  0  0  0  0  0  0  0  0
  -24.2370  -13.1690   20.7680 C   0  0  0  0  0  0  0  0  0  0  0  0
  -24.6920  -11.8120   20.7610 C   0  0  0  0  0  0  0  0  0  0  0  0
  -26.3470  -13.0380   20.1670 N   0  0  0  0  0  0  0  0  0  0  0  0
  -25.9810  -11.7630   20.4570 N   0  0  0  0  0  0  0  0  0  0  0  0
  -23.9630  -10.5560   20.9700 C   0  0  0  0  0  0  0  0  0  0  0  0
  -24.4020   -9.5970   21.9080 C   0  0  0  0  0  3  0  0  0  0  0  0
  -23.6810   -8.3990   22.1050 C   0  0  0  0  0  3  0  0  0  0  0  0
  -22.5050   -8.1540   21.3600 C   0  0  0  0  0  0  0  0  0  0  0  0
  -22.0810   -9.1000   20.4050 C   0  0  0  0  0  3  0  0  0  0  0  0
  -22.8050  -10.2880   20.2110 C   0  0  0  0  0  3  0  0  0  0  0  0
  -21.7550   -7.0070   21.4630 O   0  0  0  0  0  0  0  0  0  0  0  0
  -21.7200   -6.2730   22.6200 C   0  0  0  0  0  0  0  0  0  0  0  0
  -21.3260   -6.8390   23.8520 C   0  0  0  0  0  3  0  0  0  0  0  0
  -21.2330   -6.0290   25.0000 C   0  0  0  0  0  3  0  0  0  0  0  0
  -21.5300   -4.6560   24.9210 C   0  0  0  0  0  0  0  0  0  0  0  0
  -21.9130   -4.0880   23.6920 C   0  0  0  0  0  3  0  0  0  0  0  0
  -22.0060   -4.8940   22.5460 C   0  0  0  0  0  0  0  0  0  0  0  0
  -22.3580   -4.3400   21.3610 F   0  0  0  0  0  0  0  0  0  0  0  0
  -21.4300   -3.8760   26.0210 F   0  0  0  0  0  0  0  0  0  0  0  0
  -22.8410  -13.6520   21.0310 C   0  0  0  0  0  0  0  0  0  0  0  0
  -22.1050  -12.9740   21.8990 N   0  0  0  0  0  0  0  0  0  0  0  0
  -22.4040  -14.6680   20.4870 O   0  0  0  0  0  0  0  0  0  0  0  0
  -22.4690  -12.1510   22.3580 H   0  0  0  0  0  0  0  0  0  0  0  0
  -21.1680  -13.2780   22.1140 H   0  0  0  0  0  0  0  0  0  0  0  0
  -25.4930  -15.2980   20.2070 N   0  0  0  0  0  0  0  0  0  0  0  0
  -24.7480  -15.9740   20.3430 H   0  0  0  0  0  0  0  0  0  0  0  0
  -26.3730  -15.7170   19.9340 H   0  0  0  0  0  0  0  0  0  0  0  0
  -28.3400  -25.6660   20.9100 C   0  0  0  0  0  2  0  0  0  0  0  0
  -28.2720  -26.7600   19.9670 O   0  0  0  0  0  0  0  0  0  0  0  0
  -24.5770  -31.9310   23.2050 C   0  0  0  0  0  0  0  0  0  0  0  0
  -27.1310  -27.5310   20.0060 C   0  0  0  0  0  0  0  0  0  0  0  0
  -23.3250  -30.5630   21.5730 C   0  0  0  0  0  3  0  0  0  0  0  0
  -24.7500  -29.0510   20.0790 C   0  0  0  0  0  0  0  0  0  0  0  0
  -25.8540  -30.9190   21.3210 C   0  0  0  0  0  2  0  0  0  0  0  0
  -25.9200  -29.5580   20.6610 C   0  0  0  0  0  0  0  0  0  0  0  0
  -27.1160  -28.7990   20.6300 C   0  0  0  0  0  3  0  0  0  0  0  0
  -25.9640  -27.0700   19.3640 C   0  0  0  0  0  3  0  0  0  0  0  0
  -24.7680  -27.8060   19.4260 C   0  0  0  0  0  3  0  0  0  0  0  0
  -23.5040  -29.9030   20.1780 C   0  0  0  0  0  2  0  0  0  0  0  0
  -24.6060  -31.1450   22.0930 N   0  0  0  0  0  0  0  0  0  0  0  0
  -23.5100  -32.1960   23.7740 O   0  0  0  0  0  0  0  0  0  0  0  0
  -22.7020  -29.5220   22.5290 C   0  0  0  0  0  0  0  0  0  0  0  0
  -21.3740  -29.3440   22.4280 N   0  0  0  0  0  0  0  0  0  0  0  0
  -23.4140  -28.8860   23.3140 O   0  0  0  0  0  0  0  0  0  0  0  0
  -20.8640  -29.9650   21.8160 H   0  0  0  0  0  0  0  0  0  0  0  0
  -18.0180  -28.1100   22.9400 C   0  0  0  0  0  0  0  0  0  0  0  0
  -20.5780  -28.3850   23.1920 C   0  0  0  0  0  3  0  0  0  0  0  0
  -20.6860  -26.9550   22.6110 C   0  0  0  0  0  2  0  0  0  0  0  0
  -19.5780  -26.6170   21.6160 C   0  0  0  0  0  2  0  0  0  0  0  0
  -18.1950  -26.7700   22.2470 C   0  0  0  0  0  2  0  0  0  0  0  0
  -19.1360  -28.8730   23.3730 C   0  0  0  0  0  0  0  0  0  0  0  0
  -18.9130  -30.1300   23.9790 C   0  0  0  0  0  3  0  0  0  0  0  0
  -17.6050  -30.6180   24.1530 C   0  0  0  0  0  3  0  0  0  0  0  0
  -16.5060  -29.8500   23.7360 C   0  0  0  0  0  3  0  0  0  0  0  0
  -16.7110  -28.6000   23.1300 C   0  0  0  0  0  3  0  0  0  0  0  0
  -25.8760  -32.5560   23.7960 C   0  0  0  0  0  3  0  0  0  0  0  0
  -25.5740  -33.9470   24.1540 N   0  0  0  0  0  0  0  0  0  0  0  0
  -25.8900  -35.0080   23.4050 C   0  0  0  0  0  0  0  0  0  0  0  0
  -26.5440  -34.9200   22.3600 O   0  0  0  0  0  0  0  0  0  0  0  0
  -24.9920  -34.0880   24.9690 H   0  0  0  0  0  0  0  0  0  0  0  0
  -24.1560  -36.8080   23.1160 C   0  0  0  0  0  1  0  0  0  0  0  0
  -25.4120  -36.3870   23.8960 C   0  0  0  0  0  3  0  0  0  0  0  0
  -27.5670  -37.2640   24.6920 C   0  0  0  0  0  1  0  0  0  0  0  0
  -26.4400  -37.4440   23.7810 N   0  0  0  0  0  0  0  0  0  0  0  0
  -26.0330  -38.3600   23.9550 H   0  0  0  0  0  0  0  0  0  0  0  0
  -26.4240  -31.7660   25.0490 C   0  0  1  0  0  0  0  0  0  0  0  0
  -25.3590  -31.5220   26.1430 C   0  0  0  0  0  1  0  0  0  0  0  0
  -26.9960  -30.3920   24.6230 C   0  0  0  0  0  1  0  0  0  0  0  0
  -27.5870  -32.5530   25.7010 C   0  0  0  0  0  1  0  0  0  0  0  0
  2  1  1  0
  3  1  1  0
  4  6  1  0
  4  2  1  0
  5 51  1  0
  5  3  1  0
  5  4  1  0
  6  7  1  0
  7  9  1  0
  7  8  1  0
 11 10  1  0
 11  7  1  0
 11 12  1  0
 13 14  2  0
 13 12  1  0
 15 14  1  0
 16 21  1  0
 17 18  1  0
 17 16  1  0
 19 18  1  0
 19 26  1  0
 19 20  1  0
 21 15  1  0
 21 20  1  0
 22 15  2  0
 23 24  2  0
 24 43  1  0
 25 24  1  0
 25 28  1  0
 26 23  1  0
 26 27  1  0
 27 25  2  0
 28 29  1  0
 29 30  2  0
 31 34  1  0
 31 30  1  0
 32 31  2  0
 33 32  1  0
 33 28  2  0
 34 35  1  0
 35 36  1  0
 36 37  2  0
 38 37  1  0
 38 42  1  0
 39 38  2  0
 40 35  2  0
 40 39  1  0
 41 40  1  0
 43 44  1  0
 44 47  1  0
 44 46  1  0
 45 43  2  0
 48 49  1  0
 48 23  1  0
 50 48  1  0
 52 54  1  0
 52 51  1  0
 53 64  2  0
 54 59  1  0
 55 63  1  0
 55 65  1  0
 56 62  1  0
 56 58  1  0
 57 63  1  0
 58 57  1  0
 59 58  2  0
 60 61  1  0
 60 54  2  0
 61 56  2  0
 62 55  1  0
 63 53  1  0
 65 67  2  0
 66 65  1  0
 68 66  1  0
 69 78  2  0
 69 74  1  0
 70 66  1  0
 70 74  1  0
 71 70  1  0
 72 73  1  0
 72 71  1  0
 73 69  1  0
 74 75  2  0
 75 76  1  0
 77 76  2  0
 78 77  1  0
 79 53  1  0
 79 80  1  0
 79 89  1  0
 80 83  1  0
 81 85  1  0
 81 80  1  0
 82 81  2  0
 85 84  1  0
 87 85  1  0
 87 88  1  0
 87 86  1  0
 89 92  1  1
 89 90  1  0
 91 89  1  0
M  ISO  4  14 100  15 100  51 101  52 101
M  END
>  <TORSDO>  (26) 
F 23

>  <SCORE>  (26) 
-11.917

>  <name>  (26) 
25

>  <ligand_id>  (26) 
25

>  <original_smiles>  (26) 
[H]c1c([H])c([H])c2c(c1[H])C([H])([H])C([H])([H])C([H])([H])C2([H])N([H])C(=O)C1([H])N(C(=O)C([H])(N([H])C(=O)C([H])(N([H])C([H])([H])[H])C([H])([H])[H])C(C([H])([H])[H])(C([H])([H])[H])C([H])([H])[H])C([H])([H])c2c([H])c(OC([H])([H])C3([H])C([H])([H])C([H])([H])C([H])([H])C3([H])C([H])([H])[N+]([H])([H])C([H])(C([H])([H])[H])C([H])([H])C([H])([H])C([H])([H])C(=O)N3C([H])([H])C([H])([H])C([H])([H])C([H])(n4nc(-c5c([H])c([H])c(Oc6c([H])c([H])c(F)c([H])c6F)c([H])c5[H])c(C(=O)N([H])[H])c4N([H])[H])C3([H])[H])c([H])c([H])c2C1([H])[H]

>  <smiles>  (26) 
[H]c1c([H])c([H])c2c(c1[H])C([H])([H])C([H])([H])C([H])([H])C2([H])N([H])C(=O)C1([H])N(C(=O)C([H])(N([H])C(=O)C([H])(N([H])C([H])([H])[H])C([H])([H])[H])C(C([H])([H])[H])(C([H])([H])[H])C([H])([H])[H])C([H])([H])c2c([H])c(OC([H])([H])C3([H])C([H])([H])C([H])([H])C([H])([H])C3([H])C([H])([H])[N+]([H])([H])C([H])(C([H])([H])[H])C([H])([H])C([H])([H])C([H])([H])C(=O)N3C([H])([H])C([H])([H])C([H])([H])C([H])(n4nc(-c5c([H])c([H])c(Oc6c([H])c([H])c(F)c([H])c6F)c([H])c5[H])c(C(=O)N([H])[H])c4N([H])[H])C3([H])[H])c([H])c([H])c2C1([H])[H]

$$$$
26:0:0
     RDKit          3D

 87 96  0  0  1  0  0  0  0  0999 V2000
  -28.9740  -22.1820   21.1740 C   0  0  0  0  0  2  0  0  0  0  0  0
  -29.0930  -22.1760   19.1670 C   0  0  0  0  0  2  0  0  0  0  0  0
  -29.6570  -21.1070   20.2060 C   0  0  0  0  0  3  0  0  0  0  0  0
  -29.0870  -23.4200   20.1720 C   0  0  0  0  0  3  0  0  0  0  0  0
  -28.9750  -18.8770   21.5800 C   0  0  0  0  0  2  0  0  0  0  0  0
  -30.3620  -18.2160   21.6390 C   0  0  0  0  0  2  0  0  0  0  0  0
  -29.3450  -19.4530   20.1990 C   0  0  0  0  0  3  0  0  0  0  0  0
  -30.3240  -18.0760   20.1080 C   0  0  0  0  0  3  0  0  0  0  0  0
  -29.9070  -16.5350   19.5580 C   0  0  0  0  0  2  0  0  0  0  0  0
  -30.7680  -15.1070   19.5680 C   0  0  0  0  0  0  0  0  0  0  0  0
  -30.5710  -12.7170   18.7550 C   0  0  0  0  0  2  0  0  0  0  0  0
  -29.5500  -12.6600   17.5950 C   0  0  0  0  0  2  0  0  0  0  0  0
  -28.1080  -12.5020   18.1170 C   0  0  0  0  0  2  0  0  0  0  0  0
  -27.7990  -13.4620   19.2970 C   0  0  0  0  0  3  0  0  0  0  0  0
  -28.9360  -13.5000   20.3390 C   0  0  0  0  0  2  0  0  0  0  0  0
  -30.1810  -13.8460   19.6440 N   0  0  0  0  0  0  0  0  0  0  0  0
  -31.9560  -15.1390   19.2290 O   0  0  0  0  0  0  0  0  0  0  0  0
  -25.5130  -14.1140   20.2570 C   0  0  0  0  0  0  0  0  0  0  0  0
  -24.4480  -13.3720   20.6950 C   0  0  0  0  0  0  0  0  0  0  0  0
  -24.8510  -12.0060   20.5950 C   0  0  0  0  0  0  0  0  0  0  0  0
  -26.4930  -13.2020   19.9020 N   0  0  0  0  0  0  0  0  0  0  0  0
  -26.1090  -11.9270   20.1730 N   0  0  0  0  0  0  0  0  0  0  0  0
  -24.0840  -10.7690   20.8210 C   0  0  0  0  0  0  0  0  0  0  0  0
  -24.5140   -9.7970   21.7520 C   0  0  0  0  0  3  0  0  0  0  0  0
  -23.7520   -8.6280   21.9690 C   0  0  0  0  0  3  0  0  0  0  0  0
  -22.5470   -8.4250   21.2560 C   0  0  0  0  0  0  0  0  0  0  0  0
  -22.1320   -9.3870   20.3190 C   0  0  0  0  0  3  0  0  0  0  0  0
  -22.8930  -10.5460   20.1000 C   0  0  0  0  0  3  0  0  0  0  0  0
  -21.7590   -7.3060   21.3760 O   0  0  0  0  0  0  0  0  0  0  0  0
  -21.6690   -6.6120   22.5550 C   0  0  0  0  0  0  0  0  0  0  0  0
  -21.2370   -7.2320   23.7480 C   0  0  0  0  0  3  0  0  0  0  0  0
  -21.0850   -6.4680   24.9230 C   0  0  0  0  0  3  0  0  0  0  0  0
  -21.3640   -5.0890   24.9050 C   0  0  0  0  0  0  0  0  0  0  0  0
  -21.7910   -4.4680   23.7180 C   0  0  0  0  0  3  0  0  0  0  0  0
  -21.9380   -5.2280   22.5440 C   0  0  0  0  0  0  0  0  0  0  0  0
  -22.3300   -4.6240   21.3950 F   0  0  0  0  0  0  0  0  0  0  0  0
  -21.2110   -4.3540   26.0300 F   0  0  0  0  0  0  0  0  0  0  0  0
  -23.0990  -13.9050   21.0800 C   0  0  0  0  0  0  0  0  0  0  0  0
  -22.4160  -13.2390   22.0030 N   0  0  0  0  0  0  0  0  0  0  0  0
  -22.6630  -14.9510   20.6010 O   0  0  0  0  0  0  0  0  0  0  0  0
  -22.7790  -12.3910   22.4110 H   0  0  0  0  0  0  0  0  0  0  0  0
  -21.5170  -13.5880   22.3010 H   0  0  0  0  0  0  0  0  0  0  0  0
  -25.7130  -15.4820   20.1040 N   0  0  0  0  0  0  0  0  0  0  0  0
  -24.9960  -16.1570   20.3470 H   0  0  0  0  0  0  0  0  0  0  0  0
  -26.5160  -15.9080   19.6570 H   0  0  0  0  0  0  0  0  0  0  0  0
  -28.0340  -24.7290   20.0680 C   0  0  0  0  0  2  0  0  0  0  0  0
  -28.2850  -26.2500   20.2760 O   0  0  0  0  0  0  0  0  0  0  0  0
  -24.5300  -31.8740   23.1890 C   0  0  0  0  0  0  0  0  0  0  0  0
  -27.2080  -27.2070   20.1970 C   0  0  0  0  0  0  0  0  0  0  0  0
  -23.3620  -30.4600   21.5400 C   0  0  0  0  0  3  0  0  0  0  0  0
  -24.8460  -28.9040   20.1390 C   0  0  0  0  0  0  0  0  0  0  0  0
  -25.9110  -30.7720   21.3920 C   0  0  0  0  0  2  0  0  0  0  0  0
  -26.0150  -29.3790   20.7470 C   0  0  0  0  0  0  0  0  0  0  0  0
  -27.1980  -28.5490   20.7530 C   0  0  0  0  0  3  0  0  0  0  0  0
  -26.0010  -26.8250   19.5660 C   0  0  0  0  0  3  0  0  0  0  0  0
  -24.8520  -27.6390   19.5360 C   0  0  0  0  0  3  0  0  0  0  0  0
  -23.6010  -29.7710   20.1710 C   0  0  0  0  0  2  0  0  0  0  0  0
  -24.6200  -31.0570   22.0960 N   0  0  0  0  0  0  0  0  0  0  0  0
  -23.4370  -32.1410   23.7120 O   0  0  0  0  0  0  0  0  0  0  0  0
  -22.6900  -29.4490   22.5030 C   0  0  0  0  0  0  0  0  0  0  0  0
  -21.3660  -29.2520   22.3610 N   0  0  0  0  0  0  0  0  0  0  0  0
  -23.3600  -28.8390   23.3380 O   0  0  0  0  0  0  0  0  0  0  0  0
  -20.8780  -29.7890   21.6590 H   0  0  0  0  0  0  0  0  0  0  0  0
  -18.0040  -27.9890   22.8160 C   0  0  0  0  0  0  0  0  0  0  0  0
  -20.5540  -28.3030   23.1250 C   0  0  0  0  0  3  0  0  0  0  0  0
  -20.6940  -26.8680   22.5650 C   0  0  0  0  0  2  0  0  0  0  0  0
  -19.6160  -26.5160   21.5340 C   0  0  0  0  0  2  0  0  0  0  0  0
  -18.2190  -26.6390   22.1520 C   0  0  0  0  0  2  0  0  0  0  0  0
  -19.1000  -28.7760   23.2580 C   0  0  0  0  0  0  0  0  0  0  0  0
  -18.8440  -30.0390   23.8360 C   0  0  0  0  0  3  0  0  0  0  0  0
  -17.5270  -30.5130   23.9780 C   0  0  0  0  0  3  0  0  0  0  0  0
  -16.4460  -29.7210   23.5550 C   0  0  0  0  0  3  0  0  0  0  0  0
  -16.6860  -28.4620   22.9770 C   0  0  0  0  0  3  0  0  0  0  0  0
  -25.7970  -32.5290   23.8210 C   0  0  0  0  0  3  0  0  0  0  0  0
  -26.3060  -31.7700   25.1080 C   0  0  1  0  0  0  0  0  0  0  0  0
  -25.2030  -31.5200   26.1610 C   0  0  0  0  0  1  0  0  0  0  0  0
  -26.9140  -30.3990   24.7320 C   0  0  0  0  0  1  0  0  0  0  0  0
  -27.4300  -32.5850   25.7880 C   0  0  0  0  0  1  0  0  0  0  0  0
  -25.4620  -33.9230   24.1520 N   0  0  0  0  0  0  0  0  0  0  0  0
  -25.7810  -34.9860   23.4020 C   0  0  0  0  0  0  0  0  0  0  0  0
  -26.4540  -34.8970   22.3710 O   0  0  0  0  0  0  0  0  0  0  0  0
  -24.8620  -34.0640   24.9500 H   0  0  0  0  0  0  0  0  0  0  0  0
  -24.0230  -36.7550   23.0600 C   0  0  0  0  0  1  0  0  0  0  0  0
  -25.2740  -36.3650   23.8650 C   0  0  0  0  0  3  0  0  0  0  0  0
  -27.3930  -37.2870   24.6960 C   0  0  0  0  0  1  0  0  0  0  0  0
  -26.2900  -37.4360   23.7520 N   0  0  0  0  0  0  0  0  0  0  0  0
  -25.8660  -38.3490   23.9020 H   0  0  0  0  0  0  0  0  0  0  0  0
  2  4  1  0
  3  2  1  0
  3  1  1  0
  4 46  1  0
  4  1  1  0
  5  6  1  0
  7  3  1  0
  7  5  1  0
  8  9  1  0
  8  7  1  0
  8  6  1  0
  9 10  1  0
 10 16  1  0
 11 16  1  0
 12 13  1  0
 12 11  1  0
 14 13  1  0
 14 21  1  0
 14 15  1  0
 16 15  1  0
 17 10  2  0
 18 19  2  0
 19 38  1  0
 20 19  1  0
 20 23  1  0
 21 22  1  0
 21 18  1  0
 22 20  2  0
 23 24  1  0
 24 25  2  0
 26 29  1  0
 26 25  1  0
 27 26  2  0
 28 27  1  0
 28 23  2  0
 29 30  1  0
 30 31  1  0
 31 32  2  0
 33 32  1  0
 33 37  1  0
 34 33  2  0
 35 30  2  0
 35 34  1  0
 36 35  1  0
 38 39  1  0
 39 42  1  0
 39 41  1  0
 40 38  2  0
 43 18  1  0
 43 44  1  0
 45 43  1  0
 46 47  1  0
 48 59  2  0
 49 47  1  0
 49 54  1  0
 50 58  1  0
 50 60  1  0
 51 57  1  0
 51 53  1  0
 52 58  1  0
 53 54  2  0
 53 52  1  0
 55 49  2  0
 56 55  1  0
 56 51  2  0
 57 50  1  0
 58 48  1  0
 60 62  2  0
 61 60  1  0
 63 61  1  0
 64 73  2  0
 64 69  1  0
 65 61  1  0
 65 69  1  0
 66 65  1  0
 67 68  1  0
 67 66  1  0
 68 64  1  0
 69 70  2  0
 70 71  1  0
 72 71  2  0
 73 72  1  0
 74 48  1  0
 74 79  1  0
 74 75  1  0
 75 78  1  1
 75 76  1  0
 77 75  1  0
 79 82  1  0
 80 84  1  0
 80 79  1  0
 81 80  2  0
 84 83  1  0
 86 84  1  0
 86 87  1  0
 86 85  1  0
M  ISO  4   9 100  10 100  46 101  47 101
M  END
>  <TORSDO>  (27) 
F 19

>  <SCORE>  (27) 
-12.610

>  <name>  (27) 
26

>  <ligand_id>  (27) 
26

>  <original_smiles>  (27) 
[H]c1c([H])c([H])c2c(c1[H])C([H])([H])C([H])([H])C([H])([H])C2([H])N([H])C(=O)C1([H])N(C(=O)C([H])(N([H])C(=O)C([H])(N([H])C([H])([H])[H])C([H])([H])[H])C(C([H])([H])[H])(C([H])([H])[H])C([H])([H])[H])C([H])([H])c2c([H])c(OC([H])([H])C3([H])C([H])([H])C([H])(C4([H])C([H])([H])C([H])([H])C4([H])C([H])([H])C(=O)N4C([H])([H])C([H])([H])C([H])([H])C([H])(n5nc(-c6c([H])c([H])c(Oc7c([H])c([H])c(F)c([H])c7F)c([H])c6[H])c(C(=O)N([H])[H])c5N([H])[H])C4([H])[H])C3([H])[H])c([H])c([H])c2C1([H])[H]

>  <smiles>  (27) 
[H]c1c([H])c([H])c2c(c1[H])C([H])([H])C([H])([H])C([H])([H])C2([H])N([H])C(=O)C1([H])N(C(=O)C([H])(N([H])C(=O)C([H])(N([H])C([H])([H])[H])C([H])([H])[H])C(C([H])([H])[H])(C([H])([H])[H])C([H])([H])[H])C([H])([H])c2c([H])c(OC([H])([H])C3([H])C([H])([H])C([H])(C4([H])C([H])([H])C([H])([H])C4([H])C([H])([H])C(=O)N4C([H])([H])C([H])([H])C([H])([H])C([H])(n5nc(-c6c([H])c([H])c(Oc7c([H])c([H])c(F)c([H])c7F)c([H])c6[H])c(C(=O)N([H])[H])c5N([H])[H])C4([H])[H])C3([H])[H])c([H])c([H])c2C1([H])[H]

$$$$
27:0:0
     RDKit          3D

 90 99  0  0  1  0  0  0  0  0999 V2000
  -27.1900  -22.8930   20.4190 C   0  0  0  0  0  2  0  0  0  0  0  0
  -27.5540  -21.4300   20.0610 C   0  0  0  0  0  2  0  0  0  0  0  0
  -29.3680  -20.7190   21.7280 C   0  0  0  0  0  2  0  0  0  0  0  0
  -29.5500  -22.7830   20.0940 C   0  0  0  0  0  2  0  0  0  0  0  0
  -29.3850  -19.1640   21.6500 C   0  0  0  0  0  2  0  0  0  0  0  0
  -29.7460  -20.0870   19.4950 C   0  0  0  0  0  2  0  0  0  0  0  0
  -28.3320  -23.7900   19.8860 C   0  0  0  0  0  3  0  0  0  0  0  0
  -29.0700  -21.2710   20.3120 C   0  0  2  0  0  0  0  0  0  0  0  0
  -29.5180  -18.7780   20.2240 N   0  0  1  0  0  4  0  0  0  0  0  0
  -28.5910  -18.4950   19.9430 H   0  0  0  0  0  0  0  0  0  0  0  0
  -28.3980  -25.2760   20.5320 C   0  0  0  0  0  2  0  0  0  0  0  0
  -28.3800  -26.5440   19.7490 O   0  0  0  0  0  0  0  0  0  0  0  0
  -24.6400  -31.8150   23.0300 C   0  0  0  0  0  0  0  0  0  0  0  0
  -27.2510  -27.3740   19.8140 C   0  0  0  0  0  0  0  0  0  0  0  0
  -23.4200  -30.4360   21.3840 C   0  0  0  0  0  3  0  0  0  0  0  0
  -24.8650  -28.9460   19.8850 C   0  0  0  0  0  0  0  0  0  0  0  0
  -25.9470  -30.8080   21.1460 C   0  0  0  0  0  2  0  0  0  0  0  0
  -26.0390  -29.4440   20.4680 C   0  0  0  0  0  0  0  0  0  0  0  0
  -27.2370  -28.6700   20.4210 C   0  0  0  0  0  3  0  0  0  0  0  0
  -26.0580  -26.9250   19.2140 C   0  0  0  0  0  3  0  0  0  0  0  0
  -24.8760  -27.6930   19.2470 C   0  0  0  0  0  3  0  0  0  0  0  0
  -23.6150  -29.8000   19.9830 C   0  0  0  0  0  2  0  0  0  0  0  0
  -24.6890  -31.0350   21.9130 N   0  0  0  0  0  0  0  0  0  0  0  0
  -23.5640  -32.0620   23.5970 O   0  0  0  0  0  0  0  0  0  0  0  0
  -22.7980  -29.3830   22.3330 C   0  0  0  0  0  0  0  0  0  0  0  0
  -21.4690  -29.2020   22.2460 N   0  0  0  0  0  0  0  0  0  0  0  0
  -23.5070  -28.7350   23.1060 O   0  0  0  0  0  0  0  0  0  0  0  0
  -20.9560  -29.7840   21.5990 H   0  0  0  0  0  0  0  0  0  0  0  0
  -18.1190  -27.9640   22.8190 C   0  0  0  0  0  0  0  0  0  0  0  0
  -20.6820  -28.2310   23.0090 C   0  0  0  0  0  3  0  0  0  0  0  0
  -20.7730  -26.8230   22.3790 C   0  0  0  0  0  2  0  0  0  0  0  0
  -19.6380  -26.5290   21.3930 C   0  0  0  0  0  2  0  0  0  0  0  0
  -18.2790  -26.6420   22.0880 C   0  0  0  0  0  2  0  0  0  0  0  0
  -19.2470  -28.7180   23.2360 C   0  0  0  0  0  0  0  0  0  0  0  0
  -19.0440  -29.9560   23.8810 C   0  0  0  0  0  3  0  0  0  0  0  0
  -17.7430  -30.4450   24.1070 C   0  0  0  0  0  3  0  0  0  0  0  0
  -16.6290  -29.6880   23.7060 C   0  0  0  0  0  3  0  0  0  0  0  0
  -16.8180  -28.4480   23.0700 C   0  0  0  0  0  3  0  0  0  0  0  0
  -25.9280  -32.4510   23.6410 C   0  0  0  0  0  3  0  0  0  0  0  0
  -26.5070  -31.6350   24.8610 C   0  0  1  0  0  0  0  0  0  0  0  0
  -25.4550  -31.3200   25.9500 C   0  0  0  0  0  1  0  0  0  0  0  0
  -27.1100  -30.2910   24.3860 C   0  0  0  0  0  1  0  0  0  0  0  0
  -27.6620  -32.4270   25.5220 C   0  0  0  0  0  1  0  0  0  0  0  0
  -25.5930  -33.8230   24.0470 N   0  0  0  0  0  0  0  0  0  0  0  0
  -25.8740  -34.9210   23.3330 C   0  0  0  0  0  0  0  0  0  0  0  0
  -26.5150  -34.8850   22.2790 O   0  0  0  0  0  0  0  0  0  0  0  0
  -25.0050  -33.9180   24.8610 H   0  0  0  0  0  0  0  0  0  0  0  0
  -24.0960  -36.6910   23.1190 C   0  0  0  0  0  1  0  0  0  0  0  0
  -25.3680  -36.2730   23.8740 C   0  0  0  0  0  3  0  0  0  0  0  0
  -27.5010  -37.1660   24.6980 C   0  0  0  0  0  1  0  0  0  0  0  0
  -26.3730  -37.3550   23.7900 N   0  0  0  0  0  0  0  0  0  0  0  0
  -25.9490  -38.2550   23.9970 H   0  0  0  0  0  0  0  0  0  0  0  0
  -30.4310  -17.5830   19.9010 C   0  0  0  0  0  3  0  0  0  0  0  0
  -30.1430  -16.1540   20.5870 C   0  0  0  0  0  3  0  0  0  0  0  0
  -30.8730  -14.8510   20.0170 C   0  0  0  0  0  0  0  0  0  0  0  0
  -30.6210  -12.6000   18.9550 C   0  0  0  0  0  2  0  0  0  0  0  0
  -29.6270  -12.7060   17.7760 C   0  0  0  0  0  2  0  0  0  0  0  0
  -28.1740  -12.5450   18.2650 C   0  0  0  0  0  2  0  0  0  0  0  0
  -27.8670  -13.4160   19.5110 C   0  0  0  0  0  3  0  0  0  0  0  0
  -28.9710  -13.2840   20.5830 C   0  0  0  0  0  2  0  0  0  0  0  0
  -30.2510  -13.6270   19.9530 N   0  0  0  0  0  0  0  0  0  0  0  0
  -32.0000  -14.9850   19.5310 O   0  0  0  0  0  0  0  0  0  0  0  0
  -25.5220  -14.0170   20.3640 C   0  0  0  0  0  0  0  0  0  0  0  0
  -24.4680  -13.2450   20.7730 C   0  0  0  0  0  0  0  0  0  0  0  0
  -24.9160  -11.8910   20.6910 C   0  0  0  0  0  0  0  0  0  0  0  0
  -26.5430  -13.1330   20.0580 N   0  0  0  0  0  0  0  0  0  0  0  0
  -26.1880  -11.8470   20.3150 N   0  0  0  0  0  0  0  0  0  0  0  0
  -24.1890  -10.6300   20.8880 C   0  0  0  0  0  0  0  0  0  0  0  0
  -24.6030   -9.6790   21.8470 C   0  0  0  0  0  3  0  0  0  0  0  0
  -23.8740   -8.4840   22.0300 C   0  0  0  0  0  3  0  0  0  0  0  0
  -22.7170   -8.2330   21.2540 C   0  0  0  0  0  0  0  0  0  0  0  0
  -22.3230   -9.1730   20.2860 C   0  0  0  0  0  3  0  0  0  0  0  0
  -23.0530  -10.3590   20.1010 C   0  0  0  0  0  3  0  0  0  0  0  0
  -21.9600   -7.0900   21.3470 O   0  0  0  0  0  0  0  0  0  0  0  0
  -21.8050   -6.4250   22.5360 C   0  0  0  0  0  0  0  0  0  0  0  0
  -21.2590   -7.0560   23.6760 C   0  0  0  0  0  3  0  0  0  0  0  0
  -21.0520   -6.3160   24.8590 C   0  0  0  0  0  3  0  0  0  0  0  0
  -21.3770   -4.9460   24.9010 C   0  0  0  0  0  0  0  0  0  0  0  0
  -21.9160   -4.3170   23.7640 C   0  0  0  0  0  3  0  0  0  0  0  0
  -22.1260   -5.0530   22.5850 C   0  0  0  0  0  0  0  0  0  0  0  0
  -22.6240   -4.4340   21.4860 F   0  0  0  0  0  0  0  0  0  0  0  0
  -21.1710   -4.2340   26.0340 F   0  0  0  0  0  0  0  0  0  0  0  0
  -23.0920  -13.7290   21.1240 C   0  0  0  0  0  0  0  0  0  0  0  0
  -22.4080  -13.0290   22.0220 N   0  0  0  0  0  0  0  0  0  0  0  0
  -22.6320  -14.7600   20.6360 O   0  0  0  0  0  0  0  0  0  0  0  0
  -22.7930  -12.1910   22.4330 H   0  0  0  0  0  0  0  0  0  0  0  0
  -21.4880  -13.3340   22.3030 H   0  0  0  0  0  0  0  0  0  0  0  0
  -25.6900  -15.3900   20.2050 N   0  0  0  0  0  0  0  0  0  0  0  0
  -24.9330  -16.0500   20.3510 H   0  0  0  0  0  0  0  0  0  0  0  0
  -26.5140  -15.8160   19.8010 H   0  0  0  0  0  0  0  0  0  0  0  0
  8  2  1  6
  2  1  1  0
  4  8  1  0
  5  3  1  0
  6  9  1  0
  7  4  1  0
  7  1  1  0
  7 11  1  0
  8  6  1  0
  8  3  1  0
  9  5  1  0
  9 10  1  6
 12 14  1  0
 12 11  1  0
 13 24  2  0
 14 19  1  0
 15 23  1  0
 15 25  1  0
 16 22  1  0
 16 18  1  0
 17 23  1  0
 18 17  1  0
 19 18  2  0
 20 21  1  0
 20 14  2  0
 21 16  2  0
 22 15  1  0
 23 13  1  0
 25 27  2  0
 26 25  1  0
 28 26  1  0
 29 38  2  0
 29 34  1  0
 30 26  1  0
 30 34  1  0
 31 30  1  0
 32 33  1  0
 32 31  1  0
 33 29  1  0
 34 35  2  0
 35 36  1  0
 37 36  2  0
 38 37  1  0
 39 13  1  0
 39 44  1  0
 39 40  1  0
 40 43  1  1
 40 41  1  0
 42 40  1  0
 44 47  1  0
 45 49  1  0
 45 44  1  0
 46 45  2  0
 49 48  1  0
 51 49  1  0
 51 52  1  0
 51 50  1  0
 53  9  1  0
 53 54  2  0
 55 54  1  0
 56 61  1  0
 57 58  1  0
 57 56  1  0
 59 58  1  0
 59 66  1  0
 59 60  1  0
 61 55  1  0
 61 60  1  0
 62 55  2  0
 63 64  2  0
 64 83  1  0
 65 64  1  0
 65 68  1  0
 66 67  1  0
 66 63  1  0
 67 65  2  0
 68 69  1  0
 69 70  2  0
 71 74  1  0
 71 70  1  0
 72 71  2  0
 73 72  1  0
 73 68  2  0
 74 75  1  0
 75 80  2  0
 75 76  1  0
 76 77  2  0
 77 78  1  0
 78 82  1  0
 79 78  2  0
 80 79  1  0
 81 80  1  0
 83 84  1  0
 84 87  1  0
 84 86  1  0
 85 83  2  0
 88 89  1  0
 88 63  1  0
 90 88  1  0
M  ISO  4  11 101  12 101  54 100  55 100
M  END
>  <TORSDO>  (28) 
F 19

>  <SCORE>  (28) 
-12.778

>  <name>  (28) 
27

>  <ligand_id>  (28) 
27

>  <original_smiles>  (28) 
[H]c1c([H])c([H])c2c(c1[H])C([H])([H])C([H])([H])C([H])([H])C2([H])N([H])C(=O)C1([H])N(C(=O)C([H])(N([H])C(=O)C([H])(N([H])C([H])([H])[H])C([H])([H])[H])C(C([H])([H])[H])(C([H])([H])[H])C([H])([H])[H])C([H])([H])c2c([H])c(OC([H])([H])C3([H])C([H])([H])C([H])([H])C4(C3([H])[H])C([H])([H])C([H])([H])[N+]([H])(C([H])([H])C([H])([H])C(=O)N3C([H])([H])C([H])([H])C([H])([H])C([H])(n5nc(-c6c([H])c([H])c(Oc7c([H])c([H])c(F)c([H])c7F)c([H])c6[H])c(C(=O)N([H])[H])c5N([H])[H])C3([H])[H])C4([H])[H])c([H])c([H])c2C1([H])[H]

>  <smiles>  (28) 
[H]c1c([H])c([H])c2c(c1[H])C([H])([H])C([H])([H])C([H])([H])C2([H])N([H])C(=O)C1([H])N(C(=O)C([H])(N([H])C(=O)C([H])(N([H])C([H])([H])[H])C([H])([H])[H])C(C([H])([H])[H])(C([H])([H])[H])C([H])([H])[H])C([H])([H])c2c([H])c(OC([H])([H])C3([H])C([H])([H])C([H])([H])C4(C3([H])[H])C([H])([H])C([H])([H])[N+]([H])(C([H])([H])C([H])([H])C(=O)N3C([H])([H])C([H])([H])C([H])([H])C([H])(n5nc(-c6c([H])c([H])c(Oc7c([H])c([H])c(F)c([H])c7F)c([H])c6[H])c(C(=O)N([H])[H])c5N([H])[H])C3([H])[H])C4([H])[H])c([H])c([H])c2C1([H])[H]

$$$$
28:0:0
     RDKit          3D

 93102  0  0  1  0  0  0  0  0999 V2000
  -29.8300  -20.0240   20.4400 N   0  0  0  0  0  4  0  0  0  0  0  0
  -30.4410  -20.0490   19.6380 H   0  0  0  0  0  0  0  0  0  0  0  0
  -30.3630  -20.3830   21.2150 H   0  0  0  0  0  0  0  0  0  0  0  0
  -30.6880  -17.2370   22.0240 C   0  0  0  0  0  3  0  0  0  0  0  0
  -29.6570  -18.3260   22.2460 C   0  0  0  0  0  3  0  0  0  0  0  0
  -30.5820  -17.3980   20.5140 C   0  0  0  0  0  3  0  0  0  0  0  0
  -29.5200  -18.5650   20.7560 C   0  0  0  0  0  3  0  0  0  0  0  0
  -30.9760  -18.3540   23.0020 C   0  0  1  0  0  0  0  0  0  0  0  0
  -30.9530  -18.0600   24.4910 C   0  0  0  0  0  1  0  0  0  0  0  0
  -32.0670  -19.3650   22.6830 C   0  0  0  0  0  1  0  0  0  0  0  0
  -30.1270  -16.0090   19.9050 C   0  0  0  0  0  2  0  0  0  0  0  0
  -30.9660  -14.6650   20.0240 C   0  0  0  0  0  0  0  0  0  0  0  0
  -30.6680  -12.4310   19.0050 C   0  0  0  0  0  2  0  0  0  0  0  0
  -29.7050  -12.6090   17.8080 C   0  0  0  0  0  2  0  0  0  0  0  0
  -28.2360  -12.4800   18.2630 C   0  0  0  0  0  2  0  0  0  0  0  0
  -27.9270  -13.3600   19.4980 C   0  0  0  0  0  3  0  0  0  0  0  0
  -29.0030  -13.1940   20.5960 C   0  0  0  0  0  2  0  0  0  0  0  0
  -30.3210  -13.4570   20.0060 N   0  0  0  0  0  0  0  0  0  0  0  0
  -32.1750  -14.7320   19.7820 O   0  0  0  0  0  0  0  0  0  0  0  0
  -25.5800  -14.0610   20.2700 C   0  0  0  0  0  0  0  0  0  0  0  0
  -24.4940  -13.3300   20.6690 C   0  0  0  0  0  0  0  0  0  0  0  0
  -24.9080  -11.9640   20.6480 C   0  0  0  0  0  0  0  0  0  0  0  0
  -26.5850  -13.1380   20.0220 N   0  0  0  0  0  0  0  0  0  0  0  0
  -26.1900  -11.8750   20.3150 N   0  0  0  0  0  0  0  0  0  0  0  0
  -24.1450  -10.7300   20.8640 C   0  0  0  0  0  0  0  0  0  0  0  0
  -24.5440   -9.7730   21.8220 C   0  0  0  0  0  3  0  0  0  0  0  0
  -23.7830   -8.6020   22.0220 C   0  0  0  0  0  3  0  0  0  0  0  0
  -22.6090   -8.3810   21.2630 C   0  0  0  0  0  0  0  0  0  0  0  0
  -22.2310   -9.3260   20.2920 C   0  0  0  0  0  3  0  0  0  0  0  0
  -22.9930  -10.4880   20.0910 C   0  0  0  0  0  3  0  0  0  0  0  0
  -21.8200   -7.2620   21.3740 O   0  0  0  0  0  0  0  0  0  0  0  0
  -21.7200   -6.5640   22.5510 C   0  0  0  0  0  0  0  0  0  0  0  0
  -21.2990   -7.1820   23.7490 C   0  0  0  0  0  3  0  0  0  0  0  0
  -21.1430   -6.4130   24.9190 C   0  0  0  0  0  3  0  0  0  0  0  0
  -21.4000   -5.0290   24.8940 C   0  0  0  0  0  0  0  0  0  0  0  0
  -21.8150   -4.4120   23.7010 C   0  0  0  0  0  3  0  0  0  0  0  0
  -21.9730   -5.1780   22.5320 C   0  0  0  0  0  0  0  0  0  0  0  0
  -22.3530   -4.5740   21.3800 F   0  0  0  0  0  0  0  0  0  0  0  0
  -21.2420   -4.2900   26.0160 F   0  0  0  0  0  0  0  0  0  0  0  0
  -23.1180  -13.8590   20.9560 C   0  0  0  0  0  0  0  0  0  0  0  0
  -22.3890  -13.2110   21.8590 N   0  0  0  0  0  0  0  0  0  0  0  0
  -22.6990  -14.8800   20.4140 O   0  0  0  0  0  0  0  0  0  0  0  0
  -22.7420  -12.3850   22.3200 H   0  0  0  0  0  0  0  0  0  0  0  0
  -21.4660  -13.5470   22.0940 H   0  0  0  0  0  0  0  0  0  0  0  0
  -25.7890  -15.4230   20.0760 N   0  0  0  0  0  0  0  0  0  0  0  0
  -25.0460  -16.1030   20.1950 H   0  0  0  0  0  0  0  0  0  0  0  0
  -26.6430  -15.8320   19.7190 H   0  0  0  0  0  0  0  0  0  0  0  0
  -27.3290  -20.5570   20.7000 C   0  0  0  0  0  1  0  0  0  0  0  0
  -28.6980  -21.0130   20.1430 C   0  0  0  0  0  3  0  0  0  0  0  0
  -28.9660  -22.5220   20.6000 C   0  0  0  0  0  3  0  0  0  0  0  0
  -28.2020  -23.7220   19.8690 C   0  0  0  0  0  3  0  0  0  0  0  0
  -28.1670  -25.1230   20.6150 C   0  0  0  0  0  2  0  0  0  0  0  0
  -28.1330  -26.3750   19.8440 O   0  0  0  0  0  0  0  0  0  0  0  0
  -24.4720  -31.7060   23.0340 C   0  0  0  0  0  0  0  0  0  0  0  0
  -26.9940  -27.1750   19.9040 C   0  0  0  0  0  0  0  0  0  0  0  0
  -23.2220  -30.3230   21.4100 C   0  0  0  0  0  3  0  0  0  0  0  0
  -24.6310  -28.7650   19.9540 C   0  0  0  0  0  0  0  0  0  0  0  0
  -25.7530  -30.6380   21.1670 C   0  0  0  0  0  2  0  0  0  0  0  0
  -25.8130  -29.2620   20.5190 C   0  0  0  0  0  0  0  0  0  0  0  0
  -27.0020  -28.4800   20.4780 C   0  0  0  0  0  3  0  0  0  0  0  0
  -25.7930  -26.7100   19.3340 C   0  0  0  0  0  3  0  0  0  0  0  0
  -24.6200  -27.4930   19.3560 C   0  0  0  0  0  3  0  0  0  0  0  0
  -23.4000  -29.6470   20.0260 C   0  0  0  0  0  2  0  0  0  0  0  0
  -24.5030  -30.9060   21.9280 N   0  0  0  0  0  0  0  0  0  0  0  0
  -23.4030  -31.9890   23.5930 O   0  0  0  0  0  0  0  0  0  0  0  0
  -22.5730  -29.3090   22.3810 C   0  0  0  0  0  0  0  0  0  0  0  0
  -21.2450  -29.1380   22.2740 N   0  0  0  0  0  0  0  0  0  0  0  0
  -23.2630  -28.6770   23.1850 O   0  0  0  0  0  0  0  0  0  0  0  0
  -20.7480  -29.7010   21.5980 H   0  0  0  0  0  0  0  0  0  0  0  0
  -17.8740  -27.9390   22.8030 C   0  0  0  0  0  0  0  0  0  0  0  0
  -20.4330  -28.2020   23.0540 C   0  0  0  0  0  3  0  0  0  0  0  0
  -20.5330  -26.7690   22.4820 C   0  0  0  0  0  2  0  0  0  0  0  0
  -19.4240  -26.4410   21.4780 C   0  0  0  0  0  2  0  0  0  0  0  0
  -18.0470  -26.5860   22.1310 C   0  0  0  0  0  2  0  0  0  0  0  0
  -18.9950  -28.7040   23.2220 C   0  0  0  0  0  0  0  0  0  0  0  0
  -18.7780  -29.9690   23.8090 C   0  0  0  0  0  3  0  0  0  0  0  0
  -17.4750  -30.4700   23.9810 C   0  0  0  0  0  3  0  0  0  0  0  0
  -16.3680  -29.7020   23.5800 C   0  0  0  0  0  3  0  0  0  0  0  0
  -16.5690  -28.4380   22.9960 C   0  0  0  0  0  3  0  0  0  0  0  0
  -25.7730  -32.3240   23.6330 C   0  0  0  0  0  3  0  0  0  0  0  0
  -25.4670  -33.7030   24.0370 N   0  0  0  0  0  0  0  0  0  0  0  0
  -25.7780  -34.7930   23.3220 C   0  0  0  0  0  0  0  0  0  0  0  0
  -26.4240  -34.7420   22.2720 O   0  0  0  0  0  0  0  0  0  0  0  0
  -24.8900  -33.8150   24.8580 H   0  0  0  0  0  0  0  0  0  0  0  0
  -24.0310  -36.5890   23.0980 C   0  0  0  0  0  1  0  0  0  0  0  0
  -25.2960  -36.1560   23.8560 C   0  0  0  0  0  3  0  0  0  0  0  0
  -27.4510  -37.0120   24.6660 C   0  0  0  0  0  1  0  0  0  0  0  0
  -26.3200  -37.2190   23.7640 N   0  0  0  0  0  0  0  0  0  0  0  0
  -25.9150  -38.1290   23.9690 H   0  0  0  0  0  0  0  0  0  0  0  0
  -26.3470  -31.5030   24.8530 C   0  0  1  0  0  0  0  0  0  0  0  0
  -25.3010  -31.2070   25.9530 C   0  0  0  0  0  1  0  0  0  0  0  0
  -26.9230  -30.1490   24.3760 C   0  0  0  0  0  1  0  0  0  0  0  0
  -27.5190  -32.2770   25.5020 C   0  0  0  0  0  1  0  0  0  0  0  0
  1  3  1  0
  2  1  1  0
  4  5  1  0
  4  8  1  0
  5  8  1  0
  6 11  1  0
  6  7  1  0
  6  4  1  0
  7  1  1  0
  7  5  1  0
  8  9  1  1
 10  8  1  0
 11 12  1  0
 13 18  1  0
 14 15  1  0
 14 13  1  0
 16 15  1  0
 16 23  1  0
 16 17  1  0
 18 12  1  0
 18 17  1  0
 19 12  2  0
 20 21  2  0
 21 40  1  0
 22 21  1  0
 22 25  1  0
 23 20  1  0
 23 24  1  0
 24 22  2  0
 25 26  1  0
 26 27  2  0
 28 31  1  0
 28 27  1  0
 29 28  2  0
 30 29  1  0
 30 25  2  0
 31 32  1  0
 32 33  1  0
 33 34  2  0
 35 34  1  0
 35 39  1  0
 36 35  2  0
 37 32  2  0
 37 36  1  0
 38 37  1  0
 40 41  1  0
 41 44  1  0
 41 43  1  0
 42 40  2  0
 45 46  1  0
 45 20  1  0
 47 45  1  0
 49  1  1  0
 49 50  1  0
 49 48  1  0
 51 50  2  0
 51 52  1  0
 53 55  1  0
 53 52  1  0
 54 65  2  0
 55 60  1  0
 56 64  1  0
 56 66  1  0
 57 63  1  0
 57 59  1  0
 58 64  1  0
 59 58  1  0
 60 59  2  0
 61 62  1  0
 61 55  2  0
 62 57  2  0
 63 56  1  0
 64 54  1  0
 66 68  2  0
 67 66  1  0
 69 67  1  0
 70 79  2  0
 70 75  1  0
 71 67  1  0
 71 75  1  0
 72 71  1  0
 73 74  1  0
 73 72  1  0
 74 70  1  0
 75 76  2  0
 76 77  1  0
 78 77  2  0
 79 78  1  0
 80 54  1  0
 80 81  1  0
 80 90  1  0
 81 84  1  0
 82 86  1  0
 82 81  1  0
 83 82  2  0
 86 85  1  0
 88 86  1  0
 88 89  1  0
 88 87  1  0
 90 93  1  1
 90 91  1  0
 92 90  1  0
M  ISO  4  11 100  12 100  52 101  53 101
M  END
>  <TORSDO>  (29) 
F 22

>  <SCORE>  (29) 
-9.715

>  <name>  (29) 
28

>  <ligand_id>  (29) 
28

>  <original_smiles>  (29) 
[H]c1c([H])c([H])c2c(c1[H])C([H])([H])C([H])([H])C([H])([H])C2([H])N([H])C(=O)C1([H])N(C(=O)C([H])(N([H])C(=O)C([H])(N([H])C([H])([H])[H])C([H])([H])[H])C(C([H])([H])[H])(C([H])([H])[H])C([H])([H])[H])C([H])([H])c2c([H])c(OC([H])([H])C([H])([H])C([H])([H])C([H])(C([H])([H])[H])[N+]([H])([H])C3([H])C([H])(C([H])([H])C(=O)N4C([H])([H])C([H])([H])C([H])([H])C([H])(n5nc(-c6c([H])c([H])c(Oc7c([H])c([H])c(F)c([H])c7F)c([H])c6[H])c(C(=O)N([H])[H])c5N([H])[H])C4([H])[H])C4([H])C3([H])C4(C([H])([H])[H])C([H])([H])[H])c([H])c([H])c2C1([H])[H]

>  <smiles>  (29) 
[H]c1c([H])c([H])c2c(c1[H])C([H])([H])C([H])([H])C([H])([H])C2([H])N([H])C(=O)C1([H])N(C(=O)C([H])(N([H])C(=O)C([H])(N([H])C([H])([H])[H])C([H])([H])[H])C(C([H])([H])[H])(C([H])([H])[H])C([H])([H])[H])C([H])([H])c2c([H])c(OC([H])([H])C([H])([H])C([H])([H])C([H])(C([H])([H])[H])[N+]([H])([H])C3([H])C([H])(C([H])([H])C(=O)N4C([H])([H])C([H])([H])C([H])([H])C([H])(n5nc(-c6c([H])c([H])c(Oc7c([H])c([H])c(F)c([H])c7F)c([H])c6[H])c(C(=O)N([H])[H])c5N([H])[H])C4([H])[H])C4([H])C3([H])C4(C([H])([H])[H])C([H])([H])[H])c([H])c([H])c2C1([H])[H]

$$$$
29:0:0
     RDKit          3D

 87 96  0  0  1  0  0  0  0  0999 V2000
  -30.3090  -19.1210   18.6230 C   0  0  0  0  0  2  0  0  0  0  0  0
  -29.5950  -20.7310   18.5450 C   0  0  0  0  0  2  0  0  0  0  0  0
  -27.6640  -21.2850   20.8000 C   0  0  0  0  0  2  0  0  0  0  0  0
  -27.4420  -22.8830   20.5770 C   0  0  0  0  0  3  0  0  0  0  0  0
  -29.8770  -17.7610   19.5620 C   0  0  0  0  0  3  0  0  0  0  0  0
  -29.1570  -20.7630   20.7270 C   0  0  0  0  0  3  0  0  0  0  0  0
  -29.6040  -21.9800   19.7110 C   0  0  0  0  0  3  0  0  0  0  0  0
  -29.6120  -18.9960   20.7790 C   0  0  0  0  0  3  0  0  0  0  0  0
  -28.6790  -23.6570   19.9960 C   0  0  0  0  0  0  0  0  0  0  0  0
  -28.7310  -18.3540   21.8590 C   0  0  0  0  0  1  0  0  0  0  0  0
  -30.6720  -15.9780   19.5450 C   0  0  0  0  0  0  0  0  0  0  0  0
  -30.7950  -13.3750   18.7660 C   0  0  0  0  0  2  0  0  0  0  0  0
  -29.8260  -12.8840   17.6450 C   0  0  0  0  0  2  0  0  0  0  0  0
  -28.4590  -12.4880   18.2210 C   0  0  0  0  0  2  0  0  0  0  0  0
  -28.0040  -13.5020   19.2920 C   0  0  0  0  0  3  0  0  0  0  0  0
  -29.1080  -13.8980   20.3020 C   0  0  0  0  0  2  0  0  0  0  0  0
  -30.2020  -14.5680   19.5510 N   0  0  0  0  0  0  0  0  0  0  0  0
  -31.8940  -15.8740   19.3010 O   0  0  0  0  0  0  0  0  0  0  0  0
  -25.7520  -14.0030   20.3380 C   0  0  0  0  0  0  0  0  0  0  0  0
  -24.7230  -13.2140   20.7660 C   0  0  0  0  0  0  0  0  0  0  0  0
  -25.1660  -11.8640   20.6120 C   0  0  0  0  0  0  0  0  0  0  0  0
  -26.7490  -13.1370   19.9340 N   0  0  0  0  0  0  0  0  0  0  0  0
  -26.4200  -11.8380   20.1650 N   0  0  0  0  0  0  0  0  0  0  0  0
  -24.4380  -10.6000   20.8040 C   0  0  0  0  0  0  0  0  0  0  0  0
  -24.8780   -9.6230   21.7250 C   0  0  0  0  0  3  0  0  0  0  0  0
  -24.1450   -8.4310   21.9090 C   0  0  0  0  0  3  0  0  0  0  0  0
  -22.9570   -8.2060   21.1740 C   0  0  0  0  0  0  0  0  0  0  0  0
  -22.5360   -9.1710   20.2420 C   0  0  0  0  0  3  0  0  0  0  0  0
  -23.2690  -10.3540   20.0550 C   0  0  0  0  0  3  0  0  0  0  0  0
  -22.1960   -7.0650   21.2680 O   0  0  0  0  0  0  0  0  0  0  0  0
  -22.0640   -6.3820   22.4490 C   0  0  0  0  0  0  0  0  0  0  0  0
  -21.5230   -6.9890   23.6050 C   0  0  0  0  0  3  0  0  0  0  0  0
  -21.3400   -6.2310   24.7770 C   0  0  0  0  0  3  0  0  0  0  0  0
  -21.6890   -4.8670   24.7990 C   0  0  0  0  0  0  0  0  0  0  0  0
  -22.2240   -4.2600   23.6480 C   0  0  0  0  0  3  0  0  0  0  0  0
  -22.4080   -5.0140   22.4760 C   0  0  0  0  0  0  0  0  0  0  0  0
  -22.9010   -4.4190   21.3640 F   0  0  0  0  0  0  0  0  0  0  0  0
  -21.5080   -4.1360   25.9240 F   0  0  0  0  0  0  0  0  0  0  0  0
  -23.3670  -13.6900   21.1960 C   0  0  0  0  0  0  0  0  0  0  0  0
  -22.7190  -12.9620   22.0960 N   0  0  0  0  0  0  0  0  0  0  0  0
  -22.8980  -14.7450   20.7700 O   0  0  0  0  0  0  0  0  0  0  0  0
  -23.1150  -12.1070   22.4600 H   0  0  0  0  0  0  0  0  0  0  0  0
  -21.8130  -13.2630   22.4290 H   0  0  0  0  0  0  0  0  0  0  0  0
  -25.9160  -15.3800   20.2220 N   0  0  0  0  0  0  0  0  0  0  0  0
  -25.1780  -16.0340   20.4600 H   0  0  0  0  0  0  0  0  0  0  0  0
  -26.7420  -15.8320   19.8510 H   0  0  0  0  0  0  0  0  0  0  0  0
  -28.6790  -25.4870   19.8670 O   0  0  0  0  0  0  0  0  0  0  0  0
  -25.1530  -31.7120   23.2240 C   0  0  0  0  0  0  0  0  0  0  0  0
  -27.6990  -26.7340   19.9420 C   0  0  0  0  0  0  0  0  0  0  0  0
  -23.9940  -30.4440   21.4670 C   0  0  0  0  0  3  0  0  0  0  0  0
  -25.4580  -28.8630   19.9810 C   0  0  0  0  0  0  0  0  0  0  0  0
  -26.5820  -30.5390   21.4190 C   0  0  0  0  0  2  0  0  0  0  0  0
  -26.6470  -29.1420   20.6640 C   0  0  0  0  0  0  0  0  0  0  0  0
  -27.7470  -28.1160   20.6060 C   0  0  0  0  0  3  0  0  0  0  0  0
  -26.4720  -26.6960   19.2240 C   0  0  0  0  0  3  0  0  0  0  0  0
  -25.4170  -27.6670   19.2400 C   0  0  0  0  0  3  0  0  0  0  0  0
  -24.2650  -29.8350   20.0600 C   0  0  0  0  0  2  0  0  0  0  0  0
  -25.2680  -30.9310   22.0920 N   0  0  0  0  0  0  0  0  0  0  0  0
  -24.0490  -31.9890   23.7250 O   0  0  0  0  0  0  0  0  0  0  0  0
  -23.2420  -29.4150   22.3550 C   0  0  0  0  0  0  0  0  0  0  0  0
  -21.9110  -29.2810   22.1880 N   0  0  0  0  0  0  0  0  0  0  0  0
  -23.8690  -28.7340   23.1710 O   0  0  0  0  0  0  0  0  0  0  0  0
  -21.4520  -29.8820   21.5170 H   0  0  0  0  0  0  0  0  0  0  0  0
  -18.4950  -28.1000   22.5880 C   0  0  0  0  0  0  0  0  0  0  0  0
  -21.0610  -28.2990   22.8750 C   0  0  0  0  0  3  0  0  0  0  0  0
  -21.1350  -26.9190   22.1800 C   0  0  0  0  0  2  0  0  0  0  0  0
  -20.0320  -26.7060   21.1400 C   0  0  0  0  0  2  0  0  0  0  0  0
  -18.6510  -26.8150   21.7920 C   0  0  0  0  0  2  0  0  0  0  0  0
  -19.6260  -28.8040   23.0830 C   0  0  0  0  0  0  0  0  0  0  0  0
  -19.4230  -30.0060   23.7970 C   0  0  0  0  0  3  0  0  0  0  0  0
  -18.1250  -30.5050   24.0140 C   0  0  0  0  0  3  0  0  0  0  0  0
  -17.0090  -29.7970   23.5320 C   0  0  0  0  0  3  0  0  0  0  0  0
  -17.1960  -28.5950   22.8260 C   0  0  0  0  0  3  0  0  0  0  0  0
  -26.4020  -32.3100   23.9410 C   0  0  0  0  0  3  0  0  0  0  0  0
  -26.0740  -33.6840   24.3790 N   0  0  0  0  0  0  0  0  0  0  0  0
  -26.3920  -34.8060   23.7170 C   0  0  0  0  0  0  0  0  0  0  0  0
  -27.0490  -34.7940   22.6740 O   0  0  0  0  0  0  0  0  0  0  0  0
  -25.4900  -33.7660   25.1980 H   0  0  0  0  0  0  0  0  0  0  0  0
  -24.6360  -36.6090   23.5790 C   0  0  0  0  0  1  0  0  0  0  0  0
  -25.9120  -36.1510   24.3040 C   0  0  0  0  0  3  0  0  0  0  0  0
  -28.0610  -37.0100   25.1270 C   0  0  0  0  0  1  0  0  0  0  0  0
  -26.9280  -37.2260   24.2320 N   0  0  0  0  0  0  0  0  0  0  0  0
  -26.5150  -38.1270   24.4560 H   0  0  0  0  0  0  0  0  0  0  0  0
  -26.8650  -31.4570   25.1860 C   0  0  1  0  0  0  0  0  0  0  0  0
  -25.7350  -31.1660   26.2000 C   0  0  0  0  0  1  0  0  0  0  0  0
  -27.4500  -30.0990   24.7410 C   0  0  0  0  0  1  0  0  0  0  0  0
  -28.0020  -32.1950   25.9330 C   0  0  0  0  0  1  0  0  0  0  0  0
  1  5  1  0
  2  1  1  0
  4  3  1  0
  5 11  1  0
  5  8  1  0
  6  8  1  0
  6  3  1  0
  7  2  1  0
  7  9  1  0
  7  6  1  0
  8 10  1  0
  9  4  2  0
 11 17  1  0
 12 17  1  0
 13 14  1  0
 13 12  1  0
 15 14  1  0
 15 22  1  0
 15 16  1  0
 17 16  1  0
 18 11  2  0
 19 20  2  0
 20 39  1  0
 21 20  1  0
 21 24  1  0
 22 23  1  0
 22 19  1  0
 23 21  2  0
 24 25  1  0
 25 26  2  0
 27 30  1  0
 27 26  1  0
 28 27  2  0
 29 28  1  0
 29 24  2  0
 30 31  1  0
 31 36  2  0
 31 32  1  0
 32 33  2  0
 33 34  1  0
 34 38  1  0
 35 34  2  0
 36 35  1  0
 37 36  1  0
 39 40  1  0
 40 43  1  0
 40 42  1  0
 41 39  2  0
 44 19  1  0
 44 45  1  0
 46 44  1  0
 47 49  1  0
 47  9  1  0
 48 59  2  0
 49 54  1  0
 50 58  1  0
 50 60  1  0
 51 57  1  0
 51 53  1  0
 52 58  1  0
 53 52  1  0
 54 53  2  0
 55 56  1  0
 55 49  2  0
 56 51  2  0
 57 50  1  0
 58 48  1  0
 60 62  2  0
 61 60  1  0
 63 61  1  0
 64 73  2  0
 64 69  1  0
 65 61  1  0
 65 69  1  0
 66 65  1  0
 67 68  1  0
 67 66  1  0
 68 64  1  0
 69 70  2  0
 70 71  1  0
 72 71  2  0
 73 72  1  0
 74 48  1  0
 74 75  1  0
 74 84  1  0
 75 78  1  0
 76 80  1  0
 76 75  1  0
 77 76  2  0
 80 79  1  0
 82 80  1  0
 82 83  1  0
 82 81  1  0
 84 87  1  1
 84 85  1  0
 86 84  1  0
M  ISO  4   5 100   9 101  11 100  47 101
M  END
>  <TORSDO>  (30) 
F 16

>  <SCORE>  (30) 
-12.312

>  <name>  (30) 
29

>  <ligand_id>  (30) 
29

>  <original_smiles>  (30) 
[H]c1c([H])c([H])c2c(c1[H])C([H])([H])C([H])([H])C([H])([H])C2([H])N([H])C(=O)C1([H])N(C(=O)C([H])(N([H])C(=O)C([H])(N([H])C([H])([H])[H])C([H])([H])[H])C(C([H])([H])[H])(C([H])([H])[H])C([H])([H])[H])C([H])([H])c2c([H])c(OC3([H])C([H])([H])C([H])([H])C4([H])C3([H])C([H])([H])C([H])([H])C([H])(C(=O)N3C([H])([H])C([H])([H])C([H])([H])C([H])(n5nc(-c6c([H])c([H])c(Oc7c([H])c([H])c(F)c([H])c7F)c([H])c6[H])c(C(=O)N([H])[H])c5N([H])[H])C3([H])[H])C4([H])C([H])([H])[H])c([H])c([H])c2C1([H])[H]

>  <smiles>  (30) 
[H]c1c([H])c([H])c2c(c1[H])C([H])([H])C([H])([H])C([H])([H])C2([H])N([H])C(=O)C1([H])N(C(=O)C([H])(N([H])C(=O)C([H])(N([H])C([H])([H])[H])C([H])([H])[H])C(C([H])([H])[H])(C([H])([H])[H])C([H])([H])[H])C([H])([H])c2c([H])c(OC3([H])C([H])([H])C([H])([H])C4([H])C3([H])C([H])([H])C([H])([H])C([H])(C(=O)N3C([H])([H])C([H])([H])C([H])([H])C([H])(n5nc(-c6c([H])c([H])c(Oc7c([H])c([H])c(F)c([H])c7F)c([H])c6[H])c(C(=O)N([H])[H])c5N([H])[H])C3([H])[H])C4([H])C([H])([H])[H])c([H])c([H])c2C1([H])[H]

$$$$
30:0:0
     RDKit          3D

 88 96  0  0  1  0  0  0  0  0999 V2000
  -28.6600  -22.0060   20.2620 N   0  0  0  0  0  4  0  0  0  0  0  0
  -28.3720  -21.8860   19.3040 H   0  0  0  0  0  0  0  0  0  0  0  0
  -27.8340  -21.8420   20.8180 H   0  0  0  0  0  0  0  0  0  0  0  0
  -30.2270  -20.9960   21.9850 C   0  0  0  0  0  1  0  0  0  0  0  0
  -29.6560  -20.8250   20.5680 C   0  0  0  0  0  3  0  0  0  0  0  0
  -29.5760  -18.4790   19.1490 C   0  0  0  0  0  2  0  0  0  0  0  0
  -30.1060  -17.8500   20.4200 C   0  0  0  0  0  3  0  0  0  0  0  0
  -29.2130  -19.2430   20.4050 C   0  0  0  0  0  3  0  0  0  0  0  0
  -29.7100  -16.2900   20.7810 C   0  0  0  0  0  2  0  0  0  0  0  0
  -30.5430  -14.9320   20.3740 C   0  0  0  0  0  0  0  0  0  0  0  0
  -30.4170  -12.6120   19.3690 C   0  0  0  0  0  2  0  0  0  0  0  0
  -29.4740  -12.6420   18.1420 C   0  0  0  0  0  2  0  0  0  0  0  0
  -28.0060  -12.4430   18.5700 C   0  0  0  0  0  2  0  0  0  0  0  0
  -27.6210  -13.3380   19.7760 C   0  0  0  0  0  3  0  0  0  0  0  0
  -28.6790  -13.2810   20.8990 C   0  0  0  0  0  2  0  0  0  0  0  0
  -29.9690  -13.6690   20.3150 N   0  0  0  0  0  0  0  0  0  0  0  0
  -31.7190  -15.0390   20.0050 O   0  0  0  0  0  0  0  0  0  0  0  0
  -25.2380  -13.9270   20.5160 C   0  0  0  0  0  0  0  0  0  0  0  0
  -24.1710  -13.1540   20.8830 C   0  0  0  0  0  0  0  0  0  0  0  0
  -24.6330  -11.8020   20.8490 C   0  0  0  0  0  0  0  0  0  0  0  0
  -26.2790  -13.0470   20.2720 N   0  0  0  0  0  0  0  0  0  0  0  0
  -25.9240  -11.7630   20.5380 N   0  0  0  0  0  0  0  0  0  0  0  0
  -23.9040  -10.5410   21.0370 C   0  0  0  0  0  0  0  0  0  0  0  0
  -24.3290   -9.5740   21.9740 C   0  0  0  0  0  3  0  0  0  0  0  0
  -23.6000   -8.3780   22.1490 C   0  0  0  0  0  3  0  0  0  0  0  0
  -22.4320   -8.1400   21.3870 C   0  0  0  0  0  0  0  0  0  0  0  0
  -22.0250   -9.0960   20.4400 C   0  0  0  0  0  3  0  0  0  0  0  0
  -22.7550  -10.2840   20.2630 C   0  0  0  0  0  3  0  0  0  0  0  0
  -21.6750   -6.9970   21.4720 O   0  0  0  0  0  0  0  0  0  0  0  0
  -21.6050   -6.2640   22.6290 C   0  0  0  0  0  0  0  0  0  0  0  0
  -21.1430   -6.8230   23.8400 C   0  0  0  0  0  3  0  0  0  0  0  0
  -21.0220   -6.0150   24.9880 C   0  0  0  0  0  3  0  0  0  0  0  0
  -21.3550   -4.6490   24.9260 C   0  0  0  0  0  0  0  0  0  0  0  0
  -21.8110   -4.0890   23.7200 C   0  0  0  0  0  3  0  0  0  0  0  0
  -21.9330   -4.8940   22.5740 C   0  0  0  0  0  0  0  0  0  0  0  0
  -22.3530   -4.3440   21.4100 F   0  0  0  0  0  0  0  0  0  0  0  0
  -21.2320   -3.8700   26.0270 F   0  0  0  0  0  0  0  0  0  0  0  0
  -22.7760  -13.6320   21.1560 C   0  0  0  0  0  0  0  0  0  0  0  0
  -22.0460  -12.9340   22.0190 N   0  0  0  0  0  0  0  0  0  0  0  0
  -22.3410  -14.6620   20.6400 O   0  0  0  0  0  0  0  0  0  0  0  0
  -22.4110  -12.1030   22.4590 H   0  0  0  0  0  0  0  0  0  0  0  0
  -21.1090  -13.2380   22.2450 H   0  0  0  0  0  0  0  0  0  0  0  0
  -25.4040  -15.2980   20.3430 N   0  0  0  0  0  0  0  0  0  0  0  0
  -24.6360  -15.9520   20.4590 H   0  0  0  0  0  0  0  0  0  0  0  0
  -26.2560  -15.7410   20.0240 H   0  0  0  0  0  0  0  0  0  0  0  0
  -29.0460  -23.5280   20.4420 C   0  0  0  0  0  3  0  0  0  0  0  0
  -27.9920  -24.7640   20.0790 C   0  0  0  0  0  3  0  0  0  0  0  0
  -28.2520  -26.2760   20.2560 O   0  0  0  0  0  0  0  0  0  0  0  0
  -24.6030  -31.8990   23.2230 C   0  0  0  0  0  0  0  0  0  0  0  0
  -27.1810  -27.2260   20.1830 C   0  0  0  0  0  0  0  0  0  0  0  0
  -23.3960  -30.5030   21.5870 C   0  0  0  0  0  3  0  0  0  0  0  0
  -24.8430  -28.9380   20.1570 C   0  0  0  0  0  0  0  0  0  0  0  0
  -25.9470  -30.7830   21.4120 C   0  0  0  0  0  2  0  0  0  0  0  0
  -26.0210  -29.3950   20.7600 C   0  0  0  0  0  0  0  0  0  0  0  0
  -27.1920  -28.5550   20.7570 C   0  0  0  0  0  3  0  0  0  0  0  0
  -25.9750  -26.8600   19.5410 C   0  0  0  0  0  3  0  0  0  0  0  0
  -24.8300  -27.6820   19.5340 C   0  0  0  0  0  3  0  0  0  0  0  0
  -23.6130  -29.8280   20.2070 C   0  0  0  0  0  2  0  0  0  0  0  0
  -24.6680  -31.0820   22.1290 N   0  0  0  0  0  0  0  0  0  0  0  0
  -23.5190  -32.1830   23.7550 O   0  0  0  0  0  0  0  0  0  0  0  0
  -22.7250  -29.4920   22.5510 C   0  0  0  0  0  0  0  0  0  0  0  0
  -21.3980  -29.3190   22.4260 N   0  0  0  0  0  0  0  0  0  0  0  0
  -23.4000  -28.8670   23.3720 O   0  0  0  0  0  0  0  0  0  0  0  0
  -20.9110  -29.8760   21.7380 H   0  0  0  0  0  0  0  0  0  0  0  0
  -18.0160  -28.1300   22.9420 C   0  0  0  0  0  0  0  0  0  0  0  0
  -20.5770  -28.3830   23.2000 C   0  0  0  0  0  3  0  0  0  0  0  0
  -20.6720  -26.9510   22.6230 C   0  0  0  0  0  2  0  0  0  0  0  0
  -19.5650  -26.6330   21.6130 C   0  0  0  0  0  2  0  0  0  0  0  0
  -18.1860  -26.7800   22.2640 C   0  0  0  0  0  2  0  0  0  0  0  0
  -19.1390  -28.8880   23.3680 C   0  0  0  0  0  0  0  0  0  0  0  0
  -18.9250  -30.1500   23.9630 C   0  0  0  0  0  3  0  0  0  0  0  0
  -17.6230  -30.6520   24.1410 C   0  0  0  0  0  3  0  0  0  0  0  0
  -16.5150  -29.8900   23.7320 C   0  0  0  0  0  3  0  0  0  0  0  0
  -16.7130  -28.6310   23.1370 C   0  0  0  0  0  3  0  0  0  0  0  0
  -25.8840  -32.5330   23.8450 C   0  0  0  0  0  3  0  0  0  0  0  0
  -25.5750  -33.9330   24.1750 N   0  0  0  0  0  0  0  0  0  0  0  0
  -25.9010  -34.9870   23.4150 C   0  0  0  0  0  0  0  0  0  0  0  0
  -26.5630  -34.8830   22.3790 O   0  0  0  0  0  0  0  0  0  0  0  0
  -24.9870  -34.0860   24.9800 H   0  0  0  0  0  0  0  0  0  0  0  0
  -24.1760  -36.7870   23.0740 C   0  0  0  0  0  1  0  0  0  0  0  0
  -25.4190  -36.3760   23.8790 C   0  0  0  0  0  3  0  0  0  0  0  0
  -27.5540  -37.2590   24.7070 C   0  0  0  0  0  1  0  0  0  0  0  0
  -26.4520  -37.4270   23.7640 N   0  0  0  0  0  0  0  0  0  0  0  0
  -26.0480  -38.3480   23.9120 H   0  0  0  0  0  0  0  0  0  0  0  0
  -26.3970  -31.7670   25.1260 C   0  0  1  0  0  0  0  0  0  0  0  0
  -25.3020  -31.5340   26.1930 C   0  0  0  0  0  1  0  0  0  0  0  0
  -26.9840  -30.3880   24.7450 C   0  0  0  0  0  1  0  0  0  0  0  0
  -27.5460  -32.5660   25.7880 C   0  0  0  0  0  1  0  0  0  0  0  0
  1 46  1  0
  1  5  1  0
  1  3  1  0
  2  1  1  0
  5  4  1  0
  6  8  1  0
  6  7  1  0
  7  9  1  0
  8  7  1  0
  8  5  1  0
 10  9  1  0
 11 16  1  0
 12 13  1  0
 12 11  1  0
 14 13  1  0
 14 21  1  0
 14 15  1  0
 16 10  1  0
 16 15  1  0
 17 10  2  0
 18 19  2  0
 19 38  1  0
 20 19  1  0
 20 23  1  0
 21 18  1  0
 21 22  1  0
 22 20  2  0
 23 24  1  0
 24 25  2  0
 26 29  1  0
 26 25  1  0
 27 26  2  0
 28 27  1  0
 28 23  2  0
 29 30  1  0
 30 31  1  0
 31 32  2  0
 33 32  1  0
 33 37  1  0
 34 33  2  0
 35 30  2  0
 35 34  1  0
 36 35  1  0
 38 39  1  0
 39 42  1  0
 39 41  1  0
 40 38  2  0
 43 44  1  0
 43 18  1  0
 45 43  1  0
 47 48  1  0
 47 46  2  0
 49 60  2  0
 50 48  1  0
 50 55  1  0
 51 59  1  0
 51 61  1  0
 52 58  1  0
 52 54  1  0
 53 59  1  0
 54 53  1  0
 55 54  2  0
 56 50  2  0
 57 56  1  0
 57 52  2  0
 58 51  1  0
 59 49  1  0
 61 63  2  0
 62 61  1  0
 64 62  1  0
 65 74  2  0
 65 70  1  0
 66 62  1  0
 66 70  1  0
 67 66  1  0
 68 69  1  0
 68 67  1  0
 69 65  1  0
 70 71  2  0
 71 72  1  0
 73 72  2  0
 74 73  1  0
 75 49  1  0
 75 76  1  0
 75 85  1  0
 76 79  1  0
 77 81  1  0
 77 76  1  0
 78 77  2  0
 81 80  1  0
 83 81  1  0
 83 84  1  0
 83 82  1  0
 85 88  1  1
 85 86  1  0
 87 85  1  0
M  ISO  4   9 100  10 100  47 101  48 101
M  END
>  <TORSDO>  (31) 
F 21

>  <SCORE>  (31) 
-13.400

>  <name>  (31) 
30

>  <ligand_id>  (31) 
30

>  <original_smiles>  (31) 
[H]c1c([H])c([H])c2c(c1[H])C([H])([H])C([H])([H])C([H])([H])C2([H])N([H])C(=O)C1([H])N(C(=O)C([H])(N([H])C(=O)C([H])(N([H])C([H])([H])[H])C([H])([H])[H])C(C([H])([H])[H])(C([H])([H])[H])C([H])([H])[H])C([H])([H])c2c([H])c(OC([H])([H])C([H])([H])[N+]([H])([H])C([H])(C([H])([H])[H])C3([H])C([H])([H])C3([H])C([H])([H])C(=O)N3C([H])([H])C([H])([H])C([H])([H])C([H])(n4nc(-c5c([H])c([H])c(Oc6c([H])c([H])c(F)c([H])c6F)c([H])c5[H])c(C(=O)N([H])[H])c4N([H])[H])C3([H])[H])c([H])c([H])c2C1([H])[H]

>  <smiles>  (31) 
[H]c1c([H])c([H])c2c(c1[H])C([H])([H])C([H])([H])C([H])([H])C2([H])N([H])C(=O)C1([H])N(C(=O)C([H])(N([H])C(=O)C([H])(N([H])C([H])([H])[H])C([H])([H])[H])C(C([H])([H])[H])(C([H])([H])[H])C([H])([H])[H])C([H])([H])c2c([H])c(OC([H])([H])C([H])([H])[N+]([H])([H])C([H])(C([H])([H])[H])C3([H])C([H])([H])C3([H])C([H])([H])C(=O)N3C([H])([H])C([H])([H])C([H])([H])C([H])(n4nc(-c5c([H])c([H])c(Oc6c([H])c([H])c(F)c([H])c6F)c([H])c5[H])c(C(=O)N([H])[H])c4N([H])[H])C3([H])[H])c([H])c([H])c2C1([H])[H]

$$$$
31:0:0
     RDKit          3D

 91100  0  0  1  0  0  0  0  0999 V2000
  -29.6590  -19.2370   17.5100 C   0  0  0  0  0  2  0  0  0  0  0  0
  -30.1690  -18.2140   18.5330 C   0  0  0  0  0  2  0  0  0  0  0  0
  -29.9500  -20.7100   17.8740 C   0  0  0  0  0  2  0  0  0  0  0  0
  -28.2350  -21.2360   20.3560 C   0  0  0  0  0  2  0  0  0  0  0  0
  -29.4610  -18.3270   19.8940 C   0  0  0  0  0  3  0  0  0  0  0  0
  -30.2710  -21.0100   19.3620 C   0  0  0  0  0  3  0  0  0  0  0  0
  -28.7870  -22.8400   20.3450 C   0  0  0  0  0  3  0  0  0  0  0  0
  -29.4560  -20.0630   20.3480 C   0  0  1  0  0  0  0  0  0  0  0  0
  -30.1020  -20.0770   21.7400 C   0  0  0  0  0  1  0  0  0  0  0  0
  -30.0460  -22.5130   19.6060 N   0  0  0  0  0  4  0  0  0  0  0  0
  -30.0560  -22.9900   18.7190 H   0  0  0  0  0  0  0  0  0  0  0  0
  -30.8190  -22.8770   20.1400 H   0  0  0  0  0  0  0  0  0  0  0  0
  -29.8780  -16.8440   20.7860 C   0  0  0  0  0  2  0  0  0  0  0  0
  -30.6090  -15.3150   20.3790 C   0  0  0  0  0  0  0  0  0  0  0  0
  -30.6040  -12.8820   19.5210 C   0  0  0  0  0  2  0  0  0  0  0  0
  -29.7130  -12.7420   18.2590 C   0  0  0  0  0  2  0  0  0  0  0  0
  -28.2520  -12.4800   18.6510 C   0  0  0  0  0  2  0  0  0  0  0  0
  -27.7900  -13.4220   19.7910 C   0  0  0  0  0  3  0  0  0  0  0  0
  -28.8060  -13.5270   20.9480 C   0  0  0  0  0  2  0  0  0  0  0  0
  -30.0680  -14.0040   20.3680 N   0  0  0  0  0  0  0  0  0  0  0  0
  -31.8050  -15.3240   20.0560 O   0  0  0  0  0  0  0  0  0  0  0  0
  -25.3980  -13.9870   20.4620 C   0  0  0  0  0  0  0  0  0  0  0  0
  -24.3290  -13.2120   20.8100 C   0  0  0  0  0  0  0  0  0  0  0  0
  -24.8010  -11.8610   20.8140 C   0  0  0  0  0  0  0  0  0  0  0  0
  -26.4490  -13.1120   20.2620 N   0  0  0  0  0  0  0  0  0  0  0  0
  -26.1000  -11.8290   20.5410 N   0  0  0  0  0  0  0  0  0  0  0  0
  -24.0720  -10.6020   20.9980 C   0  0  0  0  0  0  0  0  0  0  0  0
  -24.4810   -9.6460   21.9570 C   0  0  0  0  0  3  0  0  0  0  0  0
  -23.7510   -8.4500   22.1350 C   0  0  0  0  0  3  0  0  0  0  0  0
  -22.6000   -8.2000   21.3500 C   0  0  0  0  0  0  0  0  0  0  0  0
  -22.2120   -9.1410   20.3820 C   0  0  0  0  0  3  0  0  0  0  0  0
  -22.9400  -10.3300   20.2030 C   0  0  0  0  0  3  0  0  0  0  0  0
  -21.8440   -7.0540   21.4320 O   0  0  0  0  0  0  0  0  0  0  0  0
  -21.7640   -6.3280   22.5920 C   0  0  0  0  0  0  0  0  0  0  0  0
  -21.2990   -6.8980   23.7970 C   0  0  0  0  0  3  0  0  0  0  0  0
  -21.1680   -6.1000   24.9500 C   0  0  0  0  0  3  0  0  0  0  0  0
  -21.4850   -4.7300   24.9010 C   0  0  0  0  0  0  0  0  0  0  0  0
  -21.9420   -4.1570   23.7000 C   0  0  0  0  0  3  0  0  0  0  0  0
  -22.0790   -4.9530   22.5490 C   0  0  0  0  0  0  0  0  0  0  0  0
  -22.4990   -4.3920   21.3890 F   0  0  0  0  0  0  0  0  0  0  0  0
  -21.3530   -3.9610   26.0070 F   0  0  0  0  0  0  0  0  0  0  0  0
  -22.9210  -13.6870   21.0270 C   0  0  0  0  0  0  0  0  0  0  0  0
  -22.1750  -12.9990   21.8830 N   0  0  0  0  0  0  0  0  0  0  0  0
  -22.4940  -14.7000   20.4770 O   0  0  0  0  0  0  0  0  0  0  0  0
  -22.5420  -12.1800   22.3430 H   0  0  0  0  0  0  0  0  0  0  0  0
  -21.2290  -13.2910   22.0780 H   0  0  0  0  0  0  0  0  0  0  0  0
  -25.5670  -15.3570   20.2700 N   0  0  0  0  0  0  0  0  0  0  0  0
  -24.8030  -16.0220   20.3460 H   0  0  0  0  0  0  0  0  0  0  0  0
  -26.4340  -15.7870   19.9680 H   0  0  0  0  0  0  0  0  0  0  0  0
  -27.9610  -24.3800   19.9700 C   0  0  0  0  0  2  0  0  0  0  0  0
  -28.2610  -25.9730   20.1800 O   0  0  0  0  0  0  0  0  0  0  0  0
  -24.7190  -31.8810   23.1880 C   0  0  0  0  0  0  0  0  0  0  0  0
  -27.2590  -27.0600   20.1170 C   0  0  0  0  0  0  0  0  0  0  0  0
  -23.5160  -30.4830   21.5600 C   0  0  0  0  0  3  0  0  0  0  0  0
  -24.9560  -28.9050   20.1090 C   0  0  0  0  0  0  0  0  0  0  0  0
  -26.0780  -30.7220   21.3860 C   0  0  0  0  0  2  0  0  0  0  0  0
  -26.1480  -29.3200   20.7170 C   0  0  0  0  0  0  0  0  0  0  0  0
  -27.2980  -28.4170   20.6960 C   0  0  0  0  0  3  0  0  0  0  0  0
  -26.0400  -26.7930   19.4570 C   0  0  0  0  0  3  0  0  0  0  0  0
  -24.9230  -27.6620   19.4600 C   0  0  0  0  0  3  0  0  0  0  0  0
  -23.7320  -29.8160   20.1790 C   0  0  0  0  0  2  0  0  0  0  0  0
  -24.7930  -31.0530   22.0980 N   0  0  0  0  0  0  0  0  0  0  0  0
  -23.6330  -32.1630   23.7210 O   0  0  0  0  0  0  0  0  0  0  0  0
  -22.8460  -29.4740   22.5260 C   0  0  0  0  0  0  0  0  0  0  0  0
  -21.5170  -29.2930   22.4080 N   0  0  0  0  0  0  0  0  0  0  0  0
  -23.5240  -28.8510   23.3480 O   0  0  0  0  0  0  0  0  0  0  0  0
  -21.0240  -29.8410   21.7160 H   0  0  0  0  0  0  0  0  0  0  0  0
  -18.1510  -28.0490   22.9350 C   0  0  0  0  0  0  0  0  0  0  0  0
  -20.7100  -28.3490   23.1850 C   0  0  0  0  0  3  0  0  0  0  0  0
  -20.8260  -26.9180   22.6110 C   0  0  0  0  0  2  0  0  0  0  0  0
  -19.7250  -26.5790   21.6040 C   0  0  0  0  0  2  0  0  0  0  0  0
  -18.3430  -26.7040   22.2550 C   0  0  0  0  0  2  0  0  0  0  0  0
  -19.2620  -28.8280   23.3570 C   0  0  0  0  0  0  0  0  0  0  0  0
  -19.0270  -30.0860   23.9550 C   0  0  0  0  0  3  0  0  0  0  0  0
  -17.7170  -30.5660   24.1340 C   0  0  0  0  0  3  0  0  0  0  0  0
  -16.6210  -29.7850   23.7260 C   0  0  0  0  0  3  0  0  0  0  0  0
  -16.8390  -28.5290   23.1340 C   0  0  0  0  0  3  0  0  0  0  0  0
  -25.9930  -32.5320   23.8070 C   0  0  0  0  0  3  0  0  0  0  0  0
  -25.6660  -33.9260   24.1530 N   0  0  0  0  0  0  0  0  0  0  0  0
  -25.9760  -34.9940   23.4070 C   0  0  0  0  0  0  0  0  0  0  0  0
  -26.6320  -34.9110   22.3660 O   0  0  0  0  0  0  0  0  0  0  0  0
  -25.0800  -34.0650   24.9630 H   0  0  0  0  0  0  0  0  0  0  0  0
  -24.2250  -36.7780   23.1040 C   0  0  0  0  0  1  0  0  0  0  0  0
  -25.4840  -36.3740   23.8890 C   0  0  0  0  0  3  0  0  0  0  0  0
  -27.6210  -37.2720   24.7010 C   0  0  0  0  0  1  0  0  0  0  0  0
  -26.5040  -37.4390   23.7740 N   0  0  0  0  0  0  0  0  0  0  0  0
  -26.0920  -38.3540   23.9380 H   0  0  0  0  0  0  0  0  0  0  0  0
  -26.5200  -31.7630   25.0820 C   0  0  1  0  0  0  0  0  0  0  0  0
  -25.4320  -31.5160   26.1550 C   0  0  0  0  0  1  0  0  0  0  0  0
  -27.1100  -30.3900   24.6940 C   0  0  0  0  0  1  0  0  0  0  0  0
  -27.6670  -32.5650   25.7380 C   0  0  0  0  0  1  0  0  0  0  0  0
  1  3  1  0
  1  2  1  0
  2  5  1  0
  5  8  1  0
  5 13  1  0
  6  3  1  0
  6 10  1  0
  6  8  1  0
  7 50  1  0
  7  4  1  0
  8  4  1  0
  8  9  1  1
 10 12  1  0
 10  7  1  0
 11 10  1  0
 14 13  1  0
 15 20  1  0
 16 17  1  0
 16 15  1  0
 18 17  1  0
 18 25  1  0
 18 19  1  0
 20 14  1  0
 20 19  1  0
 21 14  2  0
 22 23  2  0
 23 24  1  0
 23 42  1  0
 24 27  1  0
 25 22  1  0
 25 26  1  0
 26 24  2  0
 27 28  1  0
 28 29  2  0
 30 33  1  0
 30 29  1  0
 31 30  2  0
 32 31  1  0
 32 27  2  0
 33 34  1  0
 34 35  1  0
 35 36  2  0
 37 36  1  0
 37 41  1  0
 38 37  2  0
 39 34  2  0
 39 38  1  0
 40 39  1  0
 42 43  1  0
 43 46  1  0
 43 45  1  0
 44 42  2  0
 47 48  1  0
 47 22  1  0
 49 47  1  0
 50 51  1  0
 52 63  2  0
 53 51  1  0
 53 58  1  0
 54 62  1  0
 54 64  1  0
 55 61  1  0
 55 57  1  0
 56 62  1  0
 57 56  1  0
 58 57  2  0
 59 60  1  0
 59 53  2  0
 60 55  2  0
 61 54  1  0
 62 52  1  0
 64 66  2  0
 65 64  1  0
 67 65  1  0
 68 77  2  0
 68 73  1  0
 69 65  1  0
 69 73  1  0
 70 69  1  0
 71 72  1  0
 71 70  1  0
 72 68  1  0
 73 74  2  0
 74 75  1  0
 76 75  2  0
 77 76  1  0
 78 52  1  0
 78 79  1  0
 78 88  1  0
 79 82  1  0
 80 84  1  0
 80 79  1  0
 81 80  2  0
 84 83  1  0
 86 84  1  0
 86 87  1  0
 86 85  1  0
 88 91  1  1
 88 89  1  0
 90 88  1  0
M  ISO  4  13 100  14 100  50 101  51 101
M  END
>  <TORSDO>  (32) 
F 18

>  <SCORE>  (32) 
-16.112

>  <name>  (32) 
31

>  <ligand_id>  (32) 
31

>  <original_smiles>  (32) 
[H]c1c([H])c([H])c2c(c1[H])C([H])([H])C([H])([H])C([H])([H])C2([H])N([H])C(=O)C1([H])N(C(=O)C([H])(N([H])C(=O)C([H])(N([H])C([H])([H])[H])C([H])([H])[H])C(C([H])([H])[H])(C([H])([H])[H])C([H])([H])[H])C([H])([H])c2c([H])c(OC([H])([H])C3([H])C([H])([H])C4(C([H])([H])[H])C([H])(C([H])([H])C(=O)N5C([H])([H])C([H])([H])C([H])([H])C([H])(n6nc(-c7c([H])c([H])c(Oc8c([H])c([H])c(F)c([H])c8F)c([H])c7[H])c(C(=O)N([H])[H])c6N([H])[H])C5([H])[H])C([H])([H])C([H])([H])C([H])([H])C4([H])[N+]3([H])[H])c([H])c([H])c2C1([H])[H]

>  <smiles>  (32) 
[H]c1c([H])c([H])c2c(c1[H])C([H])([H])C([H])([H])C([H])([H])C2([H])N([H])C(=O)C1([H])N(C(=O)C([H])(N([H])C(=O)C([H])(N([H])C([H])([H])[H])C([H])([H])[H])C(C([H])([H])[H])(C([H])([H])[H])C([H])([H])[H])C([H])([H])c2c([H])c(OC([H])([H])C3([H])C([H])([H])C4(C([H])([H])[H])C([H])(C([H])([H])C(=O)N5C([H])([H])C([H])([H])C([H])([H])C([H])(n6nc(-c7c([H])c([H])c(Oc8c([H])c([H])c(F)c([H])c8F)c([H])c7[H])c(C(=O)N([H])[H])c6N([H])[H])C5([H])[H])C([H])([H])C([H])([H])C([H])([H])C4([H])[N+]3([H])[H])c([H])c([H])c2C1([H])[H]

$$$$
32:0:0
     RDKit          3D

 86 92  0  0  1  0  0  0  0  0999 V2000
  -30.6770  -20.2320   20.6610 C   0  0  0  0  0  3  0  0  0  0  0  0
  -30.4470  -21.7070   20.2430 C   0  0  0  0  0  3  0  0  0  0  0  0
  -29.2580  -19.7150   20.5340 C   0  0  0  0  0  1  0  0  0  0  0  0
  -28.9340  -21.6390   20.0330 C   0  0  0  0  0  1  0  0  0  0  0  0
  -31.4770  -20.8230   19.5300 C   0  0  1  0  0  0  0  0  0  0  0  0
  -32.9630  -21.0570   19.7570 C   0  0  0  0  0  1  0  0  0  0  0  0
  -31.2540  -20.3410   18.1060 C   0  0  0  0  0  1  0  0  0  0  0  0
  -29.3420  -17.7330   19.9860 C   0  0  0  0  0  1  0  0  0  0  0  0
  -30.1620  -15.9520   20.1360 C   0  0  0  0  0  0  0  0  0  0  0  0
  -30.3460  -13.3370   19.3570 C   0  0  0  0  0  2  0  0  0  0  0  0
  -29.4770  -12.8560   18.1520 C   0  0  0  0  0  2  0  0  0  0  0  0
  -28.0680  -12.4460   18.6000 C   0  0  0  0  0  2  0  0  0  0  0  0
  -27.5210  -13.4480   19.6380 C   0  0  0  0  0  3  0  0  0  0  0  0
  -28.5370  -13.8430   20.7390 C   0  0  0  0  0  2  0  0  0  0  0  0
  -29.6900  -14.5320   20.0920 N   0  0  0  0  0  0  0  0  0  0  0  0
  -31.4040  -15.8370   20.0320 O   0  0  0  0  0  0  0  0  0  0  0  0
  -25.1570  -13.9420   20.4050 C   0  0  0  0  0  0  0  0  0  0  0  0
  -24.1060  -13.1520   20.7720 C   0  0  0  0  0  0  0  0  0  0  0  0
  -24.5930  -11.8080   20.7540 C   0  0  0  0  0  0  0  0  0  0  0  0
  -26.2130  -13.0840   20.1640 N   0  0  0  0  0  0  0  0  0  0  0  0
  -25.8880  -11.7910   20.4420 N   0  0  0  0  0  0  0  0  0  0  0  0
  -23.8750  -10.5410   20.9580 C   0  0  0  0  0  0  0  0  0  0  0  0
  -24.3090   -9.5870   21.9060 C   0  0  0  0  0  3  0  0  0  0  0  0
  -23.5880   -8.3870   22.0980 C   0  0  0  0  0  3  0  0  0  0  0  0
  -22.4210   -8.1310   21.3400 C   0  0  0  0  0  0  0  0  0  0  0  0
  -22.0060   -9.0720   20.3820 C   0  0  0  0  0  3  0  0  0  0  0  0
  -22.7250  -10.2630   20.1890 C   0  0  0  0  0  3  0  0  0  0  0  0
  -21.6730   -6.9820   21.4380 O   0  0  0  0  0  0  0  0  0  0  0  0
  -21.6230   -6.2510   22.5990 C   0  0  0  0  0  0  0  0  0  0  0  0
  -21.1770   -6.8130   23.8140 C   0  0  0  0  0  3  0  0  0  0  0  0
  -21.0780   -6.0080   24.9680 C   0  0  0  0  0  3  0  0  0  0  0  0
  -21.4140   -4.6430   24.9070 C   0  0  0  0  0  0  0  0  0  0  0  0
  -21.8520   -4.0800   23.6940 C   0  0  0  0  0  3  0  0  0  0  0  0
  -21.9520   -4.8820   22.5440 C   0  0  0  0  0  0  0  0  0  0  0  0
  -22.3580   -4.3290   21.3760 F   0  0  0  0  0  0  0  0  0  0  0  0
  -21.3080   -3.8700   26.0120 F   0  0  0  0  0  0  0  0  0  0  0  0
  -22.7020  -13.6150   21.0250 C   0  0  0  0  0  0  0  0  0  0  0  0
  -21.9760  -12.9270   21.8980 N   0  0  0  0  0  0  0  0  0  0  0  0
  -22.2590  -14.6260   20.4840 O   0  0  0  0  0  0  0  0  0  0  0  0
  -22.3540  -12.1150   22.3660 H   0  0  0  0  0  0  0  0  0  0  0  0
  -21.0320  -13.2190   22.1060 H   0  0  0  0  0  0  0  0  0  0  0  0
  -25.3040  -15.3140   20.2160 N   0  0  0  0  0  0  0  0  0  0  0  0
  -24.5340  -15.9640   20.3280 H   0  0  0  0  0  0  0  0  0  0  0  0
  -26.1510  -15.7560   19.8850 H   0  0  0  0  0  0  0  0  0  0  0  0
  -28.1070  -23.4880   20.4430 C   0  0  0  0  0  1  0  0  0  0  0  0
  -28.1930  -25.3370   20.3190 O   0  0  0  0  0  0  0  0  0  0  0  0
  -24.6590  -31.8670   23.1900 C   0  0  0  0  0  0  0  0  0  0  0  0
  -27.2120  -26.6110   20.3050 C   0  0  0  0  0  0  0  0  0  0  0  0
  -23.4850  -30.4370   21.5760 C   0  0  0  0  0  3  0  0  0  0  0  0
  -24.9430  -28.7360   20.2070 C   0  0  0  0  0  0  0  0  0  0  0  0
  -26.0730  -30.5390   21.4740 C   0  0  0  0  0  2  0  0  0  0  0  0
  -26.1430  -29.0780   20.8410 C   0  0  0  0  0  0  0  0  0  0  0  0
  -27.2530  -28.0510   20.8470 C   0  0  0  0  0  3  0  0  0  0  0  0
  -25.9680  -26.5190   19.6150 C   0  0  0  0  0  3  0  0  0  0  0  0
  -24.9050  -27.4840   19.5670 C   0  0  0  0  0  3  0  0  0  0  0  0
  -23.7370  -29.7040   20.2250 C   0  0  0  0  0  2  0  0  0  0  0  0
  -24.7650  -30.9870   22.1310 N   0  0  0  0  0  0  0  0  0  0  0  0
  -23.5590  -32.1780   23.6850 O   0  0  0  0  0  0  0  0  0  0  0  0
  -22.7530  -29.4870   22.5650 C   0  0  0  0  0  0  0  0  0  0  0  0
  -21.4200  -29.3370   22.4410 N   0  0  0  0  0  0  0  0  0  0  0  0
  -23.3990  -28.8830   23.4220 O   0  0  0  0  0  0  0  0  0  0  0  0
  -20.9440  -29.8730   21.7290 H   0  0  0  0  0  0  0  0  0  0  0  0
  -18.0300  -28.1200   22.9640 C   0  0  0  0  0  0  0  0  0  0  0  0
  -20.5900  -28.4120   23.2260 C   0  0  0  0  0  3  0  0  0  0  0  0
  -20.6990  -26.9690   22.6800 C   0  0  0  0  0  2  0  0  0  0  0  0
  -19.6040  -26.6220   21.6670 C   0  0  0  0  0  2  0  0  0  0  0  0
  -18.2180  -26.7660   22.3010 C   0  0  0  0  0  2  0  0  0  0  0  0
  -19.1430  -28.9010   23.3820 C   0  0  0  0  0  0  0  0  0  0  0  0
  -18.9050  -30.1640   23.9650 C   0  0  0  0  0  3  0  0  0  0  0  0
  -17.5940  -30.6490   24.1300 C   0  0  0  0  0  3  0  0  0  0  0  0
  -16.4990  -29.8680   23.7230 C   0  0  0  0  0  3  0  0  0  0  0  0
  -16.7180  -28.6040   23.1470 C   0  0  0  0  0  3  0  0  0  0  0  0
  -25.9110  -32.5390   23.8310 C   0  0  0  0  0  3  0  0  0  0  0  0
  -25.5750  -33.9420   24.1530 N   0  0  0  0  0  0  0  0  0  0  0  0
  -25.8980  -35.0080   23.4080 C   0  0  0  0  0  0  0  0  0  0  0  0
  -26.5610  -34.9130   22.3740 O   0  0  0  0  0  0  0  0  0  0  0  0
  -24.9790  -34.0850   24.9560 H   0  0  0  0  0  0  0  0  0  0  0  0
  -24.1530  -36.8010   23.0950 C   0  0  0  0  0  1  0  0  0  0  0  0
  -25.4110  -36.3970   23.8800 C   0  0  0  0  0  3  0  0  0  0  0  0
  -27.5520  -37.3050   24.6730 C   0  0  0  0  0  1  0  0  0  0  0  0
  -26.4340  -37.4580   23.7480 N   0  0  0  0  0  0  0  0  0  0  0  0
  -26.0240  -38.3760   23.8960 H   0  0  0  0  0  0  0  0  0  0  0  0
  -26.4020  -31.8010   25.1400 C   0  0  1  0  0  0  0  0  0  0  0  0
  -25.2900  -31.5910   26.1960 C   0  0  0  0  0  1  0  0  0  0  0  0
  -26.9910  -30.4120   24.8090 C   0  0  0  0  0  1  0  0  0  0  0  0
  -27.5430  -32.6110   25.7990 C   0  0  0  0  0  1  0  0  0  0  0  0
  1  3  1  0
  2  4  1  0
  2  1  1  0
  5  6  1  1
  5  2  1  0
  5  1  1  0
  7  5  1  0
  8  9  1  0
 10 15  1  0
 11 12  1  0
 11 10  1  0
 13 12  1  0
 13 20  1  0
 13 14  1  0
 15  9  1  0
 15 14  1  0
 16  9  2  0
 17 18  2  0
 18 37  1  0
 19 18  1  0
 19 22  1  0
 20 17  1  0
 20 21  1  0
 21 19  2  0
 22 23  1  0
 23 24  2  0
 25 28  1  0
 25 24  1  0
 26 25  2  0
 27 26  1  0
 27 22  2  0
 28 29  1  0
 29 30  1  0
 30 31  2  0
 32 31  1  0
 32 36  1  0
 33 32  2  0
 34 29  2  0
 34 33  1  0
 35 34  1  0
 37 38  1  0
 38 41  1  0
 38 40  1  0
 39 37  2  0
 42 43  1  0
 42 17  1  0
 44 42  1  0
 46 45  1  0
 47 58  2  0
 48 46  1  0
 48 53  1  0
 49 57  1  0
 49 59  1  0
 50 56  1  0
 50 52  1  0
 51 57  1  0
 52 53  2  0
 52 51  1  0
 54 48  2  0
 55 54  1  0
 55 50  2  0
 56 49  1  0
 57 47  1  0
 59 61  2  0
 60 59  1  0
 62 60  1  0
 63 72  2  0
 63 68  1  0
 64 60  1  0
 64 68  1  0
 65 64  1  0
 66 67  1  0
 66 65  1  0
 67 63  1  0
 68 69  2  0
 69 70  1  0
 71 70  2  0
 72 71  1  0
 73 47  1  0
 73 74  1  0
 73 83  1  0
 74 77  1  0
 75 79  1  0
 75 74  1  0
 76 75  2  0
 79 78  1  0
 81 79  1  0
 81 82  1  0
 81 80  1  0
 83 86  1  1
 83 84  1  0
 85 83  1  0
M  ISO  4   8 100   9 100  45 101  46 101
M  END
>  <TORSDO>  (33) 
F 18

>  <SCORE>  (33) 
-16.389

>  <name>  (33) 
32

>  <ligand_id>  (33) 
32

>  <original_smiles>  (33) 
[H]c1c([H])c([H])c2c(c1[H])C([H])([H])C([H])([H])C([H])([H])C2([H])N([H])C(=O)C1([H])N(C(=O)C([H])(N([H])C(=O)C([H])(N([H])C([H])([H])[H])C([H])([H])[H])C(C([H])([H])[H])(C([H])([H])[H])C([H])([H])[H])C([H])([H])c2c([H])c(OC([H])([H])C3([H])C([H])(C([H])([H])C(=O)N4C([H])([H])C([H])([H])C([H])([H])C([H])(n5nc(-c6c([H])c([H])c(Oc7c([H])c([H])c(F)c([H])c7F)c([H])c6[H])c(C(=O)N([H])[H])c5N([H])[H])C4([H])[H])C4([H])C3([H])C4(C([H])([H])[H])C([H])([H])[H])c([H])c([H])c2C1([H])[H]

>  <smiles>  (33) 
[H]c1c([H])c([H])c2c(c1[H])C([H])([H])C([H])([H])C([H])([H])C2([H])N([H])C(=O)C1([H])N(C(=O)C([H])(N([H])C(=O)C([H])(N([H])C([H])([H])[H])C([H])([H])[H])C(C([H])([H])[H])(C([H])([H])[H])C([H])([H])[H])C([H])([H])c2c([H])c(OC([H])([H])C3([H])C([H])(C([H])([H])C(=O)N4C([H])([H])C([H])([H])C([H])([H])C([H])(n5nc(-c6c([H])c([H])c(Oc7c([H])c([H])c(F)c([H])c7F)c([H])c6[H])c(C(=O)N([H])[H])c5N([H])[H])C4([H])[H])C4([H])C3([H])C4(C([H])([H])[H])C([H])([H])[H])c([H])c([H])c2C1([H])[H]

$$$$
33:0:0
     RDKit          3D

 98109  0  0  1  0  0  0  0  0999 V2000
  -29.1140  -18.9890   20.7180 C   0  0  0  0  0  2  0  0  0  0  0  0
  -28.4410  -20.0820   18.6740 C   0  0  0  0  0  3  0  0  0  0  0  0
  -29.4330  -17.7030   20.0350 C   0  0  0  0  0  3  0  0  0  0  0  0
  -29.5430  -17.8730   18.6420 C   0  0  0  0  0  3  0  0  0  0  0  0
  -28.7060  -20.2520   20.0460 C   0  0  0  0  0  0  0  0  0  0  0  0
  -28.7610  -18.8780   18.0040 C   0  0  0  0  0  3  0  0  0  0  0  0
  -33.4200  -19.2220   19.6040 C   0  0  0  0  0  2  0  0  0  0  0  0
  -34.0360  -18.7360   18.2530 C   0  0  0  0  0  2  0  0  0  0  0  0
  -32.6480  -18.2170   20.5080 C   0  0  0  0  0  2  0  0  0  0  0  0
  -33.3980  -17.5760   17.4270 C   0  0  0  0  0  2  0  0  0  0  0  0
  -30.4990  -16.6060   20.5870 C   0  0  0  0  0  3  0  0  0  0  0  0
  -31.0660  -17.9510   18.4830 C   0  0  0  0  0  3  0  0  0  0  0  0
  -31.6680  -17.2880   19.7570 C   0  0  0  0  0  3  0  0  0  0  0  0
  -31.8440  -17.5280   17.1970 C   0  0  0  0  0  3  0  0  0  0  0  0
  -28.2130  -18.6850   16.6050 C   0  0  0  0  0  1  0  0  0  0  0  0
  -30.7150  -14.9210   20.3920 C   0  0  0  0  0  0  0  0  0  0  0  0
  -30.3740  -12.5750   19.5080 C   0  0  0  0  0  2  0  0  0  0  0  0
  -29.4890  -12.5210   18.2520 C   0  0  0  0  0  2  0  0  0  0  0  0
  -28.0280  -12.3190   18.6720 C   0  0  0  0  0  2  0  0  0  0  0  0
  -27.6080  -13.2780   19.8170 C   0  0  0  0  0  3  0  0  0  0  0  0
  -28.6530  -13.4100   20.9470 C   0  0  0  0  0  2  0  0  0  0  0  0
  -29.9350  -13.7590   20.3250 N   0  0  0  0  0  0  0  0  0  0  0  0
  -31.9020  -14.6220   20.2500 O   0  0  0  0  0  0  0  0  0  0  0  0
  -25.2380  -13.8290   20.5770 C   0  0  0  0  0  0  0  0  0  0  0  0
  -24.1740  -13.0470   20.9270 C   0  0  0  0  0  0  0  0  0  0  0  0
  -24.6380  -11.6960   20.8770 C   0  0  0  0  0  0  0  0  0  0  0  0
  -26.2800  -12.9570   20.3260 N   0  0  0  0  0  0  0  0  0  0  0  0
  -25.9320  -11.6660   20.5760 N   0  0  0  0  0  0  0  0  0  0  0  0
  -23.9070  -10.4320   21.0420 C   0  0  0  0  0  0  0  0  0  0  0  0
  -24.3630   -9.4220   21.9180 C   0  0  0  0  0  3  0  0  0  0  0  0
  -23.6310   -8.2250   22.0750 C   0  0  0  0  0  3  0  0  0  0  0  0
  -22.4280   -8.0280   21.3550 C   0  0  0  0  0  0  0  0  0  0  0  0
  -21.9930   -9.0250   20.4640 C   0  0  0  0  0  3  0  0  0  0  0  0
  -22.7250  -10.2130   20.3050 C   0  0  0  0  0  3  0  0  0  0  0  0
  -21.6650   -6.8880   21.4240 O   0  0  0  0  0  0  0  0  0  0  0  0
  -21.6860   -6.0730   22.5280 C   0  0  0  0  0  0  0  0  0  0  0  0
  -21.4010   -6.5640   23.8210 C   0  0  0  0  0  3  0  0  0  0  0  0
  -21.3670   -5.6800   24.9180 C   0  0  0  0  0  3  0  0  0  0  0  0
  -21.6050   -4.3060   24.7230 C   0  0  0  0  0  0  0  0  0  0  0  0
  -21.8820   -3.8140   23.4360 C   0  0  0  0  0  3  0  0  0  0  0  0
  -21.9190   -4.6960   22.3400 C   0  0  0  0  0  0  0  0  0  0  0  0
  -22.1670   -4.2140   21.0980 F   0  0  0  0  0  0  0  0  0  0  0  0
  -21.5630   -3.4540   25.7740 F   0  0  0  0  0  0  0  0  0  0  0  0
  -22.7750  -13.5180   21.1920 C   0  0  0  0  0  0  0  0  0  0  0  0
  -22.0440  -12.8130   22.0480 N   0  0  0  0  0  0  0  0  0  0  0  0
  -22.3420  -14.5480   20.6770 O   0  0  0  0  0  0  0  0  0  0  0  0
  -22.4070  -11.9800   22.4870 H   0  0  0  0  0  0  0  0  0  0  0  0
  -21.1040  -13.1100   22.2670 H   0  0  0  0  0  0  0  0  0  0  0  0
  -25.4080  -15.2020   20.4240 N   0  0  0  0  0  0  0  0  0  0  0  0
  -24.6550  -15.8680   20.5520 H   0  0  0  0  0  0  0  0  0  0  0  0
  -26.2730  -15.6380   20.1310 H   0  0  0  0  0  0  0  0  0  0  0  0
  -31.6730  -19.6780   15.6200 C   0  0  0  0  0  2  0  0  0  0  0  0
  -32.2220  -18.5900   14.7230 C   0  0  0  0  0  2  0  0  0  0  0  0
  -31.3650  -18.2310   15.9240 C   0  0  0  0  0  3  0  0  0  0  0  0
  -28.4170  -21.7270   20.7130 C   0  0  0  0  0  2  0  0  0  0  0  0
  -28.5280  -23.2310   19.9560 C   0  0  0  0  0  3  0  0  0  0  0  0
  -27.9700  -24.6780   20.6130 C   0  0  0  0  0  3  0  0  0  0  0  0
  -28.2380  -26.1480   20.1770 O   0  0  0  0  0  0  0  0  0  0  0  0
  -24.6440  -31.8440   23.1840 C   0  0  0  0  0  0  0  0  0  0  0  0
  -27.1940  -27.1320   20.1610 C   0  0  0  0  0  0  0  0  0  0  0  0
  -23.4450  -30.4610   21.5330 C   0  0  0  0  0  3  0  0  0  0  0  0
  -24.8880  -28.8850   20.1130 C   0  0  0  0  0  0  0  0  0  0  0  0
  -25.9990  -30.7190   21.3790 C   0  0  0  0  0  2  0  0  0  0  0  0
  -26.0680  -29.3280   20.7270 C   0  0  0  0  0  0  0  0  0  0  0  0
  -27.2280  -28.4680   20.7280 C   0  0  0  0  0  3  0  0  0  0  0  0
  -25.9940  -26.7830   19.5140 C   0  0  0  0  0  3  0  0  0  0  0  0
  -24.8640  -27.6280   19.4930 C   0  0  0  0  0  3  0  0  0  0  0  0
  -23.6660  -29.7880   20.1540 C   0  0  0  0  0  2  0  0  0  0  0  0
  -24.7160  -31.0290   22.0870 N   0  0  0  0  0  0  0  0  0  0  0  0
  -23.5560  -32.1330   23.7070 O   0  0  0  0  0  0  0  0  0  0  0  0
  -22.7560  -29.4540   22.4870 C   0  0  0  0  0  0  0  0  0  0  0  0
  -21.4250  -29.3050   22.3630 N   0  0  0  0  0  0  0  0  0  0  0  0
  -23.4200  -28.8100   23.3030 O   0  0  0  0  0  0  0  0  0  0  0  0
  -20.9460  -29.8760   21.6820 H   0  0  0  0  0  0  0  0  0  0  0  0
  -18.0300  -28.1400   22.8460 C   0  0  0  0  0  0  0  0  0  0  0  0
  -20.5910  -28.3720   23.1250 C   0  0  0  0  0  3  0  0  0  0  0  0
  -20.6790  -26.9430   22.5420 C   0  0  0  0  0  2  0  0  0  0  0  0
  -19.5770  -26.6380   21.5220 C   0  0  0  0  0  2  0  0  0  0  0  0
  -18.1950  -26.7930   22.1620 C   0  0  0  0  0  2  0  0  0  0  0  0
  -19.1550  -28.8880   23.2840 C   0  0  0  0  0  0  0  0  0  0  0  0
  -18.9480  -30.1470   23.8860 C   0  0  0  0  0  3  0  0  0  0  0  0
  -17.6480  -30.6590   24.0550 C   0  0  0  0  0  3  0  0  0  0  0  0
  -16.5370  -29.9080   23.6340 C   0  0  0  0  0  3  0  0  0  0  0  0
  -16.7290  -28.6510   23.0340 C   0  0  0  0  0  3  0  0  0  0  0  0
  -25.9220  -32.4690   23.8230 C   0  0  0  0  0  3  0  0  0  0  0  0
  -26.4510  -31.6560   25.0680 C   0  0  1  0  0  0  0  0  0  0  0  0
  -25.3690  -31.3760   26.1370 C   0  0  0  0  0  1  0  0  0  0  0  0
  -27.0390  -30.2960   24.6270 C   0  0  0  0  0  1  0  0  0  0  0  0
  -27.6020  -32.4330   25.7480 C   0  0  0  0  0  1  0  0  0  0  0  0
  -25.5970  -33.8500   24.2160 N   0  0  0  0  0  0  0  0  0  0  0  0
  -25.9090  -34.9400   23.5050 C   0  0  0  0  0  0  0  0  0  0  0  0
  -26.5670  -34.8890   22.4620 O   0  0  0  0  0  0  0  0  0  0  0  0
  -25.0060  -33.9590   25.0280 H   0  0  0  0  0  0  0  0  0  0  0  0
  -24.1500  -36.7270   23.2640 C   0  0  0  0  0  1  0  0  0  0  0  0
  -25.4140  -36.3040   24.0310 C   0  0  0  0  0  3  0  0  0  0  0  0
  -27.5580  -37.1790   24.8460 C   0  0  0  0  0  1  0  0  0  0  0  0
  -26.4300  -37.3750   23.9400 N   0  0  0  0  0  0  0  0  0  0  0  0
  -26.0160  -38.2820   24.1370 H   0  0  0  0  0  0  0  0  0  0  0  0
  2  5  2  0
  3 11  1  0
  3  1  1  0
  4  3  1  0
  5 55  1  0
  5  1  1  0
  6  4  1  0
  6  2  1  0
  7  9  1  0
  8  7  1  0
 10  8  1  0
 12  4  1  0
 12 13  1  0
 13  9  1  0
 13 11  1  0
 14 10  1  0
 14 12  1  0
 15  6  1  0
 16 11  1  0
 17 22  1  0
 18 19  1  0
 18 17  1  0
 19 20  1  0
 20 27  1  0
 20 21  1  0
 22 16  1  0
 22 21  1  0
 23 16  2  0
 24 25  2  0
 25 44  1  0
 26 25  1  0
 26 29  1  0
 27 28  1  0
 27 24  1  0
 28 26  2  0
 29 30  1  0
 30 31  2  0
 32 35  1  0
 32 31  1  0
 33 32  2  0
 34 33  1  0
 34 29  2  0
 35 36  1  0
 36 37  1  0
 37 38  2  0
 39 38  1  0
 39 43  1  0
 40 39  2  0
 41 36  2  0
 41 40  1  0
 42 41  1  0
 44 45  1  0
 45 48  1  0
 45 47  1  0
 46 44  2  0
 49 50  1  0
 49 24  1  0
 51 49  1  0
 52 54  1  0
 53 52  1  0
 53 54  1  0
 54 14  1  0
 56 57  2  0
 56 55  1  0
 58 57  1  0
 59 70  2  0
 59 85  1  0
 60 58  1  0
 60 65  1  0
 61 69  1  0
 61 71  1  0
 62 68  1  0
 62 64  1  0
 63 69  1  0
 64 65  2  0
 64 63  1  0
 66 60  2  0
 67 66  1  0
 67 62  2  0
 68 61  1  0
 69 59  1  0
 71 73  2  0
 72 71  1  0
 72 76  1  0
 74 72  1  0
 75 84  2  0
 75 80  1  0
 76 80  1  0
 77 76  1  0
 78 79  1  0
 78 77  1  0
 79 75  1  0
 80 81  2  0
 81 82  1  0
 83 82  2  0
 84 83  1  0
 85 90  1  0
 85 86  1  0
 86 89  1  1
 86 87  1  0
 88 86  1  0
 90 93  1  0
 91 95  1  0
 91 90  1  0
 92 91  2  0
 94 95  1  0
 97 95  1  0
 97 98  1  0
 97 96  1  0
M  ISO  4  11 100  16 100  57 101  58 101
M  END
>  <TORSDO>  (34) 
F 20

>  <SCORE>  (34) 
-14.724

>  <name>  (34) 
33

>  <ligand_id>  (34) 
33

>  <original_smiles>  (34) 
[H]c1c([H])c([H])c2c(c1[H])C([H])([H])C([H])([H])C([H])([H])C2([H])N([H])C(=O)C1([H])N(C(=O)C([H])(N([H])C(=O)C([H])(N([H])C([H])([H])[H])C([H])([H])[H])C(C([H])([H])[H])(C([H])([H])[H])C([H])([H])[H])C([H])([H])c2c([H])c(OC([H])([H])C([H])([H])C([H])([H])c3c([H])c(C([H])([H])[H])c4c(c3[H])C([H])(C(=O)N3C([H])([H])C([H])([H])C([H])([H])C([H])(n5nc(-c6c([H])c([H])c(Oc7c([H])c([H])c(F)c([H])c7F)c([H])c6[H])c(C(=O)N([H])[H])c5N([H])[H])C3([H])[H])C3([H])C([H])([H])C([H])([H])C([H])([H])C([H])([H])C([H])(C5([H])C([H])([H])C5([H])[H])C43[H])c([H])c([H])c2C1([H])[H]

>  <smiles>  (34) 
[H]c1c([H])c([H])c2c(c1[H])C([H])([H])C([H])([H])C([H])([H])C2([H])N([H])C(=O)C1([H])N(C(=O)C([H])(N([H])C(=O)C([H])(N([H])C([H])([H])[H])C([H])([H])[H])C(C([H])([H])[H])(C([H])([H])[H])C([H])([H])[H])C([H])([H])c2c([H])c(OC([H])([H])C([H])([H])C([H])([H])c3c([H])c(C([H])([H])[H])c4c(c3[H])C([H])(C(=O)N3C([H])([H])C([H])([H])C([H])([H])C([H])(n5nc(-c6c([H])c([H])c(Oc7c([H])c([H])c(F)c([H])c7F)c([H])c6[H])c(C(=O)N([H])[H])c5N([H])[H])C3([H])[H])C3([H])C([H])([H])C([H])([H])C([H])([H])C([H])([H])C([H])(C5([H])C([H])([H])C5([H])[H])C43[H])c([H])c([H])c2C1([H])[H]

$$$$
34:0:0
     RDKit          3D

 90 98  0  0  1  0  0  0  0  0999 V2000
  -29.0580  -21.8450   21.8740 C   0  0  0  0  0  2  0  0  0  0  0  0
  -28.9600  -23.4010   21.7980 C   0  0  0  0  0  2  0  0  0  0  0  0
  -29.5300  -21.3130   20.5080 C   0  0  0  0  0  3  0  0  0  0  0  0
  -29.0760  -23.8480   20.3220 C   0  0  0  0  0  3  0  0  0  0  0  0
  -28.9430  -22.4560   19.5770 C   0  0  0  0  0  3  0  0  0  0  0  0
  -29.5790  -22.4790   18.1760 C   0  0  0  0  0  1  0  0  0  0  0  0
  -29.1390  -19.7960   20.1990 C   0  0  0  0  0  0  0  0  0  0  0  0
  -29.9410  -18.7420   20.5710 N   0  0  0  0  0  0  0  0  0  0  0  0
  -28.1120  -19.5810   19.5540 O   0  0  0  0  0  0  0  0  0  0  0  0
  -30.7410  -18.9940   21.1380 H   0  0  0  0  0  0  0  0  0  0  0  0
  -29.9670  -17.3300   20.0060 C   0  0  0  0  0  2  0  0  0  0  0  0
  -29.9540  -16.0440   20.9690 C   0  0  0  0  0  2  0  0  0  0  0  0
  -30.6450  -14.7040   20.4400 C   0  0  0  0  0  0  0  0  0  0  0  0
  -30.4120  -12.4610   19.3740 C   0  0  0  0  0  2  0  0  0  0  0  0
  -29.4810  -12.6040   18.1490 C   0  0  0  0  0  2  0  0  0  0  0  0
  -28.0040  -12.4510   18.5620 C   0  0  0  0  0  2  0  0  0  0  0  0
  -27.6440  -13.2990   19.8120 C   0  0  0  0  0  3  0  0  0  0  0  0
  -28.6980  -13.1460   20.9300 C   0  0  0  0  0  2  0  0  0  0  0  0
  -30.0080  -13.4860   20.3610 N   0  0  0  0  0  0  0  0  0  0  0  0
  -31.7950  -14.8090   20.0050 O   0  0  0  0  0  0  0  0  0  0  0  0
  -25.2450  -13.8910   20.5090 C   0  0  0  0  0  0  0  0  0  0  0  0
  -24.1770  -13.1180   20.8730 C   0  0  0  0  0  0  0  0  0  0  0  0
  -24.6420  -11.7670   20.8560 C   0  0  0  0  0  0  0  0  0  0  0  0
  -26.2930  -13.0130   20.2880 N   0  0  0  0  0  0  0  0  0  0  0  0
  -25.9360  -11.7290   20.5560 N   0  0  0  0  0  0  0  0  0  0  0  0
  -23.9140  -10.5050   21.0500 C   0  0  0  0  0  0  0  0  0  0  0  0
  -24.3510   -9.5340   21.9790 C   0  0  0  0  0  3  0  0  0  0  0  0
  -23.6240   -8.3380   22.1590 C   0  0  0  0  0  3  0  0  0  0  0  0
  -22.4450   -8.1030   21.4100 C   0  0  0  0  0  0  0  0  0  0  0  0
  -22.0290   -9.0620   20.4690 C   0  0  0  0  0  3  0  0  0  0  0  0
  -22.7570  -10.2500   20.2880 C   0  0  0  0  0  3  0  0  0  0  0  0
  -21.6870   -6.9610   21.5020 O   0  0  0  0  0  0  0  0  0  0  0  0
  -21.6530   -6.2090   22.6480 C   0  0  0  0  0  0  0  0  0  0  0  0
  -21.2560   -6.7580   23.8870 C   0  0  0  0  0  3  0  0  0  0  0  0
  -21.1680   -5.9350   25.0270 C   0  0  0  0  0  3  0  0  0  0  0  0
  -21.4690   -4.5620   24.9280 C   0  0  0  0  0  0  0  0  0  0  0  0
  -21.8600   -4.0130   23.6940 C   0  0  0  0  0  3  0  0  0  0  0  0
  -21.9480   -4.8330   22.5570 C   0  0  0  0  0  0  0  0  0  0  0  0
  -22.3040   -4.2950   21.3660 F   0  0  0  0  0  0  0  0  0  0  0  0
  -21.3770   -3.7680   26.0210 F   0  0  0  0  0  0  0  0  0  0  0  0
  -22.7770  -13.5950   21.1340 C   0  0  0  0  0  0  0  0  0  0  0  0
  -22.0450  -12.9010   22.0000 N   0  0  0  0  0  0  0  0  0  0  0  0
  -22.3400  -14.6150   20.6050 O   0  0  0  0  0  0  0  0  0  0  0  0
  -22.4090  -12.0740   22.4490 H   0  0  0  0  0  0  0  0  0  0  0  0
  -21.1050  -13.2020   22.2190 H   0  0  0  0  0  0  0  0  0  0  0  0
  -25.4070  -15.2610   20.3260 N   0  0  0  0  0  0  0  0  0  0  0  0
  -24.6390  -15.9140   20.4270 H   0  0  0  0  0  0  0  0  0  0  0  0
  -26.2620  -15.7040   20.0130 H   0  0  0  0  0  0  0  0  0  0  0  0
  -28.0730  -25.0200   19.8840 C   0  0  0  0  0  2  0  0  0  0  0  0
  -28.2810  -26.4520   20.2350 O   0  0  0  0  0  0  0  0  0  0  0  0
  -24.6010  -31.9080   23.2360 C   0  0  0  0  0  0  0  0  0  0  0  0
  -27.1750  -27.3270   20.1660 C   0  0  0  0  0  0  0  0  0  0  0  0
  -23.3820  -30.5120   21.6060 C   0  0  0  0  0  3  0  0  0  0  0  0
  -24.8200  -28.9610   20.1680 C   0  0  0  0  0  0  0  0  0  0  0  0
  -25.9230  -30.8190   21.4090 C   0  0  0  0  0  2  0  0  0  0  0  0
  -25.9940  -29.4390   20.7630 C   0  0  0  0  0  0  0  0  0  0  0  0
  -27.1730  -28.6310   20.7580 C   0  0  0  0  0  3  0  0  0  0  0  0
  -25.9780  -26.9200   19.5270 C   0  0  0  0  0  3  0  0  0  0  0  0
  -24.8140  -27.7080   19.5420 C   0  0  0  0  0  3  0  0  0  0  0  0
  -23.5860  -29.8390   20.2240 C   0  0  0  0  0  2  0  0  0  0  0  0
  -24.6550  -31.0970   22.1400 N   0  0  0  0  0  0  0  0  0  0  0  0
  -23.5210  -32.1910   23.7750 O   0  0  0  0  0  0  0  0  0  0  0  0
  -22.7240  -29.4960   22.5690 C   0  0  0  0  0  0  0  0  0  0  0  0
  -21.3970  -29.3200   22.4480 N   0  0  0  0  0  0  0  0  0  0  0  0
  -23.4050  -28.8720   23.3870 O   0  0  0  0  0  0  0  0  0  0  0  0
  -20.9070  -29.8750   21.7590 H   0  0  0  0  0  0  0  0  0  0  0  0
  -18.0190  -28.1290   22.9610 C   0  0  0  0  0  0  0  0  0  0  0  0
  -20.5790  -28.3880   23.2270 C   0  0  0  0  0  3  0  0  0  0  0  0
  -20.6800  -26.9530   22.6590 C   0  0  0  0  0  2  0  0  0  0  0  0
  -19.5750  -26.6240   21.6500 C   0  0  0  0  0  2  0  0  0  0  0  0
  -18.1950  -26.7760   22.2930 C   0  0  0  0  0  2  0  0  0  0  0  0
  -19.1390  -28.8920   23.3860 C   0  0  0  0  0  0  0  0  0  0  0  0
  -18.9220  -30.1590   23.9700 C   0  0  0  0  0  3  0  0  0  0  0  0
  -17.6170  -30.6610   24.1350 C   0  0  0  0  0  3  0  0  0  0  0  0
  -16.5130  -29.8950   23.7280 C   0  0  0  0  0  3  0  0  0  0  0  0
  -16.7140  -28.6310   23.1460 C   0  0  0  0  0  3  0  0  0  0  0  0
  -25.8890  -32.5370   23.8480 C   0  0  0  0  0  3  0  0  0  0  0  0
  -26.4110  -31.7660   25.1220 C   0  0  1  0  0  0  0  0  0  0  0  0
  -25.3240  -31.5320   26.1970 C   0  0  0  0  0  1  0  0  0  0  0  0
  -26.9860  -30.3850   24.7290 C   0  0  0  0  0  1  0  0  0  0  0  0
  -27.5710  -32.5540   25.7760 C   0  0  0  0  0  1  0  0  0  0  0  0
  -25.5880  -33.9360   24.1780 N   0  0  0  0  0  0  0  0  0  0  0  0
  -25.9130  -34.9870   23.4130 C   0  0  0  0  0  0  0  0  0  0  0  0
  -26.5700  -34.8790   22.3740 O   0  0  0  0  0  0  0  0  0  0  0  0
  -25.0040  -34.0950   24.9870 H   0  0  0  0  0  0  0  0  0  0  0  0
  -24.1830  -36.7810   23.0760 C   0  0  0  0  0  1  0  0  0  0  0  0
  -25.4350  -36.3780   23.8730 C   0  0  0  0  0  3  0  0  0  0  0  0
  -27.5820  -37.2610   24.6690 C   0  0  0  0  0  1  0  0  0  0  0  0
  -26.4680  -37.4280   23.7410 N   0  0  0  0  0  0  0  0  0  0  0  0
  -26.0650  -38.3500   23.8920 H   0  0  0  0  0  0  0  0  0  0  0  0
  2  1  1  0
  3  7  1  0
  3  1  1  0
  4 49  1  0
  4  2  1  0
  5  6  1  0
  5  4  1  0
  5  3  1  0
  7  8  1  0
  8 10  1  0
  9  7  2  0
 11  8  1  0
 11 12  1  0
 13 12  1  0
 14 19  1  0
 15 16  1  0
 15 14  1  0
 17 16  1  0
 17 24  1  0
 17 18  1  0
 19 13  1  0
 19 18  1  0
 20 13  2  0
 21 22  2  0
 22 41  1  0
 23 22  1  0
 23 26  1  0
 24 21  1  0
 24 25  1  0
 25 23  2  0
 26 27  1  0
 27 28  2  0
 29 32  1  0
 29 28  1  0
 30 29  2  0
 31 30  1  0
 31 26  2  0
 32 33  1  0
 33 34  1  0
 34 35  2  0
 36 35  1  0
 36 40  1  0
 37 36  2  0
 38 33  2  0
 38 37  1  0
 39 38  1  0
 41 42  1  0
 42 45  1  0
 42 44  1  0
 43 41  2  0
 46 47  1  0
 46 21  1  0
 48 46  1  0
 49 50  1  0
 51 62  2  0
 52 50  1  0
 52 57  1  0
 53 61  1  0
 53 63  1  0
 54 60  1  0
 54 56  1  0
 55 61  1  0
 56 55  1  0
 57 56  2  0
 58 59  1  0
 58 52  2  0
 59 54  2  0
 60 53  1  0
 61 51  1  0
 63 65  2  0
 64 63  1  0
 66 64  1  0
 67 76  2  0
 67 72  1  0
 68 64  1  0
 68 72  1  0
 69 68  1  0
 70 71  1  0
 70 69  1  0
 71 67  1  0
 72 73  2  0
 73 74  1  0
 75 74  2  0
 76 75  1  0
 77 51  1  0
 77 82  1  0
 77 78  1  0
 78 81  1  1
 78 79  1  0
 80 78  1  0
 82 85  1  0
 83 87  1  0
 83 82  1  0
 84 83  2  0
 87 86  1  0
 89 87  1  0
 89 90  1  0
 89 88  1  0
M  ISO  4  12 100  13 100  49 101  50 101
M  END
>  <TORSDO>  (35) 
F 20

>  <SCORE>  (35) 
-14.021

>  <name>  (35) 
34

>  <ligand_id>  (35) 
34

>  <original_smiles>  (35) 
[H]c1c([H])c([H])c2c(c1[H])C([H])([H])C([H])([H])C([H])([H])C2([H])N([H])C(=O)C1([H])N(C(=O)C([H])(N([H])C(=O)C([H])(N([H])C([H])([H])[H])C([H])([H])[H])C(C([H])([H])[H])(C([H])([H])[H])C([H])([H])[H])C([H])([H])c2c([H])c(OC([H])([H])C3([H])C([H])([H])C([H])([H])C([H])(C(=O)N([H])C([H])([H])C([H])([H])C(=O)N4C([H])([H])C([H])([H])C([H])([H])C([H])(n5nc(-c6c([H])c([H])c(Oc7c([H])c([H])c(F)c([H])c7F)c([H])c6[H])c(C(=O)N([H])[H])c5N([H])[H])C4([H])[H])C3([H])C([H])([H])[H])c([H])c([H])c2C1([H])[H]

>  <smiles>  (35) 
[H]c1c([H])c([H])c2c(c1[H])C([H])([H])C([H])([H])C([H])([H])C2([H])N([H])C(=O)C1([H])N(C(=O)C([H])(N([H])C(=O)C([H])(N([H])C([H])([H])[H])C([H])([H])[H])C(C([H])([H])[H])(C([H])([H])[H])C([H])([H])[H])C([H])([H])c2c([H])c(OC([H])([H])C3([H])C([H])([H])C([H])([H])C([H])(C(=O)N([H])C([H])([H])C([H])([H])C(=O)N4C([H])([H])C([H])([H])C([H])([H])C([H])(n5nc(-c6c([H])c([H])c(Oc7c([H])c([H])c(F)c([H])c7F)c([H])c6[H])c(C(=O)N([H])[H])c5N([H])[H])C4([H])[H])C3([H])C([H])([H])[H])c([H])c([H])c2C1([H])[H]

$$$$
35:0:0
     RDKit          3D

 93102  0  0  1  0  0  0  0  0999 V2000
  -28.6230  -20.8010   20.4980 N   0  0  0  0  0  4  0  0  0  0  0  0
  -29.3210  -20.9230   21.2130 H   0  0  0  0  0  0  0  0  0  0  0  0
  -27.7250  -20.7630   20.9540 H   0  0  0  0  0  0  0  0  0  0  0  0
  -28.8840  -19.4890   19.8360 C   0  0  0  0  0  2  0  0  0  0  0  0
  -31.4470  -16.7860   22.3460 C   0  0  0  0  0  2  0  0  0  0  0  0
  -32.4780  -18.0350   21.0810 C   0  0  0  0  0  2  0  0  0  0  0  0
  -30.2910  -19.0840   21.9400 C   0  0  0  0  0  2  0  0  0  0  0  0
  -31.5640  -18.3150   22.2780 C   0  0  0  0  0  3  0  0  0  0  0  0
  -31.5150  -16.8700   20.8140 C   0  0  0  0  0  3  0  0  0  0  0  0
  -29.4390  -18.4030   20.8160 C   0  0  0  0  0  3  0  0  0  0  0  0
  -30.1940  -17.2110   20.0900 C   0  0  0  0  0  3  0  0  0  0  0  0
  -29.3260  -15.9180   19.9220 C   0  0  0  0  0  2  0  0  0  0  0  0
  -30.0460  -14.7000   19.2740 C   0  0  0  0  0  0  0  0  0  0  0  0
  -29.9410  -12.3480   18.5170 C   0  0  0  0  0  2  0  0  0  0  0  0
  -28.8370  -12.2060   17.4490 C   0  0  0  0  0  2  0  0  0  0  0  0
  -27.4700  -11.9450   18.1120 C   0  0  0  0  0  2  0  0  0  0  0  0
  -27.1630  -12.9420   19.2610 C   0  0  0  0  0  3  0  0  0  0  0  0
  -28.3690  -13.0740   20.2180 C   0  0  0  0  0  2  0  0  0  0  0  0
  -29.5510  -13.4410   19.4230 N   0  0  0  0  0  0  0  0  0  0  0  0
  -31.0180  -14.9220   18.5450 O   0  0  0  0  0  0  0  0  0  0  0  0
  -24.9390  -13.3920   20.4770 C   0  0  0  0  0  0  0  0  0  0  0  0
  -23.9890  -12.5500   20.9880 C   0  0  0  0  0  0  0  0  0  0  0  0
  -24.4730  -11.2250   20.7620 C   0  0  0  0  0  0  0  0  0  0  0  0
  -25.9420  -12.5760   19.9760 N   0  0  0  0  0  0  0  0  0  0  0  0
  -25.6760  -11.2640   20.2020 N   0  0  0  0  0  0  0  0  0  0  0  0
  -23.8370   -9.9230   20.9940 C   0  0  0  0  0  0  0  0  0  0  0  0
  -24.2880   -9.0490   22.0080 C   0  0  0  0  0  3  0  0  0  0  0  0
  -23.6480   -7.8100   22.2240 C   0  0  0  0  0  3  0  0  0  0  0  0
  -22.5420   -7.4340   21.4240 C   0  0  0  0  0  0  0  0  0  0  0  0
  -22.1100   -8.2980   20.4030 C   0  0  0  0  0  3  0  0  0  0  0  0
  -22.7520   -9.5280   20.1850 C   0  0  0  0  0  3  0  0  0  0  0  0
  -21.8740   -6.2390   21.5450 O   0  0  0  0  0  0  0  0  0  0  0  0
  -21.6030   -5.6870   22.7710 C   0  0  0  0  0  0  0  0  0  0  0  0
  -20.7960   -6.3470   23.7240 C   0  0  0  0  0  3  0  0  0  0  0  0
  -20.4850   -5.7130   24.9440 C   0  0  0  0  0  3  0  0  0  0  0  0
  -20.9700   -4.4190   25.2090 C   0  0  0  0  0  0  0  0  0  0  0  0
  -21.7680   -3.7570   24.2590 C   0  0  0  0  0  3  0  0  0  0  0  0
  -22.0810   -4.3880   23.0420 C   0  0  0  0  0  0  0  0  0  0  0  0
  -22.8320   -3.7390   22.1210 F   0  0  0  0  0  0  0  0  0  0  0  0
  -20.6650   -3.8050   26.3760 F   0  0  0  0  0  0  0  0  0  0  0  0
  -22.6630  -12.9460   21.5700 C   0  0  0  0  0  0  0  0  0  0  0  0
  -22.1580  -12.1740   22.5260 N   0  0  0  0  0  0  0  0  0  0  0  0
  -22.0880  -13.9730   21.2110 O   0  0  0  0  0  0  0  0  0  0  0  0
  -22.6380  -11.3410   22.8340 H   0  0  0  0  0  0  0  0  0  0  0  0
  -21.2770  -12.4180   22.9560 H   0  0  0  0  0  0  0  0  0  0  0  0
  -25.0270  -14.7770   20.3760 N   0  0  0  0  0  0  0  0  0  0  0  0
  -24.2830  -15.3930   20.6850 H   0  0  0  0  0  0  0  0  0  0  0  0
  -25.7860  -15.2710   19.9240 H   0  0  0  0  0  0  0  0  0  0  0  0
  -28.6750  -22.0040   19.6180 C   0  0  0  0  0  2  0  0  0  0  0  0
  -28.5070  -23.3300   20.4110 C   0  0  0  0  0  2  0  0  0  0  0  0
  -28.5630  -24.6350   19.5660 C   0  0  0  0  0  2  0  0  0  0  0  0
  -28.2880  -25.9070   20.4060 C   0  0  0  0  0  2  0  0  0  0  0  0
  -28.2710  -27.1230   19.6350 O   0  0  0  0  0  0  0  0  0  0  0  0
  -24.5190  -31.9940   23.2410 C   0  0  0  0  0  0  0  0  0  0  0  0
  -27.1020  -27.8440   19.7380 C   0  0  0  0  0  0  0  0  0  0  0  0
  -23.2610  -30.6680   21.5740 C   0  0  0  0  0  3  0  0  0  0  0  0
  -24.6750  -29.2720   19.9730 C   0  0  0  0  0  0  0  0  0  0  0  0
  -25.7610  -31.1180   21.2660 C   0  0  0  0  0  2  0  0  0  0  0  0
  -25.8490  -29.7950   20.5300 C   0  0  0  0  0  0  0  0  0  0  0  0
  -27.0700  -29.0900   20.4050 C   0  0  0  0  0  3  0  0  0  0  0  0
  -25.9140  -27.3370   19.1740 C   0  0  0  0  0  3  0  0  0  0  0  0
  -24.7010  -28.0430   19.2910 C   0  0  0  0  0  3  0  0  0  0  0  0
  -23.4110  -30.0860   20.1430 C   0  0  0  0  0  2  0  0  0  0  0  0
  -24.5350  -31.2710   22.0860 N   0  0  0  0  0  0  0  0  0  0  0  0
  -23.4620  -32.1970   23.8560 O   0  0  0  0  0  0  0  0  0  0  0  0
  -22.6910  -29.5670   22.4970 C   0  0  0  0  0  0  0  0  0  0  0  0
  -21.3880  -29.2770   22.3490 N   0  0  0  0  0  0  0  0  0  0  0  0
  -23.4170  -28.9790   23.3020 O   0  0  0  0  0  0  0  0  0  0  0  0
  -20.8580  -29.8090   21.6730 H   0  0  0  0  0  0  0  0  0  0  0  0
  -18.1470  -27.7160   22.6940 C   0  0  0  0  0  0  0  0  0  0  0  0
  -20.6460  -28.2500   23.0810 C   0  0  0  0  0  3  0  0  0  0  0  0
  -20.9320  -26.8430   22.5080 C   0  0  0  0  0  2  0  0  0  0  0  0
  -19.9180  -26.4070   21.4450 C   0  0  0  0  0  2  0  0  0  0  0  0
  -18.5010  -26.3970   22.0260 C   0  0  0  0  0  2  0  0  0  0  0  0
  -19.1550  -28.5930   23.1750 C   0  0  0  0  0  0  0  0  0  0  0  0
  -18.7730  -29.8220   23.7540 C   0  0  0  0  0  3  0  0  0  0  0  0
  -17.4150  -30.1770   23.8610 C   0  0  0  0  0  3  0  0  0  0  0  0
  -16.4210  -29.2980   23.3970 C   0  0  0  0  0  3  0  0  0  0  0  0
  -16.7880  -28.0700   22.8200 C   0  0  0  0  0  3  0  0  0  0  0  0
  -25.8200  -32.6210   23.8330 C   0  0  0  0  0  3  0  0  0  0  0  0
  -25.5140  -34.0090   24.2030 N   0  0  0  0  0  0  0  0  0  0  0  0
  -25.8020  -35.0780   23.4480 C   0  0  0  0  0  0  0  0  0  0  0  0
  -26.4250  -35.0000   22.3850 O   0  0  0  0  0  0  0  0  0  0  0  0
  -24.9550  -34.1430   25.0320 H   0  0  0  0  0  0  0  0  0  0  0  0
  -24.0340  -36.8510   23.2140 C   0  0  0  0  0  1  0  0  0  0  0  0
  -25.3230  -36.4520   23.9520 C   0  0  0  0  0  3  0  0  0  0  0  0
  -27.4810  -37.3590   24.6910 C   0  0  0  0  0  1  0  0  0  0  0  0
  -26.3350  -37.5200   23.8010 N   0  0  0  0  0  0  0  0  0  0  0  0
  -25.9230  -38.4330   23.9760 H   0  0  0  0  0  0  0  0  0  0  0  0
  -26.3870  -31.8240   25.0710 C   0  0  1  0  0  0  0  0  0  0  0  0
  -25.3200  -31.4970   26.1420 C   0  0  0  0  0  1  0  0  0  0  0  0
  -27.0250  -30.4900   24.6170 C   0  0  0  0  0  1  0  0  0  0  0  0
  -27.5110  -32.6420   25.7510 C   0  0  0  0  0  1  0  0  0  0  0  0
  1  3  1  0
  1  2  1  0
  4  1  1  0
  7  8  1  0
  8  6  1  0
  8  5  1  0
  9  6  1  0
  9  5  1  0
 10  4  1  0
 10  7  1  0
 11 12  1  0
 11  9  1  0
 11 10  1  0
 13 19  1  0
 13 12  1  0
 14 19  1  0
 15 16  1  0
 15 14  1  0
 17 16  1  0
 17 24  1  0
 17 18  1  0
 19 18  1  0
 20 13  2  0
 21 22  2  0
 22 41  1  0
 23 22  1  0
 23 26  1  0
 24 25  1  0
 24 21  1  0
 25 23  2  0
 26 27  1  0
 27 28  2  0
 29 32  1  0
 29 28  1  0
 30 29  2  0
 31 30  1  0
 31 26  2  0
 32 33  1  0
 33 38  2  0
 33 34  1  0
 34 35  2  0
 35 36  1  0
 36 40  1  0
 37 36  2  0
 38 37  1  0
 39 38  1  0
 41 42  1  0
 42 44  1  0
 42 45  1  0
 43 41  2  0
 46 21  1  0
 46 47  1  0
 48 46  1  0
 49 50  1  0
 49  1  1  0
 51 52  1  0
 51 50  1  0
 53 55  1  0
 53 52  1  0
 54 65  2  0
 55 60  1  0
 56 64  1  0
 56 66  1  0
 57 63  1  0
 57 59  1  0
 58 64  1  0
 59 58  1  0
 60 59  2  0
 61 62  1  0
 61 55  2  0
 62 57  2  0
 63 56  1  0
 64 54  1  0
 66 68  2  0
 67 66  1  0
 69 67  1  0
 70 79  2  0
 70 75  1  0
 71 67  1  0
 71 75  1  0
 72 71  1  0
 73 74  1  0
 73 72  1  0
 74 70  1  0
 75 76  2  0
 76 77  1  0
 78 77  2  0
 79 78  1  0
 80 54  1  0
 80 81  1  0
 80 90  1  0
 81 84  1  0
 82 86  1  0
 82 81  1  0
 83 82  2  0
 86 85  1  0
 88 86  1  0
 88 89  1  0
 88 87  1  0
 90 93  1  1
 90 91  1  0
 92 90  1  0
M  ISO  4  12 100  13 100  52 101  53 101
M  END
>  <TORSDO>  (36) 
F 23

>  <SCORE>  (36) 
-9.552

>  <name>  (36) 
35

>  <ligand_id>  (36) 
35

>  <original_smiles>  (36) 
[H]c1c([H])c([H])c2c(c1[H])C([H])([H])C([H])([H])C([H])([H])C2([H])N([H])C(=O)C1([H])N(C(=O)C([H])(N([H])C(=O)C([H])(N([H])C([H])([H])[H])C([H])([H])[H])C(C([H])([H])[H])(C([H])([H])[H])C([H])([H])[H])C([H])([H])c2c([H])c(OC([H])([H])C([H])([H])C([H])([H])C([H])([H])[N+]([H])([H])C([H])([H])C3([H])C([H])([H])C4([H])C([H])([H])C([H])(C4([H])[H])C3([H])C([H])([H])C(=O)N3C([H])([H])C([H])([H])C([H])([H])C([H])(n4nc(-c5c([H])c([H])c(Oc6c([H])c([H])c(F)c([H])c6F)c([H])c5[H])c(C(=O)N([H])[H])c4N([H])[H])C3([H])[H])c([H])c([H])c2C1([H])[H]

>  <smiles>  (36) 
[H]c1c([H])c([H])c2c(c1[H])C([H])([H])C([H])([H])C([H])([H])C2([H])N([H])C(=O)C1([H])N(C(=O)C([H])(N([H])C(=O)C([H])(N([H])C([H])([H])[H])C([H])([H])[H])C(C([H])([H])[H])(C([H])([H])[H])C([H])([H])[H])C([H])([H])c2c([H])c(OC([H])([H])C([H])([H])C([H])([H])C([H])([H])[N+]([H])([H])C([H])([H])C3([H])C([H])([H])C4([H])C([H])([H])C([H])(C4([H])[H])C3([H])C([H])([H])C(=O)N3C([H])([H])C([H])([H])C([H])([H])C([H])(n4nc(-c5c([H])c([H])c(Oc6c([H])c([H])c(F)c([H])c6F)c([H])c5[H])c(C(=O)N([H])[H])c4N([H])[H])C3([H])[H])c([H])c([H])c2C1([H])[H]

$$$$
36:0:0
     RDKit          3D

 90 99  0  0  1  0  0  0  0  0999 V2000
  -28.5290  -23.7810   19.8020 C   0  0  0  0  0  3  0  0  0  0  0  0
  -29.4550  -22.7520   19.6720 C   0  0  0  0  0  0  0  0  0  0  0  0
  -30.9000  -23.0530   19.3060 C   0  0  0  0  0  1  0  0  0  0  0  0
  -27.8920  -20.6650   20.3810 C   0  0  0  0  0  2  0  0  0  0  0  0
  -28.0300  -19.1150   20.3420 C   0  0  0  0  0  2  0  0  0  0  0  0
  -31.2680  -19.5790   19.2080 C   0  0  0  0  0  2  0  0  0  0  0  0
  -31.5340  -18.0960   19.5640 C   0  0  0  0  0  2  0  0  0  0  0  0
  -29.1760  -21.1800   19.7190 C   0  0  0  0  0  3  0  0  0  0  0  0
  -30.2420  -20.1060   20.2320 C   0  0  0  0  0  3  0  0  0  0  0  0
  -29.5050  -18.7800   20.6560 C   0  0  0  0  0  3  0  0  0  0  0  0
  -30.1690  -17.5010   19.9490 C   0  0  0  0  0  3  0  0  0  0  0  0
  -30.1840  -16.0670   20.7050 C   0  0  0  0  0  2  0  0  0  0  0  0
  -30.8500  -14.7550   20.0590 C   0  0  0  0  0  0  0  0  0  0  0  0
  -30.5890  -12.5180   18.9660 C   0  0  0  0  0  2  0  0  0  0  0  0
  -29.6060  -12.6660   17.7840 C   0  0  0  0  0  2  0  0  0  0  0  0
  -28.1490  -12.4990   18.2570 C   0  0  0  0  0  2  0  0  0  0  0  0
  -27.8410  -13.3340   19.5290 C   0  0  0  0  0  3  0  0  0  0  0  0
  -28.9400  -13.1680   20.6020 C   0  0  0  0  0  2  0  0  0  0  0  0
  -30.2210  -13.5320   19.9820 N   0  0  0  0  0  0  0  0  0  0  0  0
  -31.9760  -14.8740   19.5690 O   0  0  0  0  0  0  0  0  0  0  0  0
  -25.4790  -13.9280   20.3400 C   0  0  0  0  0  0  0  0  0  0  0  0
  -24.4230  -13.1550   20.7350 C   0  0  0  0  0  0  0  0  0  0  0  0
  -24.8760  -11.8010   20.6720 C   0  0  0  0  0  0  0  0  0  0  0  0
  -26.5110  -13.0470   20.0590 N   0  0  0  0  0  0  0  0  0  0  0  0
  -26.1560  -11.7620   20.3170 N   0  0  0  0  0  0  0  0  0  0  0  0
  -24.1500  -10.5410   20.8750 C   0  0  0  0  0  0  0  0  0  0  0  0
  -24.5680   -9.5920   21.8340 C   0  0  0  0  0  3  0  0  0  0  0  0
  -23.8420   -8.3970   22.0230 C   0  0  0  0  0  3  0  0  0  0  0  0
  -22.6830   -8.1410   21.2520 C   0  0  0  0  0  0  0  0  0  0  0  0
  -22.2840   -9.0770   20.2820 C   0  0  0  0  0  3  0  0  0  0  0  0
  -23.0110  -10.2640   20.0920 C   0  0  0  0  0  3  0  0  0  0  0  0
  -21.9310   -6.9950   21.3480 O   0  0  0  0  0  0  0  0  0  0  0  0
  -21.8100   -6.3090   22.5310 C   0  0  0  0  0  0  0  0  0  0  0  0
  -21.2700   -6.9120   23.6870 C   0  0  0  0  0  3  0  0  0  0  0  0
  -21.0980   -6.1520   24.8630 C   0  0  0  0  0  3  0  0  0  0  0  0
  -21.4580   -4.7910   24.8790 C   0  0  0  0  0  0  0  0  0  0  0  0
  -21.9910   -4.1880   23.7260 C   0  0  0  0  0  3  0  0  0  0  0  0
  -22.1640   -4.9450   22.5540 C   0  0  0  0  0  0  0  0  0  0  0  0
  -22.6580   -4.3540   21.4390 F   0  0  0  0  0  0  0  0  0  0  0  0
  -21.2850   -4.0590   26.0040 F   0  0  0  0  0  0  0  0  0  0  0  0
  -23.0390  -13.6350   21.0630 C   0  0  0  0  0  0  0  0  0  0  0  0
  -22.3420  -12.9340   21.9500 N   0  0  0  0  0  0  0  0  0  0  0  0
  -22.5870  -14.6670   20.5680 O   0  0  0  0  0  0  0  0  0  0  0  0
  -22.7240  -12.0990   22.3680 H   0  0  0  0  0  0  0  0  0  0  0  0
  -21.4150  -13.2370   22.2140 H   0  0  0  0  0  0  0  0  0  0  0  0
  -25.6460  -15.3010   20.1750 N   0  0  0  0  0  0  0  0  0  0  0  0
  -24.8890  -15.9610   20.3180 H   0  0  0  0  0  0  0  0  0  0  0  0
  -26.4910  -15.7390   19.8340 H   0  0  0  0  0  0  0  0  0  0  0  0
  -28.6700  -25.3120   19.3790 C   0  0  0  0  0  2  0  0  0  0  0  0
  -28.3680  -26.4490   20.2830 O   0  0  0  0  0  0  0  0  0  0  0  0
  -24.5770  -31.8580   23.1750 C   0  0  0  0  0  0  0  0  0  0  0  0
  -27.2440  -27.2910   20.1520 C   0  0  0  0  0  0  0  0  0  0  0  0
  -23.3970  -30.4580   21.5170 C   0  0  0  0  0  3  0  0  0  0  0  0
  -24.8700  -28.9060   20.1040 C   0  0  0  0  0  0  0  0  0  0  0  0
  -25.9370  -30.7770   21.3660 C   0  0  0  0  0  2  0  0  0  0  0  0
  -26.0270  -29.3950   20.7240 C   0  0  0  0  0  0  0  0  0  0  0  0
  -27.2090  -28.5940   20.7440 C   0  0  0  0  0  3  0  0  0  0  0  0
  -26.0640  -26.8560   19.5060 C   0  0  0  0  0  3  0  0  0  0  0  0
  -24.8940  -27.6430   19.4860 C   0  0  0  0  0  3  0  0  0  0  0  0
  -23.6290  -29.7760   20.1400 C   0  0  0  0  0  2  0  0  0  0  0  0
  -24.6550  -31.0500   22.0760 N   0  0  0  0  0  0  0  0  0  0  0  0
  -23.4860  -32.1340   23.6950 O   0  0  0  0  0  0  0  0  0  0  0  0
  -22.7200  -29.4450   22.4690 C   0  0  0  0  0  0  0  0  0  0  0  0
  -21.3920  -29.2830   22.3390 N   0  0  0  0  0  0  0  0  0  0  0  0
  -23.3890  -28.8060   23.2850 O   0  0  0  0  0  0  0  0  0  0  0  0
  -20.9100  -29.8490   21.6540 H   0  0  0  0  0  0  0  0  0  0  0  0
  -17.9970  -28.1430   22.8470 C   0  0  0  0  0  0  0  0  0  0  0  0
  -20.5610  -28.3480   23.1010 C   0  0  0  0  0  3  0  0  0  0  0  0
  -20.6300  -26.9250   22.4980 C   0  0  0  0  0  2  0  0  0  0  0  0
  -19.5150  -26.6430   21.4870 C   0  0  0  0  0  2  0  0  0  0  0  0
  -18.1410  -26.8030   22.1440 C   0  0  0  0  0  2  0  0  0  0  0  0
  -19.1320  -28.8760   23.2810 C   0  0  0  0  0  0  0  0  0  0  0  0
  -18.9430  -30.1320   23.8980 C   0  0  0  0  0  3  0  0  0  0  0  0
  -17.6500  -30.6560   24.0830 C   0  0  0  0  0  3  0  0  0  0  0  0
  -16.5280  -29.9190   23.6650 C   0  0  0  0  0  3  0  0  0  0  0  0
  -16.7030  -28.6630   23.0550 C   0  0  0  0  0  3  0  0  0  0  0  0
  -25.8500  -32.4920   23.8160 C   0  0  0  0  0  3  0  0  0  0  0  0
  -26.3480  -31.7200   25.1010 C   0  0  1  0  0  0  0  0  0  0  0  0
  -25.2360  -31.4750   26.1490 C   0  0  0  0  0  1  0  0  0  0  0  0
  -26.9440  -30.3470   24.7180 C   0  0  0  0  0  1  0  0  0  0  0  0
  -27.4850  -32.5170   25.7830 C   0  0  0  0  0  1  0  0  0  0  0  0
  -25.5350  -33.8900   24.1430 N   0  0  0  0  0  0  0  0  0  0  0  0
  -25.8730  -34.9430   23.3870 C   0  0  0  0  0  0  0  0  0  0  0  0
  -26.5520  -34.8410   22.3610 O   0  0  0  0  0  0  0  0  0  0  0  0
  -24.9290  -34.0430   24.9360 H   0  0  0  0  0  0  0  0  0  0  0  0
  -24.1490  -36.7390   23.0160 C   0  0  0  0  0  1  0  0  0  0  0  0
  -25.3810  -36.3320   23.8410 C   0  0  0  0  0  3  0  0  0  0  0  0
  -27.5030  -37.2190   24.7010 C   0  0  0  0  0  1  0  0  0  0  0  0
  -26.4140  -37.3860   23.7420 N   0  0  0  0  0  0  0  0  0  0  0  0
  -26.0070  -38.3050   23.8830 H   0  0  0  0  0  0  0  0  0  0  0  0
  2  1  2  0
  3  2  1  0
  5  4  1  0
  6  7  1  0
  7 11  1  0
  8  2  1  0
  8  9  1  0
  8  4  1  0
  9  6  1  0
  9 10  1  0
 10  5  1  0
 11 10  1  0
 11 12  1  0
 13 12  1  0
 14 19  1  0
 15 16  1  0
 15 14  1  0
 17 16  1  0
 17 24  1  0
 17 18  1  0
 19 13  1  0
 19 18  1  0
 20 13  2  0
 21 22  2  0
 22 41  1  0
 23 22  1  0
 23 26  1  0
 24 25  1  0
 24 21  1  0
 25 23  2  0
 26 27  1  0
 27 28  2  0
 29 32  1  0
 29 28  1  0
 30 29  2  0
 31 30  1  0
 31 26  2  0
 32 33  1  0
 33 38  2  0
 33 34  1  0
 34 35  2  0
 35 36  1  0
 36 40  1  0
 37 36  2  0
 38 37  1  0
 39 38  1  0
 41 42  1  0
 42 45  1  0
 42 44  1  0
 43 41  2  0
 46 47  1  0
 46 21  1  0
 48 46  1  0
 49  1  1  0
 49 50  1  0
 51 62  2  0
 52 50  1  0
 52 57  1  0
 53 61  1  0
 53 63  1  0
 54 60  1  0
 54 56  1  0
 55 61  1  0
 56 57  2  0
 56 55  1  0
 58 52  2  0
 59 58  1  0
 59 54  2  0
 60 53  1  0
 61 51  1  0
 63 65  2  0
 64 63  1  0
 66 64  1  0
 67 76  2  0
 67 72  1  0
 68 64  1  0
 68 72  1  0
 69 68  1  0
 70 71  1  0
 70 69  1  0
 71 67  1  0
 72 73  2  0
 73 74  1  0
 75 74  2  0
 76 75  1  0
 77 51  1  0
 77 82  1  0
 77 78  1  0
 78 81  1  1
 78 79  1  0
 80 78  1  0
 82 85  1  0
 83 87  1  0
 83 82  1  0
 84 83  2  0
 87 86  1  0
 89 87  1  0
 89 90  1  0
 89 88  1  0
M  ISO  4  12 100  13 100  49 101  50 101
M  END
>  <TORSDO>  (37) 
F 19

>  <SCORE>  (37) 
-13.985

>  <name>  (37) 
36

>  <ligand_id>  (37) 
36

>  <original_smiles>  (37) 
[H]C(=C(C([H])([H])[H])C1([H])C([H])([H])C([H])([H])C2([H])C([H])(C([H])([H])C(=O)N3C([H])([H])C([H])([H])C([H])([H])C([H])(n4nc(-c5c([H])c([H])c(Oc6c([H])c([H])c(F)c([H])c6F)c([H])c5[H])c(C(=O)N([H])[H])c4N([H])[H])C3([H])[H])C([H])([H])C([H])([H])C12[H])C([H])([H])Oc1c([H])c([H])c2c(c1[H])C([H])([H])N(C(=O)C([H])(N([H])C(=O)C([H])(N([H])C([H])([H])[H])C([H])([H])[H])C(C([H])([H])[H])(C([H])([H])[H])C([H])([H])[H])C([H])(C(=O)N([H])C1([H])c3c([H])c([H])c([H])c([H])c3C([H])([H])C([H])([H])C1([H])[H])C2([H])[H]

>  <smiles>  (37) 
[H]C(=C(C([H])([H])[H])C1([H])C([H])([H])C([H])([H])C2([H])C([H])(C([H])([H])C(=O)N3C([H])([H])C([H])([H])C([H])([H])C([H])(n4nc(-c5c([H])c([H])c(Oc6c([H])c([H])c(F)c([H])c6F)c([H])c5[H])c(C(=O)N([H])[H])c4N([H])[H])C3([H])[H])C([H])([H])C([H])([H])C12[H])C([H])([H])Oc1c([H])c([H])c2c(c1[H])C([H])([H])N(C(=O)C([H])(N([H])C(=O)C([H])(N([H])C([H])([H])[H])C([H])([H])[H])C(C([H])([H])[H])(C([H])([H])[H])C([H])([H])[H])C([H])(C(=O)N([H])C1([H])c3c([H])c([H])c([H])c([H])c3C([H])([H])C([H])([H])C1([H])[H])C2([H])[H]

$$$$
37:0:0
     RDKit          3D

 93101  0  0  1  0  0  0  0  0999 V2000
  -28.8770  -22.7010   18.2350 N   0  0  0  0  0  4  0  0  0  0  0  0
  -28.1920  -23.1910   17.6820 H   0  0  0  0  0  0  0  0  0  0  0  0
  -29.7610  -22.8150   17.7660 H   0  0  0  0  0  0  0  0  0  0  0  0
  -27.1410  -20.9180   18.7300 C   0  0  0  0  0  2  0  0  0  0  0  0
  -27.3550  -19.7810   19.7340 C   0  0  0  0  0  2  0  0  0  0  0  0
  -29.4650  -20.3360   19.0270 C   0  0  0  0  0  2  0  0  0  0  0  0
  -28.5440  -21.2440   18.1780 C   0  0  2  0  0  0  0  0  0  0  0  0
  -28.6440  -20.7890   16.7050 C   0  0  0  0  0  1  0  0  0  0  0  0
  -28.6280  -19.1790   19.3460 N   0  0  0  0  0  0  0  0  0  0  0  0
  -29.1670  -18.3350   20.4150 C   0  0  0  0  0  2  0  0  0  0  0  0
  -30.4670  -17.6130   20.0020 C   0  0  0  0  0  2  0  0  0  0  0  0
  -31.0550  -16.7430   21.1330 C   0  0  0  0  0  2  0  0  0  0  0  0
  -30.4430  -15.3290   21.2340 C   0  0  0  0  0  2  0  0  0  0  0  0
  -30.9870  -14.2900   20.2260 C   0  0  0  0  0  0  0  0  0  0  0  0
  -30.5910  -12.2210   18.9260 C   0  0  0  0  0  2  0  0  0  0  0  0
  -29.6120  -12.4940   17.7680 C   0  0  0  0  0  2  0  0  0  0  0  0
  -28.1450  -12.4050   18.2430 C   0  0  0  0  0  2  0  0  0  0  0  0
  -27.8840  -13.2100   19.5420 C   0  0  0  0  0  3  0  0  0  0  0  0
  -28.9570  -12.8670   20.6030 C   0  0  0  0  0  2  0  0  0  0  0  0
  -30.2760  -13.1540   20.0150 N   0  0  0  0  0  0  0  0  0  0  0  0
  -32.0360  -14.5310   19.6160 O   0  0  0  0  0  0  0  0  0  0  0  0
  -25.5140  -13.8970   20.2890 C   0  0  0  0  0  0  0  0  0  0  0  0
  -24.4320  -13.1590   20.6890 C   0  0  0  0  0  0  0  0  0  0  0  0
  -24.8540  -11.7940   20.6610 C   0  0  0  0  0  0  0  0  0  0  0  0
  -26.5310  -12.9840   20.0470 N   0  0  0  0  0  0  0  0  0  0  0  0
  -26.1360  -11.7150   20.3250 N   0  0  0  0  0  0  0  0  0  0  0  0
  -24.1000  -10.5550   20.8810 C   0  0  0  0  0  0  0  0  0  0  0  0
  -24.5270   -9.5880   21.8170 C   0  0  0  0  0  3  0  0  0  0  0  0
  -23.7750   -8.4100   22.0230 C   0  0  0  0  0  3  0  0  0  0  0  0
  -22.5820   -8.1930   21.2940 C   0  0  0  0  0  0  0  0  0  0  0  0
  -22.1730   -9.1490   20.3470 C   0  0  0  0  0  3  0  0  0  0  0  0
  -22.9250  -10.3160   20.1390 C   0  0  0  0  0  3  0  0  0  0  0  0
  -21.8020   -7.0670   21.4110 O   0  0  0  0  0  0  0  0  0  0  0  0
  -21.7510   -6.3460   22.5760 C   0  0  0  0  0  0  0  0  0  0  0  0
  -21.3670   -6.9340   23.8020 C   0  0  0  0  0  3  0  0  0  0  0  0
  -21.2600   -6.1380   24.9610 C   0  0  0  0  0  3  0  0  0  0  0  0
  -21.5300   -4.7570   24.8940 C   0  0  0  0  0  0  0  0  0  0  0  0
  -21.9060   -4.1700   23.6740 C   0  0  0  0  0  3  0  0  0  0  0  0
  -22.0150   -4.9620   22.5180 C   0  0  0  0  0  0  0  0  0  0  0  0
  -22.3570   -4.3880   21.3400 F   0  0  0  0  0  0  0  0  0  0  0  0
  -21.4190   -3.9920   26.0050 F   0  0  0  0  0  0  0  0  0  0  0  0
  -23.0550  -13.6750   20.9890 C   0  0  0  0  0  0  0  0  0  0  0  0
  -22.3330  -13.0100   21.8840 N   0  0  0  0  0  0  0  0  0  0  0  0
  -22.6300  -14.7050   20.4650 O   0  0  0  0  0  0  0  0  0  0  0  0
  -22.6890  -12.1770   22.3280 H   0  0  0  0  0  0  0  0  0  0  0  0
  -21.4100  -13.3380   22.1330 H   0  0  0  0  0  0  0  0  0  0  0  0
  -25.7140  -15.2620   20.0950 N   0  0  0  0  0  0  0  0  0  0  0  0
  -24.9710  -15.9390   20.2230 H   0  0  0  0  0  0  0  0  0  0  0  0
  -26.5730  -15.6760   19.7560 H   0  0  0  0  0  0  0  0  0  0  0  0
  -28.9920  -23.3820   19.5570 C   0  0  0  0  0  2  0  0  0  0  0  0
  -29.6730  -24.7660   19.4440 C   0  0  0  0  0  2  0  0  0  0  0  0
  -28.7530  -25.9270   19.0240 C   0  0  0  0  0  2  0  0  0  0  0  0
  -28.3680  -26.6660   20.1830 O   0  0  0  0  0  0  0  0  0  0  0  0
  -24.5620  -31.8320   23.2280 C   0  0  0  0  0  0  0  0  0  0  0  0
  -27.1920  -27.3800   20.1520 C   0  0  0  0  0  0  0  0  0  0  0  0
  -23.3530  -30.4350   21.5850 C   0  0  0  0  0  3  0  0  0  0  0  0
  -24.8010  -28.8890   20.1670 C   0  0  0  0  0  0  0  0  0  0  0  0
  -25.8810  -30.7790   21.3970 C   0  0  0  0  0  2  0  0  0  0  0  0
  -25.9580  -29.4070   20.7610 C   0  0  0  0  0  0  0  0  0  0  0  0
  -27.1520  -28.6530   20.7620 C   0  0  0  0  0  3  0  0  0  0  0  0
  -26.0070  -26.8610   19.5800 C   0  0  0  0  0  3  0  0  0  0  0  0
  -24.8180  -27.6130   19.5800 C   0  0  0  0  0  3  0  0  0  0  0  0
  -23.5640  -29.7560   20.2070 C   0  0  0  0  0  2  0  0  0  0  0  0
  -24.6170  -31.0300   22.1280 N   0  0  0  0  0  0  0  0  0  0  0  0
  -23.4790  -32.1110   23.7630 O   0  0  0  0  0  0  0  0  0  0  0  0
  -22.6950  -29.4150   22.5430 C   0  0  0  0  0  0  0  0  0  0  0  0
  -21.3690  -29.2450   22.4130 N   0  0  0  0  0  0  0  0  0  0  0  0
  -23.3730  -28.7830   23.3570 O   0  0  0  0  0  0  0  0  0  0  0  0
  -20.8860  -29.8090   21.7290 H   0  0  0  0  0  0  0  0  0  0  0  0
  -17.9830  -28.0870   22.8990 C   0  0  0  0  0  0  0  0  0  0  0  0
  -20.5420  -28.3150   23.1790 C   0  0  0  0  0  3  0  0  0  0  0  0
  -20.6300  -26.8830   22.6000 C   0  0  0  0  0  2  0  0  0  0  0  0
  -19.5250  -26.5760   21.5840 C   0  0  0  0  0  2  0  0  0  0  0  0
  -18.1440  -26.7360   22.2250 C   0  0  0  0  0  2  0  0  0  0  0  0
  -19.1090  -28.8360   23.3340 C   0  0  0  0  0  0  0  0  0  0  0  0
  -18.9040  -30.1030   23.9230 C   0  0  0  0  0  3  0  0  0  0  0  0
  -17.6050  -30.6200   24.0850 C   0  0  0  0  0  3  0  0  0  0  0  0
  -16.4940  -29.8680   23.6690 C   0  0  0  0  0  3  0  0  0  0  0  0
  -16.6820  -28.6050   23.0820 C   0  0  0  0  0  3  0  0  0  0  0  0
  -25.8490  -32.4570   23.8510 C   0  0  0  0  0  3  0  0  0  0  0  0
  -25.5470  -33.8560   24.1770 N   0  0  0  0  0  0  0  0  0  0  0  0
  -25.8910  -34.9050   23.4160 C   0  0  0  0  0  0  0  0  0  0  0  0
  -26.5680  -34.7940   22.3900 O   0  0  0  0  0  0  0  0  0  0  0  0
  -24.9480  -34.0160   24.9730 H   0  0  0  0  0  0  0  0  0  0  0  0
  -24.1760  -36.7060   23.0420 C   0  0  0  0  0  1  0  0  0  0  0  0
  -25.4060  -36.2960   23.8670 C   0  0  0  0  0  3  0  0  0  0  0  0
  -27.5390  -37.1670   24.7160 C   0  0  0  0  0  1  0  0  0  0  0  0
  -26.4450  -37.3430   23.7630 N   0  0  0  0  0  0  0  0  0  0  0  0
  -26.0420  -38.2650   23.9100 H   0  0  0  0  0  0  0  0  0  0  0  0
  -26.3590  -31.6840   25.1290 C   0  0  1  0  0  0  0  0  0  0  0  0
  -25.2630  -31.4520   26.1960 C   0  0  0  0  0  1  0  0  0  0  0  0
  -26.9360  -30.3030   24.7360 C   0  0  0  0  0  1  0  0  0  0  0  0
  -27.5120  -32.4730   25.7940 C   0  0  0  0  0  1  0  0  0  0  0  0
  1 50  1  0
  2  1  1  0
  3  1  1  0
  4  5  1  0
  6  9  1  0
  7  8  1  6
  7  1  1  0
  7  4  1  0
  7  6  1  0
  9  5  1  0
  9 10  1  0
 11 10  1  0
 11 12  1  0
 12 13  1  0
 14 13  1  0
 15 20  1  0
 16 17  1  0
 16 15  1  0
 18 17  1  0
 18 25  1  0
 18 19  1  0
 20 14  1  0
 20 19  1  0
 21 14  2  0
 22 23  2  0
 23 42  1  0
 24 23  1  0
 24 27  1  0
 25 22  1  0
 25 26  1  0
 26 24  2  0
 27 28  1  0
 28 29  2  0
 30 33  1  0
 30 29  1  0
 31 30  2  0
 32 31  1  0
 32 27  2  0
 33 34  1  0
 34 35  1  0
 35 36  2  0
 37 36  1  0
 37 41  1  0
 38 37  2  0
 39 34  2  0
 39 38  1  0
 40 39  1  0
 42 43  1  0
 43 46  1  0
 43 45  1  0
 44 42  2  0
 47 48  1  0
 47 22  1  0
 49 47  1  0
 51 50  1  0
 52 51  1  0
 52 53  1  0
 54 65  2  0
 55 53  1  0
 55 60  1  0
 56 64  1  0
 56 66  1  0
 57 63  1  0
 57 59  1  0
 58 64  1  0
 59 60  2  0
 59 58  1  0
 61 62  1  0
 61 55  2  0
 62 57  2  0
 63 56  1  0
 64 54  1  0
 66 68  2  0
 67 66  1  0
 69 67  1  0
 70 79  2  0
 70 75  1  0
 71 67  1  0
 71 75  1  0
 72 71  1  0
 73 74  1  0
 73 72  1  0
 74 70  1  0
 75 76  2  0
 76 77  1  0
 78 77  2  0
 79 78  1  0
 80 54  1  0
 80 81  1  0
 80 90  1  0
 81 84  1  0
 82 86  1  0
 82 81  1  0
 83 82  2  0
 86 85  1  0
 88 86  1  0
 88 89  1  0
 88 87  1  0
 90 93  1  1
 90 91  1  0
 92 90  1  0
M  ISO  4  13 100  14 100  52 101  53 101
M  END
>  <TORSDO>  (38) 
F 24

>  <SCORE>  (38) 
-12.224

>  <name>  (38) 
37

>  <ligand_id>  (38) 
37

>  <original_smiles>  (38) 
[H]c1c([H])c([H])c2c(c1[H])C([H])([H])C([H])([H])C([H])([H])C2([H])N([H])C(=O)C1([H])N(C(=O)C([H])(N([H])C(=O)C([H])(N([H])C([H])([H])[H])C([H])([H])[H])C(C([H])([H])[H])(C([H])([H])[H])C([H])([H])[H])C([H])([H])c2c([H])c(OC([H])([H])C([H])([H])C([H])([H])[N+]([H])([H])C3(C([H])([H])[H])C([H])([H])N(C([H])([H])C([H])([H])C([H])([H])C([H])([H])C(=O)N4C([H])([H])C([H])([H])C([H])([H])C([H])(n5nc(-c6c([H])c([H])c(Oc7c([H])c([H])c(F)c([H])c7F)c([H])c6[H])c(C(=O)N([H])[H])c5N([H])[H])C4([H])[H])C([H])([H])C3([H])[H])c([H])c([H])c2C1([H])[H]

>  <smiles>  (38) 
[H]c1c([H])c([H])c2c(c1[H])C([H])([H])C([H])([H])C([H])([H])C2([H])N([H])C(=O)C1([H])N(C(=O)C([H])(N([H])C(=O)C([H])(N([H])C([H])([H])[H])C([H])([H])[H])C(C([H])([H])[H])(C([H])([H])[H])C([H])([H])[H])C([H])([H])c2c([H])c(OC([H])([H])C([H])([H])C([H])([H])[N+]([H])([H])C3(C([H])([H])[H])C([H])([H])N(C([H])([H])C([H])([H])C([H])([H])C([H])([H])C(=O)N4C([H])([H])C([H])([H])C([H])([H])C([H])(n5nc(-c6c([H])c([H])c(Oc7c([H])c([H])c(F)c([H])c7F)c([H])c6[H])c(C(=O)N([H])[H])c5N([H])[H])C4([H])[H])C([H])([H])C3([H])[H])c([H])c([H])c2C1([H])[H]

$$$$
38:0:0
     RDKit          3D

 96105  0  0  1  0  0  0  0  0999 V2000
  -29.6550  -19.1870   19.8920 C   0  0  0  0  0  3  0  0  0  0  0  0
  -23.8390  -21.3820   17.6450 C   0  0  0  0  0  2  0  0  0  0  0  0
  -24.8790  -22.0120   16.7090 C   0  0  0  0  0  2  0  0  0  0  0  0
  -24.1580  -19.9040   17.9180 C   0  0  0  0  0  2  0  0  0  0  0  0
  -26.3110  -21.8150   17.2360 C   0  0  0  0  0  2  0  0  0  0  0  0
  -25.9020  -18.3330   18.9160 C   0  0  0  0  0  2  0  0  0  0  0  0
  -27.1880  -18.3060   19.7540 C   0  0  0  0  0  2  0  0  0  0  0  0
  -28.0620  -20.2030   18.1180 C   0  0  0  0  0  2  0  0  0  0  0  0
  -25.5600  -19.7760   18.5350 C   0  0  0  0  0  3  0  0  0  0  0  0
  -26.6240  -20.3400   17.5700 C   0  0  0  0  0  3  0  0  0  0  0  0
  -28.3760  -18.9630   19.0160 C   0  0  0  0  0  3  0  0  0  0  0  0
  -29.6580  -20.5210   20.7550 N   0  0  0  0  0  4  0  0  0  0  0  0
  -29.5500  -20.2350   21.7160 H   0  0  0  0  0  0  0  0  0  0  0  0
  -30.6010  -20.8740   20.6910 H   0  0  0  0  0  0  0  0  0  0  0  0
  -28.7130  -21.7780   20.5700 C   0  0  0  0  0  2  0  0  0  0  0  0
  -29.1300  -23.3440   20.9610 C   0  0  0  0  0  3  0  0  0  0  0  0
  -28.1420  -24.6230   20.5650 C   0  0  0  0  0  3  0  0  0  0  0  0
  -28.3960  -26.1220   20.8020 O   0  0  0  0  0  0  0  0  0  0  0  0
  -24.6800  -31.8740   23.4130 C   0  0  0  0  0  0  0  0  0  0  0  0
  -27.3370  -27.0750   20.6490 C   0  0  0  0  0  0  0  0  0  0  0  0
  -23.5320  -30.4340   21.7710 C   0  0  0  0  0  3  0  0  0  0  0  0
  -25.0200  -28.8040   20.4650 C   0  0  0  0  0  0  0  0  0  0  0  0
  -26.0860  -30.6860   21.7010 C   0  0  0  0  0  2  0  0  0  0  0  0
  -26.1770  -29.2750   21.1000 C   0  0  0  0  0  0  0  0  0  0  0  0
  -27.3390  -28.4270   21.1690 C   0  0  0  0  0  3  0  0  0  0  0  0
  -26.1550  -26.6960   19.9730 C   0  0  0  0  0  3  0  0  0  0  0  0
  -25.0200  -27.5280   19.8860 C   0  0  0  0  0  3  0  0  0  0  0  0
  -23.8000  -29.7050   20.4280 C   0  0  0  0  0  2  0  0  0  0  0  0
  -24.7840  -31.0200   22.3500 N   0  0  0  0  0  0  0  0  0  0  0  0
  -23.5770  -32.1900   23.8820 O   0  0  0  0  0  0  0  0  0  0  0  0
  -22.7980  -29.4720   22.7370 C   0  0  0  0  0  0  0  0  0  0  0  0
  -21.4790  -29.3090   22.5460 N   0  0  0  0  0  0  0  0  0  0  0  0
  -23.4210  -28.8710   23.6160 O   0  0  0  0  0  0  0  0  0  0  0  0
  -21.0440  -29.8370   21.8040 H   0  0  0  0  0  0  0  0  0  0  0  0
  -18.0510  -28.2020   22.9420 C   0  0  0  0  0  0  0  0  0  0  0  0
  -20.6020  -28.4150   23.3050 C   0  0  0  0  0  3  0  0  0  0  0  0
  -20.6950  -26.9690   22.7680 C   0  0  0  0  0  2  0  0  0  0  0  0
  -19.6230  -26.6400   21.7220 C   0  0  0  0  0  2  0  0  0  0  0  0
  -18.2210  -26.8320   22.3090 C   0  0  0  0  0  2  0  0  0  0  0  0
  -19.1680  -28.9530   23.3940 C   0  0  0  0  0  0  0  0  0  0  0  0
  -18.9560  -30.2330   23.9470 C   0  0  0  0  0  3  0  0  0  0  0  0
  -17.6560  -30.7640   24.0540 C   0  0  0  0  0  3  0  0  0  0  0  0
  -16.5510  -30.0120   23.6200 C   0  0  0  0  0  3  0  0  0  0  0  0
  -16.7500  -28.7350   23.0670 C   0  0  0  0  0  3  0  0  0  0  0  0
  -25.9390  -32.5130   24.0710 C   0  0  0  0  0  3  0  0  0  0  0  0
  -25.6430  -33.9350   24.3040 N   0  0  0  0  0  0  0  0  0  0  0  0
  -26.0340  -34.9390   23.5070 C   0  0  0  0  0  0  0  0  0  0  0  0
  -26.7530  -34.7620   22.5190 O   0  0  0  0  0  0  0  0  0  0  0  0
  -24.9980  -34.1390   25.0550 H   0  0  0  0  0  0  0  0  0  0  0  0
  -24.3690  -36.7520   22.9780 C   0  0  0  0  0  1  0  0  0  0  0  0
  -25.5620  -36.3630   23.8660 C   0  0  0  0  0  3  0  0  0  0  0  0
  -27.6760  -37.2540   24.7500 C   0  0  0  0  0  1  0  0  0  0  0  0
  -26.6250  -37.3840   23.7420 N   0  0  0  0  0  0  0  0  0  0  0  0
  -26.2360  -38.3220   23.8100 H   0  0  0  0  0  0  0  0  0  0  0  0
  -26.3520  -31.8080   25.4190 C   0  0  1  0  0  0  0  0  0  0  0  0
  -25.1830  -31.6450   26.4210 C   0  0  0  0  0  1  0  0  0  0  0  0
  -26.9310  -30.4020   25.1470 C   0  0  0  0  0  1  0  0  0  0  0  0
  -27.4720  -32.6240   26.1080 C   0  0  0  0  0  1  0  0  0  0  0  0
  -30.2650  -17.7430   20.4920 C   0  0  0  0  0  2  0  0  0  0  0  0
  -29.8250  -16.2280   19.9500 C   0  0  0  0  0  2  0  0  0  0  0  0
  -30.7240  -14.8510   19.9050 C   0  0  0  0  0  0  0  0  0  0  0  0
  -30.5280  -12.5460   18.9270 C   0  0  0  0  0  2  0  0  0  0  0  0
  -29.5200  -12.6200   17.7570 C   0  0  0  0  0  2  0  0  0  0  0  0
  -28.0750  -12.4390   18.2670 C   0  0  0  0  0  2  0  0  0  0  0  0
  -27.7650  -13.3110   19.5120 C   0  0  0  0  0  3  0  0  0  0  0  0
  -28.8880  -13.2200   20.5650 C   0  0  0  0  0  2  0  0  0  0  0  0
  -30.1510  -13.5900   19.9110 N   0  0  0  0  0  0  0  0  0  0  0  0
  -31.9190  -14.9360   19.5970 O   0  0  0  0  0  0  0  0  0  0  0  0
  -25.4310  -13.9020   20.3900 C   0  0  0  0  0  0  0  0  0  0  0  0
  -24.3750  -13.1300   20.8010 C   0  0  0  0  0  0  0  0  0  0  0  0
  -24.8220  -11.7770   20.7160 C   0  0  0  0  0  0  0  0  0  0  0  0
  -26.4480  -13.0180   20.0750 N   0  0  0  0  0  0  0  0  0  0  0  0
  -26.0940  -11.7330   20.3340 N   0  0  0  0  0  0  0  0  0  0  0  0
  -24.0890  -10.5190   20.9210 C   0  0  0  0  0  0  0  0  0  0  0  0
  -24.5060   -9.5650   21.8760 C   0  0  0  0  0  3  0  0  0  0  0  0
  -23.7700   -8.3750   22.0670 C   0  0  0  0  0  3  0  0  0  0  0  0
  -22.6050   -8.1290   21.3020 C   0  0  0  0  0  0  0  0  0  0  0  0
  -22.2060   -9.0740   20.3390 C   0  0  0  0  0  3  0  0  0  0  0  0
  -22.9410  -10.2560   20.1480 C   0  0  0  0  0  3  0  0  0  0  0  0
  -21.8460   -6.9890   21.3990 O   0  0  0  0  0  0  0  0  0  0  0  0
  -21.7230   -6.3050   22.5830 C   0  0  0  0  0  0  0  0  0  0  0  0
  -21.1980   -6.9160   23.7420 C   0  0  0  0  0  3  0  0  0  0  0  0
  -21.0250   -6.1590   24.9200 C   0  0  0  0  0  3  0  0  0  0  0  0
  -21.3660   -4.7940   24.9350 C   0  0  0  0  0  0  0  0  0  0  0  0
  -21.8790   -4.1810   23.7790 C   0  0  0  0  0  3  0  0  0  0  0  0
  -22.0550   -4.9350   22.6050 C   0  0  0  0  0  0  0  0  0  0  0  0
  -22.5330   -4.3380   21.4870 F   0  0  0  0  0  0  0  0  0  0  0  0
  -21.1920   -4.0630   26.0620 F   0  0  0  0  0  0  0  0  0  0  0  0
  -23.0030  -13.6210   21.1570 C   0  0  0  0  0  0  0  0  0  0  0  0
  -22.3130  -12.9190   22.0500 N   0  0  0  0  0  0  0  0  0  0  0  0
  -22.5500  -14.6610   20.6810 O   0  0  0  0  0  0  0  0  0  0  0  0
  -22.6880  -12.0730   22.4550 H   0  0  0  0  0  0  0  0  0  0  0  0
  -21.3970  -13.2350   22.3390 H   0  0  0  0  0  0  0  0  0  0  0  0
  -25.5990  -15.2720   20.2410 N   0  0  0  0  0  0  0  0  0  0  0  0
  -24.8440  -15.9240   20.4210 H   0  0  0  0  0  0  0  0  0  0  0  0
  -26.4350  -15.7180   19.8900 H   0  0  0  0  0  0  0  0  0  0  0  0
  1 59  1  0
  1 12  1  0
  2  4  1  0
  3  5  1  0
  3  2  1  0
  6  7  1  0
  8 11  1  0
  9  4  1  0
  9  6  1  0
 10  5  1  0
 10  8  1  0
 10  9  1  0
 11  7  1  0
 11  1  1  0
 12 13  1  0
 14 12  1  0
 15 12  1  0
 15 16  1  0
 17 18  1  0
 17 16  2  0
 19 30  2  0
 20 18  1  0
 20 25  1  0
 21 29  1  0
 21 31  1  0
 22 24  1  0
 23 29  1  0
 24 25  2  0
 24 23  1  0
 26 20  2  0
 27 26  1  0
 27 22  2  0
 28 22  1  0
 28 21  1  0
 29 19  1  0
 31 33  2  0
 32 31  1  0
 34 32  1  0
 35 44  2  0
 35 40  1  0
 36 32  1  0
 36 40  1  0
 37 36  1  0
 38 39  1  0
 38 37  1  0
 39 35  1  0
 40 41  2  0
 41 42  1  0
 43 42  2  0
 44 43  1  0
 45 19  1  0
 45 46  1  0
 45 55  1  0
 46 49  1  0
 47 51  1  0
 47 46  1  0
 48 47  2  0
 51 50  1  0
 53 54  1  0
 53 51  1  0
 53 52  1  0
 55 58  1  1
 55 56  1  0
 57 55  1  0
 60 59  1  0
 61 67  1  0
 61 60  1  0
 62 67  1  0
 63 64  1  0
 63 62  1  0
 65 64  1  0
 65 72  1  0
 65 66  1  0
 67 66  1  0
 68 61  2  0
 69 70  2  0
 70 89  1  0
 71 70  1  0
 71 74  1  0
 72 73  1  0
 72 69  1  0
 73 71  2  0
 74 75  1  0
 75 76  2  0
 77 80  1  0
 77 76  1  0
 78 77  2  0
 79 78  1  0
 79 74  2  0
 80 81  1  0
 81 86  2  0
 81 82  1  0
 82 83  2  0
 83 84  1  0
 84 88  1  0
 85 84  2  0
 86 85  1  0
 87 86  1  0
 89 90  1  0
 90 93  1  0
 90 92  1  0
 91 89  2  0
 94 69  1  0
 94 95  1  0
 96 94  1  0
M  ISO  4  17 101  18 101  60 100  61 100
M  END
>  <TORSDO>  (39) 
F 23

>  <SCORE>  (39) 
-9.902

>  <name>  (39) 
38

>  <ligand_id>  (39) 
38

>  <original_smiles>  (39) 
[H]c1c([H])c([H])c2c(c1[H])C([H])([H])C([H])([H])C([H])([H])C2([H])N([H])C(=O)C1([H])N(C(=O)C([H])(N([H])C(=O)C([H])(N([H])C([H])([H])[H])C([H])([H])[H])C(C([H])([H])[H])(C([H])([H])[H])C([H])([H])[H])C([H])([H])c2c([H])c(OC([H])([H])C([H])([H])C([H])([H])[N+]([H])([H])C([H])(C([H])([H])C([H])([H])C(=O)N3C([H])([H])C([H])([H])C([H])([H])C([H])(n4nc(-c5c([H])c([H])c(Oc6c([H])c([H])c(F)c([H])c6F)c([H])c5[H])c(C(=O)N([H])[H])c4N([H])[H])C3([H])[H])C3([H])C([H])([H])C([H])([H])C4([H])C([H])([H])C([H])([H])C([H])([H])C([H])([H])C4([H])C3([H])[H])c([H])c([H])c2C1([H])[H]

>  <smiles>  (39) 
[H]c1c([H])c([H])c2c(c1[H])C([H])([H])C([H])([H])C([H])([H])C2([H])N([H])C(=O)C1([H])N(C(=O)C([H])(N([H])C(=O)C([H])(N([H])C([H])([H])[H])C([H])([H])[H])C(C([H])([H])[H])(C([H])([H])[H])C([H])([H])[H])C([H])([H])c2c([H])c(OC([H])([H])C([H])([H])C([H])([H])[N+]([H])([H])C([H])(C([H])([H])C([H])([H])C(=O)N3C([H])([H])C([H])([H])C([H])([H])C([H])(n4nc(-c5c([H])c([H])c(Oc6c([H])c([H])c(F)c([H])c6F)c([H])c5[H])c(C(=O)N([H])[H])c4N([H])[H])C3([H])[H])C3([H])C([H])([H])C([H])([H])C4([H])C([H])([H])C([H])([H])C([H])([H])C([H])([H])C4([H])C3([H])[H])c([H])c([H])c2C1([H])[H]

$$$$
39:0:0
     RDKit          3D

 84 88  0  0  1  0  0  0  0  0999 V2000
  -27.0810  -20.2800   20.2190 C   0  0  0  0  0  2  0  0  0  0  0  0
  -27.9100  -19.6010   19.1030 C   0  0  0  0  0  2  0  0  0  0  0  0
  -27.9610  -21.2890   20.9900 C   0  0  0  0  0  2  0  0  0  0  0  0
  -29.3830  -19.7800   19.4690 C   0  0  0  0  0  1  0  0  0  0  0  0
  -29.0700  -21.7170   20.0360 C   0  0  0  0  0  1  0  0  0  0  0  0
  -29.8850  -17.8890   20.0970 C   0  0  0  0  0 15  0  0  0  0  0  0
  -30.5230  -16.0710   19.6840 C   0  0  0  0  0  2  0  0  0  0  0  0
  -30.6430  -13.4350   18.9460 C   0  0  0  0  0  2  0  0  0  0  0  0
  -29.7080  -12.9370   17.7980 C   0  0  0  0  0  2  0  0  0  0  0  0
  -28.3310  -12.5380   18.3420 C   0  0  0  0  0  2  0  0  0  0  0  0
  -27.8500  -13.5650   19.3870 C   0  0  0  0  0  3  0  0  0  0  0  0
  -28.9230  -13.9810   20.4280 C   0  0  0  0  0  2  0  0  0  0  0  0
  -30.0470  -14.6510   19.7120 N   0  0  0  0  0  0  0  0  0  0  0  0
  -31.7170  -15.9400   19.3260 O   0  0  0  0  0  1  0  0  0  0  0  0
  -25.5720  -14.0880   20.3660 C   0  0  0  0  0  0  0  0  0  0  0  0
  -24.5250  -13.3120   20.7740 C   0  0  0  0  0  0  0  0  0  0  0  0
  -24.9580  -11.9560   20.6370 C   0  0  0  0  0  0  0  0  0  0  0  0
  -26.5730  -13.2120   19.9940 N   0  0  0  0  0  0  0  0  0  0  0  0
  -26.2230  -11.9160   20.2210 N   0  0  0  0  0  0  0  0  0  0  0  0
  -24.2130  -10.7020   20.8210 C   0  0  0  0  0  0  0  0  0  0  0  0
  -24.6470   -9.7040   21.7210 C   0  0  0  0  0  3  0  0  0  0  0  0
  -23.8980   -8.5200   21.8960 C   0  0  0  0  0  3  0  0  0  0  0  0
  -22.6960   -8.3260   21.1740 C   0  0  0  0  0  0  0  0  0  0  0  0
  -22.2780   -9.3110   20.2630 C   0  0  0  0  0  3  0  0  0  0  0  0
  -23.0290  -10.4850   20.0840 C   0  0  0  0  0  3  0  0  0  0  0  0
  -21.9170   -7.1960   21.2610 O   0  0  0  0  0  0  0  0  0  0  0  0
  -21.8410   -6.4620   22.4170 C   0  0  0  0  0  0  0  0  0  0  0  0
  -21.3740   -7.0210   23.6270 C   0  0  0  0  0  3  0  0  0  0  0  0
  -21.2460   -6.2120   24.7740 C   0  0  0  0  0  3  0  0  0  0  0  0
  -21.5730   -4.8450   24.7120 C   0  0  0  0  0  0  0  0  0  0  0  0
  -22.0320   -4.2840   23.5070 C   0  0  0  0  0  3  0  0  0  0  0  0
  -22.1620   -5.0900   22.3620 C   0  0  0  0  0  0  0  0  0  0  0  0
  -22.5840   -4.5400   21.1980 F   0  0  0  0  0  0  0  0  0  0  0  0
  -21.4430   -4.0650   25.8110 F   0  0  0  0  0  0  0  0  0  0  0  0
  -23.1640  -13.8050   21.1680 C   0  0  0  0  0  0  0  0  0  0  0  0
  -22.4970  -13.1050   22.0770 N   0  0  0  0  0  0  0  0  0  0  0  0
  -22.7080  -14.8490   20.7040 O   0  0  0  0  0  0  0  0  0  0  0  0
  -22.8820  -12.2620   22.4740 H   0  0  0  0  0  0  0  0  0  0  0  0
  -21.5850  -13.4190   22.3810 H   0  0  0  0  0  0  0  0  0  0  0  0
  -25.7540  -15.4620   20.2470 N   0  0  0  0  0  0  0  0  0  0  0  0
  -25.0170  -16.1260   20.4590 H   0  0  0  0  0  0  0  0  0  0  0  0
  -26.5900  -15.9000   19.8810 H   0  0  0  0  0  0  0  0  0  0  0  0
  -28.4480  -23.5960   19.4750 C   0  0  0  0  0  1  0  0  0  0  0  0
  -28.3450  -25.4040   19.8660 O   0  0  0  0  0  0  0  0  0  0  0  0
  -24.6620  -31.6780   22.9840 C   0  0  0  0  0  0  0  0  0  0  0  0
  -27.3440  -26.6570   19.8120 C   0  0  0  0  0  0  0  0  0  0  0  0
  -23.5100  -30.2760   21.3250 C   0  0  0  0  0  3  0  0  0  0  0  0
  -25.0040  -28.6990   19.8470 C   0  0  0  0  0  0  0  0  0  0  0  0
  -26.0880  -30.4790   21.1880 C   0  0  0  0  0  2  0  0  0  0  0  0
  -26.1970  -29.0530   20.4860 C   0  0  0  0  0  0  0  0  0  0  0  0
  -27.3360  -28.0630   20.4380 C   0  0  0  0  0  3  0  0  0  0  0  0
  -26.1070  -26.5590   19.1120 C   0  0  0  0  0  3  0  0  0  0  0  0
  -25.0070  -27.4840   19.1340 C   0  0  0  0  0  3  0  0  0  0  0  0
  -23.7650  -29.6170   19.9340 C   0  0  0  0  0  2  0  0  0  0  0  0
  -24.7790  -30.8480   21.8840 N   0  0  0  0  0  0  0  0  0  0  0  0
  -23.5620  -31.9250   23.5110 O   0  0  0  0  0  0  0  0  0  0  0  0
  -22.8340  -29.2570   22.2830 C   0  0  0  0  0  0  0  0  0  0  0  0
  -21.5040  -29.0640   22.1780 N   0  0  0  0  0  0  0  0  0  0  0  0
  -23.5210  -28.6370   23.0980 O   0  0  0  0  0  0  0  0  0  0  0  0
  -20.9930  -29.6190   21.5050 H   0  0  0  0  0  0  0  0  0  0  0  0
  -18.1710  -27.7090   22.7200 C   0  0  0  0  0  0  0  0  0  0  0  0
  -20.7250  -28.0760   22.9360 C   0  0  0  0  0  3  0  0  0  0  0  0
  -20.8690  -26.6640   22.3200 C   0  0  0  0  0  2  0  0  0  0  0  0
  -19.7610  -26.3280   21.3160 C   0  0  0  0  0  2  0  0  0  0  0  0
  -18.3880  -26.3920   21.9900 C   0  0  0  0  0  2  0  0  0  0  0  0
  -19.2660  -28.5060   23.1480 C   0  0  0  0  0  0  0  0  0  0  0  0
  -19.0040  -29.7320   23.7970 C   0  0  0  0  0  3  0  0  0  0  0  0
  -17.6810  -30.1640   24.0150 C   0  0  0  0  0  3  0  0  0  0  0  0
  -16.6020  -29.3670   23.5970 C   0  0  0  0  0  3  0  0  0  0  0  0
  -16.8480  -28.1390   22.9560 C   0  0  0  0  0  3  0  0  0  0  0  0
  -25.9010  -32.3670   23.6320 C   0  0  0  0  0  3  0  0  0  0  0  0
  -25.5250  -33.7460   24.0080 N   0  0  0  0  0  0  0  0  0  0  0  0
  -25.8360  -34.8520   23.3180 C   0  0  0  0  0  0  0  0  0  0  0  0
  -26.5230  -34.8210   22.2960 O   0  0  0  0  0  0  0  0  0  0  0  0
  -24.9110  -33.8400   24.8050 H   0  0  0  0  0  0  0  0  0  0  0  0
  -24.0720  -36.6320   23.0310 C   0  0  0  0  0  1  0  0  0  0  0  0
  -25.3060  -36.2060   23.8420 C   0  0  0  0  0  3  0  0  0  0  0  0
  -27.3910  -37.1150   24.7760 C   0  0  0  0  0  1  0  0  0  0  0  0
  -26.3140  -37.2900   23.8050 N   0  0  0  0  0  0  0  0  0  0  0  0
  -25.8780  -38.1920   23.9760 H   0  0  0  0  0  0  0  0  0  0  0  0
  -26.4390  -31.6010   24.9050 C   0  0  1  0  0  0  0  0  0  0  0  0
  -25.3540  -31.3240   25.9730 C   0  0  0  0  0  1  0  0  0  0  0  0
  -27.0620  -30.2430   24.5170 C   0  0  0  0  0  1  0  0  0  0  0  0
  -27.5660  -32.4230   25.5750 C   0  0  0  0  0  1  0  0  0  0  0  0
  1  3  1  0
  2  4  1  0
  2  1  1  0
  5  3  1  0
  7 13  1  0
  8 13  1  0
  9 10  1  0
  9  8  1  0
 11 10  1  0
 11 18  1  0
 11 12  1  0
 13 12  1  0
 14  7  1  0
 15 16  2  0
 16 35  1  0
 17 16  1  0
 17 20  1  0
 18 19  1  0
 18 15  1  0
 19 17  2  0
 20 21  1  0
 21 22  2  0
 23 26  1  0
 23 22  1  0
 24 23  2  0
 25 24  1  0
 25 20  2  0
 26 27  1  0
 27 28  1  0
 28 29  2  0
 30 29  1  0
 30 34  1  0
 31 30  2  0
 32 27  2  0
 32 31  1  0
 33 32  1  0
 35 36  1  0
 36 39  1  0
 36 38  1  0
 37 35  2  0
 40 15  1  0
 40 41  1  0
 42 40  1  0
 43 44  1  0
 45 56  2  0
 46 44  1  0
 46 51  1  0
 47 55  1  0
 47 57  1  0
 48 54  1  0
 48 50  1  0
 49 55  1  0
 50 49  1  0
 51 50  2  0
 52 53  1  0
 52 46  2  0
 53 48  2  0
 54 47  1  0
 55 45  1  0
 57 59  2  0
 58 57  1  0
 60 58  1  0
 61 70  2  0
 61 66  1  0
 62 58  1  0
 62 66  1  0
 63 62  1  0
 64 65  1  0
 64 63  1  0
 65 61  1  0
 66 67  2  0
 67 68  1  0
 69 68  2  0
 70 69  1  0
 71 45  1  0
 71 72  1  0
 71 81  1  0
 72 75  1  0
 73 77  1  0
 73 72  1  0
 74 73  2  0
 77 76  1  0
 79 77  1  0
 79 80  1  0
 79 78  1  0
 81 84  1  1
 81 82  1  0
 83 81  1  0
M  ISO  4   6 100   7 100  43 101  44 101
M  END
>  <TORSDO>  (40) 
F 18

>  <SCORE>  (40) 
-14.834

>  <name>  (40) 
39

>  <ligand_id>  (40) 
39

>  <original_smiles>  (40) 
[H]c1c([H])c([H])c2c(c1[H])C([H])([H])C([H])([H])C([H])([H])C2([H])N([H])C(=O)C1([H])N(C(=O)C([H])(N([H])C(=O)C([H])(N([H])C([H])([H])[H])C([H])([H])[H])C(C([H])([H])[H])(C([H])([H])[H])C([H])([H])[H])C([H])([H])c2c([H])c(OC([H])([H])C3([H])C([H])([H])C([H])([H])C([H])([H])C3([H])C([H])([H])C(=O)N3C([H])([H])C([H])([H])C([H])([H])C([H])(n4nc(-c5c([H])c([H])c(Oc6c([H])c([H])c(F)c([H])c6F)c([H])c5[H])c(C(=O)N([H])[H])c4N([H])[H])C3([H])[H])c([H])c([H])c2C1([H])[H]

>  <smiles>  (40) 
[H]c1c([H])c([H])c2c(c1[H])C([H])([H])C([H])([H])C([H])([H])C2([H])N([H])C(=O)C1([H])N(C(=O)C([H])(N([H])C(=O)C([H])(N([H])C([H])([H])[H])C([H])([H])[H])C(C([H])([H])[H])(C([H])([H])[H])C([H])([H])[H])C([H])([H])c2c([H])c(OC([H])([H])C3([H])C([H])([H])C([H])([H])C([H])([H])C3([H])C([H])([H])C(=O)N3C([H])([H])C([H])([H])C([H])([H])C([H])(n4nc(-c5c([H])c([H])c(Oc6c([H])c([H])c(F)c([H])c6F)c([H])c5[H])c(C(=O)N([H])[H])c4N([H])[H])C3([H])[H])c([H])c([H])c2C1([H])[H]

$$$$
40:0:0
     RDKit          3D

 87 93  0  0  1  0  0  0  0  0999 V2000
  -32.3250  -19.3920   21.5290 C   0  0  0  0  0  2  0  0  0  0  0  0
  -32.0980  -20.5930   22.4700 C   0  0  0  0  0  2  0  0  0  0  0  0
  -31.9880  -19.6990   20.0550 C   0  0  0  0  0  2  0  0  0  0  0  0
  -30.6580  -21.1290   22.3880 C   0  0  0  0  0  2  0  0  0  0  0  0
  -30.6540  -20.4330   19.8650 C   0  0  0  0  0  3  0  0  0  0  0  0
  -30.2930  -21.5000   20.9470 C   0  0  0  0  0  3  0  0  0  0  0  0
  -29.3000  -19.6980   20.0000 C   0  0  0  0  0  1  0  0  0  0  0  0
  -28.8090  -21.5900   20.5380 C   0  0  0  0  0  1  0  0  0  0  0  0
  -29.3790  -17.7000   20.5040 C   0  0  0  0  0  1  0  0  0  0  0  0
  -30.1620  -15.9220   20.2010 C   0  0  0  0  0  0  0  0  0  0  0  0
  -30.3380  -13.3020   19.4270 C   0  0  0  0  0  2  0  0  0  0  0  0
  -29.4720  -12.8120   18.2200 C   0  0  0  0  0  2  0  0  0  0  0  0
  -28.0590  -12.4170   18.6670 C   0  0  0  0  0  2  0  0  0  0  0  0
  -27.5180  -13.4310   19.6950 C   0  0  0  0  0  3  0  0  0  0  0  0
  -28.5270  -13.8230   20.8060 C   0  0  0  0  0  2  0  0  0  0  0  0
  -29.6930  -14.5010   20.1700 N   0  0  0  0  0  0  0  0  0  0  0  0
  -31.3850  -15.8150   19.9570 O   0  0  0  0  0  0  0  0  0  0  0  0
  -25.1520  -13.9430   20.4400 C   0  0  0  0  0  0  0  0  0  0  0  0
  -24.0920  -13.1620   20.8030 C   0  0  0  0  0  0  0  0  0  0  0  0
  -24.5680  -11.8130   20.7880 C   0  0  0  0  0  0  0  0  0  0  0  0
  -26.2010  -13.0760   20.2110 N   0  0  0  0  0  0  0  0  0  0  0  0
  -25.8650  -11.7860   20.4870 N   0  0  0  0  0  0  0  0  0  0  0  0
  -23.8410  -10.5510   20.9850 C   0  0  0  0  0  0  0  0  0  0  0  0
  -24.2690   -9.5870   21.9250 C   0  0  0  0  0  3  0  0  0  0  0  0
  -23.5390   -8.3930   22.1130 C   0  0  0  0  0  3  0  0  0  0  0  0
  -22.3660   -8.1530   21.3580 C   0  0  0  0  0  0  0  0  0  0  0  0
  -21.9530   -9.1050   20.4100 C   0  0  0  0  0  3  0  0  0  0  0  0
  -22.6840  -10.2910   20.2210 C   0  0  0  0  0  3  0  0  0  0  0  0
  -21.6070   -7.0100   21.4540 O   0  0  0  0  0  0  0  0  0  0  0  0
  -21.5660   -6.2660   22.6060 C   0  0  0  0  0  0  0  0  0  0  0  0
  -21.1550   -6.8230   23.8360 C   0  0  0  0  0  3  0  0  0  0  0  0
  -21.0600   -6.0070   24.9810 C   0  0  0  0  0  3  0  0  0  0  0  0
  -21.3660   -4.6350   24.8970 C   0  0  0  0  0  0  0  0  0  0  0  0
  -21.7700   -4.0780   23.6710 C   0  0  0  0  0  3  0  0  0  0  0  0
  -21.8660   -4.8920   22.5280 C   0  0  0  0  0  0  0  0  0  0  0  0
  -22.2340   -4.3440   21.3440 F   0  0  0  0  0  0  0  0  0  0  0  0
  -21.2680   -3.8510   25.9950 F   0  0  0  0  0  0  0  0  0  0  0  0
  -22.6910  -13.6350   21.0510 C   0  0  0  0  0  0  0  0  0  0  0  0
  -21.9540  -12.9500   21.9170 N   0  0  0  0  0  0  0  0  0  0  0  0
  -22.2570  -14.6530   20.5120 O   0  0  0  0  0  0  0  0  0  0  0  0
  -22.3180  -12.1240   22.3710 H   0  0  0  0  0  0  0  0  0  0  0  0
  -21.0160  -13.2540   22.1320 H   0  0  0  0  0  0  0  0  0  0  0  0
  -25.3080  -15.3120   20.2500 N   0  0  0  0  0  0  0  0  0  0  0  0
  -24.5410  -15.9690   20.3470 H   0  0  0  0  0  0  0  0  0  0  0  0
  -26.1610  -15.7470   19.9170 H   0  0  0  0  0  0  0  0  0  0  0  0
  -28.1990  -23.4860   19.9940 C   0  0  0  0  0  1  0  0  0  0  0  0
  -28.1660  -25.2980   20.3710 O   0  0  0  0  0  0  0  0  0  0  0  0
  -24.6620  -31.8130   23.1710 C   0  0  0  0  0  0  0  0  0  0  0  0
  -27.2160  -26.5860   20.2490 C   0  0  0  0  0  0  0  0  0  0  0  0
  -23.4980  -30.4040   21.5290 C   0  0  0  0  0  3  0  0  0  0  0  0
  -24.9600  -28.7190   20.1490 C   0  0  0  0  0  0  0  0  0  0  0  0
  -26.0810  -30.5060   21.4470 C   0  0  0  0  0  2  0  0  0  0  0  0
  -26.1520  -29.0490   20.8040 C   0  0  0  0  0  0  0  0  0  0  0  0
  -27.2510  -28.0140   20.8200 C   0  0  0  0  0  3  0  0  0  0  0  0
  -25.9920  -26.5100   19.5220 C   0  0  0  0  0  3  0  0  0  0  0  0
  -24.9290  -27.4780   19.4810 C   0  0  0  0  0  3  0  0  0  0  0  0
  -23.7600  -29.6890   20.1710 C   0  0  0  0  0  2  0  0  0  0  0  0
  -24.7720  -30.9440   22.1040 N   0  0  0  0  0  0  0  0  0  0  0  0
  -23.5610  -32.1200   23.6640 O   0  0  0  0  0  0  0  0  0  0  0  0
  -22.7560  -29.4460   22.5040 C   0  0  0  0  0  0  0  0  0  0  0  0
  -21.4200  -29.3170   22.3830 N   0  0  0  0  0  0  0  0  0  0  0  0
  -23.4000  -28.8130   23.3440 O   0  0  0  0  0  0  0  0  0  0  0  0
  -20.9460  -29.8760   21.6880 H   0  0  0  0  0  0  0  0  0  0  0  0
  -18.0170  -28.1390   22.9100 C   0  0  0  0  0  0  0  0  0  0  0  0
  -20.5830  -28.3880   23.1570 C   0  0  0  0  0  3  0  0  0  0  0  0
  -20.6680  -26.9540   22.5840 C   0  0  0  0  0  2  0  0  0  0  0  0
  -19.5600  -26.6450   21.5710 C   0  0  0  0  0  2  0  0  0  0  0  0
  -18.1810  -26.7950   22.2210 C   0  0  0  0  0  2  0  0  0  0  0  0
  -19.1450  -28.8930   23.3350 C   0  0  0  0  0  0  0  0  0  0  0  0
  -18.9350  -30.1460   23.9500 C   0  0  0  0  0  3  0  0  0  0  0  0
  -17.6340  -30.6490   24.1340 C   0  0  0  0  0  3  0  0  0  0  0  0
  -16.5220  -29.8950   23.7190 C   0  0  0  0  0  3  0  0  0  0  0  0
  -16.7150  -28.6420   23.1120 C   0  0  0  0  0  3  0  0  0  0  0  0
  -25.9110  -32.4780   23.8260 C   0  0  0  0  0  3  0  0  0  0  0  0
  -25.5740  -33.8800   24.1590 N   0  0  0  0  0  0  0  0  0  0  0  0
  -25.8960  -34.9510   23.4210 C   0  0  0  0  0  0  0  0  0  0  0  0
  -26.5640  -34.8650   22.3890 O   0  0  0  0  0  0  0  0  0  0  0  0
  -24.9810  -34.0190   24.9620 H   0  0  0  0  0  0  0  0  0  0  0  0
  -24.1470  -36.7440   23.1240 C   0  0  0  0  0  1  0  0  0  0  0  0
  -25.4090  -36.3370   23.9020 C   0  0  0  0  0  3  0  0  0  0  0  0
  -27.5490  -37.2430   24.6950 C   0  0  0  0  0  1  0  0  0  0  0  0
  -26.4290  -37.4020   23.7750 N   0  0  0  0  0  0  0  0  0  0  0  0
  -26.0160  -38.3170   23.9380 H   0  0  0  0  0  0  0  0  0  0  0  0
  -26.3900  -31.7290   25.1320 C   0  0  1  0  0  0  0  0  0  0  0  0
  -25.2670  -31.5130   26.1740 C   0  0  0  0  0  1  0  0  0  0  0  0
  -26.9770  -30.3420   24.7910 C   0  0  0  0  0  1  0  0  0  0  0  0
  -27.5260  -32.5320   25.8120 C   0  0  0  0  0  1  0  0  0  0  0  0
  1  2  1  0
  3  1  1  0
  4  2  1  0
  5  7  1  0
  5  3  1  0
  5  6  1  0
  6  8  1  0
  6  4  1  0
 10  9  1  0
 11 16  1  0
 12 13  1  0
 12 11  1  0
 14 13  1  0
 14 21  1  0
 14 15  1  0
 16 10  1  0
 16 15  1  0
 17 10  2  0
 18 19  2  0
 19 38  1  0
 20 19  1  0
 20 23  1  0
 21 18  1  0
 21 22  1  0
 22 20  2  0
 23 24  1  0
 24 25  2  0
 26 29  1  0
 26 25  1  0
 27 26  2  0
 28 27  1  0
 28 23  2  0
 29 30  1  0
 30 31  1  0
 31 32  2  0
 33 32  1  0
 33 37  1  0
 34 33  2  0
 35 30  2  0
 35 34  1  0
 36 35  1  0
 38 39  1  0
 39 42  1  0
 39 41  1  0
 40 38  2  0
 43 44  1  0
 43 18  1  0
 45 43  1  0
 46 47  1  0
 48 59  2  0
 49 47  1  0
 49 54  1  0
 50 58  1  0
 50 60  1  0
 51 57  1  0
 51 53  1  0
 52 58  1  0
 53 54  2  0
 53 52  1  0
 55 49  2  0
 56 55  1  0
 56 51  2  0
 57 50  1  0
 58 48  1  0
 60 62  2  0
 61 60  1  0
 63 61  1  0
 64 73  2  0
 64 69  1  0
 65 61  1  0
 65 69  1  0
 66 65  1  0
 67 68  1  0
 67 66  1  0
 68 64  1  0
 69 70  2  0
 70 71  1  0
 72 71  2  0
 73 72  1  0
 74 48  1  0
 74 75  1  0
 74 84  1  0
 75 78  1  0
 76 80  1  0
 76 75  1  0
 77 76  2  0
 80 79  1  0
 82 80  1  0
 82 83  1  0
 82 81  1  0
 84 87  1  1
 84 85  1  0
 86 84  1  0
M  ISO  4   9 100  10 100  46 101  47 101
M  END
>  <TORSDO>  (41) 
F 18

>  <SCORE>  (41) 
-16.834

>  <name>  (41) 
40

>  <ligand_id>  (41) 
40

>  <original_smiles>  (41) 
[H]c1c([H])c([H])c2c(c1[H])C([H])([H])C([H])([H])C([H])([H])C2([H])N([H])C(=O)C1([H])N(C(=O)C([H])(N([H])C(=O)C([H])(N([H])C([H])([H])[H])C([H])([H])[H])C(C([H])([H])[H])(C([H])([H])[H])C([H])([H])[H])C([H])([H])c2c([H])c(OC([H])([H])C3([H])C([H])(C([H])([H])C(=O)N4C([H])([H])C([H])([H])C([H])([H])C([H])(n5nc(-c6c([H])c([H])c(Oc7c([H])c([H])c(F)c([H])c7F)c([H])c6[H])c(C(=O)N([H])[H])c5N([H])[H])C4([H])[H])C4([H])C([H])([H])C([H])([H])C([H])([H])C([H])([H])C34[H])c([H])c([H])c2C1([H])[H]

>  <smiles>  (41) 
[H]c1c([H])c([H])c2c(c1[H])C([H])([H])C([H])([H])C([H])([H])C2([H])N([H])C(=O)C1([H])N(C(=O)C([H])(N([H])C(=O)C([H])(N([H])C([H])([H])[H])C([H])([H])[H])C(C([H])([H])[H])(C([H])([H])[H])C([H])([H])[H])C([H])([H])c2c([H])c(OC([H])([H])C3([H])C([H])(C([H])([H])C(=O)N4C([H])([H])C([H])([H])C([H])([H])C([H])(n5nc(-c6c([H])c([H])c(Oc7c([H])c([H])c(F)c([H])c7F)c([H])c6[H])c(C(=O)N([H])[H])c5N([H])[H])C4([H])[H])C4([H])C([H])([H])C([H])([H])C([H])([H])C([H])([H])C34[H])c([H])c([H])c2C1([H])[H]

$$$$
41:0:0
     RDKit          3D

 89 97  0  0  1  0  0  0  0  0999 V2000
  -28.8880  -20.5370   20.2480 N   0  0  0  0  0  4  0  0  0  0  0  0
  -28.4760  -20.5570   19.3290 H   0  0  0  0  0  0  0  0  0  0  0  0
  -28.1470  -20.2420   20.8620 H   0  0  0  0  0  0  0  0  0  0  0  0
  -31.7970  -18.4490   21.5820 C   0  0  0  0  0  2  0  0  0  0  0  0
  -30.5630  -17.6350   21.9440 C   0  0  0  0  0  2  0  0  0  0  0  0
  -31.2210  -19.7380   20.9960 C   0  0  0  0  0  2  0  0  0  0  0  0
  -29.6370  -17.7810   20.7290 C   0  0  0  0  0  3  0  0  0  0  0  0
  -29.9440  -19.3550   20.2120 C   0  0  0  0  0  3  0  0  0  0  0  0
  -29.7070  -16.3820   19.8080 C   0  0  0  0  0  2  0  0  0  0  0  0
  -30.5510  -14.9660   19.9960 C   0  0  0  0  0  0  0  0  0  0  0  0
  -30.3860  -12.6330   19.0580 C   0  0  0  0  0  2  0  0  0  0  0  0
  -29.4010  -12.6410   17.8650 C   0  0  0  0  0  2  0  0  0  0  0  0
  -27.9530  -12.4340   18.3500 C   0  0  0  0  0  2  0  0  0  0  0  0
  -27.6000  -13.3350   19.5580 C   0  0  0  0  0  3  0  0  0  0  0  0
  -28.7030  -13.3230   20.6350 C   0  0  0  0  0  2  0  0  0  0  0  0
  -29.9650  -13.7060   19.9960 N   0  0  0  0  0  0  0  0  0  0  0  0
  -31.7660  -15.0110   19.7820 O   0  0  0  0  0  0  0  0  0  0  0  0
  -25.2580  -13.9110   20.4170 C   0  0  0  0  0  0  0  0  0  0  0  0
  -24.2090  -13.1320   20.8220 C   0  0  0  0  0  0  0  0  0  0  0  0
  -24.6730  -11.7820   20.7560 C   0  0  0  0  0  0  0  0  0  0  0  0
  -26.2880  -13.0350   20.1170 N   0  0  0  0  0  0  0  0  0  0  0  0
  -25.9480  -11.7480   20.3910 N   0  0  0  0  0  0  0  0  0  0  0  0
  -23.9550  -10.5170   20.9610 C   0  0  0  0  0  0  0  0  0  0  0  0
  -24.4070   -9.5520   21.8880 C   0  0  0  0  0  3  0  0  0  0  0  0
  -23.6890   -8.3530   22.0810 C   0  0  0  0  0  3  0  0  0  0  0  0
  -22.5050   -8.1090   21.3460 C   0  0  0  0  0  0  0  0  0  0  0  0
  -22.0720   -9.0620   20.4060 C   0  0  0  0  0  3  0  0  0  0  0  0
  -22.7910  -10.2530   20.2120 C   0  0  0  0  0  3  0  0  0  0  0  0
  -21.7560   -6.9620   21.4480 O   0  0  0  0  0  0  0  0  0  0  0  0
  -21.7080   -6.2340   22.6100 C   0  0  0  0  0  0  0  0  0  0  0  0
  -21.2560   -6.7980   23.8240 C   0  0  0  0  0  3  0  0  0  0  0  0
  -21.1580   -5.9960   24.9790 C   0  0  0  0  0  3  0  0  0  0  0  0
  -21.5010   -4.6320   24.9210 C   0  0  0  0  0  0  0  0  0  0  0  0
  -21.9460   -4.0680   23.7120 C   0  0  0  0  0  3  0  0  0  0  0  0
  -22.0460   -4.8670   22.5600 C   0  0  0  0  0  0  0  0  0  0  0  0
  -22.4550   -4.3140   21.3920 F   0  0  0  0  0  0  0  0  0  0  0  0
  -21.3990   -3.8590   26.0280 F   0  0  0  0  0  0  0  0  0  0  0  0
  -22.8240  -13.6040   21.1530 C   0  0  0  0  0  0  0  0  0  0  0  0
  -22.1300  -12.8970   22.0360 N   0  0  0  0  0  0  0  0  0  0  0  0
  -22.3670  -14.6370   20.6620 O   0  0  0  0  0  0  0  0  0  0  0  0
  -22.5120  -12.0610   22.4540 H   0  0  0  0  0  0  0  0  0  0  0  0
  -21.1990  -13.1920   22.2960 H   0  0  0  0  0  0  0  0  0  0  0  0
  -25.4150  -15.2840   20.2510 N   0  0  0  0  0  0  0  0  0  0  0  0
  -24.6550  -15.9380   20.4110 H   0  0  0  0  0  0  0  0  0  0  0  0
  -26.2510  -15.7290   19.8950 H   0  0  0  0  0  0  0  0  0  0  0  0
  -29.2070  -22.0380   20.6440 C   0  0  0  0  0  2  0  0  0  0  0  0
  -28.4650  -23.3940   19.9860 C   0  0  0  0  0  2  0  0  0  0  0  0
  -28.2430  -24.8490   20.7860 C   0  0  0  0  0  2  0  0  0  0  0  0
  -28.3410  -26.2970   20.2630 O   0  0  0  0  0  0  0  0  0  0  0  0
  -24.6070  -31.9150   23.2230 C   0  0  0  0  0  0  0  0  0  0  0  0
  -27.2460  -27.2170   20.2730 C   0  0  0  0  0  0  0  0  0  0  0  0
  -23.4320  -30.5030   21.5760 C   0  0  0  0  0  3  0  0  0  0  0  0
  -24.9040  -28.9160   20.1950 C   0  0  0  0  0  0  0  0  0  0  0  0
  -25.9830  -30.7870   21.4400 C   0  0  0  0  0  2  0  0  0  0  0  0
  -26.0720  -29.3890   20.8070 C   0  0  0  0  0  0  0  0  0  0  0  0
  -27.2480  -28.5570   20.8220 C   0  0  0  0  0  3  0  0  0  0  0  0
  -26.0490  -26.8220   19.6430 C   0  0  0  0  0  3  0  0  0  0  0  0
  -24.9010  -27.6440   19.6000 C   0  0  0  0  0  3  0  0  0  0  0  0
  -23.6720  -29.8090   20.2090 C   0  0  0  0  0  2  0  0  0  0  0  0
  -24.6920  -31.0890   22.1350 N   0  0  0  0  0  0  0  0  0  0  0  0
  -23.5140  -32.2000   23.7350 O   0  0  0  0  0  0  0  0  0  0  0  0
  -22.7430  -29.5030   22.5380 C   0  0  0  0  0  0  0  0  0  0  0  0
  -21.4150  -29.3370   22.4010 N   0  0  0  0  0  0  0  0  0  0  0  0
  -23.4050  -28.8760   23.3690 O   0  0  0  0  0  0  0  0  0  0  0  0
  -20.9390  -29.8930   21.7040 H   0  0  0  0  0  0  0  0  0  0  0  0
  -18.0220  -28.1750   22.8930 C   0  0  0  0  0  0  0  0  0  0  0  0
  -20.5830  -28.4090   23.1670 C   0  0  0  0  0  3  0  0  0  0  0  0
  -20.6700  -26.9760   22.5900 C   0  0  0  0  0  2  0  0  0  0  0  0
  -19.5670  -26.6680   21.5720 C   0  0  0  0  0  2  0  0  0  0  0  0
  -18.1860  -26.8260   22.2140 C   0  0  0  0  0  2  0  0  0  0  0  0
  -19.1470  -28.9250   23.3270 C   0  0  0  0  0  0  0  0  0  0  0  0
  -18.9410  -30.1860   23.9250 C   0  0  0  0  0  3  0  0  0  0  0  0
  -17.6400  -30.6990   24.0910 C   0  0  0  0  0  3  0  0  0  0  0  0
  -16.5280  -29.9480   23.6720 C   0  0  0  0  0  3  0  0  0  0  0  0
  -16.7210  -28.6870   23.0800 C   0  0  0  0  0  3  0  0  0  0  0  0
  -25.8750  -32.5560   23.8640 C   0  0  0  0  0  3  0  0  0  0  0  0
  -25.5580  -33.9570   24.1800 N   0  0  0  0  0  0  0  0  0  0  0  0
  -25.9000  -35.0070   23.4220 C   0  0  0  0  0  0  0  0  0  0  0  0
  -26.5830  -34.8980   22.4000 O   0  0  0  0  0  0  0  0  0  0  0  0
  -24.9510  -34.1150   24.9720 H   0  0  0  0  0  0  0  0  0  0  0  0
  -24.1810  -36.8030   23.0370 C   0  0  0  0  0  1  0  0  0  0  0  0
  -25.4090  -36.3980   23.8680 C   0  0  0  0  0  3  0  0  0  0  0  0
  -27.5300  -37.2880   24.7290 C   0  0  0  0  0  1  0  0  0  0  0  0
  -26.4460  -37.4490   23.7650 N   0  0  0  0  0  0  0  0  0  0  0  0
  -26.0380  -38.3710   23.8980 H   0  0  0  0  0  0  0  0  0  0  0  0
  -26.3660  -31.7970   25.1590 C   0  0  1  0  0  0  0  0  0  0  0  0
  -25.2510  -31.5710   26.2070 C   0  0  0  0  0  1  0  0  0  0  0  0
  -26.9560  -30.4150   24.7960 C   0  0  0  0  0  1  0  0  0  0  0  0
  -27.5030  -32.5970   25.8370 C   0  0  0  0  0  1  0  0  0  0  0  0
  1 46  1  0
  1  3  1  0
  2  1  1  0
  4  5  1  0
  6  4  1  0
  7  9  1  0
  7  5  1  0
  8  1  1  0
  8  7  1  0
  8  6  1  0
  9 10  1  0
 10 16  1  0
 11 16  1  0
 12 13  1  0
 12 11  1  0
 14 13  1  0
 14 21  1  0
 14 15  1  0
 16 15  1  0
 17 10  2  0
 18 19  2  0
 19 38  1  0
 20 19  1  0
 20 23  1  0
 21 22  1  0
 21 18  1  0
 22 20  2  0
 23 24  1  0
 24 25  2  0
 26 29  1  0
 26 25  1  0
 27 26  2  0
 28 27  1  0
 28 23  2  0
 29 30  1  0
 30 31  1  0
 31 32  2  0
 33 32  1  0
 33 37  1  0
 34 33  2  0
 35 30  2  0
 35 34  1  0
 36 35  1  0
 38 39  1  0
 39 42  1  0
 39 41  1  0
 40 38  2  0
 43 44  1  0
 43 18  1  0
 45 43  1  0
 47 46  1  0
 47 48  1  0
 49 51  1  0
 49 48  1  0
 50 61  2  0
 51 56  1  0
 52 60  1  0
 52 62  1  0
 53 59  1  0
 53 55  1  0
 54 60  1  0
 55 56  2  0
 55 54  1  0
 57 51  2  0
 58 57  1  0
 58 53  2  0
 59 52  1  0
 60 50  1  0
 62 64  2  0
 63 62  1  0
 65 63  1  0
 66 75  2  0
 66 71  1  0
 67 63  1  0
 67 71  1  0
 68 67  1  0
 69 70  1  0
 69 68  1  0
 70 66  1  0
 71 72  2  0
 72 73  1  0
 74 73  2  0
 75 74  1  0
 76 50  1  0
 76 77  1  0
 76 86  1  0
 77 80  1  0
 78 82  1  0
 78 77  1  0
 79 78  2  0
 82 81  1  0
 84 82  1  0
 84 85  1  0
 84 83  1  0
 86 89  1  1
 86 87  1  0
 88 86  1  0
M  ISO  4   9 100  10 100  48 101  49 101
M  END
>  <TORSDO>  (42) 
F 21

>  <SCORE>  (42) 
-13.489

>  <name>  (42) 
41

>  <ligand_id>  (42) 
41

>  <original_smiles>  (42) 
[H]c1c([H])c([H])c2c(c1[H])C([H])([H])C([H])([H])C([H])([H])C2([H])N([H])C(=O)C1([H])N(C(=O)C([H])(N([H])C(=O)C([H])(N([H])C([H])([H])[H])C([H])([H])[H])C(C([H])([H])[H])(C([H])([H])[H])C([H])([H])[H])C([H])([H])c2c([H])c(OC([H])([H])C([H])([H])C([H])([H])[N+]([H])([H])C3([H])C([H])([H])C([H])([H])C([H])([H])C3([H])C([H])([H])C(=O)N3C([H])([H])C([H])([H])C([H])([H])C([H])(n4nc(-c5c([H])c([H])c(Oc6c([H])c([H])c(F)c([H])c6F)c([H])c5[H])c(C(=O)N([H])[H])c4N([H])[H])C3([H])[H])c([H])c([H])c2C1([H])[H]

>  <smiles>  (42) 
[H]c1c([H])c([H])c2c(c1[H])C([H])([H])C([H])([H])C([H])([H])C2([H])N([H])C(=O)C1([H])N(C(=O)C([H])(N([H])C(=O)C([H])(N([H])C([H])([H])[H])C([H])([H])[H])C(C([H])([H])[H])(C([H])([H])[H])C([H])([H])[H])C([H])([H])c2c([H])c(OC([H])([H])C([H])([H])C([H])([H])[N+]([H])([H])C3([H])C([H])([H])C([H])([H])C([H])([H])C3([H])C([H])([H])C(=O)N3C([H])([H])C([H])([H])C([H])([H])C([H])(n4nc(-c5c([H])c([H])c(Oc6c([H])c([H])c(F)c([H])c6F)c([H])c5[H])c(C(=O)N([H])[H])c4N([H])[H])C3([H])[H])c([H])c([H])c2C1([H])[H]

$$$$
42:0:0
     RDKit          3D

 91100  0  0  1  0  0  0  0  0999 V2000
  -27.9050  -22.6680   20.4500 C   0  0  0  0  0  2  0  0  0  0  0  0
  -30.1400  -23.5410   20.8930 C   0  0  0  0  0  2  0  0  0  0  0  0
  -28.4590  -21.4150   19.7100 C   0  0  0  0  0  2  0  0  0  0  0  0
  -30.7940  -22.2820   20.2380 C   0  0  0  0  0  2  0  0  0  0  0  0
  -30.5160  -20.1600   18.8790 C   0  0  0  0  0  2  0  0  0  0  0  0
  -30.0320  -18.7130   19.0610 C   0  0  0  0  0  2  0  0  0  0  0  0
  -30.0530  -19.8620   21.1520 C   0  0  0  0  0  2  0  0  0  0  0  0
  -28.7770  -23.9420   20.2730 C   0  0  0  0  0  3  0  0  0  0  0  0
  -29.9280  -20.9820   20.0440 C   0  0  2  0  0  0  0  0  0  0  0  0
  -29.8470  -18.5060   20.5150 N   0  0  2  0  0  4  0  0  0  0  0  0
  -28.8670  -18.3110   20.6480 H   0  0  0  0  0  0  0  0  0  0  0  0
  -28.1120  -25.2450   20.8900 C   0  0  0  0  0  2  0  0  0  0  0  0
  -28.3280  -26.5540   20.2540 O   0  0  0  0  0  0  0  0  0  0  0  0
  -24.5740  -31.8950   23.2480 C   0  0  0  0  0  0  0  0  0  0  0  0
  -27.2100  -27.3860   20.2020 C   0  0  0  0  0  0  0  0  0  0  0  0
  -23.3730  -30.4950   21.6030 C   0  0  0  0  0  3  0  0  0  0  0  0
  -24.8340  -28.9550   20.1730 C   0  0  0  0  0  0  0  0  0  0  0  0
  -25.9070  -30.8360   21.4200 C   0  0  0  0  0  2  0  0  0  0  0  0
  -25.9960  -29.4630   20.7720 C   0  0  0  0  0  0  0  0  0  0  0  0
  -27.1890  -28.6900   20.7740 C   0  0  0  0  0  3  0  0  0  0  0  0
  -26.0370  -26.9250   19.5660 C   0  0  0  0  0  3  0  0  0  0  0  0
  -24.8570  -27.6930   19.5560 C   0  0  0  0  0  3  0  0  0  0  0  0
  -23.5880  -29.8160   20.2220 C   0  0  0  0  0  2  0  0  0  0  0  0
  -24.6360  -31.0910   22.1470 N   0  0  0  0  0  0  0  0  0  0  0  0
  -23.4910  -32.1690   23.7850 O   0  0  0  0  0  0  0  0  0  0  0  0
  -22.7150  -29.4760   22.5620 C   0  0  0  0  0  0  0  0  0  0  0  0
  -21.3910  -29.2890   22.4290 N   0  0  0  0  0  0  0  0  0  0  0  0
  -23.3940  -28.8570   23.3850 O   0  0  0  0  0  0  0  0  0  0  0  0
  -20.9040  -29.8390   21.7340 H   0  0  0  0  0  0  0  0  0  0  0  0
  -18.0200  -28.0730   22.9030 C   0  0  0  0  0  0  0  0  0  0  0  0
  -20.5730  -28.3500   23.1970 C   0  0  0  0  0  3  0  0  0  0  0  0
  -20.6910  -26.9170   22.6290 C   0  0  0  0  0  2  0  0  0  0  0  0
  -19.6010  -26.5820   21.6060 C   0  0  0  0  0  2  0  0  0  0  0  0
  -18.2130  -26.7210   22.2360 C   0  0  0  0  0  2  0  0  0  0  0  0
  -19.1290  -28.8450   23.3400 C   0  0  0  0  0  0  0  0  0  0  0  0
  -18.8950  -30.1100   23.9220 C   0  0  0  0  0  3  0  0  0  0  0  0
  -17.5860  -30.6040   24.0700 C   0  0  0  0  0  3  0  0  0  0  0  0
  -16.4900  -29.8280   23.6520 C   0  0  0  0  0  3  0  0  0  0  0  0
  -16.7090  -28.5630   23.0760 C   0  0  0  0  0  3  0  0  0  0  0  0
  -25.8570  -32.5280   23.8700 C   0  0  0  0  0  3  0  0  0  0  0  0
  -26.3680  -31.7610   25.1520 C   0  0  1  0  0  0  0  0  0  0  0  0
  -25.2720  -31.5280   26.2160 C   0  0  0  0  0  1  0  0  0  0  0  0
  -26.9510  -30.3800   24.7710 C   0  0  0  0  0  1  0  0  0  0  0  0
  -27.5190  -32.5540   25.8140 C   0  0  0  0  0  1  0  0  0  0  0  0
  -25.5500  -33.9290   24.1900 N   0  0  0  0  0  0  0  0  0  0  0  0
  -25.8950  -34.9760   23.4270 C   0  0  0  0  0  0  0  0  0  0  0  0
  -26.5730  -34.8640   22.4030 O   0  0  0  0  0  0  0  0  0  0  0  0
  -24.9480  -34.0890   24.9820 H   0  0  0  0  0  0  0  0  0  0  0  0
  -24.1840  -36.7790   23.0360 C   0  0  0  0  0  1  0  0  0  0  0  0
  -25.4080  -36.3690   23.8710 C   0  0  0  0  0  3  0  0  0  0  0  0
  -27.5340  -37.2450   24.7320 C   0  0  0  0  0  1  0  0  0  0  0  0
  -26.4480  -37.4150   23.7710 N   0  0  0  0  0  0  0  0  0  0  0  0
  -26.0460  -38.3380   23.9070 H   0  0  0  0  0  0  0  0  0  0  0  0
  -30.6020  -17.3150   21.0790 C   0  0  0  0  0  2  0  0  0  0  0  0
  -29.8730  -15.9040   20.9830 C   0  0  0  0  0  2  0  0  0  0  0  0
  -30.6580  -14.6430   20.4590 C   0  0  0  0  0  0  0  0  0  0  0  0
  -30.4150  -12.4510   19.3030 C   0  0  0  0  0  2  0  0  0  0  0  0
  -29.4610  -12.6270   18.0990 C   0  0  0  0  0  2  0  0  0  0  0  0
  -27.9910  -12.4610   18.5330 C   0  0  0  0  0  2  0  0  0  0  0  0
  -27.6440  -13.2910   19.7950 C   0  0  0  0  0  3  0  0  0  0  0  0
  -28.7090  -13.0950   20.8970 C   0  0  0  0  0  2  0  0  0  0  0  0
  -30.0230  -13.4340   20.3320 N   0  0  0  0  0  0  0  0  0  0  0  0
  -31.8020  -14.8000   20.0240 O   0  0  0  0  0  0  0  0  0  0  0  0
  -25.2490  -13.8840   20.5190 C   0  0  0  0  0  0  0  0  0  0  0  0
  -24.1840  -13.1080   20.8890 C   0  0  0  0  0  0  0  0  0  0  0  0
  -24.6500  -11.7580   20.8560 C   0  0  0  0  0  0  0  0  0  0  0  0
  -26.2940  -13.0060   20.2800 N   0  0  0  0  0  0  0  0  0  0  0  0
  -25.9390  -11.7230   20.5430 N   0  0  0  0  0  0  0  0  0  0  0  0
  -23.9280  -10.4940   21.0470 C   0  0  0  0  0  0  0  0  0  0  0  0
  -24.3670   -9.5270   21.9790 C   0  0  0  0  0  3  0  0  0  0  0  0
  -23.6480   -8.3250   22.1580 C   0  0  0  0  0  3  0  0  0  0  0  0
  -22.4760   -8.0810   21.4030 C   0  0  0  0  0  0  0  0  0  0  0  0
  -22.0570   -9.0350   20.4590 C   0  0  0  0  0  3  0  0  0  0  0  0
  -22.7760  -10.2290   20.2800 C   0  0  0  0  0  3  0  0  0  0  0  0
  -21.7290   -6.9300   21.4900 O   0  0  0  0  0  0  0  0  0  0  0  0
  -21.6870   -6.1850   22.6410 C   0  0  0  0  0  0  0  0  0  0  0  0
  -21.2530   -6.7330   23.8680 C   0  0  0  0  0  3  0  0  0  0  0  0
  -21.1600   -5.9150   25.0110 C   0  0  0  0  0  3  0  0  0  0  0  0
  -21.4890   -4.5480   24.9270 C   0  0  0  0  0  0  0  0  0  0  0  0
  -21.9140   -3.9980   23.7050 C   0  0  0  0  0  3  0  0  0  0  0  0
  -22.0110   -4.8150   22.5640 C   0  0  0  0  0  0  0  0  0  0  0  0
  -22.4030   -4.2760   21.3840 F   0  0  0  0  0  0  0  0  0  0  0  0
  -21.3920   -3.7590   26.0220 F   0  0  0  0  0  0  0  0  0  0  0  0
  -22.7860  -13.5800   21.1640 C   0  0  0  0  0  0  0  0  0  0  0  0
  -22.0620  -12.8760   22.0280 N   0  0  0  0  0  0  0  0  0  0  0  0
  -22.3430  -14.6050   20.6480 O   0  0  0  0  0  0  0  0  0  0  0  0
  -22.4320  -12.0450   22.4650 H   0  0  0  0  0  0  0  0  0  0  0  0
  -21.1240  -13.1720   22.2560 H   0  0  0  0  0  0  0  0  0  0  0  0
  -25.4160  -15.2540   20.3410 N   0  0  0  0  0  0  0  0  0  0  0  0
  -24.6560  -15.9170   20.4520 H   0  0  0  0  0  0  0  0  0  0  0  0
  -26.2610  -15.6800   19.9840 H   0  0  0  0  0  0  0  0  0  0  0  0
  9  3  1  6
  3  1  1  0
  4  2  1  0
  5  6  1  0
  6 10  1  0
  8  1  1  0
  8 12  1  0
  8  2  1  0
  9  5  1  0
  9  4  1  0
  9  7  1  0
 10 11  1  6
 10 54  1  0
 10  7  1  0
 13 12  1  0
 14 25  2  0
 15 13  1  0
 15 20  1  0
 16 24  1  0
 16 26  1  0
 17 23  1  0
 17 19  1  0
 18 24  1  0
 19 20  2  0
 19 18  1  0
 21 15  2  0
 22 21  1  0
 22 17  2  0
 23 16  1  0
 24 14  1  0
 26 28  2  0
 27 26  1  0
 29 27  1  0
 30 39  2  0
 30 35  1  0
 31 27  1  0
 31 35  1  0
 32 31  1  0
 33 34  1  0
 33 32  1  0
 34 30  1  0
 35 36  2  0
 36 37  1  0
 38 37  2  0
 39 38  1  0
 40 14  1  0
 40 45  1  0
 40 41  1  0
 41 44  1  1
 41 42  1  0
 43 41  1  0
 45 48  1  0
 46 50  1  0
 46 45  1  0
 47 46  2  0
 50 49  1  0
 52 50  1  0
 52 53  1  0
 52 51  1  0
 55 54  1  0
 56 55  1  0
 57 62  1  0
 58 59  1  0
 58 57  1  0
 60 59  1  0
 60 67  1  0
 60 61  1  0
 62 56  1  0
 62 61  1  0
 63 56  2  0
 64 65  2  0
 65 84  1  0
 66 65  1  0
 66 69  1  0
 67 64  1  0
 67 68  1  0
 68 66  2  0
 69 70  1  0
 70 71  2  0
 72 75  1  0
 72 71  1  0
 73 72  2  0
 74 73  1  0
 74 69  2  0
 75 76  1  0
 76 77  1  0
 77 78  2  0
 79 78  1  0
 79 83  1  0
 80 79  2  0
 81 76  2  0
 81 80  1  0
 82 81  1  0
 84 85  1  0
 85 88  1  0
 85 87  1  0
 86 84  2  0
 89 90  1  0
 89 64  1  0
 91 89  1  0
M  ISO  4  12 101  13 101  55 100  56 100
M  END
>  <TORSDO>  (43) 
F 19

>  <SCORE>  (43) 
-14.395

>  <name>  (43) 
42

>  <ligand_id>  (43) 
42

>  <original_smiles>  (43) 
[H]c1c([H])c([H])c2c(c1[H])C([H])([H])C([H])([H])C([H])([H])C2([H])N([H])C(=O)C1([H])N(C(=O)C([H])(N([H])C(=O)C([H])(N([H])C([H])([H])[H])C([H])([H])[H])C(C([H])([H])[H])(C([H])([H])[H])C([H])([H])[H])C([H])([H])c2c([H])c(OC([H])([H])C3([H])C([H])([H])C([H])([H])C4(C([H])([H])C3([H])[H])C([H])([H])C([H])([H])[N+]([H])(C([H])([H])C([H])([H])C(=O)N3C([H])([H])C([H])([H])C([H])([H])C([H])(n5nc(-c6c([H])c([H])c(Oc7c([H])c([H])c(F)c([H])c7F)c([H])c6[H])c(C(=O)N([H])[H])c5N([H])[H])C3([H])[H])C4([H])[H])c([H])c([H])c2C1([H])[H]

>  <smiles>  (43) 
[H]c1c([H])c([H])c2c(c1[H])C([H])([H])C([H])([H])C([H])([H])C2([H])N([H])C(=O)C1([H])N(C(=O)C([H])(N([H])C(=O)C([H])(N([H])C([H])([H])[H])C([H])([H])[H])C(C([H])([H])[H])(C([H])([H])[H])C([H])([H])[H])C([H])([H])c2c([H])c(OC([H])([H])C3([H])C([H])([H])C([H])([H])C4(C([H])([H])C3([H])[H])C([H])([H])C([H])([H])[N+]([H])(C([H])([H])C([H])([H])C(=O)N3C([H])([H])C([H])([H])C([H])([H])C([H])(n5nc(-c6c([H])c([H])c(Oc7c([H])c([H])c(F)c([H])c7F)c([H])c6[H])c(C(=O)N([H])[H])c5N([H])[H])C3([H])[H])C4([H])[H])c([H])c([H])c2C1([H])[H]

$$$$
43:0:0
     RDKit          3D

 97107  0  0  1  0  0  0  0  0999 V2000
  -29.7130  -21.0520   20.5620 C   0  0  0  0  0  2  0  0  0  0  0  0
  -31.2370  -21.7270   22.3230 C   0  0  0  0  0  2  0  0  0  0  0  0
  -29.5900  -22.5850   20.6850 C   0  0  0  0  0  3  0  0  0  0  0  0
  -30.5630  -23.0130   21.8090 C   0  0  0  0  0  3  0  0  0  0  0  0
  -30.0930  -23.4190   19.4690 C   0  0  0  0  0  3  0  0  0  0  0  0
  -31.6080  -23.3710   19.6910 C   0  0  0  0  0  3  0  0  0  0  0  0
  -31.4910  -24.0200   21.0840 C   0  0  0  0  0  3  0  0  0  0  0  0
  -30.3000  -20.5840   21.9060 C   0  0  0  0  0  3  0  0  0  0  0  0
  -29.8250  -24.9360   19.6940 C   0  0  0  0  0  3  0  0  0  0  0  0
  -32.5200  -24.0330   18.6350 C   0  0  0  0  0  1  0  0  0  0  0  0
  -31.4580  -26.5060   20.8010 C   0  0  0  0  0  1  0  0  0  0  0  0
  -30.6780  -25.2470   20.8740 N   0  0  2  0  0  4  0  0  0  0  0  0
  -30.0820  -25.3430   21.6830 H   0  0  0  0  0  0  0  0  0  0  0  0
  -31.0050  -19.2850   21.8250 N   0  0  0  0  0  4  0  0  0  0  0  0
  -31.5900  -19.1930   22.6410 H   0  0  0  0  0  0  0  0  0  0  0  0
  -31.6120  -19.2910   21.0210 H   0  0  0  0  0  0  0  0  0  0  0  0
  -30.1360  -18.0900   21.7690 C   0  0  0  0  0  2  0  0  0  0  0  0
  -30.9300  -16.8550   21.3090 C   0  0  0  0  0  2  0  0  0  0  0  0
  -30.1130  -15.5420   21.3280 C   0  0  0  0  0  2  0  0  0  0  0  0
  -30.7200  -14.4260   20.4590 C   0  0  0  0  0  0  0  0  0  0  0  0
  -30.3600  -12.3470   19.1760 C   0  0  0  0  0  2  0  0  0  0  0  0
  -29.4140  -12.6290   17.9920 C   0  0  0  0  0  2  0  0  0  0  0  0
  -27.9410  -12.5020   18.4270 C   0  0  0  0  0  2  0  0  0  0  0  0
  -27.6300  -13.2960   19.7240 C   0  0  0  0  0  3  0  0  0  0  0  0
  -28.6850  -13.0010   20.8130 C   0  0  0  0  0  2  0  0  0  0  0  0
  -30.0150  -13.2850   20.2530 N   0  0  0  0  0  0  0  0  0  0  0  0
  -31.8060  -14.6340   19.9080 O   0  0  0  0  0  0  0  0  0  0  0  0
  -25.2280  -13.9140   20.4170 C   0  0  0  0  0  0  0  0  0  0  0  0
  -24.1580  -13.1470   20.7910 C   0  0  0  0  0  0  0  0  0  0  0  0
  -24.6170  -11.7940   20.7750 C   0  0  0  0  0  0  0  0  0  0  0  0
  -26.2730  -13.0300   20.1990 N   0  0  0  0  0  0  0  0  0  0  0  0
  -25.9090  -11.7510   20.4700 N   0  0  0  0  0  0  0  0  0  0  0  0
  -23.8910  -10.5350   20.9760 C   0  0  0  0  0  0  0  0  0  0  0  0
  -24.3200   -9.5770   21.9200 C   0  0  0  0  0  3  0  0  0  0  0  0
  -23.5950   -8.3800   22.1080 C   0  0  0  0  0  3  0  0  0  0  0  0
  -22.4250   -8.1350   21.3510 C   0  0  0  0  0  0  0  0  0  0  0  0
  -22.0140   -9.0810   20.3950 C   0  0  0  0  0  3  0  0  0  0  0  0
  -22.7410  -10.2680   20.2060 C   0  0  0  0  0  3  0  0  0  0  0  0
  -21.6700   -6.9900   21.4470 O   0  0  0  0  0  0  0  0  0  0  0  0
  -21.6110   -6.2620   22.6090 C   0  0  0  0  0  0  0  0  0  0  0  0
  -21.1760   -6.8340   23.8250 C   0  0  0  0  0  3  0  0  0  0  0  0
  -21.0640   -6.0330   24.9800 C   0  0  0  0  0  3  0  0  0  0  0  0
  -21.3770   -4.6620   24.9190 C   0  0  0  0  0  0  0  0  0  0  0  0
  -21.8050   -4.0910   23.7080 C   0  0  0  0  0  3  0  0  0  0  0  0
  -21.9190   -4.8880   22.5550 C   0  0  0  0  0  0  0  0  0  0  0  0
  -22.3120   -4.3280   21.3860 F   0  0  0  0  0  0  0  0  0  0  0  0
  -21.2620   -3.8910   26.0250 F   0  0  0  0  0  0  0  0  0  0  0  0
  -22.7600  -13.6270   21.0570 C   0  0  0  0  0  0  0  0  0  0  0  0
  -22.0310  -12.9400   21.9280 N   0  0  0  0  0  0  0  0  0  0  0  0
  -22.3230  -14.6470   20.5250 O   0  0  0  0  0  0  0  0  0  0  0  0
  -22.3970  -12.1150   22.3790 H   0  0  0  0  0  0  0  0  0  0  0  0
  -21.0930  -13.2440   22.1490 H   0  0  0  0  0  0  0  0  0  0  0  0
  -25.3950  -15.2830   20.2260 N   0  0  0  0  0  0  0  0  0  0  0  0
  -24.6300  -15.9420   20.3220 H   0  0  0  0  0  0  0  0  0  0  0  0
  -26.2500  -15.7140   19.8970 H   0  0  0  0  0  0  0  0  0  0  0  0
  -28.3520  -25.3640   19.8620 C   0  0  0  0  0  2  0  0  0  0  0  0
  -28.3350  -26.7780   20.0340 O   0  0  0  0  0  0  0  0  0  0  0  0
  -24.5420  -31.8620   23.2120 C   0  0  0  0  0  0  0  0  0  0  0  0
  -27.1280  -27.4390   20.0690 C   0  0  0  0  0  0  0  0  0  0  0  0
  -23.3050  -30.4750   21.5790 C   0  0  0  0  0  3  0  0  0  0  0  0
  -24.7300  -28.9350   20.1340 C   0  0  0  0  0  0  0  0  0  0  0  0
  -25.8270  -30.8280   21.3460 C   0  0  0  0  0  2  0  0  0  0  0  0
  -25.8970  -29.4590   20.7020 C   0  0  0  0  0  0  0  0  0  0  0  0
  -27.0960  -28.7180   20.6650 C   0  0  0  0  0  3  0  0  0  0  0  0
  -25.9360  -26.9150   19.5140 C   0  0  0  0  0  3  0  0  0  0  0  0
  -24.7420  -27.6610   19.5410 C   0  0  0  0  0  3  0  0  0  0  0  0
  -23.4910  -29.7980   20.1960 C   0  0  0  0  0  2  0  0  0  0  0  0
  -24.5780  -31.0690   22.1040 N   0  0  0  0  0  0  0  0  0  0  0  0
  -23.4700  -32.1380   23.7680 O   0  0  0  0  0  0  0  0  0  0  0  0
  -22.6630  -29.4520   22.5430 C   0  0  0  0  0  0  0  0  0  0  0  0
  -21.3360  -29.2780   22.4300 N   0  0  0  0  0  0  0  0  0  0  0  0
  -23.3540  -28.8190   23.3460 O   0  0  0  0  0  0  0  0  0  0  0  0
  -20.8420  -29.8400   21.7530 H   0  0  0  0  0  0  0  0  0  0  0  0
  -17.9630  -28.0980   22.9520 C   0  0  0  0  0  0  0  0  0  0  0  0
  -20.5230  -28.3420   23.2050 C   0  0  0  0  0  3  0  0  0  0  0  0
  -20.6150  -26.9120   22.6220 C   0  0  0  0  0  2  0  0  0  0  0  0
  -19.5030  -26.5980   21.6170 C   0  0  0  0  0  2  0  0  0  0  0  0
  -18.1270  -26.7490   22.2730 C   0  0  0  0  0  2  0  0  0  0  0  0
  -19.0880  -28.8530   23.3750 C   0  0  0  0  0  0  0  0  0  0  0  0
  -18.8810  -30.1170   23.9690 C   0  0  0  0  0  3  0  0  0  0  0  0
  -17.5800  -30.6240   24.1450 C   0  0  0  0  0  3  0  0  0  0  0  0
  -16.4690  -29.8660   23.7390 C   0  0  0  0  0  3  0  0  0  0  0  0
  -16.6610  -28.6050   23.1480 C   0  0  0  0  0  3  0  0  0  0  0  0
  -25.8410  -32.4810   23.8180 C   0  0  0  0  0  3  0  0  0  0  0  0
  -25.5440  -33.8770   24.1660 N   0  0  0  0  0  0  0  0  0  0  0  0
  -25.8740  -34.9340   23.4120 C   0  0  0  0  0  0  0  0  0  0  0  0
  -26.5340  -34.8370   22.3730 O   0  0  0  0  0  0  0  0  0  0  0  0
  -24.9580  -34.0270   24.9740 H   0  0  0  0  0  0  0  0  0  0  0  0
  -24.1570  -36.7400   23.0840 C   0  0  0  0  0  1  0  0  0  0  0  0
  -25.3980  -36.3200   23.8860 C   0  0  0  0  0  3  0  0  0  0  0  0
  -27.5410  -37.1820   24.7180 C   0  0  0  0  0  1  0  0  0  0  0  0
  -26.4380  -37.3670   23.7810 N   0  0  0  0  0  0  0  0  0  0  0  0
  -26.0380  -38.2880   23.9390 H   0  0  0  0  0  0  0  0  0  0  0  0
  -26.3770  -31.6930   25.0760 C   0  0  1  0  0  0  0  0  0  0  0  0
  -25.3010  -31.4460   26.1590 C   0  0  0  0  0  1  0  0  0  0  0  0
  -26.9480  -30.3190   24.6550 C   0  0  0  0  0  1  0  0  0  0  0  0
  -27.5410  -32.4740   25.7280 C   0  0  0  0  0  1  0  0  0  0  0  0
  1  8  1  0
  3  1  1  0
  3  4  1  0
  4  2  1  0
  5  6  1  0
  5  9  1  0
  5  3  1  0
  6  7  1  0
  7  4  1  0
  8  2  1  0
  9 56  1  0
  9 12  1  0
 10  6  1  0
 11 12  1  0
 12  7  1  0
 12 13  1  1
 14  8  1  0
 14 15  1  0
 16 14  1  0
 17 14  1  0
 18 19  1  0
 18 17  1  0
 20 19  1  0
 21 26  1  0
 22 23  1  0
 22 21  1  0
 23 24  1  0
 24 31  1  0
 24 25  1  0
 26 20  1  0
 26 25  1  0
 27 20  2  0
 28 29  2  0
 29 48  1  0
 30 29  1  0
 30 33  1  0
 31 28  1  0
 31 32  1  0
 32 30  2  0
 33 34  1  0
 34 35  2  0
 36 39  1  0
 36 35  1  0
 37 36  2  0
 38 37  1  0
 38 33  2  0
 39 40  1  0
 40 41  1  0
 41 42  2  0
 43 42  1  0
 43 47  1  0
 44 43  2  0
 45 40  2  0
 45 44  1  0
 46 45  1  0
 48 49  1  0
 49 52  1  0
 49 51  1  0
 50 48  2  0
 53 54  1  0
 53 28  1  0
 55 53  1  0
 56 57  1  0
 57 59  1  0
 58 69  2  0
 58 84  1  0
 59 64  1  0
 60 68  1  0
 60 70  1  0
 61 67  1  0
 61 63  1  0
 62 68  1  0
 63 62  1  0
 64 63  2  0
 65 66  1  0
 65 59  2  0
 66 61  2  0
 67 60  1  0
 68 58  1  0
 70 72  2  0
 71 70  1  0
 71 75  1  0
 73 71  1  0
 74 83  2  0
 74 79  1  0
 75 79  1  0
 76 75  1  0
 77 78  1  0
 77 76  1  0
 78 74  1  0
 79 80  2  0
 80 81  1  0
 82 81  2  0
 83 82  1  0
 84 85  1  0
 84 94  1  0
 85 88  1  0
 86 90  1  0
 86 85  1  0
 87 86  2  0
 89 90  1  0
 92 90  1  0
 92 93  1  0
 92 91  1  0
 94 97  1  1
 94 95  1  0
 96 94  1  0
M  ISO  4  19 100  20 100  56 101  57 101
M  END
>  <TORSDO>  (44) 
F 21

>  <SCORE>  (44) 
-13.383

>  <name>  (44) 
43

>  <ligand_id>  (44) 
43

>  <original_smiles>  (44) 
[H]c1c([H])c([H])c2c(c1[H])C([H])([H])C([H])([H])C([H])([H])C2([H])N([H])C(=O)C1([H])N(C(=O)C([H])(N([H])C(=O)C([H])(N([H])C([H])([H])[H])C([H])([H])[H])C(C([H])([H])[H])(C([H])([H])[H])C([H])([H])[H])C([H])([H])c2c([H])c(OC([H])([H])C3([H])C4([H])C5([H])C([H])([H])C([H])([N+]([H])([H])C([H])([H])C([H])([H])C([H])([H])C(=O)N6C([H])([H])C([H])([H])C([H])([H])C([H])(n7nc(-c8c([H])c([H])c(Oc9c([H])c([H])c(F)c([H])c9F)c([H])c8[H])c(C(=O)N([H])[H])c7N([H])[H])C6([H])[H])C([H])([H])C5([H])C([H])(C4([H])C([H])([H])[H])[N+]3([H])C([H])([H])[H])c([H])c([H])c2C1([H])[H]

>  <smiles>  (44) 
[H]c1c([H])c([H])c2c(c1[H])C([H])([H])C([H])([H])C([H])([H])C2([H])N([H])C(=O)C1([H])N(C(=O)C([H])(N([H])C(=O)C([H])(N([H])C([H])([H])[H])C([H])([H])[H])C(C([H])([H])[H])(C([H])([H])[H])C([H])([H])[H])C([H])([H])c2c([H])c(OC([H])([H])C3([H])C4([H])C5([H])C([H])([H])C([H])([N+]([H])([H])C([H])([H])C([H])([H])C([H])([H])C(=O)N6C([H])([H])C([H])([H])C([H])([H])C([H])(n7nc(-c8c([H])c([H])c(Oc9c([H])c([H])c(F)c([H])c9F)c([H])c8[H])c(C(=O)N([H])[H])c7N([H])[H])C6([H])[H])C([H])([H])C5([H])C([H])(C4([H])C([H])([H])[H])[N+]3([H])C([H])([H])[H])c([H])c([H])c2C1([H])[H]

$$$$
44:0:0
     RDKit          3D

 92102  0  0  1  0  0  0  0  0999 V2000
  -29.9740  -19.1860   19.8500 C   0  0  0  0  0  0  0  0  0  0  0  0
  -29.3600  -20.3940   20.2730 N   0  0  0  0  0  0  0  0  0  0  0  0
  -30.5510  -19.1280   18.7650 O   0  0  0  0  0  0  0  0  0  0  0  0
  -28.9490  -20.3170   21.1930 H   0  0  0  0  0  0  0  0  0  0  0  0
  -30.1550  -17.0000   23.1710 C   0  0  0  0  0  2  0  0  0  0  0  0
  -30.2940  -16.1860   20.7470 C   0  0  0  0  0  3  0  0  0  0  0  0
  -29.8590  -17.8230   20.7510 C   0  0  0  0  0  3  0  0  0  0  0  0
  -30.9780  -16.2520   22.1190 C   0  0  2  0  0  0  0  0  0  0  0  0
  -30.4450  -18.0990   22.1390 C   0  0  1  0  0  0  0  0  0  0  0  0
  -31.7750  -17.4860   22.1390 N   0  0  0  0  0  4  0  0  0  0  0  0
  -32.3460  -17.6610   21.3260 H   0  0  0  0  0  0  0  0  0  0  0  0
  -32.2760  -17.6270   23.0020 H   0  0  0  0  0  0  0  0  0  0  0  0
  -31.0160  -14.9910   19.8510 C   0  0  0  0  0  0  0  0  0  0  0  0
  -30.6900  -12.8190   18.5460 C   0  0  0  0  0  2  0  0  0  0  0  0
  -29.6240  -13.0250   17.4410 C   0  0  0  0  0  2  0  0  0  0  0  0
  -28.2060  -12.8190   18.0060 C   0  0  0  0  0  2  0  0  0  0  0  0
  -27.9940  -13.5940   19.3320 C   0  0  0  0  0  3  0  0  0  0  0  0
  -29.1480  -13.3160   20.3180 C   0  0  0  0  0  2  0  0  0  0  0  0
  -30.3920  -13.7570   19.6620 N   0  0  0  0  0  0  0  0  0  0  0  0
  -32.1290  -15.1500   19.3300 O   0  0  0  0  0  0  0  0  0  0  0  0
  -25.7050  -14.2560   20.2800 C   0  0  0  0  0  0  0  0  0  0  0  0
  -24.6440  -13.5110   20.7140 C   0  0  0  0  0  0  0  0  0  0  0  0
  -25.0460  -12.1470   20.5970 C   0  0  0  0  0  0  0  0  0  0  0  0
  -26.6850  -13.3420   19.9210 N   0  0  0  0  0  0  0  0  0  0  0  0
  -26.3030  -12.0670   20.1740 N   0  0  0  0  0  0  0  0  0  0  0  0
  -24.2870  -10.9060   20.8000 C   0  0  0  0  0  0  0  0  0  0  0  0
  -24.7160   -9.9220   21.7190 C   0  0  0  0  0  3  0  0  0  0  0  0
  -23.9600   -8.7460   21.9100 C   0  0  0  0  0  3  0  0  0  0  0  0
  -22.7620   -8.5470   21.1840 C   0  0  0  0  0  0  0  0  0  0  0  0
  -22.3500   -9.5200   20.2580 C   0  0  0  0  0  3  0  0  0  0  0  0
  -23.1050  -10.6870   20.0630 C   0  0  0  0  0  3  0  0  0  0  0  0
  -21.9790   -7.4230   21.2900 O   0  0  0  0  0  0  0  0  0  0  0  0
  -21.8790   -6.7190   22.4620 C   0  0  0  0  0  0  0  0  0  0  0  0
  -21.4450   -7.3300   23.6590 C   0  0  0  0  0  3  0  0  0  0  0  0
  -21.2890   -6.5580   24.8270 C   0  0  0  0  0  3  0  0  0  0  0  0
  -21.5560   -5.1760   24.7990 C   0  0  0  0  0  0  0  0  0  0  0  0
  -21.9820   -4.5640   23.6070 C   0  0  0  0  0  3  0  0  0  0  0  0
  -22.1400   -5.3330   22.4410 C   0  0  0  0  0  0  0  0  0  0  0  0
  -22.5310   -4.7360   21.2890 F   0  0  0  0  0  0  0  0  0  0  0  0
  -21.4000   -4.4340   25.9180 F   0  0  0  0  0  0  0  0  0  0  0  0
  -23.2960  -14.0290   21.1250 C   0  0  0  0  0  0  0  0  0  0  0  0
  -22.6330  -13.3420   22.0500 N   0  0  0  0  0  0  0  0  0  0  0  0
  -22.8420  -15.0750   20.6590 O   0  0  0  0  0  0  0  0  0  0  0  0
  -23.0130  -12.4940   22.4400 H   0  0  0  0  0  0  0  0  0  0  0  0
  -21.7340  -13.6700   22.3760 H   0  0  0  0  0  0  0  0  0  0  0  0
  -25.9150  -15.6260   20.1400 N   0  0  0  0  0  0  0  0  0  0  0  0
  -25.1730  -16.2980   20.2960 H   0  0  0  0  0  0  0  0  0  0  0  0
  -26.7340  -16.0350   19.7150 H   0  0  0  0  0  0  0  0  0  0  0  0
  -28.9960  -21.7510   19.5710 C   0  0  0  0  0  2  0  0  0  0  0  0
  -28.6510  -23.2000   20.3640 C   0  0  0  0  0  3  0  0  0  0  0  0
  -28.1340  -24.6100   19.6010 C   0  0  0  0  0  3  0  0  0  0  0  0
  -28.1490  -26.0770   20.1330 O   0  0  0  0  0  0  0  0  0  0  0  0
  -24.6830  -31.8400   23.1370 C   0  0  0  0  0  0  0  0  0  0  0  0
  -27.0840  -27.0480   20.0640 C   0  0  0  0  0  0  0  0  0  0  0  0
  -23.4120  -30.4520   21.5420 C   0  0  0  0  0  3  0  0  0  0  0  0
  -24.7850  -28.8310   20.0990 C   0  0  0  0  0  0  0  0  0  0  0  0
  -25.9600  -30.6620   21.3070 C   0  0  0  0  0  2  0  0  0  0  0  0
  -25.9890  -29.2650   20.6650 C   0  0  0  0  0  0  0  0  0  0  0  0
  -27.1330  -28.3840   20.6400 C   0  0  0  0  0  3  0  0  0  0  0  0
  -25.8500  -26.7200   19.4520 C   0  0  0  0  0  3  0  0  0  0  0  0
  -24.7250  -27.5700   19.4880 C   0  0  0  0  0  3  0  0  0  0  0  0
  -23.5760  -29.7520   20.1680 C   0  0  0  0  0  2  0  0  0  0  0  0
  -24.7050  -31.0100   22.0480 N   0  0  0  0  0  0  0  0  0  0  0  0
  -23.6170  -32.1540   23.6900 O   0  0  0  0  0  0  0  0  0  0  0  0
  -22.7350  -29.4740   22.5380 C   0  0  0  0  0  0  0  0  0  0  0  0
  -21.4050  -29.3110   22.4310 N   0  0  0  0  0  0  0  0  0  0  0  0
  -23.4100  -28.8580   23.3640 O   0  0  0  0  0  0  0  0  0  0  0  0
  -20.9170  -29.8570   21.7330 H   0  0  0  0  0  0  0  0  0  0  0  0
  -18.0280  -28.1130   22.9840 C   0  0  0  0  0  0  0  0  0  0  0  0
  -20.5870  -28.3960   23.2330 C   0  0  0  0  0  3  0  0  0  0  0  0
  -20.6910  -26.9460   22.7030 C   0  0  0  0  0  2  0  0  0  0  0  0
  -19.5860  -26.5860   21.7030 C   0  0  0  0  0  2  0  0  0  0  0  0
  -18.2080  -26.7450   22.3480 C   0  0  0  0  0  2  0  0  0  0  0  0
  -19.1450  -28.8960   23.3840 C   0  0  0  0  0  0  0  0  0  0  0  0
  -18.9180  -30.1730   23.9420 C   0  0  0  0  0  3  0  0  0  0  0  0
  -17.6100  -30.6690   24.0960 C   0  0  0  0  0  3  0  0  0  0  0  0
  -16.5080  -29.8860   23.7050 C   0  0  0  0  0  3  0  0  0  0  0  0
  -16.7210  -28.6080   23.1580 C   0  0  0  0  0  3  0  0  0  0  0  0
  -25.9850  -32.4540   23.7270 C   0  0  0  0  0  3  0  0  0  0  0  0
  -26.5600  -31.6370   24.9490 C   0  0  1  0  0  0  0  0  0  0  0  0
  -25.5180  -31.3500   26.0560 C   0  0  0  0  0  1  0  0  0  0  0  0
  -27.1320  -30.2810   24.4790 C   0  0  0  0  0  1  0  0  0  0  0  0
  -27.7400  -32.4140   25.5800 C   0  0  0  0  0  1  0  0  0  0  0  0
  -25.6920  -33.8410   24.1300 N   0  0  0  0  0  0  0  0  0  0  0  0
  -25.9740  -34.9280   23.3950 C   0  0  0  0  0  0  0  0  0  0  0  0
  -26.5800  -34.8670   22.3230 O   0  0  0  0  0  0  0  0  0  0  0  0
  -25.1430  -33.9600   24.9680 H   0  0  0  0  0  0  0  0  0  0  0  0
  -24.2230  -36.7210   23.2280 C   0  0  0  0  0  1  0  0  0  0  0  0
  -25.5180  -36.2970   23.9390 C   0  0  0  0  0  3  0  0  0  0  0  0
  -27.7030  -37.1590   24.6540 C   0  0  0  0  0  1  0  0  0  0  0  0
  -26.5400  -37.3580   23.7910 N   0  0  0  0  0  0  0  0  0  0  0  0
  -26.1440  -38.2720   23.9990 H   0  0  0  0  0  0  0  0  0  0  0  0
  1  2  1  0
  2  4  1  0
  3  1  2  0
  6 13  1  0
  6  7  1  0
  6  8  1  0
  7  1  1  0
  7  9  1  0
  8 10  1  0
  8  9  1  0
  8  5  1  1
  9  5  1  1
 10  9  1  0
 10 12  1  0
 11 10  1  0
 14 19  1  0
 15 16  1  0
 15 14  1  0
 17 16  1  0
 17 24  1  0
 17 18  1  0
 19 13  1  0
 19 18  1  0
 20 13  2  0
 21 22  2  0
 22 41  1  0
 23 22  1  0
 23 26  1  0
 24 25  1  0
 24 21  1  0
 25 23  2  0
 26 27  1  0
 27 28  2  0
 29 32  1  0
 29 28  1  0
 30 29  2  0
 31 30  1  0
 31 26  2  0
 32 33  1  0
 33 34  1  0
 34 35  2  0
 36 35  1  0
 36 40  1  0
 37 36  2  0
 38 33  2  0
 38 37  1  0
 39 38  1  0
 41 42  1  0
 42 45  1  0
 42 44  1  0
 43 41  2  0
 46 21  1  0
 46 47  1  0
 48 46  1  0
 49  2  1  0
 49 50  1  0
 51 52  1  0
 51 50  2  0
 53 64  2  0
 54 52  1  0
 54 59  1  0
 55 63  1  0
 55 65  1  0
 56 62  1  0
 56 58  1  0
 57 63  1  0
 58 57  1  0
 59 58  2  0
 60 61  1  0
 60 54  2  0
 61 56  2  0
 62 55  1  0
 63 53  1  0
 65 67  2  0
 66 65  1  0
 68 66  1  0
 69 78  2  0
 69 74  1  0
 70 66  1  0
 70 74  1  0
 71 70  1  0
 72 73  1  0
 72 71  1  0
 73 69  1  0
 74 75  2  0
 75 76  1  0
 77 76  2  0
 78 77  1  0
 79 53  1  0
 79 84  1  0
 79 80  1  0
 80 83  1  1
 80 81  1  0
 82 80  1  0
 84 87  1  0
 85 89  1  0
 85 84  1  0
 86 85  2  0
 89 88  1  0
 91 89  1  0
 91 92  1  0
 91 90  1  0
M  ISO  4   6 100  13 100  51 101  52 101
M  END
>  <TORSDO>  (45) 
F 20

>  <SCORE>  (45) 
-11.002

>  <name>  (45) 
44

>  <ligand_id>  (45) 
44

>  <original_smiles>  (45) 
[H]c1c([H])c([H])c2c(c1[H])C([H])([H])C([H])([H])C([H])([H])C2([H])N([H])C(=O)C1([H])N(C(=O)C([H])(N([H])C(=O)C([H])(N([H])C([H])([H])[H])C([H])([H])[H])C(C([H])([H])[H])(C([H])([H])[H])C([H])([H])[H])C([H])([H])c2c([H])c(OC([H])([H])C([H])([H])C([H])([H])N([H])C(=O)C3([H])C([H])(C(=O)N4C([H])([H])C([H])([H])C([H])([H])C([H])(n5nc(-c6c([H])c([H])c(Oc7c([H])c([H])c(F)c([H])c7F)c([H])c6[H])c(C(=O)N([H])[H])c5N([H])[H])C4([H])[H])C4([H])C([H])([H])C3([H])[N+]4([H])[H])c([H])c([H])c2C1([H])[H]

>  <smiles>  (45) 
[H]c1c([H])c([H])c2c(c1[H])C([H])([H])C([H])([H])C([H])([H])C2([H])N([H])C(=O)C1([H])N(C(=O)C([H])(N([H])C(=O)C([H])(N([H])C([H])([H])[H])C([H])([H])[H])C(C([H])([H])[H])(C([H])([H])[H])C([H])([H])[H])C([H])([H])c2c([H])c(OC([H])([H])C([H])([H])C([H])([H])N([H])C(=O)C3([H])C([H])(C(=O)N4C([H])([H])C([H])([H])C([H])([H])C([H])(n5nc(-c6c([H])c([H])c(Oc7c([H])c([H])c(F)c([H])c7F)c([H])c6[H])c(C(=O)N([H])[H])c5N([H])[H])C4([H])[H])C4([H])C([H])([H])C3([H])[N+]4([H])[H])c([H])c([H])c2C1([H])[H]

$$$$
45:0:0
     RDKit          3D

 89 98  0  0  1  0  0  0  0  0999 V2000
  -30.5040  -22.6000   21.9570 C   0  0  0  0  0  2  0  0  0  0  0  0
  -29.5360  -21.3440   18.9360 C   0  0  0  0  0  2  0  0  0  0  0  0
  -29.7170  -23.8890   21.6840 C   0  0  0  0  0  2  0  0  0  0  0  0
  -29.3070  -19.7690   19.0180 C   0  0  0  0  0  2  0  0  0  0  0  0
  -30.4270  -20.1050   21.2030 C   0  0  0  0  0  2  0  0  0  0  0  0
  -29.6300  -21.4730   21.3960 C   0  0  0  0  0  3  0  0  0  0  0  0
  -28.9740  -22.1610   20.1430 C   0  0  0  0  0  3  0  0  0  0  0  0
  -29.6930  -19.0130   20.3560 C   0  0  0  0  0  3  0  0  0  0  0  0
  -29.2270  -23.7770   20.2390 C   0  0  0  0  0  3  0  0  0  0  0  0
  -30.4650  -17.5740   20.2210 C   0  0  0  0  0  3  0  0  0  0  0  0
  -29.8220  -16.1530   20.6890 C   0  0  0  0  0  3  0  0  0  0  0  0
  -30.5840  -14.7720   20.3700 C   0  0  0  0  0  0  0  0  0  0  0  0
  -30.3620  -12.4950   19.3670 C   0  0  0  0  0  2  0  0  0  0  0  0
  -29.4200  -12.5780   18.1450 C   0  0  0  0  0  2  0  0  0  0  0  0
  -27.9540  -12.4030   18.5840 C   0  0  0  0  0  2  0  0  0  0  0  0
  -27.5830  -13.2980   19.7940 C   0  0  0  0  0  3  0  0  0  0  0  0
  -28.6460  -13.2160   20.9120 C   0  0  0  0  0  2  0  0  0  0  0  0
  -29.9520  -13.5470   20.3250 N   0  0  0  0  0  0  0  0  0  0  0  0
  -31.7620  -14.8480   20.0130 O   0  0  0  0  0  0  0  0  0  0  0  0
  -25.1960  -13.8880   20.5250 C   0  0  0  0  0  0  0  0  0  0  0  0
  -24.1290  -13.1110   20.8960 C   0  0  0  0  0  0  0  0  0  0  0  0
  -24.5950  -11.7630   20.8690 C   0  0  0  0  0  0  0  0  0  0  0  0
  -26.2400  -13.0090   20.2900 N   0  0  0  0  0  0  0  0  0  0  0  0
  -25.8860  -11.7260   20.5610 N   0  0  0  0  0  0  0  0  0  0  0  0
  -23.8710  -10.4980   21.0620 C   0  0  0  0  0  0  0  0  0  0  0  0
  -24.3130   -9.5270   21.9860 C   0  0  0  0  0  3  0  0  0  0  0  0
  -23.5880   -8.3290   22.1670 C   0  0  0  0  0  3  0  0  0  0  0  0
  -22.4070   -8.0940   21.4230 C   0  0  0  0  0  0  0  0  0  0  0  0
  -21.9840   -9.0550   20.4880 C   0  0  0  0  0  3  0  0  0  0  0  0
  -22.7090  -10.2450   20.3050 C   0  0  0  0  0  3  0  0  0  0  0  0
  -21.6520   -6.9490   21.5140 O   0  0  0  0  0  0  0  0  0  0  0  0
  -21.6280   -6.1930   22.6580 C   0  0  0  0  0  0  0  0  0  0  0  0
  -21.2410   -6.7360   23.9020 C   0  0  0  0  0  3  0  0  0  0  0  0
  -21.1630   -5.9070   25.0390 C   0  0  0  0  0  3  0  0  0  0  0  0
  -21.4610   -4.5350   24.9340 C   0  0  0  0  0  0  0  0  0  0  0  0
  -21.8420   -3.9920   23.6940 C   0  0  0  0  0  3  0  0  0  0  0  0
  -21.9220   -4.8170   22.5590 C   0  0  0  0  0  0  0  0  0  0  0  0
  -22.2690   -4.2850   21.3630 F   0  0  0  0  0  0  0  0  0  0  0  0
  -21.3800   -3.7370   26.0230 F   0  0  0  0  0  0  0  0  0  0  0  0
  -22.7310  -13.5880   21.1620 C   0  0  0  0  0  0  0  0  0  0  0  0
  -22.0040  -12.8940   22.0320 N   0  0  0  0  0  0  0  0  0  0  0  0
  -22.2920  -14.6110   20.6390 O   0  0  0  0  0  0  0  0  0  0  0  0
  -22.3700  -12.0630   22.4730 H   0  0  0  0  0  0  0  0  0  0  0  0
  -21.0660  -13.1930   22.2550 H   0  0  0  0  0  0  0  0  0  0  0  0
  -25.3610  -15.2570   20.3460 N   0  0  0  0  0  0  0  0  0  0  0  0
  -24.6020  -15.9180   20.4650 H   0  0  0  0  0  0  0  0  0  0  0  0
  -26.2210  -15.6920   20.0350 H   0  0  0  0  0  0  0  0  0  0  0  0
  -28.0790  -24.8990   19.9500 C   0  0  0  0  0  2  0  0  0  0  0  0
  -28.2910  -26.3790   20.1920 O   0  0  0  0  0  0  0  0  0  0  0  0
  -24.6280  -31.9110   23.2390 C   0  0  0  0  0  0  0  0  0  0  0  0
  -27.1850  -27.2750   20.1640 C   0  0  0  0  0  0  0  0  0  0  0  0
  -23.4040  -30.5180   21.6130 C   0  0  0  0  0  3  0  0  0  0  0  0
  -24.8330  -28.9470   20.1810 C   0  0  0  0  0  0  0  0  0  0  0  0
  -25.9480  -30.8030   21.4100 C   0  0  0  0  0  2  0  0  0  0  0  0
  -26.0160  -29.4160   20.7660 C   0  0  0  0  0  0  0  0  0  0  0  0
  -27.1920  -28.5920   20.7460 C   0  0  0  0  0  3  0  0  0  0  0  0
  -25.9690  -26.8740   19.5610 C   0  0  0  0  0  3  0  0  0  0  0  0
  -24.8150  -27.6820   19.5730 C   0  0  0  0  0  3  0  0  0  0  0  0
  -23.6050  -29.8340   20.2350 C   0  0  0  0  0  2  0  0  0  0  0  0
  -24.6820  -31.0940   22.1460 N   0  0  0  0  0  0  0  0  0  0  0  0
  -23.5500  -32.1980   23.7810 O   0  0  0  0  0  0  0  0  0  0  0  0
  -22.7360  -29.5120   22.5820 C   0  0  0  0  0  0  0  0  0  0  0  0
  -21.4070  -29.3420   22.4640 N   0  0  0  0  0  0  0  0  0  0  0  0
  -23.4140  -28.8830   23.3990 O   0  0  0  0  0  0  0  0  0  0  0  0
  -20.9170  -29.9010   21.7800 H   0  0  0  0  0  0  0  0  0  0  0  0
  -18.0300  -28.1520   22.9790 C   0  0  0  0  0  0  0  0  0  0  0  0
  -20.5890  -28.4090   23.2420 C   0  0  0  0  0  3  0  0  0  0  0  0
  -20.6870  -26.9750   22.6740 C   0  0  0  0  0  2  0  0  0  0  0  0
  -19.5830  -26.6490   21.6640 C   0  0  0  0  0  2  0  0  0  0  0  0
  -18.2040  -26.7980   22.3110 C   0  0  0  0  0  2  0  0  0  0  0  0
  -19.1500  -28.9150   23.4000 C   0  0  0  0  0  0  0  0  0  0  0  0
  -18.9360  -30.1820   23.9830 C   0  0  0  0  0  3  0  0  0  0  0  0
  -17.6330  -30.6870   24.1490 C   0  0  0  0  0  3  0  0  0  0  0  0
  -16.5260  -29.9220   23.7430 C   0  0  0  0  0  3  0  0  0  0  0  0
  -16.7250  -28.6560   23.1630 C   0  0  0  0  0  3  0  0  0  0  0  0
  -25.9180  -32.5410   23.8500 C   0  0  0  0  0  3  0  0  0  0  0  0
  -26.4450  -31.7630   25.1170 C   0  0  1  0  0  0  0  0  0  0  0  0
  -25.3610  -31.5190   26.1940 C   0  0  0  0  0  1  0  0  0  0  0  0
  -27.0200  -30.3870   24.7110 C   0  0  0  0  0  1  0  0  0  0  0  0
  -27.6040  -32.5480   25.7730 C   0  0  0  0  0  1  0  0  0  0  0  0
  -25.6120  -33.9370   24.1950 N   0  0  0  0  0  0  0  0  0  0  0  0
  -25.9230  -34.9960   23.4360 C   0  0  0  0  0  0  0  0  0  0  0  0
  -26.5670  -34.9010   22.3870 O   0  0  0  0  0  0  0  0  0  0  0  0
  -25.0360  -34.0850   25.0110 H   0  0  0  0  0  0  0  0  0  0  0  0
  -24.1740  -36.7810   23.1470 C   0  0  0  0  0  1  0  0  0  0  0  0
  -25.4440  -36.3810   23.9140 C   0  0  0  0  0  3  0  0  0  0  0  0
  -27.6030  -37.2720   24.6730 C   0  0  0  0  0  1  0  0  0  0  0  0
  -26.4670  -37.4410   23.7710 N   0  0  0  0  0  0  0  0  0  0  0  0
  -26.0610  -38.3580   23.9430 H   0  0  0  0  0  0  0  0  0  0  0  0
  2  4  1  0
  3  1  1  0
  4  8  1  0
  6  5  1  0
  6  1  1  0
  7  2  1  0
  7  9  1  0
  7  6  1  0
  8 10  1  0
  8  5  1  0
  9 48  1  0
  9  3  1  0
 10 11  2  0
 12 11  1  0
 13 18  1  0
 14 15  1  0
 14 13  1  0
 16 15  1  0
 16 23  1  0
 16 17  1  0
 18 12  1  0
 18 17  1  0
 19 12  2  0
 20 21  2  0
 21 40  1  0
 22 21  1  0
 22 25  1  0
 23 20  1  0
 23 24  1  0
 24 22  2  0
 25 26  1  0
 26 27  2  0
 28 31  1  0
 28 27  1  0
 29 28  2  0
 30 29  1  0
 30 25  2  0
 31 32  1  0
 32 33  1  0
 33 34  2  0
 35 34  1  0
 35 39  1  0
 36 35  2  0
 37 32  2  0
 37 36  1  0
 38 37  1  0
 40 41  1  0
 41 44  1  0
 41 43  1  0
 42 40  2  0
 45 46  1  0
 45 20  1  0
 47 45  1  0
 48 49  1  0
 50 61  2  0
 51 49  1  0
 51 56  1  0
 52 60  1  0
 52 62  1  0
 53 59  1  0
 53 55  1  0
 54 60  1  0
 55 54  1  0
 56 55  2  0
 57 58  1  0
 57 51  2  0
 58 53  2  0
 59 52  1  0
 60 50  1  0
 62 64  2  0
 63 62  1  0
 65 63  1  0
 66 75  2  0
 66 71  1  0
 67 63  1  0
 67 71  1  0
 68 67  1  0
 69 70  1  0
 69 68  1  0
 70 66  1  0
 71 72  2  0
 72 73  1  0
 74 73  2  0
 75 74  1  0
 76 50  1  0
 76 81  1  0
 76 77  1  0
 77 80  1  1
 77 78  1  0
 79 77  1  0
 81 84  1  0
 82 86  1  0
 82 81  1  0
 83 82  2  0
 86 85  1  0
 88 86  1  0
 88 89  1  0
 88 87  1  0
M  ISO  4  11 100  12 100  48 101  49 101
M  END
>  <TORSDO>  (46) 
F 19

>  <SCORE>  (46) 
-14.363

>  <name>  (46) 
45

>  <ligand_id>  (46) 
45

>  <original_smiles>  (46) 
[H]c1c([H])c([H])c2c(c1[H])C([H])([H])C([H])([H])C([H])([H])C2([H])N([H])C(=O)C1([H])N(C(=O)C([H])(N([H])C(=O)C([H])(N([H])C([H])([H])[H])C([H])([H])[H])C(C([H])([H])[H])(C([H])([H])[H])C([H])([H])[H])C([H])([H])c2c([H])c(OC([H])([H])C3([H])C([H])([H])C([H])([H])C4([H])C([H])([H])C([H])(C([H])([H])C([H])([H])C(=O)N5C([H])([H])C([H])([H])C([H])([H])C([H])(n6nc(-c7c([H])c([H])c(Oc8c([H])c([H])c(F)c([H])c8F)c([H])c7[H])c(C(=O)N([H])[H])c6N([H])[H])C5([H])[H])C([H])([H])C([H])([H])C34[H])c([H])c([H])c2C1([H])[H]

>  <smiles>  (46) 
[H]c1c([H])c([H])c2c(c1[H])C([H])([H])C([H])([H])C([H])([H])C2([H])N([H])C(=O)C1([H])N(C(=O)C([H])(N([H])C(=O)C([H])(N([H])C([H])([H])[H])C([H])([H])[H])C(C([H])([H])[H])(C([H])([H])[H])C([H])([H])[H])C([H])([H])c2c([H])c(OC([H])([H])C3([H])C([H])([H])C([H])([H])C4([H])C([H])([H])C([H])(C([H])([H])C([H])([H])C(=O)N5C([H])([H])C([H])([H])C([H])([H])C([H])(n6nc(-c7c([H])c([H])c(Oc8c([H])c([H])c(F)c([H])c8F)c([H])c7[H])c(C(=O)N([H])[H])c6N([H])[H])C5([H])[H])C([H])([H])C([H])([H])C34[H])c([H])c([H])c2C1([H])[H]

$$$$
46:0:0
     RDKit          3D

 90 98  0  0  1  0  0  0  0  0999 V2000
  -29.8400  -20.7960   20.4210 C   0  0  0  0  0  0  0  0  0  0  0  0
  -29.1110  -21.9690   20.1070 N   0  0  0  0  0  0  0  0  0  0  0  0
  -30.7590  -20.8860   21.2370 O   0  0  0  0  0  0  0  0  0  0  0  0
  -28.3810  -21.8330   19.4190 H   0  0  0  0  0  0  0  0  0  0  0  0
  -27.8060  -17.9370   20.8560 C   0  0  0  0  0  2  0  0  0  0  0  0
  -29.1800  -17.5410   21.4290 C   0  0  0  0  0  2  0  0  0  0  0  0
  -28.0420  -19.0620   19.8300 C   0  0  0  0  0  2  0  0  0  0  0  0
  -30.1910  -17.8140   20.3050 C   0  0  0  0  0  3  0  0  0  0  0  0
  -29.5720  -19.3000   19.7520 C   0  0  0  0  0  3  0  0  0  0  0  0
  -29.7500  -16.5940   18.1320 C   0  0  0  0  0  2  0  0  0  0  0  0
  -30.3120  -16.4660   19.3450 C   0  0  0  0  0  0  0  0  0  0  0  0
  -31.0820  -15.1050   19.5400 C   0  0  0  0  0  0  0  0  0  0  0  0
  -30.8080  -12.6860   18.8040 C   0  0  0  0  0  2  0  0  0  0  0  0
  -29.8010  -12.5820   17.6330 C   0  0  0  0  0  2  0  0  0  0  0  0
  -28.3600  -12.4230   18.1530 C   0  0  0  0  0  2  0  0  0  0  0  0
  -28.0390  -13.4180   19.2940 C   0  0  0  0  0  3  0  0  0  0  0  0
  -29.1720  -13.5510   20.3340 C   0  0  0  0  0  2  0  0  0  0  0  0
  -30.4200  -13.8700   19.6230 N   0  0  0  0  0  0  0  0  0  0  0  0
  -32.2960  -15.0350   19.3200 O   0  0  0  0  0  0  0  0  0  0  0  0
  -25.8140  -14.1510   20.2960 C   0  0  0  0  0  0  0  0  0  0  0  0
  -24.7190  -13.4450   20.7250 C   0  0  0  0  0  0  0  0  0  0  0  0
  -25.0590  -12.0670   20.5860 C   0  0  0  0  0  0  0  0  0  0  0  0
  -26.7410  -13.1950   19.9120 N   0  0  0  0  0  0  0  0  0  0  0  0
  -26.3070  -11.9320   20.1510 N   0  0  0  0  0  0  0  0  0  0  0  0
  -24.2460  -10.8560   20.7790 C   0  0  0  0  0  0  0  0  0  0  0  0
  -24.6450   -9.8370   21.6690 C   0  0  0  0  0  3  0  0  0  0  0  0
  -23.8390   -8.6910   21.8540 C   0  0  0  0  0  3  0  0  0  0  0  0
  -22.6190   -8.5620   21.1490 C   0  0  0  0  0  0  0  0  0  0  0  0
  -22.2370   -9.5720   20.2460 C   0  0  0  0  0  3  0  0  0  0  0  0
  -23.0430  -10.7080   20.0600 C   0  0  0  0  0  3  0  0  0  0  0  0
  -21.7800   -7.4780   21.2490 O   0  0  0  0  0  0  0  0  0  0  0  0
  -21.6830   -6.7540   22.4080 C   0  0  0  0  0  0  0  0  0  0  0  0
  -21.2960   -7.3480   23.6290 C   0  0  0  0  0  3  0  0  0  0  0  0
  -21.1350   -6.5510   24.7790 C   0  0  0  0  0  3  0  0  0  0  0  0
  -21.3440   -5.1600   24.7100 C   0  0  0  0  0  0  0  0  0  0  0  0
  -21.7270   -4.5670   23.4940 C   0  0  0  0  0  3  0  0  0  0  0  0
  -21.8890   -5.3610   22.3450 C   0  0  0  0  0  0  0  0  0  0  0  0
  -22.2360   -4.7810   21.1710 F   0  0  0  0  0  0  0  0  0  0  0  0
  -21.1820   -4.3930   25.8140 F   0  0  0  0  0  0  0  0  0  0  0  0
  -23.3950  -14.0200   21.1380 C   0  0  0  0  0  0  0  0  0  0  0  0
  -22.6880  -13.3520   22.0460 N   0  0  0  0  0  0  0  0  0  0  0  0
  -22.9960  -15.0930   20.6910 O   0  0  0  0  0  0  0  0  0  0  0  0
  -23.0100  -12.4760   22.4270 H   0  0  0  0  0  0  0  0  0  0  0  0
  -21.8040  -13.7250   22.3570 H   0  0  0  0  0  0  0  0  0  0  0  0
  -26.1030  -15.5080   20.1680 N   0  0  0  0  0  0  0  0  0  0  0  0
  -25.4570  -16.2570   20.3900 H   0  0  0  0  0  0  0  0  0  0  0  0
  -26.9820  -15.8570   19.8040 H   0  0  0  0  0  0  0  0  0  0  0  0
  -29.2860  -23.4710   20.5380 C   0  0  0  0  0  3  0  0  0  0  0  0
  -28.1450  -24.6660   20.2590 C   0  0  0  0  0  3  0  0  0  0  0  0
  -28.3390  -26.1960   20.3540 O   0  0  0  0  0  0  0  0  0  0  0  0
  -24.4660  -31.7280   23.1720 C   0  0  0  0  0  0  0  0  0  0  0  0
  -27.2360  -27.1100   20.2390 C   0  0  0  0  0  0  0  0  0  0  0  0
  -23.3360  -30.3140   21.4990 C   0  0  0  0  0  3  0  0  0  0  0  0
  -24.8540  -28.7720   20.1170 C   0  0  0  0  0  0  0  0  0  0  0  0
  -25.8830  -30.6480   21.3960 C   0  0  0  0  0  2  0  0  0  0  0  0
  -26.0050  -29.2590   20.7490 C   0  0  0  0  0  0  0  0  0  0  0  0
  -27.1940  -28.4480   20.7880 C   0  0  0  0  0  3  0  0  0  0  0  0
  -26.0570  -26.7110   19.5640 C   0  0  0  0  0  3  0  0  0  0  0  0
  -24.8900  -27.5070   19.5110 C   0  0  0  0  0  3  0  0  0  0  0  0
  -23.6050  -29.6420   20.1260 C   0  0  0  0  0  2  0  0  0  0  0  0
  -24.5790  -30.9160   22.0790 N   0  0  0  0  0  0  0  0  0  0  0  0
  -23.3620  -31.9910   23.6730 O   0  0  0  0  0  0  0  0  0  0  0  0
  -22.6570  -29.2910   22.4410 C   0  0  0  0  0  0  0  0  0  0  0  0
  -21.3370  -29.0920   22.2760 N   0  0  0  0  0  0  0  0  0  0  0  0
  -23.3170  -28.6760   23.2840 O   0  0  0  0  0  0  0  0  0  0  0  0
  -20.8600  -29.6350   21.5680 H   0  0  0  0  0  0  0  0  0  0  0  0
  -17.9600  -27.8580   22.7010 C   0  0  0  0  0  0  0  0  0  0  0  0
  -20.5090  -28.1450   23.0280 C   0  0  0  0  0  3  0  0  0  0  0  0
  -20.6410  -26.7180   22.4480 C   0  0  0  0  0  2  0  0  0  0  0  0
  -19.5630  -26.3890   21.4100 C   0  0  0  0  0  2  0  0  0  0  0  0
  -18.1670  -26.5150   22.0230 C   0  0  0  0  0  2  0  0  0  0  0  0
  -19.0600  -28.6310   23.1590 C   0  0  0  0  0  0  0  0  0  0  0  0
  -18.8140  -29.8870   23.7550 C   0  0  0  0  0  3  0  0  0  0  0  0
  -17.4980  -30.3670   23.9050 C   0  0  0  0  0  3  0  0  0  0  0  0
  -16.4130  -29.5920   23.4610 C   0  0  0  0  0  3  0  0  0  0  0  0
  -16.6460  -28.3410   22.8600 C   0  0  0  0  0  3  0  0  0  0  0  0
  -25.7160  -32.3820   23.8330 C   0  0  0  0  0  3  0  0  0  0  0  0
  -26.2040  -31.6170   25.1250 C   0  0  1  0  0  0  0  0  0  0  0  0
  -25.0800  -31.3540   26.1540 C   0  0  0  0  0  1  0  0  0  0  0  0
  -26.8350  -30.2530   24.7560 C   0  0  0  0  0  1  0  0  0  0  0  0
  -27.3160  -32.4340   25.8270 C   0  0  0  0  0  1  0  0  0  0  0  0
  -25.3690  -33.7740   24.1610 N   0  0  0  0  0  0  0  0  0  0  0  0
  -25.6970  -34.8380   23.4180 C   0  0  0  0  0  0  0  0  0  0  0  0
  -26.3940  -34.7540   22.4030 O   0  0  0  0  0  0  0  0  0  0  0  0
  -24.7450  -33.9100   24.9450 H   0  0  0  0  0  0  0  0  0  0  0  0
  -23.9380  -36.6000   23.0410 C   0  0  0  0  0  1  0  0  0  0  0  0
  -25.1720  -36.2160   23.8710 C   0  0  0  0  0  3  0  0  0  0  0  0
  -27.2730  -37.1460   24.7440 C   0  0  0  0  0  1  0  0  0  0  0  0
  -26.1860  -37.2900   23.7780 N   0  0  0  0  0  0  0  0  0  0  0  0
  -25.7570  -38.2010   23.9150 H   0  0  0  0  0  0  0  0  0  0  0  0
  1  3  2  0
  2  1  1  0
  2 48  1  0
  4  2  1  0
  5  6  1  0
  7  5  1  0
  8 11  1  0
  8  6  1  0
  9  7  1  0
  9  8  1  0
  9  1  1  0
 10 11  2  0
 11 12  1  0
 12 18  1  0
 13 18  1  0
 14 15  1  0
 14 13  1  0
 16 15  1  0
 16 23  1  0
 16 17  1  0
 18 17  1  0
 19 12  2  0
 20 21  2  0
 21 40  1  0
 22 21  1  0
 22 25  1  0
 23 24  1  0
 23 20  1  0
 24 22  2  0
 25 26  1  0
 26 27  2  0
 28 31  1  0
 28 27  1  0
 29 28  2  0
 30 29  1  0
 30 25  2  0
 31 32  1  0
 32 33  1  0
 33 34  2  0
 35 34  1  0
 35 39  1  0
 36 35  2  0
 37 32  2  0
 37 36  1  0
 38 37  1  0
 40 41  1  0
 41 44  1  0
 41 43  1  0
 42 40  2  0
 45 20  1  0
 45 46  1  0
 47 45  1  0
 49 50  1  0
 49 48  2  0
 51 62  2  0
 52 50  1  0
 52 57  1  0
 53 61  1  0
 53 63  1  0
 54 60  1  0
 54 56  1  0
 55 61  1  0
 56 57  2  0
 56 55  1  0
 58 52  2  0
 59 58  1  0
 59 54  2  0
 60 53  1  0
 61 51  1  0
 63 65  2  0
 64 63  1  0
 66 64  1  0
 67 76  2  0
 67 72  1  0
 68 64  1  0
 68 72  1  0
 69 68  1  0
 70 71  1  0
 70 69  1  0
 71 67  1  0
 72 73  2  0
 73 74  1  0
 75 74  2  0
 76 75  1  0
 77 51  1  0
 77 82  1  0
 77 78  1  0
 78 81  1  1
 78 79  1  0
 80 78  1  0
 82 85  1  0
 83 87  1  0
 83 82  1  0
 84 83  2  0
 87 86  1  0
 89 87  1  0
 89 90  1  0
 89 88  1  0
M  ISO  4  11 100  12 100  49 101  50 101
M  END
>  <TORSDO>  (47) 
F 20

>  <SCORE>  (47) 
-11.905

>  <name>  (47) 
46

>  <ligand_id>  (47) 
46

>  <original_smiles>  (47) 
[H]C([H])=C(C(=O)N1C([H])([H])C([H])([H])C([H])([H])C([H])(n2nc(-c3c([H])c([H])c(Oc4c([H])c([H])c(F)c([H])c4F)c([H])c3[H])c(C(=O)N([H])[H])c2N([H])[H])C1([H])[H])C1([H])C([H])([H])C([H])([H])C([H])([H])C1([H])C(=O)N([H])C([H])([H])C([H])([H])Oc1c([H])c([H])c2c(c1[H])C([H])([H])N(C(=O)C([H])(N([H])C(=O)C([H])(N([H])C([H])([H])[H])C([H])([H])[H])C(C([H])([H])[H])(C([H])([H])[H])C([H])([H])[H])C([H])(C(=O)N([H])C1([H])c3c([H])c([H])c([H])c([H])c3C([H])([H])C([H])([H])C1([H])[H])C2([H])[H]

>  <smiles>  (47) 
[H]C([H])=C(C(=O)N1C([H])([H])C([H])([H])C([H])([H])C([H])(n2nc(-c3c([H])c([H])c(Oc4c([H])c([H])c(F)c([H])c4F)c([H])c3[H])c(C(=O)N([H])[H])c2N([H])[H])C1([H])[H])C1([H])C([H])([H])C([H])([H])C([H])([H])C1([H])C(=O)N([H])C([H])([H])C([H])([H])Oc1c([H])c([H])c2c(c1[H])C([H])([H])N(C(=O)C([H])(N([H])C(=O)C([H])(N([H])C([H])([H])[H])C([H])([H])[H])C(C([H])([H])[H])(C([H])([H])[H])C([H])([H])[H])C([H])(C(=O)N([H])C1([H])c3c([H])c([H])c([H])c([H])c3C([H])([H])C([H])([H])C1([H])[H])C2([H])[H]

$$$$
47:0:0
     RDKit          3D

 89 97  0  0  1  0  0  0  0  0999 V2000
  -28.8880  -20.5370   20.2480 N   0  0  0  0  0  4  0  0  0  0  0  0
  -28.4760  -20.5570   19.3290 H   0  0  0  0  0  0  0  0  0  0  0  0
  -28.1470  -20.2420   20.8620 H   0  0  0  0  0  0  0  0  0  0  0  0
  -31.7970  -18.4490   21.5820 C   0  0  0  0  0  2  0  0  0  0  0  0
  -30.5630  -17.6350   21.9440 C   0  0  0  0  0  2  0  0  0  0  0  0
  -31.2210  -19.7380   20.9960 C   0  0  0  0  0  2  0  0  0  0  0  0
  -29.6370  -17.7810   20.7290 C   0  0  0  0  0  3  0  0  0  0  0  0
  -29.9440  -19.3550   20.2120 C   0  0  0  0  0  3  0  0  0  0  0  0
  -29.7070  -16.3820   19.8080 C   0  0  0  0  0  2  0  0  0  0  0  0
  -30.5510  -14.9660   19.9960 C   0  0  0  0  0  0  0  0  0  0  0  0
  -30.3860  -12.6330   19.0580 C   0  0  0  0  0  2  0  0  0  0  0  0
  -29.4010  -12.6410   17.8650 C   0  0  0  0  0  2  0  0  0  0  0  0
  -27.9530  -12.4340   18.3500 C   0  0  0  0  0  2  0  0  0  0  0  0
  -27.6000  -13.3350   19.5580 C   0  0  0  0  0  3  0  0  0  0  0  0
  -28.7030  -13.3230   20.6350 C   0  0  0  0  0  2  0  0  0  0  0  0
  -29.9650  -13.7060   19.9960 N   0  0  0  0  0  0  0  0  0  0  0  0
  -31.7660  -15.0110   19.7820 O   0  0  0  0  0  0  0  0  0  0  0  0
  -25.2580  -13.9110   20.4170 C   0  0  0  0  0  0  0  0  0  0  0  0
  -24.2090  -13.1320   20.8220 C   0  0  0  0  0  0  0  0  0  0  0  0
  -24.6730  -11.7820   20.7560 C   0  0  0  0  0  0  0  0  0  0  0  0
  -26.2880  -13.0350   20.1170 N   0  0  0  0  0  0  0  0  0  0  0  0
  -25.9480  -11.7480   20.3910 N   0  0  0  0  0  0  0  0  0  0  0  0
  -23.9550  -10.5170   20.9610 C   0  0  0  0  0  0  0  0  0  0  0  0
  -24.4070   -9.5520   21.8880 C   0  0  0  0  0  3  0  0  0  0  0  0
  -23.6890   -8.3530   22.0810 C   0  0  0  0  0  3  0  0  0  0  0  0
  -22.5050   -8.1090   21.3460 C   0  0  0  0  0  0  0  0  0  0  0  0
  -22.0720   -9.0620   20.4060 C   0  0  0  0  0  3  0  0  0  0  0  0
  -22.7910  -10.2530   20.2120 C   0  0  0  0  0  3  0  0  0  0  0  0
  -21.7560   -6.9620   21.4480 O   0  0  0  0  0  0  0  0  0  0  0  0
  -21.7080   -6.2340   22.6100 C   0  0  0  0  0  0  0  0  0  0  0  0
  -21.2560   -6.7980   23.8240 C   0  0  0  0  0  3  0  0  0  0  0  0
  -21.1580   -5.9960   24.9790 C   0  0  0  0  0  3  0  0  0  0  0  0
  -21.5010   -4.6320   24.9210 C   0  0  0  0  0  0  0  0  0  0  0  0
  -21.9460   -4.0680   23.7120 C   0  0  0  0  0  3  0  0  0  0  0  0
  -22.0460   -4.8670   22.5600 C   0  0  0  0  0  0  0  0  0  0  0  0
  -22.4550   -4.3140   21.3920 F   0  0  0  0  0  0  0  0  0  0  0  0
  -21.3990   -3.8590   26.0280 F   0  0  0  0  0  0  0  0  0  0  0  0
  -22.8240  -13.6040   21.1530 C   0  0  0  0  0  0  0  0  0  0  0  0
  -22.1300  -12.8970   22.0360 N   0  0  0  0  0  0  0  0  0  0  0  0
  -22.3670  -14.6370   20.6620 O   0  0  0  0  0  0  0  0  0  0  0  0
  -22.5120  -12.0610   22.4540 H   0  0  0  0  0  0  0  0  0  0  0  0
  -21.1990  -13.1920   22.2960 H   0  0  0  0  0  0  0  0  0  0  0  0
  -25.4150  -15.2840   20.2510 N   0  0  0  0  0  0  0  0  0  0  0  0
  -24.6550  -15.9380   20.4110 H   0  0  0  0  0  0  0  0  0  0  0  0
  -26.2510  -15.7290   19.8950 H   0  0  0  0  0  0  0  0  0  0  0  0
  -29.2070  -22.0380   20.6440 C   0  0  0  0  0  2  0  0  0  0  0  0
  -28.4650  -23.3940   19.9860 C   0  0  0  0  0  2  0  0  0  0  0  0
  -28.2430  -24.8490   20.7860 C   0  0  0  0  0  2  0  0  0  0  0  0
  -28.3410  -26.2970   20.2630 O   0  0  0  0  0  0  0  0  0  0  0  0
  -24.6070  -31.9150   23.2230 C   0  0  0  0  0  0  0  0  0  0  0  0
  -27.2460  -27.2170   20.2730 C   0  0  0  0  0  0  0  0  0  0  0  0
  -23.4320  -30.5030   21.5760 C   0  0  0  0  0  3  0  0  0  0  0  0
  -24.9040  -28.9160   20.1950 C   0  0  0  0  0  0  0  0  0  0  0  0
  -25.9830  -30.7870   21.4400 C   0  0  0  0  0  2  0  0  0  0  0  0
  -26.0720  -29.3890   20.8070 C   0  0  0  0  0  0  0  0  0  0  0  0
  -27.2480  -28.5570   20.8220 C   0  0  0  0  0  3  0  0  0  0  0  0
  -26.0490  -26.8220   19.6430 C   0  0  0  0  0  3  0  0  0  0  0  0
  -24.9010  -27.6440   19.6000 C   0  0  0  0  0  3  0  0  0  0  0  0
  -23.6720  -29.8090   20.2090 C   0  0  0  0  0  2  0  0  0  0  0  0
  -24.6920  -31.0890   22.1350 N   0  0  0  0  0  0  0  0  0  0  0  0
  -23.5140  -32.2000   23.7350 O   0  0  0  0  0  0  0  0  0  0  0  0
  -22.7430  -29.5030   22.5380 C   0  0  0  0  0  0  0  0  0  0  0  0
  -21.4150  -29.3370   22.4010 N   0  0  0  0  0  0  0  0  0  0  0  0
  -23.4050  -28.8760   23.3690 O   0  0  0  0  0  0  0  0  0  0  0  0
  -20.9390  -29.8930   21.7040 H   0  0  0  0  0  0  0  0  0  0  0  0
  -18.0220  -28.1750   22.8930 C   0  0  0  0  0  0  0  0  0  0  0  0
  -20.5830  -28.4090   23.1670 C   0  0  0  0  0  3  0  0  0  0  0  0
  -20.6700  -26.9760   22.5900 C   0  0  0  0  0  2  0  0  0  0  0  0
  -19.5670  -26.6680   21.5720 C   0  0  0  0  0  2  0  0  0  0  0  0
  -18.1860  -26.8260   22.2140 C   0  0  0  0  0  2  0  0  0  0  0  0
  -19.1470  -28.9250   23.3270 C   0  0  0  0  0  0  0  0  0  0  0  0
  -18.9410  -30.1860   23.9250 C   0  0  0  0  0  3  0  0  0  0  0  0
  -17.6400  -30.6990   24.0910 C   0  0  0  0  0  3  0  0  0  0  0  0
  -16.5280  -29.9480   23.6720 C   0  0  0  0  0  3  0  0  0  0  0  0
  -16.7210  -28.6870   23.0800 C   0  0  0  0  0  3  0  0  0  0  0  0
  -25.8750  -32.5560   23.8640 C   0  0  0  0  0  3  0  0  0  0  0  0
  -25.5580  -33.9570   24.1800 N   0  0  0  0  0  0  0  0  0  0  0  0
  -25.9000  -35.0070   23.4220 C   0  0  0  0  0  0  0  0  0  0  0  0
  -26.5830  -34.8980   22.4000 O   0  0  0  0  0  0  0  0  0  0  0  0
  -24.9510  -34.1150   24.9720 H   0  0  0  0  0  0  0  0  0  0  0  0
  -24.1810  -36.8030   23.0370 C   0  0  0  0  0  1  0  0  0  0  0  0
  -25.4090  -36.3980   23.8680 C   0  0  0  0  0  3  0  0  0  0  0  0
  -27.5300  -37.2880   24.7290 C   0  0  0  0  0  1  0  0  0  0  0  0
  -26.4460  -37.4490   23.7650 N   0  0  0  0  0  0  0  0  0  0  0  0
  -26.0380  -38.3710   23.8980 H   0  0  0  0  0  0  0  0  0  0  0  0
  -26.3660  -31.7970   25.1590 C   0  0  1  0  0  0  0  0  0  0  0  0
  -25.2510  -31.5710   26.2070 C   0  0  0  0  0  1  0  0  0  0  0  0
  -26.9560  -30.4150   24.7960 C   0  0  0  0  0  1  0  0  0  0  0  0
  -27.5030  -32.5970   25.8370 C   0  0  0  0  0  1  0  0  0  0  0  0
  1 46  1  0
  1  3  1  0
  2  1  1  0
  4  5  1  0
  6  4  1  0
  7  9  1  0
  7  5  1  0
  8  1  1  0
  8  7  1  0
  8  6  1  0
  9 10  1  0
 10 16  1  0
 11 16  1  0
 12 13  1  0
 12 11  1  0
 14 13  1  0
 14 21  1  0
 14 15  1  0
 16 15  1  0
 17 10  2  0
 18 19  2  0
 19 38  1  0
 20 19  1  0
 20 23  1  0
 21 22  1  0
 21 18  1  0
 22 20  2  0
 23 24  1  0
 24 25  2  0
 26 29  1  0
 26 25  1  0
 27 26  2  0
 28 27  1  0
 28 23  2  0
 29 30  1  0
 30 31  1  0
 31 32  2  0
 33 32  1  0
 33 37  1  0
 34 33  2  0
 35 30  2  0
 35 34  1  0
 36 35  1  0
 38 39  1  0
 39 42  1  0
 39 41  1  0
 40 38  2  0
 43 44  1  0
 43 18  1  0
 45 43  1  0
 47 46  1  0
 47 48  1  0
 49 51  1  0
 49 48  1  0
 50 61  2  0
 51 56  1  0
 52 60  1  0
 52 62  1  0
 53 59  1  0
 53 55  1  0
 54 60  1  0
 55 56  2  0
 55 54  1  0
 57 51  2  0
 58 57  1  0
 58 53  2  0
 59 52  1  0
 60 50  1  0
 62 64  2  0
 63 62  1  0
 65 63  1  0
 66 75  2  0
 66 71  1  0
 67 63  1  0
 67 71  1  0
 68 67  1  0
 69 70  1  0
 69 68  1  0
 70 66  1  0
 71 72  2  0
 72 73  1  0
 74 73  2  0
 75 74  1  0
 76 50  1  0
 76 77  1  0
 76 86  1  0
 77 80  1  0
 78 82  1  0
 78 77  1  0
 79 78  2  0
 82 81  1  0
 84 82  1  0
 84 85  1  0
 84 83  1  0
 86 89  1  1
 86 87  1  0
 88 86  1  0
M  ISO  4   9 100  10 100  48 101  49 101
M  END
>  <TORSDO>  (48) 
F 21

>  <SCORE>  (48) 
-13.489

>  <name>  (48) 
47

>  <ligand_id>  (48) 
47

>  <original_smiles>  (48) 
[H]c1c([H])c([H])c2c(c1[H])C([H])([H])C([H])([H])C([H])([H])C2([H])N([H])C(=O)C1([H])N(C(=O)C([H])(N([H])C(=O)C([H])(N([H])C([H])([H])[H])C([H])([H])[H])C(C([H])([H])[H])(C([H])([H])[H])C([H])([H])[H])C([H])([H])c2c([H])c(OC([H])([H])C([H])([H])C([H])([H])[N+]([H])([H])C3([H])C([H])([H])C([H])([H])C([H])([H])C3([H])C([H])([H])C(=O)N3C([H])([H])C([H])([H])C([H])([H])C([H])(n4nc(-c5c([H])c([H])c(Oc6c([H])c([H])c(F)c([H])c6F)c([H])c5[H])c(C(=O)N([H])[H])c4N([H])[H])C3([H])[H])c([H])c([H])c2C1([H])[H]

>  <smiles>  (48) 
[H]c1c([H])c([H])c2c(c1[H])C([H])([H])C([H])([H])C([H])([H])C2([H])N([H])C(=O)C1([H])N(C(=O)C([H])(N([H])C(=O)C([H])(N([H])C([H])([H])[H])C([H])([H])[H])C(C([H])([H])[H])(C([H])([H])[H])C([H])([H])[H])C([H])([H])c2c([H])c(OC([H])([H])C([H])([H])C([H])([H])[N+]([H])([H])C3([H])C([H])([H])C([H])([H])C([H])([H])C3([H])C([H])([H])C(=O)N3C([H])([H])C([H])([H])C([H])([H])C([H])(n4nc(-c5c([H])c([H])c(Oc6c([H])c([H])c(F)c([H])c6F)c([H])c5[H])c(C(=O)N([H])[H])c4N([H])[H])C3([H])[H])c([H])c([H])c2C1([H])[H]

$$$$
48:0:0
     RDKit          3D

 91101  0  0  1  0  0  0  0  0999 V2000
  -30.2960  -22.6030   22.5420 C   0  0  0  0  0  2  0  0  0  0  0  0
  -28.3730  -23.1600   22.8310 C   0  0  0  0  0  2  0  0  0  0  0  0
  -29.4770  -23.7580   21.9410 C   0  0  1  0  0  0  0  0  0  0  0  0
  -28.9720  -21.8980   22.1870 C   0  0  2  0  0  0  0  0  0  0  0  0
  -29.1410  -23.5150   20.4710 C   0  0  0  0  0  3  0  0  0  0  0  0
  -28.7790  -21.8850   20.6700 C   0  0  0  0  0  3  0  0  0  0  0  0
  -29.5340  -20.6050   18.5310 C   0  0  0  0  0  1  0  0  0  0  0  0
  -29.6230  -20.5670   20.0650 C   0  0  0  0  0  3  0  0  0  0  0  0
  -29.3160  -19.1050   20.5850 N   0  0  0  0  0  4  0  0  0  0  0  0
  -29.3590  -19.1560   21.5900 H   0  0  0  0  0  0  0  0  0  0  0  0
  -28.3540  -18.9130   20.3590 H   0  0  0  0  0  0  0  0  0  0  0  0
  -30.1550  -17.8270   20.1820 C   0  0  0  0  0  3  0  0  0  0  0  0
  -29.7750  -16.2930   20.7300 C   0  0  0  0  0  3  0  0  0  0  0  0
  -30.5850  -14.9120   20.3440 C   0  0  0  0  0  0  0  0  0  0  0  0
  -30.4620  -12.5820   19.3610 C   0  0  0  0  0  2  0  0  0  0  0  0
  -29.5360  -12.6020   18.1220 C   0  0  0  0  0  2  0  0  0  0  0  0
  -28.0630  -12.4070   18.5340 C   0  0  0  0  0  2  0  0  0  0  0  0
  -27.6630  -13.3110   19.7290 C   0  0  0  0  0  3  0  0  0  0  0  0
  -28.7080  -13.2660   20.8640 C   0  0  0  0  0  2  0  0  0  0  0  0
  -30.0040  -13.6500   20.2910 N   0  0  0  0  0  0  0  0  0  0  0  0
  -31.7660  -15.0010   19.9880 O   0  0  0  0  0  0  0  0  0  0  0  0
  -25.2680  -13.9000   20.4230 C   0  0  0  0  0  0  0  0  0  0  0  0
  -24.2000  -13.1290   20.7910 C   0  0  0  0  0  0  0  0  0  0  0  0
  -24.6670  -11.7790   20.7880 C   0  0  0  0  0  0  0  0  0  0  0  0
  -26.3170  -13.0200   20.2110 N   0  0  0  0  0  0  0  0  0  0  0  0
  -25.9630  -11.7410   20.4960 N   0  0  0  0  0  0  0  0  0  0  0  0
  -23.9400  -10.5180   20.9880 C   0  0  0  0  0  0  0  0  0  0  0  0
  -24.3660   -9.5620   21.9370 C   0  0  0  0  0  3  0  0  0  0  0  0
  -23.6380   -8.3670   22.1240 C   0  0  0  0  0  3  0  0  0  0  0  0
  -22.4710   -8.1200   21.3620 C   0  0  0  0  0  0  0  0  0  0  0  0
  -22.0650   -9.0640   20.4030 C   0  0  0  0  0  3  0  0  0  0  0  0
  -22.7930  -10.2500   20.2140 C   0  0  0  0  0  3  0  0  0  0  0  0
  -21.7160   -6.9760   21.4590 O   0  0  0  0  0  0  0  0  0  0  0  0
  -21.6640   -6.2430   22.6170 C   0  0  0  0  0  0  0  0  0  0  0  0
  -21.2390   -6.8080   23.8390 C   0  0  0  0  0  3  0  0  0  0  0  0
  -21.1350   -6.0010   24.9890 C   0  0  0  0  0  3  0  0  0  0  0  0
  -21.4460   -4.6300   24.9190 C   0  0  0  0  0  0  0  0  0  0  0  0
  -21.8640   -4.0640   23.7020 C   0  0  0  0  0  3  0  0  0  0  0  0
  -21.9700   -4.8670   22.5540 C   0  0  0  0  0  0  0  0  0  0  0  0
  -22.3530   -4.3130   21.3790 F   0  0  0  0  0  0  0  0  0  0  0  0
  -21.3380   -3.8530   26.0220 F   0  0  0  0  0  0  0  0  0  0  0  0
  -22.7980  -13.6070   21.0340 C   0  0  0  0  0  0  0  0  0  0  0  0
  -22.0590  -12.9250   21.9010 N   0  0  0  0  0  0  0  0  0  0  0  0
  -22.3660  -14.6230   20.4900 O   0  0  0  0  0  0  0  0  0  0  0  0
  -22.4210  -12.1030   22.3630 H   0  0  0  0  0  0  0  0  0  0  0  0
  -21.1180  -13.2280   22.1080 H   0  0  0  0  0  0  0  0  0  0  0  0
  -25.4330  -15.2680   20.2260 N   0  0  0  0  0  0  0  0  0  0  0  0
  -24.6610  -15.9210   20.3070 H   0  0  0  0  0  0  0  0  0  0  0  0
  -26.2780  -15.6970   19.8740 H   0  0  0  0  0  0  0  0  0  0  0  0
  -28.0960  -24.7360   20.0120 C   0  0  0  0  0  2  0  0  0  0  0  0
  -28.3410  -26.2520   20.1800 O   0  0  0  0  0  0  0  0  0  0  0  0
  -24.6720  -31.8550   23.1780 C   0  0  0  0  0  0  0  0  0  0  0  0
  -27.2640  -27.1980   20.1180 C   0  0  0  0  0  0  0  0  0  0  0  0
  -23.4690  -30.4610   21.5390 C   0  0  0  0  0  3  0  0  0  0  0  0
  -24.9180  -28.9030   20.1020 C   0  0  0  0  0  0  0  0  0  0  0  0
  -26.0180  -30.7490   21.3610 C   0  0  0  0  0  2  0  0  0  0  0  0
  -26.0950  -29.3630   20.7040 C   0  0  0  0  0  0  0  0  0  0  0  0
  -27.2700  -28.5260   20.6960 C   0  0  0  0  0  3  0  0  0  0  0  0
  -26.0590  -26.8290   19.4780 C   0  0  0  0  0  3  0  0  0  0  0  0
  -24.9110  -27.6480   19.4740 C   0  0  0  0  0  3  0  0  0  0  0  0
  -23.6850  -29.7880   20.1570 C   0  0  0  0  0  2  0  0  0  0  0  0
  -24.7400  -31.0420   22.0820 N   0  0  0  0  0  0  0  0  0  0  0  0
  -23.5870  -32.1330   23.7130 O   0  0  0  0  0  0  0  0  0  0  0  0
  -22.8010  -29.4460   22.5010 C   0  0  0  0  0  0  0  0  0  0  0  0
  -21.4720  -29.2770   22.3850 N   0  0  0  0  0  0  0  0  0  0  0  0
  -23.4810  -28.8130   23.3130 O   0  0  0  0  0  0  0  0  0  0  0  0
  -20.9810  -29.8380   21.7040 H   0  0  0  0  0  0  0  0  0  0  0  0
  -18.0930  -28.0840   22.9130 C   0  0  0  0  0  0  0  0  0  0  0  0
  -20.6560  -28.3370   23.1580 C   0  0  0  0  0  3  0  0  0  0  0  0
  -20.7480  -26.9090   22.5730 C   0  0  0  0  0  2  0  0  0  0  0  0
  -19.6350  -26.5960   21.5680 C   0  0  0  0  0  2  0  0  0  0  0  0
  -18.2600  -26.7400   22.2260 C   0  0  0  0  0  2  0  0  0  0  0  0
  -19.2190  -28.8410   23.3370 C   0  0  0  0  0  0  0  0  0  0  0  0
  -19.0080  -30.0990   23.9420 C   0  0  0  0  0  3  0  0  0  0  0  0
  -17.7060  -30.6010   24.1260 C   0  0  0  0  0  3  0  0  0  0  0  0
  -16.5960  -29.8410   23.7180 C   0  0  0  0  0  3  0  0  0  0  0  0
  -16.7910  -28.5850   23.1170 C   0  0  0  0  0  3  0  0  0  0  0  0
  -25.9510  -32.4930   23.8010 C   0  0  0  0  0  3  0  0  0  0  0  0
  -25.6330  -33.8870   24.1480 N   0  0  0  0  0  0  0  0  0  0  0  0
  -25.9480  -34.9510   23.3980 C   0  0  0  0  0  0  0  0  0  0  0  0
  -26.6030  -34.8630   22.3560 O   0  0  0  0  0  0  0  0  0  0  0  0
  -25.0500  -34.0280   24.9590 H   0  0  0  0  0  0  0  0  0  0  0  0
  -24.1980  -36.7350   23.0980 C   0  0  0  0  0  1  0  0  0  0  0  0
  -25.4590  -36.3330   23.8780 C   0  0  0  0  0  3  0  0  0  0  0  0
  -27.6020  -37.2310   24.6730 C   0  0  0  0  0  1  0  0  0  0  0  0
  -26.4820  -37.3950   23.7500 N   0  0  0  0  0  0  0  0  0  0  0  0
  -26.0720  -38.3110   23.9080 H   0  0  0  0  0  0  0  0  0  0  0  0
  -26.4740  -31.7160   25.0720 C   0  0  1  0  0  0  0  0  0  0  0  0
  -25.3860  -31.4700   26.1430 C   0  0  0  0  0  1  0  0  0  0  0  0
  -27.0610  -30.3420   24.6740 C   0  0  0  0  0  1  0  0  0  0  0  0
  -27.6260  -32.5100   25.7340 C   0  0  0  0  0  1  0  0  0  0  0  0
  3  4  1  0
  3  1  1  6
  3  2  1  0
  4  1  1  1
  4  2  1  0
  5 50  1  0
  5  6  1  0
  5  3  1  0
  6  8  1  0
  6  4  1  0
  8  7  1  0
  8  9  1  0
  9 10  1  0
 11  9  1  0
 12  9  1  0
 12 13  2  0
 14 13  1  0
 15 20  1  0
 16 17  1  0
 16 15  1  0
 18 17  1  0
 18 25  1  0
 18 19  1  0
 20 14  1  0
 20 19  1  0
 21 14  2  0
 22 23  2  0
 23 42  1  0
 24 23  1  0
 24 27  1  0
 25 22  1  0
 25 26  1  0
 26 24  2  0
 27 28  1  0
 28 29  2  0
 30 33  1  0
 30 29  1  0
 31 30  2  0
 32 31  1  0
 32 27  2  0
 33 34  1  0
 34 35  1  0
 35 36  2  0
 37 36  1  0
 37 41  1  0
 38 37  2  0
 39 34  2  0
 39 38  1  0
 40 39  1  0
 42 43  1  0
 43 46  1  0
 43 45  1  0
 44 42  2  0
 47 48  1  0
 47 22  1  0
 49 47  1  0
 50 51  1  0
 52 63  2  0
 53 51  1  0
 53 58  1  0
 54 62  1  0
 54 64  1  0
 55 61  1  0
 55 57  1  0
 56 62  1  0
 57 56  1  0
 58 57  2  0
 59 53  2  0
 60 59  1  0
 60 55  2  0
 61 54  1  0
 62 52  1  0
 64 66  2  0
 65 64  1  0
 67 65  1  0
 68 77  2  0
 68 73  1  0
 69 65  1  0
 69 73  1  0
 70 69  1  0
 71 72  1  0
 71 70  1  0
 72 68  1  0
 73 74  2  0
 74 75  1  0
 76 75  2  0
 77 76  1  0
 78 52  1  0
 78 79  1  0
 78 88  1  0
 79 82  1  0
 80 84  1  0
 80 79  1  0
 81 80  2  0
 84 83  1  0
 86 84  1  0
 86 87  1  0
 86 85  1  0
 88 91  1  1
 88 89  1  0
 90 88  1  0
M  ISO  4  13 100  14 100  50 101  51 101
M  END
>  <TORSDO>  (49) 
F 21

>  <SCORE>  (49) 
-13.134

>  <name>  (49) 
48

>  <ligand_id>  (49) 
48

>  <original_smiles>  (49) 
[H]c1c([H])c([H])c2c(c1[H])C([H])([H])C([H])([H])C([H])([H])C2([H])N([H])C(=O)C1([H])N(C(=O)C([H])(N([H])C(=O)C([H])(N([H])C([H])([H])[H])C([H])([H])[H])C(C([H])([H])[H])(C([H])([H])[H])C([H])([H])[H])C([H])([H])c2c([H])c(OC([H])([H])C3([H])C4([H])C([H])([H])C([H])(C4([H])[H])C3([H])C([H])(C([H])([H])[H])[N+]([H])([H])C([H])([H])C([H])([H])C(=O)N3C([H])([H])C([H])([H])C([H])([H])C([H])(n4nc(-c5c([H])c([H])c(Oc6c([H])c([H])c(F)c([H])c6F)c([H])c5[H])c(C(=O)N([H])[H])c4N([H])[H])C3([H])[H])c([H])c([H])c2C1([H])[H]

>  <smiles>  (49) 
[H]c1c([H])c([H])c2c(c1[H])C([H])([H])C([H])([H])C([H])([H])C2([H])N([H])C(=O)C1([H])N(C(=O)C([H])(N([H])C(=O)C([H])(N([H])C([H])([H])[H])C([H])([H])[H])C(C([H])([H])[H])(C([H])([H])[H])C([H])([H])[H])C([H])([H])c2c([H])c(OC([H])([H])C3([H])C4([H])C([H])([H])C([H])(C4([H])[H])C3([H])C([H])(C([H])([H])[H])[N+]([H])([H])C([H])([H])C([H])([H])C(=O)N3C([H])([H])C([H])([H])C([H])([H])C([H])(n4nc(-c5c([H])c([H])c(Oc6c([H])c([H])c(F)c([H])c6F)c([H])c5[H])c(C(=O)N([H])[H])c4N([H])[H])C3([H])[H])c([H])c([H])c2C1([H])[H]

$$$$
49:0:0
     RDKit          3D

 86 91  0  0  1  0  0  0  0  0999 V2000
  -31.5990  -19.3740   17.1970 C   0  0  0  0  0  2  0  0  0  0  0  0
  -32.4200  -19.9820   18.3640 C   0  0  0  0  0  2  0  0  0  0  0  0
  -30.4230  -18.4630   17.6320 C   0  0  0  0  0  2  0  0  0  0  0  0
  -31.5830  -20.4280   19.5860 C   0  0  0  0  0  2  0  0  0  0  0  0
  -29.1540  -18.4720   20.1070 C   0  0  0  0  0  1  0  0  0  0  0  0
  -29.5180  -19.1130   18.7010 C   0  0  0  0  0  3  0  0  0  0  0  0
  -30.0990  -20.4730   19.2380 C   0  0  0  0  0  3  0  0  0  0  0  0
  -29.0340  -20.7050   20.3100 C   0  0  0  0  0  1  0  0  0  0  0  0
  -29.9380  -16.4470   20.2010 C   0  0  0  0  0  2  0  0  0  0  0  0
  -30.3120  -13.6780   19.5630 C   0  0  0  0  0  2  0  0  0  0  0  0
  -29.5550  -12.9240   18.4010 C   0  0  0  0  0  2  0  0  0  0  0  0
  -28.1860  -12.3990   18.8520 C   0  0  0  0  0  2  0  0  0  0  0  0
  -27.5370  -13.4380   19.7820 C   0  0  0  0  0  3  0  0  0  0  0  0
  -28.4750  -14.0880   20.8530 C   0  0  0  0  0  2  0  0  0  0  0  0
  -29.5440  -14.9290   20.1800 N   0  0  0  0  0  0  0  0  0  0  0  0
  -31.1890  -16.2410   20.1610 O   0  0  0  0  0  1  0  0  0  0  0  0
  -25.1630  -13.8790   20.5110 C   0  0  0  0  0  0  0  0  0  0  0  0
  -24.1120  -13.0820   20.8600 C   0  0  0  0  0  0  0  0  0  0  0  0
  -24.6110  -11.7400   20.8540 C   0  0  0  0  0  0  0  0  0  0  0  0
  -26.2330  -13.0350   20.3010 N   0  0  0  0  0  0  0  0  0  0  0  0
  -25.9160  -11.7350   20.5700 N   0  0  0  0  0  0  0  0  0  0  0  0
  -23.8920  -10.4670   21.0400 C   0  0  0  0  0  0  0  0  0  0  0  0
  -24.3170   -9.5040   21.9820 C   0  0  0  0  0  3  0  0  0  0  0  0
  -23.5920   -8.3060   22.1640 C   0  0  0  0  0  3  0  0  0  0  0  0
  -22.4240   -8.0580   21.4060 C   0  0  0  0  0  0  0  0  0  0  0  0
  -22.0180   -9.0060   20.4490 C   0  0  0  0  0  3  0  0  0  0  0  0
  -22.7440  -10.1960   20.2650 C   0  0  0  0  0  3  0  0  0  0  0  0
  -21.6720   -6.9090   21.4940 O   0  0  0  0  0  0  0  0  0  0  0  0
  -21.6300   -6.1620   22.6450 C   0  0  0  0  0  0  0  0  0  0  0  0
  -21.2270   -6.7130   23.8810 C   0  0  0  0  0  3  0  0  0  0  0  0
  -21.1320   -5.8930   25.0230 C   0  0  0  0  0  3  0  0  0  0  0  0
  -21.4320   -4.5210   24.9300 C   0  0  0  0  0  0  0  0  0  0  0  0
  -21.8290   -3.9680   23.6990 C   0  0  0  0  0  3  0  0  0  0  0  0
  -21.9260   -4.7870   22.5610 C   0  0  0  0  0  0  0  0  0  0  0  0
  -22.2870   -4.2430   21.3730 F   0  0  0  0  0  0  0  0  0  0  0  0
  -21.3400   -3.7310   26.0250 F   0  0  0  0  0  0  0  0  0  0  0  0
  -22.6990  -13.5380   21.0780 C   0  0  0  0  0  0  0  0  0  0  0  0
  -21.9540  -12.8530   21.9370 N   0  0  0  0  0  0  0  0  0  0  0  0
  -22.2610  -14.5440   20.5210 O   0  0  0  0  0  0  0  0  0  0  0  0
  -22.3210  -12.0420   22.4160 H   0  0  0  0  0  0  0  0  0  0  0  0
  -21.0040  -13.1440   22.1220 H   0  0  0  0  0  0  0  0  0  0  0  0
  -25.3060  -15.2500   20.3160 N   0  0  0  0  0  0  0  0  0  0  0  0
  -24.5380  -15.9080   20.3960 H   0  0  0  0  0  0  0  0  0  0  0  0
  -26.1700  -15.6820   20.0180 H   0  0  0  0  0  0  0  0  0  0  0  0
  -28.0950  -22.7750   20.0970 C   0  0  0  0  0 15  0  0  0  0  0  0
  -28.0920  -24.8020   20.2340 O   0  0  0  0  0  1  0  0  0  0  0  0
  -24.6750  -31.7830   23.0520 C   0  0  0  0  0  0  0  0  0  0  0  0
  -27.1720  -26.2350   20.1800 C   0  0  0  0  0  0  0  0  0  0  0  0
  -23.5010  -30.3470   21.4500 C   0  0  0  0  0  3  0  0  0  0  0  0
  -24.9460  -28.5770   20.0890 C   0  0  0  0  0  0  0  0  0  0  0  0
  -26.0960  -30.3450   21.3710 C   0  0  0  0  0  2  0  0  0  0  0  0
  -26.1520  -28.8500   20.7390 C   0  0  0  0  0  0  0  0  0  0  0  0
  -27.2220  -27.7270   20.7350 C   0  0  0  0  0  3  0  0  0  0  0  0
  -25.9210  -26.3040   19.4630 C   0  0  0  0  0  3  0  0  0  0  0  0
  -24.8970  -27.3370   19.4210 C   0  0  0  0  0  3  0  0  0  0  0  0
  -23.7570  -29.5860   20.1090 C   0  0  0  0  0  2  0  0  0  0  0  0
  -24.7890  -30.8710   22.0090 N   0  0  0  0  0  0  0  0  0  0  0  0
  -23.5730  -32.1140   23.5330 O   0  0  0  0  0  0  0  0  0  0  0  0
  -22.7430  -29.4310   22.4530 C   0  0  0  0  0  0  0  0  0  0  0  0
  -21.4020  -29.3180   22.3470 N   0  0  0  0  0  0  0  0  0  0  0  0
  -23.3800  -28.8100   23.3060 O   0  0  0  0  0  0  0  0  0  0  0  0
  -20.9320  -29.8640   21.6400 H   0  0  0  0  0  0  0  0  0  0  0  0
  -17.9990  -28.1570   22.9340 C   0  0  0  0  0  0  0  0  0  0  0  0
  -20.5660  -28.4040   23.1390 C   0  0  0  0  0  3  0  0  0  0  0  0
  -20.6350  -26.9640   22.5770 C   0  0  0  0  0  2  0  0  0  0  0  0
  -19.5130  -26.6500   21.5820 C   0  0  0  0  0  2  0  0  0  0  0  0
  -18.1460  -26.8090   22.2500 C   0  0  0  0  0  2  0  0  0  0  0  0
  -19.1320  -28.9150   23.3360 C   0  0  0  0  0  0  0  0  0  0  0  0
  -18.9320  -30.1730   23.9440 C   0  0  0  0  0  3  0  0  0  0  0  0
  -17.6340  -30.6760   24.1480 C   0  0  0  0  0  3  0  0  0  0  0  0
  -16.5160  -29.9210   23.7530 C   0  0  0  0  0  3  0  0  0  0  0  0
  -16.6990  -28.6610   23.1560 C   0  0  0  0  0  3  0  0  0  0  0  0
  -25.9200  -32.4670   23.6990 C   0  0  0  0  0  3  0  0  0  0  0  0
  -25.5640  -33.8600   24.0650 N   0  0  0  0  0  0  0  0  0  0  0  0
  -25.8720  -34.9580   23.3580 C   0  0  0  0  0  0  0  0  0  0  0  0
  -26.5310  -34.9050   22.3170 O   0  0  0  0  0  0  0  0  0  0  0  0
  -24.9780  -33.9740   24.8780 H   0  0  0  0  0  0  0  0  0  0  0  0
  -24.1080  -36.7490   23.1240 C   0  0  0  0  0  1  0  0  0  0  0  0
  -25.3780  -36.3270   23.8810 C   0  0  0  0  0  3  0  0  0  0  0  0
  -27.5240  -37.2290   24.6800 C   0  0  0  0  0  1  0  0  0  0  0  0
  -26.3890  -37.4060   23.7760 N   0  0  0  0  0  0  0  0  0  0  0  0
  -25.9690  -38.3130   23.9620 H   0  0  0  0  0  0  0  0  0  0  0  0
  -26.4360  -31.7120   24.9890 C   0  0  1  0  0  0  0  0  0  0  0  0
  -25.3390  -31.4740   26.0550 C   0  0  0  0  0  1  0  0  0  0  0  0
  -27.0330  -30.3350   24.6280 C   0  0  0  0  0  1  0  0  0  0  0  0
  -27.5780  -32.5230   25.6480 C   0  0  0  0  0  1  0  0  0  0  0  0
  1  3  1  0
  1  2  1  0
  2  4  1  0
  3  6  1  0
  6  7  1  0
  6  5  1  0
  7  4  1  0
  7  8  1  0
 10 15  1  0
 11 12  1  0
 11 10  1  0
 13 12  1  0
 13 20  1  0
 13 14  1  0
 15  9  1  0
 15 14  1  0
 16  9  1  0
 17 18  2  0
 18 37  1  0
 19 18  1  0
 19 22  1  0
 20 17  1  0
 20 21  1  0
 21 19  2  0
 22 23  1  0
 23 24  2  0
 25 28  1  0
 25 24  1  0
 26 25  2  0
 27 26  1  0
 27 22  2  0
 28 29  1  0
 29 30  1  0
 30 31  2  0
 32 31  1  0
 32 36  1  0
 33 32  2  0
 34 29  2  0
 34 33  1  0
 35 34  1  0
 37 38  1  0
 38 41  1  0
 38 40  1  0
 39 37  2  0
 42 43  1  0
 42 17  1  0
 44 42  1  0
 47 58  2  0
 48 46  1  0
 48 53  1  0
 49 57  1  0
 49 59  1  0
 50 56  1  0
 50 52  1  0
 51 57  1  0
 52 51  1  0
 53 52  2  0
 54 48  2  0
 55 54  1  0
 55 50  2  0
 56 49  1  0
 57 47  1  0
 59 61  2  0
 60 59  1  0
 62 60  1  0
 63 72  2  0
 63 68  1  0
 64 60  1  0
 64 68  1  0
 65 64  1  0
 66 67  1  0
 66 65  1  0
 67 63  1  0
 68 69  2  0
 69 70  1  0
 71 70  2  0
 72 71  1  0
 73 47  1  0
 73 74  1  0
 73 83  1  0
 74 77  1  0
 75 79  1  0
 75 74  1  0
 76 75  2  0
 79 78  1  0
 81 79  1  0
 81 82  1  0
 81 80  1  0
 83 86  1  1
 83 84  1  0
 85 83  1  0
M  ISO  4   5 100   9 100  45 101  46 101
M  END
>  <TORSDO>  (50) 
F 17

>  <SCORE>  (50) 
-16.507

>  <name>  (50) 
49

>  <ligand_id>  (50) 
49

>  <original_smiles>  (50) 
[H]c1c([H])c([H])c2c(c1[H])C([H])([H])C([H])([H])C([H])([H])C2([H])N([H])C(=O)C1([H])N(C(=O)C([H])(N([H])C(=O)C([H])(N([H])C([H])([H])[H])C([H])([H])[H])C(C([H])([H])[H])(C([H])([H])[H])C([H])([H])[H])C([H])([H])c2c([H])c(OC([H])([H])C3([H])C([H])(C(=O)N4C([H])([H])C([H])([H])C([H])([H])C([H])(n5nc(-c6c([H])c([H])c(Oc7c([H])c([H])c(F)c([H])c7F)c([H])c6[H])c(C(=O)N([H])[H])c5N([H])[H])C4([H])[H])C4([H])C([H])([H])C([H])([H])C([H])([H])C([H])([H])C34[H])c([H])c([H])c2C1([H])[H]

>  <smiles>  (50) 
[H]c1c([H])c([H])c2c(c1[H])C([H])([H])C([H])([H])C([H])([H])C2([H])N([H])C(=O)C1([H])N(C(=O)C([H])(N([H])C(=O)C([H])(N([H])C([H])([H])[H])C([H])([H])[H])C(C([H])([H])[H])(C([H])([H])[H])C([H])([H])[H])C([H])([H])c2c([H])c(OC([H])([H])C3([H])C([H])(C(=O)N4C([H])([H])C([H])([H])C([H])([H])C([H])(n5nc(-c6c([H])c([H])c(Oc7c([H])c([H])c(F)c([H])c7F)c([H])c6[H])c(C(=O)N([H])[H])c5N([H])[H])C4([H])[H])C4([H])C([H])([H])C([H])([H])C([H])([H])C([H])([H])C34[H])c([H])c([H])c2C1([H])[H]

$$$$
50:0:0
     RDKit          3D

 91100  0  0  1  0  0  0  0  0999 V2000
  -29.2320  -19.9870   20.9500 N   0  0  0  0  0  4  0  0  0  0  0  0
  -29.4260  -20.1610   21.9230 H   0  0  0  0  0  0  0  0  0  0  0  0
  -28.2620  -19.7170   20.9300 H   0  0  0  0  0  0  0  0  0  0  0  0
  -31.4690  -17.7420   18.5770 C   0  0  0  0  0  2  0  0  0  0  0  0
  -30.6370  -16.4820   18.3020 C   0  0  0  0  0  2  0  0  0  0  0  0
  -29.1210  -18.2040   18.5440 C   0  0  0  0  0  2  0  0  0  0  0  0
  -29.6110  -16.8950   20.6500 C   0  0  0  0  0  3  0  0  0  0  0  0
  -30.4200  -18.7490   19.0910 C   0  0  0  0  0  3  0  0  0  0  0  0
  -30.0980  -18.6210   20.5910 C   0  0  0  0  0  3  0  0  0  0  0  0
  -29.3290  -16.7840   19.0710 C   0  0  2  0  0  0  0  0  0  0  0  0
  -28.1450  -15.9370   18.5830 C   0  0  0  0  0  1  0  0  0  0  0  0
  -30.4670  -15.4230   21.1200 C   0  0  0  0  0  0  0  0  0  0  0  0
  -30.6750  -12.9320   20.4830 C   0  0  0  0  0  2  0  0  0  0  0  0
  -29.9370  -12.6030   19.1640 C   0  0  0  0  0  2  0  0  0  0  0  0
  -28.4310  -12.3520   19.4060 C   0  0  0  0  0  2  0  0  0  0  0  0
  -27.8020  -13.3230   20.4410 C   0  0  0  0  0  3  0  0  0  0  0  0
  -28.7020  -13.5770   21.6600 C   0  0  0  0  0  2  0  0  0  0  0  0
  -29.9850  -14.0870   21.1510 N   0  0  0  0  0  0  0  0  0  0  0  0
  -31.7040  -15.4620   21.2140 O   0  0  0  0  0  0  0  0  0  0  0  0
  -25.3490  -13.8250   20.9200 C   0  0  0  0  0  0  0  0  0  0  0  0
  -24.2700  -13.0190   21.1490 C   0  0  0  0  0  0  0  0  0  0  0  0
  -24.7740  -11.6810   21.1540 C   0  0  0  0  0  0  0  0  0  0  0  0
  -26.4350  -12.9760   20.7920 N   0  0  0  0  0  0  0  0  0  0  0  0
  -26.0930  -11.6800   21.0010 N   0  0  0  0  0  0  0  0  0  0  0  0
  -24.0650  -10.3990   21.2400 C   0  0  0  0  0  0  0  0  0  0  0  0
  -24.4170   -9.4240   22.1990 C   0  0  0  0  0  3  0  0  0  0  0  0
  -23.7080   -8.2070   22.2760 C   0  0  0  0  0  3  0  0  0  0  0  0
  -22.6320   -7.9560   21.3890 C   0  0  0  0  0  0  0  0  0  0  0  0
  -22.3020   -8.9200   20.4210 C   0  0  0  0  0  3  0  0  0  0  0  0
  -23.0130  -10.1290   20.3420 C   0  0  0  0  0  3  0  0  0  0  0  0
  -21.9020   -6.7930   21.3740 O   0  0  0  0  0  0  0  0  0  0  0  0
  -21.7390   -6.0310   22.5040 C   0  0  0  0  0  0  0  0  0  0  0  0
  -21.1260   -6.5460   23.6670 C   0  0  0  0  0  3  0  0  0  0  0  0
  -20.9150   -5.7080   24.7800 C   0  0  0  0  0  3  0  0  0  0  0  0
  -21.3060   -4.3560   24.7300 C   0  0  0  0  0  0  0  0  0  0  0  0
  -21.9120   -3.8410   23.5700 C   0  0  0  0  0  3  0  0  0  0  0  0
  -22.1240   -4.6760   22.4590 C   0  0  0  0  0  0  0  0  0  0  0  0
  -22.6890   -4.1700   21.3360 F   0  0  0  0  0  0  0  0  0  0  0  0
  -21.0970   -3.5500   25.7950 F   0  0  0  0  0  0  0  0  0  0  0  0
  -22.8400  -13.4570   21.2550 C   0  0  0  0  0  0  0  0  0  0  0  0
  -22.0360  -12.7370   22.0310 N   0  0  0  0  0  0  0  0  0  0  0  0
  -22.4370  -14.4720   20.6870 O   0  0  0  0  0  0  0  0  0  0  0  0
  -22.3730  -11.9170   22.5120 H   0  0  0  0  0  0  0  0  0  0  0  0
  -21.0710  -13.0120   22.1450 H   0  0  0  0  0  0  0  0  0  0  0  0
  -25.4910  -15.2040   20.7840 N   0  0  0  0  0  0  0  0  0  0  0  0
  -24.6960  -15.8320   20.8170 H   0  0  0  0  0  0  0  0  0  0  0  0
  -26.3600  -15.6750   20.5780 H   0  0  0  0  0  0  0  0  0  0  0  0
  -29.2880  -21.4690   20.2160 C   0  0  0  0  0  3  0  0  0  0  0  0
  -28.7970  -23.0710   20.7880 C   0  0  0  0  0  3  0  0  0  0  0  0
  -28.4180  -24.5610   19.9100 C   0  0  0  0  0  2  0  0  0  0  0  0
  -28.4270  -26.1450   20.2650 O   0  0  0  0  0  0  0  0  0  0  0  0
  -24.6890  -31.9130   23.1910 C   0  0  0  0  0  0  0  0  0  0  0  0
  -27.3650  -27.1640   20.1470 C   0  0  0  0  0  0  0  0  0  0  0  0
  -23.5210  -30.4920   21.5520 C   0  0  0  0  0  3  0  0  0  0  0  0
  -25.0050  -28.9390   20.1160 C   0  0  0  0  0  0  0  0  0  0  0  0
  -26.0760  -30.7850   21.3920 C   0  0  0  0  0  2  0  0  0  0  0  0
  -26.1780  -29.3860   20.7330 C   0  0  0  0  0  0  0  0  0  0  0  0
  -27.3490  -28.5150   20.7330 C   0  0  0  0  0  3  0  0  0  0  0  0
  -26.1610  -26.8570   19.4720 C   0  0  0  0  0  3  0  0  0  0  0  0
  -25.0170  -27.6930   19.4660 C   0  0  0  0  0  3  0  0  0  0  0  0
  -23.7590  -29.8190   20.1720 C   0  0  0  0  0  2  0  0  0  0  0  0
  -24.7820  -31.0890   22.0990 N   0  0  0  0  0  0  0  0  0  0  0  0
  -23.5960  -32.1730   23.7200 O   0  0  0  0  0  0  0  0  0  0  0  0
  -22.8610  -29.4740   22.5170 C   0  0  0  0  0  0  0  0  0  0  0  0
  -21.5350  -29.2810   22.4000 N   0  0  0  0  0  0  0  0  0  0  0  0
  -23.5470  -28.8610   23.3380 O   0  0  0  0  0  0  0  0  0  0  0  0
  -21.0340  -29.8280   21.7150 H   0  0  0  0  0  0  0  0  0  0  0  0
  -18.1800  -28.0140   22.9400 C   0  0  0  0  0  0  0  0  0  0  0  0
  -20.7370  -28.3220   23.1730 C   0  0  0  0  0  3  0  0  0  0  0  0
  -20.8550  -26.8970   22.5840 C   0  0  0  0  0  2  0  0  0  0  0  0
  -19.7470  -26.5640   21.5820 C   0  0  0  0  0  2  0  0  0  0  0  0
  -18.3710  -26.6770   22.2460 C   0  0  0  0  0  2  0  0  0  0  0  0
  -19.2900  -28.7940   23.3610 C   0  0  0  0  0  0  0  0  0  0  0  0
  -19.0540  -30.0430   23.9750 C   0  0  0  0  0  3  0  0  0  0  0  0
  -17.7420  -30.5160   24.1690 C   0  0  0  0  0  3  0  0  0  0  0  0
  -16.6460  -29.7340   23.7600 C   0  0  0  0  0  3  0  0  0  0  0  0
  -16.8670  -28.4850   23.1530 C   0  0  0  0  0  3  0  0  0  0  0  0
  -25.9500  -32.5830   23.8190 C   0  0  0  0  0  3  0  0  0  0  0  0
  -26.4820  -31.8250   25.0990 C   0  0  1  0  0  0  0  0  0  0  0  0
  -25.3930  -31.5670   26.1670 C   0  0  0  0  0  1  0  0  0  0  0  0
  -27.0940  -30.4580   24.7160 C   0  0  0  0  0  1  0  0  0  0  0  0
  -27.6150  -32.6440   25.7590 C   0  0  0  0  0  1  0  0  0  0  0  0
  -25.5990  -33.9720   24.1610 N   0  0  0  0  0  0  0  0  0  0  0  0
  -25.9280  -35.0480   23.4340 C   0  0  0  0  0  0  0  0  0  0  0  0
  -26.6220  -34.9760   22.4160 O   0  0  0  0  0  0  0  0  0  0  0  0
  -24.9840  -34.1000   24.9510 H   0  0  0  0  0  0  0  0  0  0  0  0
  -24.1860  -36.8290   23.0710 C   0  0  0  0  0  1  0  0  0  0  0  0
  -25.4090  -36.4210   23.9080 C   0  0  0  0  0  3  0  0  0  0  0  0
  -27.5030  -37.3210   24.8240 C   0  0  0  0  0  1  0  0  0  0  0  0
  -26.4290  -37.4910   23.8490 N   0  0  0  0  0  0  0  0  0  0  0  0
  -26.0060  -38.4020   23.9990 H   0  0  0  0  0  0  0  0  0  0  0  0
  1  2  1  0
  3  1  1  0
  4  8  1  0
  5  4  1  0
  5 10  1  0
  6 10  1  0
  7 12  1  0
  8  6  1  0
  8  9  1  0
  9  7  1  0
  9  1  1  0
 10 11  1  1
 10  7  1  0
 12 18  1  0
 12 19  2  0
 13 18  1  0
 14 15  1  0
 14 13  1  0
 16 15  1  0
 16 23  1  0
 16 17  1  0
 18 17  1  0
 20 21  2  0
 21 22  1  0
 21 40  1  0
 22 25  1  0
 23 20  1  0
 23 24  1  0
 24 22  2  0
 25 26  1  0
 26 27  2  0
 28 27  1  0
 29 28  2  0
 30 29  1  0
 30 25  2  0
 31 28  1  0
 31 32  1  0
 32 33  1  0
 33 34  2  0
 35 34  1  0
 35 39  1  0
 36 35  2  0
 37 32  2  0
 37 36  1  0
 38 37  1  0
 40 41  1  0
 41 44  1  0
 41 43  1  0
 42 40  2  0
 45 46  1  0
 45 20  1  0
 47 45  1  0
 48 49  2  0
 48  1  1  0
 50 51  1  0
 50 49  1  0
 52 63  2  0
 53 51  1  0
 53 58  1  0
 54 62  1  0
 54 64  1  0
 55 61  1  0
 55 57  1  0
 56 62  1  0
 57 58  2  0
 57 56  1  0
 59 53  2  0
 60 59  1  0
 60 55  2  0
 61 54  1  0
 62 52  1  0
 64 66  2  0
 65 64  1  0
 67 65  1  0
 68 77  2  0
 68 73  1  0
 69 65  1  0
 69 73  1  0
 70 69  1  0
 71 72  1  0
 71 70  1  0
 72 68  1  0
 73 74  2  0
 74 75  1  0
 76 75  2  0
 77 76  1  0
 78 52  1  0
 78 83  1  0
 78 79  1  0
 79 82  1  1
 79 80  1  0
 81 79  1  0
 83 86  1  0
 84 88  1  0
 84 83  1  0
 85 84  2  0
 88 87  1  0
 90 88  1  0
 90 91  1  0
 90 89  1  0
M  ISO  4   7 100  12 100  50 101  51 101
M  END
>  <TORSDO>  (51) 
F 20

>  <SCORE>  (51) 
-14.277

>  <name>  (51) 
50

>  <ligand_id>  (51) 
50

>  <original_smiles>  (51) 
[H]c1c([H])c([H])c2c(c1[H])C([H])([H])C([H])([H])C([H])([H])C2([H])N([H])C(=O)C1([H])N(C(=O)C([H])(N([H])C(=O)C([H])(N([H])C([H])([H])[H])C([H])([H])[H])C(C([H])([H])[H])(C([H])([H])[H])C([H])([H])[H])C([H])([H])c2c([H])c(OC([H])([H])C([H])([H])C([H])([H])[N+]([H])([H])C3([H])C([H])(C(=O)N4C([H])([H])C([H])([H])C([H])([H])C([H])(n5nc(-c6c([H])c([H])c(Oc7c([H])c([H])c(F)c([H])c7F)c([H])c6[H])c(C(=O)N([H])[H])c5N([H])[H])C4([H])[H])C4(C([H])([H])[H])C([H])([H])C([H])([H])C3([H])C4([H])[H])c([H])c([H])c2C1([H])[H]

>  <smiles>  (51) 
[H]c1c([H])c([H])c2c(c1[H])C([H])([H])C([H])([H])C([H])([H])C2([H])N([H])C(=O)C1([H])N(C(=O)C([H])(N([H])C(=O)C([H])(N([H])C([H])([H])[H])C([H])([H])[H])C(C([H])([H])[H])(C([H])([H])[H])C([H])([H])[H])C([H])([H])c2c([H])c(OC([H])([H])C([H])([H])C([H])([H])[N+]([H])([H])C3([H])C([H])(C(=O)N4C([H])([H])C([H])([H])C([H])([H])C([H])(n5nc(-c6c([H])c([H])c(Oc7c([H])c([H])c(F)c([H])c7F)c([H])c6[H])c(C(=O)N([H])[H])c5N([H])[H])C4([H])[H])C4(C([H])([H])[H])C([H])([H])C([H])([H])C3([H])C4([H])[H])c([H])c([H])c2C1([H])[H]

$$$$
51:0:0
     RDKit          3D

 84 91  0  0  1  0  0  0  0  0999 V2000
  -28.5470  -18.6240   19.5880 C   0  0  0  0  0  2  0  0  0  0  0  0
  -30.3230  -19.0680   20.8930 C   0  0  0  0  0  2  0  0  0  0  0  0
  -27.9150  -20.2540   19.9490 C   0  0  0  0  0  2  0  0  0  0  0  0
  -30.0600  -20.7590   20.3740 C   0  0  0  0  0  2  0  0  0  0  0  0
  -29.5280  -17.5800   20.5170 C   0  0  0  0  0  3  0  0  0  0  0  0
  -28.6580  -21.7410   20.4230 C   0  0  0  0  0  2  0  0  0  0  0  0
  -30.2430  -15.7990   20.2820 C   0  0  0  0  0  0  0  0  0  0  0  0
  -30.4000  -13.1960   19.5480 C   0  0  0  0  0  2  0  0  0  0  0  0
  -29.5490  -12.7460   18.3210 C   0  0  0  0  0  2  0  0  0  0  0  0
  -28.1210  -12.3740   18.7460 C   0  0  0  0  0  2  0  0  0  0  0  0
  -27.5740  -13.3900   19.7720 C   0  0  0  0  0  3  0  0  0  0  0  0
  -28.5700  -13.7580   20.8980 C   0  0  0  0  0  2  0  0  0  0  0  0
  -29.7590  -14.3980   20.2770 N   0  0  0  0  0  0  0  0  0  0  0  0
  -31.4680  -15.6920   20.0610 O   0  0  0  0  0  0  0  0  0  0  0  0
  -25.2010  -13.9070   20.4950 C   0  0  0  0  0  0  0  0  0  0  0  0
  -24.1390  -13.1240   20.8500 C   0  0  0  0  0  0  0  0  0  0  0  0
  -24.6170  -11.7770   20.8400 C   0  0  0  0  0  0  0  0  0  0  0  0
  -26.2530  -13.0400   20.2740 N   0  0  0  0  0  0  0  0  0  0  0  0
  -25.9160  -11.7510   20.5490 N   0  0  0  0  0  0  0  0  0  0  0  0
  -23.8910  -10.5130   21.0290 C   0  0  0  0  0  0  0  0  0  0  0  0
  -24.3110   -9.5500   21.9740 C   0  0  0  0  0  3  0  0  0  0  0  0
  -23.5790   -8.3560   22.1530 C   0  0  0  0  0  3  0  0  0  0  0  0
  -22.4130   -8.1140   21.3880 C   0  0  0  0  0  0  0  0  0  0  0  0
  -22.0120   -9.0660   20.4340 C   0  0  0  0  0  3  0  0  0  0  0  0
  -22.7440  -10.2520   20.2520 C   0  0  0  0  0  3  0  0  0  0  0  0
  -21.6550   -6.9720   21.4760 O   0  0  0  0  0  0  0  0  0  0  0  0
  -21.5970   -6.2330   22.6300 C   0  0  0  0  0  0  0  0  0  0  0  0
  -21.1700   -6.7920   23.8540 C   0  0  0  0  0  3  0  0  0  0  0  0
  -21.0590   -5.9790   25.0000 C   0  0  0  0  0  3  0  0  0  0  0  0
  -21.3660   -4.6080   24.9230 C   0  0  0  0  0  0  0  0  0  0  0  0
  -21.7870   -4.0470   23.7050 C   0  0  0  0  0  3  0  0  0  0  0  0
  -21.8990   -4.8570   22.5610 C   0  0  0  0  0  0  0  0  0  0  0  0
  -22.2840   -4.3070   21.3840 F   0  0  0  0  0  0  0  0  0  0  0  0
  -21.2540   -3.8260   26.0220 F   0  0  0  0  0  0  0  0  0  0  0  0
  -22.7350  -13.5970   21.0830 C   0  0  0  0  0  0  0  0  0  0  0  0
  -21.9940  -12.9140   21.9480 N   0  0  0  0  0  0  0  0  0  0  0  0
  -22.3040  -14.6100   20.5340 O   0  0  0  0  0  0  0  0  0  0  0  0
  -22.3560  -12.0960   22.4150 H   0  0  0  0  0  0  0  0  0  0  0  0
  -21.0510  -13.2140   22.1480 H   0  0  0  0  0  0  0  0  0  0  0  0
  -25.3560  -15.2780   20.3090 N   0  0  0  0  0  0  0  0  0  0  0  0
  -24.5850  -15.9280   20.4090 H   0  0  0  0  0  0  0  0  0  0  0  0
  -26.2120  -15.7220   20.0030 H   0  0  0  0  0  0  0  0  0  0  0  0
  -28.1330  -23.6280   19.9460 C   0  0  0  0  0  1  0  0  0  0  0  0
  -28.1830  -25.4010   20.2960 O   0  0  0  0  0  0  0  0  0  0  0  0
  -24.6850  -31.8080   23.1530 C   0  0  0  0  0  0  0  0  0  0  0  0
  -27.2220  -26.6530   20.1920 C   0  0  0  0  0  0  0  0  0  0  0  0
  -23.5000  -30.3910   21.5310 C   0  0  0  0  0  3  0  0  0  0  0  0
  -24.9520  -28.7270   20.1240 C   0  0  0  0  0  0  0  0  0  0  0  0
  -26.0810  -30.5220   21.4090 C   0  0  0  0  0  2  0  0  0  0  0  0
  -26.1480  -29.0770   20.7600 C   0  0  0  0  0  0  0  0  0  0  0  0
  -27.2600  -28.0690   20.7630 C   0  0  0  0  0  3  0  0  0  0  0  0
  -25.9930  -26.5370   19.4880 C   0  0  0  0  0  3  0  0  0  0  0  0
  -24.9180  -27.4850   19.4630 C   0  0  0  0  0  3  0  0  0  0  0  0
  -23.7420  -29.6800   20.1660 C   0  0  0  0  0  2  0  0  0  0  0  0
  -24.7800  -30.9430   22.0830 N   0  0  0  0  0  0  0  0  0  0  0  0
  -23.5910  -32.1090   23.6620 O   0  0  0  0  0  0  0  0  0  0  0  0
  -22.7840  -29.4240   22.5140 C   0  0  0  0  0  0  0  0  0  0  0  0
  -21.4490  -29.2790   22.4060 N   0  0  0  0  0  0  0  0  0  0  0  0
  -23.4450  -28.8020   23.3490 O   0  0  0  0  0  0  0  0  0  0  0  0
  -20.9650  -29.8310   21.7120 H   0  0  0  0  0  0  0  0  0  0  0  0
  -18.0630  -28.0780   22.9640 C   0  0  0  0  0  0  0  0  0  0  0  0
  -20.6270  -28.3470   23.1900 C   0  0  0  0  0  3  0  0  0  0  0  0
  -20.7190  -26.9120   22.6210 C   0  0  0  0  0  2  0  0  0  0  0  0
  -19.6050  -26.5880   21.6200 C   0  0  0  0  0  2  0  0  0  0  0  0
  -18.2310  -26.7300   22.2810 C   0  0  0  0  0  2  0  0  0  0  0  0
  -19.1870  -28.8440   23.3770 C   0  0  0  0  0  0  0  0  0  0  0  0
  -18.9710  -30.1010   23.9810 C   0  0  0  0  0  3  0  0  0  0  0  0
  -17.6670  -30.5930   24.1750 C   0  0  0  0  0  3  0  0  0  0  0  0
  -16.5580  -29.8260   23.7740 C   0  0  0  0  0  3  0  0  0  0  0  0
  -16.7570  -28.5690   23.1750 C   0  0  0  0  0  3  0  0  0  0  0  0
  -25.9440  -32.4730   23.7870 C   0  0  0  0  0  3  0  0  0  0  0  0
  -25.6060  -33.8680   24.1350 N   0  0  0  0  0  0  0  0  0  0  0  0
  -25.9180  -34.9460   23.4040 C   0  0  0  0  0  0  0  0  0  0  0  0
  -26.5770  -34.8720   22.3640 O   0  0  0  0  0  0  0  0  0  0  0  0
  -25.0150  -33.9970   24.9450 H   0  0  0  0  0  0  0  0  0  0  0  0
  -24.1630  -36.7360   23.1290 C   0  0  0  0  0  1  0  0  0  0  0  0
  -25.4290  -36.3250   23.8990 C   0  0  0  0  0  3  0  0  0  0  0  0
  -27.5720  -37.2280   24.6940 C   0  0  0  0  0  1  0  0  0  0  0  0
  -26.4460  -37.3940   23.7790 N   0  0  0  0  0  0  0  0  0  0  0  0
  -26.0310  -38.3060   23.9490 H   0  0  0  0  0  0  0  0  0  0  0  0
  -26.4590  -31.7160   25.0760 C   0  0  1  0  0  0  0  0  0  0  0  0
  -25.3640  -31.4820   26.1440 C   0  0  0  0  0  1  0  0  0  0  0  0
  -27.0510  -30.3360   24.7110 C   0  0  0  0  0  1  0  0  0  0  0  0
  -27.6040  -32.5210   25.7340 C   0  0  0  0  0  1  0  0  0  0  0  0
  1  3  1  0
  1  5  1  0
  3  6  1  0
  4  6  1  0
  4  2  1  0
  5  2  1  0
  7  5  1  0
  8 13  1  0
  9 10  1  0
  9  8  1  0
 11 10  1  0
 11 18  1  0
 11 12  1  0
 13  7  1  0
 13 12  1  0
 14  7  2  0
 15 16  2  0
 16 35  1  0
 17 16  1  0
 17 20  1  0
 18 15  1  0
 18 19  1  0
 19 17  2  0
 20 21  1  0
 21 22  2  0
 23 26  1  0
 23 22  1  0
 24 23  2  0
 25 24  1  0
 25 20  2  0
 26 27  1  0
 27 28  1  0
 28 29  2  0
 30 29  1  0
 30 34  1  0
 31 30  2  0
 32 27  2  0
 32 31  1  0
 33 32  1  0
 35 36  1  0
 36 39  1  0
 36 38  1  0
 37 35  2  0
 40 41  1  0
 40 15  1  0
 42 40  1  0
 43 44  1  0
 45 56  2  0
 46 44  1  0
 46 51  1  0
 47 55  1  0
 47 57  1  0
 48 54  1  0
 48 50  1  0
 49 55  1  0
 50 51  2  0
 50 49  1  0
 52 46  2  0
 53 52  1  0
 53 48  2  0
 54 47  1  0
 55 45  1  0
 57 59  2  0
 58 57  1  0
 60 58  1  0
 61 70  2  0
 61 66  1  0
 62 58  1  0
 62 66  1  0
 63 62  1  0
 64 65  1  0
 64 63  1  0
 65 61  1  0
 66 67  2  0
 67 68  1  0
 69 68  2  0
 70 69  1  0
 71 45  1  0
 71 72  1  0
 71 81  1  0
 72 75  1  0
 73 77  1  0
 73 72  1  0
 74 73  2  0
 77 76  1  0
 79 77  1  0
 79 80  1  0
 79 78  1  0
 81 84  1  1
 81 82  1  0
 83 81  1  0
M  ISO  4   5 100   7 100  43 101  44 101
M  END
>  <TORSDO>  (52) 
F 17

>  <SCORE>  (52) 
-16.261

>  <name>  (52) 
51

>  <ligand_id>  (52) 
51

>  <original_smiles>  (52) 
[H]c1c([H])c([H])c2c(c1[H])C([H])([H])C([H])([H])C([H])([H])C2([H])N([H])C(=O)C1([H])N(C(=O)C([H])(N([H])C(=O)C([H])(N([H])C([H])([H])[H])C([H])([H])[H])C(C([H])([H])[H])(C([H])([H])[H])C([H])([H])[H])C([H])([H])c2c([H])c(OC([H])([H])C3([H])C([H])([H])C([H])([H])C([H])(C(=O)N4C([H])([H])C([H])([H])C([H])([H])C([H])(n5nc(-c6c([H])c([H])c(Oc7c([H])c([H])c(F)c([H])c7F)c([H])c6[H])c(C(=O)N([H])[H])c5N([H])[H])C4([H])[H])C([H])([H])C3([H])[H])c([H])c([H])c2C1([H])[H]

>  <smiles>  (52) 
[H]c1c([H])c([H])c2c(c1[H])C([H])([H])C([H])([H])C([H])([H])C2([H])N([H])C(=O)C1([H])N(C(=O)C([H])(N([H])C(=O)C([H])(N([H])C([H])([H])[H])C([H])([H])[H])C(C([H])([H])[H])(C([H])([H])[H])C([H])([H])[H])C([H])([H])c2c([H])c(OC([H])([H])C3([H])C([H])([H])C([H])([H])C([H])(C(=O)N4C([H])([H])C([H])([H])C([H])([H])C([H])(n5nc(-c6c([H])c([H])c(Oc7c([H])c([H])c(F)c([H])c7F)c([H])c6[H])c(C(=O)N([H])[H])c5N([H])[H])C4([H])[H])C([H])([H])C3([H])[H])c([H])c([H])c2C1([H])[H]

$$$$
52:0:0
     RDKit          3D

 87 95  0  0  1  0  0  0  0  0999 V2000
  -28.5910  -18.8640   19.5150 C   0  0  0  0  0  3  0  0  0  0  0  0
  -30.1020  -19.1620   21.0490 C   0  0  0  0  0  3  0  0  0  0  0  0
  -29.5690  -17.9430   20.2880 C   0  0  0  0  0  0  0  0  0  0  0  0
  -28.2680  -20.4220   19.5540 C   0  0  0  0  0  0  0  0  0  0  0  0
  -28.7930  -21.5670   20.3310 C   0  0  0  0  0  0  0  0  0  0  0  0
  -29.7710  -20.7030   21.1120 C   0  0  0  0  0  0  0  0  0  0  0  0
  -27.2000  -21.1670   18.7250 C   0  0  0  0  0  2  0  0  0  0  0  0
  -27.2730  -22.7850   18.8660 C   0  0  0  0  0  2  0  0  0  0  0  0
  -27.9590  -23.3140   20.1760 C   0  0  0  0  0  2  0  0  0  0  0  0
  -30.5720  -21.4660   22.1490 C   0  0  0  0  0  1  0  0  0  0  0  0
  -30.1780  -16.1500   20.2160 C   0  0  0  0  0  0  0  0  0  0  0  0
  -30.3950  -13.4940   19.4800 C   0  0  0  0  0  2  0  0  0  0  0  0
  -29.5720  -12.8840   18.2960 C   0  0  0  0  0  2  0  0  0  0  0  0
  -28.1800  -12.4370   18.7540 C   0  0  0  0  0  2  0  0  0  0  0  0
  -27.5840  -13.4720   19.7270 C   0  0  0  0  0  3  0  0  0  0  0  0
  -28.5620  -13.9860   20.8180 C   0  0  0  0  0  2  0  0  0  0  0  0
  -29.6880  -14.7170   20.1550 N   0  0  0  0  0  0  0  0  0  0  0  0
  -31.4170  -15.9680   20.1170 O   0  0  0  0  0  0  0  0  0  0  0  0
  -25.2210  -13.9390   20.4950 C   0  0  0  0  0  0  0  0  0  0  0  0
  -24.1710  -13.1410   20.8460 C   0  0  0  0  0  0  0  0  0  0  0  0
  -24.6610  -11.7990   20.8100 C   0  0  0  0  0  0  0  0  0  0  0  0
  -26.2800  -13.0890   20.2510 N   0  0  0  0  0  0  0  0  0  0  0  0
  -25.9590  -11.7910   20.5060 N   0  0  0  0  0  0  0  0  0  0  0  0
  -23.9440  -10.5270   20.9870 C   0  0  0  0  0  0  0  0  0  0  0  0
  -24.3520   -9.5710   21.9450 C   0  0  0  0  0  3  0  0  0  0  0  0
  -23.6280   -8.3710   22.1150 C   0  0  0  0  0  3  0  0  0  0  0  0
  -22.4810   -8.1150   21.3260 C   0  0  0  0  0  0  0  0  0  0  0  0
  -22.0900   -9.0580   20.3600 C   0  0  0  0  0  3  0  0  0  0  0  0
  -22.8150  -10.2500   20.1880 C   0  0  0  0  0  3  0  0  0  0  0  0
  -21.7340   -6.9640   21.4030 O   0  0  0  0  0  0  0  0  0  0  0  0
  -21.6260   -6.2510   22.5690 C   0  0  0  0  0  0  0  0  0  0  0  0
  -21.0930   -6.8220   23.7450 C   0  0  0  0  0  3  0  0  0  0  0  0
  -20.9340   -6.0330   24.9020 C   0  0  0  0  0  3  0  0  0  0  0  0
  -21.2990   -4.6740   24.8840 C   0  0  0  0  0  0  0  0  0  0  0  0
  -21.8260   -4.1010   23.7130 C   0  0  0  0  0  3  0  0  0  0  0  0
  -21.9850   -4.8870   22.5580 C   0  0  0  0  0  0  0  0  0  0  0  0
  -22.4720   -4.3250   21.4250 F   0  0  0  0  0  0  0  0  0  0  0  0
  -21.1410   -3.9140   25.9930 F   0  0  0  0  0  0  0  0  0  0  0  0
  -22.7650  -13.6000   21.0990 C   0  0  0  0  0  0  0  0  0  0  0  0
  -22.0390  -12.9000   21.9620 N   0  0  0  0  0  0  0  0  0  0  0  0
  -22.3220  -14.6160   20.5660 O   0  0  0  0  0  0  0  0  0  0  0  0
  -22.4140  -12.0790   22.4140 H   0  0  0  0  0  0  0  0  0  0  0  0
  -21.0940  -13.1900   22.1740 H   0  0  0  0  0  0  0  0  0  0  0  0
  -25.3620  -15.3140   20.3270 N   0  0  0  0  0  0  0  0  0  0  0  0
  -24.5840  -15.9530   20.4430 H   0  0  0  0  0  0  0  0  0  0  0  0
  -26.2090  -15.7730   20.0190 H   0  0  0  0  0  0  0  0  0  0  0  0
  -28.1230  -25.2040   20.2190 O   0  0  0  0  0  1  0  0  0  0  0  0
  -24.6900  -31.8630   23.1350 C   0  0  0  0  0  0  0  0  0  0  0  0
  -27.1820  -26.5410   20.1840 C   0  0  0  0  0  0  0  0  0  0  0  0
  -23.4980  -30.4460   21.5230 C   0  0  0  0  0  3  0  0  0  0  0  0
  -24.9350  -28.7390   20.1250 C   0  0  0  0  0  0  0  0  0  0  0  0
  -26.0870  -30.5150   21.4060 C   0  0  0  0  0  2  0  0  0  0  0  0
  -26.1440  -29.0500   20.7580 C   0  0  0  0  0  0  0  0  0  0  0  0
  -27.2370  -27.9890   20.7460 C   0  0  0  0  0  3  0  0  0  0  0  0
  -25.9330  -26.5100   19.4890 C   0  0  0  0  0  3  0  0  0  0  0  0
  -24.8850  -27.4980   19.4620 C   0  0  0  0  0  3  0  0  0  0  0  0
  -23.7380  -29.7200   20.1640 C   0  0  0  0  0  2  0  0  0  0  0  0
  -24.7850  -30.9810   22.0720 N   0  0  0  0  0  0  0  0  0  0  0  0
  -23.5970  -32.1760   23.6400 O   0  0  0  0  0  0  0  0  0  0  0  0
  -22.7670  -29.4980   22.5140 C   0  0  0  0  0  0  0  0  0  0  0  0
  -21.4320  -29.3490   22.3990 N   0  0  0  0  0  0  0  0  0  0  0  0
  -23.4190  -28.8900   23.3660 O   0  0  0  0  0  0  0  0  0  0  0  0
  -20.9510  -29.8890   21.6930 H   0  0  0  0  0  0  0  0  0  0  0  0
  -18.0470  -28.1270   22.9550 C   0  0  0  0  0  0  0  0  0  0  0  0
  -20.6090  -28.4200   23.1880 C   0  0  0  0  0  3  0  0  0  0  0  0
  -20.7120  -26.9800   22.6320 C   0  0  0  0  0  2  0  0  0  0  0  0
  -19.6050  -26.6400   21.6280 C   0  0  0  0  0  2  0  0  0  0  0  0
  -18.2280  -26.7770   22.2830 C   0  0  0  0  0  2  0  0  0  0  0  0
  -19.1630  -28.9060   23.3640 C   0  0  0  0  0  0  0  0  0  0  0  0
  -18.9350  -30.1650   23.9600 C   0  0  0  0  0  3  0  0  0  0  0  0
  -17.6250  -30.6470   24.1480 C   0  0  0  0  0  3  0  0  0  0  0  0
  -16.5250  -29.8690   23.7480 C   0  0  0  0  0  3  0  0  0  0  0  0
  -16.7370  -28.6110   23.1580 C   0  0  0  0  0  3  0  0  0  0  0  0
  -25.9480  -32.5310   23.7700 C   0  0  0  0  0  3  0  0  0  0  0  0
  -25.6120  -33.9300   24.1160 N   0  0  0  0  0  0  0  0  0  0  0  0
  -25.9260  -35.0100   23.3850 C   0  0  0  0  0  0  0  0  0  0  0  0
  -26.5790  -34.9340   22.3420 O   0  0  0  0  0  0  0  0  0  0  0  0
  -25.0230  -34.0600   24.9260 H   0  0  0  0  0  0  0  0  0  0  0  0
  -24.1840  -36.8140   23.1180 C   0  0  0  0  0  1  0  0  0  0  0  0
  -25.4460  -36.3910   23.8860 C   0  0  0  0  0  3  0  0  0  0  0  0
  -27.5900  -37.2830   24.6900 C   0  0  0  0  0  1  0  0  0  0  0  0
  -26.4710  -37.4520   23.7670 N   0  0  0  0  0  0  0  0  0  0  0  0
  -26.0610  -38.3680   23.9310 H   0  0  0  0  0  0  0  0  0  0  0  0
  -26.4590  -31.7800   25.0620 C   0  0  1  0  0  0  0  0  0  0  0  0
  -25.3610  -31.5540   26.1300 C   0  0  0  0  0  1  0  0  0  0  0  0
  -27.0500  -30.3980   24.7090 C   0  0  0  0  0  1  0  0  0  0  0  0
  -27.6030  -32.5860   25.7180 C   0  0  0  0  0  1  0  0  0  0  0  0
  1  4  2  0
  1  3  1  0
  2  6  1  0
  3  2  2  0
  4  5  1  0
  5  6  2  0
  6 10  1  0
  7  8  1  0
  7  4  1  0
  8  9  1  0
  9  5  1  0
 11  3  1  0
 12 17  1  0
 13 14  1  0
 13 12  1  0
 15 14  1  0
 15 22  1  0
 15 16  1  0
 17 11  1  0
 17 16  1  0
 18 11  2  0
 19 20  2  0
 20 39  1  0
 21 20  1  0
 21 24  1  0
 22 19  1  0
 22 23  1  0
 23 21  2  0
 24 25  1  0
 25 26  2  0
 27 30  1  0
 27 26  1  0
 28 27  2  0
 29 28  1  0
 29 24  2  0
 30 31  1  0
 31 32  1  0
 32 33  2  0
 34 33  1  0
 34 38  1  0
 35 34  2  0
 36 31  2  0
 36 35  1  0
 37 36  1  0
 39 40  1  0
 40 43  1  0
 40 42  1  0
 41 39  2  0
 44 45  1  0
 44 19  1  0
 46 44  1  0
 48 59  2  0
 49 47  1  0
 49 54  1  0
 50 58  1  0
 50 60  1  0
 51 57  1  0
 51 53  1  0
 52 58  1  0
 53 52  1  0
 54 53  2  0
 55 49  2  0
 56 55  1  0
 56 51  2  0
 57 50  1  0
 58 48  1  0
 60 62  2  0
 61 60  1  0
 63 61  1  0
 64 73  2  0
 64 69  1  0
 65 61  1  0
 65 69  1  0
 66 65  1  0
 67 68  1  0
 67 66  1  0
 68 64  1  0
 69 70  2  0
 70 71  1  0
 72 71  2  0
 73 72  1  0
 74 48  1  0
 74 75  1  0
 74 84  1  0
 75 78  1  0
 76 80  1  0
 76 75  1  0
 77 76  2  0
 80 79  1  0
 82 80  1  0
 82 83  1  0
 82 81  1  0
 84 87  1  1
 84 85  1  0
 86 84  1  0
M  ISO  4   3 100   9 101  11 100  47 101
M  END
>  <TORSDO>  (53) 
F 16

>  <SCORE>  (53) 
-16.734

>  <name>  (53) 
52

>  <ligand_id>  (53) 
52

>  <original_smiles>  (53) 
[H]c1c([H])c([H])c2c(c1[H])C([H])([H])C([H])([H])C([H])([H])C2([H])N([H])C(=O)C1([H])N(C(=O)C([H])(N([H])C(=O)C([H])(N([H])C([H])([H])[H])C([H])([H])[H])C(C([H])([H])[H])(C([H])([H])[H])C([H])([H])[H])C([H])([H])c2c([H])c(OC3([H])c4c(C([H])([H])[H])c([H])c(C(=O)N5C([H])([H])C([H])([H])C([H])([H])C([H])(n6nc(-c7c([H])c([H])c(Oc8c([H])c([H])c(F)c([H])c8F)c([H])c7[H])c(C(=O)N([H])[H])c6N([H])[H])C5([H])[H])c([H])c4C([H])([H])C3([H])[H])c([H])c([H])c2C1([H])[H]

>  <smiles>  (53) 
[H]c1c([H])c([H])c2c(c1[H])C([H])([H])C([H])([H])C([H])([H])C2([H])N([H])C(=O)C1([H])N(C(=O)C([H])(N([H])C(=O)C([H])(N([H])C([H])([H])[H])C([H])([H])[H])C(C([H])([H])[H])(C([H])([H])[H])C([H])([H])[H])C([H])([H])c2c([H])c(OC3([H])c4c(C([H])([H])[H])c([H])c(C(=O)N5C([H])([H])C([H])([H])C([H])([H])C([H])(n6nc(-c7c([H])c([H])c(Oc8c([H])c([H])c(F)c([H])c8F)c([H])c7[H])c(C(=O)N([H])[H])c6N([H])[H])C5([H])[H])c([H])c4C([H])([H])C3([H])[H])c([H])c([H])c2C1([H])[H]

$$$$
53:0:0
     RDKit          3D

 82 87  0  0  1  0  0  0  0  0999 V2000
  -28.1920  -25.3100   20.2240 O   0  0  0  0  0  0  0  0  0  0  0  0
  -24.6280  -31.8110   23.1240 C   0  0  0  0  0  0  0  0  0  0  0  0
  -27.2090  -26.5790   20.2260 C   0  0  0  0  0  0  0  0  0  0  0  0
  -23.4690  -30.3830   21.4980 C   0  0  0  0  0  3  0  0  0  0  0  0
  -24.9380  -28.6980   20.1270 C   0  0  0  0  0  0  0  0  0  0  0  0
  -26.0550  -30.4990   21.4070 C   0  0  0  0  0  2  0  0  0  0  0  0
  -26.1330  -29.0410   20.7700 C   0  0  0  0  0  0  0  0  0  0  0  0
  -27.2460  -28.0180   20.7760 C   0  0  0  0  0  3  0  0  0  0  0  0
  -25.9710  -26.4880   19.5280 C   0  0  0  0  0  3  0  0  0  0  0  0
  -24.9060  -27.4490   19.4800 C   0  0  0  0  0  3  0  0  0  0  0  0
  -23.7320  -29.6610   20.1420 C   0  0  0  0  0  2  0  0  0  0  0  0
  -24.7430  -30.9360   22.0610 N   0  0  0  0  0  0  0  0  0  0  0  0
  -23.5260  -32.1130   23.6160 O   0  0  0  0  0  0  0  0  0  0  0  0
  -22.7390  -29.4230   22.4780 C   0  0  0  0  0  0  0  0  0  0  0  0
  -21.4040  -29.2770   22.3580 N   0  0  0  0  0  0  0  0  0  0  0  0
  -23.3900  -28.8040   23.3240 O   0  0  0  0  0  0  0  0  0  0  0  0
  -20.9260  -29.8260   21.6570 H   0  0  0  0  0  0  0  0  0  0  0  0
  -18.0120  -28.0790   22.9010 C   0  0  0  0  0  0  0  0  0  0  0  0
  -20.5760  -28.3460   23.1370 C   0  0  0  0  0  3  0  0  0  0  0  0
  -20.6680  -26.9110   22.5660 C   0  0  0  0  0  2  0  0  0  0  0  0
  -19.5580  -26.5910   21.5600 C   0  0  0  0  0  2  0  0  0  0  0  0
  -18.1820  -26.7330   22.2160 C   0  0  0  0  0  2  0  0  0  0  0  0
  -19.1350  -28.8430   23.3180 C   0  0  0  0  0  0  0  0  0  0  0  0
  -18.9170  -30.0980   23.9270 C   0  0  0  0  0  3  0  0  0  0  0  0
  -17.6130  -30.5920   24.1170 C   0  0  0  0  0  3  0  0  0  0  0  0
  -16.5060  -29.8270   23.7100 C   0  0  0  0  0  3  0  0  0  0  0  0
  -16.7070  -28.5710   23.1090 C   0  0  0  0  0  3  0  0  0  0  0  0
  -25.8740  -32.4880   23.7730 C   0  0  0  0  0  3  0  0  0  0  0  0
  -25.5250  -33.8840   24.1090 N   0  0  0  0  0  0  0  0  0  0  0  0
  -25.8480  -34.9620   23.3800 C   0  0  0  0  0  0  0  0  0  0  0  0
  -26.5230  -34.8870   22.3510 O   0  0  0  0  0  0  0  0  0  0  0  0
  -24.9210  -34.0140   24.9060 H   0  0  0  0  0  0  0  0  0  0  0  0
  -24.1000  -36.7530   23.0660 C   0  0  0  0  0  1  0  0  0  0  0  0
  -25.3470  -36.3410   23.8650 C   0  0  0  0  0  3  0  0  0  0  0  0
  -27.4700  -37.2470   24.7100 C   0  0  0  0  0  1  0  0  0  0  0  0
  -26.3670  -37.4100   23.7670 N   0  0  0  0  0  0  0  0  0  0  0  0
  -25.9490  -38.3230   23.9230 H   0  0  0  0  0  0  0  0  0  0  0  0
  -26.3730  -31.7420   25.0720 C   0  0  1  0  0  0  0  0  0  0  0  0
  -25.2640  -31.5080   26.1260 C   0  0  0  0  0  1  0  0  0  0  0  0
  -26.9780  -30.3630   24.7270 C   0  0  0  0  0  1  0  0  0  0  0  0
  -27.5040  -32.5570   25.7440 C   0  0  0  0  0  1  0  0  0  0  0  0
  -28.1430  -23.4660   20.4200 C   0  0  0  0  0  1  0  0  0  0  0  0
  -28.9200  -21.6350   19.9020 C   0  0  0  0  0 15  0  0  0  0  0  0
  -30.1100  -18.8650   19.4900 C   0  0  0  0  0  2  0  0  0  0  0  0
  -29.2980  -17.7070   20.0410 C   0  0  0  0  0  2  0  0  0  0  0  0
  -29.2550  -19.7080   20.4350 C   0  0  0  0  0  1  0  0  0  0  0  0
  -30.1730  -15.9480   20.0890 C   0  0  0  0  0  0  0  0  0  0  0  0
  -30.3420  -13.3290   19.3150 C   0  0  0  0  0  2  0  0  0  0  0  0
  -29.4490  -12.8160   18.1390 C   0  0  0  0  0  2  0  0  0  0  0  0
  -28.0500  -12.4130   18.6290 C   0  0  0  0  0  2  0  0  0  0  0  0
  -27.5280  -13.4310   19.6630 C   0  0  0  0  0  3  0  0  0  0  0  0
  -28.5640  -13.8420   20.7370 C   0  0  0  0  0  2  0  0  0  0  0  0
  -29.6970  -14.5300   20.0540 N   0  0  0  0  0  0  0  0  0  0  0  0
  -31.4120  -15.8270   19.9490 O   0  0  0  0  0  0  0  0  0  0  0  0
  -25.1990  -13.9380   20.5220 C   0  0  0  0  0  0  0  0  0  0  0  0
  -24.1500  -13.1540   20.9030 C   0  0  0  0  0  0  0  0  0  0  0  0
  -24.6150  -11.8040   20.8320 C   0  0  0  0  0  0  0  0  0  0  0  0
  -26.2330  -13.0720   20.2250 N   0  0  0  0  0  0  0  0  0  0  0  0
  -25.8980  -11.7770   20.4790 N   0  0  0  0  0  0  0  0  0  0  0  0
  -23.8860  -10.5410   21.0190 C   0  0  0  0  0  0  0  0  0  0  0  0
  -24.3220   -9.5600   21.9380 C   0  0  0  0  0  3  0  0  0  0  0  0
  -23.5870   -8.3680   22.1170 C   0  0  0  0  0  3  0  0  0  0  0  0
  -22.4000   -8.1470   21.3780 C   0  0  0  0  0  0  0  0  0  0  0  0
  -21.9810   -9.1150   20.4480 C   0  0  0  0  0  3  0  0  0  0  0  0
  -22.7180  -10.2990   20.2680 C   0  0  0  0  0  3  0  0  0  0  0  0
  -21.6380   -7.0070   21.4660 O   0  0  0  0  0  0  0  0  0  0  0  0
  -21.5860   -6.2620   22.6170 C   0  0  0  0  0  0  0  0  0  0  0  0
  -21.1530   -6.8120   23.8420 C   0  0  0  0  0  3  0  0  0  0  0  0
  -21.0490   -5.9940   24.9840 C   0  0  0  0  0  3  0  0  0  0  0  0
  -21.3690   -4.6250   24.9020 C   0  0  0  0  0  0  0  0  0  0  0  0
  -21.7960   -4.0730   23.6810 C   0  0  0  0  0  3  0  0  0  0  0  0
  -21.9020   -4.8890   22.5410 C   0  0  0  0  0  0  0  0  0  0  0  0
  -22.2920   -4.3480   21.3630 F   0  0  0  0  0  0  0  0  0  0  0  0
  -21.2640   -3.8360   25.9970 F   0  0  0  0  0  0  0  0  0  0  0  0
  -22.7620  -13.6310   21.2160 C   0  0  0  0  0  0  0  0  0  0  0  0
  -22.0510  -12.9240   22.0850 N   0  0  0  0  0  0  0  0  0  0  0  0
  -22.3190  -14.6680   20.7230 O   0  0  0  0  0  0  0  0  0  0  0  0
  -22.4240  -12.0850   22.5050 H   0  0  0  0  0  0  0  0  0  0  0  0
  -21.1210  -13.2260   22.3370 H   0  0  0  0  0  0  0  0  0  0  0  0
  -25.3590  -15.3130   20.3670 N   0  0  0  0  0  0  0  0  0  0  0  0
  -24.5990  -15.9650   20.5210 H   0  0  0  0  0  0  0  0  0  0  0  0
  -26.2020  -15.7590   20.0310 H   0  0  0  0  0  0  0  0  0  0  0  0
  1  3  1  0
  1 42  1  0
  2 13  2  0
  3  8  1  0
  4 12  1  0
  4 14  1  0
  5 11  1  0
  5  7  1  0
  6 12  1  0
  7  8  2  0
  7  6  1  0
  9  3  2  0
 10  9  1  0
 10  5  2  0
 11  4  1  0
 12  2  1  0
 14 16  2  0
 15 14  1  0
 17 15  1  0
 18 27  2  0
 18 23  1  0
 19 15  1  0
 19 23  1  0
 20 19  1  0
 21 22  1  0
 21 20  1  0
 22 18  1  0
 23 24  2  0
 24 25  1  0
 26 25  2  0
 27 26  1  0
 28  2  1  0
 28 29  1  0
 28 38  1  0
 29 32  1  0
 30 34  1  0
 30 29  1  0
 31 30  2  0
 34 33  1  0
 36 34  1  0
 36 37  1  0
 36 35  1  0
 38 41  1  1
 38 39  1  0
 40 38  1  0
 44 45  1  0
 44 46  1  0
 45 47  1  0
 48 53  1  0
 49 50  1  0
 49 48  1  0
 51 50  1  0
 51 58  1  0
 51 52  1  0
 53 47  1  0
 53 52  1  0
 54 47  2  0
 55 56  2  0
 56 75  1  0
 57 56  1  0
 57 60  1  0
 58 59  1  0
 58 55  1  0
 59 57  2  0
 60 61  1  0
 61 62  2  0
 63 66  1  0
 63 62  1  0
 64 63  2  0
 65 64  1  0
 65 60  2  0
 66 67  1  0
 67 68  1  0
 68 69  2  0
 70 69  1  0
 70 74  1  0
 71 70  2  0
 72 67  2  0
 72 71  1  0
 73 72  1  0
 75 76  1  0
 76 79  1  0
 76 78  1  0
 77 75  2  0
 80 81  1  0
 80 55  1  0
 82 80  1  0
M  ISO  4   1 101  42 101  45 100  47 100
M  END
>  <TORSDO>  (54) 
F 18

>  <SCORE>  (54) 
-16.219

>  <name>  (54) 
53

>  <ligand_id>  (54) 
53

>  <original_smiles>  (54) 
[H]c1c([H])c([H])c2c(c1[H])C([H])([H])C([H])([H])C([H])([H])C2([H])N([H])C(=O)C1([H])N(C(=O)C([H])(N([H])C(=O)C([H])(N([H])C([H])([H])[H])C([H])([H])[H])C(C([H])([H])[H])(C([H])([H])[H])C([H])([H])[H])C([H])([H])c2c([H])c(OC([H])([H])C([H])([H])C3([H])C([H])([H])C3([H])C(=O)N3C([H])([H])C([H])([H])C([H])([H])C([H])(n4nc(-c5c([H])c([H])c(Oc6c([H])c([H])c(F)c([H])c6F)c([H])c5[H])c(C(=O)N([H])[H])c4N([H])[H])C3([H])[H])c([H])c([H])c2C1([H])[H]

>  <smiles>  (54) 
[H]c1c([H])c([H])c2c(c1[H])C([H])([H])C([H])([H])C([H])([H])C2([H])N([H])C(=O)C1([H])N(C(=O)C([H])(N([H])C(=O)C([H])(N([H])C([H])([H])[H])C([H])([H])[H])C(C([H])([H])[H])(C([H])([H])[H])C([H])([H])[H])C([H])([H])c2c([H])c(OC([H])([H])C([H])([H])C3([H])C([H])([H])C3([H])C(=O)N3C([H])([H])C([H])([H])C([H])([H])C([H])(n4nc(-c5c([H])c([H])c(Oc6c([H])c([H])c(F)c([H])c6F)c([H])c5[H])c(C(=O)N([H])[H])c4N([H])[H])C3([H])[H])c([H])c([H])c2C1([H])[H]

$$$$
54:0:0
     RDKit          3D

 98107  0  0  1  0  0  0  0  0999 V2000
  -30.3660  -19.4420   20.7630 C   0  0  0  0  0  3  0  0  0  0  0  0
  -31.2960  -17.2780   23.7550 C   0  0  0  0  0  2  0  0  0  0  0  0
  -30.8600  -16.1560   22.8210 C   0  0  0  0  0  2  0  0  0  0  0  0
  -30.6340  -18.5460   23.2050 C   0  0  0  0  0  2  0  0  0  0  0  0
  -30.7640  -16.8230   21.4430 C   0  0  0  0  0  3  0  0  0  0  0  0
  -30.1570  -18.2370   21.7640 C   0  0  0  0  0  3  0  0  0  0  0  0
  -29.9900  -15.9300   20.4360 C   0  0  0  0  0  2  0  0  0  0  0  0
  -30.7400  -14.6460   19.9710 C   0  0  0  0  0  0  0  0  0  0  0  0
  -30.4120  -12.4940   18.8160 C   0  0  0  0  0  2  0  0  0  0  0  0
  -29.4140  -12.7330   17.6620 C   0  0  0  0  0  2  0  0  0  0  0  0
  -27.9590  -12.5960   18.1550 C   0  0  0  0  0  2  0  0  0  0  0  0
  -27.6900  -13.4020   19.4550 C   0  0  0  0  0  3  0  0  0  0  0  0
  -28.7950  -13.1390   20.5010 C   0  0  0  0  0  2  0  0  0  0  0  0
  -30.0890  -13.4540   19.8820 N   0  0  0  0  0  0  0  0  0  0  0  0
  -31.8730  -14.8000   19.5050 O   0  0  0  0  0  0  0  0  0  0  0  0
  -25.3200  -14.0090   20.2550 C   0  0  0  0  0  0  0  0  0  0  0  0
  -24.2710  -13.2360   20.6730 C   0  0  0  0  0  0  0  0  0  0  0  0
  -24.7350  -11.8850   20.6360 C   0  0  0  0  0  0  0  0  0  0  0  0
  -26.3590  -13.1280   19.9900 N   0  0  0  0  0  0  0  0  0  0  0  0
  -26.0120  -11.8470   20.2760 N   0  0  0  0  0  0  0  0  0  0  0  0
  -24.0230  -10.6220   20.8660 C   0  0  0  0  0  0  0  0  0  0  0  0
  -24.4750   -9.6830   21.8180 C   0  0  0  0  0  3  0  0  0  0  0  0
  -23.7620   -8.4840   22.0350 C   0  0  0  0  0  3  0  0  0  0  0  0
  -22.5830   -8.2160   21.2990 C   0  0  0  0  0  0  0  0  0  0  0  0
  -22.1500   -9.1450   20.3370 C   0  0  0  0  0  3  0  0  0  0  0  0
  -22.8630  -10.3350   20.1180 C   0  0  0  0  0  3  0  0  0  0  0  0
  -21.8400   -7.0670   21.4240 O   0  0  0  0  0  0  0  0  0  0  0  0
  -21.7760   -6.3770   22.6070 C   0  0  0  0  0  0  0  0  0  0  0  0
  -21.3110   -6.9780   23.7970 C   0  0  0  0  0  3  0  0  0  0  0  0
  -21.1960   -6.2130   24.9740 C   0  0  0  0  0  3  0  0  0  0  0  0
  -21.5350   -4.8460   24.9630 C   0  0  0  0  0  0  0  0  0  0  0  0
  -21.9930   -4.2450   23.7780 C   0  0  0  0  0  3  0  0  0  0  0  0
  -22.1100   -5.0070   22.6030 C   0  0  0  0  0  0  0  0  0  0  0  0
  -22.5320   -4.4170   21.4580 F   0  0  0  0  0  0  0  0  0  0  0  0
  -21.4170   -4.1090   26.0920 F   0  0  0  0  0  0  0  0  0  0  0  0
  -22.8840  -13.7110   21.0000 C   0  0  0  0  0  0  0  0  0  0  0  0
  -22.2000  -13.0250   21.9090 N   0  0  0  0  0  0  0  0  0  0  0  0
  -22.4180  -14.7250   20.4840 O   0  0  0  0  0  0  0  0  0  0  0  0
  -22.5910  -12.2030   22.3450 H   0  0  0  0  0  0  0  0  0  0  0  0
  -21.2730  -13.3250   22.1720 H   0  0  0  0  0  0  0  0  0  0  0  0
  -25.4740  -15.3780   20.0580 N   0  0  0  0  0  0  0  0  0  0  0  0
  -24.7100  -16.0320   20.1940 H   0  0  0  0  0  0  0  0  0  0  0  0
  -26.3100  -15.8160   19.6930 H   0  0  0  0  0  0  0  0  0  0  0  0
  -29.6210  -20.6430   21.2720 N   0  0  0  0  0  4  0  0  0  0  0  0
  -28.8000  -20.3040   21.7460 H   0  0  0  0  0  0  0  0  0  0  0  0
  -30.1950  -21.0890   21.9690 H   0  0  0  0  0  0  0  0  0  0  0  0
  -29.1490  -21.6890   20.3140 C   0  0  0  0  0  2  0  0  0  0  0  0
  -28.7950  -23.0240   21.0390 C   0  0  0  0  0  2  0  0  0  0  0  0
  -28.6090  -24.2760   20.1330 C   0  0  0  0  0  2  0  0  0  0  0  0
  -28.3020  -25.5670   20.9390 C   0  0  0  0  0  2  0  0  0  0  0  0
  -28.3550  -26.7790   20.1610 O   0  0  0  0  0  0  0  0  0  0  0  0
  -24.5660  -31.9840   23.2370 C   0  0  0  0  0  0  0  0  0  0  0  0
  -27.1980  -27.5260   20.1720 C   0  0  0  0  0  0  0  0  0  0  0  0
  -23.3510  -30.5660   21.6160 C   0  0  0  0  0  3  0  0  0  0  0  0
  -24.7990  -29.0220   20.1900 C   0  0  0  0  0  0  0  0  0  0  0  0
  -25.8720  -30.9370   21.3880 C   0  0  0  0  0  2  0  0  0  0  0  0
  -25.9610  -29.5590   20.7590 C   0  0  0  0  0  0  0  0  0  0  0  0
  -27.1680  -28.8210   20.7420 C   0  0  0  0  0  3  0  0  0  0  0  0
  -26.0220  -27.0010   19.6000 C   0  0  0  0  0  3  0  0  0  0  0  0
  -24.8250  -27.7420   19.6050 C   0  0  0  0  0  3  0  0  0  0  0  0
  -23.5500  -29.8750   20.2400 C   0  0  0  0  0  2  0  0  0  0  0  0
  -24.6160  -31.1770   22.1390 N   0  0  0  0  0  0  0  0  0  0  0  0
  -23.4890  -32.2560   23.7850 O   0  0  0  0  0  0  0  0  0  0  0  0
  -22.7120  -29.5500   22.5900 C   0  0  0  0  0  0  0  0  0  0  0  0
  -21.3890  -29.3540   22.4690 N   0  0  0  0  0  0  0  0  0  0  0  0
  -23.4030  -28.9400   23.4100 O   0  0  0  0  0  0  0  0  0  0  0  0
  -20.8920  -29.9000   21.7780 H   0  0  0  0  0  0  0  0  0  0  0  0
  -18.0280  -28.1280   22.9810 C   0  0  0  0  0  0  0  0  0  0  0  0
  -20.5820  -28.4170   23.2510 C   0  0  0  0  0  3  0  0  0  0  0  0
  -20.7020  -26.9810   22.6930 C   0  0  0  0  0  2  0  0  0  0  0  0
  -19.6040  -26.6320   21.6820 C   0  0  0  0  0  2  0  0  0  0  0  0
  -18.2210  -26.7710   22.3230 C   0  0  0  0  0  2  0  0  0  0  0  0
  -19.1380  -28.9070   23.4020 C   0  0  0  0  0  0  0  0  0  0  0  0
  -18.9060  -30.1760   23.9750 C   0  0  0  0  0  3  0  0  0  0  0  0
  -17.5950  -30.6670   24.1310 C   0  0  0  0  0  3  0  0  0  0  0  0
  -16.5000  -29.8850   23.7270 C   0  0  0  0  0  3  0  0  0  0  0  0
  -16.7170  -28.6170   23.1590 C   0  0  0  0  0  3  0  0  0  0  0  0
  -25.8560  -32.6240   23.8410 C   0  0  0  0  0  3  0  0  0  0  0  0
  -26.4020  -31.8510   25.1030 C   0  0  1  0  0  0  0  0  0  0  0  0
  -25.3270  -31.5880   26.1840 C   0  0  0  0  0  1  0  0  0  0  0  0
  -26.9980  -30.4850   24.6900 C   0  0  0  0  0  1  0  0  0  0  0  0
  -27.5510  -32.6560   25.7550 C   0  0  0  0  0  1  0  0  0  0  0  0
  -25.5400  -34.0170   24.1800 N   0  0  0  0  0  0  0  0  0  0  0  0
  -25.8530  -35.0760   23.4190 C   0  0  0  0  0  0  0  0  0  0  0  0
  -26.5080  -34.9800   22.3770 O   0  0  0  0  0  0  0  0  0  0  0  0
  -24.9550  -34.1650   24.9900 H   0  0  0  0  0  0  0  0  0  0  0  0
  -24.1040  -36.8530   23.0930 C   0  0  0  0  0  1  0  0  0  0  0  0
  -25.3590  -36.4580   23.8870 C   0  0  0  0  0  3  0  0  0  0  0  0
  -27.4960  -37.3590   24.6910 C   0  0  0  0  0  1  0  0  0  0  0  0
  -26.3810  -37.5200   23.7620 N   0  0  0  0  0  0  0  0  0  0  0  0
  -25.9690  -38.4360   23.9170 H   0  0  0  0  0  0  0  0  0  0  0  0
  -31.8830  -19.7560   20.5430 C   0  0  0  0  0  2  0  0  0  0  0  0
  -33.8950  -20.6860   16.7140 C   0  0  0  0  0  2  0  0  0  0  0  0
  -34.3550  -21.3970   17.9940 C   0  0  0  0  0  2  0  0  0  0  0  0
  -32.3690  -20.5120   16.6990 C   0  0  0  0  0  2  0  0  0  0  0  0
  -33.8610  -20.6570   19.2470 C   0  0  0  0  0  2  0  0  0  0  0  0
  -31.8740  -19.7820   17.9580 C   0  0  0  0  0  2  0  0  0  0  0  0
  -32.3250  -20.4930   19.2550 C   0  0  0  0  0  3  0  0  0  0  0  0
  1 92  1  0
  1 44  1  0
  3  2  1  0
  4  2  1  0
  5  7  1  0
  5  6  1  0
  5  3  1  0
  6  1  1  0
  6  4  1  0
  8  7  1  0
  9 14  1  0
 10 11  1  0
 10  9  1  0
 12 11  1  0
 12 19  1  0
 12 13  1  0
 14  8  1  0
 14 13  1  0
 15  8  2  0
 16 17  2  0
 17 36  1  0
 18 17  1  0
 18 21  1  0
 19 16  1  0
 19 20  1  0
 20 18  2  0
 21 22  1  0
 22 23  2  0
 24 27  1  0
 24 23  1  0
 25 24  2  0
 26 25  1  0
 26 21  2  0
 27 28  1  0
 28 29  1  0
 29 30  2  0
 31 30  1  0
 31 35  1  0
 32 31  2  0
 33 28  2  0
 33 32  1  0
 34 33  1  0
 36 37  1  0
 37 40  1  0
 37 39  1  0
 38 36  2  0
 41 42  1  0
 41 16  1  0
 43 41  1  0
 44 45  1  0
 44 46  1  0
 47 48  1  0
 47 44  1  0
 49 50  1  0
 49 48  1  0
 51 53  1  0
 51 50  1  0
 52 63  2  0
 53 58  1  0
 54 62  1  0
 54 64  1  0
 55 61  1  0
 55 57  1  0
 56 62  1  0
 57 56  1  0
 58 57  2  0
 59 60  1  0
 59 53  2  0
 60 55  2  0
 61 54  1  0
 62 52  1  0
 64 66  2  0
 65 64  1  0
 67 65  1  0
 68 77  2  0
 68 73  1  0
 69 65  1  0
 69 73  1  0
 70 69  1  0
 71 72  1  0
 71 70  1  0
 72 68  1  0
 73 74  2  0
 74 75  1  0
 76 75  2  0
 77 76  1  0
 78 52  1  0
 78 83  1  0
 78 79  1  0
 79 82  1  1
 79 80  1  0
 81 79  1  0
 83 86  1  0
 84 88  1  0
 84 83  1  0
 85 84  2  0
 88 87  1  0
 90 88  1  0
 90 91  1  0
 90 89  1  0
 93 94  1  0
 94 96  1  0
 95 93  1  0
 95 97  1  0
 96 98  1  0
 97 98  1  0
 98 92  1  0
M  ISO  4   7 100   8 100  50 101  51 101
M  END
>  <TORSDO>  (55) 
F 25

>  <SCORE>  (55) 
-10.050

>  <name>  (55) 
54

>  <ligand_id>  (55) 
54

>  <original_smiles>  (55) 
[H]c1c([H])c([H])c2c(c1[H])C([H])([H])C([H])([H])C([H])([H])C2([H])N([H])C(=O)C1([H])N(C(=O)C([H])(N([H])C(=O)C([H])(N([H])C([H])([H])[H])C([H])([H])[H])C(C([H])([H])[H])(C([H])([H])[H])C([H])([H])[H])C([H])([H])c2c([H])c(OC([H])([H])C([H])([H])C([H])([H])C([H])([H])[N+]([H])([H])C([H])(C([H])([H])C3([H])C([H])([H])C([H])([H])C([H])([H])C([H])([H])C3([H])[H])C3([H])C([H])([H])C([H])([H])C([H])([H])C3([H])C([H])([H])C(=O)N3C([H])([H])C([H])([H])C([H])([H])C([H])(n4nc(-c5c([H])c([H])c(Oc6c([H])c([H])c(F)c([H])c6F)c([H])c5[H])c(C(=O)N([H])[H])c4N([H])[H])C3([H])[H])c([H])c([H])c2C1([H])[H]

>  <smiles>  (55) 
[H]c1c([H])c([H])c2c(c1[H])C([H])([H])C([H])([H])C([H])([H])C2([H])N([H])C(=O)C1([H])N(C(=O)C([H])(N([H])C(=O)C([H])(N([H])C([H])([H])[H])C([H])([H])[H])C(C([H])([H])[H])(C([H])([H])[H])C([H])([H])[H])C([H])([H])c2c([H])c(OC([H])([H])C([H])([H])C([H])([H])C([H])([H])[N+]([H])([H])C([H])(C([H])([H])C3([H])C([H])([H])C([H])([H])C([H])([H])C([H])([H])C3([H])[H])C3([H])C([H])([H])C([H])([H])C([H])([H])C3([H])C([H])([H])C(=O)N3C([H])([H])C([H])([H])C([H])([H])C([H])(n4nc(-c5c([H])c([H])c(Oc6c([H])c([H])c(F)c([H])c6F)c([H])c5[H])c(C(=O)N([H])[H])c4N([H])[H])C3([H])[H])c([H])c([H])c2C1([H])[H]

$$$$
55:0:0
     RDKit          3D

 81 84  0  0  1  0  0  0  0  0999 V2000
  -28.1340  -24.8180   20.2900 O   0  0  0  0  0  1  0  0  0  0  0  0
  -24.7140  -31.7990   23.1610 C   0  0  0  0  0  0  0  0  0  0  0  0
  -27.2190  -26.2630   20.2550 C   0  0  0  0  0  0  0  0  0  0  0  0
  -23.5580  -30.3940   21.5170 C   0  0  0  0  0  3  0  0  0  0  0  0
  -25.0130  -28.6310   20.1580 C   0  0  0  0  0  0  0  0  0  0  0  0
  -26.1560  -30.3710   21.4860 C   0  0  0  0  0  2  0  0  0  0  0  0
  -26.2120  -28.8820   20.8330 C   0  0  0  0  0  0  0  0  0  0  0  0
  -27.2720  -27.7470   20.8340 C   0  0  0  0  0  3  0  0  0  0  0  0
  -25.9820  -26.3550   19.5190 C   0  0  0  0  0  3  0  0  0  0  0  0
  -24.9690  -27.3970   19.4750 C   0  0  0  0  0  3  0  0  0  0  0  0
  -23.8350  -29.6520   20.1690 C   0  0  0  0  0  2  0  0  0  0  0  0
  -24.8400  -30.9010   22.1070 N   0  0  0  0  0  0  0  0  0  0  0  0
  -23.6070  -32.1290   23.6270 O   0  0  0  0  0  0  0  0  0  0  0  0
  -22.7730  -29.4710   22.4930 C   0  0  0  0  0  0  0  0  0  0  0  0
  -21.4340  -29.3670   22.3620 N   0  0  0  0  0  0  0  0  0  0  0  0
  -23.3920  -28.8360   23.3500 O   0  0  0  0  0  0  0  0  0  0  0  0
  -20.9770  -29.9260   21.6570 H   0  0  0  0  0  0  0  0  0  0  0  0
  -18.0090  -28.2300   22.8880 C   0  0  0  0  0  0  0  0  0  0  0  0
  -20.5790  -28.4460   23.1290 C   0  0  0  0  0  3  0  0  0  0  0  0
  -20.6420  -27.0160   22.5410 C   0  0  0  0  0  2  0  0  0  0  0  0
  -19.5280  -26.7310   21.5280 C   0  0  0  0  0  2  0  0  0  0  0  0
  -18.1540  -26.8910   22.1820 C   0  0  0  0  0  2  0  0  0  0  0  0
  -19.1460  -28.9670   23.3160 C   0  0  0  0  0  0  0  0  0  0  0  0
  -18.9500  -30.2150   23.9460 C   0  0  0  0  0  3  0  0  0  0  0  0
  -17.6540  -30.7290   24.1430 C   0  0  0  0  0  3  0  0  0  0  0  0
  -16.5330  -29.9910   23.7240 C   0  0  0  0  0  3  0  0  0  0  0  0
  -16.7120  -28.7410   23.1030 C   0  0  0  0  0  3  0  0  0  0  0  0
  -25.9500  -32.4690   23.8380 C   0  0  0  0  0  3  0  0  0  0  0  0
  -25.6100  -33.8730   24.1760 N   0  0  0  0  0  0  0  0  0  0  0  0
  -25.9340  -34.9530   23.4500 C   0  0  0  0  0  0  0  0  0  0  0  0
  -26.5910  -34.8740   22.4100 O   0  0  0  0  0  0  0  0  0  0  0  0
  -25.0190  -34.0060   24.9820 H   0  0  0  0  0  0  0  0  0  0  0  0
  -24.1830  -36.7570   23.2000 C   0  0  0  0  0  1  0  0  0  0  0  0
  -25.4600  -36.3390   23.9480 C   0  0  0  0  0  3  0  0  0  0  0  0
  -27.6160  -37.2470   24.7050 C   0  0  0  0  0  1  0  0  0  0  0  0
  -26.4780  -37.4040   23.8030 N   0  0  0  0  0  0  0  0  0  0  0  0
  -26.0690  -38.3200   23.9670 H   0  0  0  0  0  0  0  0  0  0  0  0
  -26.4100  -31.7220   25.1520 C   0  0  1  0  0  0  0  0  0  0  0  0
  -25.2750  -31.5060   26.1820 C   0  0  0  0  0  1  0  0  0  0  0  0
  -27.0030  -30.3340   24.8280 C   0  0  0  0  0  1  0  0  0  0  0  0
  -27.5380  -32.5230   25.8440 C   0  0  0  0  0  1  0  0  0  0  0  0
  -28.1210  -22.7800   20.1920 C   0  0  0  0  0 15  0  0  0  0  0  0
  -29.0870  -20.7160   20.1660 C   0  0  0  0  0 15  0  0  0  0  0  0
  -27.8820  -18.2510   19.1390 C   0  0  0  0  0  1  0  0  0  0  0  0
  -29.0360  -18.4410   20.1340 C   0  0  0  0  0  1  0  0  0  0  0  0
  -29.9260  -16.4760   20.0250 C   0  0  0  0  0  2  0  0  0  0  0  0
  -30.2770  -13.7380   19.2660 C   0  0  0  0  0  2  0  0  0  0  0  0
  -29.4470  -13.0060   18.1380 C   0  0  0  0  0  2  0  0  0  0  0  0
  -28.1060  -12.4750   18.6530 C   0  0  0  0  0  2  0  0  0  0  0  0
  -27.5070  -13.4960   19.6330 C   0  0  0  0  0  3  0  0  0  0  0  0
  -28.5060  -14.1020   20.6730 C   0  0  0  0  0  2  0  0  0  0  0  0
  -29.5470  -14.9580   19.9770 N   0  0  0  0  0  0  0  0  0  0  0  0
  -31.1680  -16.3130   19.8480 O   0  0  0  0  0  1  0  0  0  0  0  0
  -25.1830  -13.9200   20.5170 C   0  0  0  0  0  0  0  0  0  0  0  0
  -24.1510  -13.1140   20.9010 C   0  0  0  0  0  0  0  0  0  0  0  0
  -24.6380  -11.7720   20.8140 C   0  0  0  0  0  0  0  0  0  0  0  0
  -26.2340  -13.0790   20.2110 N   0  0  0  0  0  0  0  0  0  0  0  0
  -25.9230  -11.7730   20.4470 N   0  0  0  0  0  0  0  0  0  0  0  0
  -23.9240  -10.4980   21.0000 C   0  0  0  0  0  0  0  0  0  0  0  0
  -24.3670   -9.5250   21.9240 C   0  0  0  0  0  3  0  0  0  0  0  0
  -23.6430   -8.3250   22.1060 C   0  0  0  0  0  3  0  0  0  0  0  0
  -22.4610   -8.0880   21.3650 C   0  0  0  0  0  0  0  0  0  0  0  0
  -22.0350   -9.0500   20.4320 C   0  0  0  0  0  3  0  0  0  0  0  0
  -22.7590  -10.2400   20.2480 C   0  0  0  0  0  3  0  0  0  0  0  0
  -21.7100   -6.9400   21.4540 O   0  0  0  0  0  0  0  0  0  0  0  0
  -21.6480   -6.2070   22.6130 C   0  0  0  0  0  0  0  0  0  0  0  0
  -21.1740   -6.7630   23.8220 C   0  0  0  0  0  3  0  0  0  0  0  0
  -21.0620   -5.9550   24.9710 C   0  0  0  0  0  3  0  0  0  0  0  0
  -21.4130   -4.5930   24.9140 C   0  0  0  0  0  0  0  0  0  0  0  0
  -21.8790   -4.0360   23.7090 C   0  0  0  0  0  3  0  0  0  0  0  0
  -21.9930   -4.8410   22.5620 C   0  0  0  0  0  0  0  0  0  0  0  0
  -22.4210   -4.2940   21.3980 F   0  0  0  0  0  0  0  0  0  0  0  0
  -21.2990   -3.8160   26.0160 F   0  0  0  0  0  0  0  0  0  0  0  0
  -22.7610  -13.5700   21.2270 C   0  0  0  0  0  0  0  0  0  0  0  0
  -22.0690  -12.8550   22.1050 N   0  0  0  0  0  0  0  0  0  0  0  0
  -22.2980  -14.6020   20.7390 O   0  0  0  0  0  0  0  0  0  0  0  0
  -22.4590  -12.0210   22.5210 H   0  0  0  0  0  0  0  0  0  0  0  0
  -21.1380  -13.1430   22.3660 H   0  0  0  0  0  0  0  0  0  0  0  0
  -25.3130  -15.2970   20.3660 N   0  0  0  0  0  0  0  0  0  0  0  0
  -24.5400  -15.9330   20.5240 H   0  0  0  0  0  0  0  0  0  0  0  0
  -26.1460  -15.7620   20.0280 H   0  0  0  0  0  0  0  0  0  0  0  0
  2 13  2  0
  3  1  1  0
  3  8  1  0
  4 12  1  0
  4 14  1  0
  5 11  1  0
  5  7  1  0
  6 12  1  0
  7  8  2  0
  7  6  1  0
  9  3  2  0
 10  9  1  0
 10  5  2  0
 11  4  1  0
 12  2  1  0
 14 16  2  0
 15 14  1  0
 17 15  1  0
 18 27  2  0
 18 23  1  0
 19 15  1  0
 19 23  1  0
 20 19  1  0
 21 22  1  0
 21 20  1  0
 22 18  1  0
 23 24  2  0
 24 25  1  0
 26 25  2  0
 27 26  1  0
 28  2  1  0
 28 29  1  0
 28 38  1  0
 29 32  1  0
 30 34  1  0
 30 29  1  0
 31 30  2  0
 34 33  1  0
 36 34  1  0
 36 37  1  0
 36 35  1  0
 38 41  1  1
 38 39  1  0
 40 38  1  0
 44 45  1  0
 47 52  1  0
 48 49  1  0
 48 47  1  0
 50 49  1  0
 50 57  1  0
 50 51  1  0
 52 46  1  0
 52 51  1  0
 53 46  1  0
 54 55  2  0
 55 74  1  0
 56 55  1  0
 56 59  1  0
 57 58  1  0
 57 54  1  0
 58 56  2  0
 59 60  1  0
 60 61  2  0
 62 65  1  0
 62 61  1  0
 63 62  2  0
 64 63  1  0
 64 59  2  0
 65 66  1  0
 66 67  1  0
 67 68  2  0
 69 68  1  0
 69 73  1  0
 70 69  2  0
 71 66  2  0
 71 70  1  0
 72 71  1  0
 74 75  1  0
 75 78  1  0
 75 77  1  0
 76 74  2  0
 79 54  1  0
 79 80  1  0
 81 79  1  0
M  ISO  4   1 101  42 101  45 100  46 100
M  END
>  <TORSDO>  (56) 
F 18

>  <SCORE>  (56) 
-16.388

>  <name>  (56) 
55

>  <ligand_id>  (56) 
55

>  <original_smiles>  (56) 
[H]c1c([H])c([H])c2c(c1[H])C([H])([H])C([H])([H])C([H])([H])C2([H])N([H])C(=O)C1([H])N(C(=O)C([H])(N([H])C(=O)C([H])(N([H])C([H])([H])[H])C([H])([H])[H])C(C([H])([H])[H])(C([H])([H])[H])C([H])([H])[H])C([H])([H])c2c([H])c(OC([H])([H])C([H])([H])C([H])(C(=O)N3C([H])([H])C([H])([H])C([H])([H])C([H])(n4nc(-c5c([H])c([H])c(Oc6c([H])c([H])c(F)c([H])c6F)c([H])c5[H])c(C(=O)N([H])[H])c4N([H])[H])C3([H])[H])C([H])([H])[H])c([H])c([H])c2C1([H])[H]

>  <smiles>  (56) 
[H]c1c([H])c([H])c2c(c1[H])C([H])([H])C([H])([H])C([H])([H])C2([H])N([H])C(=O)C1([H])N(C(=O)C([H])(N([H])C(=O)C([H])(N([H])C([H])([H])[H])C([H])([H])[H])C(C([H])([H])[H])(C([H])([H])[H])C([H])([H])[H])C([H])([H])c2c([H])c(OC([H])([H])C([H])([H])C([H])(C(=O)N3C([H])([H])C([H])([H])C([H])([H])C([H])(n4nc(-c5c([H])c([H])c(Oc6c([H])c([H])c(F)c([H])c6F)c([H])c5[H])c(C(=O)N([H])[H])c4N([H])[H])C3([H])[H])C([H])([H])[H])c([H])c([H])c2C1([H])[H]

$$$$
56:0:0
     RDKit          3D

 92100  0  0  1  0  0  0  0  0999 V2000
  -28.1700  -21.0870   20.2750 N   0  0  0  0  0  4  0  0  0  0  0  0
  -27.2730  -21.1660   19.8250 H   0  0  0  0  0  0  0  0  0  0  0  0
  -27.9780  -20.7080   21.1900 H   0  0  0  0  0  0  0  0  0  0  0  0
  -28.7420  -22.4770   20.5770 C   0  0  0  0  0  2  0  0  0  0  0  0
  -27.9640  -23.8100   20.1060 C   0  0  0  0  0  2  0  0  0  0  0  0
  -28.3050  -25.1760   20.8660 C   0  0  0  0  0  2  0  0  0  0  0  0
  -28.3280  -26.4960   20.1990 O   0  0  0  0  0  0  0  0  0  0  0  0
  -24.5900  -31.8780   23.2430 C   0  0  0  0  0  0  0  0  0  0  0  0
  -27.2000  -27.3160   20.2220 C   0  0  0  0  0  0  0  0  0  0  0  0
  -23.3940  -30.4790   21.5950 C   0  0  0  0  0  3  0  0  0  0  0  0
  -24.8480  -28.9240   20.1790 C   0  0  0  0  0  0  0  0  0  0  0  0
  -25.9300  -30.7950   21.4290 C   0  0  0  0  0  2  0  0  0  0  0  0
  -26.0090  -29.4140   20.7930 C   0  0  0  0  0  0  0  0  0  0  0  0
  -27.1920  -28.6210   20.8030 C   0  0  0  0  0  3  0  0  0  0  0  0
  -26.0250  -26.8700   19.5880 C   0  0  0  0  0  3  0  0  0  0  0  0
  -24.8580  -27.6570   19.5670 C   0  0  0  0  0  3  0  0  0  0  0  0
  -23.6190  -29.8080   20.2120 C   0  0  0  0  0  2  0  0  0  0  0  0
  -24.6570  -31.0670   22.1490 N   0  0  0  0  0  0  0  0  0  0  0  0
  -23.5040  -32.1560   23.7740 O   0  0  0  0  0  0  0  0  0  0  0  0
  -22.7290  -29.4600   22.5510 C   0  0  0  0  0  0  0  0  0  0  0  0
  -21.4020  -29.2850   22.4230 N   0  0  0  0  0  0  0  0  0  0  0  0
  -23.4070  -28.8320   23.3720 O   0  0  0  0  0  0  0  0  0  0  0  0
  -20.9140  -29.8490   21.7400 H   0  0  0  0  0  0  0  0  0  0  0  0
  -18.0230  -28.0980   22.9160 C   0  0  0  0  0  0  0  0  0  0  0  0
  -20.5810  -28.3470   23.1920 C   0  0  0  0  0  3  0  0  0  0  0  0
  -20.6780  -26.9160   22.6140 C   0  0  0  0  0  2  0  0  0  0  0  0
  -19.5760  -26.5990   21.5980 C   0  0  0  0  0  2  0  0  0  0  0  0
  -18.1950  -26.7490   22.2390 C   0  0  0  0  0  2  0  0  0  0  0  0
  -19.1450  -28.8550   23.3500 C   0  0  0  0  0  0  0  0  0  0  0  0
  -18.9290  -30.1180   23.9420 C   0  0  0  0  0  3  0  0  0  0  0  0
  -17.6250  -30.6240   24.1100 C   0  0  0  0  0  3  0  0  0  0  0  0
  -16.5190  -29.8650   23.6920 C   0  0  0  0  0  3  0  0  0  0  0  0
  -16.7200  -28.6040   23.1000 C   0  0  0  0  0  3  0  0  0  0  0  0
  -25.8700  -32.5120   23.8700 C   0  0  0  0  0  3  0  0  0  0  0  0
  -26.3780  -31.7450   25.1520 C   0  0  1  0  0  0  0  0  0  0  0  0
  -25.2800  -31.5150   26.2160 C   0  0  0  0  0  1  0  0  0  0  0  0
  -26.9570  -30.3620   24.7710 C   0  0  0  0  0  1  0  0  0  0  0  0
  -27.5240  -32.5390   25.8200 C   0  0  0  0  0  1  0  0  0  0  0  0
  -25.5640  -33.9130   24.1900 N   0  0  0  0  0  0  0  0  0  0  0  0
  -25.9030  -34.9630   23.4260 C   0  0  0  0  0  0  0  0  0  0  0  0
  -26.5760  -34.8520   22.3990 O   0  0  0  0  0  0  0  0  0  0  0  0
  -24.9660  -34.0750   24.9870 H   0  0  0  0  0  0  0  0  0  0  0  0
  -24.1800  -36.7600   23.0470 C   0  0  0  0  0  1  0  0  0  0  0  0
  -25.4150  -36.3560   23.8710 C   0  0  0  0  0  3  0  0  0  0  0  0
  -27.5450  -37.2380   24.7150 C   0  0  0  0  0  1  0  0  0  0  0  0
  -26.4520  -37.4060   23.7610 N   0  0  0  0  0  0  0  0  0  0  0  0
  -26.0480  -38.3270   23.9050 H   0  0  0  0  0  0  0  0  0  0  0  0
  -29.0000  -20.0180   19.5650 C   0  0  0  0  0  3  0  0  0  0  0  0
  -28.6620  -17.3710   19.0250 C   0  0  0  0  0  2  0  0  0  0  0  0
  -29.7480  -17.2690   20.0530 C   0  0  0  0  0  3  0  0  0  0  0  0
  -28.7330  -18.5060   20.0530 C   0  0  0  0  0  3  0  0  0  0  0  0
  -29.7510  -15.9620   20.9460 C   0  0  0  0  0  2  0  0  0  0  0  0
  -30.5770  -14.6850   20.4590 C   0  0  0  0  0  0  0  0  0  0  0  0
  -30.4400  -12.4470   19.3680 C   0  0  0  0  0  2  0  0  0  0  0  0
  -29.5160  -12.5990   18.1370 C   0  0  0  0  0  2  0  0  0  0  0  0
  -28.0260  -12.4600   18.5200 C   0  0  0  0  0  2  0  0  0  0  0  0
  -27.6550  -13.2790   19.7850 C   0  0  0  0  0  3  0  0  0  0  0  0
  -28.6930  -13.0690   20.9080 C   0  0  0  0  0  2  0  0  0  0  0  0
  -30.0030  -13.4430   20.3700 N   0  0  0  0  0  0  0  0  0  0  0  0
  -31.7350  -14.8550   20.0670 O   0  0  0  0  0  0  0  0  0  0  0  0
  -25.2470  -13.8850   20.4450 C   0  0  0  0  0  0  0  0  0  0  0  0
  -24.1770  -13.1170   20.8050 C   0  0  0  0  0  0  0  0  0  0  0  0
  -24.6420  -11.7660   20.7990 C   0  0  0  0  0  0  0  0  0  0  0  0
  -26.2970  -13.0040   20.2420 N   0  0  0  0  0  0  0  0  0  0  0  0
  -25.9370  -11.7250   20.5150 N   0  0  0  0  0  0  0  0  0  0  0  0
  -23.9130  -10.5060   20.9910 C   0  0  0  0  0  0  0  0  0  0  0  0
  -24.3320   -9.5570   21.9500 C   0  0  0  0  0  3  0  0  0  0  0  0
  -23.6060   -8.3590   22.1330 C   0  0  0  0  0  3  0  0  0  0  0  0
  -22.4470   -8.1060   21.3620 C   0  0  0  0  0  0  0  0  0  0  0  0
  -22.0480   -9.0460   20.3950 C   0  0  0  0  0  3  0  0  0  0  0  0
  -22.7720  -10.2350   20.2090 C   0  0  0  0  0  3  0  0  0  0  0  0
  -21.6980   -6.9590   21.4490 O   0  0  0  0  0  0  0  0  0  0  0  0
  -21.6340   -6.2280   22.6080 C   0  0  0  0  0  0  0  0  0  0  0  0
  -21.1860   -6.7940   23.8210 C   0  0  0  0  0  3  0  0  0  0  0  0
  -21.0690   -5.9900   24.9730 C   0  0  0  0  0  3  0  0  0  0  0  0
  -21.3900   -4.6210   24.9120 C   0  0  0  0  0  0  0  0  0  0  0  0
  -21.8290   -4.0540   23.7020 C   0  0  0  0  0  3  0  0  0  0  0  0
  -21.9490   -4.8550   22.5530 C   0  0  0  0  0  0  0  0  0  0  0  0
  -22.3530   -4.3000   21.3860 F   0  0  0  0  0  0  0  0  0  0  0  0
  -21.2710   -3.8470   26.0150 F   0  0  0  0  0  0  0  0  0  0  0  0
  -22.7730  -13.5940   21.0380 C   0  0  0  0  0  0  0  0  0  0  0  0
  -22.0290  -12.9130   21.9010 N   0  0  0  0  0  0  0  0  0  0  0  0
  -22.3430  -14.6090   20.4880 O   0  0  0  0  0  0  0  0  0  0  0  0
  -22.3880  -12.0960   22.3710 H   0  0  0  0  0  0  0  0  0  0  0  0
  -21.0830  -13.2130   22.0890 H   0  0  0  0  0  0  0  0  0  0  0  0
  -25.4080  -15.2560   20.2490 N   0  0  0  0  0  0  0  0  0  0  0  0
  -24.6330  -15.9010   20.3430 H   0  0  0  0  0  0  0  0  0  0  0  0
  -26.2630  -15.7050   19.9440 H   0  0  0  0  0  0  0  0  0  0  0  0
  -28.8000  -20.1320   18.0190 C   0  0  0  0  0  2  0  0  0  0  0  0
  -28.9650  -21.5020   17.3270 C   0  0  0  0  0  2  0  0  0  0  0  0
  -30.6290  -23.1900   16.3530 C   0  0  0  0  0  1  0  0  0  0  0  0
  -30.4190  -21.9930   17.2840 C   0  0  0  0  0  2  0  0  0  0  0  0
  1  4  1  0
  1  3  1  0
  2  1  1  0
  5  4  1  0
  5  6  1  0
  7  9  1  0
  7  6  1  0
  8 19  2  0
  9 14  1  0
 10 18  1  0
 10 20  1  0
 11 17  1  0
 11 13  1  0
 12 18  1  0
 13 14  2  0
 13 12  1  0
 15  9  2  0
 16 15  1  0
 16 11  2  0
 17 10  1  0
 18  8  1  0
 20 22  2  0
 21 20  1  0
 23 21  1  0
 24 33  2  0
 24 29  1  0
 25 21  1  0
 25 29  1  0
 26 25  1  0
 27 28  1  0
 27 26  1  0
 28 24  1  0
 29 30  2  0
 30 31  1  0
 32 31  2  0
 33 32  1  0
 34  8  1  0
 34 39  1  0
 34 35  1  0
 35 38  1  1
 35 36  1  0
 37 35  1  0
 39 42  1  0
 40 44  1  0
 40 39  1  0
 41 40  2  0
 44 43  1  0
 46 44  1  0
 46 47  1  0
 46 45  1  0
 48 89  1  0
 48  1  1  0
 49 50  1  0
 49 51  1  0
 50 51  1  0
 50 52  1  0
 51 48  1  0
 53 52  1  0
 54 59  1  0
 55 56  1  0
 55 54  1  0
 57 56  1  0
 57 64  1  0
 57 58  1  0
 59 53  1  0
 59 58  1  0
 60 53  2  0
 61 62  2  0
 62 81  1  0
 63 62  1  0
 63 66  1  0
 64 61  1  0
 64 65  1  0
 65 63  2  0
 66 67  1  0
 67 68  2  0
 69 72  1  0
 69 68  1  0
 70 69  2  0
 71 70  1  0
 71 66  2  0
 72 73  1  0
 73 74  1  0
 74 75  2  0
 76 75  1  0
 76 80  1  0
 77 76  2  0
 78 73  2  0
 78 77  1  0
 79 78  1  0
 81 82  1  0
 82 85  1  0
 82 84  1  0
 83 81  2  0
 86 87  1  0
 86 61  1  0
 88 86  1  0
 90 89  1  0
 91 92  1  0
 92 90  1  0
M  ISO  4   6 101   7 101  52 100  53 100
M  END
>  <TORSDO>  (57) 
F 25

>  <SCORE>  (57) 
-12.321

>  <name>  (57) 
56

>  <ligand_id>  (57) 
56

>  <original_smiles>  (57) 
[H]c1c([H])c([H])c2c(c1[H])C([H])([H])C([H])([H])C([H])([H])C2([H])N([H])C(=O)C1([H])N(C(=O)C([H])(N([H])C(=O)C([H])(N([H])C([H])([H])[H])C([H])([H])[H])C(C([H])([H])[H])(C([H])([H])[H])C([H])([H])[H])C([H])([H])c2c([H])c(OC([H])([H])C([H])([H])C([H])([H])[N+]([H])([H])C([H])(C([H])([H])C([H])([H])C([H])([H])C([H])([H])[H])C3([H])C([H])([H])C3([H])C([H])([H])C(=O)N3C([H])([H])C([H])([H])C([H])([H])C([H])(n4nc(-c5c([H])c([H])c(Oc6c([H])c([H])c(F)c([H])c6F)c([H])c5[H])c(C(=O)N([H])[H])c4N([H])[H])C3([H])[H])c([H])c([H])c2C1([H])[H]

>  <smiles>  (57) 
[H]c1c([H])c([H])c2c(c1[H])C([H])([H])C([H])([H])C([H])([H])C2([H])N([H])C(=O)C1([H])N(C(=O)C([H])(N([H])C(=O)C([H])(N([H])C([H])([H])[H])C([H])([H])[H])C(C([H])([H])[H])(C([H])([H])[H])C([H])([H])[H])C([H])([H])c2c([H])c(OC([H])([H])C([H])([H])C([H])([H])[N+]([H])([H])C([H])(C([H])([H])C([H])([H])C([H])([H])C([H])([H])[H])C3([H])C([H])([H])C3([H])C([H])([H])C(=O)N3C([H])([H])C([H])([H])C([H])([H])C([H])(n4nc(-c5c([H])c([H])c(Oc6c([H])c([H])c(F)c([H])c6F)c([H])c5[H])c(C(=O)N([H])[H])c4N([H])[H])C3([H])[H])c([H])c([H])c2C1([H])[H]

$$$$
57:0:0
     RDKit          3D

 88 94  0  0  1  0  0  0  0  0999 V2000
  -31.7810  -20.4810   21.3640 C   0  0  0  0  0  2  0  0  0  0  0  0
  -30.5220  -19.6490   21.6170 C   0  0  0  0  0  2  0  0  0  0  0  0
  -30.4940  -22.2790   20.2620 C   0  0  0  0  0  2  0  0  0  0  0  0
  -31.4740  -21.1240   20.0070 C   0  0  0  0  0  3  0  0  0  0  0  0
  -29.0720  -21.7250   20.5570 C   0  0  0  0  0  1  0  0  0  0  0  0
  -29.6560  -19.7310   20.3110 C   0  0  0  0  0  2  0  0  0  0  0  0
  -30.7160  -20.0270   19.2200 C   0  0  1  0  0  0  0  0  0  0  0  0
  -30.0750  -20.4970   17.8920 C   0  0  0  0  0  1  0  0  0  0  0  0
  -31.6500  -18.8470   18.8560 C   0  0  0  0  0  1  0  0  0  0  0  0
  -29.3210  -17.7140   20.2580 C   0  0  0  0  0  1  0  0  0  0  0  0
  -30.1740  -15.9400   20.2250 C   0  0  0  0  0  0  0  0  0  0  0  0
  -30.3840  -13.3170   19.4810 C   0  0  0  0  0  2  0  0  0  0  0  0
  -29.5490  -12.8580   18.2430 C   0  0  0  0  0  2  0  0  0  0  0  0
  -28.1200  -12.4630   18.6460 C   0  0  0  0  0  2  0  0  0  0  0  0
  -27.5610  -13.4410   19.7020 C   0  0  0  0  0  3  0  0  0  0  0  0
  -28.5510  -13.8360   20.8240 C   0  0  0  0  0  2  0  0  0  0  0  0
  -29.7210  -14.5170   20.2020 N   0  0  0  0  0  0  0  0  0  0  0  0
  -31.4130  -15.8380   20.0700 O   0  0  0  0  0  0  0  0  0  0  0  0
  -25.1910  -13.9200   20.4460 C   0  0  0  0  0  0  0  0  0  0  0  0
  -24.1380  -13.1300   20.7990 C   0  0  0  0  0  0  0  0  0  0  0  0
  -24.6260  -11.7850   20.7780 C   0  0  0  0  0  0  0  0  0  0  0  0
  -26.2490  -13.0650   20.2110 N   0  0  0  0  0  0  0  0  0  0  0  0
  -25.9260  -11.7700   20.4800 N   0  0  0  0  0  0  0  0  0  0  0  0
  -23.9070  -10.5170   20.9630 C   0  0  0  0  0  0  0  0  0  0  0  0
  -24.3180   -9.5670   21.9230 C   0  0  0  0  0  3  0  0  0  0  0  0
  -23.5960   -8.3660   22.0990 C   0  0  0  0  0  3  0  0  0  0  0  0
  -22.4460   -8.1060   21.3170 C   0  0  0  0  0  0  0  0  0  0  0  0
  -22.0510   -9.0460   20.3480 C   0  0  0  0  0  3  0  0  0  0  0  0
  -22.7720  -10.2380   20.1720 C   0  0  0  0  0  3  0  0  0  0  0  0
  -21.6950   -6.9580   21.4000 O   0  0  0  0  0  0  0  0  0  0  0  0
  -21.6080   -6.2370   22.5630 C   0  0  0  0  0  0  0  0  0  0  0  0
  -21.1200   -6.8080   23.7580 C   0  0  0  0  0  3  0  0  0  0  0  0
  -20.9870   -6.0140   24.9140 C   0  0  0  0  0  3  0  0  0  0  0  0
  -21.3260   -4.6480   24.8740 C   0  0  0  0  0  0  0  0  0  0  0  0
  -21.8010   -4.0740   23.6810 C   0  0  0  0  0  3  0  0  0  0  0  0
  -21.9410   -4.8680   22.5300 C   0  0  0  0  0  0  0  0  0  0  0  0
  -22.3830   -4.3080   21.3770 F   0  0  0  0  0  0  0  0  0  0  0  0
  -21.1860   -3.8810   25.9810 F   0  0  0  0  0  0  0  0  0  0  0  0
  -22.7310  -13.5900   21.0420 C   0  0  0  0  0  0  0  0  0  0  0  0
  -21.9990  -12.8970   21.9020 N   0  0  0  0  0  0  0  0  0  0  0  0
  -22.2940  -14.6070   20.5010 O   0  0  0  0  0  0  0  0  0  0  0  0
  -22.3650  -12.0780   22.3670 H   0  0  0  0  0  0  0  0  0  0  0  0
  -21.0510  -13.1860   22.1000 H   0  0  0  0  0  0  0  0  0  0  0  0
  -25.3380  -15.2940   20.2680 N   0  0  0  0  0  0  0  0  0  0  0  0
  -24.5580  -15.9370   20.3470 H   0  0  0  0  0  0  0  0  0  0  0  0
  -26.1950  -15.7450   19.9690 H   0  0  0  0  0  0  0  0  0  0  0  0
  -28.1630  -23.4990   20.0810 C   0  0  0  0  0  1  0  0  0  0  0  0
  -28.1830  -25.3270   20.3630 O   0  0  0  0  0  0  0  0  0  0  0  0
  -24.6730  -31.8280   23.2120 C   0  0  0  0  0  0  0  0  0  0  0  0
  -27.2230  -26.6070   20.2690 C   0  0  0  0  0  0  0  0  0  0  0  0
  -23.5040  -30.4150   21.5760 C   0  0  0  0  0  3  0  0  0  0  0  0
  -24.9670  -28.7380   20.1850 C   0  0  0  0  0  0  0  0  0  0  0  0
  -26.0880  -30.5160   21.4920 C   0  0  0  0  0  2  0  0  0  0  0  0
  -26.1590  -29.0650   20.8380 C   0  0  0  0  0  0  0  0  0  0  0  0
  -27.2610  -28.0330   20.8430 C   0  0  0  0  0  3  0  0  0  0  0  0
  -25.9880  -26.5270   19.5590 C   0  0  0  0  0  3  0  0  0  0  0  0
  -24.9290  -27.4970   19.5220 C   0  0  0  0  0  3  0  0  0  0  0  0
  -23.7610  -29.7030   20.2150 C   0  0  0  0  0  2  0  0  0  0  0  0
  -24.7800  -30.9580   22.1450 N   0  0  0  0  0  0  0  0  0  0  0  0
  -23.5730  -32.1370   23.7040 O   0  0  0  0  0  0  0  0  0  0  0  0
  -22.7680  -29.4560   22.5490 C   0  0  0  0  0  0  0  0  0  0  0  0
  -21.4370  -29.3020   22.4110 N   0  0  0  0  0  0  0  0  0  0  0  0
  -23.4110  -28.8500   23.4100 O   0  0  0  0  0  0  0  0  0  0  0  0
  -20.9660  -29.8380   21.6940 H   0  0  0  0  0  0  0  0  0  0  0  0
  -18.0520  -28.0660   22.9050 C   0  0  0  0  0  0  0  0  0  0  0  0
  -20.6070  -28.3690   23.1840 C   0  0  0  0  0  3  0  0  0  0  0  0
  -20.7290  -26.9310   22.6300 C   0  0  0  0  0  2  0  0  0  0  0  0
  -19.6420  -26.5850   21.6070 C   0  0  0  0  0  2  0  0  0  0  0  0
  -18.2510  -26.7170   22.2350 C   0  0  0  0  0  2  0  0  0  0  0  0
  -19.1570  -28.8480   23.3350 C   0  0  0  0  0  0  0  0  0  0  0  0
  -18.9150  -30.1040   23.9310 C   0  0  0  0  0  3  0  0  0  0  0  0
  -17.6020  -30.5830   24.0940 C   0  0  0  0  0  3  0  0  0  0  0  0
  -16.5110  -29.8020   23.6750 C   0  0  0  0  0  3  0  0  0  0  0  0
  -16.7360  -28.5430   23.0870 C   0  0  0  0  0  3  0  0  0  0  0  0
  -25.9230  -32.4910   23.8670 C   0  0  0  0  0  3  0  0  0  0  0  0
  -25.5890  -33.8920   24.1990 N   0  0  0  0  0  0  0  0  0  0  0  0
  -25.9080  -34.9610   23.4550 C   0  0  0  0  0  0  0  0  0  0  0  0
  -26.5620  -34.8720   22.4140 O   0  0  0  0  0  0  0  0  0  0  0  0
  -24.9980  -34.0350   25.0040 H   0  0  0  0  0  0  0  0  0  0  0  0
  -24.1440  -36.7440   23.1890 C   0  0  0  0  0  1  0  0  0  0  0  0
  -25.4250  -36.3450   23.9400 C   0  0  0  0  0  3  0  0  0  0  0  0
  -27.5760  -37.2630   24.6890 C   0  0  0  0  0  1  0  0  0  0  0  0
  -26.4370  -37.4140   23.7880 N   0  0  0  0  0  0  0  0  0  0  0  0
  -26.0230  -38.3270   23.9530 H   0  0  0  0  0  0  0  0  0  0  0  0
  -26.4150  -31.7410   25.1680 C   0  0  1  0  0  0  0  0  0  0  0  0
  -25.2980  -31.5180   26.2150 C   0  0  0  0  0  1  0  0  0  0  0  0
  -27.0080  -30.3570   24.8250 C   0  0  0  0  0  1  0  0  0  0  0  0
  -27.5520  -32.5450   25.8450 C   0  0  0  0  0  1  0  0  0  0  0  0
  1  2  1  0
  3  5  1  0
  4  3  1  0
  4  1  1  0
  6  2  1  0
  7  4  1  0
  7  6  1  0
  7  8  1  6
  9  7  1  0
 11 10  1  0
 12 17  1  0
 13 14  1  0
 13 12  1  0
 15 14  1  0
 15 22  1  0
 15 16  1  0
 17 11  1  0
 17 16  1  0
 18 11  2  0
 19 20  2  0
 20 39  1  0
 21 20  1  0
 21 24  1  0
 22 19  1  0
 22 23  1  0
 23 21  2  0
 24 25  1  0
 25 26  2  0
 27 30  1  0
 27 26  1  0
 28 27  2  0
 29 28  1  0
 29 24  2  0
 30 31  1  0
 31 32  1  0
 32 33  2  0
 34 33  1  0
 34 38  1  0
 35 34  2  0
 36 31  2  0
 36 35  1  0
 37 36  1  0
 39 40  1  0
 40 43  1  0
 40 42  1  0
 41 39  2  0
 44 45  1  0
 44 19  1  0
 46 44  1  0
 47 48  1  0
 49 60  2  0
 50 48  1  0
 50 55  1  0
 51 59  1  0
 51 61  1  0
 52 58  1  0
 52 54  1  0
 53 59  1  0
 54 55  2  0
 54 53  1  0
 56 50  2  0
 57 56  1  0
 57 52  2  0
 58 51  1  0
 59 49  1  0
 61 63  2  0
 62 61  1  0
 64 62  1  0
 65 74  2  0
 65 70  1  0
 66 62  1  0
 66 70  1  0
 67 66  1  0
 68 69  1  0
 68 67  1  0
 69 65  1  0
 70 71  2  0
 71 72  1  0
 73 72  2  0
 74 73  1  0
 75 49  1  0
 75 76  1  0
 75 85  1  0
 76 79  1  0
 77 81  1  0
 77 76  1  0
 78 77  2  0
 81 80  1  0
 83 81  1  0
 83 84  1  0
 83 82  1  0
 85 88  1  1
 85 86  1  0
 87 85  1  0
M  ISO  4  10 100  11 100  47 101  48 101
M  END
>  <TORSDO>  (58) 
F 18

>  <SCORE>  (58) 
-16.600

>  <name>  (58) 
57

>  <ligand_id>  (58) 
57

>  <original_smiles>  (58) 
[H]c1c([H])c([H])c2c(c1[H])C([H])([H])C([H])([H])C([H])([H])C2([H])N([H])C(=O)C1([H])N(C(=O)C([H])(N([H])C(=O)C([H])(N([H])C([H])([H])[H])C([H])([H])[H])C(C([H])([H])[H])(C([H])([H])[H])C([H])([H])[H])C([H])([H])c2c([H])c(OC([H])([H])C3([H])C([H])([H])C4([H])C([H])([H])C([H])([H])C3(C([H])([H])C(=O)N3C([H])([H])C([H])([H])C([H])([H])C([H])(n5nc(-c6c([H])c([H])c(Oc7c([H])c([H])c(F)c([H])c7F)c([H])c6[H])c(C(=O)N([H])[H])c5N([H])[H])C3([H])[H])C4(C([H])([H])[H])C([H])([H])[H])c([H])c([H])c2C1([H])[H]

>  <smiles>  (58) 
[H]c1c([H])c([H])c2c(c1[H])C([H])([H])C([H])([H])C([H])([H])C2([H])N([H])C(=O)C1([H])N(C(=O)C([H])(N([H])C(=O)C([H])(N([H])C([H])([H])[H])C([H])([H])[H])C(C([H])([H])[H])(C([H])([H])[H])C([H])([H])[H])C([H])([H])c2c([H])c(OC([H])([H])C3([H])C([H])([H])C4([H])C([H])([H])C([H])([H])C3(C([H])([H])C(=O)N3C([H])([H])C([H])([H])C([H])([H])C([H])(n5nc(-c6c([H])c([H])c(Oc7c([H])c([H])c(F)c([H])c7F)c([H])c6[H])c(C(=O)N([H])[H])c5N([H])[H])C3([H])[H])C4(C([H])([H])[H])C([H])([H])[H])c([H])c([H])c2C1([H])[H]

$$$$
58:0:0
     RDKit          3D

 87 94  0  0  1  0  0  0  0  0999 V2000
  -29.7820  -23.1960   21.6100 C   0  0  0  0  0  1  0  0  0  0  0  0
  -28.6420  -22.8610   20.6380 C   0  0  0  0  0  3  0  0  0  0  0  0
  -29.0140  -21.2760   19.9110 C   0  0  0  0  0  2  0  0  0  0  0  0
  -29.1580  -19.7910   20.6220 N   0  0  0  0  0  4  0  0  0  0  0  0
  -28.2360  -19.5900   20.9740 H   0  0  0  0  0  0  0  0  0  0  0  0
  -29.7240  -19.9430   21.4410 H   0  0  0  0  0  0  0  0  0  0  0  0
  -29.1600  -18.2450   18.5450 C   0  0  0  0  0  1  0  0  0  0  0  0
  -29.7100  -18.3690   19.9740 C   0  0  0  0  0  3  0  0  0  0  0  0
  -29.6390  -16.7360   20.6800 C   0  0  0  0  0  2  0  0  0  0  0  0
  -30.4040  -15.2270   20.2800 C   0  0  0  0  0  0  0  0  0  0  0  0
  -30.3590  -12.8010   19.3810 C   0  0  0  0  0  2  0  0  0  0  0  0
  -29.4300  -12.6680   18.1480 C   0  0  0  0  0  2  0  0  0  0  0  0
  -27.9760  -12.4170   18.5830 C   0  0  0  0  0  2  0  0  0  0  0  0
  -27.5470  -13.3610   19.7350 C   0  0  0  0  0  3  0  0  0  0  0  0
  -28.6000  -13.4480   20.8600 C   0  0  0  0  0  2  0  0  0  0  0  0
  -29.8530  -13.9200   20.2510 N   0  0  0  0  0  0  0  0  0  0  0  0
  -31.5960  -15.2450   19.9380 O   0  0  0  0  0  0  0  0  0  0  0  0
  -25.1780  -13.9270   20.4920 C   0  0  0  0  0  0  0  0  0  0  0  0
  -24.1140  -13.1520   20.8630 C   0  0  0  0  0  0  0  0  0  0  0  0
  -24.5770  -11.8010   20.8290 C   0  0  0  0  0  0  0  0  0  0  0  0
  -26.2160  -13.0500   20.2420 N   0  0  0  0  0  0  0  0  0  0  0  0
  -25.8670  -11.7640   20.5130 N   0  0  0  0  0  0  0  0  0  0  0  0
  -23.8470  -10.5410   21.0190 C   0  0  0  0  0  0  0  0  0  0  0  0
  -24.2800   -9.5650   21.9420 C   0  0  0  0  0  3  0  0  0  0  0  0
  -23.5460   -8.3720   22.1210 C   0  0  0  0  0  3  0  0  0  0  0  0
  -22.3650   -8.1460   21.3750 C   0  0  0  0  0  0  0  0  0  0  0  0
  -21.9510   -9.1110   20.4390 C   0  0  0  0  0  3  0  0  0  0  0  0
  -22.6850  -10.2950   20.2580 C   0  0  0  0  0  3  0  0  0  0  0  0
  -21.6030   -7.0060   21.4640 O   0  0  0  0  0  0  0  0  0  0  0  0
  -21.5670   -6.2510   22.6090 C   0  0  0  0  0  0  0  0  0  0  0  0
  -21.1670   -6.7960   23.8490 C   0  0  0  0  0  3  0  0  0  0  0  0
  -21.0760   -5.9690   24.9860 C   0  0  0  0  0  3  0  0  0  0  0  0
  -21.3760   -4.5970   24.8850 C   0  0  0  0  0  0  0  0  0  0  0  0
  -21.7710   -4.0520   23.6500 C   0  0  0  0  0  3  0  0  0  0  0  0
  -21.8620   -4.8760   22.5150 C   0  0  0  0  0  0  0  0  0  0  0  0
  -22.2210   -4.3400   21.3240 F   0  0  0  0  0  0  0  0  0  0  0  0
  -21.2840   -3.8000   25.9750 F   0  0  0  0  0  0  0  0  0  0  0  0
  -22.7190  -13.6340   21.1370 C   0  0  0  0  0  0  0  0  0  0  0  0
  -21.9880  -12.9380   22.0000 N   0  0  0  0  0  0  0  0  0  0  0  0
  -22.2860  -14.6620   20.6200 O   0  0  0  0  0  0  0  0  0  0  0  0
  -22.3510  -12.1050   22.4390 H   0  0  0  0  0  0  0  0  0  0  0  0
  -21.0520  -13.2410   22.2250 H   0  0  0  0  0  0  0  0  0  0  0  0
  -25.3430  -15.2980   20.3170 N   0  0  0  0  0  0  0  0  0  0  0  0
  -24.5750  -15.9520   20.4280 H   0  0  0  0  0  0  0  0  0  0  0  0
  -26.1870  -15.7350   19.9700 H   0  0  0  0  0  0  0  0  0  0  0  0
  -28.1740  -24.4040   19.8900 C   0  0  0  0  0  2  0  0  0  0  0  0
  -28.2020  -25.9650   20.3610 O   0  0  0  0  0  0  0  0  0  0  0  0
  -24.6260  -31.8780   23.2360 C   0  0  0  0  0  0  0  0  0  0  0  0
  -27.1770  -27.0250   20.2370 C   0  0  0  0  0  0  0  0  0  0  0  0
  -23.4270  -30.4760   21.6060 C   0  0  0  0  0  3  0  0  0  0  0  0
  -24.8730  -28.8740   20.1820 C   0  0  0  0  0  0  0  0  0  0  0  0
  -25.9900  -30.6970   21.4540 C   0  0  0  0  0  2  0  0  0  0  0  0
  -26.0570  -29.2890   20.8040 C   0  0  0  0  0  0  0  0  0  0  0  0
  -27.2000  -28.3820   20.8130 C   0  0  0  0  0  3  0  0  0  0  0  0
  -25.9680  -26.7530   19.5570 C   0  0  0  0  0  3  0  0  0  0  0  0
  -24.8520  -27.6250   19.5400 C   0  0  0  0  0  3  0  0  0  0  0  0
  -23.6510  -29.7890   20.2290 C   0  0  0  0  0  2  0  0  0  0  0  0
  -24.7020  -31.0440   22.1520 N   0  0  0  0  0  0  0  0  0  0  0  0
  -23.5370  -32.1700   23.7580 O   0  0  0  0  0  0  0  0  0  0  0  0
  -22.7360  -29.4810   22.5740 C   0  0  0  0  0  0  0  0  0  0  0  0
  -21.4050  -29.3220   22.4520 N   0  0  0  0  0  0  0  0  0  0  0  0
  -23.4020  -28.8570   23.4040 O   0  0  0  0  0  0  0  0  0  0  0  0
  -20.9210  -29.8760   21.7600 H   0  0  0  0  0  0  0  0  0  0  0  0
  -18.0200  -28.1230   22.9630 C   0  0  0  0  0  0  0  0  0  0  0  0
  -20.5800  -28.3900   23.2280 C   0  0  0  0  0  3  0  0  0  0  0  0
  -20.6820  -26.9530   22.6640 C   0  0  0  0  0  2  0  0  0  0  0  0
  -19.5810  -26.6240   21.6500 C   0  0  0  0  0  2  0  0  0  0  0  0
  -18.1990  -26.7720   22.2920 C   0  0  0  0  0  2  0  0  0  0  0  0
  -19.1390  -28.8900   23.3880 C   0  0  0  0  0  0  0  0  0  0  0  0
  -18.9170  -30.1540   23.9780 C   0  0  0  0  0  3  0  0  0  0  0  0
  -17.6110  -30.6500   24.1470 C   0  0  0  0  0  3  0  0  0  0  0  0
  -16.5080  -29.8820   23.7370 C   0  0  0  0  0  3  0  0  0  0  0  0
  -16.7140  -28.6200   23.1500 C   0  0  0  0  0  3  0  0  0  0  0  0
  -25.9000  -32.5190   23.8640 C   0  0  0  0  0  3  0  0  0  0  0  0
  -25.5860  -33.9210   24.1900 N   0  0  0  0  0  0  0  0  0  0  0  0
  -25.9150  -34.9780   23.4350 C   0  0  0  0  0  0  0  0  0  0  0  0
  -26.5800  -34.8750   22.4010 O   0  0  0  0  0  0  0  0  0  0  0  0
  -24.9930  -34.0720   24.9930 H   0  0  0  0  0  0  0  0  0  0  0  0
  -24.1850  -36.7790   23.1080 C   0  0  0  0  0  1  0  0  0  0  0  0
  -25.4350  -36.3680   23.9020 C   0  0  0  0  0  3  0  0  0  0  0  0
  -27.5790  -37.2540   24.7110 C   0  0  0  0  0  1  0  0  0  0  0  0
  -26.4680  -37.4210   23.7780 N   0  0  0  0  0  0  0  0  0  0  0  0
  -26.0620  -38.3400   23.9310 H   0  0  0  0  0  0  0  0  0  0  0  0
  -26.4050  -31.7600   25.1530 C   0  0  1  0  0  0  0  0  0  0  0  0
  -25.3060  -31.5410   26.2180 C   0  0  0  0  0  1  0  0  0  0  0  0
  -26.9860  -30.3760   24.7880 C   0  0  0  0  0  1  0  0  0  0  0  0
  -27.5550  -32.5590   25.8120 C   0  0  0  0  0  1  0  0  0  0  0  0
  2  1  1  0
  3  4  1  0
  3  2  1  0
  4  5  1  0
  4  6  1  0
  8  7  1  0
  8  4  1  0
  8  9  1  0
 10  9  1  0
 11 16  1  0
 12 13  1  0
 12 11  1  0
 14 13  1  0
 14 21  1  0
 14 15  1  0
 16 10  1  0
 16 15  1  0
 17 10  2  0
 18 19  2  0
 19 38  1  0
 20 19  1  0
 20 23  1  0
 21 18  1  0
 21 22  1  0
 22 20  2  0
 23 24  1  0
 24 25  2  0
 26 29  1  0
 26 25  1  0
 27 26  2  0
 28 27  1  0
 28 23  2  0
 29 30  1  0
 30 31  1  0
 31 32  2  0
 33 32  1  0
 33 37  1  0
 34 33  2  0
 35 30  2  0
 35 34  1  0
 36 35  1  0
 38 39  1  0
 39 42  1  0
 39 41  1  0
 40 38  2  0
 43 44  1  0
 43 18  1  0
 45 43  1  0
 46 47  1  0
 46  2  1  0
 48 59  2  0
 49 47  1  0
 49 54  1  0
 50 58  1  0
 50 60  1  0
 51 57  1  0
 51 53  1  0
 52 58  1  0
 53 54  2  0
 53 52  1  0
 55 49  2  0
 56 55  1  0
 56 51  2  0
 57 50  1  0
 58 48  1  0
 60 62  2  0
 61 60  1  0
 63 61  1  0
 64 73  2  0
 64 69  1  0
 65 61  1  0
 65 69  1  0
 66 65  1  0
 67 68  1  0
 67 66  1  0
 68 64  1  0
 69 70  2  0
 70 71  1  0
 72 71  2  0
 73 72  1  0
 74 48  1  0
 74 75  1  0
 74 84  1  0
 75 78  1  0
 76 80  1  0
 76 75  1  0
 77 76  2  0
 80 79  1  0
 82 80  1  0
 82 83  1  0
 82 81  1  0
 84 87  1  1
 84 85  1  0
 86 84  1  0
M  ISO  4   9 100  10 100  46 101  47 101
M  END
>  <TORSDO>  (59) 
F 21

>  <SCORE>  (59) 
-15.368

>  <name>  (59) 
58

>  <ligand_id>  (59) 
58

>  <original_smiles>  (59) 
[H]c1c([H])c([H])c2c(c1[H])C([H])([H])C([H])([H])C([H])([H])C2([H])N([H])C(=O)C1([H])N(C(=O)C([H])(N([H])C(=O)C([H])(N([H])C([H])([H])[H])C([H])([H])[H])C(C([H])([H])[H])(C([H])([H])[H])C([H])([H])[H])C([H])([H])c2c([H])c(OC([H])([H])C([H])(C([H])([H])[H])C([H])([H])[N+]([H])([H])C([H])(C([H])([H])[H])C([H])([H])C(=O)N3C([H])([H])C([H])([H])C([H])([H])C([H])(n4nc(-c5c([H])c([H])c(Oc6c([H])c([H])c(F)c([H])c6F)c([H])c5[H])c(C(=O)N([H])[H])c4N([H])[H])C3([H])[H])c([H])c([H])c2C1([H])[H]

>  <smiles>  (59) 
[H]c1c([H])c([H])c2c(c1[H])C([H])([H])C([H])([H])C([H])([H])C2([H])N([H])C(=O)C1([H])N(C(=O)C([H])(N([H])C(=O)C([H])(N([H])C([H])([H])[H])C([H])([H])[H])C(C([H])([H])[H])(C([H])([H])[H])C([H])([H])[H])C([H])([H])c2c([H])c(OC([H])([H])C([H])(C([H])([H])[H])C([H])([H])[N+]([H])([H])C([H])(C([H])([H])[H])C([H])([H])C(=O)N3C([H])([H])C([H])([H])C([H])([H])C([H])(n4nc(-c5c([H])c([H])c(Oc6c([H])c([H])c(F)c([H])c6F)c([H])c5[H])c(C(=O)N([H])[H])c4N([H])[H])C3([H])[H])c([H])c([H])c2C1([H])[H]

$$$$
59:0:0
     RDKit          3D

 92102  0  0  1  0  0  0  0  0999 V2000
  -33.9710  -21.4690   21.4710 C   0  0  0  0  0  2  0  0  0  0  0  0
  -33.5390  -20.9380   20.1160 C   0  0  0  0  0  2  0  0  0  0  0  0
  -32.6860  -21.4920   22.3120 C   0  0  0  0  0  2  0  0  0  0  0  0
  -32.1100  -21.4450   20.0140 C   0  0  0  0  0  2  0  0  0  0  0  0
  -30.6460  -19.9250   21.7040 C   0  0  0  0  0  3  0  0  0  0  0  0
  -30.1410  -22.0850   21.6920 C   0  0  0  0  0  3  0  0  0  0  0  0
  -29.8010  -20.8740   22.6370 C   0  0  0  0  0  3  0  0  0  0  0  0
  -29.9110  -19.1870   20.5220 C   0  0  0  0  0  3  0  0  0  0  0  0
  -29.1950  -22.3890   20.4640 C   0  0  0  0  0  3  0  0  0  0  0  0
  -28.8590  -20.6260   20.0880 C   0  0  0  0  0  3  0  0  0  0  0  0
  -31.4550  -21.2550   21.3980 C   0  0  1  0  0  0  0  0  0  0  0  0
  -30.0770  -20.9600   24.1430 C   0  0  0  0  0  1  0  0  0  0  0  0
  -28.4980  -20.5180   18.6030 C   0  0  0  0  0  1  0  0  0  0  0  0
  -29.6910  -17.2990   20.6840 C   0  0  0  0  0  2  0  0  0  0  0  0
  -30.5930  -15.6970   20.5330 C   0  0  0  0  0  0  0  0  0  0  0  0
  -30.7230  -13.1930   19.6510 C   0  0  0  0  0  2  0  0  0  0  0  0
  -29.8470  -12.9140   18.3960 C   0  0  0  0  0  2  0  0  0  0  0  0
  -28.4010  -12.5700   18.7950 C   0  0  0  0  0  2  0  0  0  0  0  0
  -27.8860  -13.5170   19.9030 C   0  0  0  0  0  3  0  0  0  0  0  0
  -28.8960  -13.7300   21.0490 C   0  0  0  0  0  2  0  0  0  0  0  0
  -30.1150  -14.3270   20.4680 N   0  0  0  0  0  0  0  0  0  0  0  0
  -31.8220  -15.6890   20.3310 O   0  0  0  0  0  0  0  0  0  0  0  0
  -25.5000  -14.0200   20.6210 C   0  0  0  0  0  0  0  0  0  0  0  0
  -24.4410  -13.2240   20.9540 C   0  0  0  0  0  0  0  0  0  0  0  0
  -24.9260  -11.8800   20.9140 C   0  0  0  0  0  0  0  0  0  0  0  0
  -26.5580  -13.1630   20.3830 N   0  0  0  0  0  0  0  0  0  0  0  0
  -26.2260  -11.8680   20.6300 N   0  0  0  0  0  0  0  0  0  0  0  0
  -24.2090  -10.6060   21.0700 C   0  0  0  0  0  0  0  0  0  0  0  0
  -24.5780   -9.6650   22.0550 C   0  0  0  0  0  3  0  0  0  0  0  0
  -23.8570   -8.4590   22.2000 C   0  0  0  0  0  3  0  0  0  0  0  0
  -22.7540   -8.1860   21.3570 C   0  0  0  0  0  0  0  0  0  0  0  0
  -22.4040   -9.1170   20.3620 C   0  0  0  0  0  3  0  0  0  0  0  0
  -23.1260  -10.3140   20.2180 C   0  0  0  0  0  3  0  0  0  0  0  0
  -22.0110   -7.0310   21.4070 O   0  0  0  0  0  0  0  0  0  0  0  0
  -21.8350   -6.3380   22.5780 C   0  0  0  0  0  0  0  0  0  0  0  0
  -21.1900   -6.9120   23.6930 C   0  0  0  0  0  3  0  0  0  0  0  0
  -20.9680   -6.1420   24.8530 C   0  0  0  0  0  3  0  0  0  0  0  0
  -21.3820   -4.7970   24.8950 C   0  0  0  0  0  0  0  0  0  0  0  0
  -22.0190   -4.2210   23.7820 C   0  0  0  0  0  3  0  0  0  0  0  0
  -22.2420   -4.9880   22.6260 C   0  0  0  0  0  0  0  0  0  0  0  0
  -22.8380   -4.4230   21.5480 F   0  0  0  0  0  0  0  0  0  0  0  0
  -21.1630   -4.0540   26.0050 F   0  0  0  0  0  0  0  0  0  0  0  0
  -23.0330  -13.6810   21.1950 C   0  0  0  0  0  0  0  0  0  0  0  0
  -22.2850  -12.9600   22.0220 N   0  0  0  0  0  0  0  0  0  0  0  0
  -22.6020  -14.7140   20.6840 O   0  0  0  0  0  0  0  0  0  0  0  0
  -22.6460  -12.1260   22.4600 H   0  0  0  0  0  0  0  0  0  0  0  0
  -21.3380  -13.2490   22.2230 H   0  0  0  0  0  0  0  0  0  0  0  0
  -25.6510  -15.3960   20.4700 N   0  0  0  0  0  0  0  0  0  0  0  0
  -24.8780  -16.0430   20.5820 H   0  0  0  0  0  0  0  0  0  0  0  0
  -26.5080  -15.8460   20.1720 H   0  0  0  0  0  0  0  0  0  0  0  0
  -28.2220  -24.0380   20.4540 C   0  0  0  0  0  2  0  0  0  0  0  0
  -28.4320  -25.7580   20.4920 O   0  0  0  0  0  0  0  0  0  0  0  0
  -24.8210  -31.9260   23.3800 C   0  0  0  0  0  0  0  0  0  0  0  0
  -27.4420  -26.9320   20.4200 C   0  0  0  0  0  0  0  0  0  0  0  0
  -23.6780  -30.5400   21.7020 C   0  0  0  0  0  3  0  0  0  0  0  0
  -25.1650  -28.9160   20.3130 C   0  0  0  0  0  0  0  0  0  0  0  0
  -26.2550  -30.7050   21.6440 C   0  0  0  0  0  2  0  0  0  0  0  0
  -26.3390  -29.2860   20.9780 C   0  0  0  0  0  0  0  0  0  0  0  0
  -27.4670  -28.3210   20.9990 C   0  0  0  0  0  3  0  0  0  0  0  0
  -26.2340  -26.7540   19.7020 C   0  0  0  0  0  3  0  0  0  0  0  0
  -25.1470  -27.6770   19.6530 C   0  0  0  0  0  3  0  0  0  0  0  0
  -23.9520  -29.8570   20.3310 C   0  0  0  0  0  2  0  0  0  0  0  0
  -24.9400  -31.0880   22.2960 N   0  0  0  0  0  0  0  0  0  0  0  0
  -23.7150  -32.2190   23.8660 O   0  0  0  0  0  0  0  0  0  0  0  0
  -22.9420  -29.5500   22.6450 C   0  0  0  0  0  0  0  0  0  0  0  0
  -21.6280  -29.3370   22.4350 N   0  0  0  0  0  0  0  0  0  0  0  0
  -23.5660  -28.9710   23.5360 O   0  0  0  0  0  0  0  0  0  0  0  0
  -21.1730  -29.8580   21.6970 H   0  0  0  0  0  0  0  0  0  0  0  0
  -18.2680  -27.9890   22.7420 C   0  0  0  0  0  0  0  0  0  0  0  0
  -20.7890  -28.3840   23.1720 C   0  0  0  0  0  3  0  0  0  0  0  0
  -20.9950  -26.9430   22.6490 C   0  0  0  0  0  2  0  0  0  0  0  0
  -19.9840  -26.5430   21.5700 C   0  0  0  0  0  2  0  0  0  0  0  0
  -18.5530  -26.6370   22.1100 C   0  0  0  0  0  2  0  0  0  0  0  0
  -19.3180  -28.8160   23.2250 C   0  0  0  0  0  0  0  0  0  0  0  0
  -18.9960  -30.0760   23.7750 C   0  0  0  0  0  3  0  0  0  0  0  0
  -17.6590  -30.5130   23.8430 C   0  0  0  0  0  3  0  0  0  0  0  0
  -16.6240  -29.6860   23.3750 C   0  0  0  0  0  3  0  0  0  0  0  0
  -16.9290  -28.4250   22.8320 C   0  0  0  0  0  3  0  0  0  0  0  0
  -26.0660  -32.5700   24.0590 C   0  0  0  0  0  3  0  0  0  0  0  0
  -25.7600  -33.9870   24.3360 N   0  0  0  0  0  0  0  0  0  0  0  0
  -26.0900  -35.0170   23.5460 C   0  0  0  0  0  0  0  0  0  0  0  0
  -26.7450  -34.8760   22.5100 O   0  0  0  0  0  0  0  0  0  0  0  0
  -25.1820  -34.1720   25.1430 H   0  0  0  0  0  0  0  0  0  0  0  0
  -24.3420  -36.7990   23.2020 C   0  0  0  0  0  1  0  0  0  0  0  0
  -25.6230  -36.4280   23.9680 C   0  0  0  0  0  3  0  0  0  0  0  0
  -27.7820  -37.3660   24.6700 C   0  0  0  0  0  1  0  0  0  0  0  0
  -26.6450  -37.4780   23.7590 N   0  0  0  0  0  0  0  0  0  0  0  0
  -26.2390  -38.4030   23.8720 H   0  0  0  0  0  0  0  0  0  0  0  0
  -26.4880  -31.8460   25.3980 C   0  0  1  0  0  0  0  0  0  0  0  0
  -25.3240  -31.6620   26.4010 C   0  0  0  0  0  1  0  0  0  0  0  0
  -27.0750  -30.4460   25.1080 C   0  0  0  0  0  1  0  0  0  0  0  0
  -27.6070  -32.6520   26.1010 C   0  0  0  0  0  1  0  0  0  0  0  0
  1  3  1  0
  2  1  1  0
  4  2  1  0
 11  4  1  6
  5 11  1  0
  5  7  1  0
  6 11  1  0
  6  7  1  0
  7 12  1  0
  8 14  1  0
  8  5  1  0
  9 51  1  0
  9  6  1  0
 10 13  1  0
 10  9  1  0
 10  8  1  0
 11  3  1  0
 15 14  1  0
 16 21  1  0
 17 18  1  0
 17 16  1  0
 19 18  1  0
 19 26  1  0
 19 20  1  0
 21 15  1  0
 21 20  1  0
 22 15  2  0
 23 24  2  0
 24 43  1  0
 25 24  1  0
 25 28  1  0
 26 23  1  0
 26 27  1  0
 27 25  2  0
 28 29  1  0
 29 30  2  0
 31 34  1  0
 31 30  1  0
 32 31  2  0
 33 32  1  0
 33 28  2  0
 34 35  1  0
 35 40  2  0
 35 36  1  0
 36 37  2  0
 37 38  1  0
 38 42  1  0
 39 38  2  0
 40 39  1  0
 41 40  1  0
 43 44  1  0
 44 47  1  0
 44 46  1  0
 45 43  2  0
 48 49  1  0
 48 23  1  0
 50 48  1  0
 51 52  1  0
 53 64  2  0
 54 52  1  0
 54 59  1  0
 55 63  1  0
 55 65  1  0
 56 62  1  0
 56 58  1  0
 57 63  1  0
 58 59  2  0
 58 57  1  0
 60 54  2  0
 61 60  1  0
 61 56  2  0
 62 55  1  0
 63 53  1  0
 65 67  2  0
 66 65  1  0
 68 66  1  0
 69 78  2  0
 69 74  1  0
 70 66  1  0
 70 74  1  0
 71 70  1  0
 72 73  1  0
 72 71  1  0
 73 69  1  0
 74 75  2  0
 75 76  1  0
 77 76  2  0
 78 77  1  0
 79 53  1  0
 79 80  1  0
 79 89  1  0
 80 83  1  0
 81 85  1  0
 81 80  1  0
 82 81  2  0
 85 84  1  0
 87 88  1  0
 87 85  1  0
 87 86  1  0
 89 92  1  1
 89 90  1  0
 91 89  1  0
M  ISO  4  14 100  15 100  51 101  52 101
M  END
>  <TORSDO>  (60) 
F 18

>  <SCORE>  (60) 
-15.730

>  <name>  (60) 
59

>  <ligand_id>  (60) 
59

>  <original_smiles>  (60) 
[H]c1c([H])c([H])c2c(c1[H])C([H])([H])C([H])([H])C([H])([H])C2([H])N([H])C(=O)C1([H])N(C(=O)C([H])(N([H])C(=O)C([H])(N([H])C([H])([H])[H])C([H])([H])[H])C(C([H])([H])[H])(C([H])([H])[H])C([H])([H])[H])C([H])([H])c2c([H])c(OC([H])([H])C3([H])C([H])(C([H])([H])[H])C([H])(C([H])([H])C(=O)N4C([H])([H])C([H])([H])C([H])([H])C([H])(n5nc(-c6c([H])c([H])c(Oc7c([H])c([H])c(F)c([H])c7F)c([H])c6[H])c(C(=O)N([H])[H])c5N([H])[H])C4([H])[H])C4([H])C([H])(C([H])([H])[H])C3([H])C43C([H])([H])C([H])([H])C([H])([H])C3([H])[H])c([H])c([H])c2C1([H])[H]

>  <smiles>  (60) 
[H]c1c([H])c([H])c2c(c1[H])C([H])([H])C([H])([H])C([H])([H])C2([H])N([H])C(=O)C1([H])N(C(=O)C([H])(N([H])C(=O)C([H])(N([H])C([H])([H])[H])C([H])([H])[H])C(C([H])([H])[H])(C([H])([H])[H])C([H])([H])[H])C([H])([H])c2c([H])c(OC([H])([H])C3([H])C([H])(C([H])([H])[H])C([H])(C([H])([H])C(=O)N4C([H])([H])C([H])([H])C([H])([H])C([H])(n5nc(-c6c([H])c([H])c(Oc7c([H])c([H])c(F)c([H])c7F)c([H])c6[H])c(C(=O)N([H])[H])c5N([H])[H])C4([H])[H])C4([H])C([H])(C([H])([H])[H])C3([H])C43C([H])([H])C([H])([H])C([H])([H])C3([H])[H])c([H])c([H])c2C1([H])[H]

$$$$
60:0:0
     RDKit          3D

 90 98  0  0  1  0  0  0  0  0999 V2000
  -30.7750  -18.5820   19.1620 C   0  0  0  0  0  2  0  0  0  0  0  0
  -30.7550  -20.0750   21.0910 C   0  0  0  0  0  2  0  0  0  0  0  0
  -31.6870  -19.4600   20.0250 C   0  0  0  0  0  3  0  0  0  0  0  0
  -29.5500  -18.3170   20.0370 C   0  0  0  0  0  3  0  0  0  0  0  0
  -29.3800  -19.8160   20.6590 N   0  0  0  0  0  0  0  0  0  0  0  0
  -32.4100  -20.4650   19.2240 N   0  0  0  0  0  4  0  0  0  0  0  0
  -31.7800  -21.0810   18.7440 H   0  0  0  0  0  0  0  0  0  0  0  0
  -32.9920  -20.0110   18.5410 H   0  0  0  0  0  0  0  0  0  0  0  0
  -33.0070  -21.0170   19.8150 H   0  0  0  0  0  0  0  0  0  0  0  0
  -29.7100  -16.7300   20.8260 C   0  0  0  0  0  2  0  0  0  0  0  0
  -30.4280  -15.2050   20.3920 C   0  0  0  0  0  0  0  0  0  0  0  0
  -30.4050  -12.7680   19.5240 C   0  0  0  0  0  2  0  0  0  0  0  0
  -29.5170  -12.6250   18.2610 C   0  0  0  0  0  2  0  0  0  0  0  0
  -28.0480  -12.3840   18.6520 C   0  0  0  0  0  2  0  0  0  0  0  0
  -27.5870  -13.3310   19.7870 C   0  0  0  0  0  3  0  0  0  0  0  0
  -28.6050  -13.4340   20.9410 C   0  0  0  0  0  2  0  0  0  0  0  0
  -29.8750  -13.9000   20.3650 N   0  0  0  0  0  0  0  0  0  0  0  0
  -31.6220  -15.2130   20.0570 O   0  0  0  0  0  0  0  0  0  0  0  0
  -25.1930  -13.8930   20.4670 C   0  0  0  0  0  0  0  0  0  0  0  0
  -24.1250  -13.1180   20.8220 C   0  0  0  0  0  0  0  0  0  0  0  0
  -24.5970  -11.7680   20.8230 C   0  0  0  0  0  0  0  0  0  0  0  0
  -26.2440  -13.0190   20.2610 N   0  0  0  0  0  0  0  0  0  0  0  0
  -25.8960  -11.7360   20.5450 N   0  0  0  0  0  0  0  0  0  0  0  0
  -23.8690  -10.5070   21.0160 C   0  0  0  0  0  0  0  0  0  0  0  0
  -24.2840   -9.5510   21.9690 C   0  0  0  0  0  3  0  0  0  0  0  0
  -23.5530   -8.3560   22.1500 C   0  0  0  0  0  3  0  0  0  0  0  0
  -22.3940   -8.1080   21.3780 C   0  0  0  0  0  0  0  0  0  0  0  0
  -21.9990   -9.0520   20.4140 C   0  0  0  0  0  3  0  0  0  0  0  0
  -22.7290  -10.2380   20.2310 C   0  0  0  0  0  3  0  0  0  0  0  0
  -21.6370   -6.9640   21.4650 O   0  0  0  0  0  0  0  0  0  0  0  0
  -21.5710   -6.2320   22.6220 C   0  0  0  0  0  0  0  0  0  0  0  0
  -21.1360   -6.8000   23.8390 C   0  0  0  0  0  3  0  0  0  0  0  0
  -21.0160   -5.9940   24.9890 C   0  0  0  0  0  3  0  0  0  0  0  0
  -21.3230   -4.6210   24.9230 C   0  0  0  0  0  0  0  0  0  0  0  0
  -21.7510   -4.0520   23.7100 C   0  0  0  0  0  3  0  0  0  0  0  0
  -21.8720   -4.8560   22.5630 C   0  0  0  0  0  0  0  0  0  0  0  0
  -22.2650   -4.2990   21.3920 F   0  0  0  0  0  0  0  0  0  0  0  0
  -21.2010   -3.8450   26.0250 F   0  0  0  0  0  0  0  0  0  0  0  0
  -22.7200  -13.5920   21.0470 C   0  0  0  0  0  0  0  0  0  0  0  0
  -21.9720  -12.9070   21.9040 N   0  0  0  0  0  0  0  0  0  0  0  0
  -22.2950  -14.6080   20.4970 O   0  0  0  0  0  0  0  0  0  0  0  0
  -22.3320  -12.0880   22.3720 H   0  0  0  0  0  0  0  0  0  0  0  0
  -21.0270  -13.2070   22.0960 H   0  0  0  0  0  0  0  0  0  0  0  0
  -25.3550  -15.2630   20.2740 N   0  0  0  0  0  0  0  0  0  0  0  0
  -24.5870  -15.9180   20.3680 H   0  0  0  0  0  0  0  0  0  0  0  0
  -26.2140  -15.7040   19.9680 H   0  0  0  0  0  0  0  0  0  0  0  0
  -28.7790  -21.1900   20.0220 C   0  0  0  0  0  2  0  0  0  0  0  0
  -28.8330  -22.8830   20.5680 C   0  0  0  0  0  3  0  0  0  0  0  0
  -28.0000  -24.3580   20.0310 C   0  0  0  0  0  3  0  0  0  0  0  0
  -28.2020  -25.9460   20.3180 O   0  0  0  0  0  0  0  0  0  0  0  0
  -24.6220  -31.8530   23.2100 C   0  0  0  0  0  0  0  0  0  0  0  0
  -27.1840  -27.0130   20.2150 C   0  0  0  0  0  0  0  0  0  0  0  0
  -23.4270  -30.4520   21.5730 C   0  0  0  0  0  3  0  0  0  0  0  0
  -24.8790  -28.8520   20.1540 C   0  0  0  0  0  0  0  0  0  0  0  0
  -25.9890  -30.6810   21.4220 C   0  0  0  0  0  2  0  0  0  0  0  0
  -26.0620  -29.2730   20.7740 C   0  0  0  0  0  0  0  0  0  0  0  0
  -27.2100  -28.3720   20.7840 C   0  0  0  0  0  3  0  0  0  0  0  0
  -25.9770  -26.7330   19.5380 C   0  0  0  0  0  3  0  0  0  0  0  0
  -24.8580  -27.6020   19.5160 C   0  0  0  0  0  3  0  0  0  0  0  0
  -23.6550  -29.7650   20.1980 C   0  0  0  0  0  2  0  0  0  0  0  0
  -24.7010  -31.0210   22.1220 N   0  0  0  0  0  0  0  0  0  0  0  0
  -23.5340  -32.1420   23.7320 O   0  0  0  0  0  0  0  0  0  0  0  0
  -22.7360  -29.4570   22.5410 C   0  0  0  0  0  0  0  0  0  0  0  0
  -21.4070  -29.2910   22.4160 N   0  0  0  0  0  0  0  0  0  0  0  0
  -23.4030  -28.8330   23.3700 O   0  0  0  0  0  0  0  0  0  0  0  0
  -20.9220  -29.8430   21.7220 H   0  0  0  0  0  0  0  0  0  0  0  0
  -18.0250  -28.0850   22.9200 C   0  0  0  0  0  0  0  0  0  0  0  0
  -20.5840  -28.3560   23.1900 C   0  0  0  0  0  3  0  0  0  0  0  0
  -20.6890  -26.9210   22.6240 C   0  0  0  0  0  2  0  0  0  0  0  0
  -19.5910  -26.5910   21.6090 C   0  0  0  0  0  2  0  0  0  0  0  0
  -18.2070  -26.7340   22.2480 C   0  0  0  0  0  2  0  0  0  0  0  0
  -19.1400  -28.8540   23.3470 C   0  0  0  0  0  0  0  0  0  0  0  0
  -18.9140  -30.1150   23.9390 C   0  0  0  0  0  3  0  0  0  0  0  0
  -17.6070  -30.6100   24.1040 C   0  0  0  0  0  3  0  0  0  0  0  0
  -16.5070  -29.8400   23.6900 C   0  0  0  0  0  3  0  0  0  0  0  0
  -16.7160  -28.5800   23.1040 C   0  0  0  0  0  3  0  0  0  0  0  0
  -25.8960  -32.4950   23.8400 C   0  0  0  0  0  3  0  0  0  0  0  0
  -25.5810  -33.8940   24.1710 N   0  0  0  0  0  0  0  0  0  0  0  0
  -25.9120  -34.9550   23.4220 C   0  0  0  0  0  0  0  0  0  0  0  0
  -26.5800  -34.8560   22.3880 O   0  0  0  0  0  0  0  0  0  0  0  0
  -24.9870  -34.0450   24.9730 H   0  0  0  0  0  0  0  0  0  0  0  0
  -24.1830  -36.7550   23.0880 C   0  0  0  0  0  1  0  0  0  0  0  0
  -25.4290  -36.3430   23.8880 C   0  0  0  0  0  3  0  0  0  0  0  0
  -27.5690  -37.2260   24.7090 C   0  0  0  0  0  1  0  0  0  0  0  0
  -26.4610  -37.3960   23.7740 N   0  0  0  0  0  0  0  0  0  0  0  0
  -26.0560  -38.3170   23.9250 H   0  0  0  0  0  0  0  0  0  0  0  0
  -26.4030  -31.7300   25.1240 C   0  0  1  0  0  0  0  0  0  0  0  0
  -25.3040  -31.5040   26.1890 C   0  0  0  0  0  1  0  0  0  0  0  0
  -26.9820  -30.3460   24.7500 C   0  0  0  0  0  1  0  0  0  0  0  0
  -27.5520  -32.5240   25.7880 C   0  0  0  0  0  1  0  0  0  0  0  0
  1  3  1  0
  1  4  1  0
  3  6  1  0
  3  2  1  0
  4  5  1  0
  4 10  1  0
  5  2  1  0
  6  9  1  0
  7  6  1  0
  8  6  1  0
 11 10  1  0
 12 17  1  0
 13 14  1  0
 13 12  1  0
 15 14  1  0
 15 22  1  0
 15 16  1  0
 17 11  1  0
 17 16  1  0
 18 11  2  0
 19 20  2  0
 20 21  1  0
 20 39  1  0
 21 24  1  0
 22 19  1  0
 22 23  1  0
 23 21  2  0
 24 25  1  0
 25 26  2  0
 27 30  1  0
 27 26  1  0
 28 27  2  0
 29 28  1  0
 29 24  2  0
 30 31  1  0
 31 32  1  0
 32 33  2  0
 34 33  1  0
 34 38  1  0
 35 34  2  0
 36 31  2  0
 36 35  1  0
 37 36  1  0
 39 40  1  0
 40 43  1  0
 40 42  1  0
 41 39  2  0
 44 45  1  0
 44 19  1  0
 46 44  1  0
 47 48  1  0
 47  5  1  0
 49 50  1  0
 49 48  2  0
 51 62  2  0
 52 50  1  0
 52 57  1  0
 53 61  1  0
 53 63  1  0
 54 60  1  0
 54 56  1  0
 55 61  1  0
 56 57  2  0
 56 55  1  0
 58 52  2  0
 59 58  1  0
 59 54  2  0
 60 53  1  0
 61 51  1  0
 63 65  2  0
 64 63  1  0
 66 64  1  0
 67 76  2  0
 67 72  1  0
 68 64  1  0
 68 72  1  0
 69 68  1  0
 70 71  1  0
 70 69  1  0
 71 67  1  0
 72 73  2  0
 73 74  1  0
 75 74  2  0
 76 75  1  0
 77 51  1  0
 77 78  1  0
 77 87  1  0
 78 81  1  0
 79 83  1  0
 79 78  1  0
 80 79  2  0
 83 82  1  0
 85 83  1  0
 85 86  1  0
 85 84  1  0
 87 90  1  1
 87 88  1  0
 89 87  1  0
M  ISO  4  10 100  11 100  49 101  50 101
M  END
>  <TORSDO>  (61) 
F 21

>  <SCORE>  (61) 
-15.587

>  <name>  (61) 
60

>  <ligand_id>  (61) 
60

>  <original_smiles>  (61) 
[H]c1c([H])c([H])c2c(c1[H])C([H])([H])C([H])([H])C([H])([H])C2([H])N([H])C(=O)C1([H])N(C(=O)C([H])(N([H])C(=O)C([H])(N([H])C([H])([H])[H])C([H])([H])[H])C(C([H])([H])[H])(C([H])([H])[H])C([H])([H])[H])C([H])([H])c2c([H])c(OC([H])([H])C([H])([H])C([H])([H])N3C([H])([H])C([H])([N+]([H])([H])[H])C([H])([H])C3([H])C([H])([H])C(=O)N3C([H])([H])C([H])([H])C([H])([H])C([H])(n4nc(-c5c([H])c([H])c(Oc6c([H])c([H])c(F)c([H])c6F)c([H])c5[H])c(C(=O)N([H])[H])c4N([H])[H])C3([H])[H])c([H])c([H])c2C1([H])[H]

>  <smiles>  (61) 
[H]c1c([H])c([H])c2c(c1[H])C([H])([H])C([H])([H])C([H])([H])C2([H])N([H])C(=O)C1([H])N(C(=O)C([H])(N([H])C(=O)C([H])(N([H])C([H])([H])[H])C([H])([H])[H])C(C([H])([H])[H])(C([H])([H])[H])C([H])([H])[H])C([H])([H])c2c([H])c(OC([H])([H])C([H])([H])C([H])([H])N3C([H])([H])C([H])([N+]([H])([H])[H])C([H])([H])C3([H])C([H])([H])C(=O)N3C([H])([H])C([H])([H])C([H])([H])C([H])(n4nc(-c5c([H])c([H])c(Oc6c([H])c([H])c(F)c([H])c6F)c([H])c5[H])c(C(=O)N([H])[H])c4N([H])[H])C3([H])[H])c([H])c([H])c2C1([H])[H]

$$$$
61:0:0
     RDKit          3D

 86 93  0  0  1  0  0  0  0  0999 V2000
  -27.4650  -22.5800   21.6710 C   0  0  0  0  0  1  0  0  0  0  0  0
  -28.5960  -22.8770   20.6660 C   0  0  0  0  0  3  0  0  0  0  0  0
  -30.3470  -21.6570   19.2530 C   0  0  0  0  0  1  0  0  0  0  0  0
  -29.0600  -21.4500   19.9560 N   0  0  1  0  0  4  0  0  0  0  0  0
  -28.3980  -21.3390   19.2010 H   0  0  0  0  0  0  0  0  0  0  0  0
  -29.0590  -19.9400   20.6350 C   0  0  0  0  0  3  0  0  0  0  0  0
  -29.7840  -18.4190   20.0550 C   0  0  0  0  0  3  0  0  0  0  0  0
  -29.6140  -16.7350   20.6050 C   0  0  0  0  0  2  0  0  0  0  0  0
  -30.3990  -15.2430   20.2010 C   0  0  0  0  0  0  0  0  0  0  0  0
  -30.3480  -12.8240   19.2860 C   0  0  0  0  0  2  0  0  0  0  0  0
  -29.4050  -12.6880   18.0620 C   0  0  0  0  0  2  0  0  0  0  0  0
  -27.9560  -12.4350   18.5160 C   0  0  0  0  0  2  0  0  0  0  0  0
  -27.5370  -13.3790   19.6690 C   0  0  0  0  0  3  0  0  0  0  0  0
  -28.6010  -13.4680   20.7840 C   0  0  0  0  0  2  0  0  0  0  0  0
  -29.8490  -13.9370   20.1660 N   0  0  0  0  0  0  0  0  0  0  0  0
  -31.5870  -15.2720   19.8490 O   0  0  0  0  0  0  0  0  0  0  0  0
  -25.1720  -13.9470   20.4400 C   0  0  0  0  0  0  0  0  0  0  0  0
  -24.1120  -13.1730   20.8260 C   0  0  0  0  0  0  0  0  0  0  0  0
  -24.5800  -11.8220   20.7980 C   0  0  0  0  0  0  0  0  0  0  0  0
  -26.2110  -13.0700   20.1880 N   0  0  0  0  0  0  0  0  0  0  0  0
  -25.8670  -11.7870   20.4730 N   0  0  0  0  0  0  0  0  0  0  0  0
  -23.8550  -10.5600   21.0010 C   0  0  0  0  0  0  0  0  0  0  0  0
  -24.3070   -9.5890   21.9210 C   0  0  0  0  0  3  0  0  0  0  0  0
  -23.5810   -8.3930   22.1140 C   0  0  0  0  0  3  0  0  0  0  0  0
  -22.3870   -8.1620   21.3900 C   0  0  0  0  0  0  0  0  0  0  0  0
  -21.9530   -9.1230   20.4590 C   0  0  0  0  0  3  0  0  0  0  0  0
  -22.6800  -10.3090   20.2640 C   0  0  0  0  0  3  0  0  0  0  0  0
  -21.6290   -7.0210   21.4950 O   0  0  0  0  0  0  0  0  0  0  0  0
  -21.6240   -6.2640   22.6390 C   0  0  0  0  0  0  0  0  0  0  0  0
  -21.2680   -6.8080   23.8930 C   0  0  0  0  0  3  0  0  0  0  0  0
  -21.2100   -5.9760   25.0300 C   0  0  0  0  0  3  0  0  0  0  0  0
  -21.4930   -4.6030   24.9140 C   0  0  0  0  0  0  0  0  0  0  0  0
  -21.8420   -4.0580   23.6650 C   0  0  0  0  0  3  0  0  0  0  0  0
  -21.9030   -4.8860   22.5310 C   0  0  0  0  0  0  0  0  0  0  0  0
  -22.2190   -4.3520   21.3260 F   0  0  0  0  0  0  0  0  0  0  0  0
  -21.4290   -3.8030   26.0050 F   0  0  0  0  0  0  0  0  0  0  0  0
  -22.7180  -13.6510   21.1080 C   0  0  0  0  0  0  0  0  0  0  0  0
  -21.9980  -12.9600   21.9860 N   0  0  0  0  0  0  0  0  0  0  0  0
  -22.2770  -14.6740   20.5840 O   0  0  0  0  0  0  0  0  0  0  0  0
  -22.3680  -12.1310   22.4260 H   0  0  0  0  0  0  0  0  0  0  0  0
  -21.0650  -13.2640   22.2200 H   0  0  0  0  0  0  0  0  0  0  0  0
  -25.3340  -15.3170   20.2530 N   0  0  0  0  0  0  0  0  0  0  0  0
  -24.5710  -15.9760   20.3720 H   0  0  0  0  0  0  0  0  0  0  0  0
  -26.1780  -15.7480   19.9000 H   0  0  0  0  0  0  0  0  0  0  0  0
  -28.1800  -24.4140   19.8710 C   0  0  0  0  0  2  0  0  0  0  0  0
  -28.1990  -25.9830   20.3240 O   0  0  0  0  0  0  0  0  0  0  0  0
  -24.6310  -31.8830   23.2150 C   0  0  0  0  0  0  0  0  0  0  0  0
  -27.1700  -27.0380   20.2000 C   0  0  0  0  0  0  0  0  0  0  0  0
  -23.4210  -30.4830   21.5870 C   0  0  0  0  0  3  0  0  0  0  0  0
  -24.8620  -28.8860   20.1540 C   0  0  0  0  0  0  0  0  0  0  0  0
  -25.9830  -30.7130   21.4120 C   0  0  0  0  0  2  0  0  0  0  0  0
  -26.0490  -29.3030   20.7670 C   0  0  0  0  0  0  0  0  0  0  0  0
  -27.1950  -28.3980   20.7720 C   0  0  0  0  0  3  0  0  0  0  0  0
  -25.9560  -26.7630   19.5290 C   0  0  0  0  0  3  0  0  0  0  0  0
  -24.8390  -27.6360   19.5160 C   0  0  0  0  0  3  0  0  0  0  0  0
  -23.6380  -29.7990   20.2080 C   0  0  0  0  0  2  0  0  0  0  0  0
  -24.7010  -31.0510   22.1270 N   0  0  0  0  0  0  0  0  0  0  0  0
  -23.5460  -32.1710   23.7460 O   0  0  0  0  0  0  0  0  0  0  0  0
  -22.7410  -29.4830   22.5590 C   0  0  0  0  0  0  0  0  0  0  0  0
  -21.4100  -29.3120   22.4430 N   0  0  0  0  0  0  0  0  0  0  0  0
  -23.4140  -28.8630   23.3860 O   0  0  0  0  0  0  0  0  0  0  0  0
  -20.9170  -29.8690   21.7590 H   0  0  0  0  0  0  0  0  0  0  0  0
  -18.0400  -28.0840   22.9540 C   0  0  0  0  0  0  0  0  0  0  0  0
  -20.5950  -28.3760   23.2250 C   0  0  0  0  0  3  0  0  0  0  0  0
  -20.7110  -26.9380   22.6700 C   0  0  0  0  0  2  0  0  0  0  0  0
  -19.6160  -26.5950   21.6540 C   0  0  0  0  0  2  0  0  0  0  0  0
  -18.2310  -26.7300   22.2930 C   0  0  0  0  0  2  0  0  0  0  0  0
  -19.1500  -28.8620   23.3790 C   0  0  0  0  0  0  0  0  0  0  0  0
  -18.9120  -30.1280   23.9590 C   0  0  0  0  0  3  0  0  0  0  0  0
  -17.6000  -30.6120   24.1190 C   0  0  0  0  0  3  0  0  0  0  0  0
  -16.5070  -29.8310   23.7110 C   0  0  0  0  0  3  0  0  0  0  0  0
  -16.7270  -28.5680   23.1320 C   0  0  0  0  0  3  0  0  0  0  0  0
  -25.9070  -32.5270   23.8380 C   0  0  0  0  0  3  0  0  0  0  0  0
  -25.5920  -33.9280   24.1780 N   0  0  0  0  0  0  0  0  0  0  0  0
  -25.9170  -34.9880   23.4270 C   0  0  0  0  0  0  0  0  0  0  0  0
  -26.5760  -34.8920   22.3890 O   0  0  0  0  0  0  0  0  0  0  0  0
  -25.0080  -34.0770   24.9870 H   0  0  0  0  0  0  0  0  0  0  0  0
  -24.1790  -36.7790   23.1050 C   0  0  0  0  0  1  0  0  0  0  0  0
  -25.4330  -36.3740   23.8980 C   0  0  0  0  0  3  0  0  0  0  0  0
  -27.5790  -37.2580   24.6980 C   0  0  0  0  0  1  0  0  0  0  0  0
  -26.4610  -37.4310   23.7750 N   0  0  0  0  0  0  0  0  0  0  0  0
  -26.0560  -38.3490   23.9370 H   0  0  0  0  0  0  0  0  0  0  0  0
  -26.4250  -31.7600   25.1160 C   0  0  1  0  0  0  0  0  0  0  0  0
  -25.3360  -31.5300   26.1900 C   0  0  0  0  0  1  0  0  0  0  0  0
  -27.0020  -30.3790   24.7320 C   0  0  0  0  0  1  0  0  0  0  0  0
  -27.5860  -32.5490   25.7670 C   0  0  0  0  0  1  0  0  0  0  0  0
  2  1  1  0
  3  4  1  0
  4  6  1  0
  4  2  1  0
  4  5  1  6
  7  8  1  0
  7  6  2  0
  9  8  1  0
 10 15  1  0
 11 12  1  0
 11 10  1  0
 13 12  1  0
 13 20  1  0
 13 14  1  0
 15  9  1  0
 15 14  1  0
 16  9  2  0
 17 18  2  0
 18 37  1  0
 19 18  1  0
 19 22  1  0
 20 17  1  0
 20 21  1  0
 21 19  2  0
 22 23  1  0
 23 24  2  0
 25 28  1  0
 25 24  1  0
 26 25  2  0
 27 26  1  0
 27 22  2  0
 28 29  1  0
 29 30  1  0
 30 31  2  0
 32 31  1  0
 32 36  1  0
 33 32  2  0
 34 29  2  0
 34 33  1  0
 35 34  1  0
 37 38  1  0
 38 41  1  0
 38 40  1  0
 39 37  2  0
 42 43  1  0
 42 17  1  0
 44 42  1  0
 45 46  1  0
 45  2  1  0
 47 58  2  0
 48 46  1  0
 48 53  1  0
 49 57  1  0
 49 59  1  0
 50 56  1  0
 50 52  1  0
 51 57  1  0
 52 53  2  0
 52 51  1  0
 54 48  2  0
 55 54  1  0
 55 50  2  0
 56 49  1  0
 57 47  1  0
 59 61  2  0
 60 59  1  0
 62 60  1  0
 63 72  2  0
 63 68  1  0
 64 60  1  0
 64 68  1  0
 65 64  1  0
 66 67  1  0
 66 65  1  0
 67 63  1  0
 68 69  2  0
 69 70  1  0
 71 70  2  0
 72 71  1  0
 73 47  1  0
 73 74  1  0
 73 83  1  0
 74 77  1  0
 75 79  1  0
 75 74  1  0
 76 75  2  0
 79 78  1  0
 81 79  1  0
 81 82  1  0
 81 80  1  0
 83 86  1  1
 83 84  1  0
 85 83  1  0
M  ISO  4   8 100   9 100  45 101  46 101
M  END
>  <TORSDO>  (62) 
F 21

>  <SCORE>  (62) 
-15.176

>  <name>  (62) 
61

>  <ligand_id>  (62) 
61

>  <original_smiles>  (62) 
[H]c1c([H])c([H])c2c(c1[H])C([H])([H])C([H])([H])C([H])([H])C2([H])N([H])C(=O)C1([H])N(C(=O)C([H])(N([H])C(=O)C([H])(N([H])C([H])([H])[H])C([H])([H])[H])C(C([H])([H])[H])(C([H])([H])[H])C([H])([H])[H])C([H])([H])c2c([H])c(OC([H])([H])C([H])(C([H])([H])[H])[N+]([H])(C([H])([H])[H])C([H])([H])C([H])([H])C([H])([H])C(=O)N3C([H])([H])C([H])([H])C([H])([H])C([H])(n4nc(-c5c([H])c([H])c(Oc6c([H])c([H])c(F)c([H])c6F)c([H])c5[H])c(C(=O)N([H])[H])c4N([H])[H])C3([H])[H])c([H])c([H])c2C1([H])[H]

>  <smiles>  (62) 
[H]c1c([H])c([H])c2c(c1[H])C([H])([H])C([H])([H])C([H])([H])C2([H])N([H])C(=O)C1([H])N(C(=O)C([H])(N([H])C(=O)C([H])(N([H])C([H])([H])[H])C([H])([H])[H])C(C([H])([H])[H])(C([H])([H])[H])C([H])([H])[H])C([H])([H])c2c([H])c(OC([H])([H])C([H])(C([H])([H])[H])[N+]([H])(C([H])([H])[H])C([H])([H])C([H])([H])C([H])([H])C(=O)N3C([H])([H])C([H])([H])C([H])([H])C([H])(n4nc(-c5c([H])c([H])c(Oc6c([H])c([H])c(F)c([H])c6F)c([H])c5[H])c(C(=O)N([H])[H])c4N([H])[H])C3([H])[H])c([H])c([H])c2C1([H])[H]

$$$$
62:0:0
     RDKit          3D

 89 98  0  0  1  0  0  0  0  0999 V2000
  -27.5080  -21.2500   21.0760 C   0  0  0  0  0  2  0  0  0  0  0  0
  -28.0190  -19.9040   20.3470 C   0  0  0  0  0  2  0  0  0  0  0  0
  -29.7680  -22.1940   19.6210 C   0  0  0  0  0  2  0  0  0  0  0  0
  -28.5330  -22.4000   21.5250 C   0  0  0  0  0  3  0  0  0  0  0  0
  -30.2150  -20.9470   20.6160 C   0  0  0  0  0  3  0  0  0  0  0  0
  -29.4950  -19.4680   20.6390 C   0  0  0  0  0  3  0  0  0  0  0  0
  -29.0690  -23.4060   20.4430 C   0  0  0  0  0  3  0  0  0  0  0  0
  -29.7980  -21.6170   21.9570 C   0  0  0  0  0  3  0  0  0  0  0  0
  -30.9280  -22.4230   22.6330 C   0  0  0  0  0  1  0  0  0  0  0  0
  -30.1560  -18.0230   20.0370 C   0  0  0  0  0  3  0  0  0  0  0  0
  -29.8240  -16.4470   20.5660 C   0  0  0  0  0  3  0  0  0  0  0  0
  -30.6210  -15.0400   20.1570 C   0  0  0  0  0  0  0  0  0  0  0  0
  -30.4890  -12.6930   19.1840 C   0  0  0  0  0  2  0  0  0  0  0  0
  -29.5250  -12.6830   17.9730 C   0  0  0  0  0  2  0  0  0  0  0  0
  -28.0700  -12.4740   18.4360 C   0  0  0  0  0  2  0  0  0  0  0  0
  -27.6980  -13.3810   19.6370 C   0  0  0  0  0  3  0  0  0  0  0  0
  -28.7790  -13.3600   20.7390 C   0  0  0  0  0  2  0  0  0  0  0  0
  -30.0470  -13.7670   20.1200 N   0  0  0  0  0  0  0  0  0  0  0  0
  -31.7930  -15.1190   19.7740 O   0  0  0  0  0  0  0  0  0  0  0  0
  -25.3350  -13.9590   20.4370 C   0  0  0  0  0  0  0  0  0  0  0  0
  -24.2770  -13.1830   20.8220 C   0  0  0  0  0  0  0  0  0  0  0  0
  -24.7370  -11.8310   20.7650 C   0  0  0  0  0  0  0  0  0  0  0  0
  -26.3700  -13.0810   20.1620 N   0  0  0  0  0  0  0  0  0  0  0  0
  -26.0210  -11.7940   20.4250 N   0  0  0  0  0  0  0  0  0  0  0  0
  -24.0110  -10.5690   20.9560 C   0  0  0  0  0  0  0  0  0  0  0  0
  -24.4230   -9.6150   21.9130 C   0  0  0  0  0  3  0  0  0  0  0  0
  -23.6950   -8.4190   22.0930 C   0  0  0  0  0  3  0  0  0  0  0  0
  -22.5390   -8.1670   21.3140 C   0  0  0  0  0  0  0  0  0  0  0  0
  -22.1460   -9.1100   20.3470 C   0  0  0  0  0  3  0  0  0  0  0  0
  -22.8760  -10.2960   20.1670 C   0  0  0  0  0  3  0  0  0  0  0  0
  -21.7850   -7.0220   21.4000 O   0  0  0  0  0  0  0  0  0  0  0  0
  -21.6680   -6.3250   22.5760 C   0  0  0  0  0  0  0  0  0  0  0  0
  -21.1290   -6.9120   23.7400 C   0  0  0  0  0  3  0  0  0  0  0  0
  -20.9630   -6.1380   24.9070 C   0  0  0  0  0  3  0  0  0  0  0  0
  -21.3260   -4.7790   24.9090 C   0  0  0  0  0  0  0  0  0  0  0  0
  -21.8590   -4.1910   23.7470 C   0  0  0  0  0  3  0  0  0  0  0  0
  -22.0270   -4.9620   22.5840 C   0  0  0  0  0  0  0  0  0  0  0  0
  -22.5210   -4.3840   21.4620 F   0  0  0  0  0  0  0  0  0  0  0  0
  -21.1600   -4.0330   26.0260 F   0  0  0  0  0  0  0  0  0  0  0  0
  -22.8880  -13.6610   21.1300 C   0  0  0  0  0  0  0  0  0  0  0  0
  -22.1750  -12.9530   21.9990 N   0  0  0  0  0  0  0  0  0  0  0  0
  -22.4450  -14.6950   20.6350 O   0  0  0  0  0  0  0  0  0  0  0  0
  -22.5480  -12.1140   22.4190 H   0  0  0  0  0  0  0  0  0  0  0  0
  -21.2440  -13.2550   22.2490 H   0  0  0  0  0  0  0  0  0  0  0  0
  -25.4990  -15.3310   20.2740 N   0  0  0  0  0  0  0  0  0  0  0  0
  -24.7370  -15.9860   20.4170 H   0  0  0  0  0  0  0  0  0  0  0  0
  -26.3440  -15.7760   19.9410 H   0  0  0  0  0  0  0  0  0  0  0  0
  -28.1560  -24.7160   19.8800 C   0  0  0  0  0  2  0  0  0  0  0  0
  -28.3360  -26.2330   20.2200 O   0  0  0  0  0  0  0  0  0  0  0  0
  -24.6100  -31.8760   23.1540 C   0  0  0  0  0  0  0  0  0  0  0  0
  -27.2700  -27.2040   20.1250 C   0  0  0  0  0  0  0  0  0  0  0  0
  -23.4440  -30.4820   21.4880 C   0  0  0  0  0  3  0  0  0  0  0  0
  -24.9250  -28.9320   20.0660 C   0  0  0  0  0  0  0  0  0  0  0  0
  -25.9970  -30.7680   21.3610 C   0  0  0  0  0  2  0  0  0  0  0  0
  -26.0910  -29.3820   20.6990 C   0  0  0  0  0  0  0  0  0  0  0  0
  -27.2620  -28.5350   20.7120 C   0  0  0  0  0  3  0  0  0  0  0  0
  -26.0800  -26.8590   19.4460 C   0  0  0  0  0  3  0  0  0  0  0  0
  -24.9340  -27.6840   19.4240 C   0  0  0  0  0  3  0  0  0  0  0  0
  -23.6900  -29.8180   20.1060 C   0  0  0  0  0  2  0  0  0  0  0  0
  -24.7030  -31.0650   22.0560 N   0  0  0  0  0  0  0  0  0  0  0  0
  -23.5140  -32.1460   23.6700 O   0  0  0  0  0  0  0  0  0  0  0  0
  -22.7610  -29.4620   22.4340 C   0  0  0  0  0  0  0  0  0  0  0  0
  -21.4330  -29.2980   22.3050 N   0  0  0  0  0  0  0  0  0  0  0  0
  -23.4310  -28.8210   23.2480 O   0  0  0  0  0  0  0  0  0  0  0  0
  -20.9500  -29.8660   21.6230 H   0  0  0  0  0  0  0  0  0  0  0  0
  -18.0410  -28.1330   22.8170 C   0  0  0  0  0  0  0  0  0  0  0  0
  -20.6060  -28.3540   23.0620 C   0  0  0  0  0  3  0  0  0  0  0  0
  -20.6820  -26.9350   22.4510 C   0  0  0  0  0  2  0  0  0  0  0  0
  -19.5650  -26.6540   21.4410 C   0  0  0  0  0  2  0  0  0  0  0  0
  -18.1920  -26.8020   22.1020 C   0  0  0  0  0  2  0  0  0  0  0  0
  -19.1750  -28.8700   23.2530 C   0  0  0  0  0  0  0  0  0  0  0  0
  -18.9780  -30.1180   23.8840 C   0  0  0  0  0  3  0  0  0  0  0  0
  -17.6820  -30.6290   24.0800 C   0  0  0  0  0  3  0  0  0  0  0  0
  -16.5630  -29.8920   23.6570 C   0  0  0  0  0  3  0  0  0  0  0  0
  -16.7430  -28.6450   23.0320 C   0  0  0  0  0  3  0  0  0  0  0  0
  -25.8730  -32.5170   23.8030 C   0  0  0  0  0  3  0  0  0  0  0  0
  -26.3780  -31.7390   25.0800 C   0  0  1  0  0  0  0  0  0  0  0  0
  -25.2710  -31.4790   26.1280 C   0  0  0  0  0  1  0  0  0  0  0  0
  -26.9830  -30.3720   24.6870 C   0  0  0  0  0  1  0  0  0  0  0  0
  -27.5080  -32.5400   25.7690 C   0  0  0  0  0  1  0  0  0  0  0  0
  -25.5420  -33.9090   24.1500 N   0  0  0  0  0  0  0  0  0  0  0  0
  -25.8530  -34.9780   23.4060 C   0  0  0  0  0  0  0  0  0  0  0  0
  -26.5160  -34.8980   22.3690 O   0  0  0  0  0  0  0  0  0  0  0  0
  -24.9510  -34.0440   24.9580 H   0  0  0  0  0  0  0  0  0  0  0  0
  -24.0930  -36.7510   23.0940 C   0  0  0  0  0  1  0  0  0  0  0  0
  -25.3490  -36.3540   23.8870 C   0  0  0  0  0  3  0  0  0  0  0  0
  -27.4740  -37.2670   24.7140 C   0  0  0  0  0  1  0  0  0  0  0  0
  -26.3650  -37.4250   23.7780 N   0  0  0  0  0  0  0  0  0  0  0  0
  -25.9450  -38.3370   23.9340 H   0  0  0  0  0  0  0  0  0  0  0  0
  2  6  1  0
  2  1  1  0
  3  7  1  0
  4  1  1  0
  4  8  1  0
  5  3  1  0
  5  6  1  0
  5  8  1  0
  6 10  1  0
  7 48  1  0
  7  4  1  0
  8  9  1  0
 10 11  2  0
 12 11  1  0
 13 18  1  0
 14 15  1  0
 14 13  1  0
 16 15  1  0
 16 23  1  0
 16 17  1  0
 18 12  1  0
 18 17  1  0
 19 12  2  0
 20 21  2  0
 21 40  1  0
 22 21  1  0
 22 25  1  0
 23 24  1  0
 23 20  1  0
 24 22  2  0
 25 26  1  0
 26 27  2  0
 28 31  1  0
 28 27  1  0
 29 28  2  0
 30 29  1  0
 30 25  2  0
 31 32  1  0
 32 37  2  0
 32 33  1  0
 33 34  2  0
 34 35  1  0
 35 39  1  0
 36 35  2  0
 37 36  1  0
 38 37  1  0
 40 41  1  0
 41 44  1  0
 41 43  1  0
 42 40  2  0
 45 46  1  0
 45 20  1  0
 47 45  1  0
 48 49  1  0
 50 61  2  0
 51 49  1  0
 51 56  1  0
 52 60  1  0
 52 62  1  0
 53 59  1  0
 53 55  1  0
 54 60  1  0
 55 56  2  0
 55 54  1  0
 57 51  2  0
 58 57  1  0
 58 53  2  0
 59 52  1  0
 60 50  1  0
 62 64  2  0
 63 62  1  0
 65 63  1  0
 66 75  2  0
 66 71  1  0
 67 63  1  0
 67 71  1  0
 68 67  1  0
 69 70  1  0
 69 68  1  0
 70 66  1  0
 71 72  2  0
 72 73  1  0
 74 73  2  0
 75 74  1  0
 76 50  1  0
 76 81  1  0
 76 77  1  0
 77 80  1  1
 77 78  1  0
 79 77  1  0
 81 84  1  0
 82 86  1  0
 82 81  1  0
 83 82  2  0
 86 85  1  0
 88 86  1  0
 88 89  1  0
 88 87  1  0
M  ISO  4  11 100  12 100  48 101  49 101
M  END
>  <TORSDO>  (63) 
F 19

>  <SCORE>  (63) 
-14.822

>  <name>  (63) 
62

>  <ligand_id>  (63) 
62

>  <original_smiles>  (63) 
[H]c1c([H])c([H])c2c(c1[H])C([H])([H])C([H])([H])C([H])([H])C2([H])N([H])C(=O)C1([H])N(C(=O)C([H])(N([H])C(=O)C([H])(N([H])C([H])([H])[H])C([H])([H])[H])C(C([H])([H])[H])(C([H])([H])[H])C([H])([H])[H])C([H])([H])c2c([H])c(OC([H])([H])C3([H])C([H])([H])C4([H])C([H])(C([H])([H])C([H])([H])C(=O)N5C([H])([H])C([H])([H])C([H])([H])C([H])(n6nc(-c7c([H])c([H])c(Oc8c([H])c([H])c(F)c([H])c8F)c([H])c7[H])c(C(=O)N([H])[H])c6N([H])[H])C5([H])[H])C([H])([H])C([H])([H])C3([H])C4([H])C([H])([H])[H])c([H])c([H])c2C1([H])[H]

>  <smiles>  (63) 
[H]c1c([H])c([H])c2c(c1[H])C([H])([H])C([H])([H])C([H])([H])C2([H])N([H])C(=O)C1([H])N(C(=O)C([H])(N([H])C(=O)C([H])(N([H])C([H])([H])[H])C([H])([H])[H])C(C([H])([H])[H])(C([H])([H])[H])C([H])([H])[H])C([H])([H])c2c([H])c(OC([H])([H])C3([H])C([H])([H])C4([H])C([H])(C([H])([H])C([H])([H])C(=O)N5C([H])([H])C([H])([H])C([H])([H])C([H])(n6nc(-c7c([H])c([H])c(Oc8c([H])c([H])c(F)c([H])c8F)c([H])c7[H])c(C(=O)N([H])[H])c6N([H])[H])C5([H])[H])C([H])([H])C([H])([H])C3([H])C4([H])C([H])([H])[H])c([H])c([H])c2C1([H])[H]

$$$$
63:0:0
     RDKit          3D

 87 93  0  0  1  0  0  0  0  0999 V2000
  -32.9820  -21.1230   20.1360 C   0  0  0  0  0  2  0  0  0  0  0  0
  -32.4700  -21.1790   18.6820 C   0  0  0  0  0  2  0  0  0  0  0  0
  -31.8050  -20.6110   20.9800 C   0  0  0  0  0  2  0  0  0  0  0  0
  -30.0270  -21.9830   18.9430 C   0  0  0  0  0  2  0  0  0  0  0  0
  -30.9820  -20.7840   18.7360 C   0  0  0  0  0  3  0  0  0  0  0  0
  -30.9030  -19.8910   19.9680 C   0  0  0  0  0  3  0  0  0  0  0  0
  -28.8190  -21.6020   19.8300 C   0  0  0  0  0  1  0  0  0  0  0  0
  -29.4290  -19.7060   20.3510 C   0  0  0  0  0  1  0  0  0  0  0  0
  -29.2610  -17.6830   20.0530 C   0  0  0  0  0  1  0  0  0  0  0  0
  -30.1280  -15.9210   20.0990 C   0  0  0  0  0  0  0  0  0  0  0  0
  -30.3260  -13.3030   19.3290 C   0  0  0  0  0  2  0  0  0  0  0  0
  -29.4380  -12.8270   18.1330 C   0  0  0  0  0  2  0  0  0  0  0  0
  -28.0290  -12.4310   18.5950 C   0  0  0  0  0  2  0  0  0  0  0  0
  -27.5070  -13.4210   19.6570 C   0  0  0  0  0  3  0  0  0  0  0  0
  -28.5410  -13.8040   20.7440 C   0  0  0  0  0  2  0  0  0  0  0  0
  -29.6790  -14.4950   20.0780 N   0  0  0  0  0  0  0  0  0  0  0  0
  -31.3670  -15.8280   19.9540 O   0  0  0  0  0  0  0  0  0  0  0  0
  -25.1560  -13.9130   20.4590 C   0  0  0  0  0  0  0  0  0  0  0  0
  -24.1090  -13.1230   20.8400 C   0  0  0  0  0  0  0  0  0  0  0  0
  -24.5940  -11.7780   20.8060 C   0  0  0  0  0  0  0  0  0  0  0  0
  -26.2060  -13.0550   20.2020 N   0  0  0  0  0  0  0  0  0  0  0  0
  -25.8850  -11.7610   20.4760 N   0  0  0  0  0  0  0  0  0  0  0  0
  -23.8780  -10.5100   21.0060 C   0  0  0  0  0  0  0  0  0  0  0  0
  -24.3290   -9.5400   21.9270 C   0  0  0  0  0  3  0  0  0  0  0  0
  -23.6080   -8.3410   22.1190 C   0  0  0  0  0  3  0  0  0  0  0  0
  -22.4180   -8.1050   21.3900 C   0  0  0  0  0  0  0  0  0  0  0  0
  -21.9850   -9.0620   20.4550 C   0  0  0  0  0  3  0  0  0  0  0  0
  -22.7070  -10.2520   20.2630 C   0  0  0  0  0  3  0  0  0  0  0  0
  -21.6640   -6.9600   21.4910 O   0  0  0  0  0  0  0  0  0  0  0  0
  -21.6500   -6.2060   22.6380 C   0  0  0  0  0  0  0  0  0  0  0  0
  -21.2720   -6.7500   23.8840 C   0  0  0  0  0  3  0  0  0  0  0  0
  -21.2060   -5.9230   25.0230 C   0  0  0  0  0  3  0  0  0  0  0  0
  -21.5080   -4.5500   24.9160 C   0  0  0  0  0  0  0  0  0  0  0  0
  -21.8780   -4.0060   23.6750 C   0  0  0  0  0  3  0  0  0  0  0  0
  -21.9480   -4.8310   22.5380 C   0  0  0  0  0  0  0  0  0  0  0  0
  -22.2850   -4.2960   21.3400 F   0  0  0  0  0  0  0  0  0  0  0  0
  -21.4370   -3.7540   26.0080 F   0  0  0  0  0  0  0  0  0  0  0  0
  -22.7100  -13.5860   21.1140 C   0  0  0  0  0  0  0  0  0  0  0  0
  -21.9920  -12.8890   21.9890 N   0  0  0  0  0  0  0  0  0  0  0  0
  -22.2610  -14.6030   20.5870 O   0  0  0  0  0  0  0  0  0  0  0  0
  -22.3700  -12.0680   22.4390 H   0  0  0  0  0  0  0  0  0  0  0  0
  -21.0520  -13.1820   22.2140 H   0  0  0  0  0  0  0  0  0  0  0  0
  -25.2990  -15.2860   20.2770 N   0  0  0  0  0  0  0  0  0  0  0  0
  -24.5200  -15.9260   20.3790 H   0  0  0  0  0  0  0  0  0  0  0  0
  -26.1380  -15.7370   19.9350 H   0  0  0  0  0  0  0  0  0  0  0  0
  -28.2100  -23.4700   20.4410 C   0  0  0  0  0  1  0  0  0  0  0  0
  -28.1940  -25.3100   20.1790 O   0  0  0  0  0  0  0  0  0  0  0  0
  -24.6510  -31.8210   23.1440 C   0  0  0  0  0  0  0  0  0  0  0  0
  -27.2050  -26.5760   20.2220 C   0  0  0  0  0  0  0  0  0  0  0  0
  -23.4760  -30.3900   21.5310 C   0  0  0  0  0  3  0  0  0  0  0  0
  -24.9310  -28.6980   20.1520 C   0  0  0  0  0  0  0  0  0  0  0  0
  -26.0630  -30.5010   21.4180 C   0  0  0  0  0  2  0  0  0  0  0  0
  -26.1330  -29.0410   20.7790 C   0  0  0  0  0  0  0  0  0  0  0  0
  -27.2490  -28.0170   20.7670 C   0  0  0  0  0  3  0  0  0  0  0  0
  -25.9530  -26.4830   19.5480 C   0  0  0  0  0  3  0  0  0  0  0  0
  -24.8910  -27.4480   19.5080 C   0  0  0  0  0  3  0  0  0  0  0  0
  -23.7240  -29.6620   20.1770 C   0  0  0  0  0  2  0  0  0  0  0  0
  -24.7560  -30.9420   22.0820 N   0  0  0  0  0  0  0  0  0  0  0  0
  -23.5540  -32.1270   23.6430 O   0  0  0  0  0  0  0  0  0  0  0  0
  -22.7510  -29.4360   22.5220 C   0  0  0  0  0  0  0  0  0  0  0  0
  -21.4160  -29.2880   22.4090 N   0  0  0  0  0  0  0  0  0  0  0  0
  -23.4050  -28.8240   23.3690 O   0  0  0  0  0  0  0  0  0  0  0  0
  -20.9330  -29.8350   21.7090 H   0  0  0  0  0  0  0  0  0  0  0  0
  -18.0310  -28.0650   22.9580 C   0  0  0  0  0  0  0  0  0  0  0  0
  -20.5930  -28.3580   23.1960 C   0  0  0  0  0  3  0  0  0  0  0  0
  -20.6980  -26.9180   22.6420 C   0  0  0  0  0  2  0  0  0  0  0  0
  -19.5940  -26.5760   21.6370 C   0  0  0  0  0  2  0  0  0  0  0  0
  -18.2130  -26.7130   22.2870 C   0  0  0  0  0  2  0  0  0  0  0  0
  -19.1460  -28.8440   23.3690 C   0  0  0  0  0  0  0  0  0  0  0  0
  -18.9170  -30.1020   23.9630 C   0  0  0  0  0  3  0  0  0  0  0  0
  -17.6080  -30.5880   24.1430 C   0  0  0  0  0  3  0  0  0  0  0  0
  -16.5080  -29.8090   23.7420 C   0  0  0  0  0  3  0  0  0  0  0  0
  -16.7200  -28.5480   23.1570 C   0  0  0  0  0  3  0  0  0  0  0  0
  -25.9020  -32.4960   23.7820 C   0  0  0  0  0  3  0  0  0  0  0  0
  -25.5550  -33.8920   24.1290 N   0  0  0  0  0  0  0  0  0  0  0  0
  -25.8590  -34.9730   23.3980 C   0  0  0  0  0  0  0  0  0  0  0  0
  -26.5120  -34.9040   22.3550 O   0  0  0  0  0  0  0  0  0  0  0  0
  -24.9660  -34.0190   24.9380 H   0  0  0  0  0  0  0  0  0  0  0  0
  -24.0860  -36.7490   23.1380 C   0  0  0  0  0  1  0  0  0  0  0  0
  -25.3600  -36.3470   23.8990 C   0  0  0  0  0  3  0  0  0  0  0  0
  -27.5020  -37.2660   24.6750 C   0  0  0  0  0  1  0  0  0  0  0  0
  -26.3670  -37.4250   23.7690 N   0  0  0  0  0  0  0  0  0  0  0  0
  -25.9460  -38.3340   23.9430 H   0  0  0  0  0  0  0  0  0  0  0  0
  -26.4170  -31.7450   25.0730 C   0  0  1  0  0  0  0  0  0  0  0  0
  -25.3190  -31.5120   26.1390 C   0  0  0  0  0  1  0  0  0  0  0  0
  -27.0160  -30.3670   24.7140 C   0  0  0  0  0  1  0  0  0  0  0  0
  -27.5570  -32.5580   25.7290 C   0  0  0  0  0  1  0  0  0  0  0  0
  1  3  1  0
  2  5  1  0
  2  1  1  0
  4  7  1  0
  5  4  1  0
  5  6  1  0
  6  8  1  0
  6  3  1  0
  9 10  1  0
 11 16  1  0
 12 13  1  0
 12 11  1  0
 14 13  1  0
 14 21  1  0
 14 15  1  0
 16 10  1  0
 16 15  1  0
 17 10  2  0
 18 19  2  0
 19 38  1  0
 20 19  1  0
 20 23  1  0
 21 18  1  0
 21 22  1  0
 22 20  2  0
 23 24  1  0
 24 25  2  0
 26 29  1  0
 26 25  1  0
 27 26  2  0
 28 27  1  0
 28 23  2  0
 29 30  1  0
 30 31  1  0
 31 32  2  0
 33 32  1  0
 33 37  1  0
 34 33  2  0
 35 30  2  0
 35 34  1  0
 36 35  1  0
 38 39  1  0
 39 42  1  0
 39 41  1  0
 40 38  2  0
 43 44  1  0
 43 18  1  0
 45 43  1  0
 47 49  1  0
 47 46  1  0
 48 59  2  0
 49 54  1  0
 50 58  1  0
 50 60  1  0
 51 57  1  0
 51 53  1  0
 52 58  1  0
 53 52  1  0
 54 53  2  0
 55 49  2  0
 56 55  1  0
 56 51  2  0
 57 50  1  0
 58 48  1  0
 60 62  2  0
 61 60  1  0
 63 61  1  0
 64 73  2  0
 64 69  1  0
 65 61  1  0
 65 69  1  0
 66 65  1  0
 67 68  1  0
 67 66  1  0
 68 64  1  0
 69 70  2  0
 70 71  1  0
 72 71  2  0
 73 72  1  0
 74 48  1  0
 74 75  1  0
 74 84  1  0
 75 78  1  0
 76 80  1  0
 76 75  1  0
 77 76  2  0
 80 79  1  0
 82 80  1  0
 82 83  1  0
 82 81  1  0
 84 87  1  1
 84 85  1  0
 86 84  1  0
M  ISO  4   9 100  10 100  46 101  47 101
M  END
>  <TORSDO>  (64) 
F 18

>  <SCORE>  (64) 
-16.494

>  <name>  (64) 
63

>  <ligand_id>  (64) 
63

>  <original_smiles>  (64) 
[H]c1c([H])c([H])c2c(c1[H])C([H])([H])C([H])([H])C([H])([H])C2([H])N([H])C(=O)C1([H])N(C(=O)C([H])(N([H])C(=O)C([H])(N([H])C([H])([H])[H])C([H])([H])[H])C(C([H])([H])[H])(C([H])([H])[H])C([H])([H])[H])C([H])([H])c2c([H])c(OC([H])([H])C3([H])C([H])([H])C4([H])C([H])([H])C([H])([H])C([H])([H])C4([H])C3([H])C([H])([H])C(=O)N3C([H])([H])C([H])([H])C([H])([H])C([H])(n4nc(-c5c([H])c([H])c(Oc6c([H])c([H])c(F)c([H])c6F)c([H])c5[H])c(C(=O)N([H])[H])c4N([H])[H])C3([H])[H])c([H])c([H])c2C1([H])[H]

>  <smiles>  (64) 
[H]c1c([H])c([H])c2c(c1[H])C([H])([H])C([H])([H])C([H])([H])C2([H])N([H])C(=O)C1([H])N(C(=O)C([H])(N([H])C(=O)C([H])(N([H])C([H])([H])[H])C([H])([H])[H])C(C([H])([H])[H])(C([H])([H])[H])C([H])([H])[H])C([H])([H])c2c([H])c(OC([H])([H])C3([H])C([H])([H])C4([H])C([H])([H])C([H])([H])C([H])([H])C4([H])C3([H])C([H])([H])C(=O)N3C([H])([H])C([H])([H])C([H])([H])C([H])(n4nc(-c5c([H])c([H])c(Oc6c([H])c([H])c(F)c([H])c6F)c([H])c5[H])c(C(=O)N([H])[H])c4N([H])[H])C3([H])[H])c([H])c([H])c2C1([H])[H]

$$$$
64:0:0
     RDKit          3D

 94103  0  0  1  0  0  0  0  0999 V2000
  -30.3340  -16.4110   18.4210 C   0  0  0  0  0  2  0  0  0  0  0  0
  -32.0910  -18.2370   18.1190 C   0  0  0  0  0  2  0  0  0  0  0  0
  -31.5060  -21.0970   20.6030 C   0  0  0  0  0  2  0  0  0  0  0  0
  -30.1970  -16.6250   19.9590 C   0  0  0  0  0  3  0  0  0  0  0  0
  -30.3920  -18.3130   20.0090 C   0  0  0  0  0  3  0  0  0  0  0  0
  -31.7490  -16.7530   17.8880 C   0  0  0  0  0  3  0  0  0  0  0  0
  -29.9940  -21.0170   20.8870 C   0  0  0  0  0  3  0  0  0  0  0  0
  -29.6420  -19.4000   20.9760 C   0  0  0  0  0  3  0  0  0  0  0  0
  -31.7960  -18.7920   19.5410 C   0  0  0  0  0  3  0  0  0  0  0  0
  -31.8880  -16.3850   16.4020 C   0  0  0  0  0  1  0  0  0  0  0  0
  -28.1190  -19.1940   20.9600 C   0  0  0  0  0  1  0  0  0  0  0  0
  -31.9020  -20.2800   19.4340 N   0  0  0  0  0  4  0  0  0  0  0  0
  -32.8620  -20.5040   19.2230 H   0  0  0  0  0  0  0  0  0  0  0  0
  -31.3530  -20.5910   18.6480 H   0  0  0  0  0  0  0  0  0  0  0  0
  -31.0550  -15.3390   20.5820 C   0  0  0  0  0  0  0  0  0  0  0  0
  -31.0670  -12.8910   19.9660 C   0  0  0  0  0  2  0  0  0  0  0  0
  -30.2810  -12.6600   18.6520 C   0  0  0  0  0  2  0  0  0  0  0  0
  -28.7550  -12.5880   18.8950 C   0  0  0  0  0  2  0  0  0  0  0  0
  -28.2190  -13.6100   19.9350 C   0  0  0  0  0  3  0  0  0  0  0  0
  -29.1490  -13.7300   21.1580 C   0  0  0  0  0  2  0  0  0  0  0  0
  -30.4950  -14.0660   20.6740 N   0  0  0  0  0  0  0  0  0  0  0  0
  -32.2850  -15.4160   20.6360 O   0  0  0  0  0  0  0  0  0  0  0  0
  -25.7840  -14.2530   20.4020 C   0  0  0  0  0  0  0  0  0  0  0  0
  -24.6730  -13.5060   20.6810 C   0  0  0  0  0  0  0  0  0  0  0  0
  -25.1180  -12.1500   20.7540 C   0  0  0  0  0  0  0  0  0  0  0  0
  -26.8330  -13.3520   20.3070 N   0  0  0  0  0  0  0  0  0  0  0  0
  -26.4340  -12.0860   20.5900 N   0  0  0  0  0  0  0  0  0  0  0  0
  -24.3580  -10.9040   20.9080 C   0  0  0  0  0  0  0  0  0  0  0  0
  -24.6800   -9.9630   21.9100 C   0  0  0  0  0  3  0  0  0  0  0  0
  -23.9230   -8.7800   22.0530 C   0  0  0  0  0  3  0  0  0  0  0  0
  -22.8280   -8.5310   21.1910 C   0  0  0  0  0  0  0  0  0  0  0  0
  -22.5270   -9.4610   20.1810 C   0  0  0  0  0  3  0  0  0  0  0  0
  -23.2850  -10.6340   20.0360 C   0  0  0  0  0  3  0  0  0  0  0  0
  -22.0520   -7.4000   21.2400 O   0  0  0  0  0  0  0  0  0  0  0  0
  -21.9080   -6.6740   22.3950 C   0  0  0  0  0  0  0  0  0  0  0  0
  -21.3640   -7.2410   23.5680 C   0  0  0  0  0  3  0  0  0  0  0  0
  -21.1710   -6.4400   24.7130 C   0  0  0  0  0  3  0  0  0  0  0  0
  -21.5090   -5.0750   24.6820 C   0  0  0  0  0  0  0  0  0  0  0  0
  -22.0450   -4.5070   23.5140 C   0  0  0  0  0  3  0  0  0  0  0  0
  -22.2410   -5.3050   22.3720 C   0  0  0  0  0  0  0  0  0  0  0  0
  -22.7380   -4.7490   21.2410 F   0  0  0  0  0  0  0  0  0  0  0  0
  -21.3170   -4.3020   25.7780 F   0  0  0  0  0  0  0  0  0  0  0  0
  -23.2620  -14.0070   20.7790 C   0  0  0  0  0  0  0  0  0  0  0  0
  -22.4450  -13.3790   21.6190 N   0  0  0  0  0  0  0  0  0  0  0  0
  -22.8880  -14.9930   20.1450 O   0  0  0  0  0  0  0  0  0  0  0  0
  -22.7590  -12.5840   22.1550 H   0  0  0  0  0  0  0  0  0  0  0  0
  -21.4940  -13.7000   21.7300 H   0  0  0  0  0  0  0  0  0  0  0  0
  -25.9850  -15.6150   20.1960 N   0  0  0  0  0  0  0  0  0  0  0  0
  -25.2200  -16.2800   20.2110 H   0  0  0  0  0  0  0  0  0  0  0  0
  -26.8700  -16.0370   19.9470 H   0  0  0  0  0  0  0  0  0  0  0  0
  -29.0900  -22.2200   20.1660 C   0  0  0  0  0  2  0  0  0  0  0  0
  -29.3310  -23.8570   20.3990 C   0  0  0  0  0  3  0  0  0  0  0  0
  -28.2660  -25.0420   19.9230 C   0  0  0  0  0  3  0  0  0  0  0  0
  -28.4560  -26.5590   20.0820 O   0  0  0  0  0  0  0  0  0  0  0  0
  -24.6100  -31.9330   23.2450 C   0  0  0  0  0  0  0  0  0  0  0  0
  -27.3400  -27.4580   20.0480 C   0  0  0  0  0  0  0  0  0  0  0  0
  -23.4430  -30.5460   21.5730 C   0  0  0  0  0  3  0  0  0  0  0  0
  -24.9350  -29.0740   20.0910 C   0  0  0  0  0  0  0  0  0  0  0  0
  -25.9800  -30.9230   21.3910 C   0  0  0  0  0  2  0  0  0  0  0  0
  -26.0990  -29.5600   20.6980 C   0  0  0  0  0  0  0  0  0  0  0  0
  -27.3020  -28.7680   20.6600 C   0  0  0  0  0  3  0  0  0  0  0  0
  -26.1440  -27.0580   19.4100 C   0  0  0  0  0  3  0  0  0  0  0  0
  -24.9660  -27.8340   19.4350 C   0  0  0  0  0  3  0  0  0  0  0  0
  -23.6730  -29.9170   20.1740 C   0  0  0  0  0  2  0  0  0  0  0  0
  -24.6970  -31.1530   22.1260 N   0  0  0  0  0  0  0  0  0  0  0  0
  -23.5200  -32.1610   23.7930 O   0  0  0  0  0  0  0  0  0  0  0  0
  -22.8120  -29.4860   22.5090 C   0  0  0  0  0  0  0  0  0  0  0  0
  -21.5000  -29.2370   22.3530 N   0  0  0  0  0  0  0  0  0  0  0  0
  -23.5050  -28.8900   23.3370 O   0  0  0  0  0  0  0  0  0  0  0  0
  -20.9950  -29.7710   21.6590 H   0  0  0  0  0  0  0  0  0  0  0  0
  -18.2020  -27.7880   22.7240 C   0  0  0  0  0  0  0  0  0  0  0  0
  -20.7210  -28.2420   23.0950 C   0  0  0  0  0  3  0  0  0  0  0  0
  -20.9530  -26.8200   22.5340 C   0  0  0  0  0  2  0  0  0  0  0  0
  -19.9220  -26.4110   21.4780 C   0  0  0  0  0  2  0  0  0  0  0  0
  -18.5080  -26.4540   22.0630 C   0  0  0  0  0  2  0  0  0  0  0  0
  -19.2400  -28.6340   23.1930 C   0  0  0  0  0  0  0  0  0  0  0  0
  -18.9020  -29.8780   23.7690 C   0  0  0  0  0  3  0  0  0  0  0  0
  -17.5570  -30.2780   23.8810 C   0  0  0  0  0  3  0  0  0  0  0  0
  -16.5320  -29.4290   23.4270 C   0  0  0  0  0  3  0  0  0  0  0  0
  -16.8550  -28.1860   22.8540 C   0  0  0  0  0  3  0  0  0  0  0  0
  -25.8720  -32.5910   23.8810 C   0  0  0  0  0  3  0  0  0  0  0  0
  -26.3950  -31.8270   25.1600 C   0  0  1  0  0  0  0  0  0  0  0  0
  -25.2980  -31.5610   26.2180 C   0  0  0  0  0  1  0  0  0  0  0  0
  -27.0120  -30.4640   24.7730 C   0  0  0  0  0  1  0  0  0  0  0  0
  -27.5210  -32.6440   25.8360 C   0  0  0  0  0  1  0  0  0  0  0  0
  -25.5300  -33.9810   24.2190 N   0  0  0  0  0  0  0  0  0  0  0  0
  -25.8890  -35.0520   23.5000 C   0  0  0  0  0  0  0  0  0  0  0  0
  -26.6110  -34.9760   22.5030 O   0  0  0  0  0  0  0  0  0  0  0  0
  -24.8940  -34.1140   24.9910 H   0  0  0  0  0  0  0  0  0  0  0  0
  -24.1870  -36.8560   23.0710 C   0  0  0  0  0  1  0  0  0  0  0  0
  -25.3670  -36.4280   23.9590 C   0  0  0  0  0  3  0  0  0  0  0  0
  -27.4270  -37.2980   24.9750 C   0  0  0  0  0  1  0  0  0  0  0  0
  -26.4020  -37.4850   23.9510 N   0  0  0  0  0  0  0  0  0  0  0  0
  -25.9830  -38.4010   24.0870 H   0  0  0  0  0  0  0  0  0  0  0  0
  1  4  1  0
  2  9  1  0
  3  7  1  0
  4  5  1  0
  4 15  1  0
  5  8  1  0
  6  2  1  0
  6  1  1  0
  7  8  1  0
  9  5  1  0
 10  6  1  0
 11  8  1  0
 12  9  1  0
 12  3  1  0
 13 12  1  0
 14 12  1  0
 15 22  2  0
 15 21  1  0
 16 21  1  0
 17 18  1  0
 17 16  1  0
 18 19  1  0
 19 26  1  0
 19 20  1  0
 21 20  1  0
 23 24  2  0
 24 25  1  0
 24 43  1  0
 25 28  1  0
 26 23  1  0
 26 27  1  0
 27 25  2  0
 28 29  1  0
 29 30  2  0
 31 34  1  0
 31 30  1  0
 32 31  2  0
 33 32  1  0
 33 28  2  0
 34 35  1  0
 35 36  1  0
 36 37  2  0
 38 37  1  0
 38 42  1  0
 39 38  2  0
 40 35  2  0
 40 39  1  0
 41 40  1  0
 43 44  1  0
 44 47  1  0
 44 46  1  0
 45 43  2  0
 48 49  1  0
 48 23  1  0
 50 48  1  0
 51 52  1  0
 51  7  1  0
 53 54  1  0
 53 52  2  0
 55 66  2  0
 55 81  1  0
 56 54  1  0
 56 61  1  0
 57 65  1  0
 57 67  1  0
 58 64  1  0
 58 60  1  0
 59 65  1  0
 60 59  1  0
 61 60  2  0
 62 63  1  0
 62 56  2  0
 63 58  2  0
 64 57  1  0
 65 55  1  0
 67 69  2  0
 68 67  1  0
 68 72  1  0
 70 68  1  0
 71 80  2  0
 71 76  1  0
 72 76  1  0
 73 72  1  0
 74 75  1  0
 74 73  1  0
 75 71  1  0
 76 77  2  0
 77 78  1  0
 79 78  2  0
 80 79  1  0
 81 86  1  0
 81 82  1  0
 82 85  1  1
 82 83  1  0
 84 82  1  0
 86 89  1  0
 87 91  1  0
 87 86  1  0
 88 87  2  0
 90 91  1  0
 93 91  1  0
 93 94  1  0
 93 92  1  0
M  ISO  4   4 100  15 100  53 101  54 101
M  END
>  <TORSDO>  (65) 
F 19

>  <SCORE>  (65) 
-12.503

>  <name>  (65) 
64

>  <ligand_id>  (65) 
64

>  <original_smiles>  (65) 
[H]c1c([H])c([H])c2c(c1[H])C([H])([H])C([H])([H])C([H])([H])C2([H])N([H])C(=O)C1([H])N(C(=O)C([H])(N([H])C(=O)C([H])(N([H])C([H])([H])[H])C([H])([H])[H])C(C([H])([H])[H])(C([H])([H])[H])C([H])([H])[H])C([H])([H])c2c([H])c(OC([H])([H])C([H])([H])C([H])([H])C3([H])C([H])(C([H])([H])[H])C4([H])C([H])(C(=O)N5C([H])([H])C([H])([H])C([H])([H])C([H])(n6nc(-c7c([H])c([H])c(Oc8c([H])c([H])c(F)c([H])c8F)c([H])c7[H])c(C(=O)N([H])[H])c6N([H])[H])C5([H])[H])C([H])([H])C([H])(C([H])([H])[H])C([H])([H])C4([H])[N+]([H])([H])C3([H])[H])c([H])c([H])c2C1([H])[H]

>  <smiles>  (65) 
[H]c1c([H])c([H])c2c(c1[H])C([H])([H])C([H])([H])C([H])([H])C2([H])N([H])C(=O)C1([H])N(C(=O)C([H])(N([H])C(=O)C([H])(N([H])C([H])([H])[H])C([H])([H])[H])C(C([H])([H])[H])(C([H])([H])[H])C([H])([H])[H])C([H])([H])c2c([H])c(OC([H])([H])C([H])([H])C([H])([H])C3([H])C([H])(C([H])([H])[H])C4([H])C([H])(C(=O)N5C([H])([H])C([H])([H])C([H])([H])C([H])(n6nc(-c7c([H])c([H])c(Oc8c([H])c([H])c(F)c([H])c8F)c([H])c7[H])c(C(=O)N([H])[H])c6N([H])[H])C5([H])[H])C([H])([H])C([H])(C([H])([H])[H])C([H])([H])C4([H])[N+]([H])([H])C3([H])[H])c([H])c([H])c2C1([H])[H]

$$$$
65:0:0
     RDKit          3D

 82 87  0  0  1  0  0  0  0  0999 V2000
  -28.1660  -25.2970   20.3170 O   0  0  0  0  0  0  0  0  0  0  0  0
  -24.6760  -31.8160   23.1620 C   0  0  0  0  0  0  0  0  0  0  0  0
  -27.2130  -26.5850   20.2220 C   0  0  0  0  0  0  0  0  0  0  0  0
  -23.4990  -30.3990   21.5360 C   0  0  0  0  0  3  0  0  0  0  0  0
  -24.9530  -28.7150   20.1420 C   0  0  0  0  0  0  0  0  0  0  0  0
  -26.0840  -30.5020   21.4340 C   0  0  0  0  0  2  0  0  0  0  0  0
  -26.1500  -29.0480   20.7860 C   0  0  0  0  0  0  0  0  0  0  0  0
  -27.2530  -28.0150   20.7920 C   0  0  0  0  0  3  0  0  0  0  0  0
  -25.9810  -26.5080   19.5110 C   0  0  0  0  0  3  0  0  0  0  0  0
  -24.9180  -27.4740   19.4790 C   0  0  0  0  0  3  0  0  0  0  0  0
  -23.7490  -29.6820   20.1760 C   0  0  0  0  0  2  0  0  0  0  0  0
  -24.7780  -30.9440   22.0950 N   0  0  0  0  0  0  0  0  0  0  0  0
  -23.5780  -32.1240   23.6620 O   0  0  0  0  0  0  0  0  0  0  0  0
  -22.7700  -29.4410   22.5190 C   0  0  0  0  0  0  0  0  0  0  0  0
  -21.4350  -29.2950   22.4020 N   0  0  0  0  0  0  0  0  0  0  0  0
  -23.4210  -28.8240   23.3650 O   0  0  0  0  0  0  0  0  0  0  0  0
  -20.9570  -29.8430   21.7000 H   0  0  0  0  0  0  0  0  0  0  0  0
  -18.0450  -28.0880   22.9410 C   0  0  0  0  0  0  0  0  0  0  0  0
  -20.6080  -28.3640   23.1830 C   0  0  0  0  0  3  0  0  0  0  0  0
  -20.7060  -26.9270   22.6170 C   0  0  0  0  0  2  0  0  0  0  0  0
  -19.5990  -26.6000   21.6100 C   0  0  0  0  0  2  0  0  0  0  0  0
  -18.2210  -26.7410   22.2620 C   0  0  0  0  0  2  0  0  0  0  0  0
  -19.1650  -28.8580   23.3590 C   0  0  0  0  0  0  0  0  0  0  0  0
  -18.9430  -30.1160   23.9610 C   0  0  0  0  0  3  0  0  0  0  0  0
  -17.6360  -30.6050   24.1460 C   0  0  0  0  0  3  0  0  0  0  0  0
  -16.5320  -29.8350   23.7400 C   0  0  0  0  0  3  0  0  0  0  0  0
  -16.7380  -28.5790   23.1440 C   0  0  0  0  0  3  0  0  0  0  0  0
  -25.9290  -32.4850   23.8040 C   0  0  0  0  0  3  0  0  0  0  0  0
  -25.5910  -33.8820   24.1470 N   0  0  0  0  0  0  0  0  0  0  0  0
  -25.8940  -34.9580   23.4070 C   0  0  0  0  0  0  0  0  0  0  0  0
  -26.5430  -34.8800   22.3620 O   0  0  0  0  0  0  0  0  0  0  0  0
  -25.0080  -34.0140   24.9610 H   0  0  0  0  0  0  0  0  0  0  0  0
  -24.1270  -36.7400   23.1530 C   0  0  0  0  0  1  0  0  0  0  0  0
  -25.4080  -36.3380   23.9030 C   0  0  0  0  0  3  0  0  0  0  0  0
  -27.5600  -37.2590   24.6530 C   0  0  0  0  0  1  0  0  0  0  0  0
  -26.4180  -37.4110   23.7560 N   0  0  0  0  0  0  0  0  0  0  0  0
  -26.0030  -38.3230   23.9240 H   0  0  0  0  0  0  0  0  0  0  0  0
  -26.4330  -31.7320   25.1000 C   0  0  1  0  0  0  0  0  0  0  0  0
  -25.3290  -31.5040   26.1600 C   0  0  0  0  0  1  0  0  0  0  0  0
  -27.0270  -30.3500   24.7470 C   0  0  0  0  0  1  0  0  0  0  0  0
  -27.5730  -32.5390   25.7650 C   0  0  0  0  0  1  0  0  0  0  0  0
  -28.1360  -23.4720   20.0010 C   0  0  0  0  0  1  0  0  0  0  0  0
  -27.9730  -20.4160   20.0890 C   0  0  0  0  0  2  0  0  0  0  0  0
  -29.3080  -19.6920   19.9900 C   0  0  0  0  0  1  0  0  0  0  0  0
  -28.8260  -21.6210   20.4610 C   0  0  0  0  0  1  0  0  0  0  0  0
  -29.3800  -17.7170   20.4420 C   0  0  0  0  0  1  0  0  0  0  0  0
  -30.1730  -15.9420   20.1290 C   0  0  0  0  0  0  0  0  0  0  0  0
  -30.3440  -13.3240   19.3340 C   0  0  0  0  0  2  0  0  0  0  0  0
  -29.4530  -12.8410   18.1430 C   0  0  0  0  0  2  0  0  0  0  0  0
  -28.0500  -12.4430   18.6160 C   0  0  0  0  0  2  0  0  0  0  0  0
  -27.5300  -13.4500   19.6630 C   0  0  0  0  0  3  0  0  0  0  0  0
  -28.5630  -13.8310   20.7550 C   0  0  0  0  0  2  0  0  0  0  0  0
  -29.7120  -14.5170   20.0990 N   0  0  0  0  0  0  0  0  0  0  0  0
  -31.3930  -15.8400   19.8630 O   0  0  0  0  0  0  0  0  0  0  0  0
  -25.1880  -13.9620   20.4800 C   0  0  0  0  0  0  0  0  0  0  0  0
  -24.1340  -13.1800   20.8580 C   0  0  0  0  0  0  0  0  0  0  0  0
  -24.6020  -11.8300   20.8060 C   0  0  0  0  0  0  0  0  0  0  0  0
  -26.2260  -13.0940   20.2070 N   0  0  0  0  0  0  0  0  0  0  0  0
  -25.8900  -11.8020   20.4700 N   0  0  0  0  0  0  0  0  0  0  0  0
  -23.8720  -10.5680   20.9990 C   0  0  0  0  0  0  0  0  0  0  0  0
  -24.3070   -9.5930   21.9230 C   0  0  0  0  0  3  0  0  0  0  0  0
  -23.5720   -8.4020   22.1070 C   0  0  0  0  0  3  0  0  0  0  0  0
  -22.3870   -8.1760   21.3670 C   0  0  0  0  0  0  0  0  0  0  0  0
  -21.9710   -9.1390   20.4320 C   0  0  0  0  0  3  0  0  0  0  0  0
  -22.7060  -10.3220   20.2460 C   0  0  0  0  0  3  0  0  0  0  0  0
  -21.6240   -7.0370   21.4600 O   0  0  0  0  0  0  0  0  0  0  0  0
  -21.5790   -6.2920   22.6110 C   0  0  0  0  0  0  0  0  0  0  0  0
  -21.1630   -6.8460   23.8410 C   0  0  0  0  0  3  0  0  0  0  0  0
  -21.0650   -6.0280   24.9840 C   0  0  0  0  0  3  0  0  0  0  0  0
  -21.3730   -4.6560   24.8990 C   0  0  0  0  0  0  0  0  0  0  0  0
  -21.7830   -4.1010   23.6730 C   0  0  0  0  0  3  0  0  0  0  0  0
  -21.8830   -4.9170   22.5320 C   0  0  0  0  0  0  0  0  0  0  0  0
  -22.2560   -4.3730   21.3490 F   0  0  0  0  0  0  0  0  0  0  0  0
  -21.2720   -3.8680   25.9950 F   0  0  0  0  0  0  0  0  0  0  0  0
  -22.7420  -13.6590   21.1480 C   0  0  0  0  0  0  0  0  0  0  0  0
  -22.0260  -12.9640   22.0220 N   0  0  0  0  0  0  0  0  0  0  0  0
  -22.3020  -14.6870   20.6350 O   0  0  0  0  0  0  0  0  0  0  0  0
  -22.3970  -12.1330   22.4580 H   0  0  0  0  0  0  0  0  0  0  0  0
  -21.0920  -13.2680   22.2610 H   0  0  0  0  0  0  0  0  0  0  0  0
  -25.3470  -15.3350   20.3120 N   0  0  0  0  0  0  0  0  0  0  0  0
  -24.5830  -15.9890   20.4470 H   0  0  0  0  0  0  0  0  0  0  0  0
  -26.1920  -15.7780   19.9780 H   0  0  0  0  0  0  0  0  0  0  0  0
  2 13  2  0
  3  1  1  0
  3  8  1  0
  4 12  1  0
  4 14  1  0
  5 11  1  0
  5  7  1  0
  6 12  1  0
  7  8  2  0
  7  6  1  0
  9  3  2  0
 10  9  1  0
 10  5  2  0
 11  4  1  0
 12  2  1  0
 14 16  2  0
 15 14  1  0
 17 15  1  0
 18 27  2  0
 18 23  1  0
 19 15  1  0
 19 23  1  0
 20 19  1  0
 21 22  1  0
 21 20  1  0
 22 18  1  0
 23 24  2  0
 24 25  1  0
 26 25  2  0
 27 26  1  0
 28  2  1  0
 28 29  1  0
 28 38  1  0
 29 32  1  0
 30 34  1  0
 30 29  1  0
 31 30  2  0
 34 33  1  0
 36 34  1  0
 36 37  1  0
 36 35  1  0
 38 41  1  1
 38 39  1  0
 40 38  1  0
 42  1  1  0
 43 45  1  0
 44 43  1  0
 47 46  1  0
 48 53  1  0
 49 50  1  0
 49 48  1  0
 51 50  1  0
 51 58  1  0
 51 52  1  0
 53 47  1  0
 53 52  1  0
 54 47  2  0
 55 56  2  0
 56 75  1  0
 57 56  1  0
 57 60  1  0
 58 59  1  0
 58 55  1  0
 59 57  2  0
 60 61  1  0
 61 62  2  0
 63 66  1  0
 63 62  1  0
 64 63  2  0
 65 64  1  0
 65 60  2  0
 66 67  1  0
 67 68  1  0
 68 69  2  0
 70 69  1  0
 70 74  1  0
 71 70  2  0
 72 67  2  0
 72 71  1  0
 73 72  1  0
 75 76  1  0
 76 79  1  0
 76 78  1  0
 77 75  2  0
 80 81  1  0
 80 55  1  0
 82 80  1  0
M  ISO  4   1 101  42 101  46 100  47 100
M  END
>  <TORSDO>  (66) 
F 18

>  <SCORE>  (66) 
-16.153

>  <name>  (66) 
65

>  <ligand_id>  (66) 
65

>  <original_smiles>  (66) 
[H]c1c([H])c([H])c2c(c1[H])C([H])([H])C([H])([H])C([H])([H])C2([H])N([H])C(=O)C1([H])N(C(=O)C([H])(N([H])C(=O)C([H])(N([H])C([H])([H])[H])C([H])([H])[H])C(C([H])([H])[H])(C([H])([H])[H])C([H])([H])[H])C([H])([H])c2c([H])c(OC([H])([H])C3([H])C([H])([H])C3([H])C([H])([H])C(=O)N3C([H])([H])C([H])([H])C([H])([H])C([H])(n4nc(-c5c([H])c([H])c(Oc6c([H])c([H])c(F)c([H])c6F)c([H])c5[H])c(C(=O)N([H])[H])c4N([H])[H])C3([H])[H])c([H])c([H])c2C1([H])[H]

>  <smiles>  (66) 
[H]c1c([H])c([H])c2c(c1[H])C([H])([H])C([H])([H])C([H])([H])C2([H])N([H])C(=O)C1([H])N(C(=O)C([H])(N([H])C(=O)C([H])(N([H])C([H])([H])[H])C([H])([H])[H])C(C([H])([H])[H])(C([H])([H])[H])C([H])([H])[H])C([H])([H])c2c([H])c(OC([H])([H])C3([H])C([H])([H])C3([H])C([H])([H])C(=O)N3C([H])([H])C([H])([H])C([H])([H])C([H])(n4nc(-c5c([H])c([H])c(Oc6c([H])c([H])c(F)c([H])c6F)c([H])c5[H])c(C(=O)N([H])[H])c4N([H])[H])C3([H])[H])c([H])c([H])c2C1([H])[H]

$$$$
66:0:0
     RDKit          3D

 90 98  0  0  1  0  0  0  0  0999 V2000
  -30.3840  -22.0560   20.4060 C   0  0  0  0  0  2  0  0  0  0  0  0
  -28.0030  -21.5070   19.9170 C   0  0  0  0  0  2  0  0  0  0  0  0
  -29.9610  -23.4530   20.9460 C   0  0  0  0  0  2  0  0  0  0  0  0
  -27.5730  -22.8950   20.4730 C   0  0  0  0  0  2  0  0  0  0  0  0
  -29.2970  -20.9530   20.5670 C   0  0  0  0  0  3  0  0  0  0  0  0
  -28.6490  -24.0070   20.3280 C   0  0  0  0  0  3  0  0  0  0  0  0
  -29.7430  -19.5930   19.9340 C   0  0  0  0  0  0  0  0  0  0  0  0
  -29.7440  -18.4480   20.6650 N   0  0  0  0  0  0  0  0  0  0  0  0
  -30.1150  -19.5840   18.7590 O   0  0  0  0  0  0  0  0  0  0  0  0
  -29.4270  -18.5020   21.6240 H   0  0  0  0  0  0  0  0  0  0  0  0
  -30.2920  -17.1480   20.1800 C   0  0  0  0  0  2  0  0  0  0  0  0
  -29.9390  -15.8550   21.0050 C   0  0  0  0  0  2  0  0  0  0  0  0
  -30.6450  -14.5580   20.4790 C   0  0  0  0  0  0  0  0  0  0  0  0
  -30.3720  -12.3630   19.3660 C   0  0  0  0  0  2  0  0  0  0  0  0
  -29.4420  -12.5510   18.1490 C   0  0  0  0  0  2  0  0  0  0  0  0
  -27.9640  -12.4110   18.5660 C   0  0  0  0  0  2  0  0  0  0  0  0
  -27.6150  -13.2570   19.8190 C   0  0  0  0  0  3  0  0  0  0  0  0
  -28.6640  -13.0640   20.9370 C   0  0  0  0  0  2  0  0  0  0  0  0
  -29.9870  -13.3660   20.3750 N   0  0  0  0  0  0  0  0  0  0  0  0
  -31.7920  -14.6830   20.0410 O   0  0  0  0  0  0  0  0  0  0  0  0
  -25.2120  -13.8660   20.5070 C   0  0  0  0  0  0  0  0  0  0  0  0
  -24.1410  -13.0960   20.8740 C   0  0  0  0  0  0  0  0  0  0  0  0
  -24.6040  -11.7450   20.8590 C   0  0  0  0  0  0  0  0  0  0  0  0
  -26.2600  -12.9830   20.2920 N   0  0  0  0  0  0  0  0  0  0  0  0
  -25.8970  -11.7030   20.5630 N   0  0  0  0  0  0  0  0  0  0  0  0
  -23.8760  -10.4840   21.0540 C   0  0  0  0  0  0  0  0  0  0  0  0
  -24.3130   -9.5140   21.9830 C   0  0  0  0  0  3  0  0  0  0  0  0
  -23.5860   -8.3180   22.1660 C   0  0  0  0  0  3  0  0  0  0  0  0
  -22.4060   -8.0840   21.4200 C   0  0  0  0  0  0  0  0  0  0  0  0
  -21.9880   -9.0420   20.4810 C   0  0  0  0  0  3  0  0  0  0  0  0
  -22.7160  -10.2290   20.2960 C   0  0  0  0  0  3  0  0  0  0  0  0
  -21.6500   -6.9410   21.5130 O   0  0  0  0  0  0  0  0  0  0  0  0
  -21.6240   -6.1850   22.6570 C   0  0  0  0  0  0  0  0  0  0  0  0
  -21.2450   -6.7320   23.9020 C   0  0  0  0  0  3  0  0  0  0  0  0
  -21.1650   -5.9030   25.0400 C   0  0  0  0  0  3  0  0  0  0  0  0
  -21.4540   -4.5300   24.9340 C   0  0  0  0  0  0  0  0  0  0  0  0
  -21.8280   -3.9830   23.6940 C   0  0  0  0  0  3  0  0  0  0  0  0
  -21.9090   -4.8080   22.5580 C   0  0  0  0  0  0  0  0  0  0  0  0
  -22.2480   -4.2720   21.3610 F   0  0  0  0  0  0  0  0  0  0  0  0
  -21.3710   -3.7330   26.0240 F   0  0  0  0  0  0  0  0  0  0  0  0
  -22.7410  -13.5750   21.1300 C   0  0  0  0  0  0  0  0  0  0  0  0
  -22.0070  -12.8870   21.9950 N   0  0  0  0  0  0  0  0  0  0  0  0
  -22.3080  -14.5960   20.5960 O   0  0  0  0  0  0  0  0  0  0  0  0
  -22.3700  -12.0620   22.4500 H   0  0  0  0  0  0  0  0  0  0  0  0
  -21.0680  -13.1910   22.2100 H   0  0  0  0  0  0  0  0  0  0  0  0
  -25.3780  -15.2340   20.3190 N   0  0  0  0  0  0  0  0  0  0  0  0
  -24.6130  -15.8930   20.4180 H   0  0  0  0  0  0  0  0  0  0  0  0
  -26.2360  -15.6710   20.0030 H   0  0  0  0  0  0  0  0  0  0  0  0
  -28.1870  -25.3650   20.9820 C   0  0  0  0  0  2  0  0  0  0  0  0
  -28.3540  -26.5950   20.2180 O   0  0  0  0  0  0  0  0  0  0  0  0
  -24.6040  -31.8890   23.2480 C   0  0  0  0  0  0  0  0  0  0  0  0
  -27.2290  -27.4020   20.1860 C   0  0  0  0  0  0  0  0  0  0  0  0
  -23.3940  -30.4800   21.6170 C   0  0  0  0  0  3  0  0  0  0  0  0
  -24.8430  -28.9370   20.1870 C   0  0  0  0  0  0  0  0  0  0  0  0
  -25.9220  -30.8320   21.4090 C   0  0  0  0  0  2  0  0  0  0  0  0
  -26.0080  -29.4570   20.7700 C   0  0  0  0  0  0  0  0  0  0  0  0
  -27.2080  -28.6990   20.7600 C   0  0  0  0  0  3  0  0  0  0  0  0
  -26.0510  -26.9100   19.5860 C   0  0  0  0  0  3  0  0  0  0  0  0
  -24.8620  -27.6660   19.5880 C   0  0  0  0  0  3  0  0  0  0  0  0
  -23.5990  -29.7960   20.2390 C   0  0  0  0  0  2  0  0  0  0  0  0
  -24.6590  -31.0820   22.1490 N   0  0  0  0  0  0  0  0  0  0  0  0
  -23.5240  -32.1620   23.7910 O   0  0  0  0  0  0  0  0  0  0  0  0
  -22.7450  -29.4620   22.5850 C   0  0  0  0  0  0  0  0  0  0  0  0
  -21.4200  -29.2780   22.4640 N   0  0  0  0  0  0  0  0  0  0  0  0
  -23.4320  -28.8410   23.4010 O   0  0  0  0  0  0  0  0  0  0  0  0
  -20.9270  -29.8320   21.7760 H   0  0  0  0  0  0  0  0  0  0  0  0
  -18.0510  -28.0690   22.9690 C   0  0  0  0  0  0  0  0  0  0  0  0
  -20.6070  -28.3420   23.2400 C   0  0  0  0  0  3  0  0  0  0  0  0
  -20.7180  -26.9070   22.6760 C   0  0  0  0  0  2  0  0  0  0  0  0
  -19.6180  -26.5710   21.6630 C   0  0  0  0  0  2  0  0  0  0  0  0
  -18.2340  -26.7160   22.3040 C   0  0  0  0  0  2  0  0  0  0  0  0
  -19.1650  -28.8400   23.3950 C   0  0  0  0  0  0  0  0  0  0  0  0
  -18.9390  -30.1070   23.9750 C   0  0  0  0  0  3  0  0  0  0  0  0
  -17.6330  -30.6040   24.1340 C   0  0  0  0  0  3  0  0  0  0  0  0
  -16.5330  -29.8300   23.7260 C   0  0  0  0  0  3  0  0  0  0  0  0
  -16.7430  -28.5640   23.1490 C   0  0  0  0  0  3  0  0  0  0  0  0
  -25.8920  -32.5240   23.8600 C   0  0  0  0  0  3  0  0  0  0  0  0
  -26.4220  -31.7530   25.1310 C   0  0  1  0  0  0  0  0  0  0  0  0
  -25.3390  -31.5110   26.2080 C   0  0  0  0  0  1  0  0  0  0  0  0
  -27.0040  -30.3770   24.7310 C   0  0  0  0  0  1  0  0  0  0  0  0
  -27.5770  -32.5490   25.7840 C   0  0  0  0  0  1  0  0  0  0  0  0
  -25.5810  -33.9210   24.1940 N   0  0  0  0  0  0  0  0  0  0  0  0
  -25.9050  -34.9750   23.4320 C   0  0  0  0  0  0  0  0  0  0  0  0
  -26.5680  -34.8730   22.3960 O   0  0  0  0  0  0  0  0  0  0  0  0
  -24.9910  -34.0730   24.9990 H   0  0  0  0  0  0  0  0  0  0  0  0
  -24.1670  -36.7600   23.0900 C   0  0  0  0  0  1  0  0  0  0  0  0
  -25.4160  -36.3610   23.8940 C   0  0  0  0  0  3  0  0  0  0  0  0
  -27.5550  -37.2510   24.7060 C   0  0  0  0  0  1  0  0  0  0  0  0
  -26.4440  -37.4180   23.7730 N   0  0  0  0  0  0  0  0  0  0  0  0
  -26.0360  -38.3360   23.9250 H   0  0  0  0  0  0  0  0  0  0  0  0
  1  5  1  0
  1  3  1  0
  2  4  1  0
  2  5  1  0
  5  7  1  0
  6  4  1  0
  6  3  1  0
  6 49  1  0
  7  8  1  0
  8 10  1  0
  9  7  2  0
 11  8  1  0
 11 12  1  0
 13 12  1  0
 14 19  1  0
 15 16  1  0
 15 14  1  0
 17 16  1  0
 17 24  1  0
 17 18  1  0
 19 13  1  0
 19 18  1  0
 20 13  2  0
 21 22  2  0
 22 41  1  0
 23 22  1  0
 23 26  1  0
 24 21  1  0
 24 25  1  0
 25 23  2  0
 26 27  1  0
 27 28  2  0
 29 32  1  0
 29 28  1  0
 30 29  2  0
 31 30  1  0
 31 26  2  0
 32 33  1  0
 33 34  1  0
 34 35  2  0
 36 35  1  0
 36 40  1  0
 37 36  2  0
 38 33  2  0
 38 37  1  0
 39 38  1  0
 41 42  1  0
 42 45  1  0
 42 44  1  0
 43 41  2  0
 46 47  1  0
 46 21  1  0
 48 46  1  0
 50 49  1  0
 51 62  2  0
 52 50  1  0
 52 57  1  0
 53 61  1  0
 53 63  1  0
 54 60  1  0
 54 56  1  0
 55 61  1  0
 56 55  1  0
 57 56  2  0
 58 59  1  0
 58 52  2  0
 59 54  2  0
 60 53  1  0
 61 51  1  0
 63 65  2  0
 64 63  1  0
 66 64  1  0
 67 76  2  0
 67 72  1  0
 68 64  1  0
 68 72  1  0
 69 68  1  0
 70 71  1  0
 70 69  1  0
 71 67  1  0
 72 73  2  0
 73 74  1  0
 75 74  2  0
 76 75  1  0
 77 51  1  0
 77 82  1  0
 77 78  1  0
 78 81  1  1
 78 79  1  0
 80 78  1  0
 82 85  1  0
 83 87  1  0
 83 82  1  0
 84 83  2  0
 87 86  1  0
 89 87  1  0
 89 90  1  0
 89 88  1  0
M  ISO  4  12 100  13 100  49 101  50 101
M  END
>  <TORSDO>  (67) 
F 20

>  <SCORE>  (67) 
-13.930

>  <name>  (67) 
66

>  <ligand_id>  (67) 
66

>  <original_smiles>  (67) 
[H]c1c([H])c([H])c2c(c1[H])C([H])([H])C([H])([H])C([H])([H])C2([H])N([H])C(=O)C1([H])N(C(=O)C([H])(N([H])C(=O)C([H])(N([H])C([H])([H])[H])C([H])([H])[H])C(C([H])([H])[H])(C([H])([H])[H])C([H])([H])[H])C([H])([H])c2c([H])c(OC([H])([H])C3([H])C([H])([H])C([H])([H])C([H])(C(=O)N([H])C([H])([H])C([H])([H])C(=O)N4C([H])([H])C([H])([H])C([H])([H])C([H])(n5nc(-c6c([H])c([H])c(Oc7c([H])c([H])c(F)c([H])c7F)c([H])c6[H])c(C(=O)N([H])[H])c5N([H])[H])C4([H])[H])C([H])([H])C3([H])[H])c([H])c([H])c2C1([H])[H]

>  <smiles>  (67) 
[H]c1c([H])c([H])c2c(c1[H])C([H])([H])C([H])([H])C([H])([H])C2([H])N([H])C(=O)C1([H])N(C(=O)C([H])(N([H])C(=O)C([H])(N([H])C([H])([H])[H])C([H])([H])[H])C(C([H])([H])[H])(C([H])([H])[H])C([H])([H])[H])C([H])([H])c2c([H])c(OC([H])([H])C3([H])C([H])([H])C([H])([H])C([H])(C(=O)N([H])C([H])([H])C([H])([H])C(=O)N4C([H])([H])C([H])([H])C([H])([H])C([H])(n5nc(-c6c([H])c([H])c(Oc7c([H])c([H])c(F)c([H])c7F)c([H])c6[H])c(C(=O)N([H])[H])c5N([H])[H])C4([H])[H])C([H])([H])C3([H])[H])c([H])c([H])c2C1([H])[H]

$$$$
67:0:0
     RDKit          3D

 92100  0  0  1  0  0  0  0  0999 V2000
  -30.3460  -19.8030   20.6810 C   0  0  0  0  0  3  0  0  0  0  0  0
  -32.4570  -19.2730   23.8700 C   0  0  0  0  0  2  0  0  0  0  0  0
  -31.4600  -20.3280   24.3650 C   0  0  0  0  0  2  0  0  0  0  0  0
  -32.1150  -19.0360   22.3960 C   0  0  0  0  0  2  0  0  0  0  0  0
  -30.6950  -20.7990   23.1220 C   0  0  0  0  0  2  0  0  0  0  0  0
  -30.6840  -19.5840   22.1890 C   0  0  0  0  0  3  0  0  0  0  0  0
  -30.3070  -18.4340   19.9780 N   0  0  0  0  0  4  0  0  0  0  0  0
  -30.0410  -18.6180   19.0230 H   0  0  0  0  0  0  0  0  0  0  0  0
  -31.2550  -18.0990   19.9150 H   0  0  0  0  0  0  0  0  0  0  0  0
  -29.4560  -17.2470   20.4280 C   0  0  0  0  0  2  0  0  0  0  0  0
  -30.0720  -15.9810   21.2280 C   0  0  0  0  0  2  0  0  0  0  0  0
  -30.6540  -14.6810   20.5160 C   0  0  0  0  0  0  0  0  0  0  0  0
  -30.4360  -12.4210   19.4680 C   0  0  0  0  0  2  0  0  0  0  0  0
  -29.5150  -12.5150   18.2310 C   0  0  0  0  0  2  0  0  0  0  0  0
  -28.0360  -12.3520   18.6370 C   0  0  0  0  0  2  0  0  0  0  0  0
  -27.6540  -13.2280   19.8620 C   0  0  0  0  0  3  0  0  0  0  0  0
  -28.6990  -13.1070   20.9940 C   0  0  0  0  0  2  0  0  0  0  0  0
  -30.0120  -13.4630   20.4350 N   0  0  0  0  0  0  0  0  0  0  0  0
  -31.7740  -14.8020   20.0140 O   0  0  0  0  0  0  0  0  0  0  0  0
  -25.2550  -13.8180   20.5660 C   0  0  0  0  0  0  0  0  0  0  0  0
  -24.1830  -13.0430   20.9170 C   0  0  0  0  0  0  0  0  0  0  0  0
  -24.6400  -11.6900   20.8700 C   0  0  0  0  0  0  0  0  0  0  0  0
  -26.3000  -12.9390   20.3300 N   0  0  0  0  0  0  0  0  0  0  0  0
  -25.9350  -11.6530   20.5730 N   0  0  0  0  0  0  0  0  0  0  0  0
  -23.9070  -10.4290   21.0370 C   0  0  0  0  0  0  0  0  0  0  0  0
  -24.3610   -9.4210   21.9160 C   0  0  0  0  0  3  0  0  0  0  0  0
  -23.6280   -8.2250   22.0750 C   0  0  0  0  0  3  0  0  0  0  0  0
  -22.4260   -8.0270   21.3540 C   0  0  0  0  0  0  0  0  0  0  0  0
  -21.9900   -9.0240   20.4630 C   0  0  0  0  0  3  0  0  0  0  0  0
  -22.7240  -10.2110   20.3020 C   0  0  0  0  0  3  0  0  0  0  0  0
  -21.6640   -6.8850   21.4230 O   0  0  0  0  0  0  0  0  0  0  0  0
  -21.6860   -6.0720   22.5260 C   0  0  0  0  0  0  0  0  0  0  0  0
  -21.4030   -6.5620   23.8200 C   0  0  0  0  0  3  0  0  0  0  0  0
  -21.3660   -5.6770   24.9160 C   0  0  0  0  0  3  0  0  0  0  0  0
  -21.6050   -4.3040   24.7220 C   0  0  0  0  0  0  0  0  0  0  0  0
  -21.8830   -3.8120   23.4350 C   0  0  0  0  0  3  0  0  0  0  0  0
  -21.9200   -4.6940   22.3400 C   0  0  0  0  0  0  0  0  0  0  0  0
  -22.1660   -4.2120   21.0980 F   0  0  0  0  0  0  0  0  0  0  0  0
  -21.5630   -3.4530   25.7740 F   0  0  0  0  0  0  0  0  0  0  0  0
  -22.7840  -13.5210   21.1810 C   0  0  0  0  0  0  0  0  0  0  0  0
  -22.0480  -12.8190   22.0350 N   0  0  0  0  0  0  0  0  0  0  0  0
  -22.3520  -14.5500   20.6650 O   0  0  0  0  0  0  0  0  0  0  0  0
  -22.4100  -11.9870   22.4760 H   0  0  0  0  0  0  0  0  0  0  0  0
  -21.1060  -13.1180   22.2470 H   0  0  0  0  0  0  0  0  0  0  0  0
  -25.4220  -15.1920   20.4090 N   0  0  0  0  0  0  0  0  0  0  0  0
  -24.6480  -15.8390   20.5230 H   0  0  0  0  0  0  0  0  0  0  0  0
  -26.2650  -15.6360   20.0700 H   0  0  0  0  0  0  0  0  0  0  0  0
  -29.2410  -20.9310   20.2700 C   0  0  0  0  0  2  0  0  0  0  0  0
  -29.3860  -22.4920   20.7140 C   0  0  0  0  0  2  0  0  0  0  0  0
  -28.6840  -23.7250   19.9270 C   0  0  0  0  0  2  0  0  0  0  0  0
  -28.3050  -25.0840   20.7220 C   0  0  0  0  0  2  0  0  0  0  0  0
  -28.3650  -26.4450   20.1080 O   0  0  0  0  0  0  0  0  0  0  0  0
  -24.6290  -31.8540   23.1940 C   0  0  0  0  0  0  0  0  0  0  0  0
  -27.2360  -27.2880   20.1370 C   0  0  0  0  0  0  0  0  0  0  0  0
  -23.4270  -30.4760   21.5330 C   0  0  0  0  0  3  0  0  0  0  0  0
  -24.8780  -28.9150   20.1160 C   0  0  0  0  0  0  0  0  0  0  0  0
  -25.9660  -30.7850   21.3580 C   0  0  0  0  0  2  0  0  0  0  0  0
  -26.0460  -29.4020   20.7130 C   0  0  0  0  0  0  0  0  0  0  0  0
  -27.2310  -28.6040   20.7060 C   0  0  0  0  0  3  0  0  0  0  0  0
  -26.0450  -26.8500   19.5270 C   0  0  0  0  0  3  0  0  0  0  0  0
  -24.8800  -27.6470   19.5110 C   0  0  0  0  0  3  0  0  0  0  0  0
  -23.6460  -29.8010   20.1520 C   0  0  0  0  0  2  0  0  0  0  0  0
  -24.6930  -31.0550   22.0880 N   0  0  0  0  0  0  0  0  0  0  0  0
  -23.5440  -32.1290   23.7250 O   0  0  0  0  0  0  0  0  0  0  0  0
  -22.7510  -29.4600   22.4850 C   0  0  0  0  0  0  0  0  0  0  0  0
  -21.4210  -29.3070   22.3650 N   0  0  0  0  0  0  0  0  0  0  0  0
  -23.4220  -28.8110   23.2910 O   0  0  0  0  0  0  0  0  0  0  0  0
  -20.9370  -29.8830   21.6890 H   0  0  0  0  0  0  0  0  0  0  0  0
  -18.0310  -28.1420   22.8460 C   0  0  0  0  0  0  0  0  0  0  0  0
  -20.5910  -28.3720   23.1280 C   0  0  0  0  0  3  0  0  0  0  0  0
  -20.6810  -26.9430   22.5410 C   0  0  0  0  0  2  0  0  0  0  0  0
  -19.5790  -26.6400   21.5220 C   0  0  0  0  0  2  0  0  0  0  0  0
  -18.1960  -26.7980   22.1600 C   0  0  0  0  0  2  0  0  0  0  0  0
  -19.1560  -28.8870   23.2900 C   0  0  0  0  0  0  0  0  0  0  0  0
  -18.9490  -30.1480   23.8910 C   0  0  0  0  0  3  0  0  0  0  0  0
  -17.6500  -30.6600   24.0570 C   0  0  0  0  0  3  0  0  0  0  0  0
  -16.5390  -29.9110   23.6330 C   0  0  0  0  0  3  0  0  0  0  0  0
  -16.7300  -28.6540   23.0310 C   0  0  0  0  0  3  0  0  0  0  0  0
  -25.9100  -32.4740   23.8290 C   0  0  0  0  0  3  0  0  0  0  0  0
  -25.5930  -33.8530   24.2240 N   0  0  0  0  0  0  0  0  0  0  0  0
  -25.9050  -34.9430   23.5090 C   0  0  0  0  0  0  0  0  0  0  0  0
  -26.5610  -34.8920   22.4660 O   0  0  0  0  0  0  0  0  0  0  0  0
  -25.0160  -33.9680   25.0440 H   0  0  0  0  0  0  0  0  0  0  0  0
  -24.1500  -36.7260   23.2640 C   0  0  0  0  0  1  0  0  0  0  0  0
  -25.4110  -36.3050   24.0350 C   0  0  0  0  0  3  0  0  0  0  0  0
  -27.5580  -37.1780   24.8480 C   0  0  0  0  0  1  0  0  0  0  0  0
  -26.4270  -37.3760   23.9440 N   0  0  0  0  0  0  0  0  0  0  0  0
  -26.0150  -38.2830   24.1470 H   0  0  0  0  0  0  0  0  0  0  0  0
  -26.4480  -31.6540   25.0640 C   0  0  1  0  0  0  0  0  0  0  0  0
  -25.3710  -31.3690   26.1370 C   0  0  0  0  0  1  0  0  0  0  0  0
  -27.0280  -30.2980   24.6010 C   0  0  0  0  0  1  0  0  0  0  0  0
  -27.6080  -32.4200   25.7430 C   0  0  0  0  0  1  0  0  0  0  0  0
  1 48  1  0
  1  6  1  0
  2  3  1  0
  4  2  1  0
  5  3  1  0
  6  4  1  0
  6  5  1  0
  7 10  1  0
  7  1  1  0
  8  7  1  0
  9  7  1  0
 10 11  1  0
 12 11  1  0
 13 18  1  0
 14 15  1  0
 14 13  1  0
 16 15  1  0
 16 23  1  0
 16 17  1  0
 18 12  1  0
 18 17  1  0
 19 12  2  0
 20 21  2  0
 21 40  1  0
 22 21  1  0
 22 25  1  0
 23 20  1  0
 23 24  1  0
 24 22  2  0
 25 26  1  0
 26 27  2  0
 28 31  1  0
 28 27  1  0
 29 28  2  0
 30 29  1  0
 30 25  2  0
 31 32  1  0
 32 33  1  0
 33 34  2  0
 35 34  1  0
 35 39  1  0
 36 35  2  0
 37 32  2  0
 37 36  1  0
 38 37  1  0
 40 41  1  0
 41 44  1  0
 41 43  1  0
 42 40  2  0
 45 46  1  0
 45 20  1  0
 47 45  1  0
 48 49  1  0
 50 49  1  0
 50 51  1  0
 52 54  1  0
 52 51  1  0
 53 64  2  0
 54 59  1  0
 55 63  1  0
 55 65  1  0
 56 62  1  0
 56 58  1  0
 57 63  1  0
 58 57  1  0
 59 58  2  0
 60 54  2  0
 61 60  1  0
 61 56  2  0
 62 55  1  0
 63 53  1  0
 65 67  2  0
 66 65  1  0
 68 66  1  0
 69 78  2  0
 69 74  1  0
 70 66  1  0
 70 74  1  0
 71 70  1  0
 72 73  1  0
 72 71  1  0
 73 69  1  0
 74 75  2  0
 75 76  1  0
 77 76  2  0
 78 77  1  0
 79 53  1  0
 79 80  1  0
 79 89  1  0
 80 83  1  0
 81 85  1  0
 81 80  1  0
 82 81  2  0
 85 84  1  0
 87 85  1  0
 87 88  1  0
 87 86  1  0
 89 92  1  1
 89 90  1  0
 91 89  1  0
M  ISO  4  11 100  12 100  51 101  52 101
M  END
>  <TORSDO>  (68) 
F 24

>  <SCORE>  (68) 
-10.580

>  <name>  (68) 
67

>  <ligand_id>  (68) 
67

>  <original_smiles>  (68) 
[H]c1c([H])c([H])c2c(c1[H])C([H])([H])C([H])([H])C([H])([H])C2([H])N([H])C(=O)C1([H])N(C(=O)C([H])(N([H])C(=O)C([H])(N([H])C([H])([H])[H])C([H])([H])[H])C(C([H])([H])[H])(C([H])([H])[H])C([H])([H])[H])C([H])([H])c2c([H])c(OC([H])([H])C([H])([H])C([H])([H])C([H])([H])C([H])(C3([H])C([H])([H])C([H])([H])C([H])([H])C3([H])[H])[N+]([H])([H])C([H])([H])C([H])([H])C(=O)N3C([H])([H])C([H])([H])C([H])([H])C([H])(n4nc(-c5c([H])c([H])c(Oc6c([H])c([H])c(F)c([H])c6F)c([H])c5[H])c(C(=O)N([H])[H])c4N([H])[H])C3([H])[H])c([H])c([H])c2C1([H])[H]

>  <smiles>  (68) 
[H]c1c([H])c([H])c2c(c1[H])C([H])([H])C([H])([H])C([H])([H])C2([H])N([H])C(=O)C1([H])N(C(=O)C([H])(N([H])C(=O)C([H])(N([H])C([H])([H])[H])C([H])([H])[H])C(C([H])([H])[H])(C([H])([H])[H])C([H])([H])[H])C([H])([H])c2c([H])c(OC([H])([H])C([H])([H])C([H])([H])C([H])([H])C([H])(C3([H])C([H])([H])C([H])([H])C([H])([H])C3([H])[H])[N+]([H])([H])C([H])([H])C([H])([H])C(=O)N3C([H])([H])C([H])([H])C([H])([H])C([H])(n4nc(-c5c([H])c([H])c(Oc6c([H])c([H])c(F)c([H])c6F)c([H])c5[H])c(C(=O)N([H])[H])c4N([H])[H])C3([H])[H])c([H])c([H])c2C1([H])[H]

$$$$
68:0:0
     RDKit          3D

 92101  0  0  1  0  0  0  0  0999 V2000
  -26.7870  -22.3890   20.5630 C   0  0  0  0  0  2  0  0  0  0  0  0
  -27.1540  -23.0360   21.9250 C   0  0  0  0  0  2  0  0  0  0  0  0
  -29.4960  -22.0430   21.8790 C   0  0  0  0  0  2  0  0  0  0  0  0
  -28.1820  -22.2750   19.9030 C   0  0  0  0  0  3  0  0  0  0  0  0
  -28.7800  -23.7080   20.2680 C   0  0  0  0  0  3  0  0  0  0  0  0
  -28.8790  -21.1470   20.7860 C   0  0  0  0  0  3  0  0  0  0  0  0
  -28.6670  -23.3710   21.7670 C   0  0  1  0  0  0  0  0  0  0  0  0
  -29.1590  -24.4680   22.7200 C   0  0  0  0  0  1  0  0  0  0  0  0
  -29.7180  -20.0340   20.1760 N   0  0  0  0  0  4  0  0  0  0  0  0
  -30.6890  -20.3000   20.1880 H   0  0  0  0  0  0  0  0  0  0  0  0
  -29.4480  -19.9520   19.2090 H   0  0  0  0  0  0  0  0  0  0  0  0
  -29.5410  -18.6560   20.8100 C   0  0  0  0  0  3  0  0  0  0  0  0
  -30.2830  -17.3940   20.1780 C   0  0  0  0  0  3  0  0  0  0  0  0
  -29.9210  -15.9650   20.8030 C   0  0  0  0  0  2  0  0  0  0  0  0
  -30.6300  -14.6700   20.2330 C   0  0  0  0  0  0  0  0  0  0  0  0
  -30.3570  -12.4420   19.1480 C   0  0  0  0  0  2  0  0  0  0  0  0
  -29.3940  -12.5870   17.9490 C   0  0  0  0  0  2  0  0  0  0  0  0
  -27.9280  -12.4390   18.4030 C   0  0  0  0  0  2  0  0  0  0  0  0
  -27.6000  -13.3060   19.6480 C   0  0  0  0  0  3  0  0  0  0  0  0
  -28.6770  -13.1450   20.7450 C   0  0  0  0  0  2  0  0  0  0  0  0
  -29.9830  -13.4630   20.1490 N   0  0  0  0  0  0  0  0  0  0  0  0
  -31.7660  -14.7990   19.7670 O   0  0  0  0  0  0  0  0  0  0  0  0
  -25.2220  -13.9280   20.3960 C   0  0  0  0  0  0  0  0  0  0  0  0
  -24.1540  -13.1660   20.7880 C   0  0  0  0  0  0  0  0  0  0  0  0
  -24.6060  -11.8110   20.7620 C   0  0  0  0  0  0  0  0  0  0  0  0
  -26.2570  -13.0380   20.1560 N   0  0  0  0  0  0  0  0  0  0  0  0
  -25.8920  -11.7600   20.4370 N   0  0  0  0  0  0  0  0  0  0  0  0
  -23.8740  -10.5560   20.9740 C   0  0  0  0  0  0  0  0  0  0  0  0
  -24.3210   -9.5860   21.8980 C   0  0  0  0  0  3  0  0  0  0  0  0
  -23.5890   -8.3950   22.0970 C   0  0  0  0  0  3  0  0  0  0  0  0
  -22.3950   -8.1660   21.3720 C   0  0  0  0  0  0  0  0  0  0  0  0
  -21.9670   -9.1230   20.4380 C   0  0  0  0  0  3  0  0  0  0  0  0
  -22.6990  -10.3050   20.2360 C   0  0  0  0  0  3  0  0  0  0  0  0
  -21.6340   -7.0280   21.4820 O   0  0  0  0  0  0  0  0  0  0  0  0
  -21.6160   -6.2800   22.6320 C   0  0  0  0  0  0  0  0  0  0  0  0
  -21.2550   -6.8380   23.8780 C   0  0  0  0  0  3  0  0  0  0  0  0
  -21.1830   -6.0180   25.0220 C   0  0  0  0  0  3  0  0  0  0  0  0
  -21.4630   -4.6420   24.9220 C   0  0  0  0  0  0  0  0  0  0  0  0
  -21.8190   -4.0840   23.6810 C   0  0  0  0  0  3  0  0  0  0  0  0
  -21.8930   -4.9010   22.5400 C   0  0  0  0  0  0  0  0  0  0  0  0
  -22.2140   -4.3530   21.3430 F   0  0  0  0  0  0  0  0  0  0  0  0
  -21.3870   -3.8530   26.0190 F   0  0  0  0  0  0  0  0  0  0  0  0
  -22.7640  -13.6550   21.0750 C   0  0  0  0  0  0  0  0  0  0  0  0
  -22.0450  -12.9730   21.9600 N   0  0  0  0  0  0  0  0  0  0  0  0
  -22.3250  -14.6780   20.5500 O   0  0  0  0  0  0  0  0  0  0  0  0
  -22.4140  -12.1470   22.4080 H   0  0  0  0  0  0  0  0  0  0  0  0
  -21.1120  -13.2820   22.1940 H   0  0  0  0  0  0  0  0  0  0  0  0
  -25.3940  -15.2960   20.2030 N   0  0  0  0  0  0  0  0  0  0  0  0
  -24.6330  -15.9580   20.3130 H   0  0  0  0  0  0  0  0  0  0  0  0
  -26.2420  -15.7220   19.8500 H   0  0  0  0  0  0  0  0  0  0  0  0
  -27.9710  -25.0060   19.7380 C   0  0  0  0  0  2  0  0  0  0  0  0
  -28.2780  -26.4400   20.0040 O   0  0  0  0  0  0  0  0  0  0  0  0
  -24.6510  -31.8530   23.1510 C   0  0  0  0  0  0  0  0  0  0  0  0
  -27.1860  -27.3370   19.9530 C   0  0  0  0  0  0  0  0  0  0  0  0
  -23.4110  -30.4790   21.5190 C   0  0  0  0  0  3  0  0  0  0  0  0
  -24.8280  -28.9660   20.0280 C   0  0  0  0  0  0  0  0  0  0  0  0
  -25.9480  -30.7960   21.2890 C   0  0  0  0  0  2  0  0  0  0  0  0
  -26.0120  -29.4310   20.6160 C   0  0  0  0  0  0  0  0  0  0  0  0
  -27.1920  -28.6250   20.5800 C   0  0  0  0  0  3  0  0  0  0  0  0
  -25.9840  -26.9630   19.3000 C   0  0  0  0  0  3  0  0  0  0  0  0
  -24.8160  -27.7360   19.3630 C   0  0  0  0  0  3  0  0  0  0  0  0
  -23.5920  -29.8350   20.1230 C   0  0  0  0  0  2  0  0  0  0  0  0
  -24.6900  -31.0590   22.0410 N   0  0  0  0  0  0  0  0  0  0  0  0
  -23.5800  -32.1210   23.7140 O   0  0  0  0  0  0  0  0  0  0  0  0
  -22.7740  -29.4420   22.4750 C   0  0  0  0  0  0  0  0  0  0  0  0
  -21.4460  -29.2580   22.3700 N   0  0  0  0  0  0  0  0  0  0  0  0
  -23.4710  -28.8080   23.2720 O   0  0  0  0  0  0  0  0  0  0  0  0
  -20.9420  -29.8210   21.7000 H   0  0  0  0  0  0  0  0  0  0  0  0
  -18.0880  -28.0200   22.9000 C   0  0  0  0  0  0  0  0  0  0  0  0
  -20.6460  -28.3090   23.1470 C   0  0  0  0  0  3  0  0  0  0  0  0
  -20.7590  -26.8800   22.5670 C   0  0  0  0  0  2  0  0  0  0  0  0
  -19.6510  -26.5460   21.5620 C   0  0  0  0  0  2  0  0  0  0  0  0
  -18.2730  -26.6750   22.2190 C   0  0  0  0  0  2  0  0  0  0  0  0
  -19.2020  -28.7940   23.3210 C   0  0  0  0  0  0  0  0  0  0  0  0
  -18.9730  -30.0530   23.9180 C   0  0  0  0  0  3  0  0  0  0  0  0
  -17.6650  -30.5380   24.0980 C   0  0  0  0  0  3  0  0  0  0  0  0
  -16.5650  -29.7610   23.6930 C   0  0  0  0  0  3  0  0  0  0  0  0
  -16.7780  -28.5040   23.0990 C   0  0  0  0  0  3  0  0  0  0  0  0
  -25.9480  -32.4770   23.7490 C   0  0  0  0  0  3  0  0  0  0  0  0
  -25.6390  -33.8640   24.1250 N   0  0  0  0  0  0  0  0  0  0  0  0
  -25.9430  -34.9390   23.3840 C   0  0  0  0  0  0  0  0  0  0  0  0
  -26.5820  -34.8650   22.3310 O   0  0  0  0  0  0  0  0  0  0  0  0
  -25.0690  -33.9940   24.9470 H   0  0  0  0  0  0  0  0  0  0  0  0
  -24.1930  -36.7270   23.1270 C   0  0  0  0  0  1  0  0  0  0  0  0
  -25.4600  -36.3110   23.8920 C   0  0  0  0  0  3  0  0  0  0  0  0
  -27.6150  -37.1870   24.6790 C   0  0  0  0  0  1  0  0  0  0  0  0
  -26.4820  -37.3740   23.7750 N   0  0  0  0  0  0  0  0  0  0  0  0
  -26.0760  -38.2860   23.9620 H   0  0  0  0  0  0  0  0  0  0  0  0
  -26.5060  -31.6760   24.9900 C   0  0  1  0  0  0  0  0  0  0  0  0
  -25.4450  -31.4070   26.0840 C   0  0  0  0  0  1  0  0  0  0  0  0
  -27.0820  -30.3100   24.5490 C   0  0  0  0  0  1  0  0  0  0  0  0
  -27.6730  -32.4590   25.6360 C   0  0  0  0  0  1  0  0  0  0  0  0
  1  2  1  0
  4  5  1  0
  4  1  1  0
  4  6  1  0
  5 51  1  0
  5  7  1  0
  6  9  1  0
  6  3  1  0
  7  3  1  0
  7  2  1  0
  7  8  1  1
  9 10  1  0
  9 12  1  0
 11  9  1  0
 13 14  1  0
 13 12  2  0
 15 14  1  0
 16 21  1  0
 17 18  1  0
 17 16  1  0
 19 18  1  0
 19 26  1  0
 19 20  1  0
 21 15  1  0
 21 20  1  0
 22 15  2  0
 23 24  2  0
 24 43  1  0
 25 24  1  0
 25 28  1  0
 26 23  1  0
 26 27  1  0
 27 25  2  0
 28 29  1  0
 29 30  2  0
 31 34  1  0
 31 30  1  0
 32 31  2  0
 33 32  1  0
 33 28  2  0
 34 35  1  0
 35 36  1  0
 36 37  2  0
 38 37  1  0
 38 42  1  0
 39 38  2  0
 40 35  2  0
 40 39  1  0
 41 40  1  0
 43 44  1  0
 44 47  1  0
 44 46  1  0
 45 43  2  0
 48 49  1  0
 48 23  1  0
 50 48  1  0
 51 52  1  0
 53 64  2  0
 54 52  1  0
 54 59  1  0
 55 63  1  0
 55 65  1  0
 56 62  1  0
 56 58  1  0
 57 63  1  0
 58 57  1  0
 59 58  2  0
 60 61  1  0
 60 54  2  0
 61 56  2  0
 62 55  1  0
 63 53  1  0
 65 67  2  0
 66 65  1  0
 68 66  1  0
 69 78  2  0
 69 74  1  0
 70 66  1  0
 70 74  1  0
 71 70  1  0
 72 73  1  0
 72 71  1  0
 73 69  1  0
 74 75  2  0
 75 76  1  0
 77 76  2  0
 78 77  1  0
 79 53  1  0
 79 80  1  0
 79 89  1  0
 80 83  1  0
 81 85  1  0
 81 80  1  0
 82 81  2  0
 85 84  1  0
 87 85  1  0
 87 88  1  0
 87 86  1  0
 89 92  1  1
 89 90  1  0
 91 89  1  0
M  ISO  4  14 100  15 100  51 101  52 101
M  END
>  <TORSDO>  (69) 
F 21

>  <SCORE>  (69) 
-13.181

>  <name>  (69) 
68

>  <ligand_id>  (69) 
68

>  <original_smiles>  (69) 
[H]c1c([H])c([H])c2c(c1[H])C([H])([H])C([H])([H])C([H])([H])C2([H])N([H])C(=O)C1([H])N(C(=O)C([H])(N([H])C(=O)C([H])(N([H])C([H])([H])[H])C([H])([H])[H])C(C([H])([H])[H])(C([H])([H])[H])C([H])([H])[H])C([H])([H])c2c([H])c(OC([H])([H])C3([H])C4([H])C([H])([H])C([H])([H])C3(C([H])([H])[H])C([H])([H])C4([H])[N+]([H])([H])C([H])([H])C([H])([H])C([H])([H])C(=O)N3C([H])([H])C([H])([H])C([H])([H])C([H])(n4nc(-c5c([H])c([H])c(Oc6c([H])c([H])c(F)c([H])c6F)c([H])c5[H])c(C(=O)N([H])[H])c4N([H])[H])C3([H])[H])c([H])c([H])c2C1([H])[H]

>  <smiles>  (69) 
[H]c1c([H])c([H])c2c(c1[H])C([H])([H])C([H])([H])C([H])([H])C2([H])N([H])C(=O)C1([H])N(C(=O)C([H])(N([H])C(=O)C([H])(N([H])C([H])([H])[H])C([H])([H])[H])C(C([H])([H])[H])(C([H])([H])[H])C([H])([H])[H])C([H])([H])c2c([H])c(OC([H])([H])C3([H])C4([H])C([H])([H])C([H])([H])C3(C([H])([H])[H])C([H])([H])C4([H])[N+]([H])([H])C([H])([H])C([H])([H])C([H])([H])C(=O)N3C([H])([H])C([H])([H])C([H])([H])C([H])(n4nc(-c5c([H])c([H])c(Oc6c([H])c([H])c(F)c([H])c6F)c([H])c5[H])c(C(=O)N([H])[H])c4N([H])[H])C3([H])[H])c([H])c([H])c2C1([H])[H]

$$$$
69:0:0
     RDKit          3D

 91100  0  0  1  0  0  0  0  0999 V2000
  -30.8780  -18.7910   22.3190 C   0  0  0  0  0  2  0  0  0  0  0  0
  -31.1080  -17.7740   21.2090 C   0  0  0  0  0  2  0  0  0  0  0  0
  -30.3760  -21.2590   19.5250 C   0  0  0  0  0  2  0  0  0  0  0  0
  -31.1830  -20.7800   20.7460 C   0  0  0  0  0  3  0  0  0  0  0  0
  -30.1890  -19.9520   21.6220 C   0  0  0  0  0  3  0  0  0  0  0  0
  -29.1250  -19.3790   20.6650 C   0  0  0  0  0  3  0  0  0  0  0  0
  -29.8550  -17.7970   20.2980 C   0  0  0  0  0  3  0  0  0  0  0  0
  -28.9070  -20.8940   19.7960 C   0  0  0  0  0  3  0  0  0  0  0  0
  -31.7110  -22.3240   22.7050 C   0  0  0  0  0  2  0  0  0  0  0  0
  -31.9770  -21.8880   21.4600 C   0  0  0  0  0  0  0  0  0  0  0  0
  -33.1600  -22.4810   20.7020 C   0  0  0  0  0  1  0  0  0  0  0  0
  -29.3340  -16.1460   20.4740 C   0  0  0  0  0  2  0  0  0  0  0  0
  -30.2120  -14.6990   20.2230 C   0  0  0  0  0  0  0  0  0  0  0  0
  -30.1650  -12.3090   19.2910 C   0  0  0  0  0  2  0  0  0  0  0  0
  -29.1800  -12.1930   18.1020 C   0  0  0  0  0  2  0  0  0  0  0  0
  -27.7530  -11.9210   18.6100 C   0  0  0  0  0  2  0  0  0  0  0  0
  -27.3590  -12.8640   19.7750 C   0  0  0  0  0  3  0  0  0  0  0  0
  -28.4540  -12.9370   20.8530 C   0  0  0  0  0  2  0  0  0  0  0  0
  -29.6870  -13.3960   20.2030 N   0  0  0  0  0  0  0  0  0  0  0  0
  -31.4050  -14.7660   19.8950 O   0  0  0  0  0  0  0  0  0  0  0  0
  -25.0130  -13.3830   20.6440 C   0  0  0  0  0  0  0  0  0  0  0  0
  -23.9860  -12.5790   21.0570 C   0  0  0  0  0  0  0  0  0  0  0  0
  -24.4810  -11.2420   20.9990 C   0  0  0  0  0  0  0  0  0  0  0  0
  -26.0600  -12.5290   20.3420 N   0  0  0  0  0  0  0  0  0  0  0  0
  -25.7550  -11.2380   20.6270 N   0  0  0  0  0  0  0  0  0  0  0  0
  -23.7940   -9.9600   21.2130 C   0  0  0  0  0  0  0  0  0  0  0  0
  -24.2740   -9.0080   22.1390 C   0  0  0  0  0  3  0  0  0  0  0  0
  -23.5810   -7.7930   22.3380 C   0  0  0  0  0  3  0  0  0  0  0  0
  -22.3960   -7.5250   21.6120 C   0  0  0  0  0  0  0  0  0  0  0  0
  -21.9370   -8.4660   20.6750 C   0  0  0  0  0  3  0  0  0  0  0  0
  -22.6310   -9.6720   20.4730 C   0  0  0  0  0  3  0  0  0  0  0  0
  -21.6720   -6.3610   21.7240 O   0  0  0  0  0  0  0  0  0  0  0  0
  -21.6700   -5.6240   22.8790 C   0  0  0  0  0  0  0  0  0  0  0  0
  -21.2070   -6.1560   24.1030 C   0  0  0  0  0  3  0  0  0  0  0  0
  -21.1570   -5.3400   25.2510 C   0  0  0  0  0  3  0  0  0  0  0  0
  -21.5620   -3.9930   25.1770 C   0  0  0  0  0  0  0  0  0  0  0  0
  -22.0190   -3.4620   23.9570 C   0  0  0  0  0  3  0  0  0  0  0  0
  -22.0700   -4.2730   22.8120 C   0  0  0  0  0  0  0  0  0  0  0  0
  -22.4910   -3.7510   21.6350 F   0  0  0  0  0  0  0  0  0  0  0  0
  -21.5060   -3.2060   26.2770 F   0  0  0  0  0  0  0  0  0  0  0  0
  -22.5910  -13.0230   21.3910 C   0  0  0  0  0  0  0  0  0  0  0  0
  -21.9190  -12.3080   22.2870 N   0  0  0  0  0  0  0  0  0  0  0  0
  -22.1070  -14.0370   20.8920 O   0  0  0  0  0  0  0  0  0  0  0  0
  -22.3220  -11.4830   22.7080 H   0  0  0  0  0  0  0  0  0  0  0  0
  -20.9860  -12.5910   22.5540 H   0  0  0  0  0  0  0  0  0  0  0  0
  -25.1370  -14.7570   20.4730 N   0  0  0  0  0  0  0  0  0  0  0  0
  -24.3640  -15.3930   20.6370 H   0  0  0  0  0  0  0  0  0  0  0  0
  -25.9650  -15.2240   20.1270 H   0  0  0  0  0  0  0  0  0  0  0  0
  -28.2010  -22.4130   20.3590 C   0  0  0  0  0  2  0  0  0  0  0  0
  -27.8760  -23.9530   19.5550 C   0  0  0  0  0  2  0  0  0  0  0  0
  -27.9630  -25.5230   19.9760 O   0  0  0  0  0  0  0  0  0  0  0  0
  -24.7160  -31.5180   23.0800 C   0  0  0  0  0  0  0  0  0  0  0  0
  -26.9740  -26.6210   19.8930 C   0  0  0  0  0  0  0  0  0  0  0  0
  -23.4270  -30.2270   21.4260 C   0  0  0  0  0  3  0  0  0  0  0  0
  -24.7620  -28.5870   19.9350 C   0  0  0  0  0  0  0  0  0  0  0  0
  -25.9900  -30.3150   21.2390 C   0  0  0  0  0  2  0  0  0  0  0  0
  -25.9770  -28.9210   20.5520 C   0  0  0  0  0  0  0  0  0  0  0  0
  -27.0760  -27.9570   20.5050 C   0  0  0  0  0  3  0  0  0  0  0  0
  -25.7380  -26.4290   19.2300 C   0  0  0  0  0  3  0  0  0  0  0  0
  -24.6690  -27.3630   19.2540 C   0  0  0  0  0  3  0  0  0  0  0  0
  -23.5950  -29.5660   20.0290 C   0  0  0  0  0  2  0  0  0  0  0  0
  -24.7340  -30.7100   21.9730 N   0  0  0  0  0  0  0  0  0  0  0  0
  -23.6500  -31.8530   23.6230 O   0  0  0  0  0  0  0  0  0  0  0  0
  -22.6910  -29.2470   22.3760 C   0  0  0  0  0  0  0  0  0  0  0  0
  -21.3510  -29.1740   22.2770 N   0  0  0  0  0  0  0  0  0  0  0  0
  -23.3320  -28.5550   23.1720 O   0  0  0  0  0  0  0  0  0  0  0  0
  -20.8890  -29.7860   21.6180 H   0  0  0  0  0  0  0  0  0  0  0  0
  -17.9060  -28.1750   22.8240 C   0  0  0  0  0  0  0  0  0  0  0  0
  -20.4820  -28.2650   23.0340 C   0  0  0  0  0  3  0  0  0  0  0  0
  -20.4760  -26.8500   22.4100 C   0  0  0  0  0  2  0  0  0  0  0  0
  -19.3340  -26.6340   21.4120 C   0  0  0  0  0  2  0  0  0  0  0  0
  -17.9810  -26.8440   22.0960 C   0  0  0  0  0  2  0  0  0  0  0  0
  -19.0820  -28.8510   23.2490 C   0  0  0  0  0  0  0  0  0  0  0  0
  -18.9570  -30.1000   23.8940 C   0  0  0  0  0  3  0  0  0  0  0  0
  -17.6920  -30.6760   24.1110 C   0  0  0  0  0  3  0  0  0  0  0  0
  -16.5310  -29.9980   23.7020 C   0  0  0  0  0  3  0  0  0  0  0  0
  -16.6380  -28.7480   23.0660 C   0  0  0  0  0  3  0  0  0  0  0  0
  -26.0280  -32.0750   23.7120 C   0  0  0  0  0  3  0  0  0  0  0  0
  -26.5400  -31.2200   24.9370 C   0  0  1  0  0  0  0  0  0  0  0  0
  -25.4670  -30.9710   26.0240 C   0  0  0  0  0  1  0  0  0  0  0  0
  -27.0470  -29.8400   24.4620 C   0  0  0  0  0  1  0  0  0  0  0  0
  -27.7430  -31.9290   25.6070 C   0  0  0  0  0  1  0  0  0  0  0  0
  -25.7730  -33.4650   24.1320 N   0  0  0  0  0  0  0  0  0  0  0  0
  -26.1680  -34.5530   23.4590 C   0  0  0  0  0  0  0  0  0  0  0  0
  -26.8480  -34.4920   22.4330 O   0  0  0  0  0  0  0  0  0  0  0  0
  -25.1690  -33.5890   24.9320 H   0  0  0  0  0  0  0  0  0  0  0  0
  -24.5570  -36.4760   23.2080 C   0  0  0  0  0  1  0  0  0  0  0  0
  -25.7480  -35.9320   24.0140 C   0  0  0  0  0  3  0  0  0  0  0  0
  -27.8990  -36.6290   24.9800 C   0  0  0  0  0  1  0  0  0  0  0  0
  -26.8420  -36.9270   24.0140 N   0  0  0  0  0  0  0  0  0  0  0  0
  -26.4850  -37.8560   24.2210 H   0  0  0  0  0  0  0  0  0  0  0  0
  2  1  1  0
  3  8  1  0
  3  4  1  0
  4 10  1  0
  4  5  1  0
  5  1  1  0
  6  5  1  0
  7 12  1  0
  7  6  1  0
  7  2  1  0
  8 49  1  0
  8  6  1  0
 10  9  2  0
 11 10  1  0
 13 12  1  0
 14 19  1  0
 15 16  1  0
 15 14  1  0
 16 17  1  0
 17 24  1  0
 17 18  1  0
 19 13  1  0
 19 18  1  0
 20 13  2  0
 21 22  2  0
 22 41  1  0
 23 22  1  0
 23 26  1  0
 24 25  1  0
 24 21  1  0
 25 23  2  0
 26 27  1  0
 27 28  2  0
 29 32  1  0
 29 28  1  0
 30 29  2  0
 31 30  1  0
 31 26  2  0
 32 33  1  0
 33 34  1  0
 34 35  2  0
 36 35  1  0
 36 40  1  0
 37 36  2  0
 38 33  2  0
 38 37  1  0
 39 38  1  0
 41 42  1  0
 42 45  1  0
 42 44  1  0
 43 41  2  0
 46 47  1  0
 46 21  1  0
 48 46  1  0
 50 51  1  0
 50 49  1  0
 52 63  2  0
 52 78  1  0
 53 51  1  0
 53 58  1  0
 54 62  1  0
 54 64  1  0
 55 61  1  0
 55 57  1  0
 56 62  1  0
 57 56  1  0
 58 57  2  0
 59 60  1  0
 59 53  2  0
 60 55  2  0
 61 54  1  0
 62 52  1  0
 64 66  2  0
 65 64  1  0
 65 69  1  0
 67 65  1  0
 68 77  2  0
 68 73  1  0
 69 73  1  0
 70 69  1  0
 71 72  1  0
 71 70  1  0
 72 68  1  0
 73 74  2  0
 74 75  1  0
 76 75  2  0
 77 76  1  0
 78 83  1  0
 78 79  1  0
 79 82  1  1
 79 80  1  0
 81 79  1  0
 83 86  1  0
 84 88  1  0
 84 83  1  0
 85 84  2  0
 87 88  1  0
 90 88  1  0
 90 91  1  0
 90 89  1  0
M  ISO  4  12 100  13 100  50 101  51 101
M  END
>  <TORSDO>  (70) 
F 20

>  <SCORE>  (70) 
-12.917

>  <name>  (70) 
69

>  <ligand_id>  (70) 
69

>  <original_smiles>  (70) 
[H]C([H])=C(C([H])([H])[H])C1([H])C([H])([H])C([H])(C([H])([H])C([H])([H])Oc2c([H])c([H])c3c(c2[H])C([H])([H])N(C(=O)C([H])(N([H])C(=O)C([H])(N([H])C([H])([H])[H])C([H])([H])[H])C(C([H])([H])[H])(C([H])([H])[H])C([H])([H])[H])C([H])(C(=O)N([H])C2([H])c4c([H])c([H])c([H])c([H])c4C([H])([H])C([H])([H])C2([H])[H])C3([H])[H])C2([H])C([H])(C([H])([H])C(=O)N3C([H])([H])C([H])([H])C([H])([H])C([H])(n4nc(-c5c([H])c([H])c(Oc6c([H])c([H])c(F)c([H])c6F)c([H])c5[H])c(C(=O)N([H])[H])c4N([H])[H])C3([H])[H])C([H])([H])C([H])([H])C12[H]

>  <smiles>  (70) 
[H]C([H])=C(C([H])([H])[H])C1([H])C([H])([H])C([H])(C([H])([H])C([H])([H])Oc2c([H])c([H])c3c(c2[H])C([H])([H])N(C(=O)C([H])(N([H])C(=O)C([H])(N([H])C([H])([H])[H])C([H])([H])[H])C(C([H])([H])[H])(C([H])([H])[H])C([H])([H])[H])C([H])(C(=O)N([H])C2([H])c4c([H])c([H])c([H])c([H])c4C([H])([H])C([H])([H])C2([H])[H])C3([H])[H])C2([H])C([H])(C([H])([H])C(=O)N3C([H])([H])C([H])([H])C([H])([H])C([H])(n4nc(-c5c([H])c([H])c(Oc6c([H])c([H])c(F)c([H])c6F)c([H])c5[H])c(C(=O)N([H])[H])c4N([H])[H])C3([H])[H])C([H])([H])C([H])([H])C12[H]

$$$$
70:0:0
     RDKit          3D

 87 95  0  0  1  0  0  0  0  0999 V2000
  -29.6050  -20.8240   20.1170 C   0  0  0  0  0  0  0  0  0  0  0  0
  -28.8920  -21.9780   20.5160 N   0  0  0  0  0  0  0  0  0  0  0  0
  -30.4750  -20.9670   19.2570 O   0  0  0  0  0  0  0  0  0  0  0  0
  -28.1730  -21.8170   21.2120 H   0  0  0  0  0  0  0  0  0  0  0  0
  -30.6680  -18.7730   21.3460 C   0  0  0  0  0  2  0  0  0  0  0  0
  -29.3950  -19.3470   20.7470 C   0  0  0  0  0  3  0  0  0  0  0  0
  -30.0580  -17.8800   20.2960 C   0  0  0  0  0  3  0  0  0  0  0  0
  -29.7020  -16.3150   20.7180 C   0  0  0  0  0  2  0  0  0  0  0  0
  -30.5540  -14.9460   20.3630 C   0  0  0  0  0  0  0  0  0  0  0  0
  -30.4520  -12.6150   19.3730 C   0  0  0  0  0  2  0  0  0  0  0  0
  -29.5200  -12.6280   18.1370 C   0  0  0  0  0  2  0  0  0  0  0  0
  -28.0510  -12.4180   18.5560 C   0  0  0  0  0  2  0  0  0  0  0  0
  -27.6470  -13.3170   19.7520 C   0  0  0  0  0  3  0  0  0  0  0  0
  -28.6970  -13.2790   20.8830 C   0  0  0  0  0  2  0  0  0  0  0  0
  -29.9880  -13.6760   20.3070 N   0  0  0  0  0  0  0  0  0  0  0  0
  -31.7370  -15.0490   20.0180 O   0  0  0  0  0  0  0  0  0  0  0  0
  -25.2550  -13.8920   20.4680 C   0  0  0  0  0  0  0  0  0  0  0  0
  -24.1910  -13.1140   20.8330 C   0  0  0  0  0  0  0  0  0  0  0  0
  -24.6620  -11.7640   20.8110 C   0  0  0  0  0  0  0  0  0  0  0  0
  -26.3050  -13.0180   20.2390 N   0  0  0  0  0  0  0  0  0  0  0  0
  -25.9560  -11.7330   20.5110 N   0  0  0  0  0  0  0  0  0  0  0  0
  -23.9410  -10.4990   21.0010 C   0  0  0  0  0  0  0  0  0  0  0  0
  -24.3590   -9.5450   21.9550 C   0  0  0  0  0  3  0  0  0  0  0  0
  -23.6370   -8.3460   22.1320 C   0  0  0  0  0  3  0  0  0  0  0  0
  -22.4820   -8.0910   21.3540 C   0  0  0  0  0  0  0  0  0  0  0  0
  -22.0830   -9.0340   20.3910 C   0  0  0  0  0  3  0  0  0  0  0  0
  -22.8060  -10.2240   20.2120 C   0  0  0  0  0  3  0  0  0  0  0  0
  -21.7330   -6.9420   21.4390 O   0  0  0  0  0  0  0  0  0  0  0  0
  -21.6520   -6.2200   22.6040 C   0  0  0  0  0  0  0  0  0  0  0  0
  -21.1660   -6.7900   23.8000 C   0  0  0  0  0  3  0  0  0  0  0  0
  -21.0320   -5.9940   24.9550 C   0  0  0  0  0  3  0  0  0  0  0  0
  -21.3750   -4.6290   24.9150 C   0  0  0  0  0  0  0  0  0  0  0  0
  -21.8540   -4.0580   23.7210 C   0  0  0  0  0  3  0  0  0  0  0  0
  -21.9880   -4.8520   22.5690 C   0  0  0  0  0  0  0  0  0  0  0  0
  -22.4300   -4.2920   21.4170 F   0  0  0  0  0  0  0  0  0  0  0  0
  -21.2400   -3.8620   26.0210 F   0  0  0  0  0  0  0  0  0  0  0  0
  -22.7890  -13.5840   21.0910 C   0  0  0  0  0  0  0  0  0  0  0  0
  -22.0550  -12.8840   21.9470 N   0  0  0  0  0  0  0  0  0  0  0  0
  -22.3530  -14.6100   20.5670 O   0  0  0  0  0  0  0  0  0  0  0  0
  -22.4190  -12.0560   22.3940 H   0  0  0  0  0  0  0  0  0  0  0  0
  -21.1130  -13.1830   22.1620 H   0  0  0  0  0  0  0  0  0  0  0  0
  -25.4140  -15.2620   20.2870 N   0  0  0  0  0  0  0  0  0  0  0  0
  -24.6460  -15.9160   20.3970 H   0  0  0  0  0  0  0  0  0  0  0  0
  -26.2670  -15.7050   19.9700 H   0  0  0  0  0  0  0  0  0  0  0  0
  -29.1170  -23.4890   20.1380 C   0  0  0  0  0  3  0  0  0  0  0  0
  -28.0350  -24.7280   20.4380 C   0  0  0  0  0  3  0  0  0  0  0  0
  -28.2860  -26.2470   20.2380 O   0  0  0  0  0  0  0  0  0  0  0  0
  -24.6170  -31.8840   23.2320 C   0  0  0  0  0  0  0  0  0  0  0  0
  -27.2080  -27.1970   20.2030 C   0  0  0  0  0  0  0  0  0  0  0  0
  -23.4170  -30.4830   21.5970 C   0  0  0  0  0  3  0  0  0  0  0  0
  -24.8670  -28.9140   20.1730 C   0  0  0  0  0  0  0  0  0  0  0  0
  -25.9670  -30.7640   21.4250 C   0  0  0  0  0  2  0  0  0  0  0  0
  -26.0450  -29.3720   20.7790 C   0  0  0  0  0  0  0  0  0  0  0  0
  -27.2170  -28.5290   20.7760 C   0  0  0  0  0  3  0  0  0  0  0  0
  -26.0060  -26.8390   19.5540 C   0  0  0  0  0  3  0  0  0  0  0  0
  -24.8590  -27.6600   19.5460 C   0  0  0  0  0  3  0  0  0  0  0  0
  -23.6370  -29.8050   20.2190 C   0  0  0  0  0  2  0  0  0  0  0  0
  -24.6860  -31.0640   22.1400 N   0  0  0  0  0  0  0  0  0  0  0  0
  -23.5310  -32.1660   23.7630 O   0  0  0  0  0  0  0  0  0  0  0  0
  -22.7450  -29.4730   22.5610 C   0  0  0  0  0  0  0  0  0  0  0  0
  -21.4180  -29.2960   22.4340 N   0  0  0  0  0  0  0  0  0  0  0  0
  -23.4200  -28.8530   23.3860 O   0  0  0  0  0  0  0  0  0  0  0  0
  -20.9300  -29.8500   21.7440 H   0  0  0  0  0  0  0  0  0  0  0  0
  -18.0410  -28.0870   22.9390 C   0  0  0  0  0  0  0  0  0  0  0  0
  -20.5990  -28.3570   23.2060 C   0  0  0  0  0  3  0  0  0  0  0  0
  -20.7050  -26.9240   22.6350 C   0  0  0  0  0  2  0  0  0  0  0  0
  -19.6030  -26.5960   21.6220 C   0  0  0  0  0  2  0  0  0  0  0  0
  -18.2220  -26.7380   22.2660 C   0  0  0  0  0  2  0  0  0  0  0  0
  -19.1580  -28.8540   23.3670 C   0  0  0  0  0  0  0  0  0  0  0  0
  -18.9350  -30.1160   23.9590 C   0  0  0  0  0  3  0  0  0  0  0  0
  -17.6270  -30.6120   24.1280 C   0  0  0  0  0  3  0  0  0  0  0  0
  -16.5250  -29.8430   23.7150 C   0  0  0  0  0  3  0  0  0  0  0  0
  -16.7340  -28.5820   23.1270 C   0  0  0  0  0  3  0  0  0  0  0  0
  -25.8950  -32.5230   23.8550 C   0  0  0  0  0  3  0  0  0  0  0  0
  -26.4070  -31.7590   25.1390 C   0  0  1  0  0  0  0  0  0  0  0  0
  -25.3100  -31.5280   26.2050 C   0  0  0  0  0  1  0  0  0  0  0  0
  -26.9910  -30.3790   24.7610 C   0  0  0  0  0  1  0  0  0  0  0  0
  -27.5550  -32.5570   25.8000 C   0  0  0  0  0  1  0  0  0  0  0  0
  -25.5820  -33.9220   24.1830 N   0  0  0  0  0  0  0  0  0  0  0  0
  -25.9110  -34.9760   23.4230 C   0  0  0  0  0  0  0  0  0  0  0  0
  -26.5770  -34.8720   22.3890 O   0  0  0  0  0  0  0  0  0  0  0  0
  -24.9900  -34.0770   24.9840 H   0  0  0  0  0  0  0  0  0  0  0  0
  -24.1840  -36.7730   23.0720 C   0  0  0  0  0  1  0  0  0  0  0  0
  -25.4250  -36.3660   23.8820 C   0  0  0  0  0  3  0  0  0  0  0  0
  -27.5600  -37.2530   24.7130 C   0  0  0  0  0  1  0  0  0  0  0  0
  -26.4590  -37.4180   23.7670 N   0  0  0  0  0  0  0  0  0  0  0  0
  -26.0520  -38.3390   23.9110 H   0  0  0  0  0  0  0  0  0  0  0  0
  1  2  1  0
  2  4  1  0
  3  1  2  0
  6  1  1  0
  6  5  1  0
  7  8  1  0
  7  6  1  0
  7  5  1  0
  9  8  1  0
 10 15  1  0
 11 12  1  0
 11 10  1  0
 13 12  1  0
 13 20  1  0
 13 14  1  0
 15  9  1  0
 15 14  1  0
 16  9  2  0
 17 18  2  0
 18 37  1  0
 19 18  1  0
 19 22  1  0
 20 17  1  0
 20 21  1  0
 21 19  2  0
 22 23  1  0
 23 24  2  0
 25 28  1  0
 25 24  1  0
 26 25  2  0
 27 26  1  0
 27 22  2  0
 28 29  1  0
 29 30  1  0
 30 31  2  0
 32 31  1  0
 32 36  1  0
 33 32  2  0
 34 29  2  0
 34 33  1  0
 35 34  1  0
 37 38  1  0
 38 41  1  0
 38 40  1  0
 39 37  2  0
 42 43  1  0
 42 17  1  0
 44 42  1  0
 45 46  2  0
 45  2  1  0
 47 46  1  0
 48 59  2  0
 49 47  1  0
 49 54  1  0
 50 58  1  0
 50 60  1  0
 51 57  1  0
 51 53  1  0
 52 58  1  0
 53 52  1  0
 54 53  2  0
 55 49  2  0
 56 55  1  0
 56 51  2  0
 57 50  1  0
 58 48  1  0
 60 62  2  0
 61 60  1  0
 63 61  1  0
 64 73  2  0
 64 69  1  0
 65 61  1  0
 65 69  1  0
 66 65  1  0
 67 68  1  0
 67 66  1  0
 68 64  1  0
 69 70  2  0
 70 71  1  0
 72 71  2  0
 73 72  1  0
 74 48  1  0
 74 79  1  0
 74 75  1  0
 75 78  1  1
 75 76  1  0
 77 75  1  0
 79 82  1  0
 80 84  1  0
 80 79  1  0
 81 80  2  0
 84 83  1  0
 86 84  1  0
 86 87  1  0
 86 85  1  0
M  ISO  4   8 100   9 100  46 101  47 101
M  END
>  <TORSDO>  (71) 
F 20

>  <SCORE>  (71) 
-13.637

>  <name>  (71) 
70

>  <ligand_id>  (71) 
70

>  <original_smiles>  (71) 
[H]c1c([H])c([H])c2c(c1[H])C([H])([H])C([H])([H])C([H])([H])C2([H])N([H])C(=O)C1([H])N(C(=O)C([H])(N([H])C(=O)C([H])(N([H])C([H])([H])[H])C([H])([H])[H])C(C([H])([H])[H])(C([H])([H])[H])C([H])([H])[H])C([H])([H])c2c([H])c(OC([H])([H])C([H])([H])N([H])C(=O)C3([H])C([H])([H])C3([H])C([H])([H])C(=O)N3C([H])([H])C([H])([H])C([H])([H])C([H])(n4nc(-c5c([H])c([H])c(Oc6c([H])c([H])c(F)c([H])c6F)c([H])c5[H])c(C(=O)N([H])[H])c4N([H])[H])C3([H])[H])c([H])c([H])c2C1([H])[H]

>  <smiles>  (71) 
[H]c1c([H])c([H])c2c(c1[H])C([H])([H])C([H])([H])C([H])([H])C2([H])N([H])C(=O)C1([H])N(C(=O)C([H])(N([H])C(=O)C([H])(N([H])C([H])([H])[H])C([H])([H])[H])C(C([H])([H])[H])(C([H])([H])[H])C([H])([H])[H])C([H])([H])c2c([H])c(OC([H])([H])C([H])([H])N([H])C(=O)C3([H])C([H])([H])C3([H])C([H])([H])C(=O)N3C([H])([H])C([H])([H])C([H])([H])C([H])(n4nc(-c5c([H])c([H])c(Oc6c([H])c([H])c(F)c([H])c6F)c([H])c5[H])c(C(=O)N([H])[H])c4N([H])[H])C3([H])[H])c([H])c([H])c2C1([H])[H]

$$$$
71:0:0
     RDKit          3D

 94103  0  0  1  0  0  0  0  0999 V2000
  -33.1350  -19.3070   22.0950 C   0  0  0  0  0  3  0  0  0  0  0  0
  -34.2620  -19.0330   21.2970 C   0  0  0  0  0  3  0  0  0  0  0  0
  -32.8100  -18.6310   19.3770 C   0  0  0  0  0  3  0  0  0  0  0  0
  -31.8410  -19.2420   21.5400 C   0  0  0  0  0  0  0  0  0  0  0  0
  -31.6770  -18.8880   20.1780 C   0  0  0  0  0  0  0  0  0  0  0  0
  -34.1020  -18.6970   19.9360 C   0  0  0  0  0  0  0  0  0  0  0  0
  -30.6180  -19.5800   22.3900 C   0  0  0  0  0  2  0  0  0  0  0  0
  -29.5530  -20.4410   21.6580 C   0  0  0  0  0  2  0  0  0  0  0  0
  -30.2650  -18.8450   19.6030 C   0  0  0  0  0  3  0  0  0  0  0  0
  -29.7340  -20.4800   20.1260 C   0  0  0  0  0  3  0  0  0  0  0  0
  -35.3130  -18.4060   19.0740 C   0  0  0  0  0  1  0  0  0  0  0  0
  -28.8940  -21.7230   19.4470 N   0  0  0  0  0  4  0  0  0  0  0  0
  -27.9210  -21.4920   19.5630 H   0  0  0  0  0  0  0  0  0  0  0  0
  -29.0650  -21.6500   18.4550 H   0  0  0  0  0  0  0  0  0  0  0  0
  -29.0560  -23.3330   19.8120 C   0  0  0  0  0  3  0  0  0  0  0  0
  -28.0550  -24.7280   19.3600 C   0  0  0  0  0  3  0  0  0  0  0  0
  -28.2070  -26.3340   19.6040 O   0  0  0  0  0  0  0  0  0  0  0  0
  -24.5350  -31.8620   23.0960 C   0  0  0  0  0  0  0  0  0  0  0  0
  -27.1310  -27.3480   19.6430 C   0  0  0  0  0  0  0  0  0  0  0  0
  -23.3090  -30.5100   21.4420 C   0  0  0  0  0  3  0  0  0  0  0  0
  -24.7420  -29.0740   19.8420 C   0  0  0  0  0  0  0  0  0  0  0  0
  -25.8450  -30.8700   21.1620 C   0  0  0  0  0  2  0  0  0  0  0  0
  -25.9410  -29.5110   20.4170 C   0  0  0  0  0  0  0  0  0  0  0  0
  -27.1280  -28.6690   20.2980 C   0  0  0  0  0  3  0  0  0  0  0  0
  -25.8950  -27.0510   19.0270 C   0  0  0  0  0  3  0  0  0  0  0  0
  -24.7380  -27.8650   19.1270 C   0  0  0  0  0  3  0  0  0  0  0  0
  -23.4850  -29.9230   20.0150 C   0  0  0  0  0  2  0  0  0  0  0  0
  -24.5860  -31.1040   21.9540 N   0  0  0  0  0  0  0  0  0  0  0  0
  -23.4680  -32.0650   23.6970 O   0  0  0  0  0  0  0  0  0  0  0  0
  -22.7230  -29.4250   22.3800 C   0  0  0  0  0  0  0  0  0  0  0  0
  -21.4090  -29.1510   22.2690 N   0  0  0  0  0  0  0  0  0  0  0  0
  -23.4540  -28.8280   23.1750 O   0  0  0  0  0  0  0  0  0  0  0  0
  -20.8670  -29.6870   21.6050 H   0  0  0  0  0  0  0  0  0  0  0  0
  -18.1690  -27.5860   22.7170 C   0  0  0  0  0  0  0  0  0  0  0  0
  -20.6820  -28.1220   23.0180 C   0  0  0  0  0  3  0  0  0  0  0  0
  -20.9430  -26.7160   22.4280 C   0  0  0  0  0  2  0  0  0  0  0  0
  -19.8940  -26.2910   21.3950 C   0  0  0  0  0  2  0  0  0  0  0  0
  -18.4970  -26.2750   22.0230 C   0  0  0  0  0  2  0  0  0  0  0  0
  -19.1930  -28.4600   23.1690 C   0  0  0  0  0  0  0  0  0  0  0  0
  -18.8300  -29.6800   23.7820 C   0  0  0  0  0  3  0  0  0  0  0  0
  -17.4760  -30.0310   23.9430 C   0  0  0  0  0  3  0  0  0  0  0  0
  -16.4670  -29.1570   23.5040 C   0  0  0  0  0  3  0  0  0  0  0  0
  -16.8140  -27.9360   22.8970 C   0  0  0  0  0  3  0  0  0  0  0  0
  -25.8140  -32.5240   23.6940 C   0  0  0  0  0  3  0  0  0  0  0  0
  -26.3840  -31.7500   24.9470 C   0  0  1  0  0  0  0  0  0  0  0  0
  -25.3220  -31.4460   26.0290 C   0  0  0  0  0  1  0  0  0  0  0  0
  -27.0180  -30.4040   24.5240 C   0  0  0  0  0  1  0  0  0  0  0  0
  -27.5130  -32.5780   25.6060 C   0  0  0  0  0  1  0  0  0  0  0  0
  -25.4750  -33.9080   24.0650 N   0  0  0  0  0  0  0  0  0  0  0  0
  -25.7680  -34.9920   23.3340 C   0  0  0  0  0  0  0  0  0  0  0  0
  -26.4150  -34.9320   22.2860 O   0  0  0  0  0  0  0  0  0  0  0  0
  -24.8940  -34.0270   24.8830 H   0  0  0  0  0  0  0  0  0  0  0  0
  -23.9950  -36.7640   23.0790 C   0  0  0  0  0  1  0  0  0  0  0  0
  -25.2640  -36.3590   23.8440 C   0  0  0  0  0  3  0  0  0  0  0  0
  -27.3960  -37.2730   24.6530 C   0  0  0  0  0  1  0  0  0  0  0  0
  -26.2720  -37.4370   23.7340 N   0  0  0  0  0  0  0  0  0  0  0  0
  -25.8490  -38.3440   23.9090 H   0  0  0  0  0  0  0  0  0  0  0  0
  -29.8310  -17.1610   19.9830 C   0  0  0  0  0  2  0  0  0  0  0  0
  -30.6570  -15.6490   19.7190 C   0  0  0  0  0  0  0  0  0  0  0  0
  -30.6330  -13.1810   18.9420 C   0  0  0  0  0  2  0  0  0  0  0  0
  -29.6450  -12.9710   17.7660 C   0  0  0  0  0  2  0  0  0  0  0  0
  -28.2220  -12.7040   18.2880 C   0  0  0  0  0  2  0  0  0  0  0  0
  -27.8280  -13.6810   19.4240 C   0  0  0  0  0  3  0  0  0  0  0  0
  -28.9370  -13.8550   20.4820 C   0  0  0  0  0  2  0  0  0  0  0  0
  -30.1420  -14.3290   19.7840 N   0  0  0  0  0  0  0  0  0  0  0  0
  -31.8360  -15.6650   19.3410 O   0  0  0  0  0  0  0  0  0  0  0  0
  -25.5320  -14.2180   20.4000 C   0  0  0  0  0  0  0  0  0  0  0  0
  -24.4940  -13.4320   20.8150 C   0  0  0  0  0  0  0  0  0  0  0  0
  -24.9390  -12.0810   20.6730 C   0  0  0  0  0  0  0  0  0  0  0  0
  -26.5400  -13.3500   20.0220 N   0  0  0  0  0  0  0  0  0  0  0  0
  -26.2000  -12.0540   20.2530 N   0  0  0  0  0  0  0  0  0  0  0  0
  -24.2140  -10.8170   20.8560 C   0  0  0  0  0  0  0  0  0  0  0  0
  -24.6490   -9.8400   21.7790 C   0  0  0  0  0  3  0  0  0  0  0  0
  -23.9220   -8.6430   21.9510 C   0  0  0  0  0  3  0  0  0  0  0  0
  -22.7440   -8.4120   21.2010 C   0  0  0  0  0  0  0  0  0  0  0  0
  -22.3270   -9.3780   20.2670 C   0  0  0  0  0  3  0  0  0  0  0  0
  -23.0560  -10.5660   20.0940 C   0  0  0  0  0  3  0  0  0  0  0  0
  -21.9880   -7.2680   21.2820 O   0  0  0  0  0  0  0  0  0  0  0  0
  -21.8690   -6.5660   22.4550 C   0  0  0  0  0  0  0  0  0  0  0  0
  -21.3280   -7.1500   23.6210 C   0  0  0  0  0  3  0  0  0  0  0  0
  -21.1590   -6.3720   24.7840 C   0  0  0  0  0  3  0  0  0  0  0  0
  -21.5220   -5.0120   24.7820 C   0  0  0  0  0  0  0  0  0  0  0  0
  -22.0550   -4.4270   23.6200 C   0  0  0  0  0  3  0  0  0  0  0  0
  -22.2250   -5.2020   22.4590 C   0  0  0  0  0  0  0  0  0  0  0  0
  -22.7200   -4.6290   21.3350 F   0  0  0  0  0  0  0  0  0  0  0  0
  -21.3530   -4.2630   25.8960 F   0  0  0  0  0  0  0  0  0  0  0  0
  -23.1290  -13.9060   21.2220 C   0  0  0  0  0  0  0  0  0  0  0  0
  -22.4740  -13.1830   22.1240 N   0  0  0  0  0  0  0  0  0  0  0  0
  -22.6570  -14.9500   20.7770 O   0  0  0  0  0  0  0  0  0  0  0  0
  -22.8690  -12.3370   22.5050 H   0  0  0  0  0  0  0  0  0  0  0  0
  -21.5610  -13.4840   22.4380 H   0  0  0  0  0  0  0  0  0  0  0  0
  -25.6970  -15.5960   20.2870 N   0  0  0  0  0  0  0  0  0  0  0  0
  -24.9500  -16.2480   20.5040 H   0  0  0  0  0  0  0  0  0  0  0  0
  -26.5210  -16.0490   19.9160 H   0  0  0  0  0  0  0  0  0  0  0  0
  2  1  2  0
  3  6  2  0
  3  5  1  0
  4  1  1  0
  4  7  1  0
  5  4  2  0
  6  2  1  0
  8  7  1  0
  9 58  1  0
  9 10  1  0
  9  5  1  0
 10 12  1  0
 10  8  1  0
 11  6  1  0
 12 13  1  0
 12 15  1  0
 14 12  1  0
 16 17  1  0
 16 15  2  0
 17 19  1  0
 18 29  2  0
 19 24  1  0
 20 28  1  0
 20 30  1  0
 21 27  1  0
 21 23  1  0
 22 28  1  0
 23 22  1  0
 24 23  2  0
 25 26  1  0
 25 19  2  0
 26 21  2  0
 27 20  1  0
 28 18  1  0
 30 32  2  0
 31 30  1  0
 33 31  1  0
 34 43  2  0
 34 39  1  0
 35 31  1  0
 35 39  1  0
 36 35  1  0
 37 38  1  0
 37 36  1  0
 38 34  1  0
 39 40  2  0
 40 41  1  0
 42 41  2  0
 43 42  1  0
 44 18  1  0
 44 49  1  0
 44 45  1  0
 45 48  1  1
 45 46  1  0
 47 45  1  0
 49 52  1  0
 50 54  1  0
 50 49  1  0
 51 50  2  0
 54 53  1  0
 56 54  1  0
 56 57  1  0
 56 55  1  0
 59 65  1  0
 59 58  1  0
 60 65  1  0
 61 62  1  0
 61 60  1  0
 63 62  1  0
 63 70  1  0
 63 64  1  0
 65 64  1  0
 66 59  2  0
 67 68  2  0
 68 87  1  0
 69 68  1  0
 69 72  1  0
 70 71  1  0
 70 67  1  0
 71 69  2  0
 72 73  1  0
 73 74  2  0
 75 78  1  0
 75 74  1  0
 76 75  2  0
 77 76  1  0
 77 72  2  0
 78 79  1  0
 79 84  2  0
 79 80  1  0
 80 81  2  0
 82 81  1  0
 82 86  1  0
 83 82  2  0
 84 83  1  0
 85 84  1  0
 87 88  1  0
 88 91  1  0
 88 90  1  0
 89 87  2  0
 92 67  1  0
 92 93  1  0
 94 92  1  0
M  ISO  4  16 101  17 101  58 100  59 100
M  END
>  <TORSDO>  (72) 
F 20

>  <SCORE>  (72) 
-14.122

>  <name>  (72) 
71

>  <ligand_id>  (72) 
71

>  <original_smiles>  (72) 
[H]c1c([H])c([H])c2c(c1[H])C([H])([H])C([H])([H])C([H])([H])C2([H])N([H])C(=O)C1([H])N(C(=O)C([H])(N([H])C(=O)C([H])(N([H])C([H])([H])[H])C([H])([H])[H])C(C([H])([H])[H])(C([H])([H])[H])C([H])([H])[H])C([H])([H])c2c([H])c(OC([H])([H])C([H])([H])[N+]([H])([H])C3([H])C([H])([H])C([H])([H])c4c([H])c([H])c(C([H])([H])[H])c([H])c4C3([H])C([H])([H])C(=O)N3C([H])([H])C([H])([H])C([H])([H])C([H])(n4nc(-c5c([H])c([H])c(Oc6c([H])c([H])c(F)c([H])c6F)c([H])c5[H])c(C(=O)N([H])[H])c4N([H])[H])C3([H])[H])c([H])c([H])c2C1([H])[H]

>  <smiles>  (72) 
[H]c1c([H])c([H])c2c(c1[H])C([H])([H])C([H])([H])C([H])([H])C2([H])N([H])C(=O)C1([H])N(C(=O)C([H])(N([H])C(=O)C([H])(N([H])C([H])([H])[H])C([H])([H])[H])C(C([H])([H])[H])(C([H])([H])[H])C([H])([H])[H])C([H])([H])c2c([H])c(OC([H])([H])C([H])([H])[N+]([H])([H])C3([H])C([H])([H])C([H])([H])c4c([H])c([H])c(C([H])([H])[H])c([H])c4C3([H])C([H])([H])C(=O)N3C([H])([H])C([H])([H])C([H])([H])C([H])(n4nc(-c5c([H])c([H])c(Oc6c([H])c([H])c(F)c([H])c6F)c([H])c5[H])c(C(=O)N([H])[H])c4N([H])[H])C3([H])[H])c([H])c([H])c2C1([H])[H]

$$$$
72:0:0
     RDKit          3D

 90 99  0  0  1  0  0  0  0  0999 V2000
  -31.1260  -19.4940   22.1250 C   0  0  0  0  0  2  0  0  0  0  0  0
  -30.7230  -17.9950   21.9780 C   0  0  0  0  0  2  0  0  0  0  0  0
  -29.2460  -18.6820   19.9990 C   0  0  0  0  0  2  0  0  0  0  0  0
  -30.1790  -21.9750   21.7080 C   0  0  0  0  0  2  0  0  0  0  0  0
  -28.8800  -21.4680   19.7930 C   0  0  0  0  0  2  0  0  0  0  0  0
  -29.9940  -20.4370   21.6550 C   0  0  0  0  0  3  0  0  0  0  0  0
  -29.7280  -20.1850   20.1890 C   0  0  0  0  0  3  0  0  0  0  0  0
  -30.2440  -17.5610   20.5590 C   0  0  0  0  0  3  0  0  0  0  0  0
  -29.1240  -22.5550   20.8220 N   0  0  2  0  0  4  0  0  0  0  0  0
  -28.2960  -22.5610   21.4000 H   0  0  0  0  0  0  0  0  0  0  0  0
  -29.6640  -16.0540   20.5640 C   0  0  0  0  0  2  0  0  0  0  0  0
  -30.5640  -14.7470   20.3790 C   0  0  0  0  0  0  0  0  0  0  0  0
  -30.3990  -12.4840   19.3510 C   0  0  0  0  0  2  0  0  0  0  0  0
  -29.4630  -12.5950   18.1240 C   0  0  0  0  0  2  0  0  0  0  0  0
  -27.9860  -12.4240   18.5360 C   0  0  0  0  0  2  0  0  0  0  0  0
  -27.6070  -13.2930   19.7630 C   0  0  0  0  0  3  0  0  0  0  0  0
  -28.6590  -13.1630   20.8870 C   0  0  0  0  0  2  0  0  0  0  0  0
  -29.9740  -13.5060   20.3290 N   0  0  0  0  0  0  0  0  0  0  0  0
  -31.7500  -14.8810   20.0660 O   0  0  0  0  0  0  0  0  0  0  0  0
  -25.2070  -13.8890   20.4580 C   0  0  0  0  0  0  0  0  0  0  0  0
  -24.1380  -13.1150   20.8210 C   0  0  0  0  0  0  0  0  0  0  0  0
  -24.6070  -11.7660   20.8070 C   0  0  0  0  0  0  0  0  0  0  0  0
  -26.2560  -13.0100   20.2400 N   0  0  0  0  0  0  0  0  0  0  0  0
  -25.9000  -11.7280   20.5120 N   0  0  0  0  0  0  0  0  0  0  0  0
  -23.8830  -10.5020   20.9980 C   0  0  0  0  0  0  0  0  0  0  0  0
  -24.3060   -9.5460   21.9460 C   0  0  0  0  0  3  0  0  0  0  0  0
  -23.5830   -8.3460   22.1250 C   0  0  0  0  0  3  0  0  0  0  0  0
  -22.4240   -8.0950   21.3530 C   0  0  0  0  0  0  0  0  0  0  0  0
  -22.0210   -9.0400   20.3940 C   0  0  0  0  0  3  0  0  0  0  0  0
  -22.7430  -10.2310   20.2140 C   0  0  0  0  0  3  0  0  0  0  0  0
  -21.6730   -6.9470   21.4400 O   0  0  0  0  0  0  0  0  0  0  0  0
  -21.6030   -6.2190   22.6020 C   0  0  0  0  0  0  0  0  0  0  0  0
  -21.1400   -6.7870   23.8090 C   0  0  0  0  0  3  0  0  0  0  0  0
  -21.0180   -5.9850   24.9610 C   0  0  0  0  0  3  0  0  0  0  0  0
  -21.3480   -4.6170   24.9080 C   0  0  0  0  0  0  0  0  0  0  0  0
  -21.8040   -4.0500   23.7040 C   0  0  0  0  0  3  0  0  0  0  0  0
  -21.9280   -4.8490   22.5540 C   0  0  0  0  0  0  0  0  0  0  0  0
  -22.3470   -4.2930   21.3920 F   0  0  0  0  0  0  0  0  0  0  0  0
  -21.2240   -3.8460   26.0120 F   0  0  0  0  0  0  0  0  0  0  0  0
  -22.7350  -13.5890   21.0720 C   0  0  0  0  0  0  0  0  0  0  0  0
  -21.9990  -12.8950   21.9320 N   0  0  0  0  0  0  0  0  0  0  0  0
  -22.3010  -14.6100   20.5410 O   0  0  0  0  0  0  0  0  0  0  0  0
  -22.3630  -12.0680   22.3830 H   0  0  0  0  0  0  0  0  0  0  0  0
  -21.0570  -13.1920   22.1420 H   0  0  0  0  0  0  0  0  0  0  0  0
  -25.3700  -15.2590   20.2730 N   0  0  0  0  0  0  0  0  0  0  0  0
  -24.6030  -15.9140   20.3760 H   0  0  0  0  0  0  0  0  0  0  0  0
  -26.2270  -15.6980   19.9650 H   0  0  0  0  0  0  0  0  0  0  0  0
  -29.3670  -24.0180   20.4000 C   0  0  0  0  0  3  0  0  0  0  0  0
  -28.1190  -25.0080   20.2380 C   0  0  0  0  0  3  0  0  0  0  0  0
  -28.3360  -26.4880   20.2470 O   0  0  0  0  0  0  0  0  0  0  0  0
  -24.6030  -31.9300   23.2410 C   0  0  0  0  0  0  0  0  0  0  0  0
  -27.2140  -27.3430   20.2040 C   0  0  0  0  0  0  0  0  0  0  0  0
  -23.4000  -30.5270   21.6050 C   0  0  0  0  0  3  0  0  0  0  0  0
  -24.8500  -28.9700   20.1870 C   0  0  0  0  0  0  0  0  0  0  0  0
  -25.9420  -30.8390   21.4230 C   0  0  0  0  0  2  0  0  0  0  0  0
  -26.0220  -29.4560   20.7800 C   0  0  0  0  0  0  0  0  0  0  0  0
  -27.2070  -28.6590   20.7730 C   0  0  0  0  0  3  0  0  0  0  0  0
  -26.0130  -26.9130   19.5920 C   0  0  0  0  0  3  0  0  0  0  0  0
  -24.8500  -27.7040   19.5820 C   0  0  0  0  0  3  0  0  0  0  0  0
  -23.6150  -29.8470   20.2290 C   0  0  0  0  0  2  0  0  0  0  0  0
  -24.6680  -31.1170   22.1460 N   0  0  0  0  0  0  0  0  0  0  0  0
  -23.5190  -32.2100   23.7720 O   0  0  0  0  0  0  0  0  0  0  0  0
  -22.7350  -29.5150   22.5680 C   0  0  0  0  0  0  0  0  0  0  0  0
  -21.4080  -29.3400   22.4410 N   0  0  0  0  0  0  0  0  0  0  0  0
  -23.4110  -28.8890   23.3880 O   0  0  0  0  0  0  0  0  0  0  0  0
  -20.9210  -29.8960   21.7540 H   0  0  0  0  0  0  0  0  0  0  0  0
  -18.0240  -28.1630   22.9540 C   0  0  0  0  0  0  0  0  0  0  0  0
  -20.5860  -28.4070   23.2150 C   0  0  0  0  0  3  0  0  0  0  0  0
  -20.6760  -26.9750   22.6400 C   0  0  0  0  0  2  0  0  0  0  0  0
  -19.5690  -26.6580   21.6290 C   0  0  0  0  0  2  0  0  0  0  0  0
  -18.1900  -26.8130   22.2770 C   0  0  0  0  0  2  0  0  0  0  0  0
  -19.1490  -28.9180   23.3800 C   0  0  0  0  0  0  0  0  0  0  0  0
  -18.9390  -30.1830   23.9710 C   0  0  0  0  0  3  0  0  0  0  0  0
  -17.6380  -30.6910   24.1410 C   0  0  0  0  0  3  0  0  0  0  0  0
  -16.5280  -29.9330   23.7310 C   0  0  0  0  0  3  0  0  0  0  0  0
  -16.7220  -28.6710   23.1420 C   0  0  0  0  0  3  0  0  0  0  0  0
  -25.8860  -32.5630   23.8630 C   0  0  0  0  0  3  0  0  0  0  0  0
  -26.3980  -31.7970   25.1440 C   0  0  1  0  0  0  0  0  0  0  0  0
  -25.3010  -31.5640   26.2110 C   0  0  0  0  0  1  0  0  0  0  0  0
  -26.9800  -30.4170   24.7590 C   0  0  0  0  0  1  0  0  0  0  0  0
  -27.5470  -32.5930   25.8050 C   0  0  0  0  0  1  0  0  0  0  0  0
  -25.5780  -33.9630   24.1880 N   0  0  0  0  0  0  0  0  0  0  0  0
  -25.9100  -35.0130   23.4250 C   0  0  0  0  0  0  0  0  0  0  0  0
  -26.5780  -34.9060   22.3940 O   0  0  0  0  0  0  0  0  0  0  0  0
  -24.9840  -34.1220   24.9890 H   0  0  0  0  0  0  0  0  0  0  0  0
  -24.1840  -36.8080   23.0670 C   0  0  0  0  0  1  0  0  0  0  0  0
  -25.4240  -36.4040   23.8790 C   0  0  0  0  0  3  0  0  0  0  0  0
  -27.5610  -37.2880   24.7050 C   0  0  0  0  0  1  0  0  0  0  0  0
  -26.4580  -37.4560   23.7650 N   0  0  0  0  0  0  0  0  0  0  0  0
  -26.0520  -38.3750   23.9140 H   0  0  0  0  0  0  0  0  0  0  0  0
  2  1  1  0
  3  7  1  0
  3  8  1  0
  5  9  1  0
  6  4  1  0
  6  1  1  0
  7  5  1  0
  7  6  1  0
  8 11  1  0
  8  2  1  0
  9 10  1  1
  9  4  1  0
 12 11  1  0
 13 18  1  0
 14 15  1  0
 14 13  1  0
 16 15  1  0
 16 23  1  0
 16 17  1  0
 18 12  1  0
 18 17  1  0
 19 12  2  0
 20 21  2  0
 21 40  1  0
 22 21  1  0
 22 25  1  0
 23 20  1  0
 23 24  1  0
 24 22  2  0
 25 26  1  0
 26 27  2  0
 28 31  1  0
 28 27  1  0
 29 28  2  0
 30 29  1  0
 30 25  2  0
 31 32  1  0
 32 33  1  0
 33 34  2  0
 35 34  1  0
 35 39  1  0
 36 35  2  0
 37 32  2  0
 37 36  1  0
 38 37  1  0
 40 41  1  0
 41 44  1  0
 41 43  1  0
 42 40  2  0
 45 46  1  0
 45 20  1  0
 47 45  1  0
 48  9  1  0
 49 50  1  0
 49 48  2  0
 51 62  2  0
 52 50  1  0
 52 57  1  0
 53 61  1  0
 53 63  1  0
 54 60  1  0
 54 56  1  0
 55 61  1  0
 56 55  1  0
 57 56  2  0
 58 52  2  0
 59 58  1  0
 59 54  2  0
 60 53  1  0
 61 51  1  0
 63 65  2  0
 64 63  1  0
 66 64  1  0
 67 76  2  0
 67 72  1  0
 68 64  1  0
 68 72  1  0
 69 68  1  0
 70 71  1  0
 70 69  1  0
 71 67  1  0
 72 73  2  0
 73 74  1  0
 75 74  2  0
 76 75  1  0
 77 51  1  0
 77 82  1  0
 77 78  1  0
 78 81  1  1
 78 79  1  0
 80 78  1  0
 82 85  1  0
 83 87  1  0
 83 82  1  0
 84 83  2  0
 87 86  1  0
 89 87  1  0
 89 90  1  0
 89 88  1  0
M  ISO  4  11 100  12 100  49 101  50 101
M  END
>  <TORSDO>  (73) 
F 19

>  <SCORE>  (73) 
-14.247

>  <name>  (73) 
72

>  <ligand_id>  (73) 
72

>  <original_smiles>  (73) 
[H]c1c([H])c([H])c2c(c1[H])C([H])([H])C([H])([H])C([H])([H])C2([H])N([H])C(=O)C1([H])N(C(=O)C([H])(N([H])C(=O)C([H])(N([H])C([H])([H])[H])C([H])([H])[H])C(C([H])([H])[H])(C([H])([H])[H])C([H])([H])[H])C([H])([H])c2c([H])c(OC([H])([H])C([H])([H])[N+]3([H])C([H])([H])C4([H])C([H])([H])C([H])([H])C([H])(C([H])([H])C(=O)N5C([H])([H])C([H])([H])C([H])([H])C([H])(n6nc(-c7c([H])c([H])c(Oc8c([H])c([H])c(F)c([H])c8F)c([H])c7[H])c(C(=O)N([H])[H])c6N([H])[H])C5([H])[H])C([H])([H])C4([H])C3([H])[H])c([H])c([H])c2C1([H])[H]

>  <smiles>  (73) 
[H]c1c([H])c([H])c2c(c1[H])C([H])([H])C([H])([H])C([H])([H])C2([H])N([H])C(=O)C1([H])N(C(=O)C([H])(N([H])C(=O)C([H])(N([H])C([H])([H])[H])C([H])([H])[H])C(C([H])([H])[H])(C([H])([H])[H])C([H])([H])[H])C([H])([H])c2c([H])c(OC([H])([H])C([H])([H])[N+]3([H])C([H])([H])C4([H])C([H])([H])C([H])([H])C([H])(C([H])([H])C(=O)N5C([H])([H])C([H])([H])C([H])([H])C([H])(n6nc(-c7c([H])c([H])c(Oc8c([H])c([H])c(F)c([H])c8F)c([H])c7[H])c(C(=O)N([H])[H])c6N([H])[H])C5([H])[H])C([H])([H])C4([H])C3([H])[H])c([H])c([H])c2C1([H])[H]

$$$$
73:0:0
     RDKit          3D

 92100  0  0  1  0  0  0  0  0999 V2000
  -28.9430  -20.6460   20.5670 C   0  0  0  0  0  3  0  0  0  0  0  0
  -32.6680  -19.0080   19.1710 C   0  0  0  0  0  2  0  0  0  0  0  0
  -31.7710  -19.6210   18.0790 C   0  0  0  0  0  2  0  0  0  0  0  0
  -31.9920  -17.7940   19.8230 C   0  0  0  0  0  2  0  0  0  0  0  0
  -30.2840  -19.6970   18.4790 C   0  0  0  0  0  2  0  0  0  0  0  0
  -30.5660  -17.9720   20.4520 C   0  0  0  0  0  3  0  0  0  0  0  0
  -30.0650  -19.5440   19.9970 C   0  0  0  0  0  3  0  0  0  0  0  0
  -29.8500  -16.4480   20.2780 C   0  0  0  0  0  2  0  0  0  0  0  0
  -30.6610  -14.9890   20.1650 C   0  0  0  0  0  0  0  0  0  0  0  0
  -30.4920  -12.6680   19.1830 C   0  0  0  0  0  2  0  0  0  0  0  0
  -29.5350  -12.7020   17.9690 C   0  0  0  0  0  2  0  0  0  0  0  0
  -28.0750  -12.5060   18.4230 C   0  0  0  0  0  2  0  0  0  0  0  0
  -27.7090  -13.3890   19.6450 C   0  0  0  0  0  3  0  0  0  0  0  0
  -28.7900  -13.3450   20.7430 C   0  0  0  0  0  2  0  0  0  0  0  0
  -30.0610  -13.7360   20.1270 N   0  0  0  0  0  0  0  0  0  0  0  0
  -31.8700  -14.9950   19.9140 O   0  0  0  0  0  0  0  0  0  0  0  0
  -25.3440  -13.9490   20.4390 C   0  0  0  0  0  0  0  0  0  0  0  0
  -24.2910  -13.1650   20.8250 C   0  0  0  0  0  0  0  0  0  0  0  0
  -24.7610  -11.8170   20.7770 C   0  0  0  0  0  0  0  0  0  0  0  0
  -26.3850  -13.0780   20.1700 N   0  0  0  0  0  0  0  0  0  0  0  0
  -26.0470  -11.7890   20.4410 N   0  0  0  0  0  0  0  0  0  0  0  0
  -24.0450  -10.5500   20.9760 C   0  0  0  0  0  0  0  0  0  0  0  0
  -24.4830   -9.5920   21.9160 C   0  0  0  0  0  3  0  0  0  0  0  0
  -23.7650   -8.3900   22.1010 C   0  0  0  0  0  3  0  0  0  0  0  0
  -22.5940   -8.1380   21.3470 C   0  0  0  0  0  0  0  0  0  0  0  0
  -22.1750   -9.0860   20.3960 C   0  0  0  0  0  3  0  0  0  0  0  0
  -22.8940  -10.2780   20.2090 C   0  0  0  0  0  3  0  0  0  0  0  0
  -21.8470   -6.9890   21.4410 O   0  0  0  0  0  0  0  0  0  0  0  0
  -21.7880   -6.2630   22.6030 C   0  0  0  0  0  0  0  0  0  0  0  0
  -21.3020   -6.8200   23.8050 C   0  0  0  0  0  3  0  0  0  0  0  0
  -21.1930   -6.0180   24.9600 C   0  0  0  0  0  3  0  0  0  0  0  0
  -21.5590   -4.6590   24.9110 C   0  0  0  0  0  0  0  0  0  0  0  0
  -22.0380   -4.1020   23.7120 C   0  0  0  0  0  3  0  0  0  0  0  0
  -22.1500   -4.9000   22.5600 C   0  0  0  0  0  0  0  0  0  0  0  0
  -22.5920   -4.3530   21.4030 F   0  0  0  0  0  0  0  0  0  0  0  0
  -21.4470   -3.8860   26.0160 F   0  0  0  0  0  0  0  0  0  0  0  0
  -22.8970  -13.6330   21.1250 C   0  0  0  0  0  0  0  0  0  0  0  0
  -22.1930  -12.9330   22.0070 N   0  0  0  0  0  0  0  0  0  0  0  0
  -22.4420  -14.6560   20.6140 O   0  0  0  0  0  0  0  0  0  0  0  0
  -22.5750  -12.1050   22.4410 H   0  0  0  0  0  0  0  0  0  0  0  0
  -21.2590  -13.2300   22.2530 H   0  0  0  0  0  0  0  0  0  0  0  0
  -25.4980  -15.3210   20.2690 N   0  0  0  0  0  0  0  0  0  0  0  0
  -24.7340  -15.9750   20.4030 H   0  0  0  0  0  0  0  0  0  0  0  0
  -26.3450  -15.7660   19.9370 H   0  0  0  0  0  0  0  0  0  0  0  0
  -29.2860  -22.1930   20.7050 N   0  0  0  0  0  4  0  0  0  0  0  0
  -29.1570  -22.3490   21.6930 H   0  0  0  0  0  0  0  0  0  0  0  0
  -30.2810  -22.2900   20.5700 H   0  0  0  0  0  0  0  0  0  0  0  0
  -28.6060  -23.4550   20.0340 C   0  0  0  0  0  2  0  0  0  0  0  0
  -28.4240  -24.9090   20.8530 C   0  0  0  0  0  2  0  0  0  0  0  0
  -28.5150  -26.3670   20.3490 O   0  0  0  0  0  0  0  0  0  0  0  0
  -24.6210  -31.8790   23.2880 C   0  0  0  0  0  0  0  0  0  0  0  0
  -27.4090  -27.2740   20.3370 C   0  0  0  0  0  0  0  0  0  0  0  0
  -23.5140  -30.4770   21.5880 C   0  0  0  0  0  3  0  0  0  0  0  0
  -25.0460  -28.9400   20.2160 C   0  0  0  0  0  0  0  0  0  0  0  0
  -26.0620  -30.8050   21.5240 C   0  0  0  0  0  2  0  0  0  0  0  0
  -26.1890  -29.4200   20.8680 C   0  0  0  0  0  0  0  0  0  0  0  0
  -27.3770  -28.6050   20.9060 C   0  0  0  0  0  3  0  0  0  0  0  0
  -26.2400  -26.8730   19.6600 C   0  0  0  0  0  3  0  0  0  0  0  0
  -25.0820  -27.6790   19.5980 C   0  0  0  0  0  3  0  0  0  0  0  0
  -23.8020  -29.8130   20.2140 C   0  0  0  0  0  2  0  0  0  0  0  0
  -24.7490  -31.0750   22.1900 N   0  0  0  0  0  0  0  0  0  0  0  0
  -23.5100  -32.1370   23.7750 O   0  0  0  0  0  0  0  0  0  0  0  0
  -22.8190  -29.4480   22.5130 C   0  0  0  0  0  0  0  0  0  0  0  0
  -21.5000  -29.2560   22.3320 N   0  0  0  0  0  0  0  0  0  0  0  0
  -23.4700  -28.8230   23.3550 O   0  0  0  0  0  0  0  0  0  0  0  0
  -21.0330  -29.8110   21.6280 H   0  0  0  0  0  0  0  0  0  0  0  0
  -18.1170  -28.0180   22.7140 C   0  0  0  0  0  0  0  0  0  0  0  0
  -20.6650  -28.2980   23.0610 C   0  0  0  0  0  3  0  0  0  0  0  0
  -20.7960  -26.8790   22.4630 C   0  0  0  0  0  2  0  0  0  0  0  0
  -19.7280  -26.5650   21.4120 C   0  0  0  0  0  2  0  0  0  0  0  0
  -18.3260  -26.6850   22.0160 C   0  0  0  0  0  2  0  0  0  0  0  0
  -19.2160  -28.7830   23.1900 C   0  0  0  0  0  0  0  0  0  0  0  0
  -18.9660  -30.0310   23.8020 C   0  0  0  0  0  3  0  0  0  0  0  0
  -17.6530  -30.5150   23.9410 C   0  0  0  0  0  3  0  0  0  0  0  0
  -16.5680  -29.7490   23.4810 C   0  0  0  0  0  3  0  0  0  0  0  0
  -16.8010  -28.5010   22.8750 C   0  0  0  0  0  3  0  0  0  0  0  0
  -25.8600  -32.5310   23.9720 C   0  0  0  0  0  3  0  0  0  0  0  0
  -25.5320  -33.9390   24.2460 N   0  0  0  0  0  0  0  0  0  0  0  0
  -25.8970  -34.9720   23.4750 C   0  0  0  0  0  0  0  0  0  0  0  0
  -26.6130  -34.8420   22.4790 O   0  0  0  0  0  0  0  0  0  0  0  0
  -24.9020  -34.1150   25.0150 H   0  0  0  0  0  0  0  0  0  0  0  0
  -24.1810  -36.7510   23.0030 C   0  0  0  0  0  1  0  0  0  0  0  0
  -25.3900  -36.3730   23.8720 C   0  0  0  0  0  3  0  0  0  0  0  0
  -27.4840  -37.2970   24.7650 C   0  0  0  0  0  1  0  0  0  0  0  0
  -26.4240  -37.4260   23.7670 N   0  0  0  0  0  0  0  0  0  0  0  0
  -26.0100  -38.3480   23.8630 H   0  0  0  0  0  0  0  0  0  0  0  0
  -26.2930  -31.7990   25.3030 C   0  0  1  0  0  0  0  0  0  0  0  0
  -25.1320  -31.5880   26.3030 C   0  0  0  0  0  1  0  0  0  0  0  0
  -26.9010  -30.4110   24.9930 C   0  0  0  0  0  1  0  0  0  0  0  0
  -27.3980  -32.6140   26.0130 C   0  0  0  0  0  1  0  0  0  0  0  0
  -27.1650  -20.4680   18.6370 C   0  0  0  0  0  1  0  0  0  0  0  0
  -27.4790  -20.3790   20.1390 C   0  0  0  0  0  2  0  0  0  0  0  0
  1 92  1  0
  1 45  1  0
  2  4  1  0
  3  5  1  0
  3  2  1  0
  4  6  1  0
  5  7  1  0
  6  8  1  0
  7  6  1  0
  7  1  1  0
  9  8  1  0
 10 15  1  0
 11 12  1  0
 11 10  1  0
 13 12  1  0
 13 20  1  0
 13 14  1  0
 15  9  1  0
 15 14  1  0
 16  9  2  0
 17 18  2  0
 18 37  1  0
 19 18  1  0
 19 22  1  0
 20 17  1  0
 20 21  1  0
 21 19  2  0
 22 23  1  0
 23 24  2  0
 25 28  1  0
 25 24  1  0
 26 25  2  0
 27 26  1  0
 27 22  2  0
 28 29  1  0
 29 30  1  0
 30 31  2  0
 32 31  1  0
 32 36  1  0
 33 32  2  0
 34 29  2  0
 34 33  1  0
 35 34  1  0
 37 38  1  0
 38 41  1  0
 38 40  1  0
 39 37  2  0
 42 43  1  0
 42 17  1  0
 44 42  1  0
 45 46  1  0
 47 45  1  0
 48 45  1  0
 48 49  1  0
 50 49  1  0
 51 62  2  0
 52 50  1  0
 52 57  1  0
 53 61  1  0
 53 63  1  0
 54 56  1  0
 55 61  1  0
 56 57  2  0
 56 55  1  0
 58 52  2  0
 59 58  1  0
 59 54  2  0
 60 54  1  0
 60 53  1  0
 61 51  1  0
 63 65  2  0
 64 63  1  0
 66 64  1  0
 67 76  2  0
 67 72  1  0
 68 64  1  0
 68 72  1  0
 69 68  1  0
 70 71  1  0
 70 69  1  0
 71 67  1  0
 72 73  2  0
 73 74  1  0
 75 74  2  0
 76 75  1  0
 77 51  1  0
 77 78  1  0
 77 87  1  0
 78 81  1  0
 79 83  1  0
 79 78  1  0
 80 79  2  0
 83 82  1  0
 85 86  1  0
 85 83  1  0
 85 84  1  0
 87 90  1  1
 87 88  1  0
 89 87  1  0
 91 92  1  0
M  ISO  4   8 100   9 100  49 101  50 101
M  END
>  <TORSDO>  (74) 
F 22

>  <SCORE>  (74) 
-12.942

>  <name>  (74) 
73

>  <ligand_id>  (74) 
73

>  <original_smiles>  (74) 
[H]c1c([H])c([H])c2c(c1[H])C([H])([H])C([H])([H])C([H])([H])C2([H])N([H])C(=O)C1([H])N(C(=O)C([H])(N([H])C(=O)C([H])(N([H])C([H])([H])[H])C([H])([H])[H])C(C([H])([H])[H])(C([H])([H])[H])C([H])([H])[H])C([H])([H])c2c([H])c(OC([H])([H])C([H])([H])[N+]([H])([H])C([H])(C([H])([H])C([H])([H])[H])C3([H])C([H])([H])C([H])([H])C([H])([H])C([H])([H])C3([H])C([H])([H])C(=O)N3C([H])([H])C([H])([H])C([H])([H])C([H])(n4nc(-c5c([H])c([H])c(Oc6c([H])c([H])c(F)c([H])c6F)c([H])c5[H])c(C(=O)N([H])[H])c4N([H])[H])C3([H])[H])c([H])c([H])c2C1([H])[H]

>  <smiles>  (74) 
[H]c1c([H])c([H])c2c(c1[H])C([H])([H])C([H])([H])C([H])([H])C2([H])N([H])C(=O)C1([H])N(C(=O)C([H])(N([H])C(=O)C([H])(N([H])C([H])([H])[H])C([H])([H])[H])C(C([H])([H])[H])(C([H])([H])[H])C([H])([H])[H])C([H])([H])c2c([H])c(OC([H])([H])C([H])([H])[N+]([H])([H])C([H])(C([H])([H])C([H])([H])[H])C3([H])C([H])([H])C([H])([H])C([H])([H])C([H])([H])C3([H])C([H])([H])C(=O)N3C([H])([H])C([H])([H])C([H])([H])C([H])(n4nc(-c5c([H])c([H])c(Oc6c([H])c([H])c(F)c([H])c6F)c([H])c5[H])c(C(=O)N([H])[H])c4N([H])[H])C3([H])[H])c([H])c([H])c2C1([H])[H]

$$$$
74:0:0
     RDKit          3D

 85 93  0  0  1  0  0  0  0  0999 V2000
  -29.5970  -21.5960   19.0110 C   0  0  0  0  0  2  0  0  0  0  0  0
  -28.5340  -20.5570   20.7550 C   0  0  0  0  0  2  0  0  0  0  0  0
  -28.8810  -22.2430   20.2780 C   0  0  0  0  0  3  0  0  0  0  0  0
  -29.7940  -19.9520   18.9620 C   0  0  0  0  0  3  0  0  0  0  0  0
  -29.5500  -19.1510   20.3120 C   0  0  0  0  0  3  0  0  0  0  0  0
  -31.1340  -19.5660   18.3240 C   0  0  0  0  0  1  0  0  0  0  0  0
  -29.3600  -17.2400   20.3810 C   0  0  0  0  0  2  0  0  0  0  0  0
  -30.2580  -15.6320   20.1810 C   0  0  0  0  0  0  0  0  0  0  0  0
  -30.3740  -13.1060   19.3440 C   0  0  0  0  0  2  0  0  0  0  0  0
  -29.4490  -12.7790   18.1360 C   0  0  0  0  0  2  0  0  0  0  0  0
  -28.0240  -12.4360   18.6030 C   0  0  0  0  0  2  0  0  0  0  0  0
  -27.5470  -13.4070   19.7070 C   0  0  0  0  0  3  0  0  0  0  0  0
  -28.6020  -13.6540   20.8070 C   0  0  0  0  0  2  0  0  0  0  0  0
  -29.7890  -14.2550   20.1620 N   0  0  0  0  0  0  0  0  0  0  0  0
  -31.4760  -15.6220   19.9220 O   0  0  0  0  0  0  0  0  0  0  0  0
  -25.1990  -13.9170   20.5370 C   0  0  0  0  0  0  0  0  0  0  0  0
  -24.1530  -13.1250   20.9160 C   0  0  0  0  0  0  0  0  0  0  0  0
  -24.6290  -11.7790   20.8510 C   0  0  0  0  0  0  0  0  0  0  0  0
  -26.2410  -13.0560   20.2490 N   0  0  0  0  0  0  0  0  0  0  0  0
  -25.9140  -11.7620   20.5070 N   0  0  0  0  0  0  0  0  0  0  0  0
  -23.9140  -10.5090   21.0380 C   0  0  0  0  0  0  0  0  0  0  0  0
  -24.3590   -9.5350   21.9590 C   0  0  0  0  0  3  0  0  0  0  0  0
  -23.6410   -8.3330   22.1350 C   0  0  0  0  0  3  0  0  0  0  0  0
  -22.4600   -8.0960   21.3920 C   0  0  0  0  0  0  0  0  0  0  0  0
  -22.0330   -9.0580   20.4590 C   0  0  0  0  0  3  0  0  0  0  0  0
  -22.7530  -10.2520   20.2800 C   0  0  0  0  0  3  0  0  0  0  0  0
  -21.7110   -6.9470   21.4770 O   0  0  0  0  0  0  0  0  0  0  0  0
  -21.6630   -6.2030   22.6290 C   0  0  0  0  0  0  0  0  0  0  0  0
  -21.1990   -6.7460   23.8470 C   0  0  0  0  0  3  0  0  0  0  0  0
  -21.1000   -5.9280   24.9910 C   0  0  0  0  0  3  0  0  0  0  0  0
  -21.4550   -4.5680   24.9160 C   0  0  0  0  0  0  0  0  0  0  0  0
  -21.9110   -4.0240   23.7030 C   0  0  0  0  0  3  0  0  0  0  0  0
  -22.0120   -4.8390   22.5620 C   0  0  0  0  0  0  0  0  0  0  0  0
  -22.4320   -4.3040   21.3900 F   0  0  0  0  0  0  0  0  0  0  0  0
  -21.3530   -3.7800   26.0120 F   0  0  0  0  0  0  0  0  0  0  0  0
  -22.7580  -13.5880   21.2230 C   0  0  0  0  0  0  0  0  0  0  0  0
  -22.0550  -12.8790   22.0980 N   0  0  0  0  0  0  0  0  0  0  0  0
  -22.3030  -14.6140   20.7200 O   0  0  0  0  0  0  0  0  0  0  0  0
  -22.4380  -12.0500   22.5260 H   0  0  0  0  0  0  0  0  0  0  0  0
  -21.1210  -13.1720   22.3440 H   0  0  0  0  0  0  0  0  0  0  0  0
  -25.3480  -15.2920   20.3810 N   0  0  0  0  0  0  0  0  0  0  0  0
  -24.5820  -15.9400   20.5310 H   0  0  0  0  0  0  0  0  0  0  0  0
  -26.1900  -15.7450   20.0520 H   0  0  0  0  0  0  0  0  0  0  0  0
  -27.9420  -23.9230   20.1980 C   0  0  0  0  0  2  0  0  0  0  0  0
  -28.1570  -25.6480   20.2520 O   0  0  0  0  0  0  0  0  0  0  0  0
  -24.6490  -31.8660   23.2160 C   0  0  0  0  0  0  0  0  0  0  0  0
  -27.1720  -26.8340   20.2120 C   0  0  0  0  0  0  0  0  0  0  0  0
  -23.4550  -30.4750   21.5760 C   0  0  0  0  0  3  0  0  0  0  0  0
  -24.8990  -28.8360   20.1600 C   0  0  0  0  0  0  0  0  0  0  0  0
  -26.0320  -30.6280   21.4490 C   0  0  0  0  0  2  0  0  0  0  0  0
  -26.0950  -29.2010   20.7890 C   0  0  0  0  0  0  0  0  0  0  0  0
  -27.2190  -28.2290   20.7810 C   0  0  0  0  0  3  0  0  0  0  0  0
  -25.9410  -26.6640   19.5320 C   0  0  0  0  0  3  0  0  0  0  0  0
  -24.8580  -27.5910   19.5080 C   0  0  0  0  0  3  0  0  0  0  0  0
  -23.6910  -29.7830   20.2040 C   0  0  0  0  0  2  0  0  0  0  0  0
  -24.7360  -31.0220   22.1330 N   0  0  0  0  0  0  0  0  0  0  0  0
  -23.5570  -32.1650   23.7300 O   0  0  0  0  0  0  0  0  0  0  0  0
  -22.7420  -29.4940   22.5450 C   0  0  0  0  0  0  0  0  0  0  0  0
  -21.4080  -29.3470   22.4240 N   0  0  0  0  0  0  0  0  0  0  0  0
  -23.3980  -28.8620   23.3760 O   0  0  0  0  0  0  0  0  0  0  0  0
  -20.9280  -29.9060   21.7320 H   0  0  0  0  0  0  0  0  0  0  0  0
  -18.0150  -28.1640   22.9530 C   0  0  0  0  0  0  0  0  0  0  0  0
  -20.5790  -28.4110   23.1950 C   0  0  0  0  0  3  0  0  0  0  0  0
  -20.6630  -26.9820   22.6100 C   0  0  0  0  0  2  0  0  0  0  0  0
  -19.5520  -26.6750   21.6030 C   0  0  0  0  0  2  0  0  0  0  0  0
  -18.1760  -26.8220   22.2590 C   0  0  0  0  0  2  0  0  0  0  0  0
  -19.1410  -28.9170   23.3780 C   0  0  0  0  0  0  0  0  0  0  0  0
  -18.9320  -30.1720   23.9920 C   0  0  0  0  0  3  0  0  0  0  0  0
  -17.6300  -30.6720   24.1820 C   0  0  0  0  0  3  0  0  0  0  0  0
  -16.5190  -29.9170   23.7690 C   0  0  0  0  0  3  0  0  0  0  0  0
  -16.7120  -28.6650   23.1620 C   0  0  0  0  0  3  0  0  0  0  0  0
  -25.9150  -32.5100   23.8570 C   0  0  0  0  0  3  0  0  0  0  0  0
  -25.5990  -33.9130   24.1870 N   0  0  0  0  0  0  0  0  0  0  0  0
  -25.9240  -34.9750   23.4360 C   0  0  0  0  0  0  0  0  0  0  0  0
  -26.5790  -34.8750   22.3960 O   0  0  0  0  0  0  0  0  0  0  0  0
  -25.0140  -34.0630   24.9970 H   0  0  0  0  0  0  0  0  0  0  0  0
  -24.1920  -36.7800   23.1350 C   0  0  0  0  0  1  0  0  0  0  0  0
  -25.4530  -36.3660   23.9120 C   0  0  0  0  0  3  0  0  0  0  0  0
  -27.6030  -37.2580   24.6970 C   0  0  0  0  0  1  0  0  0  0  0  0
  -26.4830  -37.4190   23.7720 N   0  0  0  0  0  0  0  0  0  0  0  0
  -26.0810  -38.3400   23.9190 H   0  0  0  0  0  0  0  0  0  0  0  0
  -26.4040  -31.7530   25.1540 C   0  0  1  0  0  0  0  0  0  0  0  0
  -25.2930  -31.5380   26.2100 C   0  0  0  0  0  1  0  0  0  0  0  0
  -26.9830  -30.3640   24.8010 C   0  0  0  0  0  1  0  0  0  0  0  0
  -27.5520  -32.5470   25.8230 C   0  0  0  0  0  1  0  0  0  0  0  0
  1  3  1  0
  3 44  1  0
  3  2  1  0
  4  6  1  0
  4  1  1  0
  4  5  1  0
  5  7  1  0
  5  2  1  0
  8  7  1  0
  9 14  1  0
 10 11  1  0
 10  9  1  0
 12 11  1  0
 12 19  1  0
 12 13  1  0
 14  8  1  0
 14 13  1  0
 15  8  2  0
 16 17  2  0
 17 36  1  0
 18 17  1  0
 18 21  1  0
 19 20  1  0
 19 16  1  0
 20 18  2  0
 21 22  1  0
 22 23  2  0
 24 27  1  0
 24 23  1  0
 25 24  2  0
 26 25  1  0
 26 21  2  0
 27 28  1  0
 28 29  1  0
 29 30  2  0
 31 30  1  0
 31 35  1  0
 32 31  2  0
 33 28  2  0
 33 32  1  0
 34 33  1  0
 36 37  1  0
 37 40  1  0
 37 39  1  0
 38 36  2  0
 41 42  1  0
 41 16  1  0
 43 41  1  0
 44 45  1  0
 46 57  2  0
 47 45  1  0
 47 52  1  0
 48 56  1  0
 48 58  1  0
 49 55  1  0
 49 51  1  0
 50 56  1  0
 51 50  1  0
 52 51  2  0
 53 47  2  0
 54 53  1  0
 54 49  2  0
 55 48  1  0
 56 46  1  0
 58 60  2  0
 59 58  1  0
 61 59  1  0
 62 71  2  0
 62 67  1  0
 63 59  1  0
 63 67  1  0
 64 63  1  0
 65 66  1  0
 65 64  1  0
 66 62  1  0
 67 68  2  0
 68 69  1  0
 70 69  2  0
 71 70  1  0
 72 46  1  0
 72 73  1  0
 72 82  1  0
 73 76  1  0
 74 78  1  0
 74 73  1  0
 75 74  2  0
 78 77  1  0
 80 78  1  0
 80 81  1  0
 80 79  1  0
 82 85  1  1
 82 83  1  0
 84 82  1  0
M  ISO  4   7 100   8 100  44 101  45 101
M  END
>  <TORSDO>  (75) 
F 18

>  <SCORE>  (75) 
-16.594

>  <name>  (75) 
74

>  <ligand_id>  (75) 
74

>  <original_smiles>  (75) 
[H]c1c([H])c([H])c2c(c1[H])C([H])([H])C([H])([H])C([H])([H])C2([H])N([H])C(=O)C1([H])N(C(=O)C([H])(N([H])C(=O)C([H])(N([H])C([H])([H])[H])C([H])([H])[H])C(C([H])([H])[H])(C([H])([H])[H])C([H])([H])[H])C([H])([H])c2c([H])c(OC([H])([H])C3([H])C([H])([H])C([H])(C([H])([H])[H])C([H])(C([H])([H])C(=O)N4C([H])([H])C([H])([H])C([H])([H])C([H])(n5nc(-c6c([H])c([H])c(Oc7c([H])c([H])c(F)c([H])c7F)c([H])c6[H])c(C(=O)N([H])[H])c5N([H])[H])C4([H])[H])C3([H])[H])c([H])c([H])c2C1([H])[H]

>  <smiles>  (75) 
[H]c1c([H])c([H])c2c(c1[H])C([H])([H])C([H])([H])C([H])([H])C2([H])N([H])C(=O)C1([H])N(C(=O)C([H])(N([H])C(=O)C([H])(N([H])C([H])([H])[H])C([H])([H])[H])C(C([H])([H])[H])(C([H])([H])[H])C([H])([H])[H])C([H])([H])c2c([H])c(OC([H])([H])C3([H])C([H])([H])C([H])(C([H])([H])[H])C([H])(C([H])([H])C(=O)N4C([H])([H])C([H])([H])C([H])([H])C([H])(n5nc(-c6c([H])c([H])c(Oc7c([H])c([H])c(F)c([H])c7F)c([H])c6[H])c(C(=O)N([H])[H])c5N([H])[H])C4([H])[H])C3([H])[H])c([H])c([H])c2C1([H])[H]

$$$$
75:0:0
     RDKit          3D

 85 89  0  0  1  0  0  0  0  0999 V2000
  -29.0000  -19.9520   18.5950 C   0  0  0  0  0  2  0  0  0  0  0  0
  -28.9640  -21.7120   18.4540 C   0  0  0  0  0  2  0  0  0  0  0  0
  -29.9070  -21.0330   20.3160 C   0  0  0  0  0  1  0  0  0  0  0  0
  -30.0040  -19.0620   19.6120 C   0  0  0  0  0  1  0  0  0  0  0  0
  -29.0100  -22.8380   19.7150 C   0  0  0  0  0  1  0  0  0  0  0  0
  -30.6660  -16.9300   19.5800 C   0  0  0  0  0  2  0  0  0  0  0  0
  -30.9970  -14.1580   18.7930 C   0  0  0  0  0  2  0  0  0  0  0  0
  -30.1490  -13.3350   17.7360 C   0  0  0  0  0  2  0  0  0  0  0  0
  -28.8650  -12.7560   18.3370 C   0  0  0  0  0  2  0  0  0  0  0  0
  -28.2810  -13.7940   19.3070 C   0  0  0  0  0  3  0  0  0  0  0  0
  -29.3070  -14.4760   20.2810 C   0  0  0  0  0  2  0  0  0  0  0  0
  -30.2680  -15.3910   19.5220 N   0  0  0  0  0  0  0  0  0  0  0  0
  -31.9010  -16.6760   19.4050 O   0  0  0  0  0  1  0  0  0  0  0  0
  -26.0380  -14.2330   20.3600 C   0  0  0  0  0  0  0  0  0  0  0  0
  -25.0040  -13.4400   20.7690 C   0  0  0  0  0  0  0  0  0  0  0  0
  -25.4400  -12.0910   20.5820 C   0  0  0  0  0  0  0  0  0  0  0  0
  -27.0370  -13.3790   19.9470 N   0  0  0  0  0  0  0  0  0  0  0  0
  -26.7010  -12.0700   20.1330 N   0  0  0  0  0  0  0  0  0  0  0  0
  -24.6960  -10.8300   20.7520 C   0  0  0  0  0  0  0  0  0  0  0  0
  -25.1120   -9.8390   21.6680 C   0  0  0  0  0  3  0  0  0  0  0  0
  -24.3610   -8.6530   21.8330 C   0  0  0  0  0  3  0  0  0  0  0  0
  -23.1780   -8.4470   21.0830 C   0  0  0  0  0  0  0  0  0  0  0  0
  -22.7800   -9.4280   20.1560 C   0  0  0  0  0  3  0  0  0  0  0  0
  -23.5320  -10.6040   19.9900 C   0  0  0  0  0  3  0  0  0  0  0  0
  -22.4020   -7.3150   21.1550 O   0  0  0  0  0  0  0  0  0  0  0  0
  -22.2170   -6.6440   22.3370 C   0  0  0  0  0  0  0  0  0  0  0  0
  -21.6740   -7.2780   23.4770 C   0  0  0  0  0  3  0  0  0  0  0  0
  -21.4360   -6.5320   24.6500 C   0  0  0  0  0  3  0  0  0  0  0  0
  -21.7280   -5.1560   24.6820 C   0  0  0  0  0  0  0  0  0  0  0  0
  -22.2610   -4.5230   23.5470 C   0  0  0  0  0  3  0  0  0  0  0  0
  -22.5020   -5.2650   22.3760 C   0  0  0  0  0  0  0  0  0  0  0  0
  -22.9940   -4.6450   21.2790 F   0  0  0  0  0  0  0  0  0  0  0  0
  -21.4930   -4.4390   25.8070 F   0  0  0  0  0  0  0  0  0  0  0  0
  -23.6530  -13.9260   21.2000 C   0  0  0  0  0  0  0  0  0  0  0  0
  -22.9980  -13.2030   22.1020 N   0  0  0  0  0  0  0  0  0  0  0  0
  -23.1920  -14.9850   20.7790 O   0  0  0  0  0  0  0  0  0  0  0  0
  -23.3850  -12.3470   22.4680 H   0  0  0  0  0  0  0  0  0  0  0  0
  -22.0990  -13.5190   22.4360 H   0  0  0  0  0  0  0  0  0  0  0  0
  -26.2100  -15.6100   20.2700 N   0  0  0  0  0  0  0  0  0  0  0  0
  -25.4830  -16.2710   20.5170 H   0  0  0  0  0  0  0  0  0  0  0  0
  -27.0460  -16.0510   19.9080 H   0  0  0  0  0  0  0  0  0  0  0  0
  -30.7200  -21.1240   22.7280 C   0  0  0  0  0  2  0  0  0  0  0  0
  -29.7130  -20.9490   21.8490 C   0  0  0  0  0  0  0  0  0  0  0  0
  -28.3030  -20.6800   22.3680 C   0  0  0  0  0  1  0  0  0  0  0  0
  -28.9670  -24.9400   19.6450 O   0  0  0  0  0  1  0  0  0  0  0  0
  -25.7660  -31.7790   23.2790 C   0  0  0  0  0  0  0  0  0  0  0  0
  -28.0960  -26.4470   19.7580 C   0  0  0  0  0  0  0  0  0  0  0  0
  -24.5450  -30.5570   21.5390 C   0  0  0  0  0  3  0  0  0  0  0  0
  -25.9380  -28.9080   19.9620 C   0  0  0  0  0  0  0  0  0  0  0  0
  -27.1430  -30.4780   21.4350 C   0  0  0  0  0  2  0  0  0  0  0  0
  -27.1570  -29.0530   20.6330 C   0  0  0  0  0  0  0  0  0  0  0  0
  -28.1840  -27.8800   20.4880 C   0  0  0  0  0  3  0  0  0  0  0  0
  -26.8470  -26.6820   19.0580 C   0  0  0  0  0  3  0  0  0  0  0  0
  -25.8600  -27.7540   19.1490 C   0  0  0  0  0  3  0  0  0  0  0  0
  -24.7790  -29.9470   20.1150 C   0  0  0  0  0  2  0  0  0  0  0  0
  -25.8530  -30.9800   22.1400 N   0  0  0  0  0  0  0  0  0  0  0  0
  -24.6730  -32.0750   23.8060 O   0  0  0  0  0  0  0  0  0  0  0  0
  -23.7740  -29.5520   22.4430 C   0  0  0  0  0  0  0  0  0  0  0  0
  -22.4430  -29.4100   22.2810 N   0  0  0  0  0  0  0  0  0  0  0  0
  -24.3990  -28.8890   23.2740 O   0  0  0  0  0  0  0  0  0  0  0  0
  -21.9800  -29.9940   21.5990 H   0  0  0  0  0  0  0  0  0  0  0  0
  -19.0660  -28.0610   22.6150 C   0  0  0  0  0  0  0  0  0  0  0  0
  -21.6080  -28.4120   22.9700 C   0  0  0  0  0  3  0  0  0  0  0  0
  -21.7800  -27.0170   22.3250 C   0  0  0  0  0  2  0  0  0  0  0  0
  -20.7240  -26.7130   21.2580 C   0  0  0  0  0  2  0  0  0  0  0  0
  -19.3190  -26.7630   21.8650 C   0  0  0  0  0  2  0  0  0  0  0  0
  -20.1410  -28.8430   23.1210 C   0  0  0  0  0  0  0  0  0  0  0  0
  -19.8490  -30.0510   23.7900 C   0  0  0  0  0  3  0  0  0  0  0  0
  -18.5190  -30.4800   23.9550 C   0  0  0  0  0  3  0  0  0  0  0  0
  -17.4610  -29.6980   23.4610 C   0  0  0  0  0  3  0  0  0  0  0  0
  -17.7340  -28.4900   22.7950 C   0  0  0  0  0  3  0  0  0  0  0  0
  -27.0220  -32.3720   23.9910 C   0  0  0  0  0  3  0  0  0  0  0  0
  -26.6630  -33.6660   24.6210 N   0  0  0  0  0  0  0  0  0  0  0  0
  -26.9120  -34.8830   24.1140 C   0  0  0  0  0  0  0  0  0  0  0  0
  -27.5130  -35.0380   23.0490 O   0  0  0  0  0  0  0  0  0  0  0  0
  -26.1210  -33.6110   25.4710 H   0  0  0  0  0  0  0  0  0  0  0  0
  -25.1030  -36.6350   24.3110 C   0  0  0  0  0  1  0  0  0  0  0  0
  -26.4250  -36.1210   24.9060 C   0  0  0  0  0  3  0  0  0  0  0  0
  -28.5930  -36.9370   25.7350 C   0  0  0  0  0  1  0  0  0  0  0  0
  -27.4060  -37.2310   24.9370 N   0  0  0  0  0  0  0  0  0  0  0  0
  -26.9800  -38.0800   25.2980 H   0  0  0  0  0  0  0  0  0  0  0  0
  -27.6100  -31.4130   25.1000 C   0  0  1  0  0  0  0  0  0  0  0  0
  -26.5770  -30.9650   26.1630 C   0  0  0  0  0  1  0  0  0  0  0  0
  -28.2110  -30.1370   24.4740 C   0  0  0  0  0  1  0  0  0  0  0  0
  -28.7700  -32.1160   25.8410 C   0  0  0  0  0  1  0  0  0  0  0  0
  1  4  1  0
  2  1  1  0
  2  5  1  0
  3 43  1  0
  7 12  1  0
  8  9  1  0
  8  7  1  0
 10  9  1  0
 10 17  1  0
 10 11  1  0
 12  6  1  0
 12 11  1  0
 13  6  1  0
 14 15  2  0
 15 34  1  0
 16 19  1  0
 16 15  1  0
 17 18  1  0
 17 14  1  0
 18 16  2  0
 19 20  1  0
 20 21  2  0
 22 25  1  0
 22 21  1  0
 23 22  2  0
 24 23  1  0
 24 19  2  0
 25 26  1  0
 26 31  2  0
 26 27  1  0
 27 28  2  0
 28 29  1  0
 29 33  1  0
 30 29  2  0
 31 30  1  0
 32 31  1  0
 34 35  1  0
 35 38  1  0
 35 37  1  0
 36 34  2  0
 39 14  1  0
 39 40  1  0
 41 39  1  0
 43 44  1  0
 43 42  2  0
 45 47  1  0
 46 57  2  0
 47 52  1  0
 48 56  1  0
 48 58  1  0
 49 55  1  0
 49 51  1  0
 50 56  1  0
 51 50  1  0
 52 51  2  0
 53 54  1  0
 53 47  2  0
 54 49  2  0
 55 48  1  0
 56 46  1  0
 58 60  2  0
 59 58  1  0
 61 59  1  0
 62 71  2  0
 62 67  1  0
 63 59  1  0
 63 67  1  0
 64 63  1  0
 65 66  1  0
 65 64  1  0
 66 62  1  0
 67 68  2  0
 68 69  1  0
 70 69  2  0
 71 70  1  0
 72 46  1  0
 72 73  1  0
 72 82  1  0
 73 76  1  0
 74 73  1  0
 74 78  1  0
 75 74  2  0
 78 77  1  0
 78 80  1  0
 80 81  1  0
 80 79  1  0
 82 85  1  1
 82 83  1  0
 84 82  1  0
M  ISO  4   4 100   5 101   6 100  45 101
M  END
>  <TORSDO>  (76) 
F 17

>  <SCORE>  (76) 
-9.991

>  <name>  (76) 
75

>  <ligand_id>  (76) 
75

>  <original_smiles>  (76) 
[H]C([H])=C(C([H])([H])[H])C1([H])C([H])(Oc2c([H])c([H])c3c(c2[H])C([H])([H])N(C(=O)C([H])(N([H])C(=O)C([H])(N([H])C([H])([H])[H])C([H])([H])[H])C(C([H])([H])[H])(C([H])([H])[H])C([H])([H])[H])C([H])(C(=O)N([H])C2([H])c4c([H])c([H])c([H])c([H])c4C([H])([H])C([H])([H])C2([H])[H])C3([H])[H])C([H])([H])C([H])([H])C1([H])C(=O)N1C([H])([H])C([H])([H])C([H])([H])C([H])(n2nc(-c3c([H])c([H])c(Oc4c([H])c([H])c(F)c([H])c4F)c([H])c3[H])c(C(=O)N([H])[H])c2N([H])[H])C1([H])[H]

>  <smiles>  (76) 
[H]C([H])=C(C([H])([H])[H])C1([H])C([H])(Oc2c([H])c([H])c3c(c2[H])C([H])([H])N(C(=O)C([H])(N([H])C(=O)C([H])(N([H])C([H])([H])[H])C([H])([H])[H])C(C([H])([H])[H])(C([H])([H])[H])C([H])([H])[H])C([H])(C(=O)N([H])C2([H])c4c([H])c([H])c([H])c([H])c4C([H])([H])C([H])([H])C2([H])[H])C3([H])[H])C([H])([H])C([H])([H])C1([H])C(=O)N1C([H])([H])C([H])([H])C([H])([H])C([H])(n2nc(-c3c([H])c([H])c(Oc4c([H])c([H])c(F)c([H])c4F)c([H])c3[H])c(C(=O)N([H])[H])c2N([H])[H])C1([H])[H]

$$$$
76:0:0
     RDKit          3D

 96105  0  0  1  0  0  0  0  0999 V2000
  -30.0000  -19.7620   19.9530 C   0  0  0  0  0  0  0  0  0  0  0  0
  -30.4380  -18.4940   19.2760 C   0  0  0  0  0  2  0  0  0  0  0  0
  -32.9310  -18.4570   16.8930 C   0  0  0  0  0  2  0  0  0  0  0  0
  -32.6730  -17.0590   17.4400 C   0  0  0  0  0  2  0  0  0  0  0  0
  -32.2870  -19.2490   20.5570 C   0  0  0  0  0  2  0  0  0  0  0  0
  -31.1300  -20.2250   20.8590 C   0  0  0  0  0  3  0  0  0  0  0  0
  -32.3600  -19.4310   17.9310 C   0  0  0  0  0  3  0  0  0  0  0  0
  -31.9850  -18.5740   19.1960 C   0  0  2  0  0  0  0  0  0  0  0  0
  -32.6980  -17.1820   18.9760 C   0  0  2  0  0  0  0  0  0  0  0  0
  -30.7520  -20.2230   22.3530 C   0  0  0  0  0  1  0  0  0  0  0  0
  -33.3070  -20.6310   18.1280 C   0  0  0  0  0  1  0  0  0  0  0  0
  -34.1670  -17.2370   19.4700 C   0  0  0  0  0  1  0  0  0  0  0  0
  -28.8770  -20.3140   19.7150 N   0  0  0  0  0  0  0  0  0  0  0  0
  -31.9690  -15.9850   19.6780 C   0  0  0  0  0  2  0  0  0  0  0  0
  -32.8070  -14.7600   20.1190 C   0  0  0  0  0  0  0  0  0  0  0  0
  -32.7490  -12.3340   20.5330 C   0  0  0  0  0  2  0  0  0  0  0  0
  -31.9990  -11.6570   19.3660 C   0  0  0  0  0  2  0  0  0  0  0  0
  -30.4780  -11.6460   19.6210 C   0  0  0  0  0  2  0  0  0  0  0  0
  -29.9330  -13.0380   20.0470 C   0  0  0  0  0  3  0  0  0  0  0  0
  -30.8090  -13.6320   21.1730 C   0  0  0  0  0  2  0  0  0  0  0  0
  -32.1970  -13.6870   20.6900 N   0  0  0  0  0  0  0  0  0  0  0  0
  -33.9870  -14.7140   19.7630 O   0  0  0  0  0  0  0  0  0  0  0  0
  -27.5970  -13.9810   20.5820 C   0  0  0  0  0  0  0  0  0  0  0  0
  -26.4130  -13.3680   20.8930 C   0  0  0  0  0  0  0  0  0  0  0  0
  -26.6890  -11.9660   20.9140 C   0  0  0  0  0  0  0  0  0  0  0  0
  -28.5270  -12.9620   20.4370 N   0  0  0  0  0  0  0  0  0  0  0  0
  -27.9780  -11.7480   20.6910 N   0  0  0  0  0  0  0  0  0  0  0  0
  -25.7890  -10.8180   21.0770 C   0  0  0  0  0  0  0  0  0  0  0  0
  -25.8300  -10.0060   22.2320 C   0  0  0  0  0  3  0  0  0  0  0  0
  -24.9440   -8.9180   22.3740 C   0  0  0  0  0  3  0  0  0  0  0  0
  -24.0010   -8.6320   21.3580 C   0  0  0  0  0  0  0  0  0  0  0  0
  -23.9800   -9.4280   20.1990 C   0  0  0  0  0  3  0  0  0  0  0  0
  -24.8660  -10.5090   20.0580 C   0  0  0  0  0  3  0  0  0  0  0  0
  -23.1180   -7.5790   21.3990 O   0  0  0  0  0  0  0  0  0  0  0  0
  -22.4530   -7.2420   22.5500 C   0  0  0  0  0  0  0  0  0  0  0  0
  -21.5590   -8.1340   23.1840 C   0  0  0  0  0  3  0  0  0  0  0  0
  -20.8420   -7.7210   24.3240 C   0  0  0  0  0  3  0  0  0  0  0  0
  -21.0100   -6.4180   24.8290 C   0  0  0  0  0  0  0  0  0  0  0  0
  -21.8960   -5.5270   24.1970 C   0  0  0  0  0  3  0  0  0  0  0  0
  -22.6110   -5.9360   23.0580 C   0  0  0  0  0  0  0  0  0  0  0  0
  -23.4460   -5.0670   22.4410 F   0  0  0  0  0  0  0  0  0  0  0  0
  -20.3160   -6.0170   25.9190 F   0  0  0  0  0  0  0  0  0  0  0  0
  -25.0780  -14.0340   21.0680 C   0  0  0  0  0  0  0  0  0  0  0  0
  -24.2370  -13.4990   21.9470 N   0  0  0  0  0  0  0  0  0  0  0  0
  -24.7910  -15.0620   20.4580 O   0  0  0  0  0  0  0  0  0  0  0  0
  -24.4790  -12.6640   22.4600 H   0  0  0  0  0  0  0  0  0  0  0  0
  -23.3370  -13.9300   22.1060 H   0  0  0  0  0  0  0  0  0  0  0  0
  -27.9560  -15.3130   20.3930 N   0  0  0  0  0  0  0  0  0  0  0  0
  -27.2840  -16.0700   20.4410 H   0  0  0  0  0  0  0  0  0  0  0  0
  -28.8800  -15.6220   20.1170 H   0  0  0  0  0  0  0  0  0  0  0  0
  -28.5320  -21.5780   20.3340 C   0  0  0  0  0  2  0  0  0  0  0  0
  -28.0920  -22.5690   19.2530 C   0  0  0  0  0  2  0  0  0  0  0  0
  -29.2520  -23.3300   18.5800 C   0  0  0  0  0  2  0  0  0  0  0  0
  -28.7180  -24.5540   17.8290 C   0  0  0  0  0  2  0  0  0  0  0  0
  -29.7100  -25.7210   17.6540 C   0  0  0  0  0  2  0  0  0  0  0  0
  -29.1220  -26.8520   17.0000 O   0  0  0  0  0  0  0  0  0  0  0  0
  -25.9910  -28.9320   23.0450 C   0  0  0  0  0  0  0  0  0  0  0  0
  -28.0040  -27.3620   17.6120 C   0  0  0  0  0  0  0  0  0  0  0  0
  -24.5080  -28.6870   21.0800 C   0  0  0  0  0  3  0  0  0  0  0  0
  -25.6840  -28.3920   18.8380 C   0  0  0  0  0  0  0  0  0  0  0  0
  -26.9820  -29.2650   20.7860 C   0  0  0  0  0  2  0  0  0  0  0  0
  -26.9310  -28.5400   19.4600 C   0  0  0  0  0  0  0  0  0  0  0  0
  -28.0980  -28.0200   18.8550 C   0  0  0  0  0  3  0  0  0  0  0  0
  -26.7490  -27.2600   16.9770 C   0  0  0  0  0  3  0  0  0  0  0  0
  -25.5860  -27.7440   17.5970 C   0  0  0  0  0  3  0  0  0  0  0  0
  -24.4850  -28.9680   19.5540 C   0  0  0  0  0  2  0  0  0  0  0  0
  -25.8540  -28.9400   21.6890 N   0  0  0  0  0  0  0  0  0  0  0  0
  -25.0140  -28.7650   23.7870 O   0  0  0  0  0  0  0  0  0  0  0  0
  -23.9810  -27.2570   21.3270 C   0  0  0  0  0  0  0  0  0  0  0  0
  -22.6690  -27.0610   21.1230 N   0  0  0  0  0  0  0  0  0  0  0  0
  -24.7460  -26.3490   21.6680 O   0  0  0  0  0  0  0  0  0  0  0  0
  -22.1090  -27.8580   20.8530 H   0  0  0  0  0  0  0  0  0  0  0  0
  -19.4510  -25.4720   20.6980 C   0  0  0  0  0  0  0  0  0  0  0  0
  -21.9550  -25.7910   21.2590 C   0  0  0  0  0  3  0  0  0  0  0  0
  -22.2370  -24.8610   20.0570 C   0  0  0  0  0  2  0  0  0  0  0  0
  -21.2030  -24.9920   18.9350 C   0  0  0  0  0  2  0  0  0  0  0  0
  -19.7990  -24.6680   19.4560 C   0  0  0  0  0  2  0  0  0  0  0  0
  -20.4640  -26.0120   21.5360 C   0  0  0  0  0  0  0  0  0  0  0  0
  -20.0860  -26.7800   22.6590 C   0  0  0  0  0  3  0  0  0  0  0  0
  -18.7290  -27.0090   22.9500 C   0  0  0  0  0  3  0  0  0  0  0  0
  -17.7300  -26.4550   22.1310 C   0  0  0  0  0  3  0  0  0  0  0  0
  -18.0920  -25.6850   21.0110 C   0  0  0  0  0  3  0  0  0  0  0  0
  -27.3770  -29.1600   23.7280 C   0  0  0  0  0  3  0  0  0  0  0  0
  -27.1920  -30.1670   24.7800 N   0  0  0  0  0  0  0  0  0  0  0  0
  -27.5700  -31.4480   24.6790 C   0  0  0  0  0  0  0  0  0  0  0  0
  -28.1870  -31.8900   23.7050 O   0  0  0  0  0  0  0  0  0  0  0  0
  -26.6490  -29.8870   25.5840 H   0  0  0  0  0  0  0  0  0  0  0  0
  -25.9840  -33.2340   25.4600 C   0  0  0  0  0  1  0  0  0  0  0  0
  -27.2070  -32.3870   25.8450 C   0  0  0  0  0  3  0  0  0  0  0  0
  -29.4190  -32.5540   26.8920 C   0  0  0  0  0  1  0  0  0  0  0  0
  -28.3170  -33.2710   26.2550 N   0  0  0  0  0  0  0  0  0  0  0  0
  -27.9910  -33.9840   26.9010 H   0  0  0  0  0  0  0  0  0  0  0  0
  -28.0030  -27.8380   24.3190 C   0  0  1  0  0  0  0  0  0  0  0  0
  -27.0390  -27.0500   25.2370 C   0  0  0  0  0  1  0  0  0  0  0  0
  -28.4530  -26.8920   23.1820 C   0  0  0  0  0  1  0  0  0  0  0  0
  -29.2730  -28.1800   25.1350 C   0  0  0  0  0  1  0  0  0  0  0  0
  1  6  1  0
  2  1  1  0
  3  4  1  0
  3  7  1  0
  4  9  1  0
  5  6  1  0
  6 10  1  0
  7 11  1  0
  7  8  1  0
  8  2  1  1
  8  5  1  0
  9  8  1  0
  9 12  1  1
  9 14  1  0
 13  1  2  0
 13 51  1  0
 14 15  1  0
 15 21  1  0
 16 21  1  0
 17 18  1  0
 17 16  1  0
 19 18  1  0
 19 26  1  0
 19 20  1  0
 21 20  1  0
 22 15  2  0
 23 24  2  0
 24 25  1  0
 24 43  1  0
 25 28  1  0
 26 23  1  0
 26 27  1  0
 27 25  2  0
 28 29  1  0
 29 30  2  0
 31 34  1  0
 31 30  1  0
 32 31  2  0
 33 32  1  0
 33 28  2  0
 34 35  1  0
 35 40  2  0
 35 36  1  0
 36 37  2  0
 37 38  1  0
 38 42  1  0
 39 38  2  0
 40 39  1  0
 41 40  1  0
 43 44  1  0
 44 47  1  0
 44 46  1  0
 45 43  2  0
 48 49  1  0
 48 23  1  0
 50 48  1  0
 52 51  1  0
 53 52  1  0
 54 53  1  0
 55 54  1  0
 56 58  1  0
 56 55  1  0
 57 68  2  0
 58 63  1  0
 59 69  1  0
 59 67  1  0
 60 62  1  0
 60 66  1  0
 61 67  1  0
 62 61  1  0
 63 62  2  0
 64 65  1  0
 64 58  2  0
 65 60  2  0
 66 59  1  0
 67 57  1  0
 69 71  2  0
 70 69  1  0
 72 70  1  0
 73 82  2  0
 73 78  1  0
 74 70  1  0
 74 78  1  0
 75 74  1  0
 76 77  1  0
 76 75  1  0
 77 73  1  0
 78 79  2  0
 79 80  1  0
 81 80  2  0
 82 81  1  0
 83 57  1  0
 83 93  1  0
 83 84  1  0
 84 87  1  0
 85 84  1  0
 85 89  1  0
 86 85  2  0
 89 88  1  0
 89 91  1  0
 91 90  1  0
 91 92  1  0
 93 96  1  1
 93 94  1  0
 95 93  1  0
M  ISO  4  14 100  15 100  55 101  56 101
M  END
>  <TORSDO>  (77) 
F 22

>  <SCORE>  (77) 
-7.636

>  <name>  (77) 
76

>  <ligand_id>  (77) 
76

>  <original_smiles>  (77) 
[H]c1c([H])c([H])c2c(c1[H])C([H])([H])C([H])([H])C([H])([H])C2([H])N([H])C(=O)C1([H])N(C(=O)C([H])(N([H])C(=O)C([H])(N([H])C([H])([H])[H])C([H])([H])[H])C(C([H])([H])[H])(C([H])([H])[H])C([H])([H])[H])C([H])([H])c2c([H])c(OC([H])([H])C([H])([H])C([H])([H])C([H])([H])C([H])([H])N=C3C([H])([H])C4(C([H])([H])C3([H])C([H])([H])[H])C([H])(C([H])([H])[H])C([H])([H])C([H])([H])C4(C([H])([H])[H])C([H])([H])C(=O)N3C([H])([H])C([H])([H])C([H])([H])C([H])(n4nc(-c5c([H])c([H])c(Oc6c([H])c([H])c(F)c([H])c6F)c([H])c5[H])c(C(=O)N([H])[H])c4N([H])[H])C3([H])[H])c([H])c([H])c2C1([H])[H]

>  <smiles>  (77) 
[H]c1c([H])c([H])c2c(c1[H])C([H])([H])C([H])([H])C([H])([H])C2([H])N([H])C(=O)C1([H])N(C(=O)C([H])(N([H])C(=O)C([H])(N([H])C([H])([H])[H])C([H])([H])[H])C(C([H])([H])[H])(C([H])([H])[H])C([H])([H])[H])C([H])([H])c2c([H])c(OC([H])([H])C([H])([H])C([H])([H])C([H])([H])C([H])([H])N=C3C([H])([H])C4(C([H])([H])C3([H])C([H])([H])[H])C([H])(C([H])([H])[H])C([H])([H])C([H])([H])C4(C([H])([H])[H])C([H])([H])C(=O)N3C([H])([H])C([H])([H])C([H])([H])C([H])(n4nc(-c5c([H])c([H])c(Oc6c([H])c([H])c(F)c([H])c6F)c([H])c5[H])c(C(=O)N([H])[H])c4N([H])[H])C3([H])[H])c([H])c([H])c2C1([H])[H]

$$$$
77:0:0
     RDKit          3D

 92100  0  0  1  0  0  0  0  0999 V2000
  -30.3460  -19.8030   20.6810 C   0  0  0  0  0  3  0  0  0  0  0  0
  -32.4570  -19.2730   23.8700 C   0  0  0  0  0  2  0  0  0  0  0  0
  -31.4600  -20.3280   24.3650 C   0  0  0  0  0  2  0  0  0  0  0  0
  -32.1150  -19.0360   22.3960 C   0  0  0  0  0  2  0  0  0  0  0  0
  -30.6950  -20.7990   23.1220 C   0  0  0  0  0  2  0  0  0  0  0  0
  -30.6840  -19.5840   22.1890 C   0  0  0  0  0  3  0  0  0  0  0  0
  -30.3070  -18.4340   19.9780 N   0  0  0  0  0  4  0  0  0  0  0  0
  -30.0410  -18.6180   19.0230 H   0  0  0  0  0  0  0  0  0  0  0  0
  -31.2550  -18.0990   19.9150 H   0  0  0  0  0  0  0  0  0  0  0  0
  -29.4560  -17.2470   20.4280 C   0  0  0  0  0  2  0  0  0  0  0  0
  -30.0720  -15.9810   21.2280 C   0  0  0  0  0  2  0  0  0  0  0  0
  -30.6540  -14.6810   20.5160 C   0  0  0  0  0  0  0  0  0  0  0  0
  -30.4360  -12.4210   19.4680 C   0  0  0  0  0  2  0  0  0  0  0  0
  -29.5150  -12.5150   18.2310 C   0  0  0  0  0  2  0  0  0  0  0  0
  -28.0360  -12.3520   18.6370 C   0  0  0  0  0  2  0  0  0  0  0  0
  -27.6540  -13.2280   19.8620 C   0  0  0  0  0  3  0  0  0  0  0  0
  -28.6990  -13.1070   20.9940 C   0  0  0  0  0  2  0  0  0  0  0  0
  -30.0120  -13.4630   20.4350 N   0  0  0  0  0  0  0  0  0  0  0  0
  -31.7740  -14.8020   20.0140 O   0  0  0  0  0  0  0  0  0  0  0  0
  -25.2550  -13.8180   20.5660 C   0  0  0  0  0  0  0  0  0  0  0  0
  -24.1830  -13.0430   20.9170 C   0  0  0  0  0  0  0  0  0  0  0  0
  -24.6400  -11.6900   20.8700 C   0  0  0  0  0  0  0  0  0  0  0  0
  -26.3000  -12.9390   20.3300 N   0  0  0  0  0  0  0  0  0  0  0  0
  -25.9350  -11.6530   20.5730 N   0  0  0  0  0  0  0  0  0  0  0  0
  -23.9070  -10.4290   21.0370 C   0  0  0  0  0  0  0  0  0  0  0  0
  -24.3610   -9.4210   21.9160 C   0  0  0  0  0  3  0  0  0  0  0  0
  -23.6280   -8.2250   22.0750 C   0  0  0  0  0  3  0  0  0  0  0  0
  -22.4260   -8.0270   21.3540 C   0  0  0  0  0  0  0  0  0  0  0  0
  -21.9900   -9.0240   20.4630 C   0  0  0  0  0  3  0  0  0  0  0  0
  -22.7240  -10.2110   20.3020 C   0  0  0  0  0  3  0  0  0  0  0  0
  -21.6640   -6.8850   21.4230 O   0  0  0  0  0  0  0  0  0  0  0  0
  -21.6860   -6.0720   22.5260 C   0  0  0  0  0  0  0  0  0  0  0  0
  -21.4030   -6.5620   23.8200 C   0  0  0  0  0  3  0  0  0  0  0  0
  -21.3660   -5.6770   24.9160 C   0  0  0  0  0  3  0  0  0  0  0  0
  -21.6050   -4.3040   24.7220 C   0  0  0  0  0  0  0  0  0  0  0  0
  -21.8830   -3.8120   23.4350 C   0  0  0  0  0  3  0  0  0  0  0  0
  -21.9200   -4.6940   22.3400 C   0  0  0  0  0  0  0  0  0  0  0  0
  -22.1660   -4.2120   21.0980 F   0  0  0  0  0  0  0  0  0  0  0  0
  -21.5630   -3.4530   25.7740 F   0  0  0  0  0  0  0  0  0  0  0  0
  -22.7840  -13.5210   21.1810 C   0  0  0  0  0  0  0  0  0  0  0  0
  -22.0480  -12.8190   22.0350 N   0  0  0  0  0  0  0  0  0  0  0  0
  -22.3520  -14.5500   20.6650 O   0  0  0  0  0  0  0  0  0  0  0  0
  -22.4100  -11.9870   22.4760 H   0  0  0  0  0  0  0  0  0  0  0  0
  -21.1060  -13.1180   22.2470 H   0  0  0  0  0  0  0  0  0  0  0  0
  -25.4220  -15.1920   20.4090 N   0  0  0  0  0  0  0  0  0  0  0  0
  -24.6480  -15.8390   20.5230 H   0  0  0  0  0  0  0  0  0  0  0  0
  -26.2650  -15.6360   20.0700 H   0  0  0  0  0  0  0  0  0  0  0  0
  -29.2410  -20.9310   20.2700 C   0  0  0  0  0  2  0  0  0  0  0  0
  -29.3860  -22.4920   20.7140 C   0  0  0  0  0  2  0  0  0  0  0  0
  -28.6840  -23.7250   19.9270 C   0  0  0  0  0  2  0  0  0  0  0  0
  -28.3050  -25.0840   20.7220 C   0  0  0  0  0  2  0  0  0  0  0  0
  -28.3650  -26.4450   20.1080 O   0  0  0  0  0  0  0  0  0  0  0  0
  -24.6290  -31.8540   23.1940 C   0  0  0  0  0  0  0  0  0  0  0  0
  -27.2360  -27.2880   20.1370 C   0  0  0  0  0  0  0  0  0  0  0  0
  -23.4270  -30.4760   21.5330 C   0  0  0  0  0  3  0  0  0  0  0  0
  -24.8780  -28.9150   20.1160 C   0  0  0  0  0  0  0  0  0  0  0  0
  -25.9660  -30.7850   21.3580 C   0  0  0  0  0  2  0  0  0  0  0  0
  -26.0460  -29.4020   20.7130 C   0  0  0  0  0  0  0  0  0  0  0  0
  -27.2310  -28.6040   20.7060 C   0  0  0  0  0  3  0  0  0  0  0  0
  -26.0450  -26.8500   19.5270 C   0  0  0  0  0  3  0  0  0  0  0  0
  -24.8800  -27.6470   19.5110 C   0  0  0  0  0  3  0  0  0  0  0  0
  -23.6460  -29.8010   20.1520 C   0  0  0  0  0  2  0  0  0  0  0  0
  -24.6930  -31.0550   22.0880 N   0  0  0  0  0  0  0  0  0  0  0  0
  -23.5440  -32.1290   23.7250 O   0  0  0  0  0  0  0  0  0  0  0  0
  -22.7510  -29.4600   22.4850 C   0  0  0  0  0  0  0  0  0  0  0  0
  -21.4210  -29.3070   22.3650 N   0  0  0  0  0  0  0  0  0  0  0  0
  -23.4220  -28.8110   23.2910 O   0  0  0  0  0  0  0  0  0  0  0  0
  -20.9370  -29.8830   21.6890 H   0  0  0  0  0  0  0  0  0  0  0  0
  -18.0310  -28.1420   22.8460 C   0  0  0  0  0  0  0  0  0  0  0  0
  -20.5910  -28.3720   23.1280 C   0  0  0  0  0  3  0  0  0  0  0  0
  -20.6810  -26.9430   22.5410 C   0  0  0  0  0  2  0  0  0  0  0  0
  -19.5790  -26.6400   21.5220 C   0  0  0  0  0  2  0  0  0  0  0  0
  -18.1960  -26.7980   22.1600 C   0  0  0  0  0  2  0  0  0  0  0  0
  -19.1560  -28.8870   23.2900 C   0  0  0  0  0  0  0  0  0  0  0  0
  -18.9490  -30.1480   23.8910 C   0  0  0  0  0  3  0  0  0  0  0  0
  -17.6500  -30.6600   24.0570 C   0  0  0  0  0  3  0  0  0  0  0  0
  -16.5390  -29.9110   23.6330 C   0  0  0  0  0  3  0  0  0  0  0  0
  -16.7300  -28.6540   23.0310 C   0  0  0  0  0  3  0  0  0  0  0  0
  -25.9100  -32.4740   23.8290 C   0  0  0  0  0  3  0  0  0  0  0  0
  -25.5930  -33.8530   24.2240 N   0  0  0  0  0  0  0  0  0  0  0  0
  -25.9050  -34.9430   23.5090 C   0  0  0  0  0  0  0  0  0  0  0  0
  -26.5610  -34.8920   22.4660 O   0  0  0  0  0  0  0  0  0  0  0  0
  -25.0160  -33.9680   25.0440 H   0  0  0  0  0  0  0  0  0  0  0  0
  -24.1500  -36.7260   23.2640 C   0  0  0  0  0  1  0  0  0  0  0  0
  -25.4110  -36.3050   24.0350 C   0  0  0  0  0  3  0  0  0  0  0  0
  -27.5580  -37.1780   24.8480 C   0  0  0  0  0  1  0  0  0  0  0  0
  -26.4270  -37.3760   23.9440 N   0  0  0  0  0  0  0  0  0  0  0  0
  -26.0150  -38.2830   24.1470 H   0  0  0  0  0  0  0  0  0  0  0  0
  -26.4480  -31.6540   25.0640 C   0  0  1  0  0  0  0  0  0  0  0  0
  -25.3710  -31.3690   26.1370 C   0  0  0  0  0  1  0  0  0  0  0  0
  -27.0280  -30.2980   24.6010 C   0  0  0  0  0  1  0  0  0  0  0  0
  -27.6080  -32.4200   25.7430 C   0  0  0  0  0  1  0  0  0  0  0  0
  1 48  1  0
  1  6  1  0
  2  3  1  0
  4  2  1  0
  5  3  1  0
  6  4  1  0
  6  5  1  0
  7 10  1  0
  7  1  1  0
  8  7  1  0
  9  7  1  0
 10 11  1  0
 12 11  1  0
 13 18  1  0
 14 15  1  0
 14 13  1  0
 16 15  1  0
 16 23  1  0
 16 17  1  0
 18 12  1  0
 18 17  1  0
 19 12  2  0
 20 21  2  0
 21 40  1  0
 22 21  1  0
 22 25  1  0
 23 20  1  0
 23 24  1  0
 24 22  2  0
 25 26  1  0
 26 27  2  0
 28 31  1  0
 28 27  1  0
 29 28  2  0
 30 29  1  0
 30 25  2  0
 31 32  1  0
 32 33  1  0
 33 34  2  0
 35 34  1  0
 35 39  1  0
 36 35  2  0
 37 32  2  0
 37 36  1  0
 38 37  1  0
 40 41  1  0
 41 44  1  0
 41 43  1  0
 42 40  2  0
 45 46  1  0
 45 20  1  0
 47 45  1  0
 48 49  1  0
 50 49  1  0
 50 51  1  0
 52 54  1  0
 52 51  1  0
 53 64  2  0
 54 59  1  0
 55 63  1  0
 55 65  1  0
 56 62  1  0
 56 58  1  0
 57 63  1  0
 58 57  1  0
 59 58  2  0
 60 54  2  0
 61 60  1  0
 61 56  2  0
 62 55  1  0
 63 53  1  0
 65 67  2  0
 66 65  1  0
 68 66  1  0
 69 78  2  0
 69 74  1  0
 70 66  1  0
 70 74  1  0
 71 70  1  0
 72 73  1  0
 72 71  1  0
 73 69  1  0
 74 75  2  0
 75 76  1  0
 77 76  2  0
 78 77  1  0
 79 53  1  0
 79 80  1  0
 79 89  1  0
 80 83  1  0
 81 85  1  0
 81 80  1  0
 82 81  2  0
 85 84  1  0
 87 85  1  0
 87 88  1  0
 87 86  1  0
 89 92  1  1
 89 90  1  0
 91 89  1  0
M  ISO  4  11 100  12 100  51 101  52 101
M  END
>  <TORSDO>  (78) 
F 24

>  <SCORE>  (78) 
-10.580

>  <name>  (78) 
77

>  <ligand_id>  (78) 
77

>  <original_smiles>  (78) 
[H]c1c([H])c([H])c2c(c1[H])C([H])([H])C([H])([H])C([H])([H])C2([H])N([H])C(=O)C1([H])N(C(=O)C([H])(N([H])C(=O)C([H])(N([H])C([H])([H])[H])C([H])([H])[H])C(C([H])([H])[H])(C([H])([H])[H])C([H])([H])[H])C([H])([H])c2c([H])c(OC([H])([H])C([H])([H])C([H])([H])C([H])([H])C([H])(C3([H])C([H])([H])C([H])([H])C([H])([H])C3([H])[H])[N+]([H])([H])C([H])([H])C([H])([H])C(=O)N3C([H])([H])C([H])([H])C([H])([H])C([H])(n4nc(-c5c([H])c([H])c(Oc6c([H])c([H])c(F)c([H])c6F)c([H])c5[H])c(C(=O)N([H])[H])c4N([H])[H])C3([H])[H])c([H])c([H])c2C1([H])[H]

>  <smiles>  (78) 
[H]c1c([H])c([H])c2c(c1[H])C([H])([H])C([H])([H])C([H])([H])C2([H])N([H])C(=O)C1([H])N(C(=O)C([H])(N([H])C(=O)C([H])(N([H])C([H])([H])[H])C([H])([H])[H])C(C([H])([H])[H])(C([H])([H])[H])C([H])([H])[H])C([H])([H])c2c([H])c(OC([H])([H])C([H])([H])C([H])([H])C([H])([H])C([H])(C3([H])C([H])([H])C([H])([H])C([H])([H])C3([H])[H])[N+]([H])([H])C([H])([H])C([H])([H])C(=O)N3C([H])([H])C([H])([H])C([H])([H])C([H])(n4nc(-c5c([H])c([H])c(Oc6c([H])c([H])c(F)c([H])c6F)c([H])c5[H])c(C(=O)N([H])[H])c4N([H])[H])C3([H])[H])c([H])c([H])c2C1([H])[H]

$$$$
78:0:0
     RDKit          3D

 93103  0  0  1  0  0  0  0  0999 V2000
  -29.5190  -20.6810   19.7160 N   0  0  0  0  0  4  0  0  0  0  0  0
  -28.8430  -20.2110   19.1370 H   0  0  0  0  0  0  0  0  0  0  0  0
  -30.2600  -20.9670   19.0970 H   0  0  0  0  0  0  0  0  0  0  0  0
  -31.1520  -20.4940   21.4620 C   0  0  0  0  0  1  0  0  0  0  0  0
  -30.1000  -19.6220   20.7050 C   0  0  0  0  0  3  0  0  0  0  0  0
  -32.4000  -16.5470   21.6500 C   0  0  0  0  0  2  0  0  0  0  0  0
  -30.3400  -16.3070   20.3560 C   0  0  0  0  0  3  0  0  0  0  0  0
  -31.0000  -15.9650   21.6940 C   0  0  1  0  0  0  0  0  0  0  0  0
  -31.4930  -17.7740   21.6760 C   0  0  2  0  0  0  0  0  0  0  0  0
  -30.6980  -18.0140   20.3320 C   0  0  0  0  0  3  0  0  0  0  0  0
  -30.6990  -17.0050   22.7810 C   0  0  1  0  0  0  0  0  0  0  0  0
  -29.2120  -17.3230   23.0350 C   0  0  0  0  0  1  0  0  0  0  0  0
  -31.3220  -16.8450   24.1920 C   0  0  0  0  0  1  0  0  0  0  0  0
  -30.8920  -15.0620   19.4100 C   0  0  0  0  0  0  0  0  0  0  0  0
  -30.4260  -12.9080   18.1270 C   0  0  0  0  0  2  0  0  0  0  0  0
  -29.3050  -13.1160   17.0800 C   0  0  0  0  0  2  0  0  0  0  0  0
  -27.9090  -12.9450   17.7140 C   0  0  0  0  0  2  0  0  0  0  0  0
  -27.7830  -13.7090   19.0550 C   0  0  0  0  0  3  0  0  0  0  0  0
  -28.9890  -13.4390   19.9730 C   0  0  0  0  0  2  0  0  0  0  0  0
  -30.2040  -13.8570   19.2540 N   0  0  0  0  0  0  0  0  0  0  0  0
  -31.9470  -15.1880   18.7770 O   0  0  0  0  0  0  0  0  0  0  0  0
  -25.5640  -14.3410   20.1760 C   0  0  0  0  0  0  0  0  0  0  0  0
  -24.5340  -13.5900   20.6680 C   0  0  0  0  0  0  0  0  0  0  0  0
  -24.9280  -12.2250   20.5030 C   0  0  0  0  0  0  0  0  0  0  0  0
  -26.5180  -13.4410   19.7300 N   0  0  0  0  0  0  0  0  0  0  0  0
  -26.1500  -12.1590   19.9900 N   0  0  0  0  0  0  0  0  0  0  0  0
  -24.1860  -10.9810   20.7470 C   0  0  0  0  0  0  0  0  0  0  0  0
  -24.6730   -9.9950   21.6340 C   0  0  0  0  0  3  0  0  0  0  0  0
  -23.9350   -8.8160   21.8700 C   0  0  0  0  0  3  0  0  0  0  0  0
  -22.6960   -8.6140   21.2170 C   0  0  0  0  0  0  0  0  0  0  0  0
  -22.2260   -9.5880   20.3210 C   0  0  0  0  0  3  0  0  0  0  0  0
  -22.9650  -10.7580   20.0790 C   0  0  0  0  0  3  0  0  0  0  0  0
  -21.9230   -7.4870   21.3600 O   0  0  0  0  0  0  0  0  0  0  0  0
  -21.8740   -6.7910   22.5410 C   0  0  0  0  0  0  0  0  0  0  0  0
  -21.5110   -7.4100   23.7550 C   0  0  0  0  0  3  0  0  0  0  0  0
  -21.4080   -6.6430   24.9320 C   0  0  0  0  0  3  0  0  0  0  0  0
  -21.6550   -5.2580   24.8960 C   0  0  0  0  0  0  0  0  0  0  0  0
  -22.0130   -4.6400   23.6850 C   0  0  0  0  0  3  0  0  0  0  0  0
  -22.1180   -5.4040   22.5120 C   0  0  0  0  0  0  0  0  0  0  0  0
  -22.4410   -4.7990   21.3440 F   0  0  0  0  0  0  0  0  0  0  0  0
  -21.5500   -4.5200   26.0270 F   0  0  0  0  0  0  0  0  0  0  0  0
  -23.2130  -14.0980   21.1680 C   0  0  0  0  0  0  0  0  0  0  0  0
  -22.6210  -13.4150   22.1390 N   0  0  0  0  0  0  0  0  0  0  0  0
  -22.7200  -15.1370   20.7310 O   0  0  0  0  0  0  0  0  0  0  0  0
  -21.7350  -13.7280   22.5110 H   0  0  0  0  0  0  0  0  0  0  0  0
  -23.0610  -12.5970   22.5380 H   0  0  0  0  0  0  0  0  0  0  0  0
  -25.7640  -15.7130   20.0420 N   0  0  0  0  0  0  0  0  0  0  0  0
  -25.0830  -16.3910   20.3600 H   0  0  0  0  0  0  0  0  0  0  0  0
  -26.5690  -16.1340   19.5990 H   0  0  0  0  0  0  0  0  0  0  0  0
  -28.7900  -21.9730   20.2760 C   0  0  0  0  0  2  0  0  0  0  0  0
  -29.2220  -23.5570   19.9620 C   0  0  0  0  0  3  0  0  0  0  0  0
  -28.1790  -24.8310   20.2300 C   0  0  0  0  0  3  0  0  0  0  0  0
  -28.4460  -26.3510   20.1260 O   0  0  0  0  0  0  0  0  0  0  0  0
  -24.6890  -31.9130   23.1430 C   0  0  0  0  0  0  0  0  0  0  0  0
  -27.3530  -27.2840   20.0880 C   0  0  0  0  0  0  0  0  0  0  0  0
  -23.5060  -30.4800   21.5270 C   0  0  0  0  0  3  0  0  0  0  0  0
  -24.9740  -28.9450   20.0900 C   0  0  0  0  0  0  0  0  0  0  0  0
  -26.0490  -30.8190   21.3260 C   0  0  0  0  0  2  0  0  0  0  0  0
  -26.1500  -29.4300   20.6790 C   0  0  0  0  0  0  0  0  0  0  0  0
  -27.3410  -28.6160   20.6580 C   0  0  0  0  0  3  0  0  0  0  0  0
  -26.1490  -26.9010   19.4530 C   0  0  0  0  0  3  0  0  0  0  0  0
  -24.9840  -27.6930   19.4620 C   0  0  0  0  0  3  0  0  0  0  0  0
  -23.7250  -29.8070   20.1470 C   0  0  0  0  0  2  0  0  0  0  0  0
  -24.7690  -31.0930   22.0520 N   0  0  0  0  0  0  0  0  0  0  0  0
  -23.6020  -32.1720   23.6820 O   0  0  0  0  0  0  0  0  0  0  0  0
  -22.8660  -29.4580   22.5000 C   0  0  0  0  0  0  0  0  0  0  0  0
  -21.5410  -29.2580   22.3940 N   0  0  0  0  0  0  0  0  0  0  0  0
  -23.5650  -28.8470   23.3120 O   0  0  0  0  0  0  0  0  0  0  0  0
  -21.0320  -29.8070   21.7120 H   0  0  0  0  0  0  0  0  0  0  0  0
  -18.1910  -27.9860   22.9410 C   0  0  0  0  0  0  0  0  0  0  0  0
  -20.7470  -28.3080   23.1800 C   0  0  0  0  0  3  0  0  0  0  0  0
  -20.8760  -26.8760   22.6150 C   0  0  0  0  0  2  0  0  0  0  0  0
  -19.7710  -26.5190   21.6150 C   0  0  0  0  0  2  0  0  0  0  0  0
  -18.3920  -26.6360   22.2730 C   0  0  0  0  0  2  0  0  0  0  0  0
  -19.2970  -28.7780   23.3520 C   0  0  0  0  0  0  0  0  0  0  0  0
  -19.0530  -30.0380   23.9400 C   0  0  0  0  0  3  0  0  0  0  0  0
  -17.7390  -30.5070   24.1190 C   0  0  0  0  0  3  0  0  0  0  0  0
  -16.6480  -29.7140   23.7220 C   0  0  0  0  0  3  0  0  0  0  0  0
  -16.8760  -28.4550   23.1400 C   0  0  0  0  0  3  0  0  0  0  0  0
  -25.9600  -32.5830   23.7500 C   0  0  0  0  0  3  0  0  0  0  0  0
  -25.6070  -33.9640   24.1150 N   0  0  0  0  0  0  0  0  0  0  0  0
  -25.8940  -35.0450   23.3770 C   0  0  0  0  0  0  0  0  0  0  0  0
  -26.5500  -34.9860   22.3330 O   0  0  0  0  0  0  0  0  0  0  0  0
  -25.0190  -34.0810   24.9270 H   0  0  0  0  0  0  0  0  0  0  0  0
  -24.1000  -36.7890   23.0960 C   0  0  0  0  0  1  0  0  0  0  0  0
  -25.3710  -36.4080   23.8720 C   0  0  0  0  0  3  0  0  0  0  0  0
  -27.4940  -37.3440   24.6750 C   0  0  0  0  0  1  0  0  0  0  0  0
  -26.3670  -37.4960   23.7600 N   0  0  0  0  0  0  0  0  0  0  0  0
  -25.9340  -38.4000   23.9370 H   0  0  0  0  0  0  0  0  0  0  0  0
  -26.5260  -31.8110   25.0050 C   0  0  1  0  0  0  0  0  0  0  0  0
  -25.4600  -31.5030   26.0840 C   0  0  0  0  0  1  0  0  0  0  0  0
  -27.1630  -30.4670   24.5810 C   0  0  0  0  0  1  0  0  0  0  0  0
  -27.6510  -32.6420   25.6660 C   0  0  0  0  0  1  0  0  0  0  0  0
  1 50  1  0
  1  5  1  0
  2  1  1  0
  3  1  1  0
  5  4  1  0
  7 14  1  0
  7  8  1  0
  8  6  1  6
  8 11  1  0
  9  6  1  1
  9  8  1  0
  9 11  1  0
 10  7  1  0
 10  5  1  0
 10  9  1  0
 11 12  1  1
 11 13  1  0
 15 20  1  0
 16 17  1  0
 16 15  1  0
 18 17  1  0
 18 25  1  0
 18 19  1  0
 20 14  1  0
 20 19  1  0
 21 14  2  0
 22 23  2  0
 23 42  1  0
 24 23  1  0
 24 27  1  0
 25 26  1  0
 25 22  1  0
 26 24  2  0
 27 28  1  0
 28 29  2  0
 30 33  1  0
 30 29  1  0
 31 30  2  0
 32 31  1  0
 32 27  2  0
 33 34  1  0
 34 35  1  0
 35 36  2  0
 37 36  1  0
 37 41  1  0
 38 37  2  0
 39 34  2  0
 39 38  1  0
 40 39  1  0
 42 43  1  0
 43 45  1  0
 43 46  1  0
 44 42  2  0
 47 22  1  0
 47 48  1  0
 49 47  1  0
 51 52  2  0
 51 50  1  0
 53 52  1  0
 54 65  2  0
 55 53  1  0
 55 60  1  0
 56 64  1  0
 56 66  1  0
 57 63  1  0
 57 59  1  0
 58 64  1  0
 59 58  1  0
 60 59  2  0
 61 62  1  0
 61 55  2  0
 62 57  2  0
 63 56  1  0
 64 54  1  0
 66 68  2  0
 67 66  1  0
 69 67  1  0
 70 79  2  0
 70 75  1  0
 71 67  1  0
 71 75  1  0
 72 71  1  0
 73 74  1  0
 73 72  1  0
 74 70  1  0
 75 76  2  0
 76 77  1  0
 78 77  2  0
 79 78  1  0
 80 54  1  0
 80 81  1  0
 80 90  1  0
 81 84  1  0
 82 86  1  0
 82 81  1  0
 83 82  2  0
 86 85  1  0
 88 86  1  0
 88 89  1  0
 88 87  1  0
 90 93  1  1
 90 91  1  0
 92 90  1  0
M  ISO  4   7 100  14 100  52 101  53 101
M  END
>  <TORSDO>  (79) 
F 21

>  <SCORE>  (79) 
-4.190

>  <name>  (79) 
78

>  <ligand_id>  (79) 
78

>  <original_smiles>  (79) 
[H]c1c([H])c([H])c2c(c1[H])C([H])([H])C([H])([H])C([H])([H])C2([H])N([H])C(=O)C1([H])N(C(=O)C([H])(N([H])C(=O)C([H])(N([H])C([H])([H])[H])C([H])([H])[H])C(C([H])([H])[H])(C([H])([H])[H])C([H])([H])[H])C([H])([H])c2c([H])c(OC([H])([H])C([H])([H])C([H])([H])[N+]([H])([H])C([H])(C([H])([H])[H])C3([H])C([H])(C(=O)N4C([H])([H])C([H])([H])C([H])([H])C([H])(n5nc(-c6c([H])c([H])c(Oc7c([H])c([H])c(F)c([H])c7F)c([H])c6[H])c(C(=O)N([H])[H])c5N([H])[H])C4([H])[H])C4([H])C([H])([H])C3([H])C4(C([H])([H])[H])C([H])([H])[H])c([H])c([H])c2C1([H])[H]

>  <smiles>  (79) 
[H]c1c([H])c([H])c2c(c1[H])C([H])([H])C([H])([H])C([H])([H])C2([H])N([H])C(=O)C1([H])N(C(=O)C([H])(N([H])C(=O)C([H])(N([H])C([H])([H])[H])C([H])([H])[H])C(C([H])([H])[H])(C([H])([H])[H])C([H])([H])[H])C([H])([H])c2c([H])c(OC([H])([H])C([H])([H])C([H])([H])[N+]([H])([H])C([H])(C([H])([H])[H])C3([H])C([H])(C(=O)N4C([H])([H])C([H])([H])C([H])([H])C([H])(n5nc(-c6c([H])c([H])c(Oc7c([H])c([H])c(F)c([H])c7F)c([H])c6[H])c(C(=O)N([H])[H])c5N([H])[H])C4([H])[H])C4([H])C([H])([H])C3([H])C4(C([H])([H])[H])C([H])([H])[H])c([H])c([H])c2C1([H])[H]

$$$$
79:0:0
     RDKit          3D

 90 98  0  0  1  0  0  0  0  0999 V2000
  -29.5100  -20.6690   20.3740 N   0  0  0  0  0  4  0  0  0  0  0  0
  -30.0410  -20.8260   21.2160 H   0  0  0  0  0  0  0  0  0  0  0  0
  -30.1590  -20.7610   19.6110 H   0  0  0  0  0  0  0  0  0  0  0  0
  -27.9670  -18.9230   19.3430 C   0  0  0  0  0  1  0  0  0  0  0  0
  -29.0510  -19.1560   20.4150 C   0  0  0  0  0  3  0  0  0  0  0  0
  -32.1740  -18.7660   20.0600 C   0  0  0  0  0  2  0  0  0  0  0  0
  -31.1430  -18.0840   19.1620 C   0  0  0  0  0  2  0  0  0  0  0  0
  -31.4090  -18.2080   21.2570 C   0  0  0  0  0  2  0  0  0  0  0  0
  -30.1790  -17.9140   20.3640 C   0  0  1  0  0  0  0  0  0  0  0  0
  -29.6390  -16.3340   20.5660 C   0  0  0  0  0  2  0  0  0  0  0  0
  -30.4930  -14.9330   20.3360 C   0  0  0  0  0  0  0  0  0  0  0  0
  -30.3580  -12.6090   19.3540 C   0  0  0  0  0  2  0  0  0  0  0  0
  -29.4050  -12.6330   18.1340 C   0  0  0  0  0  2  0  0  0  0  0  0
  -27.9420  -12.4280   18.5760 C   0  0  0  0  0  2  0  0  0  0  0  0
  -27.5610  -13.3190   19.7860 C   0  0  0  0  0  3  0  0  0  0  0  0
  -28.6320  -13.2790   20.8950 C   0  0  0  0  0  2  0  0  0  0  0  0
  -29.9140  -13.6690   20.2970 N   0  0  0  0  0  0  0  0  0  0  0  0
  -31.6870  -15.0010   20.0240 O   0  0  0  0  0  0  0  0  0  0  0  0
  -25.1880  -13.8940   20.5590 C   0  0  0  0  0  0  0  0  0  0  0  0
  -24.1290  -13.1150   20.9330 C   0  0  0  0  0  0  0  0  0  0  0  0
  -24.5930  -11.7640   20.8830 C   0  0  0  0  0  0  0  0  0  0  0  0
  -26.2280  -13.0180   20.2960 N   0  0  0  0  0  0  0  0  0  0  0  0
  -25.8810  -11.7320   20.5580 N   0  0  0  0  0  0  0  0  0  0  0  0
  -23.8700  -10.4990   21.0690 C   0  0  0  0  0  0  0  0  0  0  0  0
  -24.3110   -9.5250   21.9910 C   0  0  0  0  0  3  0  0  0  0  0  0
  -23.5860   -8.3260   22.1680 C   0  0  0  0  0  3  0  0  0  0  0  0
  -22.4060   -8.0930   21.4220 C   0  0  0  0  0  0  0  0  0  0  0  0
  -21.9830   -9.0560   20.4890 C   0  0  0  0  0  3  0  0  0  0  0  0
  -22.7080  -10.2470   20.3110 C   0  0  0  0  0  3  0  0  0  0  0  0
  -21.6560   -6.9450   21.5070 O   0  0  0  0  0  0  0  0  0  0  0  0
  -21.6150   -6.1940   22.6540 C   0  0  0  0  0  0  0  0  0  0  0  0
  -21.1840   -6.7350   23.8840 C   0  0  0  0  0  3  0  0  0  0  0  0
  -21.0910   -5.9100   25.0230 C   0  0  0  0  0  3  0  0  0  0  0  0
  -21.4200   -4.5450   24.9320 C   0  0  0  0  0  0  0  0  0  0  0  0
  -21.8430   -4.0020   23.7060 C   0  0  0  0  0  3  0  0  0  0  0  0
  -21.9380   -4.8240   22.5690 C   0  0  0  0  0  0  0  0  0  0  0  0
  -22.3270   -4.2920   21.3870 F   0  0  0  0  0  0  0  0  0  0  0  0
  -21.3250   -3.7500   26.0230 F   0  0  0  0  0  0  0  0  0  0  0  0
  -22.7330  -13.5870   21.2230 C   0  0  0  0  0  0  0  0  0  0  0  0
  -22.0170  -12.8850   22.0950 N   0  0  0  0  0  0  0  0  0  0  0  0
  -22.2880  -14.6140   20.7130 O   0  0  0  0  0  0  0  0  0  0  0  0
  -22.3930  -12.0550   22.5300 H   0  0  0  0  0  0  0  0  0  0  0  0
  -21.0810  -13.1830   22.3310 H   0  0  0  0  0  0  0  0  0  0  0  0
  -25.3480  -15.2650   20.3930 N   0  0  0  0  0  0  0  0  0  0  0  0
  -24.5820  -15.9170   20.5210 H   0  0  0  0  0  0  0  0  0  0  0  0
  -26.1920  -15.7070   20.0550 H   0  0  0  0  0  0  0  0  0  0  0  0
  -28.5170  -21.8860   20.2470 C   0  0  0  0  0  2  0  0  0  0  0  0
  -28.9930  -23.4840   20.3580 C   0  0  0  0  0  3  0  0  0  0  0  0
  -27.9620  -24.7640   20.0870 C   0  0  0  0  0  3  0  0  0  0  0  0
  -28.2460  -26.2690   20.2690 O   0  0  0  0  0  0  0  0  0  0  0  0
  -24.6220  -31.9110   23.2510 C   0  0  0  0  0  0  0  0  0  0  0  0
  -27.1790  -27.2270   20.2050 C   0  0  0  0  0  0  0  0  0  0  0  0
  -23.4110  -30.5230   21.6120 C   0  0  0  0  0  3  0  0  0  0  0  0
  -24.8490  -28.9510   20.1830 C   0  0  0  0  0  0  0  0  0  0  0  0
  -25.9620  -30.7900   21.4380 C   0  0  0  0  0  2  0  0  0  0  0  0
  -26.0290  -29.4020   20.7860 C   0  0  0  0  0  0  0  0  0  0  0  0
  -27.1970  -28.5550   20.7810 C   0  0  0  0  0  3  0  0  0  0  0  0
  -25.9710  -26.8670   19.5670 C   0  0  0  0  0  3  0  0  0  0  0  0
  -24.8290  -27.6950   19.5600 C   0  0  0  0  0  3  0  0  0  0  0  0
  -23.6240  -29.8470   20.2320 C   0  0  0  0  0  2  0  0  0  0  0  0
  -24.6850  -31.0940   22.1560 N   0  0  0  0  0  0  0  0  0  0  0  0
  -23.5400  -32.2000   23.7820 O   0  0  0  0  0  0  0  0  0  0  0  0
  -22.7330  -29.5160   22.5730 C   0  0  0  0  0  0  0  0  0  0  0  0
  -21.4040  -29.3500   22.4480 N   0  0  0  0  0  0  0  0  0  0  0  0
  -23.4040  -28.8860   23.3950 O   0  0  0  0  0  0  0  0  0  0  0  0
  -20.9180  -29.9130   21.7620 H   0  0  0  0  0  0  0  0  0  0  0  0
  -18.0200  -28.1660   22.9560 C   0  0  0  0  0  0  0  0  0  0  0  0
  -20.5790  -28.4170   23.2200 C   0  0  0  0  0  3  0  0  0  0  0  0
  -20.6730  -26.9830   22.6480 C   0  0  0  0  0  2  0  0  0  0  0  0
  -19.5690  -26.6630   21.6350 C   0  0  0  0  0  2  0  0  0  0  0  0
  -18.1880  -26.8160   22.2800 C   0  0  0  0  0  2  0  0  0  0  0  0
  -19.1420  -28.9250   23.3830 C   0  0  0  0  0  0  0  0  0  0  0  0
  -18.9290  -30.1880   23.9760 C   0  0  0  0  0  3  0  0  0  0  0  0
  -17.6260  -30.6940   24.1440 C   0  0  0  0  0  3  0  0  0  0  0  0
  -16.5180  -29.9340   23.7320 C   0  0  0  0  0  3  0  0  0  0  0  0
  -16.7160  -28.6720   23.1440 C   0  0  0  0  0  3  0  0  0  0  0  0
  -25.9060  -32.5400   23.8740 C   0  0  0  0  0  3  0  0  0  0  0  0
  -25.5990  -33.9380   24.2130 N   0  0  0  0  0  0  0  0  0  0  0  0
  -25.9070  -34.9950   23.4500 C   0  0  0  0  0  0  0  0  0  0  0  0
  -26.5480  -34.8950   22.4010 O   0  0  0  0  0  0  0  0  0  0  0  0
  -25.0250  -34.0890   25.0290 H   0  0  0  0  0  0  0  0  0  0  0  0
  -24.1560  -36.7820   23.1660 C   0  0  0  0  0  1  0  0  0  0  0  0
  -25.4310  -36.3820   23.9260 C   0  0  0  0  0  3  0  0  0  0  0  0
  -27.5910  -37.2840   24.6720 C   0  0  0  0  0  1  0  0  0  0  0  0
  -26.4520  -37.4410   23.7700 N   0  0  0  0  0  0  0  0  0  0  0  0
  -26.0460  -38.3590   23.9280 H   0  0  0  0  0  0  0  0  0  0  0  0
  -26.4200  -31.7640   25.1490 C   0  0  1  0  0  0  0  0  0  0  0  0
  -25.3270  -31.5280   26.2180 C   0  0  0  0  0  1  0  0  0  0  0  0
  -26.9990  -30.3840   24.7590 C   0  0  0  0  0  1  0  0  0  0  0  0
  -27.5720  -32.5530   25.8130 C   0  0  0  0  0  1  0  0  0  0  0  0
  1  5  1  0
  1  2  1  0
  3  1  1  0
  5  4  1  0
  6  8  1  0
  7  6  1  0
  7  9  1  0
  9  5  1  0
  9 10  1  1
  9  8  1  0
 11 10  1  0
 12 17  1  0
 13 14  1  0
 13 12  1  0
 15 14  1  0
 15 22  1  0
 15 16  1  0
 17 11  1  0
 17 16  1  0
 18 11  2  0
 19 20  2  0
 20 39  1  0
 21 20  1  0
 21 24  1  0
 22 23  1  0
 22 19  1  0
 23 21  2  0
 24 25  1  0
 25 26  2  0
 27 30  1  0
 27 26  1  0
 28 27  2  0
 29 28  1  0
 29 24  2  0
 30 31  1  0
 31 32  1  0
 32 33  2  0
 34 33  1  0
 34 38  1  0
 35 34  2  0
 36 31  2  0
 36 35  1  0
 37 36  1  0
 39 40  1  0
 40 43  1  0
 40 42  1  0
 41 39  2  0
 44 45  1  0
 44 19  1  0
 46 44  1  0
 47 48  1  0
 47  1  1  0
 49 50  1  0
 49 48  2  0
 51 62  2  0
 52 50  1  0
 52 57  1  0
 53 61  1  0
 53 63  1  0
 54 60  1  0
 54 56  1  0
 55 61  1  0
 56 55  1  0
 57 56  2  0
 58 52  2  0
 59 58  1  0
 59 54  2  0
 60 53  1  0
 61 51  1  0
 63 65  2  0
 64 63  1  0
 66 64  1  0
 67 76  2  0
 67 72  1  0
 68 64  1  0
 68 72  1  0
 69 68  1  0
 70 71  1  0
 70 69  1  0
 71 67  1  0
 72 73  2  0
 73 74  1  0
 75 74  2  0
 76 75  1  0
 77 51  1  0
 77 78  1  0
 77 87  1  0
 78 81  1  0
 79 83  1  0
 79 78  1  0
 80 79  2  0
 83 82  1  0
 85 83  1  0
 85 86  1  0
 85 84  1  0
 87 90  1  1
 87 88  1  0
 89 87  1  0
M  ISO  4  10 100  11 100  49 101  50 101
M  END
>  <TORSDO>  (80) 
F 22

>  <SCORE>  (80) 
-13.254

>  <name>  (80) 
79

>  <ligand_id>  (80) 
79

>  <original_smiles>  (80) 
[H]c1c([H])c([H])c2c(c1[H])C([H])([H])C([H])([H])C([H])([H])C2([H])N([H])C(=O)C1([H])N(C(=O)C([H])(N([H])C(=O)C([H])(N([H])C([H])([H])[H])C([H])([H])[H])C(C([H])([H])[H])(C([H])([H])[H])C([H])([H])[H])C([H])([H])c2c([H])c(OC([H])([H])C([H])([H])C([H])([H])[N+]([H])([H])C([H])(C([H])([H])[H])C3(C([H])([H])C(=O)N4C([H])([H])C([H])([H])C([H])([H])C([H])(n5nc(-c6c([H])c([H])c(Oc7c([H])c([H])c(F)c([H])c7F)c([H])c6[H])c(C(=O)N([H])[H])c5N([H])[H])C4([H])[H])C([H])([H])C([H])([H])C3([H])[H])c([H])c([H])c2C1([H])[H]

>  <smiles>  (80) 
[H]c1c([H])c([H])c2c(c1[H])C([H])([H])C([H])([H])C([H])([H])C2([H])N([H])C(=O)C1([H])N(C(=O)C([H])(N([H])C(=O)C([H])(N([H])C([H])([H])[H])C([H])([H])[H])C(C([H])([H])[H])(C([H])([H])[H])C([H])([H])[H])C([H])([H])c2c([H])c(OC([H])([H])C([H])([H])C([H])([H])[N+]([H])([H])C([H])(C([H])([H])[H])C3(C([H])([H])C(=O)N4C([H])([H])C([H])([H])C([H])([H])C([H])(n5nc(-c6c([H])c([H])c(Oc7c([H])c([H])c(F)c([H])c7F)c([H])c6[H])c(C(=O)N([H])[H])c5N([H])[H])C4([H])[H])C([H])([H])C([H])([H])C3([H])[H])c([H])c([H])c2C1([H])[H]

$$$$
80:0:0
     RDKit          3D

 93101  0  0  1  0  0  0  0  0999 V2000
  -30.2740  -20.6080   18.6680 C   0  0  0  0  0  1  0  0  0  0  0  0
  -30.1950  -20.5430   20.2080 C   0  0  0  0  0  3  0  0  0  0  0  0
  -30.8040  -21.9600   22.1480 C   0  0  0  0  0  1  0  0  0  0  0  0
  -30.4760  -21.9170   20.7190 N   0  0  0  0  0  0  0  0  0  0  0  0
  -29.3140  -22.8140   20.5000 C   0  0  0  0  0  2  0  0  0  0  0  0
  -29.6210  -24.3370   20.4570 C   0  0  0  0  0  2  0  0  0  0  0  0
  -28.3460  -25.1290   20.0900 C   0  0  0  0  0  2  0  0  0  0  0  0
  -28.4600  -26.5550   20.2410 O   0  0  0  0  0  0  0  0  0  0  0  0
  -24.5260  -31.7020   23.2020 C   0  0  0  0  0  0  0  0  0  0  0  0
  -27.2770  -27.2750   20.1840 C   0  0  0  0  0  0  0  0  0  0  0  0
  -23.3690  -30.2900   21.5330 C   0  0  0  0  0  3  0  0  0  0  0  0
  -24.8660  -28.7660   20.1430 C   0  0  0  0  0  0  0  0  0  0  0  0
  -25.8970  -30.6690   21.3960 C   0  0  0  0  0  2  0  0  0  0  0  0
  -26.0080  -29.3000   20.7520 C   0  0  0  0  0  0  0  0  0  0  0  0
  -27.2160  -28.5630   20.7640 C   0  0  0  0  0  3  0  0  0  0  0  0
  -26.1100  -26.7630   19.5620 C   0  0  0  0  0  3  0  0  0  0  0  0
  -24.9140  -27.4990   19.5420 C   0  0  0  0  0  3  0  0  0  0  0  0
  -23.6130  -29.6080   20.1620 C   0  0  0  0  0  2  0  0  0  0  0  0
  -24.6130  -30.9030   22.1000 N   0  0  0  0  0  0  0  0  0  0  0  0
  -23.4290  -31.9670   23.7140 O   0  0  0  0  0  0  0  0  0  0  0  0
  -22.7020  -29.2650   22.4800 C   0  0  0  0  0  0  0  0  0  0  0  0
  -21.3830  -29.0700   22.3190 N   0  0  0  0  0  0  0  0  0  0  0  0
  -23.3690  -28.6470   23.3140 O   0  0  0  0  0  0  0  0  0  0  0  0
  -20.9050  -29.6310   21.6260 H   0  0  0  0  0  0  0  0  0  0  0  0
  -18.0070  -27.8430   22.7330 C   0  0  0  0  0  0  0  0  0  0  0  0
  -20.5550  -28.1240   23.0670 C   0  0  0  0  0  3  0  0  0  0  0  0
  -20.6820  -26.6920   22.4990 C   0  0  0  0  0  2  0  0  0  0  0  0
  -19.6100  -26.3560   21.4570 C   0  0  0  0  0  2  0  0  0  0  0  0
  -18.2120  -26.4920   22.0660 C   0  0  0  0  0  2  0  0  0  0  0  0
  -19.1080  -28.6150   23.1870 C   0  0  0  0  0  0  0  0  0  0  0  0
  -18.8640  -29.8790   23.7680 C   0  0  0  0  0  3  0  0  0  0  0  0
  -17.5540  -30.3730   23.8940 C   0  0  0  0  0  3  0  0  0  0  0  0
  -16.4660  -29.5980   23.4540 C   0  0  0  0  0  3  0  0  0  0  0  0
  -16.6940  -28.3330   22.8820 C   0  0  0  0  0  3  0  0  0  0  0  0
  -25.7910  -32.3430   23.8540 C   0  0  0  0  0  3  0  0  0  0  0  0
  -25.4670  -33.7420   24.1630 N   0  0  0  0  0  0  0  0  0  0  0  0
  -25.7980  -34.7870   23.3930 C   0  0  0  0  0  0  0  0  0  0  0  0
  -26.4800  -34.6770   22.3700 O   0  0  0  0  0  0  0  0  0  0  0  0
  -24.8630  -33.9020   24.9560 H   0  0  0  0  0  0  0  0  0  0  0  0
  -24.0470  -36.5530   23.0120 C   0  0  0  0  0  1  0  0  0  0  0  0
  -25.2940  -36.1760   23.8280 C   0  0  0  0  0  3  0  0  0  0  0  0
  -27.4200  -37.1000   24.6400 C   0  0  0  0  0  1  0  0  0  0  0  0
  -26.3140  -37.2400   23.6950 N   0  0  0  0  0  0  0  0  0  0  0  0
  -25.8980  -38.1580   23.8270 H   0  0  0  0  0  0  0  0  0  0  0  0
  -26.2800  -31.5840   25.1470 C   0  0  1  0  0  0  0  0  0  0  0  0
  -25.1620  -31.3520   26.1920 C   0  0  0  0  0  1  0  0  0  0  0  0
  -26.8830  -30.2060   24.7830 C   0  0  0  0  0  1  0  0  0  0  0  0
  -27.4070  -32.3900   25.8350 C   0  0  0  0  0  1  0  0  0  0  0  0
  -31.1320  -19.3590   20.6800 C   0  0  0  0  0  2  0  0  0  0  0  0
  -28.4560  -17.5960   19.0430 C   0  0  0  0  0  2  0  0  0  0  0  0
  -28.0260  -17.5550   20.5190 C   0  0  0  0  0  2  0  0  0  0  0  0
  -29.8230  -16.9200   18.8040 C   0  0  0  0  0  2  0  0  0  0  0  0
  -29.1000  -18.0770   21.5120 C   0  0  0  0  0  2  0  0  0  0  0  0
  -30.7620  -16.8880   20.0420 C   0  0  0  0  0  3  0  0  0  0  0  0
  -30.4910  -18.0300   20.9820 N   0  0  1  0  0  4  0  0  0  0  0  0
  -31.0320  -17.7750   21.7960 H   0  0  0  0  0  0  0  0  0  0  0  0
  -30.6960  -15.4900   20.7680 C   0  0  0  0  0  2  0  0  0  0  0  0
  -31.1760  -14.2650   19.9380 C   0  0  0  0  0  0  0  0  0  0  0  0
  -30.6800  -12.1560   18.7470 C   0  0  0  0  0  2  0  0  0  0  0  0
  -29.7160  -12.4740   17.5840 C   0  0  0  0  0  2  0  0  0  0  0  0
  -28.2510  -12.4060   18.0700 C   0  0  0  0  0  2  0  0  0  0  0  0
  -28.0190  -13.2220   19.3720 C   0  0  0  0  0  3  0  0  0  0  0  0
  -29.1040  -12.8890   20.4200 C   0  0  0  0  0  2  0  0  0  0  0  0
  -30.4190  -13.1380   19.8120 N   0  0  0  0  0  0  0  0  0  0  0  0
  -32.2570  -14.3750   19.3530 O   0  0  0  0  0  0  0  0  0  0  0  0
  -25.6950  -13.9740   20.1830 C   0  0  0  0  0  0  0  0  0  0  0  0
  -24.5990  -13.2730   20.6000 C   0  0  0  0  0  0  0  0  0  0  0  0
  -24.9740  -11.8960   20.5550 C   0  0  0  0  0  0  0  0  0  0  0  0
  -26.6730  -13.0300   19.9050 N   0  0  0  0  0  0  0  0  0  0  0  0
  -26.2450  -11.7750   20.1900 N   0  0  0  0  0  0  0  0  0  0  0  0
  -24.1830  -10.6820   20.7900 C   0  0  0  0  0  0  0  0  0  0  0  0
  -24.5840   -9.7110   21.7340 C   0  0  0  0  0  3  0  0  0  0  0  0
  -23.7990   -8.5600   21.9530 C   0  0  0  0  0  3  0  0  0  0  0  0
  -22.5980   -8.3710   21.2270 C   0  0  0  0  0  0  0  0  0  0  0  0
  -22.2170   -9.3300   20.2720 C   0  0  0  0  0  3  0  0  0  0  0  0
  -23.0010  -10.4720   20.0530 C   0  0  0  0  0  3  0  0  0  0  0  0
  -21.7850   -7.2720   21.3560 O   0  0  0  0  0  0  0  0  0  0  0  0
  -21.6910   -6.5780   22.5340 C   0  0  0  0  0  0  0  0  0  0  0  0
  -21.2970   -7.2040   23.7370 C   0  0  0  0  0  3  0  0  0  0  0  0
  -21.1460   -6.4380   24.9110 C   0  0  0  0  0  3  0  0  0  0  0  0
  -21.3800   -5.0500   24.8820 C   0  0  0  0  0  0  0  0  0  0  0  0
  -21.7660   -4.4260   23.6840 C   0  0  0  0  0  3  0  0  0  0  0  0
  -21.9180   -5.1870   22.5120 C   0  0  0  0  0  0  0  0  0  0  0  0
  -22.2710   -4.5760   21.3550 F   0  0  0  0  0  0  0  0  0  0  0  0
  -21.2230   -4.3140   26.0080 F   0  0  0  0  0  0  0  0  0  0  0  0
  -23.2470  -13.8360   20.9310 C   0  0  0  0  0  0  0  0  0  0  0  0
  -22.5210  -13.1990   21.8420 N   0  0  0  0  0  0  0  0  0  0  0  0
  -22.8470  -14.8810   20.4140 O   0  0  0  0  0  0  0  0  0  0  0  0
  -22.8610  -12.3550   22.2790 H   0  0  0  0  0  0  0  0  0  0  0  0
  -21.6140  -13.5610   22.1060 H   0  0  0  0  0  0  0  0  0  0  0  0
  -25.9380  -15.3310   19.9980 N   0  0  0  0  0  0  0  0  0  0  0  0
  -25.2260  -16.0320   20.1680 H   0  0  0  0  0  0  0  0  0  0  0  0
  -26.8000  -15.7150   19.6380 H   0  0  0  0  0  0  0  0  0  0  0  0
  2  1  1  0
  2 49  1  0
  2  4  1  0
  4  3  1  0
  5  4  1  0
  6  5  1  0
  7  8  1  0
  7  6  1  0
  9 20  2  0
 10  8  1  0
 10 15  1  0
 11 19  1  0
 11 21  1  0
 12 18  1  0
 12 14  1  0
 13 19  1  0
 14 15  2  0
 14 13  1  0
 16 10  2  0
 17 16  1  0
 17 12  2  0
 18 11  1  0
 19  9  1  0
 21 23  2  0
 22 21  1  0
 24 22  1  0
 25 34  2  0
 25 30  1  0
 26 22  1  0
 26 30  1  0
 27 26  1  0
 28 29  1  0
 28 27  1  0
 29 25  1  0
 30 31  2  0
 31 32  1  0
 33 32  2  0
 34 33  1  0
 35  9  1  0
 35 36  1  0
 35 45  1  0
 36 39  1  0
 37 41  1  0
 37 36  1  0
 38 37  2  0
 41 40  1  0
 43 44  1  0
 43 41  1  0
 43 42  1  0
 45 48  1  1
 45 46  1  0
 47 45  1  0
 49 55  1  0
 50 51  1  0
 51 53  1  0
 52 50  1  0
 52 54  1  0
 54 57  1  0
 54 55  1  0
 55 53  1  0
 55 56  1  1
 58 57  1  0
 59 64  1  0
 60 61  1  0
 60 59  1  0
 62 61  1  0
 62 69  1  0
 62 63  1  0
 64 58  1  0
 64 63  1  0
 65 58  2  0
 66 67  2  0
 67 86  1  0
 68 67  1  0
 68 71  1  0
 69 66  1  0
 69 70  1  0
 70 68  2  0
 71 72  1  0
 72 73  2  0
 74 77  1  0
 74 73  1  0
 75 74  2  0
 76 75  1  0
 76 71  2  0
 77 78  1  0
 78 79  1  0
 79 80  2  0
 81 80  1  0
 81 85  1  0
 82 81  2  0
 83 78  2  0
 83 82  1  0
 84 83  1  0
 86 87  1  0
 87 90  1  0
 87 89  1  0
 88 86  2  0
 91 92  1  0
 91 66  1  0
 93 91  1  0
M  ISO  4   7 101   8 101  57 100  58 100
M  END
>  <TORSDO>  (81) 
F 23

>  <SCORE>  (81) 
-11.908

>  <name>  (81) 
80

>  <ligand_id>  (81) 
80

>  <original_smiles>  (81) 
[H]c1c([H])c([H])c2c(c1[H])C([H])([H])C([H])([H])C([H])([H])C2([H])N([H])C(=O)C1([H])N(C(=O)C([H])(N([H])C(=O)C([H])(N([H])C([H])([H])[H])C([H])([H])[H])C(C([H])([H])[H])(C([H])([H])[H])C([H])([H])[H])C([H])([H])c2c([H])c(OC([H])([H])C([H])([H])C([H])([H])N(C([H])([H])[H])C([H])(C([H])([H])[H])C([H])([H])[N+]3([H])C([H])([H])C([H])([H])C([H])([H])C([H])([H])C3([H])C([H])([H])C(=O)N3C([H])([H])C([H])([H])C([H])([H])C([H])(n4nc(-c5c([H])c([H])c(Oc6c([H])c([H])c(F)c([H])c6F)c([H])c5[H])c(C(=O)N([H])[H])c4N([H])[H])C3([H])[H])c([H])c([H])c2C1([H])[H]

>  <smiles>  (81) 
[H]c1c([H])c([H])c2c(c1[H])C([H])([H])C([H])([H])C([H])([H])C2([H])N([H])C(=O)C1([H])N(C(=O)C([H])(N([H])C(=O)C([H])(N([H])C([H])([H])[H])C([H])([H])[H])C(C([H])([H])[H])(C([H])([H])[H])C([H])([H])[H])C([H])([H])c2c([H])c(OC([H])([H])C([H])([H])C([H])([H])N(C([H])([H])[H])C([H])(C([H])([H])[H])C([H])([H])[N+]3([H])C([H])([H])C([H])([H])C([H])([H])C([H])([H])C3([H])C([H])([H])C(=O)N3C([H])([H])C([H])([H])C([H])([H])C([H])(n4nc(-c5c([H])c([H])c(Oc6c([H])c([H])c(F)c([H])c6F)c([H])c5[H])c(C(=O)N([H])[H])c4N([H])[H])C3([H])[H])c([H])c([H])c2C1([H])[H]

$$$$
81:0:0
     RDKit          3D

 84 92  0  0  1  0  0  0  0  0999 V2000
  -30.1340  -20.0670   21.3740 C   0  0  0  0  0  3  0  0  0  0  0  0
  -29.6680  -21.6500   21.4630 C   0  0  0  0  0  3  0  0  0  0  0  0
  -28.4430  -20.5530   19.8990 C   0  0  0  0  0  2  0  0  0  0  0  0
  -29.5240  -19.1620   20.2150 C   0  0  0  0  0  3  0  0  0  0  0  0
  -28.8650  -22.2570   20.2370 C   0  0  0  0  0  3  0  0  0  0  0  0
  -29.3450  -17.2540   20.3700 C   0  0  0  0  0  2  0  0  0  0  0  0
  -30.2370  -15.6430   20.1640 C   0  0  0  0  0  0  0  0  0  0  0  0
  -30.3380  -13.1260   19.2970 C   0  0  0  0  0  2  0  0  0  0  0  0
  -29.4040  -12.8140   18.0910 C   0  0  0  0  0  2  0  0  0  0  0  0
  -27.9810  -12.4690   18.5640 C   0  0  0  0  0  2  0  0  0  0  0  0
  -27.5140  -13.4320   19.6800 C   0  0  0  0  0  3  0  0  0  0  0  0
  -28.5760  -13.6640   20.7770 C   0  0  0  0  0  2  0  0  0  0  0  0
  -29.7610  -14.2670   20.1300 N   0  0  0  0  0  0  0  0  0  0  0  0
  -31.4540  -15.6290   19.9000 O   0  0  0  0  0  0  0  0  0  0  0  0
  -25.1660  -13.9370   20.5150 C   0  0  0  0  0  0  0  0  0  0  0  0
  -24.1220  -13.1430   20.8980 C   0  0  0  0  0  0  0  0  0  0  0  0
  -24.6030  -11.7980   20.8350 C   0  0  0  0  0  0  0  0  0  0  0  0
  -26.2100  -13.0780   20.2270 N   0  0  0  0  0  0  0  0  0  0  0  0
  -25.8880  -11.7830   20.4880 N   0  0  0  0  0  0  0  0  0  0  0  0
  -23.8920  -10.5270   21.0260 C   0  0  0  0  0  0  0  0  0  0  0  0
  -24.3400   -9.5570   21.9500 C   0  0  0  0  0  3  0  0  0  0  0  0
  -23.6240   -8.3540   22.1310 C   0  0  0  0  0  3  0  0  0  0  0  0
  -22.4450   -8.1110   21.3880 C   0  0  0  0  0  0  0  0  0  0  0  0
  -22.0150   -9.0680   20.4530 C   0  0  0  0  0  3  0  0  0  0  0  0
  -22.7320  -10.2630   20.2710 C   0  0  0  0  0  3  0  0  0  0  0  0
  -21.6990   -6.9600   21.4770 O   0  0  0  0  0  0  0  0  0  0  0  0
  -21.6520   -6.2210   22.6330 C   0  0  0  0  0  0  0  0  0  0  0  0
  -21.1970   -6.7710   23.8510 C   0  0  0  0  0  3  0  0  0  0  0  0
  -21.0990   -5.9580   24.9970 C   0  0  0  0  0  3  0  0  0  0  0  0
  -21.4440   -4.5950   24.9270 C   0  0  0  0  0  0  0  0  0  0  0  0
  -21.8920   -4.0440   23.7130 C   0  0  0  0  0  3  0  0  0  0  0  0
  -21.9920   -4.8550   22.5690 C   0  0  0  0  0  0  0  0  0  0  0  0
  -22.4040   -4.3130   21.3970 F   0  0  0  0  0  0  0  0  0  0  0  0
  -21.3430   -3.8120   26.0270 F   0  0  0  0  0  0  0  0  0  0  0  0
  -22.7280  -13.6030   21.2060 C   0  0  0  0  0  0  0  0  0  0  0  0
  -22.0300  -12.8950   22.0860 N   0  0  0  0  0  0  0  0  0  0  0  0
  -22.2690  -14.6260   20.7010 O   0  0  0  0  0  0  0  0  0  0  0  0
  -22.4160  -12.0680   22.5160 H   0  0  0  0  0  0  0  0  0  0  0  0
  -21.0950  -13.1860   22.3350 H   0  0  0  0  0  0  0  0  0  0  0  0
  -25.3100  -15.3120   20.3570 N   0  0  0  0  0  0  0  0  0  0  0  0
  -24.5420  -15.9580   20.5070 H   0  0  0  0  0  0  0  0  0  0  0  0
  -26.1500  -15.7680   20.0250 H   0  0  0  0  0  0  0  0  0  0  0  0
  -27.9320  -23.9400   20.3090 C   0  0  0  0  0  2  0  0  0  0  0  0
  -28.1520  -25.6650   20.3680 O   0  0  0  0  0  0  0  0  0  0  0  0
  -24.6530  -31.9180   23.2610 C   0  0  0  0  0  0  0  0  0  0  0  0
  -27.1710  -26.8510   20.3120 C   0  0  0  0  0  0  0  0  0  0  0  0
  -23.4600  -30.5140   21.6320 C   0  0  0  0  0  3  0  0  0  0  0  0
  -24.9030  -28.8570   20.2350 C   0  0  0  0  0  0  0  0  0  0  0  0
  -26.0380  -30.6600   21.5080 C   0  0  0  0  0  2  0  0  0  0  0  0
  -26.0980  -29.2260   20.8630 C   0  0  0  0  0  0  0  0  0  0  0  0
  -27.2190  -28.2510   20.8690 C   0  0  0  0  0  3  0  0  0  0  0  0
  -25.9410  -26.6770   19.6300 C   0  0  0  0  0  3  0  0  0  0  0  0
  -24.8600  -27.6070   19.5950 C   0  0  0  0  0  3  0  0  0  0  0  0
  -23.6980  -29.8070   20.2670 C   0  0  0  0  0  2  0  0  0  0  0  0
  -24.7410  -31.0620   22.1870 N   0  0  0  0  0  0  0  0  0  0  0  0
  -23.5610  -32.2250   23.7690 O   0  0  0  0  0  0  0  0  0  0  0  0
  -22.7420  -29.5440   22.6090 C   0  0  0  0  0  0  0  0  0  0  0  0
  -21.4100  -29.3890   22.4770 N   0  0  0  0  0  0  0  0  0  0  0  0
  -23.3930  -28.9290   23.4560 O   0  0  0  0  0  0  0  0  0  0  0  0
  -20.9340  -29.9350   21.7720 H   0  0  0  0  0  0  0  0  0  0  0  0
  -18.0200  -28.1820   22.9770 C   0  0  0  0  0  0  0  0  0  0  0  0
  -20.5780  -28.4610   23.2540 C   0  0  0  0  0  3  0  0  0  0  0  0
  -20.6850  -27.0200   22.7000 C   0  0  0  0  0  2  0  0  0  0  0  0
  -19.5930  -26.6820   21.6820 C   0  0  0  0  0  2  0  0  0  0  0  0
  -18.2060  -26.8280   22.3130 C   0  0  0  0  0  2  0  0  0  0  0  0
  -19.1320  -28.9550   23.4040 C   0  0  0  0  0  0  0  0  0  0  0  0
  -18.9010  -30.2200   23.9880 C   0  0  0  0  0  3  0  0  0  0  0  0
  -17.5920  -30.7110   24.1470 C   0  0  0  0  0  3  0  0  0  0  0  0
  -16.4950  -29.9370   23.7330 C   0  0  0  0  0  3  0  0  0  0  0  0
  -16.7100  -28.6740   23.1540 C   0  0  0  0  0  3  0  0  0  0  0  0
  -25.9200  -32.5640   23.8990 C   0  0  0  0  0  3  0  0  0  0  0  0
  -25.6030  -33.9680   24.2250 N   0  0  0  0  0  0  0  0  0  0  0  0
  -25.9170  -35.0270   23.4660 C   0  0  0  0  0  0  0  0  0  0  0  0
  -26.5610  -34.9250   22.4200 O   0  0  0  0  0  0  0  0  0  0  0  0
  -25.0260  -34.1200   25.0390 H   0  0  0  0  0  0  0  0  0  0  0  0
  -24.1670  -36.8190   23.1850 C   0  0  0  0  0  1  0  0  0  0  0  0
  -25.4450  -36.4190   23.9400 C   0  0  0  0  0  3  0  0  0  0  0  0
  -27.6070  -37.3280   24.6720 C   0  0  0  0  0  1  0  0  0  0  0  0
  -26.4660  -37.4770   23.7720 N   0  0  0  0  0  0  0  0  0  0  0  0
  -26.0620  -38.3970   23.9240 H   0  0  0  0  0  0  0  0  0  0  0  0
  -26.4120  -31.8110   25.1980 C   0  0  1  0  0  0  0  0  0  0  0  0
  -25.3010  -31.5980   26.2550 C   0  0  0  0  0  1  0  0  0  0  0  0
  -26.9910  -30.4220   24.8470 C   0  0  0  0  0  1  0  0  0  0  0  0
  -27.5580  -32.6080   25.8620 C   0  0  0  0  0  1  0  0  0  0  0  0
  1  2  2  0
  3  4  1  0
  3  5  1  0
  4  6  1  0
  4  1  1  0
  5 43  1  0
  5  2  1  0
  7  6  1  0
  8 13  1  0
  9 10  1  0
  9  8  1  0
 11 10  1  0
 11 18  1  0
 11 12  1  0
 13  7  1  0
 13 12  1  0
 14  7  2  0
 15 16  2  0
 16 35  1  0
 17 16  1  0
 17 20  1  0
 18 19  1  0
 18 15  1  0
 19 17  2  0
 20 21  1  0
 21 22  2  0
 23 26  1  0
 23 22  1  0
 24 23  2  0
 25 24  1  0
 25 20  2  0
 26 27  1  0
 27 28  1  0
 28 29  2  0
 30 29  1  0
 30 34  1  0
 31 30  2  0
 32 27  2  0
 32 31  1  0
 33 32  1  0
 35 36  1  0
 36 39  1  0
 36 38  1  0
 37 35  2  0
 40 41  1  0
 40 15  1  0
 42 40  1  0
 43 44  1  0
 45 56  2  0
 46 44  1  0
 46 51  1  0
 47 55  1  0
 47 57  1  0
 48 54  1  0
 48 50  1  0
 49 55  1  0
 50 51  2  0
 50 49  1  0
 52 46  2  0
 53 52  1  0
 53 48  2  0
 54 47  1  0
 55 45  1  0
 57 59  2  0
 58 57  1  0
 60 58  1  0
 61 70  2  0
 61 66  1  0
 62 58  1  0
 62 66  1  0
 63 62  1  0
 64 65  1  0
 64 63  1  0
 65 61  1  0
 66 67  2  0
 67 68  1  0
 69 68  2  0
 70 69  1  0
 71 45  1  0
 71 72  1  0
 71 81  1  0
 72 75  1  0
 73 77  1  0
 73 72  1  0
 74 73  2  0
 77 76  1  0
 79 80  1  0
 79 77  1  0
 79 78  1  0
 81 84  1  1
 81 82  1  0
 83 81  1  0
M  ISO  4   6 100   7 100  43 101  44 101
M  END
>  <TORSDO>  (82) 
F 18

>  <SCORE>  (82) 
-16.472

>  <name>  (82) 
81

>  <ligand_id>  (82) 
81

>  <original_smiles>  (82) 
[H]c1c([H])c([H])c2c(c1[H])C([H])([H])C([H])([H])C([H])([H])C2([H])N([H])C(=O)C1([H])N(C(=O)C([H])(N([H])C(=O)C([H])(N([H])C([H])([H])[H])C([H])([H])[H])C(C([H])([H])[H])(C([H])([H])[H])C([H])([H])[H])C([H])([H])c2c([H])c(OC([H])([H])C3([H])C([H])([H])C([H])([H])C([H])(C([H])([H])C(=O)N4C([H])([H])C([H])([H])C([H])([H])C([H])(n5nc(-c6c([H])c([H])c(Oc7c([H])c([H])c(F)c([H])c7F)c([H])c6[H])c(C(=O)N([H])[H])c5N([H])[H])C4([H])[H])C3([H])[H])c([H])c([H])c2C1([H])[H]

>  <smiles>  (82) 
[H]c1c([H])c([H])c2c(c1[H])C([H])([H])C([H])([H])C([H])([H])C2([H])N([H])C(=O)C1([H])N(C(=O)C([H])(N([H])C(=O)C([H])(N([H])C([H])([H])[H])C([H])([H])[H])C(C([H])([H])[H])(C([H])([H])[H])C([H])([H])[H])C([H])([H])c2c([H])c(OC([H])([H])C3([H])C([H])([H])C([H])([H])C([H])(C([H])([H])C(=O)N4C([H])([H])C([H])([H])C([H])([H])C([H])(n5nc(-c6c([H])c([H])c(Oc7c([H])c([H])c(F)c([H])c7F)c([H])c6[H])c(C(=O)N([H])[H])c5N([H])[H])C4([H])[H])C3([H])[H])c([H])c([H])c2C1([H])[H]

$$$$
82:0:0
     RDKit          3D

 95102  0  0  1  0  0  0  0  0999 V2000
  -27.5020  -20.3900   20.3320 C   0  0  0  0  0  3  0  0  0  0  0  0
  -27.2930  -21.8400   20.4320 N   0  0  0  0  0  0  0  0  0  0  0  0
  -26.9210  -22.1880   19.5550 H   0  0  0  0  0  0  0  0  0  0  0  0
  -28.4390  -22.6680   20.8060 C   0  0  0  0  0  2  0  0  0  0  0  0
  -27.9880  -24.1380   20.9810 C   0  0  0  0  0  2  0  0  0  0  0  0
  -28.9420  -25.1700   20.3290 C   0  0  0  0  0  2  0  0  0  0  0  0
  -28.7980  -26.5040   20.8410 O   0  0  0  0  0  0  0  0  0  0  0  0
  -24.7630  -31.7980   23.3220 C   0  0  0  0  0  0  0  0  0  0  0  0
  -27.6090  -27.1880   20.6880 C   0  0  0  0  0  0  0  0  0  0  0  0
  -23.6700  -30.2960   21.6910 C   0  0  0  0  0  3  0  0  0  0  0  0
  -25.2130  -28.6810   20.4590 C   0  0  0  0  0  0  0  0  0  0  0  0
  -26.2040  -30.6490   21.6430 C   0  0  0  0  0  2  0  0  0  0  0  0
  -26.3290  -29.2430   21.0900 C   0  0  0  0  0  0  0  0  0  0  0  0
  -27.5280  -28.5040   21.2020 C   0  0  0  0  0  3  0  0  0  0  0  0
  -26.4710  -26.6430   20.0480 C   0  0  0  0  0  3  0  0  0  0  0  0
  -25.2770  -27.3770   19.9400 C   0  0  0  0  0  3  0  0  0  0  0  0
  -23.9710  -29.5370   20.3700 C   0  0  0  0  0  2  0  0  0  0  0  0
  -24.8940  -30.9310   22.2770 N   0  0  0  0  0  0  0  0  0  0  0  0
  -23.6480  -32.0970   23.7700 O   0  0  0  0  0  0  0  0  0  0  0  0
  -22.9590  -29.3290   22.6630 C   0  0  0  0  0  0  0  0  0  0  0  0
  -21.6430  -29.1420   22.4650 N   0  0  0  0  0  0  0  0  0  0  0  0
  -23.5890  -28.7450   23.5500 O   0  0  0  0  0  0  0  0  0  0  0  0
  -21.2000  -29.6630   21.7210 H   0  0  0  0  0  0  0  0  0  0  0  0
  -18.2270  -28.0350   22.8610 C   0  0  0  0  0  0  0  0  0  0  0  0
  -20.7750  -28.2520   23.2340 C   0  0  0  0  0  3  0  0  0  0  0  0
  -20.8720  -26.7980   22.7160 C   0  0  0  0  0  2  0  0  0  0  0  0
  -19.8090  -26.4590   21.6680 C   0  0  0  0  0  2  0  0  0  0  0  0
  -18.4030  -26.6560   22.2450 C   0  0  0  0  0  2  0  0  0  0  0  0
  -19.3420  -28.7910   23.3110 C   0  0  0  0  0  0  0  0  0  0  0  0
  -19.1260  -30.0800   23.8440 C   0  0  0  0  0  3  0  0  0  0  0  0
  -17.8270  -30.6140   23.9320 C   0  0  0  0  0  3  0  0  0  0  0  0
  -16.7250  -29.8550   23.5000 C   0  0  0  0  0  3  0  0  0  0  0  0
  -16.9260  -28.5680   22.9700 C   0  0  0  0  0  3  0  0  0  0  0  0
  -26.0060  -32.4690   23.9870 C   0  0  0  0  0  3  0  0  0  0  0  0
  -25.6520  -33.8650   24.2710 N   0  0  0  0  0  0  0  0  0  0  0  0
  -25.9750  -34.9050   23.4900 C   0  0  0  0  0  0  0  0  0  0  0  0
  -26.6730  -34.7930   22.4790 O   0  0  0  0  0  0  0  0  0  0  0  0
  -25.0340  -34.0260   25.0530 H   0  0  0  0  0  0  0  0  0  0  0  0
  -24.1910  -36.6250   23.0610 C   0  0  0  0  0  1  0  0  0  0  0  0
  -25.4380  -36.2920   23.8950 C   0  0  0  0  0  3  0  0  0  0  0  0
  -27.5370  -37.2710   24.7090 C   0  0  0  0  0  1  0  0  0  0  0  0
  -26.4360  -37.3740   23.7540 N   0  0  0  0  0  0  0  0  0  0  0  0
  -26.0010  -38.2840   23.8700 H   0  0  0  0  0  0  0  0  0  0  0  0
  -26.4800  -31.7370   25.3030 C   0  0  1  0  0  0  0  0  0  0  0  0
  -25.3370  -31.4590   26.3080 C   0  0  0  0  0  1  0  0  0  0  0  0
  -27.1480  -30.3830   24.9640 C   0  0  0  0  0  1  0  0  0  0  0  0
  -27.5520  -32.5910   26.0220 C   0  0  0  0  0  1  0  0  0  0  0  0
  -26.4350  -19.8700   19.3260 C   0  0  0  0  0  2  0  0  0  0  0  0
  -24.4630  -18.3470   18.8870 C   0  0  0  0  0  1  0  0  0  0  0  0
  -26.6980  -17.3250   19.4380 C   0  0  0  0  0  1  0  0  0  0  0  0
  -25.7670  -18.5240   19.6830 C   0  0  0  0  0  3  0  0  0  0  0  0
  -28.9380  -19.9940   19.8770 C   0  0  0  0  0  2  0  0  0  0  0  0
  -29.2610  -18.5770   20.1810 N   0  0  0  0  0  4  0  0  0  0  0  0
  -28.4130  -18.0330   20.1930 H   0  0  0  0  0  0  0  0  0  0  0  0
  -29.6500  -18.5550   21.1110 H   0  0  0  0  0  0  0  0  0  0  0  0
  -29.5140  -17.3750   18.0090 C   0  0  0  0  0  1  0  0  0  0  0  0
  -30.2270  -17.9520   19.2450 C   0  0  0  0  0  3  0  0  0  0  0  0
  -31.1670  -16.9270   19.9330 C   0  0  0  0  0  2  0  0  0  0  0  0
  -30.5270  -15.7360   20.7070 C   0  0  0  0  0  2  0  0  0  0  0  0
  -31.2740  -14.4040   20.4280 C   0  0  0  0  0  0  0  0  0  0  0  0
  -30.9110  -12.2360   19.3290 C   0  0  0  0  0  2  0  0  0  0  0  0
  -29.9970  -12.5130   18.1130 C   0  0  0  0  0  2  0  0  0  0  0  0
  -28.5110  -12.4440   18.5180 C   0  0  0  0  0  2  0  0  0  0  0  0
  -28.2000  -13.2780   19.7870 C   0  0  0  0  0  3  0  0  0  0  0  0
  -29.2370  -13.0120   20.9060 C   0  0  0  0  0  2  0  0  0  0  0  0
  -30.5790  -13.2400   20.3500 N   0  0  0  0  0  0  0  0  0  0  0  0
  -32.4570  -14.4900   20.0880 O   0  0  0  0  0  0  0  0  0  0  0  0
  -25.8350  -14.0010   20.5120 C   0  0  0  0  0  0  0  0  0  0  0  0
  -24.7280  -13.2820   20.8570 C   0  0  0  0  0  0  0  0  0  0  0  0
  -25.1090  -11.9100   20.7850 C   0  0  0  0  0  0  0  0  0  0  0  0
  -26.8320  -13.0720   20.2540 N   0  0  0  0  0  0  0  0  0  0  0  0
  -26.3980  -11.8060   20.4860 N   0  0  0  0  0  0  0  0  0  0  0  0
  -24.3140  -10.6860   20.9240 C   0  0  0  0  0  0  0  0  0  0  0  0
  -24.6980   -9.6560   21.8140 C   0  0  0  0  0  3  0  0  0  0  0  0
  -23.9090   -8.4930   21.9420 C   0  0  0  0  0  3  0  0  0  0  0  0
  -22.7190   -8.3570   21.1870 C   0  0  0  0  0  0  0  0  0  0  0  0
  -22.3500   -9.3790   20.2960 C   0  0  0  0  0  3  0  0  0  0  0  0
  -23.1380  -10.5330   20.1650 C   0  0  0  0  0  3  0  0  0  0  0  0
  -21.8940   -7.2610   21.2370 O   0  0  0  0  0  0  0  0  0  0  0  0
  -21.8090   -6.4790   22.3640 C   0  0  0  0  0  0  0  0  0  0  0  0
  -21.4300   -7.0120   23.6150 C   0  0  0  0  0  3  0  0  0  0  0  0
  -21.2910   -6.1600   24.7300 C   0  0  0  0  0  3  0  0  0  0  0  0
  -21.5160   -4.7760   24.5920 C   0  0  0  0  0  0  0  0  0  0  0  0
  -21.8870   -4.2440   23.3460 C   0  0  0  0  0  3  0  0  0  0  0  0
  -22.0280   -5.0940   22.2360 C   0  0  0  0  0  0  0  0  0  0  0  0
  -22.3720   -4.5760   21.0310 F   0  0  0  0  0  0  0  0  0  0  0  0
  -21.3690   -3.9550   25.6580 F   0  0  0  0  0  0  0  0  0  0  0  0
  -23.3610  -13.8380   21.1300 C   0  0  0  0  0  0  0  0  0  0  0  0
  -22.5790  -13.1660   21.9670 N   0  0  0  0  0  0  0  0  0  0  0  0
  -22.9910  -14.8990   20.6320 O   0  0  0  0  0  0  0  0  0  0  0  0
  -21.6570  -13.5160   22.1900 H   0  0  0  0  0  0  0  0  0  0  0  0
  -22.8710  -12.2760   22.3480 H   0  0  0  0  0  0  0  0  0  0  0  0
  -26.0580  -15.3650   20.3710 N   0  0  0  0  0  0  0  0  0  0  0  0
  -25.2490  -15.9760   20.3850 H   0  0  0  0  0  0  0  0  0  0  0  0
  -26.7920  -15.6960   19.7670 H   0  0  0  0  0  0  0  0  0  0  0  0
  1 48  1  0
  1  2  1  0
  2  4  1  0
  3  2  1  0
  4  5  1  0
  6  7  1  0
  6  5  1  0
  8 19  2  0
  9  7  1  0
  9 14  1  0
 10 18  1  0
 10 20  1  0
 11 13  1  0
 12 18  1  0
 13 14  2  0
 13 12  1  0
 15  9  2  0
 16 15  1  0
 16 11  2  0
 17 11  1  0
 17 10  1  0
 18  8  1  0
 20 22  2  0
 21 20  1  0
 23 21  1  0
 24 33  2  0
 24 29  1  0
 25 21  1  0
 25 29  1  0
 26 25  1  0
 27 28  1  0
 27 26  1  0
 28 24  1  0
 29 30  2  0
 30 31  1  0
 32 31  2  0
 33 32  1  0
 34  8  1  0
 34 35  1  0
 34 44  1  0
 35 38  1  0
 36 40  1  0
 36 35  1  0
 37 36  2  0
 40 39  1  0
 42 43  1  0
 42 40  1  0
 42 41  1  0
 44 47  1  1
 44 45  1  0
 46 44  1  0
 48 51  1  0
 49 51  1  0
 50 51  1  0
 52 53  1  0
 52  1  1  0
 53 54  1  0
 53 55  1  0
 57 56  1  0
 57 58  1  0
 57 53  1  0
 58 59  1  0
 60 59  1  0
 61 66  1  0
 62 63  1  0
 62 61  1  0
 64 63  1  0
 64 71  1  0
 64 65  1  0
 66 60  1  0
 66 65  1  0
 67 60  2  0
 68 69  2  0
 69 88  1  0
 70 69  1  0
 70 73  1  0
 71 72  1  0
 71 68  1  0
 72 70  2  0
 73 74  1  0
 74 75  2  0
 76 79  1  0
 76 75  1  0
 77 76  2  0
 78 77  1  0
 78 73  2  0
 79 80  1  0
 80 81  1  0
 81 82  2  0
 83 82  1  0
 83 87  1  0
 84 83  2  0
 85 80  2  0
 85 84  1  0
 86 85  1  0
 88 89  1  0
 89 91  1  0
 89 92  1  0
 90 88  2  0
 93 94  1  0
 93 68  1  0
 95 93  1  0
M  ISO  4   6 101   7 101  59 100  60 100
M  END
>  <TORSDO>  (83) 
F 27

>  <SCORE>  (83) 
-9.211

>  <name>  (83) 
82

>  <ligand_id>  (83) 
82

>  <original_smiles>  (83) 
[H]c1c([H])c([H])c2c(c1[H])C([H])([H])C([H])([H])C([H])([H])C2([H])N([H])C(=O)C1([H])N(C(=O)C([H])(N([H])C(=O)C([H])(N([H])C([H])([H])[H])C([H])([H])[H])C(C([H])([H])[H])(C([H])([H])[H])C([H])([H])[H])C([H])([H])c2c([H])c(OC([H])([H])C([H])([H])C([H])([H])N([H])C([H])(C([H])([H])C([H])(C([H])([H])[H])C([H])([H])[H])C([H])([H])[N+]([H])([H])C([H])(C([H])([H])[H])C([H])([H])C([H])([H])C(=O)N3C([H])([H])C([H])([H])C([H])([H])C([H])(n4nc(-c5c([H])c([H])c(Oc6c([H])c([H])c(F)c([H])c6F)c([H])c5[H])c(C(=O)N([H])[H])c4N([H])[H])C3([H])[H])c([H])c([H])c2C1([H])[H]

>  <smiles>  (83) 
[H]c1c([H])c([H])c2c(c1[H])C([H])([H])C([H])([H])C([H])([H])C2([H])N([H])C(=O)C1([H])N(C(=O)C([H])(N([H])C(=O)C([H])(N([H])C([H])([H])[H])C([H])([H])[H])C(C([H])([H])[H])(C([H])([H])[H])C([H])([H])[H])C([H])([H])c2c([H])c(OC([H])([H])C([H])([H])C([H])([H])N([H])C([H])(C([H])([H])C([H])(C([H])([H])[H])C([H])([H])[H])C([H])([H])[N+]([H])([H])C([H])(C([H])([H])[H])C([H])([H])C([H])([H])C(=O)N3C([H])([H])C([H])([H])C([H])([H])C([H])(n4nc(-c5c([H])c([H])c(Oc6c([H])c([H])c(F)c([H])c6F)c([H])c5[H])c(C(=O)N([H])[H])c4N([H])[H])C3([H])[H])c([H])c([H])c2C1([H])[H]

$$$$
83:0:0
     RDKit          3D

 89 98  0  0  1  0  0  0  0  0999 V2000
  -29.4690  -23.3550   18.1560 C   0  0  0  0  0  2  0  0  0  0  0  0
  -28.6700  -24.6590   18.3890 C   0  0  0  0  0  2  0  0  0  0  0  0
  -30.4900  -21.4680   19.7200 C   0  0  0  0  0  2  0  0  0  0  0  0
  -28.3660  -21.8630   20.6410 C   0  0  0  0  0  2  0  0  0  0  0  0
  -30.1070  -22.9890   19.5050 C   0  0  0  0  0  3  0  0  0  0  0  0
  -28.9930  -23.3730   20.4830 C   0  0  0  0  0  3  0  0  0  0  0  0
  -28.1820  -24.7000   19.8570 C   0  0  0  0  0  3  0  0  0  0  0  0
  -29.2540  -20.7250   20.0680 N   0  0  2  0  0  4  0  0  0  0  0  0
  -28.8300  -20.5250   19.1750 H   0  0  0  0  0  0  0  0  0  0  0  0
  -28.2970  -26.2000   20.2640 O   0  0  0  0  0  0  0  0  0  0  0  0
  -24.6360  -31.8540   23.2120 C   0  0  0  0  0  0  0  0  0  0  0  0
  -27.2260  -27.1620   20.1640 C   0  0  0  0  0  0  0  0  0  0  0  0
  -23.4360  -30.4560   21.5740 C   0  0  0  0  0  3  0  0  0  0  0  0
  -24.8860  -28.8900   20.1410 C   0  0  0  0  0  0  0  0  0  0  0  0
  -25.9880  -30.7330   21.4030 C   0  0  0  0  0  2  0  0  0  0  0  0
  -26.0630  -29.3420   20.7500 C   0  0  0  0  0  0  0  0  0  0  0  0
  -27.2300  -28.4910   20.7500 C   0  0  0  0  0  3  0  0  0  0  0  0
  -26.0250  -26.8160   19.5030 C   0  0  0  0  0  3  0  0  0  0  0  0
  -24.8790  -27.6400   19.5040 C   0  0  0  0  0  3  0  0  0  0  0  0
  -23.6530  -29.7800   20.1930 C   0  0  0  0  0  2  0  0  0  0  0  0
  -24.7060  -31.0360   22.1180 N   0  0  0  0  0  0  0  0  0  0  0  0
  -23.5500  -32.1360   23.7400 O   0  0  0  0  0  0  0  0  0  0  0  0
  -22.7630  -29.4460   22.5370 C   0  0  0  0  0  0  0  0  0  0  0  0
  -21.4350  -29.2770   22.4150 N   0  0  0  0  0  0  0  0  0  0  0  0
  -23.4370  -28.8170   23.3570 O   0  0  0  0  0  0  0  0  0  0  0  0
  -20.9480  -29.8360   21.7280 H   0  0  0  0  0  0  0  0  0  0  0  0
  -18.0520  -28.0830   22.9310 C   0  0  0  0  0  0  0  0  0  0  0  0
  -20.6140  -28.3390   23.1870 C   0  0  0  0  0  3  0  0  0  0  0  0
  -20.7100  -26.9080   22.6070 C   0  0  0  0  0  2  0  0  0  0  0  0
  -19.6020  -26.5910   21.5980 C   0  0  0  0  0  2  0  0  0  0  0  0
  -18.2240  -26.7360   22.2500 C   0  0  0  0  0  2  0  0  0  0  0  0
  -19.1750  -28.8430   23.3560 C   0  0  0  0  0  0  0  0  0  0  0  0
  -18.9610  -30.1030   23.9550 C   0  0  0  0  0  3  0  0  0  0  0  0
  -17.6570  -30.6040   24.1340 C   0  0  0  0  0  3  0  0  0  0  0  0
  -16.5500  -29.8410   23.7230 C   0  0  0  0  0  3  0  0  0  0  0  0
  -16.7480  -28.5830   23.1280 C   0  0  0  0  0  3  0  0  0  0  0  0
  -25.9140  -32.4930   23.8360 C   0  0  0  0  0  3  0  0  0  0  0  0
  -26.4270  -31.7270   25.1160 C   0  0  1  0  0  0  0  0  0  0  0  0
  -25.3310  -31.4900   26.1830 C   0  0  0  0  0  1  0  0  0  0  0  0
  -27.0130  -30.3480   24.7320 C   0  0  0  0  0  1  0  0  0  0  0  0
  -27.5740  -32.5240   25.7790 C   0  0  0  0  0  1  0  0  0  0  0  0
  -25.5960  -33.8910   24.1700 N   0  0  0  0  0  0  0  0  0  0  0  0
  -25.9230  -34.9510   23.4170 C   0  0  0  0  0  0  0  0  0  0  0  0
  -26.5880  -34.8540   22.3820 O   0  0  0  0  0  0  0  0  0  0  0  0
  -25.0020  -34.0370   24.9710 H   0  0  0  0  0  0  0  0  0  0  0  0
  -24.1880  -36.7450   23.0870 C   0  0  0  0  0  1  0  0  0  0  0  0
  -25.4370  -36.3360   23.8860 C   0  0  0  0  0  3  0  0  0  0  0  0
  -27.5740  -37.2230   24.7120 C   0  0  0  0  0  1  0  0  0  0  0  0
  -26.4670  -37.3930   23.7740 N   0  0  0  0  0  0  0  0  0  0  0  0
  -26.0580  -38.3100   23.9290 H   0  0  0  0  0  0  0  0  0  0  0  0
  -29.3500  -19.3010   20.7700 C   0  0  0  0  0  3  0  0  0  0  0  0
  -30.0590  -17.9150   20.1220 C   0  0  0  0  0  3  0  0  0  0  0  0
  -29.8390  -16.3560   20.7360 C   0  0  0  0  0  2  0  0  0  0  0  0
  -30.6230  -14.9630   20.2930 C   0  0  0  0  0  0  0  0  0  0  0  0
  -30.4950  -12.6290   19.3010 C   0  0  0  0  0  2  0  0  0  0  0  0
  -29.5470  -12.6290   18.0780 C   0  0  0  0  0  2  0  0  0  0  0  0
  -28.0840  -12.4260   18.5160 C   0  0  0  0  0  2  0  0  0  0  0  0
  -27.6990  -13.3280   19.7150 C   0  0  0  0  0  3  0  0  0  0  0  0
  -28.7630  -13.2950   20.8330 C   0  0  0  0  0  2  0  0  0  0  0  0
  -30.0430  -13.6970   20.2380 N   0  0  0  0  0  0  0  0  0  0  0  0
  -31.7970  -15.0470   19.9150 O   0  0  0  0  0  0  0  0  0  0  0  0
  -25.3200  -13.9110   20.4640 C   0  0  0  0  0  0  0  0  0  0  0  0
  -24.2560  -13.1360   20.8340 C   0  0  0  0  0  0  0  0  0  0  0  0
  -24.7180  -11.7840   20.7990 C   0  0  0  0  0  0  0  0  0  0  0  0
  -26.3610  -13.0320   20.2180 N   0  0  0  0  0  0  0  0  0  0  0  0
  -26.0070  -11.7470   20.4850 N   0  0  0  0  0  0  0  0  0  0  0  0
  -23.9890  -10.5230   20.9890 C   0  0  0  0  0  0  0  0  0  0  0  0
  -24.4160   -9.5560   21.9270 C   0  0  0  0  0  3  0  0  0  0  0  0
  -23.6880   -8.3600   22.1050 C   0  0  0  0  0  3  0  0  0  0  0  0
  -22.5180   -8.1220   21.3450 C   0  0  0  0  0  0  0  0  0  0  0  0
  -22.1090   -9.0770   20.3960 C   0  0  0  0  0  3  0  0  0  0  0  0
  -22.8380  -10.2640   20.2160 C   0  0  0  0  0  3  0  0  0  0  0  0
  -21.7620   -6.9770   21.4310 O   0  0  0  0  0  0  0  0  0  0  0  0
  -21.6980   -6.2420   22.5860 C   0  0  0  0  0  0  0  0  0  0  0  0
  -21.2480   -6.8020   23.8010 C   0  0  0  0  0  3  0  0  0  0  0  0
  -21.1320   -5.9930   24.9500 C   0  0  0  0  0  3  0  0  0  0  0  0
  -21.4570   -4.6250   24.8830 C   0  0  0  0  0  0  0  0  0  0  0  0
  -21.9000   -4.0640   23.6720 C   0  0  0  0  0  3  0  0  0  0  0  0
  -22.0180   -4.8700   22.5270 C   0  0  0  0  0  0  0  0  0  0  0  0
  -22.4240   -4.3190   21.3580 F   0  0  0  0  0  0  0  0  0  0  0  0
  -21.3380   -3.8450   25.9840 F   0  0  0  0  0  0  0  0  0  0  0  0
  -22.8590  -13.6140   21.1110 C   0  0  0  0  0  0  0  0  0  0  0  0
  -22.1310  -12.9140   21.9740 N   0  0  0  0  0  0  0  0  0  0  0  0
  -22.4230  -14.6440   20.5980 O   0  0  0  0  0  0  0  0  0  0  0  0
  -22.4970  -12.0820   22.4110 H   0  0  0  0  0  0  0  0  0  0  0  0
  -21.1950  -13.2170   22.2030 H   0  0  0  0  0  0  0  0  0  0  0  0
  -25.4850  -15.2810   20.2900 N   0  0  0  0  0  0  0  0  0  0  0  0
  -24.7210  -15.9390   20.4050 H   0  0  0  0  0  0  0  0  0  0  0  0
  -26.3360  -15.7170   19.9570 H   0  0  0  0  0  0  0  0  0  0  0  0
  1  2  1  0
  2  7  1  0
  3  8  1  0
  5  1  1  0
  5  3  1  0
  5  6  1  0
  6  4  1  0
  7 10  1  0
  7  6  1  0
  8  4  1  0
  8 51  1  0
  8  9  1  6
 11 22  2  0
 12 10  1  0
 12 17  1  0
 13 21  1  0
 13 23  1  0
 14 20  1  0
 14 16  1  0
 15 21  1  0
 16 17  2  0
 16 15  1  0
 18 19  1  0
 18 12  2  0
 19 14  2  0
 20 13  1  0
 21 11  1  0
 23 25  2  0
 24 23  1  0
 26 24  1  0
 27 36  2  0
 27 32  1  0
 28 24  1  0
 28 32  1  0
 29 28  1  0
 30 31  1  0
 30 29  1  0
 31 27  1  0
 32 33  2  0
 33 34  1  0
 35 34  2  0
 36 35  1  0
 37 11  1  0
 37 42  1  0
 37 38  1  0
 38 41  1  1
 38 39  1  0
 40 38  1  0
 42 45  1  0
 43 47  1  0
 43 42  1  0
 44 43  2  0
 47 46  1  0
 49 47  1  0
 49 50  1  0
 49 48  1  0
 52 53  1  0
 52 51  2  0
 54 53  1  0
 55 60  1  0
 56 57  1  0
 56 55  1  0
 58 57  1  0
 58 65  1  0
 58 59  1  0
 60 54  1  0
 60 59  1  0
 61 54  2  0
 62 63  2  0
 63 82  1  0
 64 63  1  0
 64 67  1  0
 65 62  1  0
 65 66  1  0
 66 64  2  0
 67 68  1  0
 68 69  2  0
 70 73  1  0
 70 69  1  0
 71 70  2  0
 72 71  1  0
 72 67  2  0
 73 74  1  0
 74 75  1  0
 75 76  2  0
 77 76  1  0
 77 81  1  0
 78 77  2  0
 79 74  2  0
 79 78  1  0
 80 79  1  0
 82 83  1  0
 83 86  1  0
 83 85  1  0
 84 82  2  0
 87 88  1  0
 87 62  1  0
 89 87  1  0
M  ISO  4   7 101  10 101  53 100  54 100
M  END
>  <TORSDO>  (84) 
F 19

>  <SCORE>  (84) 
-14.046

>  <name>  (84) 
83

>  <ligand_id>  (84) 
83

>  <original_smiles>  (84) 
[H]c1c([H])c([H])c2c(c1[H])C([H])([H])C([H])([H])C([H])([H])C2([H])N([H])C(=O)C1([H])N(C(=O)C([H])(N([H])C(=O)C([H])(N([H])C([H])([H])[H])C([H])([H])[H])C(C([H])([H])[H])(C([H])([H])[H])C([H])([H])[H])C([H])([H])c2c([H])c(OC3([H])C([H])([H])C([H])([H])C4([H])C3([H])C([H])([H])[N+]([H])(C([H])([H])C([H])([H])C([H])([H])C(=O)N3C([H])([H])C([H])([H])C([H])([H])C([H])(n5nc(-c6c([H])c([H])c(Oc7c([H])c([H])c(F)c([H])c7F)c([H])c6[H])c(C(=O)N([H])[H])c5N([H])[H])C3([H])[H])C4([H])[H])c([H])c([H])c2C1([H])[H]

>  <smiles>  (84) 
[H]c1c([H])c([H])c2c(c1[H])C([H])([H])C([H])([H])C([H])([H])C2([H])N([H])C(=O)C1([H])N(C(=O)C([H])(N([H])C(=O)C([H])(N([H])C([H])([H])[H])C([H])([H])[H])C(C([H])([H])[H])(C([H])([H])[H])C([H])([H])[H])C([H])([H])c2c([H])c(OC3([H])C([H])([H])C([H])([H])C4([H])C3([H])C([H])([H])[N+]([H])(C([H])([H])C([H])([H])C([H])([H])C(=O)N3C([H])([H])C([H])([H])C([H])([H])C([H])(n5nc(-c6c([H])c([H])c(Oc7c([H])c([H])c(F)c([H])c7F)c([H])c6[H])c(C(=O)N([H])[H])c5N([H])[H])C3([H])[H])C4([H])[H])c([H])c([H])c2C1([H])[H]

$$$$
84:0:0
     RDKit          3D

 86 96  0  0  1  0  0  0  0  0999 V2000
  -29.0840  -23.2720   18.8270 C   0  0  0  0  0  2  0  0  0  0  0  0
  -30.0090  -21.6950   20.7520 C   0  0  0  0  0  2  0  0  0  0  0  0
  -27.8690  -21.2020   20.0190 C   0  0  0  0  0  2  0  0  0  0  0  0
  -29.6390  -23.2640   20.2520 C   0  0  1  0  0  0  0  0  0  0  0  0
  -27.8310  -22.8590   19.5990 C   0  0  2  0  0  0  0  0  0  0  0  0
  -29.3020  -20.3700   20.0670 C   0  0  0  0  0  3  0  0  0  0  0  0
  -28.2760  -24.1830   20.5210 C   0  0  0  0  0  3  0  0  0  0  0  0
  -28.2840  -25.8380   20.2360 O   0  0  0  0  0  0  0  0  0  0  0  0
  -24.6510  -31.8320   23.1970 C   0  0  0  0  0  0  0  0  0  0  0  0
  -27.2300  -26.9060   20.2460 C   0  0  0  0  0  0  0  0  0  0  0  0
  -23.4690  -30.4220   21.5620 C   0  0  0  0  0  3  0  0  0  0  0  0
  -24.9270  -28.7970   20.1680 C   0  0  0  0  0  0  0  0  0  0  0  0
  -26.0370  -30.6300   21.4280 C   0  0  0  0  0  2  0  0  0  0  0  0
  -26.1130  -29.2090   20.7880 C   0  0  0  0  0  0  0  0  0  0  0  0
  -27.2600  -28.2890   20.7910 C   0  0  0  0  0  3  0  0  0  0  0  0
  -26.0090  -26.6460   19.5870 C   0  0  0  0  0  3  0  0  0  0  0  0
  -24.9020  -27.5360   19.5470 C   0  0  0  0  0  3  0  0  0  0  0  0
  -23.7090  -29.7230   20.1950 C   0  0  0  0  0  2  0  0  0  0  0  0
  -24.7410  -30.9900   22.1160 N   0  0  0  0  0  0  0  0  0  0  0  0
  -23.5570  -32.1250   23.7090 O   0  0  0  0  0  0  0  0  0  0  0  0
  -22.7690  -29.4360   22.5330 C   0  0  0  0  0  0  0  0  0  0  0  0
  -21.4370  -29.2790   22.4110 N   0  0  0  0  0  0  0  0  0  0  0  0
  -23.4310  -28.8100   23.3650 O   0  0  0  0  0  0  0  0  0  0  0  0
  -20.9550  -29.8350   21.7170 H   0  0  0  0  0  0  0  0  0  0  0  0
  -18.0480  -28.0900   22.9310 C   0  0  0  0  0  0  0  0  0  0  0  0
  -20.6110  -28.3470   23.1860 C   0  0  0  0  0  3  0  0  0  0  0  0
  -20.7030  -26.9140   22.6110 C   0  0  0  0  0  2  0  0  0  0  0  0
  -19.5960  -26.5950   21.6020 C   0  0  0  0  0  2  0  0  0  0  0  0
  -18.2180  -26.7420   22.2510 C   0  0  0  0  0  2  0  0  0  0  0  0
  -19.1710  -28.8510   23.3560 C   0  0  0  0  0  0  0  0  0  0  0  0
  -18.9570  -30.1100   23.9570 C   0  0  0  0  0  3  0  0  0  0  0  0
  -17.6530  -30.6100   24.1350 C   0  0  0  0  0  3  0  0  0  0  0  0
  -16.5450  -29.8480   23.7240 C   0  0  0  0  0  3  0  0  0  0  0  0
  -16.7430  -28.5900   23.1290 C   0  0  0  0  0  3  0  0  0  0  0  0
  -25.9160  -32.4830   23.8340 C   0  0  0  0  0  3  0  0  0  0  0  0
  -25.5900  -33.8820   24.1660 N   0  0  0  0  0  0  0  0  0  0  0  0
  -25.9180  -34.9470   23.4210 C   0  0  0  0  0  0  0  0  0  0  0  0
  -26.5870  -34.8530   22.3890 O   0  0  0  0  0  0  0  0  0  0  0  0
  -24.9920  -34.0270   24.9670 H   0  0  0  0  0  0  0  0  0  0  0  0
  -24.1800  -36.7410   23.0910 C   0  0  0  0  0  1  0  0  0  0  0  0
  -25.4280  -36.3320   23.8900 C   0  0  0  0  0  3  0  0  0  0  0  0
  -27.5610  -37.2270   24.7190 C   0  0  0  0  0  1  0  0  0  0  0  0
  -26.4550  -37.3910   23.7790 N   0  0  0  0  0  0  0  0  0  0  0  0
  -26.0450  -38.3090   23.9280 H   0  0  0  0  0  0  0  0  0  0  0  0
  -26.4190  -31.7250   25.1250 C   0  0  1  0  0  0  0  0  0  0  0  0
  -25.3130  -31.4950   26.1840 C   0  0  0  0  0  1  0  0  0  0  0  0
  -27.0080  -30.3450   24.7610 C   0  0  0  0  0  1  0  0  0  0  0  0
  -27.5600  -32.5270   25.7930 C   0  0  0  0  0  1  0  0  0  0  0  0
  -29.7470  -18.6520   20.5810 C   0  0  0  0  0  2  0  0  0  0  0  0
  -29.4940  -16.9080   20.0880 C   0  0  0  0  0  2  0  0  0  0  0  0
  -30.3650  -15.3510   20.1860 C   0  0  0  0  0  0  0  0  0  0  0  0
  -30.3920  -12.8720   19.3640 C   0  0  0  0  0  2  0  0  0  0  0  0
  -29.4680  -12.6420   18.1380 C   0  0  0  0  0  2  0  0  0  0  0  0
  -28.0200  -12.3650   18.5800 C   0  0  0  0  0  2  0  0  0  0  0  0
  -27.5660  -13.3390   19.6940 C   0  0  0  0  0  3  0  0  0  0  0  0
  -28.6150  -13.5070   20.8120 C   0  0  0  0  0  2  0  0  0  0  0  0
  -29.8450  -14.0170   20.1850 N   0  0  0  0  0  0  0  0  0  0  0  0
  -31.5940  -15.3430   20.0070 O   0  0  0  0  0  0  0  0  0  0  0  0
  -25.2060  -13.9000   20.4730 C   0  0  0  0  0  0  0  0  0  0  0  0
  -24.1450  -13.1270   20.8490 C   0  0  0  0  0  0  0  0  0  0  0  0
  -24.6080  -11.7760   20.8160 C   0  0  0  0  0  0  0  0  0  0  0  0
  -26.2430  -13.0230   20.2180 N   0  0  0  0  0  0  0  0  0  0  0  0
  -25.8970  -11.7380   20.4940 N   0  0  0  0  0  0  0  0  0  0  0  0
  -23.8770  -10.5160   21.0110 C   0  0  0  0  0  0  0  0  0  0  0  0
  -24.3060   -9.5470   21.9460 C   0  0  0  0  0  3  0  0  0  0  0  0
  -23.5730   -8.3550   22.1300 C   0  0  0  0  0  3  0  0  0  0  0  0
  -22.3960   -8.1230   21.3810 C   0  0  0  0  0  0  0  0  0  0  0  0
  -21.9840   -9.0790   20.4360 C   0  0  0  0  0  3  0  0  0  0  0  0
  -22.7190  -10.2620   20.2500 C   0  0  0  0  0  3  0  0  0  0  0  0
  -21.6340   -6.9820   21.4740 O   0  0  0  0  0  0  0  0  0  0  0  0
  -21.5820   -6.2440   22.6290 C   0  0  0  0  0  0  0  0  0  0  0  0
  -21.1520   -6.8040   23.8520 C   0  0  0  0  0  3  0  0  0  0  0  0
  -21.0470   -5.9920   24.9990 C   0  0  0  0  0  3  0  0  0  0  0  0
  -21.3610   -4.6220   24.9240 C   0  0  0  0  0  0  0  0  0  0  0  0
  -21.7830   -4.0620   23.7060 C   0  0  0  0  0  3  0  0  0  0  0  0
  -21.8900   -4.8710   22.5610 C   0  0  0  0  0  0  0  0  0  0  0  0
  -22.2770   -4.3210   21.3850 F   0  0  0  0  0  0  0  0  0  0  0  0
  -21.2530   -3.8400   26.0250 F   0  0  0  0  0  0  0  0  0  0  0  0
  -22.7500  -13.6090   21.1240 C   0  0  0  0  0  0  0  0  0  0  0  0
  -22.0240  -12.9190   21.9950 N   0  0  0  0  0  0  0  0  0  0  0  0
  -22.3160  -14.6350   20.6020 O   0  0  0  0  0  0  0  0  0  0  0  0
  -22.3900  -12.0890   22.4400 H   0  0  0  0  0  0  0  0  0  0  0  0
  -21.0880  -13.2240   22.2230 H   0  0  0  0  0  0  0  0  0  0  0  0
  -25.3720  -15.2710   20.2970 N   0  0  0  0  0  0  0  0  0  0  0  0
  -24.6100  -15.9290   20.4210 H   0  0  0  0  0  0  0  0  0  0  0  0
  -26.2220  -15.7100   19.9660 H   0  0  0  0  0  0  0  0  0  0  0  0
  3  6  1  0
  4  1  1  1
  4  7  1  0
  4  2  1  0
  5  1  1  6
  5  3  1  0
  5  4  1  0
  5  7  1  0
  6 49  1  0
  6  2  1  0
  7  8  1  0
  8 10  1  0
  9 20  2  0
 10 15  1  0
 11 19  1  0
 11 21  1  0
 12 18  1  0
 12 14  1  0
 13 19  1  0
 14 15  2  0
 14 13  1  0
 16 10  2  0
 17 16  1  0
 17 12  2  0
 18 11  1  0
 19  9  1  0
 21 23  2  0
 22 21  1  0
 24 22  1  0
 25 34  2  0
 25 30  1  0
 26 22  1  0
 26 30  1  0
 27 26  1  0
 28 29  1  0
 28 27  1  0
 29 25  1  0
 30 31  2  0
 31 32  1  0
 33 32  2  0
 34 33  1  0
 35  9  1  0
 35 36  1  0
 35 45  1  0
 36 39  1  0
 37 41  1  0
 37 36  1  0
 38 37  2  0
 41 40  1  0
 43 41  1  0
 43 44  1  0
 43 42  1  0
 45 48  1  1
 45 46  1  0
 47 45  1  0
 50 51  1  0
 50 49  1  0
 52 57  1  0
 53 54  1  0
 53 52  1  0
 55 54  1  0
 55 62  1  0
 55 56  1  0
 57 51  1  0
 57 56  1  0
 58 51  2  0
 59 60  2  0
 60 79  1  0
 61 60  1  0
 61 64  1  0
 62 59  1  0
 62 63  1  0
 63 61  2  0
 64 65  1  0
 65 66  2  0
 67 70  1  0
 67 66  1  0
 68 67  2  0
 69 68  1  0
 69 64  2  0
 70 71  1  0
 71 72  1  0
 72 73  2  0
 74 73  1  0
 74 78  1  0
 75 74  2  0
 76 71  2  0
 76 75  1  0
 77 76  1  0
 79 80  1  0
 80 83  1  0
 80 82  1  0
 81 79  2  0
 84 85  1  0
 84 59  1  0
 86 84  1  0
M  ISO  4   7 101   8 101  50 100  51 100
M  END
>  <TORSDO>  (85) 
F 18

>  <SCORE>  (85) 
-16.444

>  <name>  (85) 
84

>  <ligand_id>  (85) 
84

>  <original_smiles>  (85) 
[H]c1c([H])c([H])c2c(c1[H])C([H])([H])C([H])([H])C([H])([H])C2([H])N([H])C(=O)C1([H])N(C(=O)C([H])(N([H])C(=O)C([H])(N([H])C([H])([H])[H])C([H])([H])[H])C(C([H])([H])[H])(C([H])([H])[H])C([H])([H])[H])C([H])([H])c2c([H])c(OC3([H])C4([H])C([H])([H])C([H])(C([H])([H])C([H])([H])C(=O)N5C([H])([H])C([H])([H])C([H])([H])C([H])(n6nc(-c7c([H])c([H])c(Oc8c([H])c([H])c(F)c([H])c8F)c([H])c7[H])c(C(=O)N([H])[H])c6N([H])[H])C5([H])[H])C([H])([H])C3([H])C4([H])[H])c([H])c([H])c2C1([H])[H]

>  <smiles>  (85) 
[H]c1c([H])c([H])c2c(c1[H])C([H])([H])C([H])([H])C([H])([H])C2([H])N([H])C(=O)C1([H])N(C(=O)C([H])(N([H])C(=O)C([H])(N([H])C([H])([H])[H])C([H])([H])[H])C(C([H])([H])[H])(C([H])([H])[H])C([H])([H])[H])C([H])([H])c2c([H])c(OC3([H])C4([H])C([H])([H])C([H])(C([H])([H])C([H])([H])C(=O)N5C([H])([H])C([H])([H])C([H])([H])C([H])(n6nc(-c7c([H])c([H])c(Oc8c([H])c([H])c(F)c([H])c8F)c([H])c7[H])c(C(=O)N([H])[H])c6N([H])[H])C5([H])[H])C([H])([H])C3([H])C4([H])[H])c([H])c([H])c2C1([H])[H]

$$$$
85:0:0
     RDKit          3D

 89 98  0  0  1  0  0  0  0  0999 V2000
  -30.4060  -18.3690   22.9910 C   0  0  0  0  0  2  0  0  0  0  0  0
  -30.0660  -20.6960   21.8560 C   0  0  0  0  0  2  0  0  0  0  0  0
  -29.1620  -19.1520   20.1420 C   0  0  0  0  0  2  0  0  0  0  0  0
  -31.0120  -19.5620   22.2680 C   0  0  0  0  0  3  0  0  0  0  0  0
  -31.0260  -18.1760   21.6360 C   0  0  0  0  0  3  0  0  0  0  0  0
  -30.1970  -17.8730   20.4000 C   0  0  0  0  0  3  0  0  0  0  0  0
  -29.6140  -20.6260   20.4450 N   0  0  1  0  0  4  0  0  0  0  0  0
  -30.4380  -20.7630   19.8800 H   0  0  0  0  0  0  0  0  0  0  0  0
  -29.6750  -16.2860   20.4460 C   0  0  0  0  0  2  0  0  0  0  0  0
  -30.5770  -14.9130   20.3060 C   0  0  0  0  0  0  0  0  0  0  0  0
  -30.4690  -12.5810   19.3470 C   0  0  0  0  0  2  0  0  0  0  0  0
  -29.5290  -12.6010   18.1180 C   0  0  0  0  0  2  0  0  0  0  0  0
  -28.0580  -12.4110   18.5400 C   0  0  0  0  0  2  0  0  0  0  0  0
  -27.6670  -13.3140   19.7380 C   0  0  0  0  0  3  0  0  0  0  0  0
  -28.7220  -13.2600   20.8610 C   0  0  0  0  0  2  0  0  0  0  0  0
  -30.0150  -13.6430   20.2820 N   0  0  0  0  0  0  0  0  0  0  0  0
  -31.7770  -15.0100   20.0210 O   0  0  0  0  0  0  0  0  0  0  0  0
  -25.2850  -13.9060   20.4800 C   0  0  0  0  0  0  0  0  0  0  0  0
  -24.2170  -13.1350   20.8470 C   0  0  0  0  0  0  0  0  0  0  0  0
  -24.6750  -11.7820   20.8100 C   0  0  0  0  0  0  0  0  0  0  0  0
  -26.3250  -13.0230   20.2340 N   0  0  0  0  0  0  0  0  0  0  0  0
  -25.9650  -11.7400   20.4970 N   0  0  0  0  0  0  0  0  0  0  0  0
  -23.9410  -10.5230   20.9930 C   0  0  0  0  0  0  0  0  0  0  0  0
  -24.3390   -9.5680   21.9550 C   0  0  0  0  0  3  0  0  0  0  0  0
  -23.6080   -8.3740   22.1250 C   0  0  0  0  0  3  0  0  0  0  0  0
  -22.4600   -8.1250   21.3350 C   0  0  0  0  0  0  0  0  0  0  0  0
  -22.0790   -9.0680   20.3650 C   0  0  0  0  0  3  0  0  0  0  0  0
  -22.8120  -10.2550   20.1920 C   0  0  0  0  0  3  0  0  0  0  0  0
  -21.7020   -6.9820   21.4140 O   0  0  0  0  0  0  0  0  0  0  0  0
  -21.5800   -6.2800   22.5870 C   0  0  0  0  0  0  0  0  0  0  0  0
  -21.0070   -6.8520   23.7450 C   0  0  0  0  0  3  0  0  0  0  0  0
  -20.8360   -6.0720   24.9060 C   0  0  0  0  0  3  0  0  0  0  0  0
  -21.2280   -4.7200   24.9110 C   0  0  0  0  0  0  0  0  0  0  0  0
  -21.7940   -4.1470   23.7580 C   0  0  0  0  0  3  0  0  0  0  0  0
  -21.9650   -4.9240   22.6000 C   0  0  0  0  0  0  0  0  0  0  0  0
  -22.4900   -4.3600   21.4850 F   0  0  0  0  0  0  0  0  0  0  0  0
  -21.0590   -3.9680   26.0230 F   0  0  0  0  0  0  0  0  0  0  0  0
  -22.8210  -13.6170   21.1170 C   0  0  0  0  0  0  0  0  0  0  0  0
  -22.0840  -12.9210   21.9760 N   0  0  0  0  0  0  0  0  0  0  0  0
  -22.3930  -14.6480   20.6020 O   0  0  0  0  0  0  0  0  0  0  0  0
  -22.4420  -12.0850   22.4160 H   0  0  0  0  0  0  0  0  0  0  0  0
  -21.1480  -13.2270   22.1990 H   0  0  0  0  0  0  0  0  0  0  0  0
  -25.4580  -15.2770   20.3100 N   0  0  0  0  0  0  0  0  0  0  0  0
  -24.6980  -15.9370   20.4260 H   0  0  0  0  0  0  0  0  0  0  0  0
  -26.3140  -15.7110   19.9900 H   0  0  0  0  0  0  0  0  0  0  0  0
  -28.6700  -21.8430   20.0900 C   0  0  0  0  0  2  0  0  0  0  0  0
  -29.0750  -23.4500   20.3530 C   0  0  0  0  0  3  0  0  0  0  0  0
  -28.0630  -24.7330   20.0090 C   0  0  0  0  0  3  0  0  0  0  0  0
  -28.3330  -26.2370   20.2330 O   0  0  0  0  0  0  0  0  0  0  0  0
  -24.7080  -31.8750   23.2130 C   0  0  0  0  0  0  0  0  0  0  0  0
  -27.2650  -27.1940   20.1640 C   0  0  0  0  0  0  0  0  0  0  0  0
  -23.4880  -30.4700   21.5950 C   0  0  0  0  0  3  0  0  0  0  0  0
  -24.9240  -28.9020   20.1550 C   0  0  0  0  0  0  0  0  0  0  0  0
  -26.0360  -30.7560   21.3890 C   0  0  0  0  0  2  0  0  0  0  0  0
  -26.1080  -29.3650   20.7450 C   0  0  0  0  0  0  0  0  0  0  0  0
  -27.2800  -28.5260   20.7340 C   0  0  0  0  0  3  0  0  0  0  0  0
  -26.0570  -26.8270   19.5310 C   0  0  0  0  0  3  0  0  0  0  0  0
  -24.9100  -27.6470   19.5320 C   0  0  0  0  0  3  0  0  0  0  0  0
  -23.6900  -29.7880   20.2150 C   0  0  0  0  0  2  0  0  0  0  0  0
  -24.7640  -31.0550   22.1200 N   0  0  0  0  0  0  0  0  0  0  0  0
  -23.6290  -32.1570   23.7560 O   0  0  0  0  0  0  0  0  0  0  0  0
  -22.8320  -29.4600   22.5690 C   0  0  0  0  0  0  0  0  0  0  0  0
  -21.5080  -29.2630   22.4450 N   0  0  0  0  0  0  0  0  0  0  0  0
  -23.5160  -28.8560   23.3990 O   0  0  0  0  0  0  0  0  0  0  0  0
  -21.0110  -29.8070   21.7530 H   0  0  0  0  0  0  0  0  0  0  0  0
  -18.1470  -28.0230   22.9740 C   0  0  0  0  0  0  0  0  0  0  0  0
  -20.7040  -28.3210   23.2260 C   0  0  0  0  0  3  0  0  0  0  0  0
  -20.8200  -26.8850   22.6640 C   0  0  0  0  0  2  0  0  0  0  0  0
  -19.7170  -26.5390   21.6580 C   0  0  0  0  0  2  0  0  0  0  0  0
  -18.3370  -26.6710   22.3080 C   0  0  0  0  0  2  0  0  0  0  0  0
  -19.2570  -28.8040   23.3920 C   0  0  0  0  0  0  0  0  0  0  0  0
  -19.0240  -30.0680   23.9780 C   0  0  0  0  0  3  0  0  0  0  0  0
  -17.7130  -30.5530   24.1460 C   0  0  0  0  0  3  0  0  0  0  0  0
  -16.6180  -29.7710   23.7410 C   0  0  0  0  0  3  0  0  0  0  0  0
  -16.8350  -28.5070   23.1620 C   0  0  0  0  0  3  0  0  0  0  0  0
  -25.9920  -32.5170   23.8200 C   0  0  0  0  0  3  0  0  0  0  0  0
  -26.5230  -31.7550   25.0960 C   0  0  1  0  0  0  0  0  0  0  0  0
  -25.4360  -31.5020   26.1670 C   0  0  0  0  0  1  0  0  0  0  0  0
  -27.1250  -30.3850   24.7080 C   0  0  0  0  0  1  0  0  0  0  0  0
  -27.6640  -32.5660   25.7540 C   0  0  0  0  0  1  0  0  0  0  0  0
  -25.6800  -33.9170   24.1500 N   0  0  0  0  0  0  0  0  0  0  0  0
  -25.9550  -34.9670   23.3640 C   0  0  0  0  0  0  0  0  0  0  0  0
  -26.5660  -34.8600   22.2970 O   0  0  0  0  0  0  0  0  0  0  0  0
  -25.1290  -34.0720   24.9810 H   0  0  0  0  0  0  0  0  0  0  0  0
  -24.1740  -36.7260   23.1090 C   0  0  0  0  0  1  0  0  0  0  0  0
  -25.4770  -36.3550   23.8340 C   0  0  0  0  0  3  0  0  0  0  0  0
  -27.6410  -37.3020   24.5090 C   0  0  0  0  0  1  0  0  0  0  0  0
  -26.4800  -37.4230   23.6300 N   0  0  0  0  0  0  0  0  0  0  0  0
  -26.0650  -38.3390   23.7770 H   0  0  0  0  0  0  0  0  0  0  0  0
  3  6  1  0
  3  7  1  0
  4  2  1  0
  4  1  1  0
  5  4  1  0
  5  1  1  0
  6  9  1  0
  6  5  1  0
  7  2  1  0
  7  8  1  6
 10  9  1  0
 11 16  1  0
 12 13  1  0
 12 11  1  0
 14 13  1  0
 14 21  1  0
 14 15  1  0
 16 10  1  0
 16 15  1  0
 17 10  2  0
 18 19  2  0
 19 38  1  0
 20 19  1  0
 20 23  1  0
 21 18  1  0
 21 22  1  0
 22 20  2  0
 23 24  1  0
 24 25  2  0
 26 29  1  0
 26 25  1  0
 27 26  2  0
 28 27  1  0
 28 23  2  0
 29 30  1  0
 30 35  2  0
 30 31  1  0
 31 32  2  0
 32 33  1  0
 33 37  1  0
 34 33  2  0
 35 34  1  0
 36 35  1  0
 38 39  1  0
 39 42  1  0
 39 41  1  0
 40 38  2  0
 43 44  1  0
 43 18  1  0
 45 43  1  0
 46 47  1  0
 46  7  1  0
 48 49  1  0
 48 47  2  0
 50 61  2  0
 51 49  1  0
 51 56  1  0
 52 60  1  0
 52 62  1  0
 53 59  1  0
 53 55  1  0
 54 60  1  0
 55 54  1  0
 56 55  2  0
 57 58  1  0
 57 51  2  0
 58 53  2  0
 59 52  1  0
 60 50  1  0
 62 64  2  0
 63 62  1  0
 65 63  1  0
 66 75  2  0
 66 71  1  0
 67 63  1  0
 67 71  1  0
 68 67  1  0
 69 70  1  0
 69 68  1  0
 70 66  1  0
 71 72  2  0
 72 73  1  0
 74 73  2  0
 75 74  1  0
 76 50  1  0
 76 81  1  0
 76 77  1  0
 77 80  1  1
 77 78  1  0
 79 77  1  0
 81 84  1  0
 82 86  1  0
 82 81  1  0
 83 82  2  0
 86 85  1  0
 88 89  1  0
 88 86  1  0
 88 87  1  0
M  ISO  4   9 100  10 100  48 101  49 101
M  END
>  <TORSDO>  (86) 
F 20

>  <SCORE>  (86) 
-13.160

>  <name>  (86) 
85

>  <ligand_id>  (86) 
85

>  <original_smiles>  (86) 
[H]c1c([H])c([H])c2c(c1[H])C([H])([H])C([H])([H])C([H])([H])C2([H])N([H])C(=O)C1([H])N(C(=O)C([H])(N([H])C(=O)C([H])(N([H])C([H])([H])[H])C([H])([H])[H])C(C([H])([H])[H])(C([H])([H])[H])C([H])([H])[H])C([H])([H])c2c([H])c(OC([H])([H])C([H])([H])C([H])([H])[N+]3([H])C([H])([H])C([H])(C([H])([H])C(=O)N4C([H])([H])C([H])([H])C([H])([H])C([H])(n5nc(-c6c([H])c([H])c(Oc7c([H])c([H])c(F)c([H])c7F)c([H])c6[H])c(C(=O)N([H])[H])c5N([H])[H])C4([H])[H])C4([H])C([H])([H])C4([H])C3([H])[H])c([H])c([H])c2C1([H])[H]

>  <smiles>  (86) 
[H]c1c([H])c([H])c2c(c1[H])C([H])([H])C([H])([H])C([H])([H])C2([H])N([H])C(=O)C1([H])N(C(=O)C([H])(N([H])C(=O)C([H])(N([H])C([H])([H])[H])C([H])([H])[H])C(C([H])([H])[H])(C([H])([H])[H])C([H])([H])[H])C([H])([H])c2c([H])c(OC([H])([H])C([H])([H])C([H])([H])[N+]3([H])C([H])([H])C([H])(C([H])([H])C(=O)N4C([H])([H])C([H])([H])C([H])([H])C([H])(n5nc(-c6c([H])c([H])c(Oc7c([H])c([H])c(F)c([H])c7F)c([H])c6[H])c(C(=O)N([H])[H])c5N([H])[H])C4([H])[H])C4([H])C([H])([H])C4([H])C3([H])[H])c([H])c([H])c2C1([H])[H]

$$$$
86:0:0
     RDKit          3D

 90 99  0  0  1  0  0  0  0  0999 V2000
  -28.7900  -16.9400   19.7840 C   0  0  0  0  0  2  0  0  0  0  0  0
  -28.6410  -18.1920   20.6810 C   0  0  0  0  0  2  0  0  0  0  0  0
  -29.5550  -19.9190   18.3140 C   0  0  0  0  0  2  0  0  0  0  0  0
  -29.0440  -21.4460   20.3010 C   0  0  0  0  0  2  0  0  0  0  0  0
  -30.2470  -16.9170   19.3550 C   0  0  0  0  0  3  0  0  0  0  0  0
  -29.9650  -18.9900   20.5880 C   0  0  0  0  0  3  0  0  0  0  0  0
  -30.4410  -18.6660   19.1520 C   0  0  0  0  0  3  0  0  0  0  0  0
  -29.4100  -21.5800   18.8170 C   0  0  0  0  0  3  0  0  0  0  0  0
  -29.9530  -20.4650   21.1080 C   0  0  1  0  0  0  0  0  0  0  0  0
  -31.4150  -20.9760   21.1570 C   0  0  0  0  0  1  0  0  0  0  0  0
  -29.4180  -20.4240   22.5560 C   0  0  0  0  0  1  0  0  0  0  0  0
  -30.9760  -15.3800   19.0170 C   0  0  0  0  0  0  0  0  0  0  0  0
  -30.7250  -12.9230   18.2260 C   0  0  0  0  0  2  0  0  0  0  0  0
  -29.6170  -12.7580   17.1540 C   0  0  0  0  0  2  0  0  0  0  0  0
  -28.2490  -12.5060   17.8170 C   0  0  0  0  0  2  0  0  0  0  0  0
  -27.9960  -13.4950   18.9800 C   0  0  0  0  0  3  0  0  0  0  0  0
  -29.2180  -13.6680   19.9200 C   0  0  0  0  0  2  0  0  0  0  0  0
  -30.3800  -14.0910   19.1120 N   0  0  0  0  0  0  0  0  0  0  0  0
  -32.1220  -15.3570   18.5570 O   0  0  0  0  0  0  0  0  0  0  0  0
  -25.8590  -14.1300   20.2540 C   0  0  0  0  0  0  0  0  0  0  0  0
  -24.8210  -13.3910   20.7330 C   0  0  0  0  0  0  0  0  0  0  0  0
  -25.1460  -12.0280   20.4520 C   0  0  0  0  0  0  0  0  0  0  0  0
  -26.7600  -13.2270   19.7080 N   0  0  0  0  0  0  0  0  0  0  0  0
  -26.3470  -11.9460   19.8900 N   0  0  0  0  0  0  0  0  0  0  0  0
  -24.3490  -10.8100   20.6250 C   0  0  0  0  0  0  0  0  0  0  0  0
  -24.8040   -9.7390   21.4240 C   0  0  0  0  0  3  0  0  0  0  0  0
  -24.0100   -8.5840   21.5880 C   0  0  0  0  0  3  0  0  0  0  0  0
  -22.7480   -8.4930   20.9570 C   0  0  0  0  0  0  0  0  0  0  0  0
  -22.3080   -9.5530   20.1470 C   0  0  0  0  0  3  0  0  0  0  0  0
  -23.1010  -10.7000   19.9780 C   0  0  0  0  0  3  0  0  0  0  0  0
  -21.9220   -7.3990   21.0400 O   0  0  0  0  0  0  0  0  0  0  0  0
  -21.8900   -6.6060   22.1570 C   0  0  0  0  0  0  0  0  0  0  0  0
  -21.5630   -7.1200   23.4300 C   0  0  0  0  0  3  0  0  0  0  0  0
  -21.4750   -6.2550   24.5390 C   0  0  0  0  0  3  0  0  0  0  0  0
  -21.7060   -4.8760   24.3750 C   0  0  0  0  0  0  0  0  0  0  0  0
  -22.0290   -4.3610   23.1080 C   0  0  0  0  0  3  0  0  0  0  0  0
  -22.1180   -5.2240   22.0020 C   0  0  0  0  0  0  0  0  0  0  0  0
  -22.4100   -4.7190   20.7790 F   0  0  0  0  0  0  0  0  0  0  0  0
  -21.6140   -4.0430   25.4380 F   0  0  0  0  0  0  0  0  0  0  0  0
  -23.5450  -13.9250   21.3180 C   0  0  0  0  0  0  0  0  0  0  0  0
  -22.9420  -13.1950   22.2480 N   0  0  0  0  0  0  0  0  0  0  0  0
  -23.1040  -15.0270   20.9830 O   0  0  0  0  0  0  0  0  0  0  0  0
  -23.3130  -12.2990   22.5280 H   0  0  0  0  0  0  0  0  0  0  0  0
  -22.0930  -13.5220   22.6860 H   0  0  0  0  0  0  0  0  0  0  0  0
  -26.0760  -15.5030   20.2100 N   0  0  0  0  0  0  0  0  0  0  0  0
  -25.3910  -16.1570   20.5710 H   0  0  0  0  0  0  0  0  0  0  0  0
  -26.8500  -15.9650   19.7530 H   0  0  0  0  0  0  0  0  0  0  0  0
  -28.5540  -22.9390   18.0940 C   0  0  0  0  0  2  0  0  0  0  0  0
  -27.9970  -24.4630   18.7690 C   0  0  0  0  0  2  0  0  0  0  0  0
  -27.8600  -25.9620   18.2050 O   0  0  0  0  0  0  0  0  0  0  0  0
  -25.0140  -31.2740   22.6660 C   0  0  0  0  0  0  0  0  0  0  0  0
  -26.8510  -26.9710   18.5600 C   0  0  0  0  0  0  0  0  0  0  0  0
  -23.5100  -30.2180   21.0220 C   0  0  0  0  0  3  0  0  0  0  0  0
  -24.6430  -28.8320   19.1620 C   0  0  0  0  0  0  0  0  0  0  0  0
  -26.0270  -30.3940   20.5160 C   0  0  0  0  0  2  0  0  0  0  0  0
  -25.9260  -29.1160   19.6480 C   0  0  0  0  0  0  0  0  0  0  0  0
  -27.0240  -28.2120   19.3250 C   0  0  0  0  0  3  0  0  0  0  0  0
  -25.5360  -26.8080   18.0700 C   0  0  0  0  0  3  0  0  0  0  0  0
  -24.4650  -27.6950   18.3570 C   0  0  0  0  0  3  0  0  0  0  0  0
  -23.4930  -29.7650   19.5360 C   0  0  0  0  0  2  0  0  0  0  0  0
  -24.8810  -30.6430   21.4560 N   0  0  0  0  0  0  0  0  0  0  0  0
  -24.0340  -31.5070   23.3900 O   0  0  0  0  0  0  0  0  0  0  0  0
  -22.9110  -29.0960   21.9060 C   0  0  0  0  0  0  0  0  0  0  0  0
  -21.5720  -28.9600   21.9090 N   0  0  0  0  0  0  0  0  0  0  0  0
  -23.6520  -28.3520   22.5540 O   0  0  0  0  0  0  0  0  0  0  0  0
  -21.0260  -29.6200   21.3730 H   0  0  0  0  0  0  0  0  0  0  0  0
  -18.2490  -27.6420   22.4990 C   0  0  0  0  0  0  0  0  0  0  0  0
  -20.8160  -27.9280   22.6260 C   0  0  0  0  0  3  0  0  0  0  0  0
  -20.8980  -26.5690   21.8880 C   0  0  0  0  0  2  0  0  0  0  0  0
  -19.7330  -26.3370   20.9210 C   0  0  0  0  0  2  0  0  0  0  0  0
  -18.3980  -26.3800   21.6680 C   0  0  0  0  0  2  0  0  0  0  0  0
  -19.3840  -28.3770   22.9370 C   0  0  0  0  0  0  0  0  0  0  0  0
  -19.1850  -29.5610   23.6800 C   0  0  0  0  0  3  0  0  0  0  0  0
  -17.8860  -30.0050   23.9940 C   0  0  0  0  0  3  0  0  0  0  0  0
  -16.7680  -29.2670   23.5680 C   0  0  0  0  0  3  0  0  0  0  0  0
  -16.9510  -28.0870   22.8240 C   0  0  0  0  0  3  0  0  0  0  0  0
  -26.4050  -31.7490   23.1890 C   0  0  0  0  0  3  0  0  0  0  0  0
  -26.2120  -33.0360   23.8790 N   0  0  0  0  0  0  0  0  0  0  0  0
  -26.5660  -34.2320   23.3850 C   0  0  0  0  0  0  0  0  0  0  0  0
  -27.1540  -34.3590   22.3080 O   0  0  0  0  0  0  0  0  0  0  0  0
  -25.6880  -33.0110   24.7410 H   0  0  0  0  0  0  0  0  0  0  0  0
  -24.9670  -36.1610   23.6280 C   0  0  0  0  0  1  0  0  0  0  0  0
  -26.2130  -35.4810   24.2170 C   0  0  0  0  0  3  0  0  0  0  0  0
  -28.4500  -35.9930   25.0980 C   0  0  0  0  0  1  0  0  0  0  0  0
  -27.3180  -36.4620   24.3010 N   0  0  0  0  0  0  0  0  0  0  0  0
  -26.9920  -37.3380   24.7010 H   0  0  0  0  0  0  0  0  0  0  0  0
  -27.0890  -30.7070   24.1570 C   0  0  1  0  0  0  0  0  0  0  0  0
  -26.1810  -30.2500   25.3220 C   0  0  0  0  0  1  0  0  0  0  0  0
  -27.5260  -29.4410   23.3830 C   0  0  0  0  0  1  0  0  0  0  0  0
  -28.3700  -31.3200   24.7660 C   0  0  0  0  0  1  0  0  0  0  0  0
  1  2  1  0
  3  8  1  0
  4  9  1  0
  5 12  1  0
  5  1  1  0
  6  2  1  0
  6  9  1  0
  7  3  1  0
  7  5  1  0
  7  6  1  0
  8 48  1  0
  8  4  1  0
  9 10  1  1
  9 11  1  0
 12 18  1  0
 13 18  1  0
 14 15  1  0
 14 13  1  0
 16 15  1  0
 16 23  1  0
 16 17  1  0
 18 17  1  0
 19 12  2  0
 20 21  2  0
 21 40  1  0
 22 25  1  0
 22 21  1  0
 23 24  1  0
 23 20  1  0
 24 22  2  0
 25 26  1  0
 26 27  2  0
 28 31  1  0
 28 27  1  0
 29 28  2  0
 30 29  1  0
 30 25  2  0
 31 32  1  0
 32 33  1  0
 33 34  2  0
 35 34  1  0
 35 39  1  0
 36 35  2  0
 37 32  2  0
 37 36  1  0
 38 37  1  0
 40 41  1  0
 41 43  1  0
 41 44  1  0
 42 40  2  0
 45 20  1  0
 45 46  1  0
 47 45  1  0
 48 49  1  0
 50 52  1  0
 50 49  1  0
 51 62  2  0
 52 57  1  0
 53 61  1  0
 53 63  1  0
 54 60  1  0
 54 56  1  0
 55 61  1  0
 56 55  1  0
 57 56  2  0
 58 59  1  0
 58 52  2  0
 59 54  2  0
 60 53  1  0
 61 51  1  0
 63 64  1  0
 63 65  2  0
 66 64  1  0
 67 76  2  0
 67 72  1  0
 68 64  1  0
 68 72  1  0
 69 68  1  0
 70 71  1  0
 70 69  1  0
 71 67  1  0
 72 73  2  0
 73 74  1  0
 75 74  2  0
 76 75  1  0
 77 51  1  0
 77 78  1  0
 77 87  1  0
 78 81  1  0
 79 78  1  0
 79 83  1  0
 80 79  2  0
 83 82  1  0
 83 85  1  0
 85 86  1  0
 85 84  1  0
 87 90  1  1
 87 88  1  0
 89 87  1  0
M  ISO  4   5 100  12 100  49 101  50 101
M  END
>  <TORSDO>  (87) 
F 18

>  <SCORE>  (87) 
-10.771

>  <name>  (87) 
86

>  <ligand_id>  (87) 
86

>  <original_smiles>  (87) 
[H]c1c([H])c([H])c2c(c1[H])C([H])([H])C([H])([H])C([H])([H])C2([H])N([H])C(=O)C1([H])N(C(=O)C([H])(N([H])C(=O)C([H])(N([H])C([H])([H])[H])C([H])([H])[H])C(C([H])([H])[H])(C([H])([H])[H])C([H])([H])[H])C([H])([H])c2c([H])c(OC([H])([H])C([H])([H])C3([H])C([H])([H])C4([H])C([H])(C(=O)N5C([H])([H])C([H])([H])C([H])([H])C([H])(n6nc(-c7c([H])c([H])c(Oc8c([H])c([H])c(F)c([H])c8F)c([H])c7[H])c(C(=O)N([H])[H])c6N([H])[H])C5([H])[H])C([H])([H])C([H])([H])C4([H])C(C([H])([H])[H])(C([H])([H])[H])C3([H])[H])c([H])c([H])c2C1([H])[H]

>  <smiles>  (87) 
[H]c1c([H])c([H])c2c(c1[H])C([H])([H])C([H])([H])C([H])([H])C2([H])N([H])C(=O)C1([H])N(C(=O)C([H])(N([H])C(=O)C([H])(N([H])C([H])([H])[H])C([H])([H])[H])C(C([H])([H])[H])(C([H])([H])[H])C([H])([H])[H])C([H])([H])c2c([H])c(OC([H])([H])C([H])([H])C3([H])C([H])([H])C4([H])C([H])(C(=O)N5C([H])([H])C([H])([H])C([H])([H])C([H])(n6nc(-c7c([H])c([H])c(Oc8c([H])c([H])c(F)c([H])c8F)c([H])c7[H])c(C(=O)N([H])[H])c6N([H])[H])C5([H])[H])C([H])([H])C([H])([H])C4([H])C(C([H])([H])[H])(C([H])([H])[H])C3([H])[H])c([H])c([H])c2C1([H])[H]

$$$$
87:0:0
     RDKit          3D

 91 97  0  0  1  0  0  0  0  0999 V2000
  -29.1810  -20.9360   22.0120 C   0  0  0  0  0  2  0  0  0  0  0  0
  -28.4790  -19.9660   21.0130 C   0  0  0  0  0  2  0  0  0  0  0  0
  -30.6790  -20.9750   21.6060 C   0  0  0  0  0  3  0  0  0  0  0  0
  -31.1240  -22.2070   20.8170 C   0  0  0  0  0  3  0  0  0  0  0  0
  -30.4640  -22.5870   19.5380 C   0  0  0  0  0  3  0  0  0  0  0  0
  -30.7750  -19.7310   20.7710 C   0  0  0  0  0  3  0  0  0  0  0  0
  -29.1830  -21.7950   19.2440 C   0  0  0  0  0  1  0  0  0  0  0  0
  -29.4870  -19.8060   19.8620 C   0  0  0  0  0  2  0  0  0  0  0  0
  -31.9340  -22.2310   19.4890 C   0  0  2  0  0  0  0  0  0  0  0  0
  -30.9650  -18.5090   21.7180 C   0  0  0  0  0  1  0  0  0  0  0  0
  -32.2960  -21.1700   18.4470 C   0  0  0  0  0  1  0  0  0  0  0  0
  -32.9960  -23.3170   19.4190 C   0  0  0  0  0  1  0  0  0  0  0  0
  -29.6040  -17.8420   19.2730 C   0  0  0  0  0 15  0  0  0  0  0  0
  -30.4170  -16.0530   19.4840 C   0  0  0  0  0  2  0  0  0  0  0  0
  -30.5990  -13.4030   18.8410 C   0  0  0  0  0  2  0  0  0  0  0  0
  -29.6540  -12.8130   17.7460 C   0  0  0  0  0  2  0  0  0  0  0  0
  -28.2930  -12.4150   18.3330 C   0  0  0  0  0  2  0  0  0  0  0  0
  -27.8050  -13.4760   19.3400 C   0  0  0  0  0  3  0  0  0  0  0  0
  -28.8880  -13.9630   20.3320 C   0  0  0  0  0  2  0  0  0  0  0  0
  -29.9670  -14.6300   19.5490 N   0  0  0  0  0  0  0  0  0  0  0  0
  -31.6510  -15.9370   19.3010 O   0  0  0  0  0  1  0  0  0  0  0  0
  -25.5690  -13.9970   20.4090 C   0  0  0  0  0  0  0  0  0  0  0  0
  -24.5340  -13.2190   20.8440 C   0  0  0  0  0  0  0  0  0  0  0  0
  -24.9570  -11.8650   20.6780 C   0  0  0  0  0  0  0  0  0  0  0  0
  -26.5520  -13.1220   19.9920 N   0  0  0  0  0  0  0  0  0  0  0  0
  -26.2060  -11.8250   20.2180 N   0  0  0  0  0  0  0  0  0  0  0  0
  -24.2130  -10.6100   20.8700 C   0  0  0  0  0  0  0  0  0  0  0  0
  -24.6250   -9.6400   21.8090 C   0  0  0  0  0  3  0  0  0  0  0  0
  -23.8770   -8.4570   21.9930 C   0  0  0  0  0  3  0  0  0  0  0  0
  -22.7000   -8.2360   21.2370 C   0  0  0  0  0  0  0  0  0  0  0  0
  -22.3060   -9.1950   20.2880 C   0  0  0  0  0  3  0  0  0  0  0  0
  -23.0550  -10.3690   20.1030 C   0  0  0  0  0  3  0  0  0  0  0  0
  -21.9250   -7.1040   21.3290 O   0  0  0  0  0  0  0  0  0  0  0  0
  -21.7630   -6.4360   22.5170 C   0  0  0  0  0  0  0  0  0  0  0  0
  -21.1790   -7.0520   23.6450 C   0  0  0  0  0  3  0  0  0  0  0  0
  -20.9690   -6.3090   24.8230 C   0  0  0  0  0  3  0  0  0  0  0  0
  -21.3320   -4.9490   24.8740 C   0  0  0  0  0  0  0  0  0  0  0  0
  -21.9100   -4.3320   23.7500 C   0  0  0  0  0  3  0  0  0  0  0  0
  -22.1210   -5.0730   22.5740 C   0  0  0  0  0  0  0  0  0  0  0  0
  -22.6580   -4.4690   21.4860 F   0  0  0  0  0  0  0  0  0  0  0  0
  -21.1250   -4.2320   26.0030 F   0  0  0  0  0  0  0  0  0  0  0  0
  -23.1890  -13.7130   21.2890 C   0  0  0  0  0  0  0  0  0  0  0  0
  -22.5410  -12.9930   22.1970 N   0  0  0  0  0  0  0  0  0  0  0  0
  -22.7280  -14.7720   20.8660 O   0  0  0  0  0  0  0  0  0  0  0  0
  -22.9300  -12.1350   22.5590 H   0  0  0  0  0  0  0  0  0  0  0  0
  -21.6430  -13.3060   22.5370 H   0  0  0  0  0  0  0  0  0  0  0  0
  -25.7510  -15.3730   20.3000 N   0  0  0  0  0  0  0  0  0  0  0  0
  -25.0240  -16.0360   20.5460 H   0  0  0  0  0  0  0  0  0  0  0  0
  -26.5760  -15.8140   19.9150 H   0  0  0  0  0  0  0  0  0  0  0  0
  -28.0560  -23.5030   19.4400 C   0  0  0  0  0  1  0  0  0  0  0  0
  -28.1090  -25.3570   19.4540 O   0  0  0  0  0  0  0  0  0  0  0  0
  -24.5960  -31.5850   22.9000 C   0  0  0  0  0  0  0  0  0  0  0  0
  -27.1090  -26.6090   19.5370 C   0  0  0  0  0  0  0  0  0  0  0  0
  -23.3750  -30.2390   21.2470 C   0  0  0  0  0  3  0  0  0  0  0  0
  -24.7990  -28.6800   19.6910 C   0  0  0  0  0  0  0  0  0  0  0  0
  -25.9490  -30.4160   21.0290 C   0  0  0  0  0  2  0  0  0  0  0  0
  -26.0200  -29.0060   20.2940 C   0  0  0  0  0  0  0  0  0  0  0  0
  -27.1480  -28.0070   20.1800 C   0  0  0  0  0  3  0  0  0  0  0  0
  -25.8410  -26.5350   18.8940 C   0  0  0  0  0  3  0  0  0  0  0  0
  -24.7570  -27.4750   18.9630 C   0  0  0  0  0  3  0  0  0  0  0  0
  -23.5770  -29.6110   19.8350 C   0  0  0  0  0  2  0  0  0  0  0  0
  -24.6680  -30.7820   21.7780 N   0  0  0  0  0  0  0  0  0  0  0  0
  -23.5160  -31.8320   23.4680 O   0  0  0  0  0  0  0  0  0  0  0  0
  -22.7180  -29.2030   22.2020 C   0  0  0  0  0  0  0  0  0  0  0  0
  -21.3900  -28.9900   22.1000 N   0  0  0  0  0  0  0  0  0  0  0  0
  -23.4170  -28.5870   23.0100 O   0  0  0  0  0  0  0  0  0  0  0  0
  -20.8680  -29.5420   21.4330 H   0  0  0  0  0  0  0  0  0  0  0  0
  -18.0920  -27.5380   22.6010 C   0  0  0  0  0  0  0  0  0  0  0  0
  -20.6300  -27.9860   22.8570 C   0  0  0  0  0  3  0  0  0  0  0  0
  -20.8270  -26.5730   22.2570 C   0  0  0  0  0  2  0  0  0  0  0  0
  -19.7470  -26.1940   21.2390 C   0  0  0  0  0  2  0  0  0  0  0  0
  -18.3620  -26.2230   21.8890 C   0  0  0  0  0  2  0  0  0  0  0  0
  -19.1550  -28.3730   23.0400 C   0  0  0  0  0  0  0  0  0  0  0  0
  -18.8460  -29.5960   23.6730 C   0  0  0  0  0  3  0  0  0  0  0  0
  -17.5080  -29.9900   23.8650 C   0  0  0  0  0  3  0  0  0  0  0  0
  -16.4610  -29.1560   23.4380 C   0  0  0  0  0  3  0  0  0  0  0  0
  -16.7530  -27.9320   22.8120 C   0  0  0  0  0  3  0  0  0  0  0  0
  -25.8610  -32.2460   23.5240 C   0  0  0  0  0  3  0  0  0  0  0  0
  -25.5060  -33.6120   23.9680 N   0  0  0  0  0  0  0  0  0  0  0  0
  -25.8080  -34.7430   23.3160 C   0  0  0  0  0  0  0  0  0  0  0  0
  -26.4680  -34.7510   22.2750 O   0  0  0  0  0  0  0  0  0  0  0  0
  -24.9160  -33.6760   24.7840 H   0  0  0  0  0  0  0  0  0  0  0  0
  -24.0420  -36.5380   23.1590 C   0  0  0  0  0  1  0  0  0  0  0  0
  -25.3030  -36.0780   23.9100 C   0  0  0  0  0  3  0  0  0  0  0  0
  -27.4240  -36.9410   24.8010 C   0  0  0  0  0  1  0  0  0  0  0  0
  -26.3130  -37.1600   23.8790 N   0  0  0  0  0  0  0  0  0  0  0  0
  -25.8870  -38.0550   24.1020 H   0  0  0  0  0  0  0  0  0  0  0  0
  -26.4440  -31.4300   24.7450 C   0  0  1  0  0  0  0  0  0  0  0  0
  -25.3960  -31.1040   25.8360 C   0  0  0  0  0  1  0  0  0  0  0  0
  -27.0580  -30.0920   24.2790 C   0  0  0  0  0  1  0  0  0  0  0  0
  -27.5900  -32.2290   25.4100 C   0  0  0  0  0  1  0  0  0  0  0  0
  2  1  1  0
  3  1  1  0
  4  9  1  0
  4  3  1  0
  5  7  1  0
  5  4  1  0
  6  3  1  0
  6 10  1  0
  8  6  1  0
  8  2  1  0
  9  5  1  0
  9 11  1  6
 12  9  1  0
 14 20  1  0
 15 20  1  0
 16 17  1  0
 16 15  1  0
 18 17  1  0
 18 25  1  0
 18 19  1  0
 20 19  1  0
 21 14  1  0
 22 23  2  0
 23 42  1  0
 24 23  1  0
 24 27  1  0
 25 26  1  0
 25 22  1  0
 26 24  2  0
 27 28  1  0
 28 29  2  0
 30 33  1  0
 30 29  1  0
 31 30  2  0
 32 31  1  0
 32 27  2  0
 33 34  1  0
 34 39  2  0
 34 35  1  0
 35 36  2  0
 36 37  1  0
 37 41  1  0
 38 37  2  0
 39 38  1  0
 40 39  1  0
 42 43  1  0
 43 46  1  0
 43 45  1  0
 44 42  2  0
 47 22  1  0
 47 48  1  0
 49 47  1  0
 50 51  1  0
 51 53  1  0
 52 63  2  0
 53 58  1  0
 54 62  1  0
 54 64  1  0
 55 61  1  0
 55 57  1  0
 56 62  1  0
 57 56  1  0
 58 57  2  0
 59 60  1  0
 59 53  2  0
 60 55  2  0
 61 54  1  0
 62 52  1  0
 64 66  2  0
 65 64  1  0
 67 65  1  0
 68 77  2  0
 68 73  1  0
 69 65  1  0
 69 73  1  0
 70 69  1  0
 71 72  1  0
 71 70  1  0
 72 68  1  0
 73 74  2  0
 74 75  1  0
 76 75  2  0
 77 76  1  0
 78 52  1  0
 78 79  1  0
 78 88  1  0
 79 82  1  0
 80 84  1  0
 80 79  1  0
 81 80  2  0
 84 83  1  0
 86 84  1  0
 86 87  1  0
 86 85  1  0
 88 91  1  1
 88 89  1  0
 90 88  1  0
M  ISO  4  13 100  14 100  50 101  51 101
M  END
>  <TORSDO>  (88) 
F 18

>  <SCORE>  (88) 
-15.327

>  <name>  (88) 
87

>  <ligand_id>  (88) 
87

>  <original_smiles>  (88) 
[H]c1c([H])c([H])c2c(c1[H])C([H])([H])C([H])([H])C([H])([H])C2([H])N([H])C(=O)C1([H])N(C(=O)C([H])(N([H])C(=O)C([H])(N([H])C([H])([H])[H])C([H])([H])[H])C(C([H])([H])[H])(C([H])([H])[H])C([H])([H])[H])C([H])([H])c2c([H])c(OC([H])([H])C3([H])C4([H])C([H])(C5([H])C([H])([H])C([H])([H])C3(C([H])([H])C(=O)N3C([H])([H])C([H])([H])C([H])([H])C([H])(n6nc(-c7c([H])c([H])c(Oc8c([H])c([H])c(F)c([H])c8F)c([H])c7[H])c(C(=O)N([H])[H])c6N([H])[H])C3([H])[H])C5([H])C([H])([H])[H])C4(C([H])([H])[H])C([H])([H])[H])c([H])c([H])c2C1([H])[H]

>  <smiles>  (88) 
[H]c1c([H])c([H])c2c(c1[H])C([H])([H])C([H])([H])C([H])([H])C2([H])N([H])C(=O)C1([H])N(C(=O)C([H])(N([H])C(=O)C([H])(N([H])C([H])([H])[H])C([H])([H])[H])C(C([H])([H])[H])(C([H])([H])[H])C([H])([H])[H])C([H])([H])c2c([H])c(OC([H])([H])C3([H])C4([H])C([H])(C5([H])C([H])([H])C([H])([H])C3(C([H])([H])C(=O)N3C([H])([H])C([H])([H])C([H])([H])C([H])(n6nc(-c7c([H])c([H])c(Oc8c([H])c([H])c(F)c([H])c8F)c([H])c7[H])c(C(=O)N([H])[H])c6N([H])[H])C3([H])[H])C5([H])C([H])([H])[H])C4(C([H])([H])[H])C([H])([H])[H])c([H])c([H])c2C1([H])[H]

$$$$
88:0:0
     RDKit          3D

 93103  0  0  1  0  0  0  0  0999 V2000
  -31.0490  -20.2690   22.0600 C   0  0  0  0  0  2  0  0  0  0  0  0
  -29.0320  -23.5810   19.3980 C   0  0  0  0  0  2  0  0  0  0  0  0
  -27.9800  -22.9700   21.4610 C   0  0  0  0  0  2  0  0  0  0  0  0
  -31.0840  -18.8300   21.5060 C   0  0  0  0  0  2  0  0  0  0  0  0
  -29.4940  -19.5380   19.7420 C   0  0  0  0  0  2  0  0  0  0  0  0
  -28.8200  -22.0640   19.3610 C   0  0  0  0  0  3  0  0  0  0  0  0
  -28.1600  -21.6750   20.6660 C   0  0  0  0  0  3  0  0  0  0  0  0
  -30.7890  -21.3220   20.9700 C   0  0  0  0  0  3  0  0  0  0  0  0
  -28.0530  -24.1350   20.4490 C   0  0  0  0  0  3  0  0  0  0  0  0
  -29.4760  -21.0100   20.2560 C   0  0  1  0  0  0  0  0  0  0  0  0
  -31.9720  -21.4910   19.9960 C   0  0  0  0  0  1  0  0  0  0  0  0
  -29.8570  -18.4730   20.7450 N   0  0  1  0  0  4  0  0  0  0  0  0
  -29.0910  -18.4550   21.4030 H   0  0  0  0  0  0  0  0  0  0  0  0
  -28.3990  -25.5250   21.0770 C   0  0  0  0  0  2  0  0  0  0  0  0
  -28.3930  -26.6710   20.1950 O   0  0  0  0  0  0  0  0  0  0  0  0
  -24.6020  -31.9230   23.2410 C   0  0  0  0  0  0  0  0  0  0  0  0
  -27.2430  -27.4360   20.2080 C   0  0  0  0  0  0  0  0  0  0  0  0
  -23.4010  -30.5130   21.6040 C   0  0  0  0  0  3  0  0  0  0  0  0
  -24.8580  -28.9630   20.1940 C   0  0  0  0  0  0  0  0  0  0  0  0
  -25.9300  -30.8610   21.4130 C   0  0  0  0  0  2  0  0  0  0  0  0
  -26.0170  -29.4850   20.7830 C   0  0  0  0  0  0  0  0  0  0  0  0
  -27.2160  -28.7290   20.7850 C   0  0  0  0  0  3  0  0  0  0  0  0
  -26.0690  -26.9340   19.6120 C   0  0  0  0  0  3  0  0  0  0  0  0
  -24.8800  -27.6870   19.6050 C   0  0  0  0  0  3  0  0  0  0  0  0
  -23.6160  -29.8270   20.2300 C   0  0  0  0  0  2  0  0  0  0  0  0
  -24.6640  -31.1150   22.1450 N   0  0  0  0  0  0  0  0  0  0  0  0
  -23.5180  -32.2000   23.7750 O   0  0  0  0  0  0  0  0  0  0  0  0
  -22.7440  -29.4970   22.5670 C   0  0  0  0  0  0  0  0  0  0  0  0
  -21.4210  -29.3150   22.4320 N   0  0  0  0  0  0  0  0  0  0  0  0
  -23.4230  -28.8760   23.3890 O   0  0  0  0  0  0  0  0  0  0  0  0
  -20.9350  -29.8660   21.7390 H   0  0  0  0  0  0  0  0  0  0  0  0
  -18.0440  -28.1190   22.9150 C   0  0  0  0  0  0  0  0  0  0  0  0
  -20.5990  -28.3820   23.2040 C   0  0  0  0  0  3  0  0  0  0  0  0
  -20.7090  -26.9480   22.6390 C   0  0  0  0  0  2  0  0  0  0  0  0
  -19.6150  -26.6160   21.6200 C   0  0  0  0  0  2  0  0  0  0  0  0
  -18.2280  -26.7650   22.2510 C   0  0  0  0  0  2  0  0  0  0  0  0
  -19.1590  -28.8850   23.3490 C   0  0  0  0  0  0  0  0  0  0  0  0
  -18.9350  -30.1520   23.9300 C   0  0  0  0  0  3  0  0  0  0  0  0
  -17.6300  -30.6560   24.0790 C   0  0  0  0  0  3  0  0  0  0  0  0
  -16.5290  -29.8870   23.6630 C   0  0  0  0  0  3  0  0  0  0  0  0
  -16.7370  -28.6210   23.0880 C   0  0  0  0  0  3  0  0  0  0  0  0
  -25.8860  -32.5570   23.8630 C   0  0  0  0  0  3  0  0  0  0  0  0
  -26.4040  -31.7870   25.1380 C   0  0  1  0  0  0  0  0  0  0  0  0
  -25.3100  -31.5460   26.2050 C   0  0  0  0  0  1  0  0  0  0  0  0
  -26.9910  -30.4100   24.7450 C   0  0  0  0  0  1  0  0  0  0  0  0
  -27.5560  -32.5830   25.8000 C   0  0  0  0  0  1  0  0  0  0  0  0
  -25.5760  -33.9550   24.1910 N   0  0  0  0  0  0  0  0  0  0  0  0
  -25.9100  -35.0060   23.4300 C   0  0  0  0  0  0  0  0  0  0  0  0
  -26.5830  -34.9020   22.4020 O   0  0  0  0  0  0  0  0  0  0  0  0
  -24.9780  -34.1100   24.9900 H   0  0  0  0  0  0  0  0  0  0  0  0
  -24.1800  -36.7960   23.0650 C   0  0  0  0  0  1  0  0  0  0  0  0
  -25.4190  -36.3950   23.8830 C   0  0  0  0  0  3  0  0  0  0  0  0
  -27.5490  -37.2800   24.7200 C   0  0  0  0  0  1  0  0  0  0  0  0
  -26.4510  -37.4480   23.7720 N   0  0  0  0  0  0  0  0  0  0  0  0
  -26.0440  -38.3680   23.9190 H   0  0  0  0  0  0  0  0  0  0  0  0
  -29.9520  -17.1010   20.1150 C   0  0  0  0  0  2  0  0  0  0  0  0
  -29.9460  -15.8480   21.0770 C   0  0  0  0  0  2  0  0  0  0  0  0
  -30.6360  -14.5720   20.4920 C   0  0  0  0  0  0  0  0  0  0  0  0
  -30.3740  -12.3840   19.3630 C   0  0  0  0  0  2  0  0  0  0  0  0
  -29.4370  -12.5760   18.1490 C   0  0  0  0  0  2  0  0  0  0  0  0
  -27.9620  -12.4320   18.5720 C   0  0  0  0  0  2  0  0  0  0  0  0
  -27.6160  -13.2670   19.8340 C   0  0  0  0  0  3  0  0  0  0  0  0
  -28.6680  -13.0500   20.9430 C   0  0  0  0  0  2  0  0  0  0  0  0
  -29.9860  -13.3750   20.3840 N   0  0  0  0  0  0  0  0  0  0  0  0
  -31.7720  -14.7170   20.0320 O   0  0  0  0  0  0  0  0  0  0  0  0
  -25.2120  -13.8730   20.5240 C   0  0  0  0  0  0  0  0  0  0  0  0
  -24.1430  -13.1010   20.8900 C   0  0  0  0  0  0  0  0  0  0  0  0
  -24.6070  -11.7490   20.8700 C   0  0  0  0  0  0  0  0  0  0  0  0
  -26.2610  -12.9910   20.3060 N   0  0  0  0  0  0  0  0  0  0  0  0
  -25.8990  -11.7100   20.5710 N   0  0  0  0  0  0  0  0  0  0  0  0
  -23.8800  -10.4880   21.0630 C   0  0  0  0  0  0  0  0  0  0  0  0
  -24.3190   -9.5160   21.9900 C   0  0  0  0  0  3  0  0  0  0  0  0
  -23.5930   -8.3180   22.1710 C   0  0  0  0  0  3  0  0  0  0  0  0
  -22.4150   -8.0850   21.4240 C   0  0  0  0  0  0  0  0  0  0  0  0
  -21.9950   -9.0440   20.4850 C   0  0  0  0  0  3  0  0  0  0  0  0
  -22.7220  -10.2330   20.3030 C   0  0  0  0  0  3  0  0  0  0  0  0
  -21.6610   -6.9390   21.5130 O   0  0  0  0  0  0  0  0  0  0  0  0
  -21.6340   -6.1820   22.6580 C   0  0  0  0  0  0  0  0  0  0  0  0
  -21.2470   -6.7280   23.9020 C   0  0  0  0  0  3  0  0  0  0  0  0
  -21.1660   -5.8990   25.0380 C   0  0  0  0  0  3  0  0  0  0  0  0
  -21.4620   -4.5270   24.9330 C   0  0  0  0  0  0  0  0  0  0  0  0
  -21.8420   -3.9820   23.6940 C   0  0  0  0  0  3  0  0  0  0  0  0
  -21.9250   -4.8070   22.5590 C   0  0  0  0  0  0  0  0  0  0  0  0
  -22.2710   -4.2730   21.3630 F   0  0  0  0  0  0  0  0  0  0  0  0
  -21.3770   -3.7280   26.0230 F   0  0  0  0  0  0  0  0  0  0  0  0
  -22.7430  -13.5780   21.1490 C   0  0  0  0  0  0  0  0  0  0  0  0
  -22.0100  -12.8840   22.0140 N   0  0  0  0  0  0  0  0  0  0  0  0
  -22.3070  -14.6000   20.6210 O   0  0  0  0  0  0  0  0  0  0  0  0
  -22.3740  -12.0560   22.4600 H   0  0  0  0  0  0  0  0  0  0  0  0
  -21.0710  -13.1850   22.2300 H   0  0  0  0  0  0  0  0  0  0  0  0
  -25.3780  -15.2410   20.3360 N   0  0  0  0  0  0  0  0  0  0  0  0
  -24.6130  -15.9000   20.4330 H   0  0  0  0  0  0  0  0  0  0  0  0
  -26.2280  -15.6710   19.9950 H   0  0  0  0  0  0  0  0  0  0  0  0
  2  9  1  0
  4  1  1  0
  5 12  1  0
  6  2  1  0
  6 10  1  0
  6  7  1  0
  7  3  1  0
  8 11  1  0
  8  1  1  0
  9 14  1  0
  9  3  1  0
 10  5  1  6
 10  7  1  0
 10  8  1  0
 12 13  1  1
 12  4  1  0
 15 17  1  0
 15 14  1  0
 16 27  2  0
 17 22  1  0
 18 26  1  0
 18 28  1  0
 19 25  1  0
 19 21  1  0
 20 26  1  0
 21 22  2  0
 21 20  1  0
 23 17  2  0
 24 23  1  0
 24 19  2  0
 25 18  1  0
 26 16  1  0
 28 30  2  0
 29 28  1  0
 31 29  1  0
 32 41  2  0
 32 37  1  0
 33 29  1  0
 33 37  1  0
 34 33  1  0
 35 36  1  0
 35 34  1  0
 36 32  1  0
 37 38  2  0
 38 39  1  0
 40 39  2  0
 41 40  1  0
 42 16  1  0
 42 47  1  0
 42 43  1  0
 43 46  1  1
 43 44  1  0
 45 43  1  0
 47 50  1  0
 48 52  1  0
 48 47  1  0
 49 48  2  0
 52 51  1  0
 54 52  1  0
 54 55  1  0
 54 53  1  0
 56 12  1  0
 56 57  1  0
 58 57  1  0
 59 64  1  0
 60 61  1  0
 60 59  1  0
 62 61  1  0
 62 69  1  0
 62 63  1  0
 64 58  1  0
 64 63  1  0
 65 58  2  0
 66 67  2  0
 67 86  1  0
 68 67  1  0
 68 71  1  0
 69 66  1  0
 69 70  1  0
 70 68  2  0
 71 72  1  0
 72 73  2  0
 74 77  1  0
 74 73  1  0
 75 74  2  0
 76 75  1  0
 76 71  2  0
 77 78  1  0
 78 79  1  0
 79 80  2  0
 81 80  1  0
 81 85  1  0
 82 81  2  0
 83 78  2  0
 83 82  1  0
 84 83  1  0
 86 87  1  0
 87 90  1  0
 87 89  1  0
 88 86  2  0
 91 92  1  0
 91 66  1  0
 93 91  1  0
M  ISO  4  14 101  15 101  57 100  58 100
M  END
>  <TORSDO>  (89) 
F 19

>  <SCORE>  (89) 
-14.737

>  <name>  (89) 
88

>  <ligand_id>  (89) 
88

>  <original_smiles>  (89) 
[H]c1c([H])c([H])c2c(c1[H])C([H])([H])C([H])([H])C([H])([H])C2([H])N([H])C(=O)C1([H])N(C(=O)C([H])(N([H])C(=O)C([H])(N([H])C([H])([H])[H])C([H])([H])[H])C(C([H])([H])[H])(C([H])([H])[H])C([H])([H])[H])C([H])([H])c2c([H])c(OC([H])([H])C3([H])C([H])([H])C4([H])C([H])(C3([H])[H])C43C([H])(C([H])([H])[H])C([H])([H])C([H])([H])[N+]([H])(C([H])([H])C([H])([H])C(=O)N4C([H])([H])C([H])([H])C([H])([H])C([H])(n5nc(-c6c([H])c([H])c(Oc7c([H])c([H])c(F)c([H])c7F)c([H])c6[H])c(C(=O)N([H])[H])c5N([H])[H])C4([H])[H])C3([H])[H])c([H])c([H])c2C1([H])[H]

>  <smiles>  (89) 
[H]c1c([H])c([H])c2c(c1[H])C([H])([H])C([H])([H])C([H])([H])C2([H])N([H])C(=O)C1([H])N(C(=O)C([H])(N([H])C(=O)C([H])(N([H])C([H])([H])[H])C([H])([H])[H])C(C([H])([H])[H])(C([H])([H])[H])C([H])([H])[H])C([H])([H])c2c([H])c(OC([H])([H])C3([H])C([H])([H])C4([H])C([H])(C3([H])[H])C43C([H])(C([H])([H])[H])C([H])([H])C([H])([H])[N+]([H])(C([H])([H])C([H])([H])C(=O)N4C([H])([H])C([H])([H])C([H])([H])C([H])(n5nc(-c6c([H])c([H])c(Oc7c([H])c([H])c(F)c([H])c7F)c([H])c6[H])c(C(=O)N([H])[H])c5N([H])[H])C4([H])[H])C3([H])[H])c([H])c([H])c2C1([H])[H]

$$$$
89:0:0
     RDKit          3D

 89 98  0  0  1  0  0  0  0  0999 V2000
  -30.1490  -22.3110   21.1780 C   0  0  0  0  0  2  0  0  0  0  0  0
  -30.4060  -18.2610   21.1500 C   0  0  0  0  0  2  0  0  0  0  0  0
  -29.1020  -18.8080   19.4500 C   0  0  0  0  0  2  0  0  0  0  0  0
  -30.9190  -20.9520   21.2790 C   0  0  0  0  0  3  0  0  0  0  0  0
  -29.5250  -17.2690   20.2560 C   0  0  0  0  0  3  0  0  0  0  0  0
  -29.8660  -19.8120   21.3660 C   0  0  0  0  0  3  0  0  0  0  0  0
  -28.7970  -20.3350   20.3410 C   0  0  0  0  0  3  0  0  0  0  0  0
  -28.9780  -22.2210   20.1680 C   0  0  0  0  0  3  0  0  0  0  0  0
  -30.2290  -15.6000   19.8280 C   0  0  0  0  0  0  0  0  0  0  0  0
  -30.2970  -13.0700   18.9920 C   0  0  0  0  0  2  0  0  0  0  0  0
  -29.3190  -12.7260   17.8320 C   0  0  0  0  0  2  0  0  0  0  0  0
  -27.9350  -12.3420   18.3780 C   0  0  0  0  0  2  0  0  0  0  0  0
  -27.4980  -13.3100   19.5010 C   0  0  0  0  0  3  0  0  0  0  0  0
  -28.6040  -13.5990   20.5450 C   0  0  0  0  0  2  0  0  0  0  0  0
  -29.7460  -14.2220   19.8380 N   0  0  0  0  0  0  0  0  0  0  0  0
  -31.4090  -15.5650   19.4380 O   0  0  0  0  0  0  0  0  0  0  0  0
  -25.2070  -13.7800   20.4920 C   0  0  0  0  0  0  0  0  0  0  0  0
  -24.1870  -12.9700   20.9090 C   0  0  0  0  0  0  0  0  0  0  0  0
  -24.6620  -11.6280   20.7700 C   0  0  0  0  0  0  0  0  0  0  0  0
  -26.2300  -12.9320   20.1130 N   0  0  0  0  0  0  0  0  0  0  0  0
  -25.9240  -11.6270   20.3450 N   0  0  0  0  0  0  0  0  0  0  0  0
  -23.9630  -10.3480   20.9600 C   0  0  0  0  0  0  0  0  0  0  0  0
  -24.4160   -9.3890   21.8910 C   0  0  0  0  0  3  0  0  0  0  0  0
  -23.7140   -8.1770   22.0700 C   0  0  0  0  0  3  0  0  0  0  0  0
  -22.5480   -7.9150   21.3150 C   0  0  0  0  0  0  0  0  0  0  0  0
  -22.1150   -8.8620   20.3700 C   0  0  0  0  0  3  0  0  0  0  0  0
  -22.8170  -10.0660   20.1890 C   0  0  0  0  0  3  0  0  0  0  0  0
  -21.8150   -6.7570   21.4030 O   0  0  0  0  0  0  0  0  0  0  0  0
  -21.6980   -6.0640   22.5820 C   0  0  0  0  0  0  0  0  0  0  0  0
  -21.1140   -6.6410   23.7310 C   0  0  0  0  0  3  0  0  0  0  0  0
  -20.9540   -5.8730   24.9020 C   0  0  0  0  0  3  0  0  0  0  0  0
  -21.3660   -4.5280   24.9250 C   0  0  0  0  0  0  0  0  0  0  0  0
  -21.9410   -3.9480   23.7780 C   0  0  0  0  0  3  0  0  0  0  0  0
  -22.1050   -4.7140   22.6120 C   0  0  0  0  0  0  0  0  0  0  0  0
  -22.6400   -4.1450   21.5050 F   0  0  0  0  0  0  0  0  0  0  0  0
  -21.2030   -3.7880   26.0440 F   0  0  0  0  0  0  0  0  0  0  0  0
  -22.8140  -13.4140   21.3180 C   0  0  0  0  0  0  0  0  0  0  0  0
  -22.1630  -12.6650   22.1990 N   0  0  0  0  0  0  0  0  0  0  0  0
  -22.3310  -14.4610   20.8920 O   0  0  0  0  0  0  0  0  0  0  0  0
  -22.5690  -11.8200   22.5720 H   0  0  0  0  0  0  0  0  0  0  0  0
  -21.2410  -12.9410   22.5080 H   0  0  0  0  0  0  0  0  0  0  0  0
  -25.3470  -15.1590   20.3690 N   0  0  0  0  0  0  0  0  0  0  0  0
  -24.5980  -15.8100   20.5820 H   0  0  0  0  0  0  0  0  0  0  0  0
  -26.1710  -15.6120   19.9990 H   0  0  0  0  0  0  0  0  0  0  0  0
  -31.8490  -21.4300   23.6060 C   0  0  0  0  0  2  0  0  0  0  0  0
  -32.0020  -20.9140   22.3730 C   0  0  0  0  0  0  0  0  0  0  0  0
  -33.3170  -20.2590   21.9840 C   0  0  0  0  0  1  0  0  0  0  0  0
  -27.9920  -23.8690   20.3480 C   0  0  0  0  0  2  0  0  0  0  0  0
  -28.1940  -25.6050   20.3280 O   0  0  0  0  0  0  0  0  0  0  0  0
  -24.7130  -31.8540   23.2870 C   0  0  0  0  0  0  0  0  0  0  0  0
  -27.2130  -26.7970   20.2980 C   0  0  0  0  0  0  0  0  0  0  0  0
  -23.5160  -30.4710   21.6420 C   0  0  0  0  0  3  0  0  0  0  0  0
  -24.9540  -28.8220   20.2290 C   0  0  0  0  0  0  0  0  0  0  0  0
  -26.0960  -30.6040   21.5260 C   0  0  0  0  0  2  0  0  0  0  0  0
  -26.1490  -29.1780   20.8640 C   0  0  0  0  0  0  0  0  0  0  0  0
  -27.2660  -28.1950   20.8600 C   0  0  0  0  0  3  0  0  0  0  0  0
  -25.9810  -26.6380   19.6150 C   0  0  0  0  0  3  0  0  0  0  0  0
  -24.9070  -27.5760   19.5780 C   0  0  0  0  0  3  0  0  0  0  0  0
  -23.7510  -29.7740   20.2710 C   0  0  0  0  0  2  0  0  0  0  0  0
  -24.7980  -31.0100   22.2030 N   0  0  0  0  0  0  0  0  0  0  0  0
  -23.6210  -32.1620   23.7970 O   0  0  0  0  0  0  0  0  0  0  0  0
  -22.7920  -29.4950   22.6090 C   0  0  0  0  0  0  0  0  0  0  0  0
  -21.4630  -29.3340   22.4650 N   0  0  0  0  0  0  0  0  0  0  0  0
  -23.4380  -28.8800   23.4610 O   0  0  0  0  0  0  0  0  0  0  0  0
  -20.9940  -29.8760   21.7550 H   0  0  0  0  0  0  0  0  0  0  0  0
  -18.0680  -28.1240   22.9390 C   0  0  0  0  0  0  0  0  0  0  0  0
  -20.6260  -28.4010   23.2310 C   0  0  0  0  0  3  0  0  0  0  0  0
  -20.7350  -26.9650   22.6660 C   0  0  0  0  0  2  0  0  0  0  0  0
  -19.6460  -26.6340   21.6400 C   0  0  0  0  0  2  0  0  0  0  0  0
  -18.2560  -26.7760   22.2660 C   0  0  0  0  0  2  0  0  0  0  0  0
  -19.1780  -28.8950   23.3760 C   0  0  0  0  0  0  0  0  0  0  0  0
  -18.9430  -30.1550   23.9680 C   0  0  0  0  0  3  0  0  0  0  0  0
  -17.6310  -30.6450   24.1260 C   0  0  0  0  0  3  0  0  0  0  0  0
  -16.5370  -29.8710   23.7010 C   0  0  0  0  0  3  0  0  0  0  0  0
  -16.7550  -28.6140   23.1130 C   0  0  0  0  0  3  0  0  0  0  0  0
  -25.9820  -32.4890   23.9320 C   0  0  0  0  0  3  0  0  0  0  0  0
  -25.6740  -33.8940   24.2590 N   0  0  0  0  0  0  0  0  0  0  0  0
  -25.9830  -34.9510   23.4960 C   0  0  0  0  0  0  0  0  0  0  0  0
  -26.6140  -34.8470   22.4420 O   0  0  0  0  0  0  0  0  0  0  0  0
  -25.1080  -34.0500   25.0810 H   0  0  0  0  0  0  0  0  0  0  0  0
  -24.2260  -36.7420   23.2480 C   0  0  0  0  0  1  0  0  0  0  0  0
  -25.5210  -36.3450   23.9750 C   0  0  0  0  0  3  0  0  0  0  0  0
  -27.6930  -37.2640   24.6670 C   0  0  0  0  0  1  0  0  0  0  0  0
  -26.5390  -37.4020   23.7830 N   0  0  0  0  0  0  0  0  0  0  0  0
  -26.1330  -38.3220   23.9330 H   0  0  0  0  0  0  0  0  0  0  0  0
  -26.4610  -31.7280   25.2290 C   0  0  1  0  0  0  0  0  0  0  0  0
  -25.3440  -31.5110   26.2780 C   0  0  0  0  0  1  0  0  0  0  0  0
  -27.0400  -30.3400   24.8750 C   0  0  0  0  0  1  0  0  0  0  0  0
  -27.6080  -32.5190   25.9060 C   0  0  0  0  0  1  0  0  0  0  0  0
  1  4  1  0
  3  5  1  0
  4  6  1  0
  4 46  1  0
  5  9  1  0
  5  2  1  0
  6  2  1  0
  7  3  1  0
  7  6  1  0
  8  7  1  0
  8 48  1  0
  8  1  1  0
  9 15  1  0
 10 15  1  0
 11 12  1  0
 11 10  1  0
 13 12  1  0
 13 20  1  0
 13 14  1  0
 15 14  1  0
 16  9  2  0
 17 18  2  0
 18 37  1  0
 19 18  1  0
 19 22  1  0
 20 21  1  0
 20 17  1  0
 21 19  2  0
 22 23  1  0
 23 24  2  0
 25 28  1  0
 25 24  1  0
 26 25  2  0
 27 26  1  0
 27 22  2  0
 28 29  1  0
 29 34  2  0
 29 30  1  0
 30 31  2  0
 31 32  1  0
 32 36  1  0
 33 32  2  0
 34 33  1  0
 35 34  1  0
 37 38  1  0
 38 41  1  0
 38 40  1  0
 39 37  2  0
 42 17  1  0
 42 43  1  0
 44 42  1  0
 46 45  2  0
 47 46  1  0
 49 48  1  0
 50 61  2  0
 51 49  1  0
 51 56  1  0
 52 60  1  0
 52 62  1  0
 53 59  1  0
 53 55  1  0
 54 60  1  0
 55 54  1  0
 56 55  2  0
 57 51  2  0
 58 57  1  0
 58 53  2  0
 59 52  1  0
 60 50  1  0
 62 64  2  0
 63 62  1  0
 65 63  1  0
 66 75  2  0
 66 71  1  0
 67 63  1  0
 67 71  1  0
 68 67  1  0
 69 70  1  0
 69 68  1  0
 70 66  1  0
 71 72  2  0
 72 73  1  0
 74 73  2  0
 75 74  1  0
 76 50  1  0
 76 77  1  0
 76 86  1  0
 77 80  1  0
 78 82  1  0
 78 77  1  0
 79 78  2  0
 82 81  1  0
 84 85  1  0
 84 82  1  0
 84 83  1  0
 86 89  1  1
 86 87  1  0
 88 86  1  0
M  ISO  4   5 100   9 100  48 101  49 101
M  END
>  <TORSDO>  (90) 
F 18

>  <SCORE>  (90) 
-16.207

>  <name>  (90) 
89

>  <ligand_id>  (90) 
89

>  <original_smiles>  (90) 
[H]C([H])=C(C([H])([H])[H])C1([H])C([H])([H])C([H])(C([H])([H])Oc2c([H])c([H])c3c(c2[H])C([H])([H])N(C(=O)C([H])(N([H])C(=O)C([H])(N([H])C([H])([H])[H])C([H])([H])[H])C(C([H])([H])[H])(C([H])([H])[H])C([H])([H])[H])C([H])(C(=O)N([H])C2([H])c4c([H])c([H])c([H])c([H])c4C([H])([H])C([H])([H])C2([H])[H])C3([H])[H])C2([H])C([H])([H])C([H])(C(=O)N3C([H])([H])C([H])([H])C([H])([H])C([H])(n4nc(-c5c([H])c([H])c(Oc6c([H])c([H])c(F)c([H])c6F)c([H])c5[H])c(C(=O)N([H])[H])c4N([H])[H])C3([H])[H])C([H])([H])C12[H]

>  <smiles>  (90) 
[H]C([H])=C(C([H])([H])[H])C1([H])C([H])([H])C([H])(C([H])([H])Oc2c([H])c([H])c3c(c2[H])C([H])([H])N(C(=O)C([H])(N([H])C(=O)C([H])(N([H])C([H])([H])[H])C([H])([H])[H])C(C([H])([H])[H])(C([H])([H])[H])C([H])([H])[H])C([H])(C(=O)N([H])C2([H])c4c([H])c([H])c([H])c([H])c4C([H])([H])C([H])([H])C2([H])[H])C3([H])[H])C2([H])C([H])([H])C([H])(C(=O)N3C([H])([H])C([H])([H])C([H])([H])C([H])(n4nc(-c5c([H])c([H])c(Oc6c([H])c([H])c(F)c([H])c6F)c([H])c5[H])c(C(=O)N([H])[H])c4N([H])[H])C3([H])[H])C([H])([H])C12[H]

$$$$
90:0:0
     RDKit          3D

 86 91  0  0  1  0  0  0  0  0999 V2000
  -28.6510  -21.7920   18.5830 C   0  0  0  0  0  1  0  0  0  0  0  0
  -28.7180  -21.7040   19.9190 C   0  0  0  0  0  2  0  0  0  0  0  0
  -30.8060  -20.0330   20.4670 C   0  0  0  0  0  2  0  0  0  0  0  0
  -31.2520  -19.5150   19.0860 C   0  0  0  0  0  2  0  0  0  0  0  0
  -29.2930  -19.8810   20.4590 C   0  0  0  0  0  1  0  0  0  0  0  0
  -29.4760  -17.9020   19.8480 C   0  0  0  0  0  1  0  0  0  0  0  0
  -30.3730  -18.3110   18.6460 C   0  0  0  0  0  3  0  0  0  0  0  0
  -29.5810  -18.5040   17.3380 C   0  0  0  0  0  1  0  0  0  0  0  0
  -30.1860  -16.0480   20.1520 C   0  0  0  0  0  2  0  0  0  0  0  0
  -30.3850  -13.4190   19.3840 C   0  0  0  0  0  2  0  0  0  0  0  0
  -29.5320  -12.8560   18.2000 C   0  0  0  0  0  2  0  0  0  0  0  0
  -28.1300  -12.4390   18.6630 C   0  0  0  0  0  2  0  0  0  0  0  0
  -27.5670  -13.4600   19.6710 C   0  0  0  0  0  3  0  0  0  0  0  0
  -28.5730  -13.9180   20.7580 C   0  0  0  0  0  2  0  0  0  0  0  0
  -29.7010  -14.6280   20.0830 N   0  0  0  0  0  0  0  0  0  0  0  0
  -31.4310  -15.8760   20.1510 O   0  0  0  0  0  1  0  0  0  0  0  0
  -25.2110  -13.9490   20.4580 C   0  0  0  0  0  0  0  0  0  0  0  0
  -24.1620  -13.1580   20.8270 C   0  0  0  0  0  0  0  0  0  0  0  0
  -24.6480  -11.8140   20.8000 C   0  0  0  0  0  0  0  0  0  0  0  0
  -26.2640  -13.0900   20.2100 N   0  0  0  0  0  0  0  0  0  0  0  0
  -25.9430  -11.7980   20.4840 N   0  0  0  0  0  0  0  0  0  0  0  0
  -23.9310  -10.5440   20.9930 C   0  0  0  0  0  0  0  0  0  0  0  0
  -24.3570   -9.5900   21.9430 C   0  0  0  0  0  3  0  0  0  0  0  0
  -23.6340   -8.3910   22.1290 C   0  0  0  0  0  3  0  0  0  0  0  0
  -22.4690   -8.1370   21.3650 C   0  0  0  0  0  0  0  0  0  0  0  0
  -22.0630   -9.0790   20.4040 C   0  0  0  0  0  3  0  0  0  0  0  0
  -22.7860  -10.2700   20.2170 C   0  0  0  0  0  3  0  0  0  0  0  0
  -21.7220   -6.9880   21.4570 O   0  0  0  0  0  0  0  0  0  0  0  0
  -21.6560   -6.2630   22.6210 C   0  0  0  0  0  0  0  0  0  0  0  0
  -21.1740   -6.8250   23.8230 C   0  0  0  0  0  3  0  0  0  0  0  0
  -21.0570   -6.0250   24.9770 C   0  0  0  0  0  3  0  0  0  0  0  0
  -21.4090   -4.6630   24.9310 C   0  0  0  0  0  0  0  0  0  0  0  0
  -21.8820   -4.1000   23.7330 C   0  0  0  0  0  3  0  0  0  0  0  0
  -22.0020   -4.8970   22.5800 C   0  0  0  0  0  0  0  0  0  0  0  0
  -22.4390   -4.3430   21.4240 F   0  0  0  0  0  0  0  0  0  0  0  0
  -21.2910   -3.8930   26.0370 F   0  0  0  0  0  0  0  0  0  0  0  0
  -22.7580  -13.6210   21.0850 C   0  0  0  0  0  0  0  0  0  0  0  0
  -22.0310  -12.9220   21.9490 N   0  0  0  0  0  0  0  0  0  0  0  0
  -22.3140  -14.6390   20.5550 O   0  0  0  0  0  0  0  0  0  0  0  0
  -22.4070  -12.1040   22.4050 H   0  0  0  0  0  0  0  0  0  0  0  0
  -21.0860  -13.2100   22.1590 H   0  0  0  0  0  0  0  0  0  0  0  0
  -25.3580  -15.3210   20.2760 N   0  0  0  0  0  0  0  0  0  0  0  0
  -24.5880  -15.9690   20.3900 H   0  0  0  0  0  0  0  0  0  0  0  0
  -26.2070  -15.7670   19.9530 H   0  0  0  0  0  0  0  0  0  0  0  0
  -28.1880  -23.4740   20.5940 C   0  0  0  0  0  2  0  0  0  0  0  0
  -28.1940  -25.3010   20.2110 O   0  0  0  0  0  0  0  0  0  0  0  0
  -24.6240  -31.8500   23.1110 C   0  0  0  0  0  0  0  0  0  0  0  0
  -27.2170  -26.5860   20.2450 C   0  0  0  0  0  0  0  0  0  0  0  0
  -23.4770  -30.4200   21.4800 C   0  0  0  0  0  3  0  0  0  0  0  0
  -24.9540  -28.7300   20.1230 C   0  0  0  0  0  0  0  0  0  0  0  0
  -26.0670  -30.5250   21.4110 C   0  0  0  0  0  2  0  0  0  0  0  0
  -26.1470  -29.0640   20.7770 C   0  0  0  0  0  0  0  0  0  0  0  0
  -27.2560  -28.0310   20.7910 C   0  0  0  0  0  3  0  0  0  0  0  0
  -25.9820  -26.5130   19.5350 C   0  0  0  0  0  3  0  0  0  0  0  0
  -24.9220  -27.4820   19.4780 C   0  0  0  0  0  3  0  0  0  0  0  0
  -23.7490  -29.6960   20.1300 C   0  0  0  0  0  2  0  0  0  0  0  0
  -24.7490  -30.9710   22.0520 N   0  0  0  0  0  0  0  0  0  0  0  0
  -23.5180  -32.1530   23.5960 O   0  0  0  0  0  0  0  0  0  0  0  0
  -22.7360  -29.4640   22.4560 C   0  0  0  0  0  0  0  0  0  0  0  0
  -21.4050  -29.3040   22.3110 N   0  0  0  0  0  0  0  0  0  0  0  0
  -23.3760  -28.8610   23.3200 O   0  0  0  0  0  0  0  0  0  0  0  0
  -20.9330  -29.8360   21.5920 H   0  0  0  0  0  0  0  0  0  0  0  0
  -18.0190  -28.0610   22.7920 C   0  0  0  0  0  0  0  0  0  0  0  0
  -20.5730  -28.3720   23.0850 C   0  0  0  0  0  3  0  0  0  0  0  0
  -20.7020  -26.9300   22.5380 C   0  0  0  0  0  2  0  0  0  0  0  0
  -19.6220  -26.5780   21.5110 C   0  0  0  0  0  2  0  0  0  0  0  0
  -18.2270  -26.7080   22.1310 C   0  0  0  0  0  2  0  0  0  0  0  0
  -19.1210  -28.8480   23.2250 C   0  0  0  0  0  0  0  0  0  0  0  0
  -18.8690  -30.1080   23.8090 C   0  0  0  0  0  3  0  0  0  0  0  0
  -17.5520  -30.5840   23.9610 C   0  0  0  0  0  3  0  0  0  0  0  0
  -16.4680  -29.7960   23.5410 C   0  0  0  0  0  3  0  0  0  0  0  0
  -16.7020  -28.5360   22.9610 C   0  0  0  0  0  3  0  0  0  0  0  0
  -25.8640  -32.5290   23.7690 C   0  0  0  0  0  3  0  0  0  0  0  0
  -25.5140  -33.9290   24.0900 N   0  0  0  0  0  0  0  0  0  0  0  0
  -25.8620  -35.0020   23.3670 C   0  0  0  0  0  0  0  0  0  0  0  0
  -26.5620  -34.9180   22.3570 O   0  0  0  0  0  0  0  0  0  0  0  0
  -24.8880  -34.0650   24.8710 H   0  0  0  0  0  0  0  0  0  0  0  0
  -24.1440  -36.8100   22.9960 C   0  0  0  0  0  1  0  0  0  0  0  0
  -25.3600  -36.3850   23.8350 C   0  0  0  0  0  3  0  0  0  0  0  0
  -27.4600  -37.2710   24.7530 C   0  0  0  0  0  1  0  0  0  0  0  0
  -26.3920  -37.4440   23.7720 N   0  0  0  0  0  0  0  0  0  0  0  0
  -25.9760  -38.3610   23.9150 H   0  0  0  0  0  0  0  0  0  0  0  0
  -26.3440  -31.7900   25.0800 C   0  0  1  0  0  0  0  0  0  0  0  0
  -25.2200  -31.5710   26.1210 C   0  0  0  0  0  1  0  0  0  0  0  0
  -26.9500  -30.4070   24.7570 C   0  0  0  0  0  1  0  0  0  0  0  0
  -27.4640  -32.6100   25.7600 C   0  0  0  0  0  1  0  0  0  0  0  0
  1  2  1  0
  2 45  1  0
  4  3  1  0
  5  3  1  0
  7  4  1  0
  7  6  1  0
  8  7  1  0
 10 15  1  0
 11 12  1  0
 11 10  1  0
 13 12  1  0
 13 20  1  0
 13 14  1  0
 15  9  1  0
 15 14  1  0
 16  9  1  0
 17 18  2  0
 18 37  1  0
 19 18  1  0
 19 22  1  0
 20 17  1  0
 20 21  1  0
 21 19  2  0
 22 23  1  0
 23 24  2  0
 25 28  1  0
 25 24  1  0
 26 25  2  0
 27 26  1  0
 27 22  2  0
 28 29  1  0
 29 30  1  0
 30 31  2  0
 32 31  1  0
 32 36  1  0
 33 32  2  0
 34 29  2  0
 34 33  1  0
 35 34  1  0
 37 38  1  0
 38 41  1  0
 38 40  1  0
 39 37  2  0
 42 43  1  0
 42 17  1  0
 44 42  1  0
 46 48  1  0
 46 45  1  0
 47 58  2  0
 48 53  1  0
 49 57  1  0
 49 59  1  0
 50 56  1  0
 50 52  1  0
 51 57  1  0
 52 53  2  0
 52 51  1  0
 54 48  2  0
 55 54  1  0
 55 50  2  0
 56 49  1  0
 57 47  1  0
 59 61  2  0
 60 59  1  0
 62 60  1  0
 63 72  2  0
 63 68  1  0
 64 60  1  0
 64 68  1  0
 65 64  1  0
 66 67  1  0
 66 65  1  0
 67 63  1  0
 68 69  2  0
 69 70  1  0
 71 70  2  0
 72 71  1  0
 73 47  1  0
 73 74  1  0
 73 83  1  0
 74 77  1  0
 75 79  1  0
 75 74  1  0
 76 75  2  0
 79 78  1  0
 81 79  1  0
 81 82  1  0
 81 80  1  0
 83 86  1  1
 83 84  1  0
 85 83  1  0
M  ISO  4   6 100   9 100  45 101  46 101
M  END
>  <TORSDO>  (91) 
F 18

>  <SCORE>  (91) 
-16.537

>  <name>  (91) 
90

>  <ligand_id>  (91) 
90

>  <original_smiles>  (91) 
[H]C([H])=C(C([H])([H])Oc1c([H])c([H])c2c(c1[H])C([H])([H])N(C(=O)C([H])(N([H])C(=O)C([H])(N([H])C([H])([H])[H])C([H])([H])[H])C(C([H])([H])[H])(C([H])([H])[H])C([H])([H])[H])C([H])(C(=O)N([H])C1([H])c3c([H])c([H])c([H])c([H])c3C([H])([H])C([H])([H])C1([H])[H])C2([H])[H])C1([H])C([H])([H])C([H])([H])C([H])(C([H])([H])[H])C1([H])C(=O)N1C([H])([H])C([H])([H])C([H])([H])C([H])(n2nc(-c3c([H])c([H])c(Oc4c([H])c([H])c(F)c([H])c4F)c([H])c3[H])c(C(=O)N([H])[H])c2N([H])[H])C1([H])[H]

>  <smiles>  (91) 
[H]C([H])=C(C([H])([H])Oc1c([H])c([H])c2c(c1[H])C([H])([H])N(C(=O)C([H])(N([H])C(=O)C([H])(N([H])C([H])([H])[H])C([H])([H])[H])C(C([H])([H])[H])(C([H])([H])[H])C([H])([H])[H])C([H])(C(=O)N([H])C1([H])c3c([H])c([H])c([H])c([H])c3C([H])([H])C([H])([H])C1([H])[H])C2([H])[H])C1([H])C([H])([H])C([H])([H])C([H])(C([H])([H])[H])C1([H])C(=O)N1C([H])([H])C([H])([H])C([H])([H])C([H])(n2nc(-c3c([H])c([H])c(Oc4c([H])c([H])c(F)c([H])c4F)c([H])c3[H])c(C(=O)N([H])[H])c2N([H])[H])C1([H])[H]

$$$$
91:0:0
     RDKit          3D

 92102  0  0  1  0  0  0  0  0999 V2000
  -27.5030  -23.3340   18.5930 C   0  0  0  0  0  2  0  0  0  0  0  0
  -28.2100  -23.2320   20.9690 C   0  0  0  0  0  2  0  0  0  0  0  0
  -27.3360  -24.0020   19.9600 C   0  0  2  0  0  0  0  0  0  0  0  0
  -28.9230  -23.7940   19.0310 C   0  0  2  0  0  0  0  0  0  0  0  0
  -28.1040  -25.1660   19.2820 C   0  0  0  0  0  3  0  0  0  0  0  0
  -29.3750  -22.8620   20.1370 N   0  0  0  0  0  0  0  0  0  0  0  0
  -28.3080  -26.4330   20.0430 O   0  0  0  0  0  0  0  0  0  0  0  0
  -24.6480  -31.8200   23.2980 C   0  0  0  0  0  0  0  0  0  0  0  0
  -27.2310  -27.3600   20.0240 C   0  0  0  0  0  0  0  0  0  0  0  0
  -23.4500  -30.5300   21.5720 C   0  0  0  0  0  3  0  0  0  0  0  0
  -24.8990  -29.0480   20.0830 C   0  0  0  0  0  0  0  0  0  0  0  0
  -26.0030  -30.8040   21.4510 C   0  0  0  0  0  2  0  0  0  0  0  0
  -26.0700  -29.4600   20.7310 C   0  0  0  0  0  0  0  0  0  0  0  0
  -27.2350  -28.6250   20.7050 C   0  0  0  0  0  3  0  0  0  0  0  0
  -26.0330  -27.0410   19.3340 C   0  0  0  0  0  3  0  0  0  0  0  0
  -24.8850  -27.8430   19.3780 C   0  0  0  0  0  3  0  0  0  0  0  0
  -23.6770  -29.9390   20.1610 C   0  0  0  0  0  2  0  0  0  0  0  0
  -24.7190  -31.0650   22.1630 N   0  0  0  0  0  0  0  0  0  0  0  0
  -23.5600  -32.0870   23.8280 O   0  0  0  0  0  0  0  0  0  0  0  0
  -22.7590  -29.4690   22.4620 C   0  0  0  0  0  0  0  0  0  0  0  0
  -21.4310  -29.3230   22.3130 N   0  0  0  0  0  0  0  0  0  0  0  0
  -23.4160  -28.7850   23.2500 O   0  0  0  0  0  0  0  0  0  0  0  0
  -20.9600  -29.9280   21.6550 H   0  0  0  0  0  0  0  0  0  0  0  0
  -18.0250  -28.1710   22.7230 C   0  0  0  0  0  0  0  0  0  0  0  0
  -20.5860  -28.3610   23.0220 C   0  0  0  0  0  3  0  0  0  0  0  0
  -20.6620  -26.9620   22.3670 C   0  0  0  0  0  2  0  0  0  0  0  0
  -19.5610  -26.7210   21.3290 C   0  0  0  0  0  2  0  0  0  0  0  0
  -18.1780  -26.8590   21.9710 C   0  0  0  0  0  2  0  0  0  0  0  0
  -19.1550  -28.8840   23.2020 C   0  0  0  0  0  0  0  0  0  0  0  0
  -18.9580  -30.1140   23.8650 C   0  0  0  0  0  3  0  0  0  0  0  0
  -17.6630  -30.6330   24.0500 C   0  0  0  0  0  3  0  0  0  0  0  0
  -16.5470  -29.9170   23.5870 C   0  0  0  0  0  3  0  0  0  0  0  0
  -16.7270  -28.6870   22.9290 C   0  0  0  0  0  3  0  0  0  0  0  0
  -25.9290  -32.4020   23.9690 C   0  0  0  0  0  3  0  0  0  0  0  0
  -25.6600  -33.8110   24.2920 N   0  0  0  0  0  0  0  0  0  0  0  0
  -26.0510  -34.8510   23.5460 C   0  0  0  0  0  0  0  0  0  0  0  0
  -26.7450  -34.7250   22.5330 O   0  0  0  0  0  0  0  0  0  0  0  0
  -25.0510  -33.9850   25.0780 H   0  0  0  0  0  0  0  0  0  0  0  0
  -24.4010  -36.7080   23.1450 C   0  0  0  0  0  1  0  0  0  0  0  0
  -25.6010  -36.2560   23.9930 C   0  0  0  0  0  3  0  0  0  0  0  0
  -27.7350  -37.0640   24.8990 C   0  0  0  0  0  1  0  0  0  0  0  0
  -26.6740  -37.2700   23.9160 N   0  0  0  0  0  0  0  0  0  0  0  0
  -26.2960  -38.2040   24.0490 H   0  0  0  0  0  0  0  0  0  0  0  0
  -26.3650  -31.6090   25.2610 C   0  0  1  0  0  0  0  0  0  0  0  0
  -25.2240  -31.4140   26.2870 C   0  0  0  0  0  1  0  0  0  0  0  0
  -26.9080  -30.2080   24.8910 C   0  0  0  0  0  1  0  0  0  0  0  0
  -27.5220  -32.3550   25.9660 C   0  0  0  0  0  1  0  0  0  0  0  0
  -29.3600  -21.3860   19.7420 C   0  0  0  0  0  2  0  0  0  0  0  0
  -30.4770  -20.3170   20.2040 C   0  0  0  0  0  3  0  0  0  0  0  0
  -29.9840  -18.8660   20.3060 N   0  0  0  0  0  4  0  0  0  0  0  0
  -29.3350  -18.8390   21.0750 H   0  0  0  0  0  0  0  0  0  0  0  0
  -29.4480  -18.6770   19.4740 H   0  0  0  0  0  0  0  0  0  0  0  0
  -30.9640  -17.6960   20.4640 C   0  0  0  0  0  2  0  0  0  0  0  0
  -30.3430  -16.2420   20.7870 C   0  0  0  0  0  2  0  0  0  0  0  0
  -31.1490  -14.8970   20.4860 C   0  0  0  0  0  0  0  0  0  0  0  0
  -30.9170  -12.6130   19.5000 C   0  0  0  0  0  2  0  0  0  0  0  0
  -30.0080  -12.7060   18.2530 C   0  0  0  0  0  2  0  0  0  0  0  0
  -28.5210  -12.5890   18.6470 C   0  0  0  0  0  2  0  0  0  0  0  0
  -28.1480  -13.5110   19.8360 C   0  0  0  0  0  3  0  0  0  0  0  0
  -29.1740  -13.3960   20.9840 C   0  0  0  0  0  2  0  0  0  0  0  0
  -30.5070  -13.6810   20.4370 N   0  0  0  0  0  0  0  0  0  0  0  0
  -32.3300  -14.9810   20.1360 O   0  0  0  0  0  0  0  0  0  0  0  0
  -25.7730  -14.2040   20.5300 C   0  0  0  0  0  0  0  0  0  0  0  0
  -24.6680  -13.4750   20.8740 C   0  0  0  0  0  0  0  0  0  0  0  0
  -25.0720  -12.1040   20.8330 C   0  0  0  0  0  0  0  0  0  0  0  0
  -26.7810  -13.2810   20.2990 N   0  0  0  0  0  0  0  0  0  0  0  0
  -26.3640  -12.0130   20.5430 N   0  0  0  0  0  0  0  0  0  0  0  0
  -24.2880  -10.8730   20.9940 C   0  0  0  0  0  0  0  0  0  0  0  0
  -24.6740   -9.8670   21.9060 C   0  0  0  0  0  3  0  0  0  0  0  0
  -23.8930   -8.7000   22.0580 C   0  0  0  0  0  3  0  0  0  0  0  0
  -22.7110   -8.5330   21.2960 C   0  0  0  0  0  0  0  0  0  0  0  0
  -22.3440   -9.5280   20.3740 C   0  0  0  0  0  3  0  0  0  0  0  0
  -23.1250  -10.6860   20.2200 C   0  0  0  0  0  3  0  0  0  0  0  0
  -21.9050   -7.4230   21.3580 O   0  0  0  0  0  0  0  0  0  0  0  0
  -21.7890   -6.6800   22.5050 C   0  0  0  0  0  0  0  0  0  0  0  0
  -21.3630   -7.2520   23.7230 C   0  0  0  0  0  3  0  0  0  0  0  0
  -21.1910   -6.4390   24.8620 C   0  0  0  0  0  3  0  0  0  0  0  0
  -21.4350   -5.0550   24.7820 C   0  0  0  0  0  0  0  0  0  0  0  0
  -21.8560   -4.4830   23.5680 C   0  0  0  0  0  3  0  0  0  0  0  0
  -22.0290   -5.2920   22.4320 C   0  0  0  0  0  0  0  0  0  0  0  0
  -22.4130   -4.7330   21.2600 F   0  0  0  0  0  0  0  0  0  0  0  0
  -21.2640   -4.2720   25.8720 F   0  0  0  0  0  0  0  0  0  0  0  0
  -23.2880  -14.0100   21.1270 C   0  0  0  0  0  0  0  0  0  0  0  0
  -22.5270  -13.3560   21.9980 N   0  0  0  0  0  0  0  0  0  0  0  0
  -22.8940  -15.0420   20.5880 O   0  0  0  0  0  0  0  0  0  0  0  0
  -22.8580  -12.5200   22.4570 H   0  0  0  0  0  0  0  0  0  0  0  0
  -21.6000  -13.6970   22.2100 H   0  0  0  0  0  0  0  0  0  0  0  0
  -26.0010  -15.5690   20.3730 N   0  0  0  0  0  0  0  0  0  0  0  0
  -25.2590  -16.2520   20.4720 H   0  0  0  0  0  0  0  0  0  0  0  0
  -26.8680  -15.9690   20.0410 H   0  0  0  0  0  0  0  0  0  0  0  0
  -30.2680  -20.7150   22.7690 C   0  0  0  0  0  1  0  0  0  0  0  0
  -31.1680  -20.7420   21.5220 C   0  0  0  0  0  2  0  0  0  0  0  0
  3  1  1  6
  3  2  1  0
  4  1  1  6
  4  5  1  0
  4  3  1  0
  4  6  1  0
  5  3  1  0
  5  7  1  0
  6  2  1  0
  8 19  2  0
  9  7  1  0
  9 14  1  0
 10 18  1  0
 10 20  1  0
 11 17  1  0
 11 13  1  0
 12 18  1  0
 13 12  1  0
 14 13  2  0
 15 16  1  0
 15  9  2  0
 16 11  2  0
 17 10  1  0
 18  8  1  0
 20 22  2  0
 21 20  1  0
 23 21  1  0
 24 33  2  0
 24 29  1  0
 25 21  1  0
 25 29  1  0
 26 25  1  0
 27 28  1  0
 27 26  1  0
 28 24  1  0
 29 30  2  0
 30 31  1  0
 32 31  2  0
 33 32  1  0
 34  8  1  0
 34 35  1  0
 34 44  1  0
 35 38  1  0
 36 40  1  0
 36 35  1  0
 37 36  2  0
 40 39  1  0
 42 40  1  0
 42 43  1  0
 42 41  1  0
 44 47  1  1
 44 45  1  0
 46 44  1  0
 48  6  1  0
 49 48  1  0
 49 50  1  0
 49 92  1  0
 50 53  1  0
 50 51  1  0
 52 50  1  0
 53 54  1  0
 55 54  1  0
 56 61  1  0
 57 58  1  0
 57 56  1  0
 59 58  1  0
 59 66  1  0
 59 60  1  0
 61 55  1  0
 61 60  1  0
 62 55  2  0
 63 64  2  0
 64 83  1  0
 65 64  1  0
 65 68  1  0
 66 63  1  0
 66 67  1  0
 67 65  2  0
 68 69  1  0
 69 70  2  0
 71 74  1  0
 71 70  1  0
 72 71  2  0
 73 72  1  0
 73 68  2  0
 74 75  1  0
 75 76  1  0
 76 77  2  0
 78 77  1  0
 78 82  1  0
 79 78  2  0
 80 75  2  0
 80 79  1  0
 81 80  1  0
 83 84  1  0
 84 87  1  0
 84 86  1  0
 85 83  2  0
 88 89  1  0
 88 63  1  0
 90 88  1  0
 92 91  1  0
M  ISO  4   5 101   7 101  54 100  55 100
M  END
>  <TORSDO>  (92) 
F 22

>  <SCORE>  (92) 
-12.538

>  <name>  (92) 
91

>  <ligand_id>  (92) 
91

>  <original_smiles>  (92) 
[H]c1c([H])c([H])c2c(c1[H])C([H])([H])C([H])([H])C([H])([H])C2([H])N([H])C(=O)C1([H])N(C(=O)C([H])(N([H])C(=O)C([H])(N([H])C([H])([H])[H])C([H])([H])[H])C(C([H])([H])[H])(C([H])([H])[H])C([H])([H])[H])C([H])([H])c2c([H])c(OC3([H])C4([H])N(C([H])([H])C([H])(C([H])([H])C([H])([H])[H])[N+]([H])([H])C([H])([H])C([H])([H])C(=O)N5C([H])([H])C([H])([H])C([H])([H])C([H])(n6nc(-c7c([H])c([H])c(Oc8c([H])c([H])c(F)c([H])c8F)c([H])c7[H])c(C(=O)N([H])[H])c6N([H])[H])C5([H])[H])C([H])([H])C3([H])C4([H])[H])c([H])c([H])c2C1([H])[H]

>  <smiles>  (92) 
[H]c1c([H])c([H])c2c(c1[H])C([H])([H])C([H])([H])C([H])([H])C2([H])N([H])C(=O)C1([H])N(C(=O)C([H])(N([H])C(=O)C([H])(N([H])C([H])([H])[H])C([H])([H])[H])C(C([H])([H])[H])(C([H])([H])[H])C([H])([H])[H])C([H])([H])c2c([H])c(OC3([H])C4([H])N(C([H])([H])C([H])(C([H])([H])C([H])([H])[H])[N+]([H])([H])C([H])([H])C([H])([H])C(=O)N5C([H])([H])C([H])([H])C([H])([H])C([H])(n6nc(-c7c([H])c([H])c(Oc8c([H])c([H])c(F)c([H])c8F)c([H])c7[H])c(C(=O)N([H])[H])c6N([H])[H])C5([H])[H])C([H])([H])C3([H])C4([H])[H])c([H])c([H])c2C1([H])[H]

$$$$
92:0:0
     RDKit          3D

 88 95  0  0  1  0  0  0  0  0999 V2000
  -28.8430  -20.6100   19.9510 C   0  0  0  0  0  3  0  0  0  0  0  0
  -27.2750  -21.3720   18.0890 C   0  0  0  0  0  1  0  0  0  0  0  0
  -28.3060  -20.4260   18.5760 N   0  0  0  0  0  4  0  0  0  0  0  0
  -29.0800  -20.4660   17.9340 H   0  0  0  0  0  0  0  0  0  0  0  0
  -27.9220  -19.4950   18.5020 H   0  0  0  0  0  0  0  0  0  0  0  0
  -30.4940  -19.2340   21.5970 C   0  0  0  0  0  1  0  0  0  0  0  0
  -31.1290  -19.2400   19.2180 C   0  0  0  0  0  1  0  0  0  0  0  0
  -29.9130  -19.0660   20.1750 C   0  0  2  0  0  0  0  0  0  0  0  0
  -29.5490  -17.2230   20.0750 C   0  0  0  0  0  2  0  0  0  0  0  0
  -30.4200  -15.6160   20.0540 C   0  0  0  0  0  0  0  0  0  0  0  0
  -30.4970  -13.1120   19.2410 C   0  0  0  0  0  2  0  0  0  0  0  0
  -29.5550  -12.8030   18.0460 C   0  0  0  0  0  2  0  0  0  0  0  0
  -28.1440  -12.4500   18.5430 C   0  0  0  0  0  2  0  0  0  0  0  0
  -27.6700  -13.4230   19.6490 C   0  0  0  0  0  3  0  0  0  0  0  0
  -28.7460  -13.6620   20.7330 C   0  0  0  0  0  2  0  0  0  0  0  0
  -29.9270  -14.2530   20.0640 N   0  0  0  0  0  0  0  0  0  0  0  0
  -31.6400  -15.6040   19.8150 O   0  0  0  0  0  0  0  0  0  0  0  0
  -25.3290  -13.9210   20.5220 C   0  0  0  0  0  0  0  0  0  0  0  0
  -24.2900  -13.1260   20.9080 C   0  0  0  0  0  0  0  0  0  0  0  0
  -24.7670  -11.7810   20.8210 C   0  0  0  0  0  0  0  0  0  0  0  0
  -26.3710  -13.0680   20.2090 N   0  0  0  0  0  0  0  0  0  0  0  0
  -26.0460  -11.7710   20.4550 N   0  0  0  0  0  0  0  0  0  0  0  0
  -24.0570  -10.5080   21.0060 C   0  0  0  0  0  0  0  0  0  0  0  0
  -24.4960   -9.5420   21.9380 C   0  0  0  0  0  3  0  0  0  0  0  0
  -23.7820   -8.3380   22.1130 C   0  0  0  0  0  3  0  0  0  0  0  0
  -22.6140   -8.0880   21.3550 C   0  0  0  0  0  0  0  0  0  0  0  0
  -22.1920   -9.0420   20.4110 C   0  0  0  0  0  3  0  0  0  0  0  0
  -22.9060  -10.2400   20.2360 C   0  0  0  0  0  3  0  0  0  0  0  0
  -21.8750   -6.9340   21.4360 O   0  0  0  0  0  0  0  0  0  0  0  0
  -21.7840   -6.2150   22.6020 C   0  0  0  0  0  0  0  0  0  0  0  0
  -21.2240   -6.7690   23.7740 C   0  0  0  0  0  3  0  0  0  0  0  0
  -21.0850   -5.9760   24.9310 C   0  0  0  0  0  3  0  0  0  0  0  0
  -21.4970   -4.6300   24.9170 C   0  0  0  0  0  0  0  0  0  0  0  0
  -22.0510   -4.0750   23.7490 C   0  0  0  0  0  3  0  0  0  0  0  0
  -22.1890   -4.8650   22.5940 C   0  0  0  0  0  0  0  0  0  0  0  0
  -22.7030   -4.3200   21.4650 F   0  0  0  0  0  0  0  0  0  0  0  0
  -21.3560   -3.8650   26.0250 F   0  0  0  0  0  0  0  0  0  0  0  0
  -22.8990  -13.5820   21.2410 C   0  0  0  0  0  0  0  0  0  0  0  0
  -22.2030  -12.8680   22.1150 N   0  0  0  0  0  0  0  0  0  0  0  0
  -22.4340  -14.6140   20.7530 O   0  0  0  0  0  0  0  0  0  0  0  0
  -22.5870  -12.0410   22.5480 H   0  0  0  0  0  0  0  0  0  0  0  0
  -21.2680  -13.1610   22.3620 H   0  0  0  0  0  0  0  0  0  0  0  0
  -25.4740  -15.3000   20.3760 N   0  0  0  0  0  0  0  0  0  0  0  0
  -24.7110  -15.9460   20.5410 H   0  0  0  0  0  0  0  0  0  0  0  0
  -26.3170  -15.7510   20.0450 H   0  0  0  0  0  0  0  0  0  0  0  0
  -29.0250  -22.4730   20.2520 C   0  0  0  0  0  3  0  0  0  0  0  0
  -28.0110  -24.0670   20.1180 C   0  0  0  0  0  3  0  0  0  0  0  0
  -28.1800  -25.7610   20.3410 O   0  0  0  0  0  0  0  0  0  0  0  0
  -24.6000  -31.8930   23.2820 C   0  0  0  0  0  0  0  0  0  0  0  0
  -27.1800  -26.9170   20.2740 C   0  0  0  0  0  0  0  0  0  0  0  0
  -23.4260  -30.4940   21.6380 C   0  0  0  0  0  3  0  0  0  0  0  0
  -24.8830  -28.8750   20.2180 C   0  0  0  0  0  0  0  0  0  0  0  0
  -25.9960  -30.6720   21.5230 C   0  0  0  0  0  2  0  0  0  0  0  0
  -26.0720  -29.2540   20.8550 C   0  0  0  0  0  0  0  0  0  0  0  0
  -27.2040  -28.2990   20.8550 C   0  0  0  0  0  3  0  0  0  0  0  0
  -25.9560  -26.7170   19.5900 C   0  0  0  0  0  3  0  0  0  0  0  0
  -24.8620  -27.6280   19.5620 C   0  0  0  0  0  3  0  0  0  0  0  0
  -23.6650  -29.8100   20.2640 C   0  0  0  0  0  2  0  0  0  0  0  0
  -24.6950  -31.0490   22.2020 N   0  0  0  0  0  0  0  0  0  0  0  0
  -23.5020  -32.2000   23.7790 O   0  0  0  0  0  0  0  0  0  0  0  0
  -22.7120  -29.5080   22.5990 C   0  0  0  0  0  0  0  0  0  0  0  0
  -21.3850  -29.3430   22.4460 N   0  0  0  0  0  0  0  0  0  0  0  0
  -23.3610  -28.8940   23.4520 O   0  0  0  0  0  0  0  0  0  0  0  0
  -20.9220  -29.8980   21.7400 H   0  0  0  0  0  0  0  0  0  0  0  0
  -17.9870  -28.1380   22.9120 C   0  0  0  0  0  0  0  0  0  0  0  0
  -20.5460  -28.4010   23.1990 C   0  0  0  0  0  3  0  0  0  0  0  0
  -20.6480  -26.9720   22.6120 C   0  0  0  0  0  2  0  0  0  0  0  0
  -19.5540  -26.6640   21.5840 C   0  0  0  0  0  2  0  0  0  0  0  0
  -18.1690  -26.8000   22.2230 C   0  0  0  0  0  2  0  0  0  0  0  0
  -19.1020  -28.9000   23.3540 C   0  0  0  0  0  0  0  0  0  0  0  0
  -18.8750  -30.1550   23.9580 C   0  0  0  0  0  3  0  0  0  0  0  0
  -17.5660  -30.6450   24.1290 C   0  0  0  0  0  3  0  0  0  0  0  0
  -16.4660  -29.8790   23.7050 C   0  0  0  0  0  3  0  0  0  0  0  0
  -16.6780  -28.6280   23.0970 C   0  0  0  0  0  3  0  0  0  0  0  0
  -25.8560  -32.5370   23.9410 C   0  0  0  0  0  3  0  0  0  0  0  0
  -25.5470  -33.9500   24.2440 N   0  0  0  0  0  0  0  0  0  0  0  0
  -25.8900  -34.9940   23.4760 C   0  0  0  0  0  0  0  0  0  0  0  0
  -26.5550  -34.8670   22.4470 O   0  0  0  0  0  0  0  0  0  0  0  0
  -24.9340  -34.1210   25.0280 H   0  0  0  0  0  0  0  0  0  0  0  0
  -24.1680  -36.8020   23.1220 C   0  0  0  0  0  1  0  0  0  0  0  0
  -25.4250  -36.4000   23.9130 C   0  0  0  0  0  3  0  0  0  0  0  0
  -27.5830  -37.2930   24.6970 C   0  0  0  0  0  1  0  0  0  0  0  0
  -26.4700  -37.4410   23.7570 N   0  0  0  0  0  0  0  0  0  0  0  0
  -26.0770  -38.3700   23.8800 H   0  0  0  0  0  0  0  0  0  0  0  0
  -26.3190  -31.7910   25.2540 C   0  0  1  0  0  0  0  0  0  0  0  0
  -25.1810  -31.5830   26.2850 C   0  0  0  0  0  1  0  0  0  0  0  0
  -26.9070  -30.4030   24.9250 C   0  0  0  0  0  1  0  0  0  0  0  0
  -27.4680  -32.5870   25.9270 C   0  0  0  0  0  1  0  0  0  0  0  0
  1  8  1  0
  1 46  1  0
  2  3  1  0
  3  1  1  0
  4  3  1  0
  5  3  1  0
  8  7  1  6
  8  6  1  0
  9  8  1  0
 10 16  1  0
 10  9  1  0
 11 16  1  0
 12 13  1  0
 12 11  1  0
 14 13  1  0
 14 21  1  0
 14 15  1  0
 16 15  1  0
 17 10  2  0
 18 19  2  0
 19 38  1  0
 20 19  1  0
 20 23  1  0
 21 22  1  0
 21 18  1  0
 22 20  2  0
 23 24  1  0
 24 25  2  0
 26 29  1  0
 26 25  1  0
 27 26  2  0
 28 27  1  0
 28 23  2  0
 29 30  1  0
 30 31  1  0
 31 32  2  0
 33 32  1  0
 33 37  1  0
 34 33  2  0
 35 30  2  0
 35 34  1  0
 36 35  1  0
 38 39  1  0
 39 42  1  0
 39 41  1  0
 40 38  2  0
 43 18  1  0
 43 44  1  0
 45 43  1  0
 47 46  2  0
 47 48  1  0
 49 60  2  0
 50 48  1  0
 50 55  1  0
 51 59  1  0
 51 61  1  0
 52 58  1  0
 52 54  1  0
 53 59  1  0
 54 55  2  0
 54 53  1  0
 56 50  2  0
 57 56  1  0
 57 52  2  0
 58 51  1  0
 59 49  1  0
 61 63  2  0
 62 61  1  0
 64 62  1  0
 65 74  2  0
 65 70  1  0
 66 62  1  0
 66 70  1  0
 67 66  1  0
 68 69  1  0
 68 67  1  0
 69 65  1  0
 70 71  2  0
 71 72  1  0
 73 72  2  0
 74 73  1  0
 75 49  1  0
 75 76  1  0
 75 85  1  0
 76 79  1  0
 77 81  1  0
 77 76  1  0
 78 77  2  0
 81 80  1  0
 83 84  1  0
 83 81  1  0
 83 82  1  0
 85 88  1  1
 85 86  1  0
 87 85  1  0
M  ISO  4   9 100  10 100  47 101  48 101
M  END
>  <TORSDO>  (93) 
F 21

>  <SCORE>  (93) 
-16.204

>  <name>  (93) 
92

>  <ligand_id>  (93) 
92

>  <original_smiles>  (93) 
[H]c1c([H])c([H])c2c(c1[H])C([H])([H])C([H])([H])C([H])([H])C2([H])N([H])C(=O)C1([H])N(C(=O)C([H])(N([H])C(=O)C([H])(N([H])C([H])([H])[H])C([H])([H])[H])C(C([H])([H])[H])(C([H])([H])[H])C([H])([H])[H])C([H])([H])c2c([H])c(OC([H])([H])C([H])([H])C([H])(C(C([H])([H])[H])(C([H])([H])[H])C([H])([H])C(=O)N3C([H])([H])C([H])([H])C([H])([H])C([H])(n4nc(-c5c([H])c([H])c(Oc6c([H])c([H])c(F)c([H])c6F)c([H])c5[H])c(C(=O)N([H])[H])c4N([H])[H])C3([H])[H])[N+]([H])([H])C([H])([H])[H])c([H])c([H])c2C1([H])[H]

>  <smiles>  (93) 
[H]c1c([H])c([H])c2c(c1[H])C([H])([H])C([H])([H])C([H])([H])C2([H])N([H])C(=O)C1([H])N(C(=O)C([H])(N([H])C(=O)C([H])(N([H])C([H])([H])[H])C([H])([H])[H])C(C([H])([H])[H])(C([H])([H])[H])C([H])([H])[H])C([H])([H])c2c([H])c(OC([H])([H])C([H])([H])C([H])(C(C([H])([H])[H])(C([H])([H])[H])C([H])([H])C(=O)N3C([H])([H])C([H])([H])C([H])([H])C([H])(n4nc(-c5c([H])c([H])c(Oc6c([H])c([H])c(F)c([H])c6F)c([H])c5[H])c(C(=O)N([H])[H])c4N([H])[H])C3([H])[H])[N+]([H])([H])C([H])([H])[H])c([H])c([H])c2C1([H])[H]

$$$$
93:0:0
     RDKit          3D

 87 96  0  0  1  0  0  0  0  0999 V2000
  -28.1330  -17.1240   19.9900 C   0  0  0  0  0  2  0  0  0  0  0  0
  -27.5710  -18.6030   20.0040 C   0  0  0  0  0  2  0  0  0  0  0  0
  -30.1980  -20.0370   19.3140 C   0  0  0  0  0  2  0  0  0  0  0  0
  -30.0440  -21.7000   19.6420 C   0  0  0  0  0  2  0  0  0  0  0  0
  -28.1220  -21.2120   20.8720 C   0  0  0  0  0  2  0  0  0  0  0  0
  -29.6350  -17.0600   20.3500 C   0  0  0  0  0  3  0  0  0  0  0  0
  -28.4960  -19.5440   20.8140 C   0  0  0  0  0  3  0  0  0  0  0  0
  -29.8920  -18.8540   20.4220 C   0  0  0  0  0  3  0  0  0  0  0  0
  -28.6050  -22.4650   19.8940 C   0  0  0  0  0  3  0  0  0  0  0  0
  -30.4470  -15.4720   20.0650 C   0  0  0  0  0  0  0  0  0  0  0  0
  -30.4480  -12.9720   19.2380 C   0  0  0  0  0  2  0  0  0  0  0  0
  -29.4900  -12.6700   18.0500 C   0  0  0  0  0  2  0  0  0  0  0  0
  -28.0640  -12.3870   18.5450 C   0  0  0  0  0  2  0  0  0  0  0  0
  -27.6260  -13.3880   19.6400 C   0  0  0  0  0  3  0  0  0  0  0  0
  -28.7050  -13.6100   20.7240 C   0  0  0  0  0  2  0  0  0  0  0  0
  -29.9170  -14.1320   20.0620 N   0  0  0  0  0  0  0  0  0  0  0  0
  -31.6500  -15.4510   19.7550 O   0  0  0  0  0  0  0  0  0  0  0  0
  -25.2900  -13.9400   20.5030 C   0  0  0  0  0  0  0  0  0  0  0  0
  -24.2410  -13.1650   20.9050 C   0  0  0  0  0  0  0  0  0  0  0  0
  -24.6970  -11.8140   20.8320 C   0  0  0  0  0  0  0  0  0  0  0  0
  -26.3190  -13.0670   20.2030 N   0  0  0  0  0  0  0  0  0  0  0  0
  -25.9770  -11.7790   20.4670 N   0  0  0  0  0  0  0  0  0  0  0  0
  -23.9660  -10.5570   21.0270 C   0  0  0  0  0  0  0  0  0  0  0  0
  -24.4150   -9.5710   21.9330 C   0  0  0  0  0  3  0  0  0  0  0  0
  -23.6790   -8.3810   22.1170 C   0  0  0  0  0  3  0  0  0  0  0  0
  -22.4800   -8.1680   21.3950 C   0  0  0  0  0  0  0  0  0  0  0  0
  -22.0490   -9.1420   20.4780 C   0  0  0  0  0  3  0  0  0  0  0  0
  -22.7850  -10.3250   20.2910 C   0  0  0  0  0  3  0  0  0  0  0  0
  -21.7130   -7.0310   21.4910 O   0  0  0  0  0  0  0  0  0  0  0  0
  -21.6780   -6.2830   22.6410 C   0  0  0  0  0  0  0  0  0  0  0  0
  -21.2580   -6.8300   23.8720 C   0  0  0  0  0  3  0  0  0  0  0  0
  -21.1690   -6.0090   25.0130 C   0  0  0  0  0  3  0  0  0  0  0  0
  -21.4890   -4.6410   24.9230 C   0  0  0  0  0  0  0  0  0  0  0  0
  -21.9020   -4.0920   23.6970 C   0  0  0  0  0  3  0  0  0  0  0  0
  -21.9940   -4.9120   22.5570 C   0  0  0  0  0  0  0  0  0  0  0  0
  -22.3710   -4.3750   21.3710 F   0  0  0  0  0  0  0  0  0  0  0  0
  -21.3990   -3.8480   26.0170 F   0  0  0  0  0  0  0  0  0  0  0  0
  -22.8620  -13.6520   21.2400 C   0  0  0  0  0  0  0  0  0  0  0  0
  -22.1680  -12.9540   22.1280 N   0  0  0  0  0  0  0  0  0  0  0  0
  -22.4160  -14.6910   20.7530 O   0  0  0  0  0  0  0  0  0  0  0  0
  -22.5480  -12.1150   22.5400 H   0  0  0  0  0  0  0  0  0  0  0  0
  -21.2470  -13.2630   22.4050 H   0  0  0  0  0  0  0  0  0  0  0  0
  -25.4380  -15.3080   20.3350 N   0  0  0  0  0  0  0  0  0  0  0  0
  -24.6790  -15.9600   20.4950 H   0  0  0  0  0  0  0  0  0  0  0  0
  -26.2740  -15.7530   19.9800 H   0  0  0  0  0  0  0  0  0  0  0  0
  -28.1830  -24.2250   20.3340 C   0  0  0  0  0  2  0  0  0  0  0  0
  -28.2630  -25.8340   19.8540 O   0  0  0  0  0  0  0  0  0  0  0  0
  -24.5720  -31.7500   22.9780 C   0  0  0  0  0  0  0  0  0  0  0  0
  -27.2180  -26.9240   19.8970 C   0  0  0  0  0  0  0  0  0  0  0  0
  -23.4050  -30.3640   21.3160 C   0  0  0  0  0  3  0  0  0  0  0  0
  -24.8840  -28.7930   19.8780 C   0  0  0  0  0  0  0  0  0  0  0  0
  -25.9700  -30.6110   21.1730 C   0  0  0  0  0  2  0  0  0  0  0  0
  -26.0690  -29.2050   20.5000 C   0  0  0  0  0  0  0  0  0  0  0  0
  -27.2300  -28.2970   20.4760 C   0  0  0  0  0  3  0  0  0  0  0  0
  -25.9950  -26.6740   19.2350 C   0  0  0  0  0  3  0  0  0  0  0  0
  -24.8730  -27.5510   19.2220 C   0  0  0  0  0  3  0  0  0  0  0  0
  -23.6500  -29.6990   19.9320 C   0  0  0  0  0  2  0  0  0  0  0  0
  -24.6720  -30.9360   21.8770 N   0  0  0  0  0  0  0  0  0  0  0  0
  -23.4780  -32.0120   23.5030 O   0  0  0  0  0  0  0  0  0  0  0  0
  -22.7200  -29.3460   22.2650 C   0  0  0  0  0  0  0  0  0  0  0  0
  -21.3870  -29.1860   22.1560 N   0  0  0  0  0  0  0  0  0  0  0  0
  -23.3950  -28.6990   23.0690 O   0  0  0  0  0  0  0  0  0  0  0  0
  -20.8910  -29.7580   21.4860 H   0  0  0  0  0  0  0  0  0  0  0  0
  -18.0100  -27.9760   22.7100 C   0  0  0  0  0  0  0  0  0  0  0  0
  -20.5790  -28.2230   22.9110 C   0  0  0  0  0  3  0  0  0  0  0  0
  -20.6560  -26.8120   22.2820 C   0  0  0  0  0  2  0  0  0  0  0  0
  -19.5270  -26.5310   21.2860 C   0  0  0  0  0  2  0  0  0  0  0  0
  -18.1630  -26.6560   21.9730 C   0  0  0  0  0  2  0  0  0  0  0  0
  -19.1440  -28.7180   23.1370 C   0  0  0  0  0  0  0  0  0  0  0  0
  -18.9460  -29.9510   23.7940 C   0  0  0  0  0  3  0  0  0  0  0  0
  -17.6490  -30.4460   24.0220 C   0  0  0  0  0  3  0  0  0  0  0  0
  -16.5300  -29.7010   23.6090 C   0  0  0  0  0  3  0  0  0  0  0  0
  -16.7120  -28.4670   22.9590 C   0  0  0  0  0  3  0  0  0  0  0  0
  -25.8300  -32.4070   23.6250 C   0  0  0  0  0  3  0  0  0  0  0  0
  -25.4740  -33.7830   24.0180 N   0  0  0  0  0  0  0  0  0  0  0  0
  -25.7700  -34.8840   23.3150 C   0  0  0  0  0  0  0  0  0  0  0  0
  -26.4320  -34.8500   22.2740 O   0  0  0  0  0  0  0  0  0  0  0  0
  -24.8830  -33.8780   24.8310 H   0  0  0  0  0  0  0  0  0  0  0  0
  -24.0000  -36.6580   23.0680 C   0  0  0  0  0  1  0  0  0  0  0  0
  -25.2550  -36.2370   23.8470 C   0  0  0  0  0  3  0  0  0  0  0  0
  -27.3710  -37.1410   24.7120 C   0  0  0  0  0  1  0  0  0  0  0  0
  -26.2620  -37.3210   23.7780 N   0  0  0  0  0  0  0  0  0  0  0  0
  -25.8330  -38.2230   23.9660 H   0  0  0  0  0  0  0  0  0  0  0  0
  -26.3640  -31.6090   24.8790 C   0  0  1  0  0  0  0  0  0  0  0  0
  -25.2800  -31.3180   25.9450 C   0  0  0  0  0  1  0  0  0  0  0  0
  -26.9740  -30.2550   24.4510 C   0  0  0  0  0  1  0  0  0  0  0  0
  -27.5010  -32.4050   25.5620 C   0  0  0  0  0  1  0  0  0  0  0  0
  1  2  1  0
  1  6  1  0
  3  4  1  0
  4  9  1  0
  6 10  1  0
  6  8  1  0
  7  2  1  0
  7  5  1  0
  8  3  1  0
  8  7  1  0
  9 46  1  0
  9  5  1  0
 11 16  1  0
 12 13  1  0
 12 11  1  0
 14 13  1  0
 14 21  1  0
 14 15  1  0
 16 10  1  0
 16 15  1  0
 17 10  2  0
 18 19  2  0
 19 38  1  0
 20 19  1  0
 20 23  1  0
 21 22  1  0
 21 18  1  0
 22 20  2  0
 23 24  1  0
 24 25  2  0
 26 29  1  0
 26 25  1  0
 27 26  2  0
 28 27  1  0
 28 23  2  0
 29 30  1  0
 30 31  1  0
 31 32  2  0
 33 32  1  0
 33 37  1  0
 34 33  2  0
 35 30  2  0
 35 34  1  0
 36 35  1  0
 38 39  1  0
 39 42  1  0
 39 41  1  0
 40 38  2  0
 43 44  1  0
 43 18  1  0
 45 43  1  0
 47 49  1  0
 47 46  1  0
 48 59  2  0
 49 54  1  0
 50 58  1  0
 50 60  1  0
 51 57  1  0
 51 53  1  0
 52 58  1  0
 53 52  1  0
 54 53  2  0
 55 49  2  0
 56 55  1  0
 56 51  2  0
 57 50  1  0
 58 48  1  0
 60 62  2  0
 61 60  1  0
 63 61  1  0
 64 73  2  0
 64 69  1  0
 65 61  1  0
 65 69  1  0
 66 65  1  0
 67 68  1  0
 67 66  1  0
 68 64  1  0
 69 70  2  0
 70 71  1  0
 72 71  2  0
 73 72  1  0
 74 48  1  0
 74 75  1  0
 74 84  1  0
 75 78  1  0
 76 80  1  0
 76 75  1  0
 77 76  2  0
 80 79  1  0
 82 80  1  0
 82 83  1  0
 82 81  1  0
 84 87  1  1
 84 85  1  0
 86 84  1  0
M  ISO  4   6 100  10 100  46 101  47 101
M  END
>  <TORSDO>  (94) 
F 17

>  <SCORE>  (94) 
-16.498

>  <name>  (94) 
93

>  <ligand_id>  (94) 
93

>  <original_smiles>  (94) 
[H]c1c([H])c([H])c2c(c1[H])C([H])([H])C([H])([H])C([H])([H])C2([H])N([H])C(=O)C1([H])N(C(=O)C([H])(N([H])C(=O)C([H])(N([H])C([H])([H])[H])C([H])([H])[H])C(C([H])([H])[H])(C([H])([H])[H])C([H])([H])[H])C([H])([H])c2c([H])c(OC([H])([H])C3([H])C([H])([H])C([H])([H])C4([H])C([H])(C(=O)N5C([H])([H])C([H])([H])C([H])([H])C([H])(n6nc(-c7c([H])c([H])c(Oc8c([H])c([H])c(F)c([H])c8F)c([H])c7[H])c(C(=O)N([H])[H])c6N([H])[H])C5([H])[H])C([H])([H])C([H])([H])C4([H])C3([H])[H])c([H])c([H])c2C1([H])[H]

>  <smiles>  (94) 
[H]c1c([H])c([H])c2c(c1[H])C([H])([H])C([H])([H])C([H])([H])C2([H])N([H])C(=O)C1([H])N(C(=O)C([H])(N([H])C(=O)C([H])(N([H])C([H])([H])[H])C([H])([H])[H])C(C([H])([H])[H])(C([H])([H])[H])C([H])([H])[H])C([H])([H])c2c([H])c(OC([H])([H])C3([H])C([H])([H])C([H])([H])C4([H])C([H])(C(=O)N5C([H])([H])C([H])([H])C([H])([H])C([H])(n6nc(-c7c([H])c([H])c(Oc8c([H])c([H])c(F)c([H])c8F)c([H])c7[H])c(C(=O)N([H])[H])c6N([H])[H])C5([H])[H])C([H])([H])C([H])([H])C4([H])C3([H])[H])c([H])c([H])c2C1([H])[H]

$$$$
94:0:0
     RDKit          3D

 87 96  0  0  1  0  0  0  0  0999 V2000
  -31.0750  -18.2800   22.2110 C   0  0  0  0  0  2  0  0  0  0  0  0
  -29.9240  -17.3140   21.8450 C   0  0  0  0  0  2  0  0  0  0  0  0
  -28.6870  -21.6620   21.2840 C   0  0  0  0  0  2  0  0  0  0  0  0
  -31.1530  -19.3960   21.1490 C   0  0  0  0  0  2  0  0  0  0  0  0
  -28.7290  -20.0330   21.2170 C   0  0  0  0  0  2  0  0  0  0  0  0
  -29.6440  -20.8060   19.3650 C   0  0  0  0  0  2  0  0  0  0  0  0
  -29.7590  -17.3690   20.3080 C   0  0  0  0  0  3  0  0  0  0  0  0
  -29.3450  -22.4370   20.0870 C   0  0  0  0  0  3  0  0  0  0  0  0
  -29.8610  -19.3060   20.3380 C   0  0  1  0  0  0  0  0  0  0  0  0
  -30.6150  -15.7550   19.9760 C   0  0  0  0  0  0  0  0  0  0  0  0
  -30.7460  -13.1820   19.2890 C   0  0  0  0  0  2  0  0  0  0  0  0
  -29.8420  -12.7790   18.0890 C   0  0  0  0  0  2  0  0  0  0  0  0
  -28.4110  -12.4620   18.5530 C   0  0  0  0  0  2  0  0  0  0  0  0
  -27.9150  -13.4990   19.5850 C   0  0  0  0  0  3  0  0  0  0  0  0
  -28.9490  -13.8170   20.6870 C   0  0  0  0  0  2  0  0  0  0  0  0
  -30.1450  -14.3780   20.0250 N   0  0  0  0  0  0  0  0  0  0  0  0
  -31.8200  -15.7350   19.6650 O   0  0  0  0  0  0  0  0  0  0  0  0
  -25.5700  -14.0630   20.3950 C   0  0  0  0  0  0  0  0  0  0  0  0
  -24.5090  -13.2950   20.7790 C   0  0  0  0  0  0  0  0  0  0  0  0
  -24.9600  -11.9400   20.7300 C   0  0  0  0  0  0  0  0  0  0  0  0
  -26.5990  -13.1800   20.1230 N   0  0  0  0  0  0  0  0  0  0  0  0
  -26.2470  -11.8950   20.3930 N   0  0  0  0  0  0  0  0  0  0  0  0
  -24.2210  -10.6860   20.9280 C   0  0  0  0  0  0  0  0  0  0  0  0
  -24.6270   -9.7270   21.8810 C   0  0  0  0  0  3  0  0  0  0  0  0
  -23.8840   -8.5410   22.0670 C   0  0  0  0  0  3  0  0  0  0  0  0
  -22.7190   -8.3050   21.2990 C   0  0  0  0  0  0  0  0  0  0  0  0
  -22.3310   -9.2520   20.3350 C   0  0  0  0  0  3  0  0  0  0  0  0
  -23.0740  -10.4290   20.1480 C   0  0  0  0  0  3  0  0  0  0  0  0
  -21.9510   -7.1690   21.3930 O   0  0  0  0  0  0  0  0  0  0  0  0
  -21.8380   -6.4700   22.5690 C   0  0  0  0  0  0  0  0  0  0  0  0
  -21.3390   -7.0680   23.7460 C   0  0  0  0  0  3  0  0  0  0  0  0
  -21.1740   -6.2950   24.9130 C   0  0  0  0  0  3  0  0  0  0  0  0
  -21.5000   -4.9260   24.9030 C   0  0  0  0  0  0  0  0  0  0  0  0
  -21.9930   -4.3280   23.7300 C   0  0  0  0  0  3  0  0  0  0  0  0
  -22.1580   -5.0980   22.5650 C   0  0  0  0  0  0  0  0  0  0  0  0
  -22.6130   -4.5110   21.4320 F   0  0  0  0  0  0  0  0  0  0  0  0
  -21.3360   -4.1820   26.0210 F   0  0  0  0  0  0  0  0  0  0  0  0
  -23.1220  -13.7870   21.0730 C   0  0  0  0  0  0  0  0  0  0  0  0
  -22.4020  -13.1030   21.9530 N   0  0  0  0  0  0  0  0  0  0  0  0
  -22.6880  -14.8170   20.5570 O   0  0  0  0  0  0  0  0  0  0  0  0
  -22.7680  -12.2700   22.3920 H   0  0  0  0  0  0  0  0  0  0  0  0
  -21.4720  -13.4150   22.1940 H   0  0  0  0  0  0  0  0  0  0  0  0
  -25.7450  -15.4340   20.2230 N   0  0  0  0  0  0  0  0  0  0  0  0
  -24.9870  -16.0950   20.3590 H   0  0  0  0  0  0  0  0  0  0  0  0
  -26.5920  -15.8680   19.8810 H   0  0  0  0  0  0  0  0  0  0  0  0
  -28.6520  -24.1600   19.5990 C   0  0  0  0  0  2  0  0  0  0  0  0
  -28.6950  -25.8390   20.0350 O   0  0  0  0  0  0  0  0  0  0  0  0
  -24.8320  -31.7090   23.1880 C   0  0  0  0  0  0  0  0  0  0  0  0
  -27.6780  -26.9920   19.9770 C   0  0  0  0  0  0  0  0  0  0  0  0
  -23.7660  -30.3900   21.4070 C   0  0  0  0  0  3  0  0  0  0  0  0
  -25.3330  -28.9050   19.9490 C   0  0  0  0  0  0  0  0  0  0  0  0
  -26.3370  -30.6450   21.4080 C   0  0  0  0  0  2  0  0  0  0  0  0
  -26.4820  -29.2700   20.6600 C   0  0  0  0  0  0  0  0  0  0  0  0
  -27.6400  -28.3400   20.6460 C   0  0  0  0  0  3  0  0  0  0  0  0
  -26.4920  -26.8240   19.2190 C   0  0  0  0  0  3  0  0  0  0  0  0
  -25.3730  -27.7100   19.2100 C   0  0  0  0  0  3  0  0  0  0  0  0
  -24.0880  -29.8010   20.0020 C   0  0  0  0  0  2  0  0  0  0  0  0
  -24.9980  -30.9440   22.0570 N   0  0  0  0  0  0  0  0  0  0  0  0
  -23.7100  -31.9350   23.6700 O   0  0  0  0  0  0  0  0  0  0  0  0
  -23.0490  -29.3220   22.2750 C   0  0  0  0  0  0  0  0  0  0  0  0
  -21.7200  -29.1700   22.1190 N   0  0  0  0  0  0  0  0  0  0  0  0
  -23.7010  -28.6290   23.0610 O   0  0  0  0  0  0  0  0  0  0  0  0
  -21.2460  -29.7810   21.4690 H   0  0  0  0  0  0  0  0  0  0  0  0
  -18.3220  -27.9560   22.5440 C   0  0  0  0  0  0  0  0  0  0  0  0
  -20.8910  -28.1630   22.7940 C   0  0  0  0  0  3  0  0  0  0  0  0
  -20.9630  -26.8030   22.0610 C   0  0  0  0  0  2  0  0  0  0  0  0
  -19.8430  -26.6100   21.0330 C   0  0  0  0  0  2  0  0  0  0  0  0
  -18.4730  -26.6940   21.7110 C   0  0  0  0  0  2  0  0  0  0  0  0
  -19.4570  -28.6550   23.0380 C   0  0  0  0  0  0  0  0  0  0  0  0
  -19.2600  -29.8380   23.7820 C   0  0  0  0  0  3  0  0  0  0  0  0
  -17.9620  -30.3230   24.0320 C   0  0  0  0  0  3  0  0  0  0  0  0
  -16.8430  -29.6220   23.5510 C   0  0  0  0  0  3  0  0  0  0  0  0
  -17.0250  -28.4390   22.8120 C   0  0  0  0  0  3  0  0  0  0  0  0
  -26.0450  -32.3530   23.9270 C   0  0  0  0  0  3  0  0  0  0  0  0
  -25.6670  -33.7240   24.3200 N   0  0  0  0  0  0  0  0  0  0  0  0
  -25.9810  -34.8370   23.6400 C   0  0  0  0  0  0  0  0  0  0  0  0
  -26.6760  -34.8170   22.6210 O   0  0  0  0  0  0  0  0  0  0  0  0
  -25.0490  -33.8090   25.1130 H   0  0  0  0  0  0  0  0  0  0  0  0
  -24.1860  -36.5870   23.3820 C   0  0  0  0  0  1  0  0  0  0  0  0
  -25.4410  -36.1820   24.1720 C   0  0  0  0  0  3  0  0  0  0  0  0
  -27.5340  -37.1130   25.0610 C   0  0  0  0  0  1  0  0  0  0  0  0
  -26.4330  -37.2790   24.1160 N   0  0  0  0  0  0  0  0  0  0  0  0
  -25.9900  -38.1750   24.3010 H   0  0  0  0  0  0  0  0  0  0  0  0
  -26.4970  -31.5370   25.2010 C   0  0  1  0  0  0  0  0  0  0  0  0
  -25.3450  -31.2300   26.1880 C   0  0  0  0  0  1  0  0  0  0  0  0
  -27.1350  -30.1880   24.7980 C   0  0  0  0  0  1  0  0  0  0  0  0
  -27.5860  -32.3220   25.9690 C   0  0  0  0  0  1  0  0  0  0  0  0
  2  1  1  0
  4  1  1  0
  5  3  1  0
  6  8  1  0
  7 10  1  0
  7  9  1  0
  7  2  1  0
  8 46  1  0
  8  3  1  0
  9  6  1  6
  9  4  1  0
  9  5  1  0
 10 16  1  0
 11 16  1  0
 12 13  1  0
 12 11  1  0
 14 13  1  0
 14 21  1  0
 14 15  1  0
 16 15  1  0
 17 10  2  0
 18 19  2  0
 19 38  1  0
 20 19  1  0
 20 23  1  0
 21 22  1  0
 21 18  1  0
 22 20  2  0
 23 24  1  0
 24 25  2  0
 26 29  1  0
 26 25  1  0
 27 26  2  0
 28 27  1  0
 28 23  2  0
 29 30  1  0
 30 31  1  0
 31 32  2  0
 33 32  1  0
 33 37  1  0
 34 33  2  0
 35 30  2  0
 35 34  1  0
 36 35  1  0
 38 39  1  0
 39 42  1  0
 39 41  1  0
 40 38  2  0
 43 44  1  0
 43 18  1  0
 45 43  1  0
 46 47  1  0
 48 59  2  0
 49 47  1  0
 49 54  1  0
 50 58  1  0
 50 60  1  0
 51 57  1  0
 51 53  1  0
 52 58  1  0
 53 52  1  0
 54 53  2  0
 55 49  2  0
 56 55  1  0
 56 51  2  0
 57 50  1  0
 58 48  1  0
 60 62  2  0
 61 60  1  0
 63 61  1  0
 64 73  2  0
 64 69  1  0
 65 61  1  0
 65 69  1  0
 66 65  1  0
 67 68  1  0
 67 66  1  0
 68 64  1  0
 69 70  2  0
 70 71  1  0
 72 71  2  0
 73 72  1  0
 74 48  1  0
 74 75  1  0
 74 84  1  0
 75 78  1  0
 76 80  1  0
 76 75  1  0
 77 76  2  0
 80 79  1  0
 82 80  1  0
 82 83  1  0
 82 81  1  0
 84 87  1  1
 84 85  1  0
 86 84  1  0
M  ISO  4   7 100  10 100  46 101  47 101
M  END
>  <TORSDO>  (95) 
F 17

>  <SCORE>  (95) 
-15.626

>  <name>  (95) 
94

>  <ligand_id>  (95) 
94

>  <original_smiles>  (95) 
[H]c1c([H])c([H])c2c(c1[H])C([H])([H])C([H])([H])C([H])([H])C2([H])N([H])C(=O)C1([H])N(C(=O)C([H])(N([H])C(=O)C([H])(N([H])C([H])([H])[H])C([H])([H])[H])C(C([H])([H])[H])(C([H])([H])[H])C([H])([H])[H])C([H])([H])c2c([H])c(OC([H])([H])C3([H])C([H])([H])C([H])([H])C4(C([H])([H])C([H])([H])C([H])([H])C4([H])C(=O)N4C([H])([H])C([H])([H])C([H])([H])C([H])(n5nc(-c6c([H])c([H])c(Oc7c([H])c([H])c(F)c([H])c7F)c([H])c6[H])c(C(=O)N([H])[H])c5N([H])[H])C4([H])[H])C3([H])[H])c([H])c([H])c2C1([H])[H]

>  <smiles>  (95) 
[H]c1c([H])c([H])c2c(c1[H])C([H])([H])C([H])([H])C([H])([H])C2([H])N([H])C(=O)C1([H])N(C(=O)C([H])(N([H])C(=O)C([H])(N([H])C([H])([H])[H])C([H])([H])[H])C(C([H])([H])[H])(C([H])([H])[H])C([H])([H])[H])C([H])([H])c2c([H])c(OC([H])([H])C3([H])C([H])([H])C([H])([H])C4(C([H])([H])C([H])([H])C([H])([H])C4([H])C(=O)N4C([H])([H])C([H])([H])C([H])([H])C([H])(n5nc(-c6c([H])c([H])c(Oc7c([H])c([H])c(F)c([H])c7F)c([H])c6[H])c(C(=O)N([H])[H])c5N([H])[H])C4([H])[H])C3([H])[H])c([H])c([H])c2C1([H])[H]

$$$$
95:0:0
     RDKit          3D

 91100  0  0  1  0  0  0  0  0999 V2000
  -28.2570  -17.1940   20.7550 C   0  0  0  0  0  2  0  0  0  0  0  0
  -28.7860  -16.2570   19.6670 C   0  0  0  0  0  2  0  0  0  0  0  0
  -27.8800  -18.4860   20.0910 C   0  0  0  0  0  2  0  0  0  0  0  0
  -30.0140  -19.0940   17.1650 C   0  0  0  0  0  2  0  0  0  0  0  0
  -30.0880  -18.1940   18.5950 C   0  0  0  0  0  3  0  0  0  0  0  0
  -29.1100  -20.5530   17.1030 C   0  0  0  0  0  3  0  0  0  0  0  0
  -28.3720  -20.3490   18.4250 C   0  0  0  0  0  3  0  0  0  0  0  0
  -30.2420  -16.4680   19.2370 C   0  0  1  0  0  0  0  0  0  0  0  0
  -29.0450  -19.2030   19.3580 C   0  0  1  0  0  0  0  0  0  0  0  0
  -26.8570  -20.2410   18.1040 C   0  0  0  0  0  1  0  0  0  0  0  0
  -31.1610  -16.6760   20.4790 C   0  0  0  0  0  1  0  0  0  0  0  0
  -29.8220  -20.0260   20.4200 C   0  0  0  0  0  1  0  0  0  0  0  0
  -30.9460  -14.8700   18.9000 C   0  0  0  0  0  0  0  0  0  0  0  0
  -30.9080  -12.2780   18.5620 C   0  0  0  0  0  2  0  0  0  0  0  0
  -29.8250  -11.8280   17.5410 C   0  0  0  0  0  2  0  0  0  0  0  0
  -28.4280  -11.7100   18.1880 C   0  0  0  0  0  2  0  0  0  0  0  0
  -28.1390  -12.9030   19.1270 C   0  0  0  0  0  3  0  0  0  0  0  0
  -29.3380  -13.1160   20.0900 C   0  0  0  0  0  2  0  0  0  0  0  0
  -30.4670  -13.5570   19.2350 N   0  0  0  0  0  0  0  0  0  0  0  0
  -32.0620  -14.8090   18.3580 O   0  0  0  0  0  0  0  0  0  0  0  0
  -25.9890  -13.8090   20.2010 C   0  0  0  0  0  0  0  0  0  0  0  0
  -24.8890  -13.1910   20.7190 C   0  0  0  0  0  0  0  0  0  0  0  0
  -25.1260  -11.7910   20.5750 C   0  0  0  0  0  0  0  0  0  0  0  0
  -26.8510  -12.7960   19.8040 N   0  0  0  0  0  0  0  0  0  0  0  0
  -26.3390  -11.5710   20.0790 N   0  0  0  0  0  0  0  0  0  0  0  0
  -24.2410  -10.6510   20.8230 C   0  0  0  0  0  0  0  0  0  0  0  0
  -24.6380   -9.5740   21.6450 C   0  0  0  0  0  3  0  0  0  0  0  0
  -23.7600   -8.4960   21.8840 C   0  0  0  0  0  3  0  0  0  0  0  0
  -22.4690   -8.4900   21.3020 C   0  0  0  0  0  0  0  0  0  0  0  0
  -22.0860   -9.5550   20.4680 C   0  0  0  0  0  3  0  0  0  0  0  0
  -22.9650  -10.6240   20.2260 C   0  0  0  0  0  3  0  0  0  0  0  0
  -21.5580   -7.4740   21.4610 O   0  0  0  0  0  0  0  0  0  0  0  0
  -21.5650   -6.6680   22.5710 C   0  0  0  0  0  0  0  0  0  0  0  0
  -21.3910   -7.1880   23.8720 C   0  0  0  0  0  3  0  0  0  0  0  0
  -21.3350   -6.3170   24.9770 C   0  0  0  0  0  3  0  0  0  0  0  0
  -21.4470   -4.9270   24.7840 C   0  0  0  0  0  0  0  0  0  0  0  0
  -21.6160   -4.4060   23.4890 C   0  0  0  0  0  3  0  0  0  0  0  0
  -21.6720   -5.2740   22.3850 C   0  0  0  0  0  0  0  0  0  0  0  0
  -21.8150   -4.7670   21.1370 F   0  0  0  0  0  0  0  0  0  0  0  0
  -21.3840   -4.0880   25.8440 F   0  0  0  0  0  0  0  0  0  0  0  0
  -23.6420  -13.8630   21.2190 C   0  0  0  0  0  0  0  0  0  0  0  0
  -22.9540  -13.2430   22.1710 N   0  0  0  0  0  0  0  0  0  0  0  0
  -23.3000  -14.9710   20.8040 O   0  0  0  0  0  0  0  0  0  0  0  0
  -23.2470  -12.3430   22.5230 H   0  0  0  0  0  0  0  0  0  0  0  0
  -22.1210  -13.6710   22.5490 H   0  0  0  0  0  0  0  0  0  0  0  0
  -26.2920  -15.1500   20.0030 N   0  0  0  0  0  0  0  0  0  0  0  0
  -25.6400  -15.8850   20.2460 H   0  0  0  0  0  0  0  0  0  0  0  0
  -27.1440  -15.4940   19.5860 H   0  0  0  0  0  0  0  0  0  0  0  0
  -29.4170  -22.2450   16.7040 C   0  0  0  0  0  2  0  0  0  0  0  0
  -28.4130  -23.6910   16.8670 C   0  0  0  0  0  2  0  0  0  0  0  0
  -28.7320  -25.2490   17.1770 O   0  0  0  0  0  0  0  0  0  0  0  0
  -25.8010  -29.3670   22.7260 C   0  0  0  0  0  0  0  0  0  0  0  0
  -27.7780  -26.2550   17.6820 C   0  0  0  0  0  0  0  0  0  0  0  0
  -24.3990  -28.8950   20.7570 C   0  0  0  0  0  3  0  0  0  0  0  0
  -25.6230  -28.0150   18.6600 C   0  0  0  0  0  0  0  0  0  0  0  0
  -26.9580  -29.0380   20.4930 C   0  0  0  0  0  2  0  0  0  0  0  0
  -26.8730  -28.0660   19.2870 C   0  0  0  0  0  0  0  0  0  0  0  0
  -27.9470  -27.2120   18.7860 C   0  0  0  0  0  3  0  0  0  0  0  0
  -26.5010  -26.3360   17.0840 C   0  0  0  0  0  3  0  0  0  0  0  0
  -25.4550  -27.1720   17.5510 C   0  0  0  0  0  3  0  0  0  0  0  0
  -24.4880  -28.8750   19.2060 C   0  0  0  0  0  2  0  0  0  0  0  0
  -25.7460  -29.0980   21.3820 N   0  0  0  0  0  0  0  0  0  0  0  0
  -24.7720  -29.4490   23.4160 O   0  0  0  0  0  0  0  0  0  0  0  0
  -23.6820  -27.6110   21.2490 C   0  0  0  0  0  0  0  0  0  0  0  0
  -22.3440  -27.5560   21.1130 N   0  0  0  0  0  0  0  0  0  0  0  0
  -24.3350  -26.6800   21.7250 O   0  0  0  0  0  0  0  0  0  0  0  0
  -21.8730  -28.3610   20.7240 H   0  0  0  0  0  0  0  0  0  0  0  0
  -18.9300  -26.3300   21.1300 C   0  0  0  0  0  0  0  0  0  0  0  0
  -21.4960  -26.4110   21.4580 C   0  0  0  0  0  3  0  0  0  0  0  0
  -21.5620  -25.3200   20.3650 C   0  0  0  0  0  2  0  0  0  0  0  0
  -20.4560  -25.4480   19.3130 C   0  0  0  0  0  2  0  0  0  0  0  0
  -19.0780  -25.3500   19.9770 C   0  0  0  0  0  2  0  0  0  0  0  0
  -20.0660  -26.8390   21.8140 C   0  0  0  0  0  0  0  0  0  0  0  0
  -19.8750  -27.7640   22.8640 C   0  0  0  0  0  3  0  0  0  0  0  0
  -18.5830  -28.1810   23.2290 C   0  0  0  0  0  3  0  0  0  0  0  0
  -17.4610  -27.6660   22.5560 C   0  0  0  0  0  3  0  0  0  0  0  0
  -17.6350  -26.7410   21.5110 C   0  0  0  0  0  3  0  0  0  0  0  0
  -27.1570  -29.5990   23.4580 C   0  0  0  0  0  3  0  0  0  0  0  0
  -26.9480  -30.6400   24.4800 N   0  0  0  0  0  0  0  0  0  0  0  0
  -27.3240  -31.9200   24.3580 C   0  0  0  0  0  0  0  0  0  0  0  0
  -27.9450  -32.3400   23.3780 O   0  0  0  0  0  0  0  0  0  0  0  0
  -26.3960  -30.3780   25.2830 H   0  0  0  0  0  0  0  0  0  0  0  0
  -25.7200  -33.7140   25.1000 C   0  0  0  0  0  1  0  0  0  0  0  0
  -26.9530  -32.8880   25.5010 C   0  0  0  0  0  3  0  0  0  0  0  0
  -29.1660  -33.1160   26.5410 C   0  0  0  0  0  1  0  0  0  0  0  0
  -28.0560  -33.7980   25.8830 N   0  0  0  0  0  0  0  0  0  0  0  0
  -27.7220  -34.5310   26.5040 H   0  0  0  0  0  0  0  0  0  0  0  0
  -27.7310  -28.2880   24.1270 C   0  0  1  0  0  0  0  0  0  0  0  0
  -26.7180  -27.5610   25.0430 C   0  0  0  0  0  1  0  0  0  0  0  0
  -28.1980  -27.2790   23.0550 C   0  0  0  0  0  1  0  0  0  0  0  0
  -28.9790  -28.6360   24.9730 C   0  0  0  0  0  1  0  0  0  0  0  0
  2  1  1  0
  3  1  1  0
  5  4  1  0
  5  8  1  0
  5  9  1  0
  6 49  1  0
  6  4  1  0
  6  7  1  0
  7 10  1  0
  7  9  1  0
  8  2  1  0
  8 11  1  1
  9  3  1  0
  9 12  1  1
 13 19  1  0
 13  8  1  0
 14 19  1  0
 15 16  1  0
 15 14  1  0
 17 16  1  0
 17 24  1  0
 17 18  1  0
 19 18  1  0
 20 13  2  0
 21 22  2  0
 22 41  1  0
 23 22  1  0
 23 26  1  0
 24 25  1  0
 24 21  1  0
 25 23  2  0
 26 27  1  0
 27 28  2  0
 29 32  1  0
 29 28  1  0
 30 29  2  0
 31 30  1  0
 31 26  2  0
 32 33  1  0
 33 34  1  0
 34 35  2  0
 36 35  1  0
 36 40  1  0
 37 36  2  0
 38 33  2  0
 38 37  1  0
 39 38  1  0
 41 42  1  0
 42 44  1  0
 42 45  1  0
 43 41  2  0
 46 21  1  0
 46 47  1  0
 48 46  1  0
 49 50  1  0
 50 51  1  0
 51 53  1  0
 52 63  2  0
 53 58  1  0
 54 64  1  0
 54 62  1  0
 55 61  1  0
 55 57  1  0
 56 62  1  0
 57 56  1  0
 58 57  2  0
 59 60  1  0
 59 53  2  0
 60 55  2  0
 61 54  1  0
 62 52  1  0
 64 66  2  0
 65 64  1  0
 67 65  1  0
 68 77  2  0
 68 73  1  0
 69 65  1  0
 69 73  1  0
 70 69  1  0
 71 72  1  0
 71 70  1  0
 72 68  1  0
 73 74  2  0
 74 75  1  0
 76 75  2  0
 77 76  1  0
 78 52  1  0
 78 88  1  0
 78 79  1  0
 79 82  1  0
 80 79  1  0
 80 84  1  0
 81 80  2  0
 84 83  1  0
 84 86  1  0
 86 87  1  0
 86 85  1  0
 88 91  1  1
 88 89  1  0
 90 88  1  0
M  ISO  4   8 100  13 100  50 101  51 101
M  END
>  <TORSDO>  (96) 
F 18

>  <SCORE>  (96) 
-11.532

>  <name>  (96) 
95

>  <ligand_id>  (96) 
95

>  <original_smiles>  (96) 
[H]c1c([H])c([H])c2c(c1[H])C([H])([H])C([H])([H])C([H])([H])C2([H])N([H])C(=O)C1([H])N(C(=O)C([H])(N([H])C(=O)C([H])(N([H])C([H])([H])[H])C([H])([H])[H])C(C([H])([H])[H])(C([H])([H])[H])C([H])([H])[H])C([H])([H])c2c([H])c(OC([H])([H])C([H])([H])C3([H])C([H])([H])C4([H])C(C(=O)N5C([H])([H])C([H])([H])C([H])([H])C([H])(n6nc(-c7c([H])c([H])c(Oc8c([H])c([H])c(F)c([H])c8F)c([H])c7[H])c(C(=O)N([H])[H])c6N([H])[H])C5([H])[H])(C([H])([H])[H])C([H])([H])C([H])([H])C([H])([H])C4(C([H])([H])[H])C3([H])C([H])([H])[H])c([H])c([H])c2C1([H])[H]

>  <smiles>  (96) 
[H]c1c([H])c([H])c2c(c1[H])C([H])([H])C([H])([H])C([H])([H])C2([H])N([H])C(=O)C1([H])N(C(=O)C([H])(N([H])C(=O)C([H])(N([H])C([H])([H])[H])C([H])([H])[H])C(C([H])([H])[H])(C([H])([H])[H])C([H])([H])[H])C([H])([H])c2c([H])c(OC([H])([H])C([H])([H])C3([H])C([H])([H])C4([H])C(C(=O)N5C([H])([H])C([H])([H])C([H])([H])C([H])(n6nc(-c7c([H])c([H])c(Oc8c([H])c([H])c(F)c([H])c8F)c([H])c7[H])c(C(=O)N([H])[H])c6N([H])[H])C5([H])[H])(C([H])([H])[H])C([H])([H])C([H])([H])C([H])([H])C4(C([H])([H])[H])C3([H])C([H])([H])[H])c([H])c([H])c2C1([H])[H]

$$$$
