0:0:0
     RDKit          3D

 93102  0  0  1  0  0  0  0  0999 V2000
  -27.8760  -23.3980   18.9840 C   0  0  0  0  0  3  0  0  0  0  0  0
  -28.7300  -24.3550   19.3810 C   0  0  0  0  0  0  0  0  0  0  0  0
  -28.0500  -21.9570   19.4290 C   0  0  0  0  0  2  0  0  0  0  0  0
  -29.8380  -24.0130   20.3640 C   0  0  0  0  0  2  0  0  0  0  0  0
  -29.5470  -21.5780   19.4050 C   0  0  0  0  0  3  0  0  0  0  0  0
  -30.4500  -22.5730   20.2350 C   0  0  2  0  0  0  0  0  0  0  0  0
  -30.7270  -22.0700   21.6690 C   0  0  0  0  0  1  0  0  0  0  0  0
  -31.8120  -22.7090   19.5240 C   0  0  0  0  0  1  0  0  0  0  0  0
  -29.2780  -19.4050   20.6940 C   0  0  0  0  0  3  0  0  0  0  0  0
  -29.7990  -20.0680   19.6380 C   0  0  0  0  0  0  0  0  0  0  0  0
  -30.6680  -19.3770   18.6000 C   0  0  0  0  0  1  0  0  0  0  0  0
  -30.3850  -17.7520   22.2460 C   0  0  0  0  0  2  0  0  0  0  0  0
  -29.3870  -17.9770   21.1430 C   0  0  0  0  0  3  0  0  0  0  0  0
  -30.5100  -16.9280   20.9900 C   0  0  0  0  0  3  0  0  0  0  0  0
  -30.2380  -15.4320   21.1930 C   0  0  0  0  0  2  0  0  0  0  0  0
  -30.8690  -14.4020   20.2240 C   0  0  0  0  0  0  0  0  0  0  0  0
  -30.5440  -12.3180   18.9230 C   0  0  0  0  0  2  0  0  0  0  0  0
  -29.5450  -12.5770   17.7770 C   0  0  0  0  0  2  0  0  0  0  0  0
  -28.0800  -12.4510   18.2610 C   0  0  0  0  0  2  0  0  0  0  0  0
  -27.8170  -13.2260   19.5790 C   0  0  0  0  0  3  0  0  0  0  0  0
  -28.9090  -12.8740   20.6130 C   0  0  0  0  0  2  0  0  0  0  0  0
  -30.2120  -13.2270   20.0250 N   0  0  0  0  0  0  0  0  0  0  0  0
  -31.9280  -14.6740   19.6450 O   0  0  0  0  0  0  0  0  0  0  0  0
  -25.4490  -13.8800   20.3620 C   0  0  0  0  0  0  0  0  0  0  0  0
  -24.3790  -13.1260   20.7680 C   0  0  0  0  0  0  0  0  0  0  0  0
  -24.8170  -11.7680   20.7160 C   0  0  0  0  0  0  0  0  0  0  0  0
  -26.4720  -12.9800   20.0950 N   0  0  0  0  0  0  0  0  0  0  0  0
  -26.0930  -11.7050   20.3620 N   0  0  0  0  0  0  0  0  0  0  0  0
  -24.0770  -10.5180   20.9260 C   0  0  0  0  0  0  0  0  0  0  0  0
  -24.5200   -9.5540   21.8590 C   0  0  0  0  0  3  0  0  0  0  0  0
  -23.7890   -8.3630   22.0570 C   0  0  0  0  0  3  0  0  0  0  0  0
  -22.6010   -8.1310   21.3260 C   0  0  0  0  0  0  0  0  0  0  0  0
  -22.1760   -9.0860   20.3840 C   0  0  0  0  0  3  0  0  0  0  0  0
  -22.9060  -10.2680   20.1820 C   0  0  0  0  0  3  0  0  0  0  0  0
  -21.8350   -6.9960   21.4360 O   0  0  0  0  0  0  0  0  0  0  0  0
  -21.7780   -6.2740   22.6010 C   0  0  0  0  0  0  0  0  0  0  0  0
  -21.3760   -6.8620   23.8210 C   0  0  0  0  0  3  0  0  0  0  0  0
  -21.2640   -6.0690   24.9800 C   0  0  0  0  0  3  0  0  0  0  0  0
  -21.5450   -4.6900   24.9210 C   0  0  0  0  0  0  0  0  0  0  0  0
  -21.9400   -4.1030   23.7050 C   0  0  0  0  0  3  0  0  0  0  0  0
  -22.0530   -4.8930   22.5470 C   0  0  0  0  0  0  0  0  0  0  0  0
  -22.4140   -4.3180   21.3760 F   0  0  0  0  0  0  0  0  0  0  0  0
  -21.4310   -3.9270   26.0330 F   0  0  0  0  0  0  0  0  0  0  0  0
  -23.0010  -13.6260   21.0910 C   0  0  0  0  0  0  0  0  0  0  0  0
  -22.2900  -12.9480   21.9860 N   0  0  0  0  0  0  0  0  0  0  0  0
  -22.5590  -14.6540   20.5820 O   0  0  0  0  0  0  0  0  0  0  0  0
  -22.6550  -12.1140   22.4260 H   0  0  0  0  0  0  0  0  0  0  0  0
  -21.3680  -13.2690   22.2400 H   0  0  0  0  0  0  0  0  0  0  0  0
  -25.6330  -15.2480   20.1790 N   0  0  0  0  0  0  0  0  0  0  0  0
  -24.8840  -15.9180   20.3060 H   0  0  0  0  0  0  0  0  0  0  0  0
  -26.4850  -15.6680   19.8330 H   0  0  0  0  0  0  0  0  0  0  0  0
  -28.6540  -25.8090   18.9260 C   0  0  0  0  0  2  0  0  0  0  0  0
  -28.4240  -26.7220   20.0090 O   0  0  0  0  0  0  0  0  0  0  0  0
  -24.6240  -31.8480   23.1930 C   0  0  0  0  0  0  0  0  0  0  0  0
  -27.2270  -27.4100   20.0550 C   0  0  0  0  0  0  0  0  0  0  0  0
  -23.3980  -30.4570   21.5580 C   0  0  0  0  0  3  0  0  0  0  0  0
  -24.8290  -28.9090   20.1270 C   0  0  0  0  0  0  0  0  0  0  0  0
  -25.9230  -30.8010   21.3400 C   0  0  0  0  0  2  0  0  0  0  0  0
  -25.9950  -29.4300   20.6990 C   0  0  0  0  0  0  0  0  0  0  0  0
  -27.1940  -28.6840   20.6670 C   0  0  0  0  0  3  0  0  0  0  0  0
  -26.0280  -26.8860   19.5160 C   0  0  0  0  0  3  0  0  0  0  0  0
  -24.8360  -27.6320   19.5430 C   0  0  0  0  0  3  0  0  0  0  0  0
  -23.5930  -29.7780   20.1770 C   0  0  0  0  0  2  0  0  0  0  0  0
  -24.6680  -31.0510   22.0880 N   0  0  0  0  0  0  0  0  0  0  0  0
  -23.5490  -32.1240   23.7440 O   0  0  0  0  0  0  0  0  0  0  0  0
  -22.7490  -29.4360   22.5220 C   0  0  0  0  0  0  0  0  0  0  0  0
  -21.4220  -29.2650   22.4070 N   0  0  0  0  0  0  0  0  0  0  0  0
  -23.4370  -28.8020   23.3260 O   0  0  0  0  0  0  0  0  0  0  0  0
  -20.9280  -29.8300   21.7310 H   0  0  0  0  0  0  0  0  0  0  0  0
  -18.0460  -28.0870   22.9280 C   0  0  0  0  0  0  0  0  0  0  0  0
  -20.6060  -28.3300   23.1830 C   0  0  0  0  0  3  0  0  0  0  0  0
  -20.6980  -26.8990   22.6040 C   0  0  0  0  0  2  0  0  0  0  0  0
  -19.5870  -26.5830   21.5980 C   0  0  0  0  0  2  0  0  0  0  0  0
  -18.2100  -26.7370   22.2510 C   0  0  0  0  0  2  0  0  0  0  0  0
  -19.1710  -28.8410   23.3520 C   0  0  0  0  0  0  0  0  0  0  0  0
  -18.9630  -30.1060   23.9440 C   0  0  0  0  0  3  0  0  0  0  0  0
  -17.6640  -30.6160   24.1170 C   0  0  0  0  0  3  0  0  0  0  0  0
  -16.5520  -29.8580   23.7110 C   0  0  0  0  0  3  0  0  0  0  0  0
  -16.7450  -28.5950   23.1210 C   0  0  0  0  0  3  0  0  0  0  0  0
  -25.9190  -32.4710   23.8040 C   0  0  0  0  0  3  0  0  0  0  0  0
  -26.4610  -31.6790   25.0570 C   0  0  1  0  0  0  0  0  0  0  0  0
  -25.3870  -31.4250   26.1410 C   0  0  0  0  0  1  0  0  0  0  0  0
  -27.0370  -30.3090   24.6310 C   0  0  0  0  0  1  0  0  0  0  0  0
  -27.6220  -32.4640   25.7100 C   0  0  0  0  0  1  0  0  0  0  0  0
  -25.6150  -33.8630   24.1610 N   0  0  0  0  0  0  0  0  0  0  0  0
  -25.9240  -34.9270   23.4080 C   0  0  0  0  0  0  0  0  0  0  0  0
  -26.5700  -34.8410   22.3600 O   0  0  0  0  0  0  0  0  0  0  0  0
  -25.0420  -34.0030   24.9800 H   0  0  0  0  0  0  0  0  0  0  0  0
  -24.1760  -36.7130   23.1220 C   0  0  0  0  0  1  0  0  0  0  0  0
  -25.4390  -36.3060   23.8970 C   0  0  0  0  0  3  0  0  0  0  0  0
  -27.5920  -37.1900   24.6790 C   0  0  0  0  0  1  0  0  0  0  0  0
  -26.4630  -37.3670   23.7710 N   0  0  0  0  0  0  0  0  0  0  0  0
  -26.0560  -38.2820   23.9460 H   0  0  0  0  0  0  0  0  0  0  0  0
  1  2  2  0
  1  3  1  0
  2  4  1  0
  5  3  1  0
  5 10  1  0
  5  6  1  0
  6  4  1  0
  6  7  1  1
  8  6  1  0
 10  9  2  0
 11 10  1  0
 13  9  1  0
 13 12  1  0
 14 13  1  0
 14 15  1  0
 14 12  1  0
 16 15  1  0
 17 22  1  0
 18 19  1  0
 18 17  1  0
 20 19  1  0
 20 27  1  0
 20 21  1  0
 22 16  1  0
 22 21  1  0
 23 16  2  0
 24 25  2  0
 25 44  1  0
 26 25  1  0
 26 29  1  0
 27 28  1  0
 27 24  1  0
 28 26  2  0
 29 30  1  0
 30 31  2  0
 32 35  1  0
 32 31  1  0
 33 32  2  0
 34 33  1  0
 34 29  2  0
 35 36  1  0
 36 37  1  0
 37 38  2  0
 39 38  1  0
 39 43  1  0
 40 39  2  0
 41 36  2  0
 41 40  1  0
 42 41  1  0
 44 45  1  0
 45 48  1  0
 45 47  1  0
 46 44  2  0
 49 50  1  0
 49 24  1  0
 51 49  1  0
 52  2  1  0
 52 53  1  0
 53 55  1  0
 54 65  2  0
 55 60  1  0
 56 64  1  0
 56 66  1  0
 57 63  1  0
 57 59  1  0
 58 64  1  0
 59 58  1  0
 60 59  2  0
 61 62  1  0
 61 55  2  0
 62 57  2  0
 63 56  1  0
 64 54  1  0
 66 68  2  0
 67 66  1  0
 69 67  1  0
 70 79  2  0
 70 75  1  0
 71 67  1  0
 71 75  1  0
 72 71  1  0
 73 74  1  0
 73 72  1  0
 74 70  1  0
 75 76  2  0
 76 77  1  0
 78 77  2  0
 79 78  1  0
 80 54  1  0
 80 85  1  0
 80 81  1  0
 81 84  1  1
 81 82  1  0
 83 81  1  0
 85 88  1  0
 86 90  1  0
 86 85  1  0
 87 86  2  0
 90 89  1  0
 92 90  1  0
 92 93  1  0
 92 91  1  0
M  ISO  4  15 100  16 100  52 101  53 101
M  END
>  <TORSDO>  (1) 
F 20

>  <SCORE>  (1) 
-13.641

>  <name>  (1) 
0

>  <ligand_id>  (1) 
0

>  <original_smiles>  (1) 
[H]C1=C(C([H])([H])Oc2c([H])c([H])c3c(c2[H])C([H])([H])N(C(=O)C([H])(N([H])C(=O)C([H])(N([H])C([H])([H])[H])C([H])([H])[H])C(C([H])([H])[H])(C([H])([H])[H])C([H])([H])[H])C([H])(C(=O)N([H])C2([H])c4c([H])c([H])c([H])c([H])c4C([H])([H])C([H])([H])C2([H])[H])C3([H])[H])C([H])([H])C(C([H])([H])[H])(C([H])([H])[H])C([H])(C(=C([H])C2([H])C([H])([H])C2([H])C([H])([H])C(=O)N2C([H])([H])C([H])([H])C([H])([H])C([H])(n3nc(-c4c([H])c([H])c(Oc5c([H])c([H])c(F)c([H])c5F)c([H])c4[H])c(C(=O)N([H])[H])c3N([H])[H])C2([H])[H])C([H])([H])[H])C1([H])[H]

>  <smiles>  (1) 
[H]C1=C(C([H])([H])Oc2c([H])c([H])c3c(c2[H])C([H])([H])N(C(=O)C([H])(N([H])C(=O)C([H])(N([H])C([H])([H])[H])C([H])([H])[H])C(C([H])([H])[H])(C([H])([H])[H])C([H])([H])[H])C([H])(C(=O)N([H])C2([H])c4c([H])c([H])c([H])c([H])c4C([H])([H])C([H])([H])C2([H])[H])C3([H])[H])C([H])([H])C(C([H])([H])[H])(C([H])([H])[H])C([H])(C(=C([H])C2([H])C([H])([H])C2([H])C([H])([H])C(=O)N2C([H])([H])C([H])([H])C([H])([H])C([H])(n3nc(-c4c([H])c([H])c(Oc5c([H])c([H])c(F)c([H])c5F)c([H])c4[H])c(C(=O)N([H])[H])c3N([H])[H])C2([H])[H])C([H])([H])[H])C1([H])[H]

$$$$
1:0:0
     RDKit          3D

 90100  0  0  1  0  0  0  0  0999 V2000
  -28.9950  -21.4850   19.8200 C   0  0  0  0  0  2  0  0  0  0  0  0
  -29.1820  -19.1220   20.3260 C   0  0  0  0  0  0  0  0  0  0  0  0
  -28.6500  -18.7000   18.9650 C   0  0  0  0  0  1  0  0  0  0  0  0
  -29.3330  -20.3480   20.6920 N   0  0  0  0  0  0  0  0  0  0  0  0
  -31.5610  -17.0230   20.3770 C   0  0  0  0  0  2  0  0  0  0  0  0
  -30.1890  -16.4010   22.3590 C   0  0  0  0  0  2  0  0  0  0  0  0
  -29.4210  -17.9890   21.3590 C   0  0  0  0  0  3  0  0  0  0  0  0
  -30.4560  -16.0500   19.9050 C   0  0  0  0  0  3  0  0  0  0  0  0
  -30.8830  -17.5740   21.6320 C   0  0  1  0  0  0  0  0  0  0  0  0
  -29.4530  -16.4530   21.0040 C   0  0  2  0  0  0  0  0  0  0  0  0
  -31.0020  -14.5790   19.7010 C   0  0  0  0  0  0  0  0  0  0  0  0
  -30.4770  -12.3890   18.6920 C   0  0  0  0  0  2  0  0  0  0  0  0
  -29.4490  -12.5800   17.5480 C   0  0  0  0  0  2  0  0  0  0  0  0
  -28.0180  -12.9020   18.0460 C   0  0  0  0  0  2  0  0  0  0  0  0
  -27.8880  -12.8130   19.5680 C   0  0  0  0  0  3  0  0  0  0  0  0
  -29.0420  -13.2030   20.4940 C   0  0  0  0  0  2  0  0  0  0  0  0
  -30.2470  -13.4440   19.7040 N   0  0  0  0  0  0  0  0  0  0  0  0
  -32.1470  -14.5340   19.2480 O   0  0  0  0  0  0  0  0  0  0  0  0
  -25.6180  -13.8360   20.4980 C   0  0  0  0  0  0  0  0  0  0  0  0
  -24.5220  -13.1340   20.9440 C   0  0  0  0  0  0  0  0  0  0  0  0
  -24.8510  -11.7570   20.7800 C   0  0  0  0  0  0  0  0  0  0  0  0
  -26.5470  -12.8570   20.1260 N   0  0  0  0  0  0  0  0  0  0  0  0
  -26.0620  -11.6230   20.3270 N   0  0  0  0  0  0  0  0  0  0  0  0
  -24.0990  -10.5260   20.9560 C   0  0  0  0  0  0  0  0  0  0  0  0
  -24.5790   -9.4960   21.7940 C   0  0  0  0  0  3  0  0  0  0  0  0
  -23.8430   -8.3050   21.9440 C   0  0  0  0  0  3  0  0  0  0  0  0
  -22.6180   -8.1450   21.2540 C   0  0  0  0  0  0  0  0  0  0  0  0
  -22.1670   -9.1630   20.3950 C   0  0  0  0  0  3  0  0  0  0  0  0
  -22.9020  -10.3460   20.2420 C   0  0  0  0  0  3  0  0  0  0  0  0
  -21.8390   -7.0190   21.3310 O   0  0  0  0  0  0  0  0  0  0  0  0
  -21.7940   -6.2580   22.4690 C   0  0  0  0  0  0  0  0  0  0  0  0
  -21.4120   -6.7980   23.7160 C   0  0  0  0  0  3  0  0  0  0  0  0
  -21.3130   -5.9590   24.8440 C   0  0  0  0  0  3  0  0  0  0  0  0
  -21.5840   -4.5820   24.7230 C   0  0  0  0  0  0  0  0  0  0  0  0
  -21.9600   -4.0440   23.4800 C   0  0  0  0  0  3  0  0  0  0  0  0
  -22.0630   -4.8800   22.3550 C   0  0  0  0  0  0  0  0  0  0  0  0
  -22.4080   -4.3560   21.1530 F   0  0  0  0  0  0  0  0  0  0  0  0
  -21.4780   -3.7740   25.8030 F   0  0  0  0  0  0  0  0  0  0  0  0
  -23.2040  -13.6710   21.4180 C   0  0  0  0  0  0  0  0  0  0  0  0
  -22.5480  -12.9500   22.3210 N   0  0  0  0  0  0  0  0  0  0  0  0
  -22.7660  -14.7480   21.0200 O   0  0  0  0  0  0  0  0  0  0  0  0
  -22.9150  -12.0730   22.6590 H   0  0  0  0  0  0  0  0  0  0  0  0
  -21.6660  -13.2860   22.6840 H   0  0  0  0  0  0  0  0  0  0  0  0
  -25.8780  -15.1970   20.3750 N   0  0  0  0  0  0  0  0  0  0  0  0
  -25.1910  -15.9080   20.6030 H   0  0  0  0  0  0  0  0  0  0  0  0
  -26.7220  -15.5770   19.9650 H   0  0  0  0  0  0  0  0  0  0  0  0
  -28.7880  -22.7810   20.6590 C   0  0  0  0  0  2  0  0  0  0  0  0
  -28.5780  -24.1030   19.8540 C   0  0  0  0  0  2  0  0  0  0  0  0
  -28.3520  -25.3530   20.7540 C   0  0  0  0  0  2  0  0  0  0  0  0
  -28.4180  -26.6250   20.0750 O   0  0  0  0  0  0  0  0  0  0  0  0
  -24.5510  -31.8290   23.0840 C   0  0  0  0  0  0  0  0  0  0  0  0
  -27.2530  -27.3660   20.0720 C   0  0  0  0  0  0  0  0  0  0  0  0
  -23.3700  -30.4020   21.4450 C   0  0  0  0  0  3  0  0  0  0  0  0
  -24.8480  -28.8600   20.0460 C   0  0  0  0  0  0  0  0  0  0  0  0
  -25.8940  -30.7780   21.2610 C   0  0  0  0  0  2  0  0  0  0  0  0
  -25.9980  -29.4000   20.6370 C   0  0  0  0  0  0  0  0  0  0  0  0
  -27.2070  -28.6630   20.6410 C   0  0  0  0  0  3  0  0  0  0  0  0
  -26.0880  -26.8420   19.4780 C   0  0  0  0  0  3  0  0  0  0  0  0
  -24.8880  -27.5810   19.4620 C   0  0  0  0  0  3  0  0  0  0  0  0
  -23.5950  -29.7100   20.0750 C   0  0  0  0  0  2  0  0  0  0  0  0
  -24.6230  -31.0190   21.9900 N   0  0  0  0  0  0  0  0  0  0  0  0
  -23.4640  -32.0970   23.6140 O   0  0  0  0  0  0  0  0  0  0  0  0
  -22.7170  -29.3870   22.4110 C   0  0  0  0  0  0  0  0  0  0  0  0
  -21.3910  -29.2090   22.2890 N   0  0  0  0  0  0  0  0  0  0  0  0
  -23.4010  -28.7600   23.2240 O   0  0  0  0  0  0  0  0  0  0  0  0
  -20.9010  -29.7670   21.6030 H   0  0  0  0  0  0  0  0  0  0  0  0
  -18.0120  -28.0430   22.8130 C   0  0  0  0  0  0  0  0  0  0  0  0
  -20.5740  -28.2740   23.0620 C   0  0  0  0  0  3  0  0  0  0  0  0
  -20.6580  -26.8460   22.4760 C   0  0  0  0  0  2  0  0  0  0  0  0
  -19.5430  -26.5400   21.4710 C   0  0  0  0  0  2  0  0  0  0  0  0
  -18.1690  -26.6950   22.1290 C   0  0  0  0  0  2  0  0  0  0  0  0
  -19.1420  -28.7920   23.2370 C   0  0  0  0  0  0  0  0  0  0  0  0
  -18.9410  -30.0540   23.8350 C   0  0  0  0  0  3  0  0  0  0  0  0
  -17.6430  -30.5670   24.0160 C   0  0  0  0  0  3  0  0  0  0  0  0
  -16.5280  -29.8160   23.6080 C   0  0  0  0  0  3  0  0  0  0  0  0
  -16.7130  -28.5550   23.0130 C   0  0  0  0  0  3  0  0  0  0  0  0
  -25.8270  -32.4750   23.7100 C   0  0  0  0  0  3  0  0  0  0  0  0
  -25.4750  -33.8400   24.1210 N   0  0  0  0  0  0  0  0  0  0  0  0
  -25.7450  -34.9420   23.4080 C   0  0  0  0  0  0  0  0  0  0  0  0
  -26.3860  -34.9190   22.3540 O   0  0  0  0  0  0  0  0  0  0  0  0
  -24.9010  -33.9310   24.9460 H   0  0  0  0  0  0  0  0  0  0  0  0
  -23.9390  -36.6810   23.1950 C   0  0  0  0  0  1  0  0  0  0  0  0
  -25.2180  -36.2850   23.9510 C   0  0  0  0  0  3  0  0  0  0  0  0
  -27.3400  -37.2110   24.7680 C   0  0  0  0  0  1  0  0  0  0  0  0
  -26.2060  -37.3820   23.8630 N   0  0  0  0  0  0  0  0  0  0  0  0
  -25.7700  -38.2780   24.0670 H   0  0  0  0  0  0  0  0  0  0  0  0
  -26.4060  -31.6570   24.9280 C   0  0  1  0  0  0  0  0  0  0  0  0
  -25.3490  -31.3110   26.0040 C   0  0  0  0  0  1  0  0  0  0  0  0
  -27.0370  -30.3310   24.4430 C   0  0  0  0  0  1  0  0  0  0  0  0
  -27.5380  -32.4600   25.6100 C   0  0  0  0  0  1  0  0  0  0  0  0
  1 47  1  0
  1  4  1  0
  2  4  2  0
  3  2  1  0
  7  2  1  0
  7  9  1  0
  8 11  1  0
  8  5  1  0
  8 10  1  0
  9  5  1  1
  9  6  1  0
 10  7  1  0
 10  9  1  0
 10  6  1  1
 11 17  1  0
 12 17  1  0
 13 14  1  0
 13 12  1  0
 15 14  1  0
 15 22  1  0
 15 16  1  0
 17 16  1  0
 18 11  2  0
 19 20  2  0
 20 39  1  0
 21 20  1  0
 21 24  1  0
 22 23  1  0
 22 19  1  0
 23 21  2  0
 24 25  1  0
 25 26  2  0
 27 30  1  0
 27 26  1  0
 28 27  2  0
 29 28  1  0
 29 24  2  0
 30 31  1  0
 31 32  1  0
 32 33  2  0
 34 33  1  0
 34 38  1  0
 35 34  2  0
 36 31  2  0
 36 35  1  0
 37 36  1  0
 39 40  1  0
 40 42  1  0
 40 43  1  0
 41 39  2  0
 44 19  1  0
 44 45  1  0
 46 44  1  0
 48 47  1  0
 48 49  1  0
 50 49  1  0
 51 62  2  0
 52 50  1  0
 52 57  1  0
 53 61  1  0
 53 63  1  0
 54 60  1  0
 54 56  1  0
 55 61  1  0
 56 57  2  0
 56 55  1  0
 58 52  2  0
 59 58  1  0
 59 54  2  0
 60 53  1  0
 61 51  1  0
 63 65  2  0
 64 63  1  0
 66 64  1  0
 67 76  2  0
 67 72  1  0
 68 64  1  0
 68 72  1  0
 69 68  1  0
 70 71  1  0
 70 69  1  0
 71 67  1  0
 72 73  2  0
 73 74  1  0
 75 74  2  0
 76 75  1  0
 77 51  1  0
 77 78  1  0
 77 87  1  0
 78 81  1  0
 79 83  1  0
 79 78  1  0
 80 79  2  0
 83 82  1  0
 85 83  1  0
 85 86  1  0
 85 84  1  0
 87 90  1  1
 87 88  1  0
 89 87  1  0
M  ISO  4   8 100  11 100  49 101  50 101
M  END
>  <TORSDO>  (2) 
F 21

>  <SCORE>  (2) 
-12.419

>  <name>  (2) 
1

>  <ligand_id>  (2) 
1

>  <original_smiles>  (2) 
[H]c1c([H])c([H])c2c(c1[H])C([H])([H])C([H])([H])C([H])([H])C2([H])N([H])C(=O)C1([H])N(C(=O)C([H])(N([H])C(=O)C([H])(N([H])C([H])([H])[H])C([H])([H])[H])C(C([H])([H])[H])(C([H])([H])[H])C([H])([H])[H])C([H])([H])c2c([H])c(OC([H])([H])C([H])([H])C([H])([H])C([H])([H])N=C(C([H])([H])[H])C3([H])C4([H])C([H])([H])C([H])(C(=O)N5C([H])([H])C([H])([H])C([H])([H])C([H])(n6nc(-c7c([H])c([H])c(Oc8c([H])c([H])c(F)c([H])c8F)c([H])c7[H])c(C(=O)N([H])[H])c6N([H])[H])C5([H])[H])C3([H])C4([H])[H])c([H])c([H])c2C1([H])[H]

>  <smiles>  (2) 
[H]c1c([H])c([H])c2c(c1[H])C([H])([H])C([H])([H])C([H])([H])C2([H])N([H])C(=O)C1([H])N(C(=O)C([H])(N([H])C(=O)C([H])(N([H])C([H])([H])[H])C([H])([H])[H])C(C([H])([H])[H])(C([H])([H])[H])C([H])([H])[H])C([H])([H])c2c([H])c(OC([H])([H])C([H])([H])C([H])([H])C([H])([H])N=C(C([H])([H])[H])C3([H])C4([H])C([H])([H])C([H])(C(=O)N5C([H])([H])C([H])([H])C([H])([H])C([H])(n6nc(-c7c([H])c([H])c(Oc8c([H])c([H])c(F)c([H])c8F)c([H])c7[H])c(C(=O)N([H])[H])c6N([H])[H])C5([H])[H])C3([H])C4([H])[H])c([H])c([H])c2C1([H])[H]

$$$$
2:0:0
     RDKit          3D

 92102  0  0  1  0  0  0  0  0999 V2000
  -28.1370  -20.8870   20.9240 C   0  0  0  0  0  2  0  0  0  0  0  0
  -28.7170  -18.5740   20.2120 C   0  0  0  0  0  0  0  0  0  0  0  0
  -29.0730  -19.8320   20.5120 N   0  0  0  0  0  0  0  0  0  0  0  0
  -27.5640  -18.2570   19.9090 O   0  0  0  0  0  0  0  0  0  0  0  0
  -30.0560  -19.9920   20.6920 H   0  0  0  0  0  0  0  0  0  0  0  0
  -31.7210  -16.2730   21.4250 C   0  0  0  0  0  2  0  0  0  0  0  0
  -29.5860  -17.0440   22.4010 C   0  0  0  0  0  2  0  0  0  0  0  0
  -30.6410  -15.1970   21.1460 C   0  0  0  0  0  3  0  0  0  0  0  0
  -29.8010  -17.4710   20.3590 C   0  0  0  0  0  3  0  0  0  0  0  0
  -30.7930  -17.4820   21.5520 C   0  0  1  0  0  0  0  0  0  0  0  0
  -29.4500  -16.1660   21.1360 C   0  0  1  0  0  0  0  0  0  0  0  0
  -30.8330  -14.3560   19.8590 C   0  0  0  0  0  0  0  0  0  0  0  0
  -30.2390  -12.3610   18.5210 C   0  0  0  0  0  2  0  0  0  0  0  0
  -29.1540  -12.6690   17.4750 C   0  0  0  0  0  2  0  0  0  0  0  0
  -27.7470  -12.5410   18.0870 C   0  0  0  0  0  2  0  0  0  0  0  0
  -27.6140  -13.3250   19.4210 C   0  0  0  0  0  3  0  0  0  0  0  0
  -28.7860  -12.9820   20.3710 C   0  0  0  0  0  2  0  0  0  0  0  0
  -30.0480  -13.2640   19.6650 N   0  0  0  0  0  0  0  0  0  0  0  0
  -31.7390  -14.6540   19.0720 O   0  0  0  0  0  0  0  0  0  0  0  0
  -25.3530  -13.9970   20.4620 C   0  0  0  0  0  0  0  0  0  0  0  0
  -24.3010  -13.2500   20.9180 C   0  0  0  0  0  0  0  0  0  0  0  0
  -24.6820  -11.8830   20.7440 C   0  0  0  0  0  0  0  0  0  0  0  0
  -26.3160  -13.0880   20.0510 N   0  0  0  0  0  0  0  0  0  0  0  0
  -25.9190  -11.8070   20.2700 N   0  0  0  0  0  0  0  0  0  0  0  0
  -23.9190  -10.6460   20.9500 C   0  0  0  0  0  0  0  0  0  0  0  0
  -24.3990   -9.6130   21.7860 C   0  0  0  0  0  3  0  0  0  0  0  0
  -23.6400   -8.4390   21.9800 C   0  0  0  0  0  3  0  0  0  0  0  0
  -22.3880   -8.2890   21.3370 C   0  0  0  0  0  0  0  0  0  0  0  0
  -21.9270   -9.3090   20.4870 C   0  0  0  0  0  3  0  0  0  0  0  0
  -22.6850  -10.4750   20.2900 C   0  0  0  0  0  3  0  0  0  0  0  0
  -21.5930   -7.1750   21.4490 O   0  0  0  0  0  0  0  0  0  0  0  0
  -21.6000   -6.3940   22.5780 C   0  0  0  0  0  0  0  0  0  0  0  0
  -21.3120   -6.9270   23.8530 C   0  0  0  0  0  3  0  0  0  0  0  0
  -21.2600   -6.0760   24.9760 C   0  0  0  0  0  3  0  0  0  0  0  0
  -21.4880   -4.6960   24.8250 C   0  0  0  0  0  0  0  0  0  0  0  0
  -21.7700   -4.1630   23.5540 C   0  0  0  0  0  3  0  0  0  0  0  0
  -21.8220   -5.0100   22.4340 C   0  0  0  0  0  0  0  0  0  0  0  0
  -22.0730   -4.4870   21.2090 F   0  0  0  0  0  0  0  0  0  0  0  0
  -21.4310   -3.8770   25.9020 F   0  0  0  0  0  0  0  0  0  0  0  0
  -22.9750  -13.7660   21.4010 C   0  0  0  0  0  0  0  0  0  0  0  0
  -22.3440  -13.0620   22.3350 N   0  0  0  0  0  0  0  0  0  0  0  0
  -22.5110  -14.8250   20.9830 O   0  0  0  0  0  0  0  0  0  0  0  0
  -22.7350  -12.2010   22.6920 H   0  0  0  0  0  0  0  0  0  0  0  0
  -21.4570  -13.3830   22.6980 H   0  0  0  0  0  0  0  0  0  0  0  0
  -25.5570  -15.3700   20.3470 N   0  0  0  0  0  0  0  0  0  0  0  0
  -24.8290  -16.0380   20.5750 H   0  0  0  0  0  0  0  0  0  0  0  0
  -26.3790  -15.8130   19.9530 H   0  0  0  0  0  0  0  0  0  0  0  0
  -28.1800  -22.1620   20.0560 C   0  0  0  0  0  2  0  0  0  0  0  0
  -29.4720  -23.0120   20.1570 C   0  0  0  0  0  2  0  0  0  0  0  0
  -29.2980  -24.4980   20.5730 C   0  0  0  0  0  2  0  0  0  0  0  0
  -28.3510  -25.3290   19.6900 C   0  0  0  0  0  2  0  0  0  0  0  0
  -28.3900  -26.7150   20.0710 O   0  0  0  0  0  0  0  0  0  0  0  0
  -24.6670  -31.8500   23.3120 C   0  0  0  0  0  0  0  0  0  0  0  0
  -27.2160  -27.4500   20.0750 C   0  0  0  0  0  0  0  0  0  0  0  0
  -23.4210  -30.4950   21.6630 C   0  0  0  0  0  3  0  0  0  0  0  0
  -24.8360  -28.9850   20.1770 C   0  0  0  0  0  0  0  0  0  0  0  0
  -25.9500  -30.8320   21.4340 C   0  0  0  0  0  2  0  0  0  0  0  0
  -26.0100  -29.4760   20.7580 C   0  0  0  0  0  0  0  0  0  0  0  0
  -27.2030  -28.7170   20.7080 C   0  0  0  0  0  3  0  0  0  0  0  0
  -26.0240  -26.9900   19.4660 C   0  0  0  0  0  3  0  0  0  0  0  0
  -24.8380  -27.7400   19.5280 C   0  0  0  0  0  3  0  0  0  0  0  0
  -23.6030  -29.8540   20.2630 C   0  0  0  0  0  2  0  0  0  0  0  0
  -24.6970  -31.0760   22.1920 N   0  0  0  0  0  0  0  0  0  0  0  0
  -23.5980  -32.1140   23.8800 O   0  0  0  0  0  0  0  0  0  0  0  0
  -22.7820  -29.4510   22.6100 C   0  0  0  0  0  0  0  0  0  0  0  0
  -21.4580  -29.2620   22.4840 N   0  0  0  0  0  0  0  0  0  0  0  0
  -23.4710  -28.8190   23.4150 O   0  0  0  0  0  0  0  0  0  0  0  0
  -20.9610  -29.8280   21.8090 H   0  0  0  0  0  0  0  0  0  0  0  0
  -18.0990  -28.0140   22.9450 C   0  0  0  0  0  0  0  0  0  0  0  0
  -20.6490  -28.3080   23.2420 C   0  0  0  0  0  3  0  0  0  0  0  0
  -20.7800  -26.8810   22.6620 C   0  0  0  0  0  2  0  0  0  0  0  0
  -19.6910  -26.5440   21.6380 C   0  0  0  0  0  2  0  0  0  0  0  0
  -18.3020  -26.6670   22.2740 C   0  0  0  0  0  2  0  0  0  0  0  0
  -19.2020  -28.7900   23.3880 C   0  0  0  0  0  0  0  0  0  0  0  0
  -18.9600  -30.0500   23.9760 C   0  0  0  0  0  3  0  0  0  0  0  0
  -17.6460  -30.5320   24.1290 C   0  0  0  0  0  3  0  0  0  0  0  0
  -16.5570  -29.7530   23.7040 C   0  0  0  0  0  3  0  0  0  0  0  0
  -16.7840  -28.4960   23.1160 C   0  0  0  0  0  3  0  0  0  0  0  0
  -25.9690  -32.4560   23.9220 C   0  0  0  0  0  3  0  0  0  0  0  0
  -25.6830  -33.8550   24.2650 N   0  0  0  0  0  0  0  0  0  0  0  0
  -26.0220  -34.9070   23.5070 C   0  0  0  0  0  0  0  0  0  0  0  0
  -26.6770  -34.8000   22.4670 O   0  0  0  0  0  0  0  0  0  0  0  0
  -25.1000  -34.0120   25.0730 H   0  0  0  0  0  0  0  0  0  0  0  0
  -24.3050  -36.7180   23.1890 C   0  0  0  0  0  1  0  0  0  0  0  0
  -25.5560  -36.2980   23.9780 C   0  0  0  0  0  3  0  0  0  0  0  0
  -27.7170  -37.1560   24.7710 C   0  0  0  0  0  1  0  0  0  0  0  0
  -26.5970  -37.3420   23.8500 N   0  0  0  0  0  0  0  0  0  0  0  0
  -26.2040  -38.2670   24.0080 H   0  0  0  0  0  0  0  0  0  0  0  0
  -26.4920  -31.6670   25.1840 C   0  0  1  0  0  0  0  0  0  0  0  0
  -25.4090  -31.4250   26.2640 C   0  0  0  0  0  1  0  0  0  0  0  0
  -27.0570  -30.2880   24.7700 C   0  0  0  0  0  1  0  0  0  0  0  0
  -27.6570  -32.4430   25.8420 C   0  0  0  0  0  1  0  0  0  0  0  0
  2  3  1  0
  3  5  1  0
  3  1  1  0
  4  2  2  0
  8 12  1  0
  8  6  1  0
  9  2  1  0
  9 11  1  0
  9 10  1  0
 10  6  1  6
 10  7  1  0
 11  8  1  0
 11 10  1  0
 11  7  1  1
 13 18  1  0
 14 15  1  0
 14 13  1  0
 16 15  1  0
 16 23  1  0
 16 17  1  0
 18 12  1  0
 18 17  1  0
 19 12  2  0
 20 21  2  0
 21 40  1  0
 22 21  1  0
 22 25  1  0
 23 24  1  0
 23 20  1  0
 24 22  2  0
 25 26  1  0
 26 27  2  0
 28 31  1  0
 28 27  1  0
 29 28  2  0
 30 29  1  0
 30 25  2  0
 31 32  1  0
 32 33  1  0
 33 34  2  0
 35 34  1  0
 35 39  1  0
 36 35  2  0
 37 32  2  0
 37 36  1  0
 38 37  1  0
 40 41  1  0
 41 43  1  0
 41 44  1  0
 42 40  2  0
 45 20  1  0
 45 46  1  0
 47 45  1  0
 48 49  1  0
 48  1  1  0
 49 50  1  0
 51 52  1  0
 51 50  1  0
 52 54  1  0
 53 64  2  0
 54 59  1  0
 55 63  1  0
 55 65  1  0
 56 62  1  0
 56 58  1  0
 57 63  1  0
 58 57  1  0
 59 58  2  0
 60 61  1  0
 60 54  2  0
 61 56  2  0
 62 55  1  0
 63 53  1  0
 65 67  2  0
 66 65  1  0
 68 66  1  0
 69 78  2  0
 69 74  1  0
 70 66  1  0
 70 74  1  0
 71 70  1  0
 72 73  1  0
 72 71  1  0
 73 69  1  0
 74 75  2  0
 75 76  1  0
 77 76  2  0
 78 77  1  0
 79 53  1  0
 79 80  1  0
 79 89  1  0
 80 83  1  0
 81 85  1  0
 81 80  1  0
 82 81  2  0
 85 84  1  0
 87 85  1  0
 87 88  1  0
 87 86  1  0
 89 92  1  1
 89 90  1  0
 91 89  1  0
M  ISO  4   8 100  12 100  51 101  52 101
M  END
>  <TORSDO>  (3) 
F 22

>  <SCORE>  (3) 
-11.429

>  <name>  (3) 
2

>  <ligand_id>  (3) 
2

>  <original_smiles>  (3) 
[H]c1c([H])c([H])c2c(c1[H])C([H])([H])C([H])([H])C([H])([H])C2([H])N([H])C(=O)C1([H])N(C(=O)C([H])(N([H])C(=O)C([H])(N([H])C([H])([H])[H])C([H])([H])[H])C(C([H])([H])[H])(C([H])([H])[H])C([H])([H])[H])C([H])([H])c2c([H])c(OC([H])([H])C([H])([H])C([H])([H])C([H])([H])C([H])([H])N([H])C(=O)C3([H])C4([H])C([H])([H])C([H])(C(=O)N5C([H])([H])C([H])([H])C([H])([H])C([H])(n6nc(-c7c([H])c([H])c(Oc8c([H])c([H])c(F)c([H])c8F)c([H])c7[H])c(C(=O)N([H])[H])c6N([H])[H])C5([H])[H])C3([H])C4([H])[H])c([H])c([H])c2C1([H])[H]

>  <smiles>  (3) 
[H]c1c([H])c([H])c2c(c1[H])C([H])([H])C([H])([H])C([H])([H])C2([H])N([H])C(=O)C1([H])N(C(=O)C([H])(N([H])C(=O)C([H])(N([H])C([H])([H])[H])C([H])([H])[H])C(C([H])([H])[H])(C([H])([H])[H])C([H])([H])[H])C([H])([H])c2c([H])c(OC([H])([H])C([H])([H])C([H])([H])C([H])([H])C([H])([H])N([H])C(=O)C3([H])C4([H])C([H])([H])C([H])(C(=O)N5C([H])([H])C([H])([H])C([H])([H])C([H])(n6nc(-c7c([H])c([H])c(Oc8c([H])c([H])c(F)c([H])c8F)c([H])c7[H])c(C(=O)N([H])[H])c6N([H])[H])C5([H])[H])C3([H])C4([H])[H])c([H])c([H])c2C1([H])[H]

$$$$
3:0:0
     RDKit          3D

 94102  0  0  1  0  0  0  0  0999 V2000
  -25.7830  -22.4110   20.8090 C   0  0  0  0  0  2  0  0  0  0  0  0
  -27.1720  -21.8020   20.8110 C   0  0  0  0  0  2  0  0  0  0  0  0
  -26.7180  -24.6710   20.9820 C   0  0  0  0  0  2  0  0  0  0  0  0
  -25.7880  -23.6620   21.6660 C   0  0  0  0  0  3  0  0  0  0  0  0
  -28.3100  -22.6740   20.2110 C   0  0  0  0  0  3  0  0  0  0  0  0
  -28.1990  -24.2610   20.6960 C   0  0  0  0  0  3  0  0  0  0  0  0
  -24.3580  -24.2120   21.8100 C   0  0  0  0  0  1  0  0  0  0  0  0
  -29.6270  -21.7360   20.4240 C   0  0  0  0  0  2  0  0  0  0  0  0
  -29.5330  -20.1330   20.0780 C   0  0  0  0  0  3  0  0  0  0  0  0
  -30.6740  -19.2220   20.5180 N   0  0  0  0  0  4  0  0  0  0  0  0
  -31.2690  -19.0460   19.7250 H   0  0  0  0  0  0  0  0  0  0  0  0
  -31.2370  -19.7720   21.1440 H   0  0  0  0  0  0  0  0  0  0  0  0
  -30.4330  -17.8910   21.2510 C   0  0  0  0  0  2  0  0  0  0  0  0
  -30.0310  -16.5600   20.4580 C   0  0  0  0  0  2  0  0  0  0  0  0
  -30.9270  -15.2370   20.4710 C   0  0  0  0  0  0  0  0  0  0  0  0
  -30.8320  -12.9440   19.5170 C   0  0  0  0  0  2  0  0  0  0  0  0
  -29.9300  -13.0080   18.2570 C   0  0  0  0  0  2  0  0  0  0  0  0
  -28.4460  -12.8150   18.6360 C   0  0  0  0  0  2  0  0  0  0  0  0
  -28.0110  -13.7140   19.8240 C   0  0  0  0  0  3  0  0  0  0  0  0
  -29.0320  -13.6470   20.9830 C   0  0  0  0  0  2  0  0  0  0  0  0
  -30.3540  -13.9880   20.4480 N   0  0  0  0  0  0  0  0  0  0  0  0
  -32.1280  -15.3640   20.2230 O   0  0  0  0  0  0  0  0  0  0  0  0
  -25.6000  -14.2900   20.5100 C   0  0  0  0  0  0  0  0  0  0  0  0
  -24.5250  -13.5100   20.8300 C   0  0  0  0  0  0  0  0  0  0  0  0
  -24.9890  -12.1590   20.7780 C   0  0  0  0  0  0  0  0  0  0  0  0
  -26.6510  -13.4180   20.2740 N   0  0  0  0  0  0  0  0  0  0  0  0
  -26.2880  -12.1290   20.4970 N   0  0  0  0  0  0  0  0  0  0  0  0
  -24.2570  -10.8940   20.9200 C   0  0  0  0  0  0  0  0  0  0  0  0
  -24.6210   -9.9360   21.8930 C   0  0  0  0  0  3  0  0  0  0  0  0
  -23.8910   -8.7350   22.0190 C   0  0  0  0  0  3  0  0  0  0  0  0
  -22.7820   -8.4810   21.1740 C   0  0  0  0  0  0  0  0  0  0  0  0
  -22.4380   -9.4310   20.1960 C   0  0  0  0  0  3  0  0  0  0  0  0
  -23.1700  -10.6230   20.0670 C   0  0  0  0  0  3  0  0  0  0  0  0
  -22.0320   -7.3300   21.2060 O   0  0  0  0  0  0  0  0  0  0  0  0
  -21.8280   -6.6380   22.3730 C   0  0  0  0  0  0  0  0  0  0  0  0
  -21.2080   -7.2270   23.4950 C   0  0  0  0  0  3  0  0  0  0  0  0
  -20.9540   -6.4550   24.6460 C   0  0  0  0  0  3  0  0  0  0  0  0
  -21.3180   -5.0960   24.6760 C   0  0  0  0  0  0  0  0  0  0  0  0
  -21.9320   -4.5050   23.5580 C   0  0  0  0  0  3  0  0  0  0  0  0
  -22.1850   -5.2740   22.4090 C   0  0  0  0  0  0  0  0  0  0  0  0
  -22.7590   -4.6940   21.3260 F   0  0  0  0  0  0  0  0  0  0  0  0
  -21.0690   -4.3530   25.7780 F   0  0  0  0  0  0  0  0  0  0  0  0
  -23.1230  -13.9830   21.0790 C   0  0  0  0  0  0  0  0  0  0  0  0
  -22.3720  -13.2770   21.9120 N   0  0  0  0  0  0  0  0  0  0  0  0
  -22.7020  -15.0210   20.5660 O   0  0  0  0  0  0  0  0  0  0  0  0
  -22.7290  -12.4390   22.3460 H   0  0  0  0  0  0  0  0  0  0  0  0
  -21.4340  -13.5850   22.1190 H   0  0  0  0  0  0  0  0  0  0  0  0
  -25.7710  -15.6650   20.3790 N   0  0  0  0  0  0  0  0  0  0  0  0
  -24.9880  -16.3040   20.4810 H   0  0  0  0  0  0  0  0  0  0  0  0
  -26.6140  -16.1130   20.0450 H   0  0  0  0  0  0  0  0  0  0  0  0
  -28.1910  -19.0260   18.1300 C   0  0  0  0  0  1  0  0  0  0  0  0
  -29.3470  -19.9480   18.5470 C   0  0  0  0  0  2  0  0  0  0  0  0
  -28.7020  -25.4530   19.7130 C   0  0  0  0  0  2  0  0  0  0  0  0
  -28.6350  -26.9270   20.0440 O   0  0  0  0  0  0  0  0  0  0  0  0
  -24.7160  -31.9720   23.3950 C   0  0  0  0  0  0  0  0  0  0  0  0
  -27.4860  -27.7490   19.9800 C   0  0  0  0  0  0  0  0  0  0  0  0
  -23.5610  -30.6680   21.6410 C   0  0  0  0  0  3  0  0  0  0  0  0
  -25.0640  -29.2910   20.0800 C   0  0  0  0  0  0  0  0  0  0  0  0
  -26.0830  -31.0860   21.4860 C   0  0  0  0  0  2  0  0  0  0  0  0
  -26.2110  -29.7610   20.7330 C   0  0  0  0  0  0  0  0  0  0  0  0
  -27.4190  -29.0010   20.6750 C   0  0  0  0  0  3  0  0  0  0  0  0
  -26.3330  -27.3730   19.2570 C   0  0  0  0  0  3  0  0  0  0  0  0
  -25.1300  -28.1100   19.3260 C   0  0  0  0  0  3  0  0  0  0  0  0
  -23.7950  -30.1130   20.2100 C   0  0  0  0  0  2  0  0  0  0  0  0
  -24.8050  -31.2550   22.2340 N   0  0  0  0  0  0  0  0  0  0  0  0
  -23.6280  -32.1620   23.9570 O   0  0  0  0  0  0  0  0  0  0  0  0
  -22.9380  -29.5550   22.5170 C   0  0  0  0  0  0  0  0  0  0  0  0
  -21.6230  -29.3190   22.3530 N   0  0  0  0  0  0  0  0  0  0  0  0
  -23.6380  -28.9040   23.2950 O   0  0  0  0  0  0  0  0  0  0  0  0
  -21.1150  -29.8800   21.6870 H   0  0  0  0  0  0  0  0  0  0  0  0
  -18.3120  -27.9250   22.7000 C   0  0  0  0  0  0  0  0  0  0  0  0
  -20.8510  -28.2810   23.0320 C   0  0  0  0  0  3  0  0  0  0  0  0
  -21.0340  -26.9150   22.3270 C   0  0  0  0  0  2  0  0  0  0  0  0
  -19.9550  -26.6420   21.2750 C   0  0  0  0  0  2  0  0  0  0  0  0
  -18.5620  -26.6540   21.9110 C   0  0  0  0  0  2  0  0  0  0  0  0
  -19.3870  -28.7050   23.2080 C   0  0  0  0  0  0  0  0  0  0  0  0
  -19.0990  -29.8980   23.9030 C   0  0  0  0  0  3  0  0  0  0  0  0
  -17.7690  -30.3150   24.0940 C   0  0  0  0  0  3  0  0  0  0  0  0
  -16.7070  -29.5340   23.5960 C   0  0  0  0  0  3  0  0  0  0  0  0
  -16.9810  -28.3400   22.9080 C   0  0  0  0  0  3  0  0  0  0  0  0
  -25.9820  -32.5960   24.0610 C   0  0  0  0  0  3  0  0  0  0  0  0
  -25.6550  -33.9840   24.4140 N   0  0  0  0  0  0  0  0  0  0  0  0
  -25.9960  -35.0570   23.6910 C   0  0  0  0  0  0  0  0  0  0  0  0
  -26.6910  -34.9820   22.6740 O   0  0  0  0  0  0  0  0  0  0  0  0
  -25.0390  -34.1160   25.2020 H   0  0  0  0  0  0  0  0  0  0  0  0
  -24.2630  -36.8470   23.3420 C   0  0  0  0  0  1  0  0  0  0  0  0
  -25.4880  -36.4310   24.1690 C   0  0  0  0  0  3  0  0  0  0  0  0
  -27.5930  -37.3220   25.0690 C   0  0  0  0  0  1  0  0  0  0  0  0
  -26.5120  -37.4960   24.1030 N   0  0  0  0  0  0  0  0  0  0  0  0
  -26.0930  -38.4110   24.2470 H   0  0  0  0  0  0  0  0  0  0  0  0
  -26.4640  -31.7990   25.3350 C   0  0  1  0  0  0  0  0  0  0  0  0
  -25.3420  -31.5260   26.3620 C   0  0  0  0  0  1  0  0  0  0  0  0
  -27.0710  -30.4360   24.9300 C   0  0  0  0  0  1  0  0  0  0  0  0
  -27.5810  -32.5890   26.0540 C   0  0  0  0  0  1  0  0  0  0  0  0
  1  2  1  0
  1  4  1  0
  3  4  1  0
  4  7  1  0
  5  8  1  0
  5  6  1  0
  5  2  1  0
  6 53  1  0
  6  3  1  0
  9 52  1  0
  9  8  1  0
  9 10  1  0
 10 12  1  0
 10 13  1  0
 11 10  1  0
 14 15  1  0
 14 13  1  0
 16 21  1  0
 17 18  1  0
 17 16  1  0
 19 18  1  0
 19 26  1  0
 19 20  1  0
 21 15  1  0
 21 20  1  0
 22 15  2  0
 23 24  2  0
 24 43  1  0
 25 24  1  0
 25 28  1  0
 26 27  1  0
 26 23  1  0
 27 25  2  0
 28 29  1  0
 29 30  2  0
 31 34  1  0
 31 30  1  0
 32 31  2  0
 33 32  1  0
 33 28  2  0
 34 35  1  0
 35 40  2  0
 35 36  1  0
 36 37  2  0
 37 38  1  0
 38 42  1  0
 39 38  2  0
 40 39  1  0
 41 40  1  0
 43 44  1  0
 44 47  1  0
 44 46  1  0
 45 43  2  0
 48 49  1  0
 48 23  1  0
 50 48  1  0
 51 52  1  0
 53 54  1  0
 55 66  2  0
 56 54  1  0
 56 61  1  0
 57 65  1  0
 57 67  1  0
 58 64  1  0
 58 60  1  0
 59 65  1  0
 60 59  1  0
 61 60  2  0
 62 63  1  0
 62 56  2  0
 63 58  2  0
 64 57  1  0
 65 55  1  0
 67 69  2  0
 68 67  1  0
 70 68  1  0
 71 80  2  0
 71 76  1  0
 72 68  1  0
 72 76  1  0
 73 72  1  0
 74 75  1  0
 74 73  1  0
 75 71  1  0
 76 77  2  0
 77 78  1  0
 79 78  2  0
 80 79  1  0
 81 55  1  0
 81 82  1  0
 81 91  1  0
 82 85  1  0
 83 87  1  0
 83 82  1  0
 84 83  2  0
 87 86  1  0
 89 87  1  0
 89 90  1  0
 89 88  1  0
 91 94  1  1
 91 92  1  0
 93 91  1  0
M  ISO  4  14 100  15 100  53 101  54 101
M  END
>  <TORSDO>  (4) 
F 23

>  <SCORE>  (4) 
-11.452

>  <name>  (4) 
3

>  <ligand_id>  (4) 
3

>  <original_smiles>  (4) 
[H]c1c([H])c([H])c2c(c1[H])C([H])([H])C([H])([H])C([H])([H])C2([H])N([H])C(=O)C1([H])N(C(=O)C([H])(N([H])C(=O)C([H])(N([H])C([H])([H])[H])C([H])([H])[H])C(C([H])([H])[H])(C([H])([H])[H])C([H])([H])[H])C([H])([H])c2c([H])c(OC([H])([H])C3([H])C([H])([H])C([H])(C([H])([H])[H])C([H])([H])C([H])([H])C3([H])C([H])([H])C([H])(C([H])([H])C([H])([H])[H])[N+]([H])([H])C([H])([H])C([H])([H])C(=O)N3C([H])([H])C([H])([H])C([H])([H])C([H])(n4nc(-c5c([H])c([H])c(Oc6c([H])c([H])c(F)c([H])c6F)c([H])c5[H])c(C(=O)N([H])[H])c4N([H])[H])C3([H])[H])c([H])c([H])c2C1([H])[H]

>  <smiles>  (4) 
[H]c1c([H])c([H])c2c(c1[H])C([H])([H])C([H])([H])C([H])([H])C2([H])N([H])C(=O)C1([H])N(C(=O)C([H])(N([H])C(=O)C([H])(N([H])C([H])([H])[H])C([H])([H])[H])C(C([H])([H])[H])(C([H])([H])[H])C([H])([H])[H])C([H])([H])c2c([H])c(OC([H])([H])C3([H])C([H])([H])C([H])(C([H])([H])[H])C([H])([H])C([H])([H])C3([H])C([H])([H])C([H])(C([H])([H])C([H])([H])[H])[N+]([H])([H])C([H])([H])C([H])([H])C(=O)N3C([H])([H])C([H])([H])C([H])([H])C([H])(n4nc(-c5c([H])c([H])c(Oc6c([H])c([H])c(F)c([H])c6F)c([H])c5[H])c(C(=O)N([H])[H])c4N([H])[H])C3([H])[H])c([H])c([H])c2C1([H])[H]

$$$$
4:0:0
     RDKit          3D

 92101  0  0  1  0  0  0  0  0999 V2000
  -29.0980  -20.0600   21.1020 C   0  0  0  0  0  3  0  0  0  0  0  0
  -28.6540  -20.8760   19.8860 C   0  0  0  0  0  3  0  0  0  0  0  0
  -29.5760  -19.2300   19.9090 C   0  0  0  0  0  3  0  0  0  0  0  0
  -30.0100  -21.6760   22.7980 C   0  0  0  0  0  3  0  0  0  0  0  0
  -30.0870  -20.5070   22.1310 C   0  0  0  0  0  0  0  0  0  0  0  0
  -31.0220  -22.1110   23.8420 C   0  0  0  0  0  2  0  0  0  0  0  0
  -31.2060  -19.5060   22.4180 C   0  0  0  0  0  2  0  0  0  0  0  0
  -32.2910  -21.2400   23.8130 C   0  0  0  0  0  2  0  0  0  0  0  0
  -31.9410  -19.8130   23.6680 N   0  0  0  0  0  4  0  0  0  0  0  0
  -32.7810  -19.2580   23.6980 H   0  0  0  0  0  0  0  0  0  0  0  0
  -31.3730  -19.5410   24.4540 H   0  0  0  0  0  0  0  0  0  0  0  0
  -30.1170  -22.9870   19.4190 C   0  0  0  0  0  2  0  0  0  0  0  0
  -28.8530  -22.6710   19.7380 C   0  0  0  0  0  0  0  0  0  0  0  0
  -27.7840  -24.1370   19.8740 C   0  0  0  0  0  2  0  0  0  0  0  0
  -28.0360  -25.8420   19.8790 O   0  0  0  0  0  0  0  0  0  0  0  0
  -24.5910  -31.9410   23.0930 C   0  0  0  0  0  0  0  0  0  0  0  0
  -27.0410  -27.0110   19.8990 C   0  0  0  0  0  0  0  0  0  0  0  0
  -23.3480  -30.5700   21.4750 C   0  0  0  0  0  3  0  0  0  0  0  0
  -24.7500  -28.9770   19.9710 C   0  0  0  0  0  0  0  0  0  0  0  0
  -25.9150  -30.7560   21.2500 C   0  0  0  0  0  2  0  0  0  0  0  0
  -25.9640  -29.3460   20.5610 C   0  0  0  0  0  0  0  0  0  0  0  0
  -27.0980  -28.3900   20.4950 C   0  0  0  0  0  3  0  0  0  0  0  0
  -25.7880  -26.8320   19.2650 C   0  0  0  0  0  3  0  0  0  0  0  0
  -24.6940  -27.7450   19.3000 C   0  0  0  0  0  3  0  0  0  0  0  0
  -23.5360  -29.9090   20.0800 C   0  0  0  0  0  2  0  0  0  0  0  0
  -24.6430  -31.1190   21.9920 N   0  0  0  0  0  0  0  0  0  0  0  0
  -23.5180  -32.2200   23.6550 O   0  0  0  0  0  0  0  0  0  0  0  0
  -22.6820  -29.5630   22.4500 C   0  0  0  0  0  0  0  0  0  0  0  0
  -21.3540  -29.3630   22.3400 N   0  0  0  0  0  0  0  0  0  0  0  0
  -23.3700  -28.9590   23.2760 O   0  0  0  0  0  0  0  0  0  0  0  0
  -20.8470  -29.8990   21.6490 H   0  0  0  0  0  0  0  0  0  0  0  0
  -18.0280  -27.9920   22.8380 C   0  0  0  0  0  0  0  0  0  0  0  0
  -20.5680  -28.3990   23.1200 C   0  0  0  0  0  3  0  0  0  0  0  0
  -20.7510  -26.9640   22.5740 C   0  0  0  0  0  2  0  0  0  0  0  0
  -19.6780  -26.5660   21.5550 C   0  0  0  0  0  2  0  0  0  0  0  0
  -18.2840  -26.6450   22.1820 C   0  0  0  0  0  2  0  0  0  0  0  0
  -19.1000  -28.8220   23.2640 C   0  0  0  0  0  0  0  0  0  0  0  0
  -18.8050  -30.0750   23.8410 C   0  0  0  0  0  3  0  0  0  0  0  0
  -17.4720  -30.5020   23.9960 C   0  0  0  0  0  3  0  0  0  0  0  0
  -16.4160  -29.6710   23.5840 C   0  0  0  0  0  3  0  0  0  0  0  0
  -16.6940  -28.4180   23.0100 C   0  0  0  0  0  3  0  0  0  0  0  0
  -25.8770  -32.5840   23.6960 C   0  0  0  0  0  3  0  0  0  0  0  0
  -26.4040  -31.8250   24.9760 C   0  0  1  0  0  0  0  0  0  0  0  0
  -25.3260  -31.6150   26.0650 C   0  0  0  0  0  1  0  0  0  0  0  0
  -26.9690  -30.4360   24.6050 C   0  0  0  0  0  1  0  0  0  0  0  0
  -27.5750  -32.6150   25.6080 C   0  0  0  0  0  1  0  0  0  0  0  0
  -25.5720  -33.9870   24.0360 N   0  0  0  0  0  0  0  0  0  0  0  0
  -25.9240  -35.0530   23.3050 C   0  0  0  0  0  0  0  0  0  0  0  0
  -26.5990  -34.9580   22.2760 O   0  0  0  0  0  0  0  0  0  0  0  0
  -24.9730  -34.1340   24.8360 H   0  0  0  0  0  0  0  0  0  0  0  0
  -24.2430  -36.8980   22.9620 C   0  0  0  0  0  1  0  0  0  0  0  0
  -25.4580  -36.4420   23.7870 C   0  0  0  0  0  3  0  0  0  0  0  0
  -27.5850  -37.2760   24.6900 C   0  0  0  0  0  1  0  0  0  0  0  0
  -26.5140  -37.4770   23.7180 N   0  0  0  0  0  0  0  0  0  0  0  0
  -26.1210  -38.4030   23.8670 H   0  0  0  0  0  0  0  0  0  0  0  0
  -29.3750  -17.3700   20.0560 C   0  0  0  0  0  2  0  0  0  0  0  0
  -30.3040  -15.7870   19.9420 C   0  0  0  0  0  0  0  0  0  0  0  0
  -30.4530  -13.2580   19.1550 C   0  0  0  0  0  2  0  0  0  0  0  0
  -29.5330  -12.9080   17.9500 C   0  0  0  0  0  2  0  0  0  0  0  0
  -28.1090  -12.5620   18.4160 C   0  0  0  0  0  2  0  0  0  0  0  0
  -27.6160  -13.5460   19.5020 C   0  0  0  0  0  3  0  0  0  0  0  0
  -28.6640  -13.8170   20.6010 C   0  0  0  0  0  2  0  0  0  0  0  0
  -29.8500  -14.4090   19.9500 N   0  0  0  0  0  0  0  0  0  0  0  0
  -31.5250  -15.7970   19.7020 O   0  0  0  0  0  0  0  0  0  0  0  0
  -25.2610  -14.0400   20.3290 C   0  0  0  0  0  0  0  0  0  0  0  0
  -24.2220  -13.2390   20.7110 C   0  0  0  0  0  0  0  0  0  0  0  0
  -24.7120  -11.8980   20.6510 C   0  0  0  0  0  0  0  0  0  0  0  0
  -26.3120  -13.1880   20.0440 N   0  0  0  0  0  0  0  0  0  0  0  0
  -25.9970  -11.8920   20.3080 N   0  0  0  0  0  0  0  0  0  0  0  0
  -24.0080  -10.6220   20.8420 C   0  0  0  0  0  0  0  0  0  0  0  0
  -24.4690   -9.6510   21.7580 C   0  0  0  0  0  3  0  0  0  0  0  0
  -23.7600   -8.4430   21.9390 C   0  0  0  0  0  3  0  0  0  0  0  0
  -22.5760   -8.1970   21.2040 C   0  0  0  0  0  0  0  0  0  0  0  0
  -22.1350   -9.1570   20.2760 C   0  0  0  0  0  3  0  0  0  0  0  0
  -22.8440  -10.3560   20.0940 C   0  0  0  0  0  3  0  0  0  0  0  0
  -21.8380   -7.0420   21.2950 O   0  0  0  0  0  0  0  0  0  0  0  0
  -21.8060   -6.2960   22.4460 C   0  0  0  0  0  0  0  0  0  0  0  0
  -21.3350   -6.8280   23.6660 C   0  0  0  0  0  3  0  0  0  0  0  0
  -21.2540   -6.0060   24.8080 C   0  0  0  0  0  3  0  0  0  0  0  0
  -21.6330   -4.6540   24.7310 C   0  0  0  0  0  0  0  0  0  0  0  0
  -22.0980   -4.1200   23.5160 C   0  0  0  0  0  3  0  0  0  0  0  0
  -22.1800   -4.9390   22.3760 C   0  0  0  0  0  0  0  0  0  0  0  0
  -22.6080   -4.4140   21.2020 F   0  0  0  0  0  0  0  0  0  0  0  0
  -21.5500   -3.8620   25.8260 F   0  0  0  0  0  0  0  0  0  0  0  0
  -22.8230  -13.6910   21.0150 C   0  0  0  0  0  0  0  0  0  0  0  0
  -22.1260  -12.9780   21.8930 N   0  0  0  0  0  0  0  0  0  0  0  0
  -22.3590  -14.7110   20.5090 O   0  0  0  0  0  0  0  0  0  0  0  0
  -22.5140  -12.1530   22.3220 H   0  0  0  0  0  0  0  0  0  0  0  0
  -21.1890  -13.2640   22.1390 H   0  0  0  0  0  0  0  0  0  0  0  0
  -25.3970  -15.4170   20.1680 N   0  0  0  0  0  0  0  0  0  0  0  0
  -24.6240  -16.0570   20.3130 H   0  0  0  0  0  0  0  0  0  0  0  0
  -26.2330  -15.8760   19.8320 H   0  0  0  0  0  0  0  0  0  0  0  0
  1  5  1  0
  2 13  1  0
  2  3  1  0
  2  1  1  0
  3 56  1  0
  3  1  1  0
  4  6  1  0
  5  7  1  0
  5  4  2  0
  7  9  1  0
  8  6  1  0
  9 10  1  0
  9  8  1  0
  9 11  1  0
 12 13  2  0
 13 14  1  0
 14 15  1  0
 15 17  1  0
 16 27  2  0
 17 22  1  0
 18 26  1  0
 18 28  1  0
 19 25  1  0
 19 21  1  0
 20 26  1  0
 21 20  1  0
 22 21  2  0
 23 24  1  0
 23 17  2  0
 24 19  2  0
 25 18  1  0
 26 16  1  0
 28 30  2  0
 29 28  1  0
 31 29  1  0
 32 41  2  0
 32 37  1  0
 33 29  1  0
 33 37  1  0
 34 33  1  0
 35 36  1  0
 35 34  1  0
 36 32  1  0
 37 38  2  0
 38 39  1  0
 40 39  2  0
 41 40  1  0
 42 16  1  0
 42 47  1  0
 42 43  1  0
 43 46  1  1
 43 44  1  0
 45 43  1  0
 47 50  1  0
 48 52  1  0
 48 47  1  0
 49 48  2  0
 52 51  1  0
 54 52  1  0
 54 55  1  0
 54 53  1  0
 57 63  1  0
 57 56  1  0
 58 63  1  0
 59 60  1  0
 59 58  1  0
 61 60  1  0
 61 68  1  0
 61 62  1  0
 63 62  1  0
 64 57  2  0
 65 66  2  0
 66 85  1  0
 67 66  1  0
 67 70  1  0
 68 69  1  0
 68 65  1  0
 69 67  2  0
 70 71  1  0
 71 72  2  0
 73 76  1  0
 73 72  1  0
 74 73  2  0
 75 74  1  0
 75 70  2  0
 76 77  1  0
 77 78  1  0
 78 79  2  0
 80 79  1  0
 80 84  1  0
 81 80  2  0
 82 77  2  0
 82 81  1  0
 83 82  1  0
 85 86  1  0
 86 89  1  0
 86 88  1  0
 87 85  2  0
 90 91  1  0
 90 65  1  0
 92 90  1  0
M  ISO  4  14 101  15 101  56 100  57 100
M  END
>  <TORSDO>  (5) 
F 20

>  <SCORE>  (5) 
-15.792

>  <name>  (5) 
4

>  <ligand_id>  (5) 
4

>  <original_smiles>  (5) 
[H]C([H])=C(C([H])([H])Oc1c([H])c([H])c2c(c1[H])C([H])([H])N(C(=O)C([H])(N([H])C(=O)C([H])(N([H])C([H])([H])[H])C([H])([H])[H])C(C([H])([H])[H])(C([H])([H])[H])C([H])([H])[H])C([H])(C(=O)N([H])C1([H])c3c([H])c([H])c([H])c([H])c3C([H])([H])C([H])([H])C1([H])[H])C2([H])[H])C1([H])C([H])(C2=C([H])C([H])([H])C([H])([H])[N+]([H])([H])C2([H])[H])C1([H])C([H])([H])C(=O)N1C([H])([H])C([H])([H])C([H])([H])C([H])(n2nc(-c3c([H])c([H])c(Oc4c([H])c([H])c(F)c([H])c4F)c([H])c3[H])c(C(=O)N([H])[H])c2N([H])[H])C1([H])[H]

>  <smiles>  (5) 
[H]C([H])=C(C([H])([H])Oc1c([H])c([H])c2c(c1[H])C([H])([H])N(C(=O)C([H])(N([H])C(=O)C([H])(N([H])C([H])([H])[H])C([H])([H])[H])C(C([H])([H])[H])(C([H])([H])[H])C([H])([H])[H])C([H])(C(=O)N([H])C1([H])c3c([H])c([H])c([H])c([H])c3C([H])([H])C([H])([H])C1([H])[H])C2([H])[H])C1([H])C([H])(C2=C([H])C([H])([H])C([H])([H])[N+]([H])([H])C2([H])[H])C1([H])C([H])([H])C(=O)N1C([H])([H])C([H])([H])C([H])([H])C([H])(n2nc(-c3c([H])c([H])c(Oc4c([H])c([H])c(F)c([H])c4F)c([H])c3[H])c(C(=O)N([H])[H])c2N([H])[H])C1([H])[H]

$$$$
5:0:0
     RDKit          3D

 89 97  0  0  1  0  0  0  0  0999 V2000
  -29.7030  -20.1570   19.8560 C   0  0  0  0  0  0  0  0  0  0  0  0
  -29.1820  -21.2830   20.4440 N   0  0  0  0  0  0  0  0  0  0  0  0
  -30.1430  -20.2420   18.7080 O   0  0  0  0  0  0  0  0  0  0  0  0
  -28.8610  -21.2080   21.4010 H   0  0  0  0  0  0  0  0  0  0  0  0
  -31.1690  -18.2370   20.6900 C   0  0  0  0  0  2  0  0  0  0  0  0
  -29.7720  -18.8190   20.6470 C   0  0  0  0  0  3  0  0  0  0  0  0
  -30.1070  -17.3650   20.0620 C   0  0  1  0  0  0  0  0  0  0  0  0
  -30.0870  -17.1480   18.5430 C   0  0  0  0  0  1  0  0  0  0  0  0
  -29.7890  -15.9930   20.7960 C   0  0  0  0  0  2  0  0  0  0  0  0
  -30.5940  -14.6680   20.4310 C   0  0  0  0  0  0  0  0  0  0  0  0
  -30.3860  -12.4220   19.3840 C   0  0  0  0  0  2  0  0  0  0  0  0
  -29.4660  -12.5710   18.1530 C   0  0  0  0  0  2  0  0  0  0  0  0
  -27.9860  -12.4100   18.5530 C   0  0  0  0  0  2  0  0  0  0  0  0
  -27.6110  -13.2730   19.7880 C   0  0  0  0  0  3  0  0  0  0  0  0
  -28.6530  -13.1260   20.9200 C   0  0  0  0  0  2  0  0  0  0  0  0
  -29.9730  -13.4470   20.3650 N   0  0  0  0  0  0  0  0  0  0  0  0
  -31.7690  -14.7790   20.0690 O   0  0  0  0  0  0  0  0  0  0  0  0
  -25.2130  -13.8880   20.4770 C   0  0  0  0  0  0  0  0  0  0  0  0
  -24.1380  -13.1240   20.8350 C   0  0  0  0  0  0  0  0  0  0  0  0
  -24.5950  -11.7700   20.8300 C   0  0  0  0  0  0  0  0  0  0  0  0
  -26.2570  -13.0010   20.2610 N   0  0  0  0  0  0  0  0  0  0  0  0
  -25.8890  -11.7240   20.5370 N   0  0  0  0  0  0  0  0  0  0  0  0
  -23.8630  -10.5130   21.0240 C   0  0  0  0  0  0  0  0  0  0  0  0
  -24.2870   -9.5490   21.9650 C   0  0  0  0  0  3  0  0  0  0  0  0
  -23.5580   -8.3530   22.1440 C   0  0  0  0  0  3  0  0  0  0  0  0
  -22.3910   -8.1140   21.3800 C   0  0  0  0  0  0  0  0  0  0  0  0
  -21.9890   -9.0640   20.4240 C   0  0  0  0  0  3  0  0  0  0  0  0
  -22.7200  -10.2520   20.2460 C   0  0  0  0  0  3  0  0  0  0  0  0
  -21.6320   -6.9720   21.4680 O   0  0  0  0  0  0  0  0  0  0  0  0
  -21.5760   -6.2340   22.6240 C   0  0  0  0  0  0  0  0  0  0  0  0
  -21.1520   -6.7940   23.8480 C   0  0  0  0  0  3  0  0  0  0  0  0
  -21.0420   -5.9800   24.9940 C   0  0  0  0  0  3  0  0  0  0  0  0
  -21.3470   -4.6090   24.9170 C   0  0  0  0  0  0  0  0  0  0  0  0
  -21.7660   -4.0470   23.6960 C   0  0  0  0  0  3  0  0  0  0  0  0
  -21.8770   -4.8580   22.5530 C   0  0  0  0  0  0  0  0  0  0  0  0
  -22.2600   -4.3080   21.3760 F   0  0  0  0  0  0  0  0  0  0  0  0
  -21.2360   -3.8250   26.0140 F   0  0  0  0  0  0  0  0  0  0  0  0
  -22.7370  -13.6070   21.0830 C   0  0  0  0  0  0  0  0  0  0  0  0
  -21.9950  -12.9170   21.9420 N   0  0  0  0  0  0  0  0  0  0  0  0
  -22.3100  -14.6280   20.5480 O   0  0  0  0  0  0  0  0  0  0  0  0
  -22.3600  -12.0950   22.4000 H   0  0  0  0  0  0  0  0  0  0  0  0
  -21.0500  -13.2120   22.1430 H   0  0  0  0  0  0  0  0  0  0  0  0
  -25.3910  -15.2570   20.2930 N   0  0  0  0  0  0  0  0  0  0  0  0
  -24.6320  -15.9240   20.3870 H   0  0  0  0  0  0  0  0  0  0  0  0
  -26.2550  -15.6810   19.9800 H   0  0  0  0  0  0  0  0  0  0  0  0
  -28.9950  -22.6050   19.7380 C   0  0  0  0  0  2  0  0  0  0  0  0
  -28.7240  -23.9370   20.5670 C   0  0  0  0  0  2  0  0  0  0  0  0
  -28.5360  -25.2380   19.6650 C   0  0  0  0  0  2  0  0  0  0  0  0
  -28.3900  -26.5730   20.2750 O   0  0  0  0  0  0  0  0  0  0  0  0
  -24.5930  -31.8800   23.2450 C   0  0  0  0  0  0  0  0  0  0  0  0
  -27.2240  -27.3470   20.1960 C   0  0  0  0  0  0  0  0  0  0  0  0
  -23.3880  -30.4790   21.6050 C   0  0  0  0  0  3  0  0  0  0  0  0
  -24.8400  -28.9300   20.1810 C   0  0  0  0  0  0  0  0  0  0  0  0
  -25.9190  -30.8140   21.4100 C   0  0  0  0  0  2  0  0  0  0  0  0
  -26.0050  -29.4360   20.7690 C   0  0  0  0  0  0  0  0  0  0  0  0
  -27.1940  -28.6560   20.7660 C   0  0  0  0  0  3  0  0  0  0  0  0
  -26.0270  -26.8760   19.6090 C   0  0  0  0  0  3  0  0  0  0  0  0
  -24.8510  -27.6540   19.5960 C   0  0  0  0  0  3  0  0  0  0  0  0
  -23.6040  -29.8040   20.2250 C   0  0  0  0  0  2  0  0  0  0  0  0
  -24.6520  -31.0730   22.1460 N   0  0  0  0  0  0  0  0  0  0  0  0
  -23.5100  -32.1570   23.7830 O   0  0  0  0  0  0  0  0  0  0  0  0
  -22.7280  -29.4640   22.5660 C   0  0  0  0  0  0  0  0  0  0  0  0
  -21.4020  -29.2880   22.4370 N   0  0  0  0  0  0  0  0  0  0  0  0
  -23.4050  -28.8370   23.3840 O   0  0  0  0  0  0  0  0  0  0  0  0
  -20.9150  -29.8430   21.7470 H   0  0  0  0  0  0  0  0  0  0  0  0
  -18.0250  -28.0940   22.9330 C   0  0  0  0  0  0  0  0  0  0  0  0
  -20.5830  -28.3530   23.2100 C   0  0  0  0  0  3  0  0  0  0  0  0
  -20.6870  -26.9220   22.6370 C   0  0  0  0  0  2  0  0  0  0  0  0
  -19.5860  -26.5950   21.6210 C   0  0  0  0  0  2  0  0  0  0  0  0
  -18.2040  -26.7430   22.2630 C   0  0  0  0  0  2  0  0  0  0  0  0
  -19.1430  -28.8570   23.3660 C   0  0  0  0  0  0  0  0  0  0  0  0
  -18.9220  -30.1210   23.9530 C   0  0  0  0  0  3  0  0  0  0  0  0
  -17.6170  -30.6200   24.1210 C   0  0  0  0  0  3  0  0  0  0  0  0
  -16.5150  -29.8540   23.7050 C   0  0  0  0  0  3  0  0  0  0  0  0
  -16.7200  -28.5940   23.1140 C   0  0  0  0  0  3  0  0  0  0  0  0
  -25.8770  -32.5130   23.8670 C   0  0  0  0  0  3  0  0  0  0  0  0
  -25.5680  -33.9130   24.1940 N   0  0  0  0  0  0  0  0  0  0  0  0
  -25.9010  -34.9650   23.4350 C   0  0  0  0  0  0  0  0  0  0  0  0
  -26.5710  -34.8590   22.4040 O   0  0  0  0  0  0  0  0  0  0  0  0
  -24.9740  -34.0690   24.9950 H   0  0  0  0  0  0  0  0  0  0  0  0
  -24.1750  -36.7630   23.0790 C   0  0  0  0  0  1  0  0  0  0  0  0
  -25.4130  -36.3530   23.8920 C   0  0  0  0  0  3  0  0  0  0  0  0
  -27.5460  -37.2340   24.7300 C   0  0  0  0  0  1  0  0  0  0  0  0
  -26.4470  -37.4050   23.7870 N   0  0  0  0  0  0  0  0  0  0  0  0
  -26.0380  -38.3230   23.9380 H   0  0  0  0  0  0  0  0  0  0  0  0
  -26.3920  -31.7440   25.1450 C   0  0  1  0  0  0  0  0  0  0  0  0
  -25.2980  -31.5130   26.2140 C   0  0  0  0  0  1  0  0  0  0  0  0
  -26.9710  -30.3630   24.7570 C   0  0  0  0  0  1  0  0  0  0  0  0
  -27.5430  -32.5350   25.8110 C   0  0  0  0  0  1  0  0  0  0  0  0
  1  2  1  0
  2  4  1  0
  3  1  2  0
  6  1  1  0
  6  5  1  0
  7  8  1  6
  7  6  1  0
  7  5  1  0
  7  9  1  0
 10  9  1  0
 11 16  1  0
 12 13  1  0
 12 11  1  0
 14 13  1  0
 14 21  1  0
 14 15  1  0
 16 10  1  0
 16 15  1  0
 17 10  2  0
 18 19  2  0
 19 38  1  0
 20 19  1  0
 20 23  1  0
 21 18  1  0
 21 22  1  0
 22 20  2  0
 23 24  1  0
 24 25  2  0
 26 29  1  0
 26 25  1  0
 27 26  2  0
 28 27  1  0
 28 23  2  0
 29 30  1  0
 30 31  1  0
 31 32  2  0
 33 32  1  0
 33 37  1  0
 34 33  2  0
 35 30  2  0
 35 34  1  0
 36 35  1  0
 38 39  1  0
 39 42  1  0
 39 41  1  0
 40 38  2  0
 43 44  1  0
 43 18  1  0
 45 43  1  0
 46  2  1  0
 46 47  1  0
 48 49  1  0
 48 47  1  0
 50 61  2  0
 51 49  1  0
 51 56  1  0
 52 60  1  0
 52 62  1  0
 53 59  1  0
 53 55  1  0
 54 60  1  0
 55 54  1  0
 56 55  2  0
 57 51  2  0
 58 57  1  0
 58 53  2  0
 59 52  1  0
 60 50  1  0
 62 64  2  0
 63 62  1  0
 65 63  1  0
 66 75  2  0
 66 71  1  0
 67 63  1  0
 67 71  1  0
 68 67  1  0
 69 70  1  0
 69 68  1  0
 70 66  1  0
 71 72  2  0
 72 73  1  0
 74 73  2  0
 75 74  1  0
 76 50  1  0
 76 77  1  0
 76 86  1  0
 77 80  1  0
 78 82  1  0
 78 77  1  0
 79 78  2  0
 82 81  1  0
 84 82  1  0
 84 85  1  0
 84 83  1  0
 86 89  1  1
 86 87  1  0
 88 86  1  0
M  ISO  4   9 100  10 100  48 101  49 101
M  END
>  <TORSDO>  (6) 
F 21

>  <SCORE>  (6) 
-13.313

>  <name>  (6) 
5

>  <ligand_id>  (6) 
5

>  <original_smiles>  (6) 
[H]c1c([H])c([H])c2c(c1[H])C([H])([H])C([H])([H])C([H])([H])C2([H])N([H])C(=O)C1([H])N(C(=O)C([H])(N([H])C(=O)C([H])(N([H])C([H])([H])[H])C([H])([H])[H])C(C([H])([H])[H])(C([H])([H])[H])C([H])([H])[H])C([H])([H])c2c([H])c(OC([H])([H])C([H])([H])C([H])([H])N([H])C(=O)C3([H])C([H])([H])C3(C([H])([H])[H])C([H])([H])C(=O)N3C([H])([H])C([H])([H])C([H])([H])C([H])(n4nc(-c5c([H])c([H])c(Oc6c([H])c([H])c(F)c([H])c6F)c([H])c5[H])c(C(=O)N([H])[H])c4N([H])[H])C3([H])[H])c([H])c([H])c2C1([H])[H]

>  <smiles>  (6) 
[H]c1c([H])c([H])c2c(c1[H])C([H])([H])C([H])([H])C([H])([H])C2([H])N([H])C(=O)C1([H])N(C(=O)C([H])(N([H])C(=O)C([H])(N([H])C([H])([H])[H])C([H])([H])[H])C(C([H])([H])[H])(C([H])([H])[H])C([H])([H])[H])C([H])([H])c2c([H])c(OC([H])([H])C([H])([H])C([H])([H])N([H])C(=O)C3([H])C([H])([H])C3(C([H])([H])[H])C([H])([H])C(=O)N3C([H])([H])C([H])([H])C([H])([H])C([H])(n4nc(-c5c([H])c([H])c(Oc6c([H])c([H])c(F)c([H])c6F)c([H])c5[H])c(C(=O)N([H])[H])c4N([H])[H])C3([H])[H])c([H])c([H])c2C1([H])[H]

$$$$
6:0:0
     RDKit          3D

 84 88  0  0  1  0  0  0  0  0999 V2000
  -28.9170  -21.4610   19.5990 C   0  0  0  0  0 15  0  0  0  0  0  0
  -29.4910  -19.5500   21.5430 C   0  0  0  0  0  1  0  0  0  0  0  0
  -31.2320  -19.8790   19.7960 C   0  0  0  0  0  1  0  0  0  0  0  0
  -29.7450  -19.5740   20.0290 C   0  0  0  0  0  3  0  0  0  0  0  0
  -30.4530  -16.2160   19.6660 C   0  0  0  0  0  0  0  0  0  0  0  0
  -30.6050  -13.5860   18.8560 C   0  0  0  0  0  2  0  0  0  0  0  0
  -29.6800  -12.9640   17.7570 C   0  0  0  0  0  2  0  0  0  0  0  0
  -28.3270  -12.5320   18.3350 C   0  0  0  0  0  2  0  0  0  0  0  0
  -27.8220  -13.5740   19.3520 C   0  0  0  0  0  3  0  0  0  0  0  0
  -28.9000  -14.0630   20.3590 C   0  0  0  0  0  2  0  0  0  0  0  0
  -29.9460  -14.7990   19.5780 N   0  0  0  0  0  0  0  0  0  0  0  0
  -31.6940  -16.0660   19.5620 O   0  0  0  0  0  0  0  0  0  0  0  0
  -29.7180  -17.6950   19.6770 N   0  0  0  0  0  0  0  0  0  0  0  0
  -28.7460  -17.4630   19.5220 H   0  0  0  0  0  0  0  0  0  0  0  0
  -25.5350  -14.0830   20.3070 C   0  0  0  0  0  0  0  0  0  0  0  0
  -24.4990  -13.3010   20.7260 C   0  0  0  0  0  0  0  0  0  0  0  0
  -24.9560  -11.9500   20.6310 C   0  0  0  0  0  0  0  0  0  0  0  0
  -26.5550  -13.2150   19.9720 N   0  0  0  0  0  0  0  0  0  0  0  0
  -26.2260  -11.9200   20.2300 N   0  0  0  0  0  0  0  0  0  0  0  0
  -24.2290  -10.6900   20.8400 C   0  0  0  0  0  0  0  0  0  0  0  0
  -24.6520   -9.7380   21.7940 C   0  0  0  0  0  3  0  0  0  0  0  0
  -23.9180   -8.5490   21.9940 C   0  0  0  0  0  3  0  0  0  0  0  0
  -22.7460   -8.3020   21.2420 C   0  0  0  0  0  0  0  0  0  0  0  0
  -22.3390   -9.2410   20.2790 C   0  0  0  0  0  3  0  0  0  0  0  0
  -23.0740  -10.4220   20.0760 C   0  0  0  0  0  3  0  0  0  0  0  0
  -21.9850   -7.1630   21.3520 O   0  0  0  0  0  0  0  0  0  0  0  0
  -21.8690   -6.4840   22.5390 C   0  0  0  0  0  0  0  0  0  0  0  0
  -21.3100   -7.0860   23.6880 C   0  0  0  0  0  3  0  0  0  0  0  0
  -21.1440   -6.3310   24.8660 C   0  0  0  0  0  3  0  0  0  0  0  0
  -21.5280   -4.9770   24.8970 C   0  0  0  0  0  0  0  0  0  0  0  0
  -22.0830   -4.3760   23.7530 C   0  0  0  0  0  3  0  0  0  0  0  0
  -22.2490   -5.1270   22.5760 C   0  0  0  0  0  0  0  0  0  0  0  0
  -22.7630   -4.5370   21.4700 F   0  0  0  0  0  0  0  0  0  0  0  0
  -21.3630   -4.2500   26.0270 F   0  0  0  0  0  0  0  0  0  0  0  0
  -23.1260  -13.7830   21.0910 C   0  0  0  0  0  0  0  0  0  0  0  0
  -22.4560  -13.0910   22.0050 N   0  0  0  0  0  0  0  0  0  0  0  0
  -22.6610  -14.8120   20.6010 O   0  0  0  0  0  0  0  0  0  0  0  0
  -22.8480  -12.2600   22.4210 H   0  0  0  0  0  0  0  0  0  0  0  0
  -21.5380  -13.4000   22.2940 H   0  0  0  0  0  0  0  0  0  0  0  0
  -25.6860  -15.4570   20.1480 N   0  0  0  0  0  0  0  0  0  0  0  0
  -24.9250  -16.1030   20.3260 H   0  0  0  0  0  0  0  0  0  0  0  0
  -26.5080  -15.9070   19.7650 H   0  0  0  0  0  0  0  0  0  0  0  0
  -28.4070  -23.3990   20.2720 C   0  0  0  0  0 15  0  0  0  0  0  0
  -28.3200  -25.2880   20.0760 O   0  0  0  0  0  1  0  0  0  0  0  0
  -24.5610  -31.7740   23.0230 C   0  0  0  0  0  0  0  0  0  0  0  0
  -27.3040  -26.5620   20.1160 C   0  0  0  0  0  0  0  0  0  0  0  0
  -23.4570  -30.3210   21.3820 C   0  0  0  0  0  3  0  0  0  0  0  0
  -24.9810  -28.6720   20.0170 C   0  0  0  0  0  0  0  0  0  0  0  0
  -26.0430  -30.4870   21.3190 C   0  0  0  0  0  2  0  0  0  0  0  0
  -26.1640  -29.0270   20.6730 C   0  0  0  0  0  0  0  0  0  0  0  0
  -27.2990  -28.0110   20.6750 C   0  0  0  0  0  3  0  0  0  0  0  0
  -26.0670  -26.4800   19.4040 C   0  0  0  0  0  3  0  0  0  0  0  0
  -24.9860  -27.4290   19.3560 C   0  0  0  0  0  3  0  0  0  0  0  0
  -23.7520  -29.6120   20.0270 C   0  0  0  0  0  2  0  0  0  0  0  0
  -24.7120  -30.9020   21.9600 N   0  0  0  0  0  0  0  0  0  0  0  0
  -23.4460  -32.0450   23.5060 O   0  0  0  0  0  0  0  0  0  0  0  0
  -22.7400  -29.3430   22.3550 C   0  0  0  0  0  0  0  0  0  0  0  0
  -21.4090  -29.1730   22.2360 N   0  0  0  0  0  0  0  0  0  0  0  0
  -23.4030  -28.7270   23.1940 O   0  0  0  0  0  0  0  0  0  0  0  0
  -20.9200  -29.7200   21.5400 H   0  0  0  0  0  0  0  0  0  0  0  0
  -18.0380  -27.9110   22.7850 C   0  0  0  0  0  0  0  0  0  0  0  0
  -20.6000  -28.2160   23.0050 C   0  0  0  0  0  3  0  0  0  0  0  0
  -20.7100  -26.7930   22.4070 C   0  0  0  0  0  2  0  0  0  0  0  0
  -19.5970  -26.4720   21.4050 C   0  0  0  0  0  2  0  0  0  0  0  0
  -18.2240  -26.5800   22.0740 C   0  0  0  0  0  2  0  0  0  0  0  0
  -19.1520  -28.6870   23.2070 C   0  0  0  0  0  0  0  0  0  0  0  0
  -18.9190  -29.9260   23.8400 C   0  0  0  0  0  3  0  0  0  0  0  0
  -17.6090  -30.3950   24.0480 C   0  0  0  0  0  3  0  0  0  0  0  0
  -16.5100  -29.6180   23.6370 C   0  0  0  0  0  3  0  0  0  0  0  0
  -16.7260  -28.3780   23.0120 C   0  0  0  0  0  3  0  0  0  0  0  0
  -25.7780  -32.4880   23.6860 C   0  0  0  0  0  3  0  0  0  0  0  0
  -25.3960  -33.8840   23.9940 N   0  0  0  0  0  0  0  0  0  0  0  0
  -25.7140  -34.9580   23.2580 C   0  0  0  0  0  0  0  0  0  0  0  0
  -26.4120  -34.8800   22.2450 O   0  0  0  0  0  0  0  0  0  0  0  0
  -24.7720  -34.0120   24.7780 H   0  0  0  0  0  0  0  0  0  0  0  0
  -23.9490  -36.7210   22.8780 C   0  0  0  0  0  1  0  0  0  0  0  0
  -25.1810  -36.3350   23.7140 C   0  0  0  0  0  3  0  0  0  0  0  0
  -27.2580  -37.2920   24.6150 C   0  0  0  0  0  1  0  0  0  0  0  0
  -26.1870  -37.4180   23.6300 N   0  0  0  0  0  0  0  0  0  0  0  0
  -25.7500  -38.3270   23.7510 H   0  0  0  0  0  0  0  0  0  0  0  0
  -26.2630  -31.7730   25.0100 C   0  0  1  0  0  0  0  0  0  0  0  0
  -25.1320  -31.5180   26.0340 C   0  0  0  0  0  1  0  0  0  0  0  0
  -26.9210  -30.4110   24.6990 C   0  0  0  0  0  1  0  0  0  0  0  0
  -27.3470  -32.6330   25.7030 C   0  0  0  0  0  1  0  0  0  0  0  0
  3  4  1  0
  4  2  1  0
  5 13  1  0
  6 11  1  0
  7  8  1  0
  7  6  1  0
  9  8  1  0
  9 18  1  0
  9 10  1  0
 11  5  1  0
 11 10  1  0
 12  5  2  0
 13  4  1  0
 14 13  1  0
 15 16  2  0
 16 35  1  0
 17 16  1  0
 17 20  1  0
 18 19  1  0
 18 15  1  0
 19 17  2  0
 20 21  1  0
 21 22  2  0
 23 26  1  0
 23 22  1  0
 24 23  2  0
 25 24  1  0
 25 20  2  0
 26 27  1  0
 27 32  2  0
 27 28  1  0
 28 29  2  0
 29 30  1  0
 30 34  1  0
 31 30  2  0
 32 31  1  0
 33 32  1  0
 35 36  1  0
 36 39  1  0
 36 38  1  0
 37 35  2  0
 40 15  1  0
 40 41  1  0
 42 40  1  0
 44 46  1  0
 45 56  2  0
 46 51  1  0
 47 55  1  0
 47 57  1  0
 48 54  1  0
 48 50  1  0
 49 55  1  0
 50 51  2  0
 50 49  1  0
 52 46  2  0
 53 52  1  0
 53 48  2  0
 54 47  1  0
 55 45  1  0
 57 59  2  0
 58 57  1  0
 60 58  1  0
 61 70  2  0
 61 66  1  0
 62 58  1  0
 62 66  1  0
 63 62  1  0
 64 65  1  0
 64 63  1  0
 65 61  1  0
 66 67  2  0
 67 68  1  0
 69 68  2  0
 70 69  1  0
 71 45  1  0
 71 72  1  0
 71 81  1  0
 72 75  1  0
 73 77  1  0
 73 72  1  0
 74 73  2  0
 77 76  1  0
 79 77  1  0
 79 80  1  0
 79 78  1  0
 81 84  1  1
 81 82  1  0
 83 81  1  0
M  ISO  4   5 100  13 100  43 101  44 101
M  END
>  <TORSDO>  (7) 
F 18

>  <SCORE>  (7) 
-15.259

>  <name>  (7) 
6

>  <ligand_id>  (7) 
6

>  <original_smiles>  (7) 
[H]c1c([H])c([H])c2c(c1[H])C([H])([H])C([H])([H])C([H])([H])C2([H])N([H])C(=O)C1([H])N(C(=O)C([H])(N([H])C(=O)C([H])(N([H])C([H])([H])[H])C([H])([H])[H])C(C([H])([H])[H])(C([H])([H])[H])C([H])([H])[H])C([H])([H])c2c([H])c(OC([H])([H])C([H])([H])C(N([H])C(=O)N3C([H])([H])C([H])([H])C([H])([H])C([H])(n4nc(-c5c([H])c([H])c(Oc6c([H])c([H])c(F)c([H])c6F)c([H])c5[H])c(C(=O)N([H])[H])c4N([H])[H])C3([H])[H])(C([H])([H])[H])C([H])([H])[H])c([H])c([H])c2C1([H])[H]

>  <smiles>  (7) 
[H]c1c([H])c([H])c2c(c1[H])C([H])([H])C([H])([H])C([H])([H])C2([H])N([H])C(=O)C1([H])N(C(=O)C([H])(N([H])C(=O)C([H])(N([H])C([H])([H])[H])C([H])([H])[H])C(C([H])([H])[H])(C([H])([H])[H])C([H])([H])[H])C([H])([H])c2c([H])c(OC([H])([H])C([H])([H])C(N([H])C(=O)N3C([H])([H])C([H])([H])C([H])([H])C([H])(n4nc(-c5c([H])c([H])c(Oc6c([H])c([H])c(F)c([H])c6F)c([H])c5[H])c(C(=O)N([H])[H])c4N([H])[H])C3([H])[H])(C([H])([H])[H])C([H])([H])[H])c([H])c([H])c2C1([H])[H]

$$$$
7:0:0
     RDKit          3D

101108  0  0  1  0  0  0  0  0999 V2000
  -28.0360  -22.2750   19.7130 C   0  0  0  0  0  2  0  0  0  0  0  0
  -26.2480  -29.9360   21.2350 C   0  0  0  0  0  2  0  0  0  0  0  0
  -27.3170  -28.8500   20.6650 C   0  0  0  0  0  3  0  0  0  0  0  0
  -28.8480  -23.6070   21.0070 C   0  0  0  0  0  1  0  0  0  0  0  0
  -25.4520  -26.2720   23.0660 C   0  0  0  0  0  3  0  0  0  0  0  0
  -29.7190  -21.5230   19.7190 C   0  0  0  0  0  1  0  0  0  0  0  0
  -27.2810  -24.0700   20.0620 C   0  0  0  0  0  2  0  0  0  0  0  0
  -25.2450  -29.3940   22.4580 C   0  0  0  0  0  2  0  0  0  0  0  0
  -27.1140  -25.5270   21.4940 C   0  0  0  0  0 15  0  0  0  0  0  0
  -27.1770  -21.3890   19.4230 N   0  0  0  0  0  2  0  0  0  0  0  0
  -26.2120  -21.7030   19.4340 H   0  0  0  0  0  0  0  0  0  0  0  0
  -31.3210  -19.4850   18.5710 C   0  0  0  0  0  2  0  0  0  0  0  0
  -32.7460  -16.9930   16.9100 C   0  0  0  0  0  2  0  0  0  0  0  0
  -32.3620  -15.6290   16.0310 C   0  0  0  0  0  2  0  0  0  0  0  0
  -32.0510  -14.3770   16.8500 C   0  0  0  0  0  2  0  0  0  0  0  0
  -31.4170  -14.9590   18.1110 C   0  0  0  0  0  3  0  0  0  0  0  0
  -32.0760  -16.3010   18.8070 C   0  0  0  0  0  2  0  0  0  0  0  0
  -31.8300  -17.7790   18.1560 N   0  0  0  0  0  0  0  0  0  0  0  0
  -32.3940  -19.6410   17.8010 O   0  0  0  0  0  1  0  0  0  0  0  0
  -29.5680  -13.9220   19.3900 C   0  0  0  0  0  0  0  0  0  0  0  0
  -29.3790  -12.8200   20.1580 C   0  0  0  0  0  0  0  0  0  0  0  0
  -30.6360  -12.1400   20.2180 C   0  0  0  0  0  0  0  0  0  0  0  0
  -30.8910  -13.9450   19.0390 N   0  0  0  0  0  0  0  0  0  0  0  0
  -31.5670  -12.8580   19.5560 N   0  0  0  0  0  0  0  0  0  0  0  0
  -30.9360  -10.8200   20.8290 C   0  0  0  0  0  0  0  0  0  0  0  0
  -32.2340  -10.4590   21.2580 C   0  0  0  0  0  3  0  0  0  0  0  0
  -32.4690   -9.2150   21.8900 C   0  0  0  0  0  3  0  0  0  0  0  0
  -31.4020   -8.3100   22.1100 C   0  0  0  0  0  0  0  0  0  0  0  0
  -30.1150   -8.6630   21.6690 C   0  0  0  0  0  3  0  0  0  0  0  0
  -29.8860   -9.8980   21.0330 C   0  0  0  0  0  3  0  0  0  0  0  0
  -31.5450   -7.0660   22.6820 O   0  0  0  0  0  0  0  0  0  0  0  0
  -32.7650   -6.5880   23.0920 C   0  0  0  0  0  0  0  0  0  0  0  0
  -33.8390   -7.4540   23.3990 C   0  0  0  0  0  3  0  0  0  0  0  0
  -35.0540   -6.9280   23.8810 C   0  0  0  0  0  3  0  0  0  0  0  0
  -35.1980   -5.5400   24.0670 C   0  0  0  0  0  0  0  0  0  0  0  0
  -34.1320   -4.6760   23.7660 C   0  0  0  0  0  3  0  0  0  0  0  0
  -32.9170   -5.1990   23.2870 C   0  0  0  0  0  0  0  0  0  0  0  0
  -31.8850   -4.3610   23.0260 F   0  0  0  0  0  0  0  0  0  0  0  0
  -36.3660   -5.0370   24.5310 F   0  0  0  0  0  0  0  0  0  0  0  0
  -28.0500  -12.3940   20.7020 C   0  0  0  0  0  0  0  0  0  0  0  0
  -28.0380  -11.6810   21.8210 N   0  0  0  0  0  0  0  0  0  0  0  0
  -27.0020  -12.7540   20.1640 O   0  0  0  0  0  0  0  0  0  0  0  0
  -28.8940  -11.4100   22.2810 H   0  0  0  0  0  0  0  0  0  0  0  0
  -27.1540  -11.4010   22.2230 H   0  0  0  0  0  0  0  0  0  0  0  0
  -28.7000  -14.9070   18.9260 N   0  0  0  0  0  0  0  0  0  0  0  0
  -27.7090  -14.8670   19.1280 H   0  0  0  0  0  0  0  0  0  0  0  0
  -28.9560  -15.6650   18.3070 H   0  0  0  0  0  0  0  0  0  0  0  0
  -24.8570  -31.9680   22.6880 C   0  0  0  0  0  1  0  0  0  0  0  0
  -25.2890  -30.6800   23.3160 N   0  0  0  0  0  4  0  0  0  0  0  0
  -26.2380  -30.8190   23.6310 H   0  0  0  0  0  0  0  0  0  0  0  0
  -24.7070  -30.5790   24.1280 H   0  0  0  0  0  0  0  0  0  0  0  0
  -26.3500  -24.1690   18.8190 C   0  0  0  0  0  2  0  0  0  0  0  0
  -26.7840  -23.4360   17.5590 N   0  0  0  0  0  4  0  0  0  0  0  0
  -26.9500  -22.4940   17.8800 H   0  0  0  0  0  0  0  0  0  0  0  0
  -25.9490  -23.3110   16.9980 H   0  0  0  0  0  0  0  0  0  0  0  0
  -27.9860  -24.8750   15.5440 C   0  0  0  0  0  2  0  0  0  0  0  0
  -29.3710  -24.2840   17.0830 C   0  0  0  0  0  2  0  0  0  0  0  0
  -29.2490  -25.5620   16.2320 C   0  0  0  0  0  3  0  0  0  0  0  0
  -27.9730  -23.7440   16.6210 C   0  0  0  0  0  3  0  0  0  0  0  0
  -29.5720  -27.0830   16.7220 C   0  0  0  0  0  2  0  0  0  0  0  0
  -29.3350  -27.7910   18.0200 O   0  0  0  0  0  0  0  0  0  0  0  0
  -23.7360  -27.6330   24.2080 C   0  0  0  0  0  0  0  0  0  0  0  0
  -28.1080  -27.8060   18.4860 C   0  0  0  0  0  0  0  0  0  0  0  0
  -23.0070  -27.4110   21.7160 C   0  0  0  0  0  3  0  0  0  0  0  0
  -24.9860  -27.7800   19.2120 C   0  0  0  0  0  3  0  0  0  0  0  0
  -25.8620  -27.4970   22.3500 C   0  0  0  0  0  3  0  0  0  0  0  0
  -26.4300  -27.7100   20.5800 C   0  0  0  0  0  3  0  0  0  0  0  0
  -27.8440  -27.6310   20.0770 C   0  0  0  0  0  3  0  0  0  0  0  0
  -26.8510  -27.9420   17.3590 C   0  0  0  0  0  3  0  0  0  0  0  0
  -25.3040  -27.8890   17.7760 C   0  0  0  0  0  3  0  0  0  0  0  0
  -23.2810  -27.5370   19.8910 C   0  0  0  0  0  2  0  0  0  0  0  0
  -24.2170  -27.4190   22.8610 N   0  0  2  0  0  4  0  0  0  0  0  0
  -22.5320  -27.5690   24.5140 O   0  0  0  0  0  0  0  0  0  0  0  0
  -22.2320  -26.1880   21.9240 C   0  0  0  0  0  0  0  0  0  0  0  0
  -21.1770  -25.9810   21.1520 N   0  0  0  0  0  0  0  0  0  0  0  0
  -22.7020  -25.3750   22.7110 O   0  0  0  0  0  0  0  0  0  0  0  0
  -20.8300  -26.7070   20.5380 H   0  0  0  0  0  0  0  0  0  0  0  0
  -19.1520  -23.8780   19.0780 C   0  0  0  0  0  0  0  0  0  0  0  0
  -20.7240  -24.6240   20.9380 C   0  0  0  0  0  3  0  0  0  0  0  0
  -21.8220  -23.8060   20.2200 C   0  0  0  0  0  2  0  0  0  0  0  0
  -21.6650  -23.8200   18.7020 C   0  0  0  0  0  2  0  0  0  0  0  0
  -20.3050  -23.2150   18.3340 C   0  0  0  0  0  2  0  0  0  0  0  0
  -19.3630  -24.5830   20.2840 C   0  0  0  0  0  0  0  0  0  0  0  0
  -18.2850  -25.2330   20.9240 C   0  0  0  0  0  3  0  0  0  0  0  0
  -16.9960  -25.1640   20.3720 C   0  0  0  0  0  3  0  0  0  0  0  0
  -16.7790  -24.4390   19.1850 C   0  0  0  0  0  3  0  0  0  0  0  0
  -17.8540  -23.7970   18.5420 C   0  0  0  0  0  3  0  0  0  0  0  0
  -24.6560  -27.9670   25.4590 C   0  0  0  0  0  3  0  0  0  0  0  0
  -24.1310  -27.3960   26.7560 N   0  0  0  0  0  0  0  0  0  0  0  0
  -24.0180  -27.9910   27.9700 C   0  0  0  0  0  0  0  0  0  0  0  0
  -24.2600  -29.1920   28.1240 O   0  0  0  0  0  0  0  0  0  0  0  0
  -23.8400  -26.4300   26.7050 H   0  0  0  0  0  0  0  0  0  0  0  0
  -22.0600  -27.4000   29.4740 C   0  0  0  0  0  1  0  0  0  0  0  0
  -23.5530  -27.1520   29.1950 C   0  0  0  0  0  3  0  0  0  0  0  0
  -25.6770  -26.9030   30.4300 C   0  0  0  0  0  1  0  0  0  0  0  0
  -24.3120  -27.4170   30.4470 N   0  0  0  0  0  0  0  0  0  0  0  0
  -23.8290  -27.0230   31.2500 H   0  0  0  0  0  0  0  0  0  0  0  0
  -26.1160  -27.4120   25.2520 C   0  0  1  0  0  0  0  0  0  0  0  0
  -26.1380  -25.9630   24.7200 C   0  0  0  0  0  2  0  0  0  0  0  0
  -26.9160  -28.2470   24.2540 C   0  0  0  0  0  1  0  0  0  0  0  0
  -26.9290  -27.4710   26.5650 C   0  0  0  0  0  1  0  0  0  0  0  0
  1  6  1  0
  2  8  1  0
  3  2  1  0
  5 99  1  0
  7  4  1  0
  8 49  1  0
 10 11  1  0
 10  1  1  0
 13 18  1  0
 14 15  1  0
 14 13  1  0
 16 15  1  0
 16 17  1  0
 16 23  1  0
 18 12  1  0
 18 17  1  0
 19 12  1  0
 20 21  2  0
 21 22  1  0
 21 40  1  0
 22 25  1  0
 23 20  1  0
 23 24  1  0
 24 22  2  0
 25 30  2  0
 25 26  1  0
 26 27  2  0
 27 28  1  0
 28 31  1  0
 29 28  2  0
 30 29  1  0
 31 32  1  0
 32 37  2  0
 32 33  1  0
 33 34  2  0
 34 35  1  0
 35 39  1  0
 36 35  2  0
 37 36  1  0
 38 37  1  0
 40 41  1  0
 41 44  1  0
 41 43  1  0
 42 40  2  0
 45 46  1  0
 45 20  1  0
 47 45  1  0
 48 49  1  0
 49 50  1  0
 49 51  1  0
 52  7  1  0
 53 54  1  0
 53 52  1  0
 55 53  1  0
 56 58  1  0
 56 59  1  0
 58 60  1  0
 58 57  1  0
 59 57  1  0
 59 53  1  0
 60 61  1  0
 61 63  1  0
 62 73  2  0
 62 88  1  0
 63 68  1  0
 64 74  1  0
 72 64  1  6
 65 71  1  0
 66 72  1  0
 66  5  1  0
 67  3  1  0
 67 66  1  0
 68 67  1  0
 68  3  1  0
 69 70  1  0
 69 63  2  0
 70 65  2  0
 71 64  1  0
 72  5  1  0
 72 62  1  0
 74 76  2  0
 75 74  1  0
 77 75  1  0
 78 83  1  0
 79 75  1  0
 80 79  1  0
 81 80  1  0
 82 81  1  0
 82 78  1  0
 83 84  2  0
 83 79  1  0
 85 84  1  0
 86 85  2  0
 87 78  2  0
 87 86  1  0
 88 89  1  0
 89 90  1  0
 90 91  2  0
 90 94  1  0
 92 89  1  0
 94 93  1  0
 94 96  1  0
 95 96  1  0
 96 97  1  0
 98 88  1  0
 98101  1  1
 99 98  1  0
100 98  1  0
M  ISO  4   6 100  12 100  60 101  61 101
M  END
>  <TORSDO>  (8) 
F 21

>  <SCORE>  (8) 
-7.034

>  <name>  (8) 
7

>  <ligand_id>  (8) 
7

>  <original_smiles>  (8) 
[H]N=C1C([H])(C(=O)N2C([H])([H])C([H])([H])C([H])([H])C([H])(n3nc(-c4c([H])c([H])c(Oc5c([H])c([H])c(F)c([H])c5F)c([H])c4[H])c(C(=O)N([H])[H])c3N([H])[H])C2([H])[H])C([H])([H])C2(C([H])([H])C([H])([H])C([H])([N+]([H])([H])C([H])([H])[H])C2([H])[H])C1([H])C([H])([H])[N+]([H])([H])C1([H])C([H])([H])C([H])(C([H])([H])Oc2c([H])c([H])c3c(c2[H])C([H])([H])N(C(=O)C([H])(N([H])C(=O)C([H])(N([H])C([H])([H])[H])C([H])([H])[H])C(C([H])([H])[H])(C([H])([H])[H])C([H])([H])[H])C([H])(C(=O)N([H])C2([H])c4c([H])c([H])c([H])c([H])c4C([H])([H])C([H])([H])C2([H])[H])C3([H])[H])C1([H])[H]

>  <smiles>  (8) 
[H]N=C1C([H])(C(=O)N2C([H])([H])C([H])([H])C([H])([H])C([H])(n3nc(-c4c([H])c([H])c(Oc5c([H])c([H])c(F)c([H])c5F)c([H])c4[H])c(C(=O)N([H])[H])c3N([H])[H])C2([H])[H])C([H])([H])C2(C([H])([H])C([H])([H])C([H])([N+]([H])([H])C([H])([H])[H])C2([H])[H])C1([H])C([H])([H])[N+]([H])([H])C1([H])C([H])([H])C([H])(C([H])([H])Oc2c([H])c([H])c3c(c2[H])C([H])([H])N(C(=O)C([H])(N([H])C(=O)C([H])(N([H])C([H])([H])[H])C([H])([H])[H])C(C([H])([H])[H])(C([H])([H])[H])C([H])([H])[H])C([H])(C(=O)N([H])C2([H])c4c([H])c([H])c([H])c([H])c4C([H])([H])C([H])([H])C2([H])[H])C3([H])[H])C1([H])[H]

$$$$
8:0:0
     RDKit          3D

 92100  0  0  1  0  0  0  0  0999 V2000
  -30.1400  -22.0520   18.5510 C   0  0  0  0  0  2  0  0  0  0  0  0
  -30.3070  -20.5430   18.8740 C   0  0  0  0  0  2  0  0  0  0  0  0
  -29.8730  -22.8470   19.8560 C   0  0  0  0  0  3  0  0  0  0  0  0
  -29.4940  -21.6570   20.8410 C   0  0  0  0  0  3  0  0  0  0  0  0
  -30.3790  -20.3990   20.4010 C   0  0  0  0  0  3  0  0  0  0  0  0
  -28.9040  -21.0520   23.2730 C   0  0  0  0  0  1  0  0  0  0  0  0
  -30.9950  -22.4040   22.8370 C   0  0  0  0  0  1  0  0  0  0  0  0
  -29.5760  -22.0710   22.3370 C   0  0  0  0  0  3  0  0  0  0  0  0
  -30.0110  -19.0030   20.9120 N   0  0  0  0  0  4  0  0  0  0  0  0
  -29.0750  -18.7950   20.6040 H   0  0  0  0  0  0  0  0  0  0  0  0
  -29.9790  -19.0720   21.9150 H   0  0  0  0  0  0  0  0  0  0  0  0
  -30.9090  -17.8030   20.5830 C   0  0  0  0  0  3  0  0  0  0  0  0
  -30.4630  -16.3600   21.1430 C   0  0  0  0  0  3  0  0  0  0  0  0
  -31.2550  -15.0440   20.7100 C   0  0  0  0  0  0  0  0  0  0  0  0
  -31.0660  -12.8040   19.6210 C   0  0  0  0  0  2  0  0  0  0  0  0
  -30.2010  -12.9450   18.3470 C   0  0  0  0  0  2  0  0  0  0  0  0
  -28.7010  -12.8180   18.6820 C   0  0  0  0  0  2  0  0  0  0  0  0
  -28.2880  -13.6950   19.8920 C   0  0  0  0  0  3  0  0  0  0  0  0
  -29.2690  -13.5270   21.0730 C   0  0  0  0  0  2  0  0  0  0  0  0
  -30.6200  -13.8320   20.5840 N   0  0  0  0  0  0  0  0  0  0  0  0
  -32.4390  -15.1530   20.3760 O   0  0  0  0  0  0  0  0  0  0  0  0
  -25.8740  -14.3680   20.4630 C   0  0  0  0  0  0  0  0  0  0  0  0
  -24.7640  -13.6290   20.7700 C   0  0  0  0  0  0  0  0  0  0  0  0
  -25.1880  -12.2650   20.7720 C   0  0  0  0  0  0  0  0  0  0  0  0
  -26.9040  -13.4560   20.2950 N   0  0  0  0  0  0  0  0  0  0  0  0
  -26.4930  -12.1870   20.5430 N   0  0  0  0  0  0  0  0  0  0  0  0
  -24.4150  -11.0260   20.9200 C   0  0  0  0  0  0  0  0  0  0  0  0
  -24.7680  -10.0440   21.8730 C   0  0  0  0  0  3  0  0  0  0  0  0
  -23.9980   -8.8690   22.0080 C   0  0  0  0  0  3  0  0  0  0  0  0
  -22.8610   -8.6670   21.1900 C   0  0  0  0  0  0  0  0  0  0  0  0
  -22.5280   -9.6360   20.2280 C   0  0  0  0  0  3  0  0  0  0  0  0
  -23.2980  -10.8030   20.0910 C   0  0  0  0  0  3  0  0  0  0  0  0
  -22.0690   -7.5460   21.2340 O   0  0  0  0  0  0  0  0  0  0  0  0
  -21.9320   -6.8050   22.3810 C   0  0  0  0  0  0  0  0  0  0  0  0
  -21.4630   -7.3760   23.5840 C   0  0  0  0  0  3  0  0  0  0  0  0
  -21.2720   -6.5640   24.7200 C   0  0  0  0  0  3  0  0  0  0  0  0
  -21.5400   -5.1830   24.6530 C   0  0  0  0  0  0  0  0  0  0  0  0
  -22.0010   -4.6120   23.4540 C   0  0  0  0  0  3  0  0  0  0  0  0
  -22.1940   -5.4210   22.3210 C   0  0  0  0  0  0  0  0  0  0  0  0
  -22.6190   -4.8630   21.1620 F   0  0  0  0  0  0  0  0  0  0  0  0
  -21.3480   -4.4020   25.7420 F   0  0  0  0  0  0  0  0  0  0  0  0
  -23.3680  -14.1480   20.9510 C   0  0  0  0  0  0  0  0  0  0  0  0
  -22.5690  -13.4820   21.7770 N   0  0  0  0  0  0  0  0  0  0  0  0
  -22.9920  -15.1800   20.3950 O   0  0  0  0  0  0  0  0  0  0  0  0
  -22.8830  -12.6480   22.2490 H   0  0  0  0  0  0  0  0  0  0  0  0
  -21.6270  -13.8120   21.9400 H   0  0  0  0  0  0  0  0  0  0  0  0
  -26.0910  -15.7320   20.2910 N   0  0  0  0  0  0  0  0  0  0  0  0
  -25.3350  -16.4080   20.3380 H   0  0  0  0  0  0  0  0  0  0  0  0
  -26.9630  -16.1350   19.9710 H   0  0  0  0  0  0  0  0  0  0  0  0
  -28.9310  -24.1320   19.5840 C   0  0  0  0  0  2  0  0  0  0  0  0
  -28.8810  -25.3960   20.5600 C   0  0  0  0  0  2  0  0  0  0  0  0
  -28.8530  -26.7730   20.0050 O   0  0  0  0  0  0  0  0  0  0  0  0
  -24.8330  -31.7900   23.3180 C   0  0  0  0  0  0  0  0  0  0  0  0
  -27.6770  -27.5330   20.0540 C   0  0  0  0  0  0  0  0  0  0  0  0
  -23.7080  -30.4380   21.5830 C   0  0  0  0  0  3  0  0  0  0  0  0
  -25.2400  -29.0260   20.0970 C   0  0  0  0  0  0  0  0  0  0  0  0
  -26.2310  -30.8790   21.4490 C   0  0  0  0  0  2  0  0  0  0  0  0
  -26.3780  -29.5410   20.7310 C   0  0  0  0  0  0  0  0  0  0  0  0
  -27.6030  -28.8100   20.6930 C   0  0  0  0  0  3  0  0  0  0  0  0
  -26.5160  -27.0580   19.4120 C   0  0  0  0  0  3  0  0  0  0  0  0
  -25.3100  -27.7900   19.4300 C   0  0  0  0  0  3  0  0  0  0  0  0
  -23.9660  -29.8450   20.1730 C   0  0  0  0  0  2  0  0  0  0  0  0
  -24.9420  -31.0500   22.1750 N   0  0  0  0  0  0  0  0  0  0  0  0
  -23.7330  -31.9910   23.8550 O   0  0  0  0  0  0  0  0  0  0  0  0
  -23.0790  -29.3430   22.4780 C   0  0  0  0  0  0  0  0  0  0  0  0
  -21.7670  -29.1030   22.3090 N   0  0  0  0  0  0  0  0  0  0  0  0
  -23.7710  -28.7130   23.2820 O   0  0  0  0  0  0  0  0  0  0  0  0
  -21.2650  -29.6660   21.6380 H   0  0  0  0  0  0  0  0  0  0  0  0
  -18.4570  -27.6820   22.6310 C   0  0  0  0  0  0  0  0  0  0  0  0
  -20.9820  -28.0870   23.0120 C   0  0  0  0  0  3  0  0  0  0  0  0
  -21.1950  -26.6890   22.3880 C   0  0  0  0  0  2  0  0  0  0  0  0
  -20.1560  -26.3400   21.3190 C   0  0  0  0  0  2  0  0  0  0  0  0
  -18.7430  -26.3760   21.9120 C   0  0  0  0  0  2  0  0  0  0  0  0
  -19.5090  -28.4940   23.1330 C   0  0  0  0  0  0  0  0  0  0  0  0
  -19.1890  -29.7180   23.7620 C   0  0  0  0  0  3  0  0  0  0  0  0
  -17.8500  -30.1300   23.8950 C   0  0  0  0  0  3  0  0  0  0  0  0
  -16.8120  -29.3160   23.4080 C   0  0  0  0  0  3  0  0  0  0  0  0
  -17.1170  -28.0940   22.7820 C   0  0  0  0  0  3  0  0  0  0  0  0
  -26.0810  -32.4390   23.9940 C   0  0  0  0  0  3  0  0  0  0  0  0
  -25.7160  -33.8100   24.3800 N   0  0  0  0  0  0  0  0  0  0  0  0
  -26.0160  -34.9060   23.6700 C   0  0  0  0  0  0  0  0  0  0  0  0
  -26.6960  -34.8710   22.6420 O   0  0  0  0  0  0  0  0  0  0  0  0
  -25.1110  -33.9070   25.1820 H   0  0  0  0  0  0  0  0  0  0  0  0
  -24.2160  -36.6400   23.3890 C   0  0  0  0  0  1  0  0  0  0  0  0
  -25.4740  -36.2540   24.1830 C   0  0  0  0  0  3  0  0  0  0  0  0
  -27.5740  -37.1900   25.0470 C   0  0  0  0  0  1  0  0  0  0  0  0
  -26.4640  -37.3510   24.1110 N   0  0  0  0  0  0  0  0  0  0  0  0
  -26.0210  -38.2480   24.2970 H   0  0  0  0  0  0  0  0  0  0  0  0
  -26.6020  -31.6290   25.2440 C   0  0  1  0  0  0  0  0  0  0  0  0
  -25.4990  -31.3120   26.2810 C   0  0  0  0  0  1  0  0  0  0  0  0
  -27.2350  -30.2900   24.8030 C   0  0  0  0  0  1  0  0  0  0  0  0
  -27.7150  -32.4290   25.9600 C   0  0  0  0  0  1  0  0  0  0  0  0
  1  2  1  0
  1  3  1  0
  2  5  1  0
  3 50  1  0
  3  4  1  0
  4  8  1  0
  5  4  1  0
  5  9  1  0
  8  7  1  0
  8  6  1  0
  9 11  1  0
 10  9  1  0
 12  9  1  0
 12 13  2  0
 14 13  1  0
 15 20  1  0
 16 17  1  0
 16 15  1  0
 18 17  1  0
 18 25  1  0
 18 19  1  0
 20 14  1  0
 20 19  1  0
 21 14  2  0
 22 23  2  0
 23 24  1  0
 23 42  1  0
 24 27  1  0
 25 22  1  0
 25 26  1  0
 26 24  2  0
 27 28  1  0
 28 29  2  0
 30 33  1  0
 30 29  1  0
 31 30  2  0
 32 31  1  0
 32 27  2  0
 33 34  1  0
 34 35  1  0
 35 36  2  0
 37 36  1  0
 37 41  1  0
 38 37  2  0
 39 34  2  0
 39 38  1  0
 40 39  1  0
 42 43  1  0
 43 46  1  0
 43 45  1  0
 44 42  2  0
 47 48  1  0
 47 22  1  0
 49 47  1  0
 50 51  1  0
 52 54  1  0
 52 51  1  0
 53 64  2  0
 54 59  1  0
 55 63  1  0
 55 65  1  0
 56 62  1  0
 56 58  1  0
 57 63  1  0
 58 57  1  0
 59 58  2  0
 60 61  1  0
 60 54  2  0
 61 56  2  0
 62 55  1  0
 63 53  1  0
 65 67  2  0
 66 65  1  0
 68 66  1  0
 69 78  2  0
 69 74  1  0
 70 66  1  0
 70 74  1  0
 71 70  1  0
 72 73  1  0
 72 71  1  0
 73 69  1  0
 74 75  2  0
 75 76  1  0
 77 76  2  0
 78 77  1  0
 79 53  1  0
 79 80  1  0
 79 89  1  0
 80 83  1  0
 81 85  1  0
 81 80  1  0
 82 81  2  0
 85 84  1  0
 87 85  1  0
 87 88  1  0
 87 86  1  0
 89 92  1  1
 89 90  1  0
 91 89  1  0
M  ISO  4  13 100  14 100  51 101  52 101
M  END
>  <TORSDO>  (9) 
F 22

>  <SCORE>  (9) 
-10.559

>  <name>  (9) 
8

>  <ligand_id>  (9) 
8

>  <original_smiles>  (9) 
[H]c1c([H])c([H])c2c(c1[H])C([H])([H])C([H])([H])C([H])([H])C2([H])N([H])C(=O)C1([H])N(C(=O)C([H])(N([H])C(=O)C([H])(N([H])C([H])([H])[H])C([H])([H])[H])C(C([H])([H])[H])(C([H])([H])[H])C([H])([H])[H])C([H])([H])c2c([H])c(OC([H])([H])C([H])([H])C3([H])C([H])([H])C([H])([H])C([H])([N+]([H])([H])C([H])([H])C([H])([H])C(=O)N4C([H])([H])C([H])([H])C([H])([H])C([H])(n5nc(-c6c([H])c([H])c(Oc7c([H])c([H])c(F)c([H])c7F)c([H])c6[H])c(C(=O)N([H])[H])c5N([H])[H])C4([H])[H])C3([H])C([H])(C([H])([H])[H])C([H])([H])[H])c([H])c([H])c2C1([H])[H]

>  <smiles>  (9) 
[H]c1c([H])c([H])c2c(c1[H])C([H])([H])C([H])([H])C([H])([H])C2([H])N([H])C(=O)C1([H])N(C(=O)C([H])(N([H])C(=O)C([H])(N([H])C([H])([H])[H])C([H])([H])[H])C(C([H])([H])[H])(C([H])([H])[H])C([H])([H])[H])C([H])([H])c2c([H])c(OC([H])([H])C([H])([H])C3([H])C([H])([H])C([H])([H])C([H])([N+]([H])([H])C([H])([H])C([H])([H])C(=O)N4C([H])([H])C([H])([H])C([H])([H])C([H])(n5nc(-c6c([H])c([H])c(Oc7c([H])c([H])c(F)c([H])c7F)c([H])c6[H])c(C(=O)N([H])[H])c5N([H])[H])C4([H])[H])C3([H])C([H])(C([H])([H])[H])C([H])([H])[H])c([H])c([H])c2C1([H])[H]

$$$$
9:0:0
     RDKit          3D

 93101  0  0  1  0  0  0  0  0999 V2000
  -27.4300  -23.7720   21.9890 C   0  0  0  0  0  2  0  0  0  0  0  0
  -29.1410  -23.3690   20.4050 C   0  0  0  0  0  2  0  0  0  0  0  0
  -27.5800  -22.2310   21.8740 C   0  0  0  0  0  3  0  0  0  0  0  0
  -28.4840  -21.9900   20.6450 C   0  0  0  0  0  3  0  0  0  0  0  0
  -28.0470  -24.4200   20.7280 C   0  0  1  0  0  0  0  0  0  0  0  0
  -26.2360  -21.4680   21.8030 C   0  0  0  0  0  1  0  0  0  0  0  0
  -26.9590  -24.4060   19.6200 C   0  0  0  0  0  1  0  0  0  0  0  0
  -29.4710  -20.7880   20.7140 C   0  0  0  0  0  2  0  0  0  0  0  0
  -28.8230  -19.4000   20.4050 C   0  0  0  0  0  2  0  0  0  0  0  0
  -29.7580  -18.3730   19.7340 C   0  0  0  0  0  0  0  0  0  0  0  0
  -30.0990  -18.5830   18.5250 N   0  0  0  0  0  0  0  0  0  0  0  0
  -29.7140  -19.4400   18.1430 H   0  0  0  0  0  0  0  0  0  0  0  0
  -30.8770  -16.1730   19.7540 C   0  0  0  0  0  3  0  0  0  0  0  0
  -30.2680  -17.1580   20.4740 C   0  0  0  0  0  0  0  0  0  0  0  0
  -30.0750  -17.1220   21.9900 C   0  0  0  0  0  1  0  0  0  0  0  0
  -31.6370  -15.0290   20.2490 C   0  0  0  0  0  0  0  0  0  0  0  0
  -31.3500  -12.7270   19.4860 C   0  0  0  0  0  2  0  0  0  0  0  0
  -30.4900  -12.7560   18.2040 C   0  0  0  0  0  2  0  0  0  0  0  0
  -28.9840  -12.7440   18.5500 C   0  0  0  0  0  2  0  0  0  0  0  0
  -28.5920  -13.7660   19.6520 C   0  0  0  0  0  3  0  0  0  0  0  0
  -29.5800  -13.7310   20.8360 C   0  0  0  0  0  2  0  0  0  0  0  0
  -30.9410  -13.8690   20.3160 N   0  0  0  0  0  0  0  0  0  0  0  0
  -32.8640  -15.0530   20.1500 O   0  0  0  0  0  0  0  0  0  0  0  0
  -26.2310  -14.5460   20.3130 C   0  0  0  0  0  0  0  0  0  0  0  0
  -25.0990  -13.8510   20.6400 C   0  0  0  0  0  0  0  0  0  0  0  0
  -25.4560  -12.4680   20.6090 C   0  0  0  0  0  0  0  0  0  0  0  0
  -27.2140  -13.5880   20.1000 N   0  0  0  0  0  0  0  0  0  0  0  0
  -26.7510  -12.3340   20.3400 N   0  0  0  0  0  0  0  0  0  0  0  0
  -24.6290  -11.2640   20.7610 C   0  0  0  0  0  0  0  0  0  0  0  0
  -24.9260  -10.2800   21.7290 C   0  0  0  0  0  3  0  0  0  0  0  0
  -24.1050   -9.1390   21.8660 C   0  0  0  0  0  3  0  0  0  0  0  0
  -22.9720   -8.9750   21.0330 C   0  0  0  0  0  0  0  0  0  0  0  0
  -22.6920   -9.9480   20.0590 C   0  0  0  0  0  3  0  0  0  0  0  0
  -23.5110  -11.0810   19.9220 C   0  0  0  0  0  3  0  0  0  0  0  0
  -22.1300   -7.8880   21.0740 O   0  0  0  0  0  0  0  0  0  0  0  0
  -21.9050   -7.2000   22.2390 C   0  0  0  0  0  0  0  0  0  0  0  0
  -21.4070   -7.8370   23.3950 C   0  0  0  0  0  3  0  0  0  0  0  0
  -21.1220   -7.0770   24.5490 C   0  0  0  0  0  3  0  0  0  0  0  0
  -21.3240   -5.6850   24.5430 C   0  0  0  0  0  0  0  0  0  0  0  0
  -21.8140   -5.0480   23.3890 C   0  0  0  0  0  3  0  0  0  0  0  0
  -22.1000   -5.8050   22.2380 C   0  0  0  0  0  0  0  0  0  0  0  0
  -22.5530   -5.1840   21.1230 F   0  0  0  0  0  0  0  0  0  0  0  0
  -21.0410   -4.9540   25.6480 F   0  0  0  0  0  0  0  0  0  0  0  0
  -23.7320  -14.4330   20.8650 C   0  0  0  0  0  0  0  0  0  0  0  0
  -22.9340  -13.8020   21.7190 N   0  0  0  0  0  0  0  0  0  0  0  0
  -23.3840  -15.4780   20.3230 O   0  0  0  0  0  0  0  0  0  0  0  0
  -23.2260  -12.9560   22.1830 H   0  0  0  0  0  0  0  0  0  0  0  0
  -22.0210  -14.1840   21.9140 H   0  0  0  0  0  0  0  0  0  0  0  0
  -26.5000  -15.9010   20.1520 N   0  0  0  0  0  0  0  0  0  0  0  0
  -25.7710  -16.5980   20.2430 H   0  0  0  0  0  0  0  0  0  0  0  0
  -27.3710  -16.2800   19.8010 H   0  0  0  0  0  0  0  0  0  0  0  0
  -28.6080  -25.8870   21.0120 C   0  0  0  0  0  2  0  0  0  0  0  0
  -28.6520  -27.1720   20.2950 O   0  0  0  0  0  0  0  0  0  0  0  0
  -24.7030  -32.1840   23.4780 C   0  0  0  0  0  0  0  0  0  0  0  0
  -27.5110  -27.9600   20.2400 C   0  0  0  0  0  0  0  0  0  0  0  0
  -23.5620  -30.8170   21.7630 C   0  0  0  0  0  3  0  0  0  0  0  0
  -25.0870  -29.4060   20.2760 C   0  0  0  0  0  0  0  0  0  0  0  0
  -26.0830  -31.2540   21.6310 C   0  0  0  0  0  2  0  0  0  0  0  0
  -26.2140  -29.9180   20.9310 C   0  0  0  0  0  0  0  0  0  0  0  0
  -27.4320  -29.1910   20.9360 C   0  0  0  0  0  3  0  0  0  0  0  0
  -26.4020  -27.5240   19.4950 C   0  0  0  0  0  3  0  0  0  0  0  0
  -25.1750  -28.2090   19.5480 C   0  0  0  0  0  3  0  0  0  0  0  0
  -23.8140  -30.2130   20.3560 C   0  0  0  0  0  2  0  0  0  0  0  0
  -24.7980  -31.4280   22.3500 N   0  0  0  0  0  0  0  0  0  0  0  0
  -23.6090  -32.4060   24.0100 O   0  0  0  0  0  0  0  0  0  0  0  0
  -22.9300  -29.7320   22.6590 C   0  0  0  0  0  0  0  0  0  0  0  0
  -21.6140  -29.5160   22.5110 N   0  0  0  0  0  0  0  0  0  0  0  0
  -23.6240  -29.0900   23.4500 O   0  0  0  0  0  0  0  0  0  0  0  0
  -21.1030  -30.1500   21.9150 H   0  0  0  0  0  0  0  0  0  0  0  0
  -18.2900  -28.1360   22.8270 C   0  0  0  0  0  0  0  0  0  0  0  0
  -20.8190  -28.5000   23.2050 C   0  0  0  0  0  3  0  0  0  0  0  0
  -21.0090  -27.0980   22.5740 C   0  0  0  0  0  2  0  0  0  0  0  0
  -19.9610  -26.7660   21.5100 C   0  0  0  0  0  2  0  0  0  0  0  0
  -18.5500  -26.8250   22.1120 C   0  0  0  0  0  2  0  0  0  0  0  0
  -19.3580  -28.9260   23.3290 C   0  0  0  0  0  0  0  0  0  0  0  0
  -19.0680  -30.1540   23.9540 C   0  0  0  0  0  3  0  0  0  0  0  0
  -17.7420  -30.6020   24.0850 C   0  0  0  0  0  3  0  0  0  0  0  0
  -16.6860  -29.8180   23.5950 C   0  0  0  0  0  3  0  0  0  0  0  0
  -16.9580  -28.5810   22.9850 C   0  0  0  0  0  3  0  0  0  0  0  0
  -25.9610  -32.8260   24.1430 C   0  0  0  0  0  3  0  0  0  0  0  0
  -25.6380  -34.2280   24.4400 N   0  0  0  0  0  0  0  0  0  0  0  0
  -25.9980  -35.2680   23.6740 C   0  0  0  0  0  0  0  0  0  0  0  0
  -26.7080  -35.1490   22.6720 O   0  0  0  0  0  0  0  0  0  0  0  0
  -25.0130  -34.3960   25.2150 H   0  0  0  0  0  0  0  0  0  0  0  0
  -24.2790  -37.0470   23.2210 C   0  0  0  0  0  1  0  0  0  0  0  0
  -25.4900  -36.6620   24.0870 C   0  0  0  0  0  3  0  0  0  0  0  0
  -27.5930  -37.5640   24.9750 C   0  0  0  0  0  1  0  0  0  0  0  0
  -26.5240  -37.7160   23.9910 N   0  0  0  0  0  0  0  0  0  0  0  0
  -26.1110  -38.6370   24.1120 H   0  0  0  0  0  0  0  0  0  0  0  0
  -26.4240  -32.0700   25.4490 C   0  0  1  0  0  0  0  0  0  0  0  0
  -25.2780  -31.8280   26.4600 C   0  0  0  0  0  1  0  0  0  0  0  0
  -27.0440  -30.6980   25.0990 C   0  0  0  0  0  1  0  0  0  0  0  0
  -27.5300  -32.8880   26.1560 C   0  0  0  0  0  1  0  0  0  0  0  0
  2  4  1  0
  2  5  1  0
  3  6  1  0
  3  1  1  0
  4  8  1  0
  4  3  1  0
  5  7  1  6
  5 52  1  0
  5  1  1  0
  9  8  1  0
 10  9  1  0
 10 14  1  0
 11 10  2  0
 12 11  1  0
 13 16  1  0
 13 14  2  0
 14 15  1  0
 16 22  1  0
 17 22  1  0
 18 19  1  0
 18 17  1  0
 20 19  1  0
 20 27  1  0
 20 21  1  0
 22 21  1  0
 23 16  2  0
 24 25  2  0
 25 44  1  0
 26 25  1  0
 26 29  1  0
 27 24  1  0
 27 28  1  0
 28 26  2  0
 29 30  1  0
 30 31  2  0
 32 35  1  0
 32 31  1  0
 33 32  2  0
 34 33  1  0
 34 29  2  0
 35 36  1  0
 36 37  1  0
 37 38  2  0
 39 38  1  0
 39 43  1  0
 40 39  2  0
 41 36  2  0
 41 40  1  0
 42 41  1  0
 44 45  1  0
 45 48  1  0
 45 47  1  0
 46 44  2  0
 49 50  1  0
 49 24  1  0
 51 49  1  0
 53 52  1  0
 54 65  2  0
 55 53  1  0
 55 60  1  0
 56 64  1  0
 56 66  1  0
 57 63  1  0
 57 59  1  0
 58 64  1  0
 59 60  2  0
 59 58  1  0
 61 62  1  0
 61 55  2  0
 62 57  2  0
 63 56  1  0
 64 54  1  0
 66 68  2  0
 67 66  1  0
 69 67  1  0
 70 79  2  0
 70 75  1  0
 71 67  1  0
 71 75  1  0
 72 71  1  0
 73 74  1  0
 73 72  1  0
 74 70  1  0
 75 76  2  0
 76 77  1  0
 78 77  2  0
 79 78  1  0
 80 54  1  0
 80 81  1  0
 80 90  1  0
 81 84  1  0
 82 86  1  0
 82 81  1  0
 83 82  2  0
 86 85  1  0
 88 86  1  0
 88 89  1  0
 88 87  1  0
 90 93  1  1
 90 91  1  0
 92 90  1  0
M  ISO  4  13 100  16 100  52 101  53 101
M  END
>  <TORSDO>  (10) 
F 21

>  <SCORE>  (10) 
-8.348

>  <name>  (10) 
9

>  <ligand_id>  (10) 
9

>  <original_smiles>  (10) 
[H]N=C(C(=C([H])C(=O)N1C([H])([H])C([H])([H])C([H])([H])C([H])(n2nc(-c3c([H])c([H])c(Oc4c([H])c([H])c(F)c([H])c4F)c([H])c3[H])c(C(=O)N([H])[H])c2N([H])[H])C1([H])[H])C([H])([H])[H])C([H])([H])C([H])([H])C1([H])C([H])([H])C(C([H])([H])[H])(C([H])([H])Oc2c([H])c([H])c3c(c2[H])C([H])([H])N(C(=O)C([H])(N([H])C(=O)C([H])(N([H])C([H])([H])[H])C([H])([H])[H])C(C([H])([H])[H])(C([H])([H])[H])C([H])([H])[H])C([H])(C(=O)N([H])C2([H])c4c([H])c([H])c([H])c([H])c4C([H])([H])C([H])([H])C2([H])[H])C3([H])[H])C([H])([H])C1([H])C([H])([H])[H]

>  <smiles>  (10) 
[H]N=C(C(=C([H])C(=O)N1C([H])([H])C([H])([H])C([H])([H])C([H])(n2nc(-c3c([H])c([H])c(Oc4c([H])c([H])c(F)c([H])c4F)c([H])c3[H])c(C(=O)N([H])[H])c2N([H])[H])C1([H])[H])C([H])([H])[H])C([H])([H])C([H])([H])C1([H])C([H])([H])C(C([H])([H])[H])(C([H])([H])Oc2c([H])c([H])c3c(c2[H])C([H])([H])N(C(=O)C([H])(N([H])C(=O)C([H])(N([H])C([H])([H])[H])C([H])([H])[H])C(C([H])([H])[H])(C([H])([H])[H])C([H])([H])[H])C([H])(C(=O)N([H])C2([H])c4c([H])c([H])c([H])c([H])c4C([H])([H])C([H])([H])C2([H])[H])C3([H])[H])C([H])([H])C1([H])C([H])([H])[H]

$$$$
10:0:0
     RDKit          3D

 88 95  0  0  1  0  0  0  0  0999 V2000
  -28.6290  -21.9570   20.6710 C   0  0  0  0  0  2  0  0  0  0  0  0
  -27.8490  -20.2810   18.8690 C   0  0  0  0  0  1  0  0  0  0  0  0
  -28.9670  -20.5050   19.9110 C   0  0  0  0  0  3  0  0  0  0  0  0
  -29.1910  -19.1600   20.7180 N   0  0  0  0  0  4  0  0  0  0  0  0
  -29.7640  -19.3940   21.5140 H   0  0  0  0  0  0  0  0  0  0  0  0
  -28.2900  -18.9050   21.0960 H   0  0  0  0  0  0  0  0  0  0  0  0
  -31.2380  -18.1720   19.5880 C   0  0  0  0  0  1  0  0  0  0  0  0
  -29.8080  -17.8440   20.0740 C   0  0  0  0  0  3  0  0  0  0  0  0
  -29.7420  -16.3380   20.8540 C   0  0  0  0  0  2  0  0  0  0  0  0
  -30.4940  -14.9240   20.3900 C   0  0  0  0  0  0  0  0  0  0  0  0
  -30.3760  -12.5900   19.3900 C   0  0  0  0  0  2  0  0  0  0  0  0
  -29.4550  -12.6150   18.1450 C   0  0  0  0  0  2  0  0  0  0  0  0
  -27.9800  -12.4320   18.5620 C   0  0  0  0  0  2  0  0  0  0  0  0
  -27.5830  -13.3180   19.7750 C   0  0  0  0  0  3  0  0  0  0  0  0
  -28.6290  -13.2530   20.9050 C   0  0  0  0  0  2  0  0  0  0  0  0
  -29.9100  -13.6610   20.3210 N   0  0  0  0  0  0  0  0  0  0  0  0
  -31.6750  -14.9850   20.0310 O   0  0  0  0  0  0  0  0  0  0  0  0
  -25.1910  -13.9030   20.4710 C   0  0  0  0  0  0  0  0  0  0  0  0
  -24.1200  -13.1410   20.8290 C   0  0  0  0  0  0  0  0  0  0  0  0
  -24.5800  -11.7860   20.8230 C   0  0  0  0  0  0  0  0  0  0  0  0
  -26.2370  -13.0250   20.2540 N   0  0  0  0  0  0  0  0  0  0  0  0
  -25.8760  -11.7450   20.5290 N   0  0  0  0  0  0  0  0  0  0  0  0
  -23.8520  -10.5250   21.0160 C   0  0  0  0  0  0  0  0  0  0  0  0
  -24.2770   -9.5590   21.9560 C   0  0  0  0  0  3  0  0  0  0  0  0
  -23.5440   -8.3680   22.1480 C   0  0  0  0  0  3  0  0  0  0  0  0
  -22.3690   -8.1310   21.3990 C   0  0  0  0  0  0  0  0  0  0  0  0
  -21.9590   -9.0830   20.4500 C   0  0  0  0  0  3  0  0  0  0  0  0
  -22.6940  -10.2650   20.2550 C   0  0  0  0  0  3  0  0  0  0  0  0
  -21.6140   -6.9860   21.4930 O   0  0  0  0  0  0  0  0  0  0  0  0
  -21.5740   -6.2400   22.6430 C   0  0  0  0  0  0  0  0  0  0  0  0
  -21.1840   -6.7980   23.8800 C   0  0  0  0  0  3  0  0  0  0  0  0
  -21.0980   -5.9800   25.0230 C   0  0  0  0  0  3  0  0  0  0  0  0
  -21.3830   -4.6060   24.9290 C   0  0  0  0  0  0  0  0  0  0  0  0
  -21.7610   -4.0470   23.6960 C   0  0  0  0  0  3  0  0  0  0  0  0
  -21.8550   -4.8630   22.5560 C   0  0  0  0  0  0  0  0  0  0  0  0
  -22.2020   -4.3160   21.3680 F   0  0  0  0  0  0  0  0  0  0  0  0
  -21.2930   -3.8170   26.0240 F   0  0  0  0  0  0  0  0  0  0  0  0
  -22.7160  -13.6230   21.0610 C   0  0  0  0  0  0  0  0  0  0  0  0
  -21.9700  -12.9570   21.9300 N   0  0  0  0  0  0  0  0  0  0  0  0
  -22.2900  -14.6370   20.5070 O   0  0  0  0  0  0  0  0  0  0  0  0
  -22.3180  -12.1410   22.4110 H   0  0  0  0  0  0  0  0  0  0  0  0
  -21.0290  -13.2720   22.1180 H   0  0  0  0  0  0  0  0  0  0  0  0
  -25.3590  -15.2700   20.2820 N   0  0  0  0  0  0  0  0  0  0  0  0
  -24.5760  -15.9050   20.3820 H   0  0  0  0  0  0  0  0  0  0  0  0
  -26.1970  -15.7100   19.9180 H   0  0  0  0  0  0  0  0  0  0  0  0
  -28.6070  -23.4490   19.9180 C   0  0  0  0  0  3  0  0  0  0  0  0
  -28.0190  -24.8250   20.6370 C   0  0  0  0  0  3  0  0  0  0  0  0
  -28.2670  -26.2780   20.2090 O   0  0  0  0  0  0  0  0  0  0  0  0
  -24.6170  -31.8690   23.2130 C   0  0  0  0  0  0  0  0  0  0  0  0
  -27.1960  -27.2170   20.1880 C   0  0  0  0  0  0  0  0  0  0  0  0
  -23.4080  -30.4780   21.5710 C   0  0  0  0  0  3  0  0  0  0  0  0
  -24.8570  -28.9060   20.1460 C   0  0  0  0  0  0  0  0  0  0  0  0
  -25.9560  -30.7630   21.3930 C   0  0  0  0  0  2  0  0  0  0  0  0
  -26.0300  -29.3730   20.7560 C   0  0  0  0  0  0  0  0  0  0  0  0
  -27.2060  -28.5450   20.7600 C   0  0  0  0  0  3  0  0  0  0  0  0
  -26.0080  -26.8360   19.5350 C   0  0  0  0  0  3  0  0  0  0  0  0
  -24.8570  -27.6520   19.5170 C   0  0  0  0  0  3  0  0  0  0  0  0
  -23.6220  -29.7920   20.1930 C   0  0  0  0  0  2  0  0  0  0  0  0
  -24.6810  -31.0570   22.1130 N   0  0  0  0  0  0  0  0  0  0  0  0
  -23.5330  -32.1510   23.7430 O   0  0  0  0  0  0  0  0  0  0  0  0
  -22.7380  -29.4700   22.5360 C   0  0  0  0  0  0  0  0  0  0  0  0
  -21.4100  -29.3030   22.4190 N   0  0  0  0  0  0  0  0  0  0  0  0
  -23.4130  -28.8340   23.3520 O   0  0  0  0  0  0  0  0  0  0  0  0
  -20.9180  -29.8810   21.7500 H   0  0  0  0  0  0  0  0  0  0  0  0
  -18.0330  -28.1110   22.9330 C   0  0  0  0  0  0  0  0  0  0  0  0
  -20.5920  -28.3670   23.1940 C   0  0  0  0  0  3  0  0  0  0  0  0
  -20.6880  -26.9330   22.6190 C   0  0  0  0  0  2  0  0  0  0  0  0
  -19.5820  -26.6080   21.6090 C   0  0  0  0  0  2  0  0  0  0  0  0
  -18.2020  -26.7600   22.2580 C   0  0  0  0  0  2  0  0  0  0  0  0
  -19.1550  -28.8700   23.3590 C   0  0  0  0  0  0  0  0  0  0  0  0
  -18.9420  -30.1330   23.9510 C   0  0  0  0  0  3  0  0  0  0  0  0
  -17.6390  -30.6340   24.1310 C   0  0  0  0  0  3  0  0  0  0  0  0
  -16.5300  -29.8760   23.7150 C   0  0  0  0  0  3  0  0  0  0  0  0
  -16.7280  -28.6180   23.1200 C   0  0  0  0  0  3  0  0  0  0  0  0
  -25.8980  -32.5010   23.8400 C   0  0  0  0  0  3  0  0  0  0  0  0
  -26.4090  -31.7310   25.1190 C   0  0  1  0  0  0  0  0  0  0  0  0
  -25.3140  -31.5050   26.1880 C   0  0  0  0  0  1  0  0  0  0  0  0
  -26.9890  -30.3490   24.7340 C   0  0  0  0  0  1  0  0  0  0  0  0
  -27.5600  -32.5250   25.7810 C   0  0  0  0  0  1  0  0  0  0  0  0
  -25.5830  -33.9000   24.1720 N   0  0  0  0  0  0  0  0  0  0  0  0
  -25.9140  -34.9580   23.4190 C   0  0  0  0  0  0  0  0  0  0  0  0
  -26.5840  -34.8600   22.3870 O   0  0  0  0  0  0  0  0  0  0  0  0
  -24.9920  -34.0480   24.9750 H   0  0  0  0  0  0  0  0  0  0  0  0
  -24.1860  -36.7610   23.0790 C   0  0  0  0  0  1  0  0  0  0  0  0
  -25.4260  -36.3450   23.8860 C   0  0  0  0  0  3  0  0  0  0  0  0
  -27.5650  -37.2320   24.7060 C   0  0  0  0  0  1  0  0  0  0  0  0
  -26.4550  -37.3990   23.7720 N   0  0  0  0  0  0  0  0  0  0  0  0
  -26.0480  -38.3180   23.9290 H   0  0  0  0  0  0  0  0  0  0  0  0
  3  2  1  0
  3  1  1  0
  3  4  1  0
  4  6  1  0
  4  5  1  0
  8  7  1  0
  8  4  1  0
  8  9  1  0
 10  9  1  0
 11 16  1  0
 12 13  1  0
 12 11  1  0
 14 13  1  0
 14 21  1  0
 14 15  1  0
 16 10  1  0
 16 15  1  0
 17 10  2  0
 18 19  2  0
 19 38  1  0
 20 19  1  0
 20 23  1  0
 21 18  1  0
 21 22  1  0
 22 20  2  0
 23 24  1  0
 24 25  2  0
 26 29  1  0
 26 25  1  0
 27 26  2  0
 28 27  1  0
 28 23  2  0
 29 30  1  0
 30 31  1  0
 31 32  2  0
 33 32  1  0
 33 37  1  0
 34 33  2  0
 35 30  2  0
 35 34  1  0
 36 35  1  0
 38 39  1  0
 39 42  1  0
 39 41  1  0
 40 38  2  0
 43 44  1  0
 43 18  1  0
 45 43  1  0
 46 47  2  0
 46  1  1  0
 48 47  1  0
 49 60  2  0
 50 48  1  0
 50 55  1  0
 51 59  1  0
 51 61  1  0
 52 58  1  0
 52 54  1  0
 53 59  1  0
 54 55  2  0
 54 53  1  0
 56 50  2  0
 57 56  1  0
 57 52  2  0
 58 51  1  0
 59 49  1  0
 61 63  2  0
 62 61  1  0
 64 62  1  0
 65 74  2  0
 65 70  1  0
 66 62  1  0
 66 70  1  0
 67 66  1  0
 68 69  1  0
 68 67  1  0
 69 65  1  0
 70 71  2  0
 71 72  1  0
 73 72  2  0
 74 73  1  0
 75 49  1  0
 75 80  1  0
 75 76  1  0
 76 79  1  1
 76 77  1  0
 78 76  1  0
 80 83  1  0
 81 85  1  0
 81 80  1  0
 82 81  2  0
 85 84  1  0
 87 85  1  0
 87 88  1  0
 87 86  1  0
M  ISO  4   9 100  10 100  47 101  48 101
M  END
>  <TORSDO>  (11) 
F 22

>  <SCORE>  (11) 
-13.614

>  <name>  (11) 
10

>  <ligand_id>  (11) 
10

>  <original_smiles>  (11) 
[H]c1c([H])c([H])c2c(c1[H])C([H])([H])C([H])([H])C([H])([H])C2([H])N([H])C(=O)C1([H])N(C(=O)C([H])(N([H])C(=O)C([H])(N([H])C([H])([H])[H])C([H])([H])[H])C(C([H])([H])[H])(C([H])([H])[H])C([H])([H])[H])C([H])([H])c2c([H])c(OC([H])([H])C([H])([H])C([H])([H])C([H])(C([H])([H])[H])[N+]([H])([H])C([H])(C([H])([H])[H])C([H])([H])C(=O)N3C([H])([H])C([H])([H])C([H])([H])C([H])(n4nc(-c5c([H])c([H])c(Oc6c([H])c([H])c(F)c([H])c6F)c([H])c5[H])c(C(=O)N([H])[H])c4N([H])[H])C3([H])[H])c([H])c([H])c2C1([H])[H]

>  <smiles>  (11) 
[H]c1c([H])c([H])c2c(c1[H])C([H])([H])C([H])([H])C([H])([H])C2([H])N([H])C(=O)C1([H])N(C(=O)C([H])(N([H])C(=O)C([H])(N([H])C([H])([H])[H])C([H])([H])[H])C(C([H])([H])[H])(C([H])([H])[H])C([H])([H])[H])C([H])([H])c2c([H])c(OC([H])([H])C([H])([H])C([H])([H])C([H])(C([H])([H])[H])[N+]([H])([H])C([H])(C([H])([H])[H])C([H])([H])C(=O)N3C([H])([H])C([H])([H])C([H])([H])C([H])(n4nc(-c5c([H])c([H])c(Oc6c([H])c([H])c(F)c([H])c6F)c([H])c5[H])c(C(=O)N([H])[H])c4N([H])[H])C3([H])[H])c([H])c([H])c2C1([H])[H]

$$$$
11:0:0
     RDKit          3D

 95103  0  0  1  0  0  0  0  0999 V2000
  -31.0470  -20.4210   23.6170 C   0  0  0  0  0  2  0  0  0  0  0  0
  -30.5240  -19.8820   21.3780 C   0  0  0  0  0  2  0  0  0  0  0  0
  -30.1960  -20.9280   22.4520 C   0  0  0  0  0  3  0  0  0  0  0  0
  -31.0470  -18.8850   23.4650 C   0  0  0  0  0  3  0  0  0  0  0  0
  -30.1630  -18.2220   24.5380 C   0  0  0  0  0  1  0  0  0  0  0  0
  -30.5650  -18.5710   22.0840 N   0  0  2  0  0  4  0  0  0  0  0  0
  -29.6060  -18.2870   22.2100 H   0  0  0  0  0  0  0  0  0  0  0  0
  -30.4580  -22.3940   22.0770 C   0  0  0  0  0  0  0  0  0  0  0  0
  -30.4540  -23.3350   23.2700 C   0  0  0  0  0  1  0  0  0  0  0  0
  -30.6700  -22.7510   20.8650 N   0  0  0  0  0  0  0  0  0  0  0  0
  -31.1430  -24.0960   20.5270 C   0  0  0  0  0  2  0  0  0  0  0  0
  -30.3200  -24.7810   19.4130 C   0  0  0  0  0  2  0  0  0  0  0  0
  -29.0240  -25.4780   19.8670 C   0  0  0  0  0  2  0  0  0  0  0  0
  -28.7620  -26.5670   18.9820 O   0  0  0  0  0  0  0  0  0  0  0  0
  -24.7710  -30.7970   23.0850 C   0  0  0  0  0  0  0  0  0  0  0  0
  -27.5590  -27.1970   19.1760 C   0  0  0  0  0  0  0  0  0  0  0  0
  -23.5960  -29.6870   21.2100 C   0  0  0  0  0  3  0  0  0  0  0  0
  -25.0920  -28.5310   19.4980 C   0  0  0  0  0  0  0  0  0  0  0  0
  -26.0920  -30.2120   21.0550 C   0  0  0  0  0  2  0  0  0  0  0  0
  -26.2320  -28.9960   20.1650 C   0  0  0  0  0  0  0  0  0  0  0  0
  -27.4700  -28.3380   20.0020 C   0  0  0  0  0  3  0  0  0  0  0  0
  -26.4050  -26.7340   18.5100 C   0  0  0  0  0  3  0  0  0  0  0  0
  -25.1710  -27.3970   18.6670 C   0  0  0  0  0  3  0  0  0  0  0  0
  -23.8080  -29.2980   19.7210 C   0  0  0  0  0  2  0  0  0  0  0  0
  -24.8390  -30.2350   21.8450 N   0  0  0  0  0  0  0  0  0  0  0  0
  -23.6910  -30.9020   23.6820 O   0  0  0  0  0  0  0  0  0  0  0  0
  -23.0150  -28.4660   21.9590 C   0  0  0  0  0  0  0  0  0  0  0  0
  -21.7150  -28.2040   21.7550 N   0  0  0  0  0  0  0  0  0  0  0  0
  -23.7330  -27.7650   22.6770 O   0  0  0  0  0  0  0  0  0  0  0  0
  -21.1910  -28.8330   21.1610 H   0  0  0  0  0  0  0  0  0  0  0  0
  -18.4580  -26.6420   21.8690 C   0  0  0  0  0  0  0  0  0  0  0  0
  -20.9640  -27.0840   22.3230 C   0  0  0  0  0  3  0  0  0  0  0  0
  -21.2320  -25.7780   21.5380 C   0  0  0  0  0  2  0  0  0  0  0  0
  -20.2100  -25.5230   20.4250 C   0  0  0  0  0  2  0  0  0  0  0  0
  -18.7940  -25.4380   21.0030 C   0  0  0  0  0  2  0  0  0  0  0  0
  -19.4760  -27.4240   22.4760 C   0  0  0  0  0  0  0  0  0  0  0  0
  -19.1110  -28.5520   23.2400 C   0  0  0  0  0  3  0  0  0  0  0  0
  -17.7570  -28.9020   23.4040 C   0  0  0  0  0  3  0  0  0  0  0  0
  -16.7520  -28.1160   22.8150 C   0  0  0  0  0  3  0  0  0  0  0  0
  -17.1020  -26.9870   22.0520 C   0  0  0  0  0  3  0  0  0  0  0  0
  -26.0400  -31.3560   23.8020 C   0  0  0  0  0  3  0  0  0  0  0  0
  -25.7320  -32.7190   24.2500 N   0  0  0  0  0  0  0  0  0  0  0  0
  -26.1510  -33.8340   23.6370 C   0  0  0  0  0  0  0  0  0  0  0  0
  -26.9090  -33.8180   22.6620 O   0  0  0  0  0  0  0  0  0  0  0  0
  -25.0680  -32.8080   25.0050 H   0  0  0  0  0  0  0  0  0  0  0  0
  -24.5150  -35.7150   23.3030 C   0  0  0  0  0  1  0  0  0  0  0  0
  -25.6510  -35.1810   24.1910 C   0  0  0  0  0  3  0  0  0  0  0  0
  -27.7030  -35.8940   25.3340 C   0  0  0  0  0  1  0  0  0  0  0  0
  -26.7150  -36.2020   24.3040 N   0  0  0  0  0  0  0  0  0  0  0  0
  -26.3190  -37.1150   24.5080 H   0  0  0  0  0  0  0  0  0  0  0  0
  -26.5150  -30.4620   25.0140 C   0  0  1  0  0  0  0  0  0  0  0  0
  -25.3840  -30.1160   26.0090 C   0  0  0  0  0  1  0  0  0  0  0  0
  -27.1230  -29.1330   24.5060 C   0  0  0  0  0  1  0  0  0  0  0  0
  -27.6350  -31.1890   25.7950 C   0  0  0  0  0  1  0  0  0  0  0  0
  -31.2720  -17.4590   21.3280 C   0  0  0  0  0  3  0  0  0  0  0  0
  -29.7270  -18.0790   18.9940 C   0  0  0  0  0  1  0  0  0  0  0  0
  -30.7980  -17.3260   19.8360 C   0  0  0  0  0  2  0  0  0  0  0  0
  -31.2540  -14.8190   21.6090 C   0  0  0  0  0  3  0  0  0  0  0  0
  -31.2510  -16.0950   22.0630 C   0  0  0  0  0  3  0  0  0  0  0  0
  -31.3680  -14.3530   20.2310 C   0  0  0  0  0  0  0  0  0  0  0  0
  -30.8290  -12.3970   18.8160 C   0  0  0  0  0  2  0  0  0  0  0  0
  -29.7900  -12.6670   17.7160 C   0  0  0  0  0  2  0  0  0  0  0  0
  -28.3620  -12.5080   18.2630 C   0  0  0  0  0  2  0  0  0  0  0  0
  -28.1460  -13.3170   19.5680 C   0  0  0  0  0  3  0  0  0  0  0  0
  -29.2640  -13.0180   20.5890 C   0  0  0  0  0  2  0  0  0  0  0  0
  -30.5680  -13.2930   19.9510 N   0  0  0  0  0  0  0  0  0  0  0  0
  -32.2440  -14.7520   19.4520 O   0  0  0  0  0  0  0  0  0  0  0  0
  -25.8520  -13.9750   20.5390 C   0  0  0  0  0  0  0  0  0  0  0  0
  -24.7780  -13.2230   20.9360 C   0  0  0  0  0  0  0  0  0  0  0  0
  -25.1570  -11.8590   20.7410 C   0  0  0  0  0  0  0  0  0  0  0  0
  -26.8220  -13.0690   20.1350 N   0  0  0  0  0  0  0  0  0  0  0  0
  -26.4100  -11.7860   20.3090 N   0  0  0  0  0  0  0  0  0  0  0  0
  -24.3800  -10.6210   20.8810 C   0  0  0  0  0  0  0  0  0  0  0  0
  -24.8020   -9.5790   21.7340 C   0  0  0  0  0  3  0  0  0  0  0  0
  -24.0320   -8.4020   21.8650 C   0  0  0  0  0  3  0  0  0  0  0  0
  -22.8230   -8.2630   21.1430 C   0  0  0  0  0  0  0  0  0  0  0  0
  -22.4190   -9.2940   20.2760 C   0  0  0  0  0  3  0  0  0  0  0  0
  -23.1910  -10.4610   20.1430 C   0  0  0  0  0  3  0  0  0  0  0  0
  -22.0230   -7.1470   21.1880 O   0  0  0  0  0  0  0  0  0  0  0  0
  -21.7940   -6.4730   22.3600 C   0  0  0  0  0  0  0  0  0  0  0  0
  -21.2270   -7.1070   23.4860 C   0  0  0  0  0  3  0  0  0  0  0  0
  -20.9430   -6.3610   24.6470 C   0  0  0  0  0  3  0  0  0  0  0  0
  -21.2140   -4.9800   24.6800 C   0  0  0  0  0  0  0  0  0  0  0  0
  -21.7740   -4.3440   23.5580 C   0  0  0  0  0  3  0  0  0  0  0  0
  -22.0570   -5.0880   22.4000 C   0  0  0  0  0  0  0  0  0  0  0  0
  -22.5780   -4.4660   21.3140 F   0  0  0  0  0  0  0  0  0  0  0  0
  -20.9330   -4.2610   25.7930 F   0  0  0  0  0  0  0  0  0  0  0  0
  -23.4370  -13.7390   21.3740 C   0  0  0  0  0  0  0  0  0  0  0  0
  -22.7670  -13.0330   22.2770 N   0  0  0  0  0  0  0  0  0  0  0  0
  -22.9930  -14.8040   20.9500 O   0  0  0  0  0  0  0  0  0  0  0  0
  -23.1330  -12.1710   22.6510 H   0  0  0  0  0  0  0  0  0  0  0  0
  -21.8690  -13.3660   22.6030 H   0  0  0  0  0  0  0  0  0  0  0  0
  -26.0790  -15.3470   20.4720 N   0  0  0  0  0  0  0  0  0  0  0  0
  -25.3530  -16.0230   20.6900 H   0  0  0  0  0  0  0  0  0  0  0  0
  -26.9100  -15.7680   20.0790 H   0  0  0  0  0  0  0  0  0  0  0  0
  2  6  1  0
  2  3  1  0
  3  8  1  0
  3  1  1  0
  4  1  1  0
  4  5  1  0
  6  7  1  1
  6  4  1  0
  8  9  1  0
 10  8  2  0
 11 10  1  0
 12 13  1  0
 12 11  1  0
 14 16  1  0
 14 13  1  0
 15 26  2  0
 16 21  1  0
 17 25  1  0
 17 27  1  0
 18 24  1  0
 18 20  1  0
 19 25  1  0
 20 19  1  0
 21 20  2  0
 22 23  1  0
 22 16  2  0
 23 18  2  0
 24 17  1  0
 25 15  1  0
 27 29  2  0
 28 27  1  0
 30 28  1  0
 31 40  2  0
 31 36  1  0
 32 28  1  0
 32 36  1  0
 33 32  1  0
 34 35  1  0
 34 33  1  0
 35 31  1  0
 36 37  2  0
 37 38  1  0
 39 38  2  0
 40 39  1  0
 41 15  1  0
 41 42  1  0
 41 51  1  0
 42 45  1  0
 43 47  1  0
 43 42  1  0
 44 43  2  0
 47 46  1  0
 47 49  1  0
 49 50  1  0
 49 48  1  0
 51 54  1  1
 51 52  1  0
 53 51  1  0
 55 57  1  0
 55 59  1  0
 55  6  1  0
 56 57  1  0
 58 59  2  0
 60 58  1  0
 61 66  1  0
 62 63  1  0
 62 61  1  0
 64 63  1  0
 64 71  1  0
 64 65  1  0
 66 60  1  0
 66 65  1  0
 67 60  2  0
 68 69  2  0
 69 88  1  0
 70 73  1  0
 70 69  1  0
 71 72  1  0
 71 68  1  0
 72 70  2  0
 73 74  1  0
 74 75  2  0
 76 79  1  0
 76 75  1  0
 77 76  2  0
 78 77  1  0
 78 73  2  0
 79 80  1  0
 80 85  2  0
 80 81  1  0
 81 82  2  0
 82 83  1  0
 83 87  1  0
 84 83  2  0
 85 84  1  0
 86 85  1  0
 88 89  1  0
 89 92  1  0
 89 91  1  0
 90 88  2  0
 93 68  1  0
 93 94  1  0
 95 93  1  0
M  ISO  4  13 101  14 101  58 100  60 100
M  END
>  <TORSDO>  (12) 
F 23

>  <SCORE>  (12) 
-8.669

>  <name>  (12) 
11

>  <ligand_id>  (12) 
11

>  <original_smiles>  (12) 
[H]C(C(=O)N1C([H])([H])C([H])([H])C([H])([H])C([H])(n2nc(-c3c([H])c([H])c(Oc4c([H])c([H])c(F)c([H])c4F)c([H])c3[H])c(C(=O)N([H])[H])c2N([H])[H])C1([H])[H])=C([H])C([H])(C([H])([H])C([H])([H])[H])[N+]1([H])C([H])([H])C([H])(C(=NC([H])([H])C([H])([H])C([H])([H])Oc2c([H])c([H])c3c(c2[H])C([H])([H])N(C(=O)C([H])(N([H])C(=O)C([H])(N([H])C([H])([H])[H])C([H])([H])[H])C(C([H])([H])[H])(C([H])([H])[H])C([H])([H])[H])C([H])(C(=O)N([H])C2([H])c4c([H])c([H])c([H])c([H])c4C([H])([H])C([H])([H])C2([H])[H])C3([H])[H])C([H])([H])[H])C([H])([H])C1([H])C([H])([H])[H]

>  <smiles>  (12) 
[H]C(C(=O)N1C([H])([H])C([H])([H])C([H])([H])C([H])(n2nc(-c3c([H])c([H])c(Oc4c([H])c([H])c(F)c([H])c4F)c([H])c3[H])c(C(=O)N([H])[H])c2N([H])[H])C1([H])[H])=C([H])C([H])(C([H])([H])C([H])([H])[H])[N+]1([H])C([H])([H])C([H])(C(=NC([H])([H])C([H])([H])C([H])([H])Oc2c([H])c([H])c3c(c2[H])C([H])([H])N(C(=O)C([H])(N([H])C(=O)C([H])(N([H])C([H])([H])[H])C([H])([H])[H])C(C([H])([H])[H])(C([H])([H])[H])C([H])([H])[H])C([H])(C(=O)N([H])C2([H])c4c([H])c([H])c([H])c([H])c4C([H])([H])C([H])([H])C2([H])[H])C3([H])[H])C([H])([H])[H])C([H])([H])C1([H])C([H])([H])[H]

$$$$
12:0:0
     RDKit          3D

 93102  0  0  1  0  0  0  0  0999 V2000
  -30.1880  -20.0600   19.6140 C   0  0  0  0  0  3  0  0  0  0  0  0
  -29.9540  -19.7310   18.1510 C   0  0  0  0  0  1  0  0  0  0  0  0
  -29.9420  -21.2440   20.1140 N   0  0  0  0  0  2  0  0  0  0  0  0
  -31.7240  -19.4320   21.5710 C   0  0  0  0  0  2  0  0  0  0  0  0
  -30.8860  -18.8630   20.4120 C   0  0  0  0  0  3  0  0  0  0  0  0
  -30.7540  -19.5150   22.7290 C   0  0  0  0  0  3  0  0  0  0  0  0
  -29.6980  -18.4400   22.4980 C   0  0  0  0  0  3  0  0  0  0  0  0
  -29.9920  -17.7680   21.1420 C   0  0  0  0  0  3  0  0  0  0  0  0
  -30.5370  -18.4770   23.7910 C   0  0  2  0  0  0  0  0  0  0  0  0
  -29.8480  -18.9240   25.0670 C   0  0  0  0  0  1  0  0  0  0  0  0
  -31.6640  -17.5150   24.1770 C   0  0  0  0  0  1  0  0  0  0  0  0
  -30.5780  -16.3090   21.4580 C   0  0  0  0  0  2  0  0  0  0  0  0
  -30.9870  -15.2280   20.3940 C   0  0  0  0  0  0  0  0  0  0  0  0
  -30.8260  -12.9720   19.3320 C   0  0  0  0  0  2  0  0  0  0  0  0
  -29.9130  -13.0080   18.0920 C   0  0  0  0  0  2  0  0  0  0  0  0
  -28.4430  -12.7840   18.5000 C   0  0  0  0  0  2  0  0  0  0  0  0
  -28.0170  -13.6820   19.6930 C   0  0  0  0  0  3  0  0  0  0  0  0
  -29.0530  -13.6360   20.8390 C   0  0  0  0  0  2  0  0  0  0  0  0
  -30.3670  -14.0070   20.2850 N   0  0  0  0  0  0  0  0  0  0  0  0
  -31.9980  -15.4720   19.7310 O   0  0  0  0  0  0  0  0  0  0  0  0
  -25.5890  -14.1790   20.3790 C   0  0  0  0  0  0  0  0  0  0  0  0
  -24.5600  -13.3680   20.7670 C   0  0  0  0  0  0  0  0  0  0  0  0
  -25.0860  -12.0390   20.7720 C   0  0  0  0  0  0  0  0  0  0  0  0
  -26.6770  -13.3470   20.1720 N   0  0  0  0  0  0  0  0  0  0  0  0
  -26.3790  -12.0540   20.4690 N   0  0  0  0  0  0  0  0  0  0  0  0
  -24.4210  -10.7490   20.9930 C   0  0  0  0  0  0  0  0  0  0  0  0
  -24.8830   -9.8380   21.9690 C   0  0  0  0  0  3  0  0  0  0  0  0
  -24.2160   -8.6110   22.1760 C   0  0  0  0  0  3  0  0  0  0  0  0
  -23.0710   -8.2890   21.4090 C   0  0  0  0  0  0  0  0  0  0  0  0
  -22.6290   -9.1900   20.4250 C   0  0  0  0  0  3  0  0  0  0  0  0
  -23.2980  -10.4070   20.2160 C   0  0  0  0  0  3  0  0  0  0  0  0
  -22.3720   -7.1110   21.5260 O   0  0  0  0  0  0  0  0  0  0  0  0
  -22.2420   -6.4640   22.7290 C   0  0  0  0  0  0  0  0  0  0  0  0
  -21.6830   -7.0980   23.8610 C   0  0  0  0  0  3  0  0  0  0  0  0
  -21.5060   -6.3740   25.0570 C   0  0  0  0  0  3  0  0  0  0  0  0
  -21.8780   -5.0180   25.1210 C   0  0  0  0  0  0  0  0  0  0  0  0
  -22.4270   -4.3830   23.9930 C   0  0  0  0  0  3  0  0  0  0  0  0
  -22.6060   -5.1050   22.7990 C   0  0  0  0  0  0  0  0  0  0  0  0
  -23.1180   -4.4830   21.7100 F   0  0  0  0  0  0  0  0  0  0  0  0
  -21.7000   -4.3200   26.2670 F   0  0  0  0  0  0  0  0  0  0  0  0
  -23.1390  -13.7820   21.0210 C   0  0  0  0  0  0  0  0  0  0  0  0
  -22.4490  -13.0950   21.9230 N   0  0  0  0  0  0  0  0  0  0  0  0
  -22.6440  -14.7540   20.4490 O   0  0  0  0  0  0  0  0  0  0  0  0
  -22.8580  -12.3170   22.4210 H   0  0  0  0  0  0  0  0  0  0  0  0
  -21.4940  -13.3520   22.1230 H   0  0  0  0  0  0  0  0  0  0  0  0
  -25.6870  -15.5540   20.1650 N   0  0  0  0  0  0  0  0  0  0  0  0
  -24.8900  -16.1730   20.2650 H   0  0  0  0  0  0  0  0  0  0  0  0
  -26.5230  -16.0320   19.8570 H   0  0  0  0  0  0  0  0  0  0  0  0
  -29.9460  -22.5130   19.3090 C   0  0  0  0  0  2  0  0  0  0  0  0
  -28.5900  -23.2860   19.0460 C   0  0  0  0  0  2  0  0  0  0  0  0
  -28.0170  -24.3770   20.0460 C   0  0  0  0  0  2  0  0  0  0  0  0
  -28.7280  -25.7650   20.3490 C   0  0  0  0  0  2  0  0  0  0  0  0
  -28.4880  -26.9800   19.5590 O   0  0  0  0  0  0  0  0  0  0  0  0
  -24.7850  -31.8570   23.4070 C   0  0  0  0  0  0  0  0  0  0  0  0
  -27.3440  -27.7520   19.7690 C   0  0  0  0  0  0  0  0  0  0  0  0
  -23.5500  -30.7060   21.5990 C   0  0  0  0  0  3  0  0  0  0  0  0
  -24.9800  -29.3360   19.9790 C   0  0  0  0  0  0  0  0  0  0  0  0
  -26.0850  -31.0340   21.4380 C   0  0  0  0  0  2  0  0  0  0  0  0
  -26.1530  -29.7470   20.6280 C   0  0  0  0  0  0  0  0  0  0  0  0
  -27.3390  -28.9660   20.5190 C   0  0  0  0  0  3  0  0  0  0  0  0
  -26.1530  -27.3770   19.1170 C   0  0  0  0  0  3  0  0  0  0  0  0
  -24.9790  -28.1510   19.2230 C   0  0  0  0  0  3  0  0  0  0  0  0
  -23.7510  -30.2080   20.1410 C   0  0  0  0  0  2  0  0  0  0  0  0
  -24.8250  -31.2080   22.2070 N   0  0  0  0  0  0  0  0  0  0  0  0
  -23.7110  -32.0670   23.9900 O   0  0  0  0  0  0  0  0  0  0  0  0
  -22.8870  -29.5770   22.4240 C   0  0  0  0  0  0  0  0  0  0  0  0
  -21.5580  -29.4280   22.2860 N   0  0  0  0  0  0  0  0  0  0  0  0
  -23.5660  -28.8420   23.1440 O   0  0  0  0  0  0  0  0  0  0  0  0
  -21.0710  -30.0770   21.6850 H   0  0  0  0  0  0  0  0  0  0  0  0
  -18.1750  -28.2060   22.6500 C   0  0  0  0  0  0  0  0  0  0  0  0
  -20.7380  -28.4030   22.9310 C   0  0  0  0  0  3  0  0  0  0  0  0
  -20.8220  -27.0620   22.1680 C   0  0  0  0  0  2  0  0  0  0  0  0
  -19.7090  -26.8870   21.1290 C   0  0  0  0  0  2  0  0  0  0  0  0
  -18.3330  -26.9570   21.7980 C   0  0  0  0  0  2  0  0  0  0  0  0
  -19.3040  -28.8920   23.1700 C   0  0  0  0  0  0  0  0  0  0  0  0
  -19.1040  -30.0660   23.9280 C   0  0  0  0  0  3  0  0  0  0  0  0
  -17.8060  -30.5520   24.1710 C   0  0  0  0  0  3  0  0  0  0  0  0
  -16.6900  -29.8610   23.6670 C   0  0  0  0  0  3  0  0  0  0  0  0
  -16.8760  -28.6900   22.9110 C   0  0  0  0  0  3  0  0  0  0  0  0
  -26.0840  -32.3850   24.0940 C   0  0  0  0  0  3  0  0  0  0  0  0
  -25.8030  -33.7400   24.5920 N   0  0  0  0  0  0  0  0  0  0  0  0
  -26.1410  -34.8690   23.9550 C   0  0  0  0  0  0  0  0  0  0  0  0
  -26.7960  -34.8760   22.9080 O   0  0  0  0  0  0  0  0  0  0  0  0
  -25.2260  -33.8070   25.4170 H   0  0  0  0  0  0  0  0  0  0  0  0
  -24.4400  -36.7170   23.8410 C   0  0  0  0  0  1  0  0  0  0  0  0
  -25.6840  -36.2020   24.5780 C   0  0  0  0  0  3  0  0  0  0  0  0
  -27.8340  -36.9650   25.4860 C   0  0  0  0  0  1  0  0  0  0  0  0
  -26.7320  -37.2470   24.5720 N   0  0  0  0  0  0  0  0  0  0  0  0
  -26.3400  -38.1520   24.8170 H   0  0  0  0  0  0  0  0  0  0  0  0
  -26.5860  -31.4580   25.2670 C   0  0  1  0  0  0  0  0  0  0  0  0
  -25.4930  -31.1170   26.3050 C   0  0  0  0  0  1  0  0  0  0  0  0
  -27.1420  -30.1230   24.7160 C   0  0  0  0  0  1  0  0  0  0  0  0
  -27.7540  -32.1440   26.0150 C   0  0  0  0  0  1  0  0  0  0  0  0
  1  2  1  0
  1  3  1  0
  5  1  1  0
  5  8  1  0
  5  4  1  0
  6  4  1  0
  6  9  1  0
  7  6  1  0
  7  9  1  0
  8 12  1  0
  8  7  1  0
  9 11  1  1
  9 10  1  0
 13 12  1  0
 14 19  1  0
 15 16  1  0
 15 14  1  0
 17 16  1  0
 17 24  1  0
 17 18  1  0
 19 13  1  0
 19 18  1  0
 20 13  2  0
 21 22  2  0
 22 23  1  0
 22 41  1  0
 23 26  1  0
 24 21  1  0
 24 25  1  0
 25 23  2  0
 26 27  1  0
 27 28  2  0
 29 32  1  0
 29 28  1  0
 30 29  2  0
 31 30  1  0
 31 26  2  0
 32 33  1  0
 33 38  2  0
 33 34  1  0
 34 35  2  0
 35 36  1  0
 36 40  1  0
 37 36  2  0
 38 37  1  0
 39 38  1  0
 41 42  1  0
 42 45  1  0
 42 44  1  0
 43 41  2  0
 46 47  1  0
 46 21  1  0
 48 46  1  0
 49  3  1  0
 50 49  1  0
 50 51  1  0
 51 52  1  0
 53 55  1  0
 53 52  1  0
 54 65  2  0
 55 60  1  0
 56 64  1  0
 56 66  1  0
 57 63  1  0
 57 59  1  0
 58 64  1  0
 59 58  1  0
 60 59  2  0
 61 62  1  0
 61 55  2  0
 62 57  2  0
 63 56  1  0
 64 54  1  0
 66 68  2  0
 67 66  1  0
 69 67  1  0
 70 79  2  0
 70 75  1  0
 71 67  1  0
 71 75  1  0
 72 71  1  0
 73 74  1  0
 73 72  1  0
 74 70  1  0
 75 76  2  0
 76 77  1  0
 78 77  2  0
 79 78  1  0
 80 54  1  0
 80 81  1  0
 80 90  1  0
 81 84  1  0
 82 86  1  0
 82 81  1  0
 83 82  2  0
 86 85  1  0
 88 86  1  0
 88 89  1  0
 88 87  1  0
 90 93  1  1
 90 91  1  0
 92 90  1  0
M  ISO  4  12 100  13 100  52 101  53 101
M  END
>  <TORSDO>  (13) 
F 22

>  <SCORE>  (13) 
-6.297

>  <name>  (13) 
12

>  <ligand_id>  (13) 
12

>  <original_smiles>  (13) 
[H]c1c([H])c([H])c2c(c1[H])C([H])([H])C([H])([H])C([H])([H])C2([H])N([H])C(=O)C1([H])N(C(=O)C([H])(N([H])C(=O)C([H])(N([H])C([H])([H])[H])C([H])([H])[H])C(C([H])([H])[H])(C([H])([H])[H])C([H])([H])[H])C([H])([H])c2c([H])c(OC([H])([H])C([H])([H])C([H])([H])C([H])([H])N=C(C([H])([H])[H])C3([H])C([H])([H])C4([H])C([H])(C3([H])C([H])([H])C(=O)N3C([H])([H])C([H])([H])C([H])([H])C([H])(n5nc(-c6c([H])c([H])c(Oc7c([H])c([H])c(F)c([H])c7F)c([H])c6[H])c(C(=O)N([H])[H])c5N([H])[H])C3([H])[H])C4(C([H])([H])[H])C([H])([H])[H])c([H])c([H])c2C1([H])[H]

>  <smiles>  (13) 
[H]c1c([H])c([H])c2c(c1[H])C([H])([H])C([H])([H])C([H])([H])C2([H])N([H])C(=O)C1([H])N(C(=O)C([H])(N([H])C(=O)C([H])(N([H])C([H])([H])[H])C([H])([H])[H])C(C([H])([H])[H])(C([H])([H])[H])C([H])([H])[H])C([H])([H])c2c([H])c(OC([H])([H])C([H])([H])C([H])([H])C([H])([H])N=C(C([H])([H])[H])C3([H])C([H])([H])C4([H])C([H])(C3([H])C([H])([H])C(=O)N3C([H])([H])C([H])([H])C([H])([H])C([H])(n5nc(-c6c([H])c([H])c(Oc7c([H])c([H])c(F)c([H])c7F)c([H])c6[H])c(C(=O)N([H])[H])c5N([H])[H])C3([H])[H])C4(C([H])([H])[H])C([H])([H])[H])c([H])c([H])c2C1([H])[H]

$$$$
13:0:0
     RDKit          3D

 96104  0  0  1  0  0  0  0  0999 V2000
  -28.6150  -22.5300   18.0810 C   0  0  0  0  0  2  0  0  0  0  0  0
  -27.9690  -21.1880   18.4350 C   0  0  0  0  0  2  0  0  0  0  0  0
  -30.1480  -22.3740   18.2410 C   0  0  0  0  0  3  0  0  0  0  0  0
  -29.0630  -20.3250   19.0890 C   0  0  0  0  0  3  0  0  0  0  0  0
  -30.4120  -20.8480   18.5020 C   0  0  2  0  0  0  0  0  0  0  0  0
  -31.5740  -20.5120   19.4710 C   0  0  0  0  0  1  0  0  0  0  0  0
  -30.7630  -20.2060   17.1320 C   0  0  0  0  0  1  0  0  0  0  0  0
  -28.8270  -18.8030   18.9360 C   0  0  0  0  0  0  0  0  0  0  0  0
  -29.3440  -17.9870   19.8670 N   0  0  0  0  0  0  0  0  0  0  0  0
  -28.2160  -18.3610   17.9600 O   0  0  0  0  0  0  0  0  0  0  0  0
  -29.8160  -18.4050   20.6580 H   0  0  0  0  0  0  0  0  0  0  0  0
  -29.4720  -16.5440   19.6570 C   0  0  0  0  0  2  0  0  0  0  0  0
  -29.9510  -15.7460   20.8970 C   0  0  0  0  0  2  0  0  0  0  0  0
  -30.6730  -14.4530   20.4600 C   0  0  0  0  0  0  0  0  0  0  0  0
  -30.3680  -12.2970   19.3280 C   0  0  0  0  0  2  0  0  0  0  0  0
  -29.4410  -12.5340   18.1170 C   0  0  0  0  0  2  0  0  0  0  0  0
  -27.9600  -12.4150   18.5290 C   0  0  0  0  0  2  0  0  0  0  0  0
  -27.6210  -13.2370   19.8010 C   0  0  0  0  0  3  0  0  0  0  0  0
  -28.6670  -12.9960   20.9110 C   0  0  0  0  0  2  0  0  0  0  0  0
  -30.0010  -13.2770   20.3600 N   0  0  0  0  0  0  0  0  0  0  0  0
  -31.8250  -14.5890   20.0380 O   0  0  0  0  0  0  0  0  0  0  0  0
  -25.2200  -13.8700   20.4780 C   0  0  0  0  0  0  0  0  0  0  0  0
  -24.1430  -13.1080   20.8420 C   0  0  0  0  0  0  0  0  0  0  0  0
  -24.5990  -11.7540   20.8290 C   0  0  0  0  0  0  0  0  0  0  0  0
  -26.2620  -12.9800   20.2670 N   0  0  0  0  0  0  0  0  0  0  0  0
  -25.8900  -11.7030   20.5360 N   0  0  0  0  0  0  0  0  0  0  0  0
  -23.8660  -10.4960   21.0230 C   0  0  0  0  0  0  0  0  0  0  0  0
  -24.2890   -9.5320   21.9640 C   0  0  0  0  0  3  0  0  0  0  0  0
  -23.5570   -8.3390   22.1450 C   0  0  0  0  0  3  0  0  0  0  0  0
  -22.3880   -8.1030   21.3840 C   0  0  0  0  0  0  0  0  0  0  0  0
  -21.9850   -9.0550   20.4310 C   0  0  0  0  0  3  0  0  0  0  0  0
  -22.7180  -10.2400   20.2490 C   0  0  0  0  0  3  0  0  0  0  0  0
  -21.6260   -6.9620   21.4750 O   0  0  0  0  0  0  0  0  0  0  0  0
  -21.5700   -6.2240   22.6300 C   0  0  0  0  0  0  0  0  0  0  0  0
  -21.1480   -6.7870   23.8540 C   0  0  0  0  0  3  0  0  0  0  0  0
  -21.0390   -5.9750   25.0010 C   0  0  0  0  0  3  0  0  0  0  0  0
  -21.3410   -4.6020   24.9250 C   0  0  0  0  0  0  0  0  0  0  0  0
  -21.7560   -4.0400   23.7050 C   0  0  0  0  0  3  0  0  0  0  0  0
  -21.8690   -4.8480   22.5600 C   0  0  0  0  0  0  0  0  0  0  0  0
  -22.2490   -4.2960   21.3830 F   0  0  0  0  0  0  0  0  0  0  0  0
  -21.2290   -3.8220   26.0240 F   0  0  0  0  0  0  0  0  0  0  0  0
  -22.7450  -13.5940   21.0960 C   0  0  0  0  0  0  0  0  0  0  0  0
  -22.0030  -12.9080   21.9580 N   0  0  0  0  0  0  0  0  0  0  0  0
  -22.3170  -14.6170   20.5630 O   0  0  0  0  0  0  0  0  0  0  0  0
  -22.3610  -12.0790   22.4110 H   0  0  0  0  0  0  0  0  0  0  0  0
  -21.0640  -13.2150   22.1700 H   0  0  0  0  0  0  0  0  0  0  0  0
  -25.3920  -15.2400   20.2900 N   0  0  0  0  0  0  0  0  0  0  0  0
  -24.6250  -15.8960   20.3890 H   0  0  0  0  0  0  0  0  0  0  0  0
  -26.2490  -15.6790   19.9810 H   0  0  0  0  0  0  0  0  0  0  0  0
  -30.7970  -23.3800   19.2140 C   0  0  0  0  0  0  0  0  0  0  0  0
  -32.2690  -23.6580   18.9140 C   0  0  0  0  0  1  0  0  0  0  0  0
  -30.1380  -23.9400   20.1580 N   0  0  0  0  0  0  0  0  0  0  0  0
  -30.7510  -24.9430   21.0170 C   0  0  0  0  0  2  0  0  0  0  0  0
  -30.7810  -26.3410   20.3560 C   0  0  0  0  0  2  0  0  0  0  0  0
  -29.5660  -27.2320   20.6610 C   0  0  0  0  0  2  0  0  0  0  0  0
  -28.3710  -26.6840   20.1090 O   0  0  0  0  0  0  0  0  0  0  0  0
  -24.5450  -31.8610   23.2280 C   0  0  0  0  0  0  0  0  0  0  0  0
  -27.2220  -27.4430   20.1780 C   0  0  0  0  0  0  0  0  0  0  0  0
  -23.3390  -30.4510   21.5850 C   0  0  0  0  0  3  0  0  0  0  0  0
  -24.7990  -28.9040   20.1780 C   0  0  0  0  0  0  0  0  0  0  0  0
  -25.8560  -30.8240   21.3870 C   0  0  0  0  0  2  0  0  0  0  0  0
  -25.9460  -29.4480   20.7680 C   0  0  0  0  0  0  0  0  0  0  0  0
  -27.1540  -28.7250   20.7770 C   0  0  0  0  0  3  0  0  0  0  0  0
  -26.0560  -26.9040   19.5970 C   0  0  0  0  0  3  0  0  0  0  0  0
  -24.8440  -27.6250   19.5930 C   0  0  0  0  0  3  0  0  0  0  0  0
  -23.5510  -29.7570   20.2110 C   0  0  0  0  0  2  0  0  0  0  0  0
  -24.5970  -31.0600   22.1270 N   0  0  0  0  0  0  0  0  0  0  0  0
  -23.4640  -32.1370   23.7650 O   0  0  0  0  0  0  0  0  0  0  0  0
  -22.6860  -29.4380   22.5500 C   0  0  0  0  0  0  0  0  0  0  0  0
  -21.3600  -29.2650   22.4220 N   0  0  0  0  0  0  0  0  0  0  0  0
  -23.3660  -28.8100   23.3660 O   0  0  0  0  0  0  0  0  0  0  0  0
  -20.8740  -29.8230   21.7350 H   0  0  0  0  0  0  0  0  0  0  0  0
  -17.9760  -28.1140   22.9300 C   0  0  0  0  0  0  0  0  0  0  0  0
  -20.5360  -28.3340   23.1940 C   0  0  0  0  0  3  0  0  0  0  0  0
  -20.6190  -26.9050   22.6110 C   0  0  0  0  0  2  0  0  0  0  0  0
  -19.5090  -26.6010   21.6000 C   0  0  0  0  0  2  0  0  0  0  0  0
  -18.1310  -26.7630   22.2510 C   0  0  0  0  0  2  0  0  0  0  0  0
  -19.1060  -28.8580   23.3590 C   0  0  0  0  0  0  0  0  0  0  0  0
  -18.9080  -30.1240   23.9520 C   0  0  0  0  0  3  0  0  0  0  0  0
  -17.6110  -30.6440   24.1230 C   0  0  0  0  0  3  0  0  0  0  0  0
  -16.4950  -29.8960   23.7110 C   0  0  0  0  0  3  0  0  0  0  0  0
  -16.6780  -28.6320   23.1210 C   0  0  0  0  0  3  0  0  0  0  0  0
  -25.8330  -32.4880   23.8470 C   0  0  0  0  0  3  0  0  0  0  0  0
  -25.5300  -33.8870   24.1730 N   0  0  0  0  0  0  0  0  0  0  0  0
  -25.8790  -34.9350   23.4160 C   0  0  0  0  0  0  0  0  0  0  0  0
  -26.5610  -34.8270   22.3940 O   0  0  0  0  0  0  0  0  0  0  0  0
  -24.9260  -34.0470   24.9670 H   0  0  0  0  0  0  0  0  0  0  0  0
  -24.1730  -36.7400   23.0250 C   0  0  0  0  0  1  0  0  0  0  0  0
  -25.3920  -36.3260   23.8640 C   0  0  0  0  0  3  0  0  0  0  0  0
  -27.5160  -37.1910   24.7430 C   0  0  0  0  0  1  0  0  0  0  0  0
  -26.4350  -37.3700   23.7760 N   0  0  0  0  0  0  0  0  0  0  0  0
  -26.0340  -38.2930   23.9180 H   0  0  0  0  0  0  0  0  0  0  0  0
  -26.3500  -31.7150   25.1220 C   0  0  1  0  0  0  0  0  0  0  0  0
  -25.2590  -31.4770   26.1910 C   0  0  0  0  0  1  0  0  0  0  0  0
  -26.9310  -30.3370   24.7230 C   0  0  0  0  0  1  0  0  0  0  0  0
  -27.5030  -32.5070   25.7840 C   0  0  0  0  0  1  0  0  0  0  0  0
  1  3  1  0
  1  2  1  0
  2  4  1  0
  3  5  1  0
  3 50  1  0
  4  8  1  0
  5  4  1  0
  5  6  1  1
  7  5  1  0
  8  9  1  0
  9 11  1  0
 10  8  2  0
 12  9  1  0
 12 13  1  0
 14 13  1  0
 15 20  1  0
 16 17  1  0
 16 15  1  0
 18 17  1  0
 18 25  1  0
 18 19  1  0
 20 14  1  0
 20 19  1  0
 21 14  2  0
 22 23  2  0
 23 42  1  0
 24 23  1  0
 24 27  1  0
 25 22  1  0
 25 26  1  0
 26 24  2  0
 27 28  1  0
 28 29  2  0
 30 33  1  0
 30 29  1  0
 31 30  2  0
 32 31  1  0
 32 27  2  0
 33 34  1  0
 34 35  1  0
 35 36  2  0
 37 36  1  0
 37 41  1  0
 38 37  2  0
 39 34  2  0
 39 38  1  0
 40 39  1  0
 42 43  1  0
 43 46  1  0
 43 45  1  0
 44 42  2  0
 47 48  1  0
 47 22  1  0
 49 47  1  0
 50 52  2  0
 51 50  1  0
 52 53  1  0
 54 55  1  0
 54 53  1  0
 56 58  1  0
 56 55  1  0
 57 68  2  0
 58 63  1  0
 59 67  1  0
 59 69  1  0
 60 66  1  0
 60 62  1  0
 61 67  1  0
 62 63  2  0
 62 61  1  0
 64 58  2  0
 65 64  1  0
 65 60  2  0
 66 59  1  0
 67 57  1  0
 69 71  2  0
 70 69  1  0
 72 70  1  0
 73 82  2  0
 73 78  1  0
 74 70  1  0
 74 78  1  0
 75 74  1  0
 76 77  1  0
 76 75  1  0
 77 73  1  0
 78 79  2  0
 79 80  1  0
 81 80  2  0
 82 81  1  0
 83 57  1  0
 83 84  1  0
 83 93  1  0
 84 87  1  0
 85 89  1  0
 85 84  1  0
 86 85  2  0
 89 88  1  0
 91 89  1  0
 91 92  1  0
 91 90  1  0
 93 96  1  1
 93 94  1  0
 95 93  1  0
M  ISO  4  13 100  14 100  55 101  56 101
M  END
>  <TORSDO>  (14) 
F 23

>  <SCORE>  (14) 
-13.047

>  <name>  (14) 
13

>  <ligand_id>  (14) 
13

>  <original_smiles>  (14) 
[H]c1c([H])c([H])c2c(c1[H])C([H])([H])C([H])([H])C([H])([H])C2([H])N([H])C(=O)C1([H])N(C(=O)C([H])(N([H])C(=O)C([H])(N([H])C([H])([H])[H])C([H])([H])[H])C(C([H])([H])[H])(C([H])([H])[H])C([H])([H])[H])C([H])([H])c2c([H])c(OC([H])([H])C([H])([H])C([H])([H])N=C(C([H])([H])[H])C3([H])C([H])([H])C([H])([H])C([H])(C(=O)N([H])C([H])([H])C([H])([H])C(=O)N4C([H])([H])C([H])([H])C([H])([H])C([H])(n5nc(-c6c([H])c([H])c(Oc7c([H])c([H])c(F)c([H])c7F)c([H])c6[H])c(C(=O)N([H])[H])c5N([H])[H])C4([H])[H])C3(C([H])([H])[H])C([H])([H])[H])c([H])c([H])c2C1([H])[H]

>  <smiles>  (14) 
[H]c1c([H])c([H])c2c(c1[H])C([H])([H])C([H])([H])C([H])([H])C2([H])N([H])C(=O)C1([H])N(C(=O)C([H])(N([H])C(=O)C([H])(N([H])C([H])([H])[H])C([H])([H])[H])C(C([H])([H])[H])(C([H])([H])[H])C([H])([H])[H])C([H])([H])c2c([H])c(OC([H])([H])C([H])([H])C([H])([H])N=C(C([H])([H])[H])C3([H])C([H])([H])C([H])([H])C([H])(C(=O)N([H])C([H])([H])C([H])([H])C(=O)N4C([H])([H])C([H])([H])C([H])([H])C([H])(n5nc(-c6c([H])c([H])c(Oc7c([H])c([H])c(F)c([H])c7F)c([H])c6[H])c(C(=O)N([H])[H])c5N([H])[H])C4([H])[H])C3(C([H])([H])[H])C([H])([H])[H])c([H])c([H])c2C1([H])[H]

$$$$
14:0:0
     RDKit          3D

 93102  0  0  1  0  0  0  0  0999 V2000
  -28.9480  -19.5710   20.0920 C   0  0  0  0  0  0  0  0  0  0  0  0
  -27.7170  -19.0760   20.8400 C   0  0  0  0  0  1  0  0  0  0  0  0
  -29.2720  -20.8210   19.9860 N   0  0  0  0  0  0  0  0  0  0  0  0
  -31.4610  -18.1430   17.6060 C   0  0  0  0  0  2  0  0  0  0  0  0
  -31.3990  -16.6350   17.9100 C   0  0  0  0  0  2  0  0  0  0  0  0
  -29.8020  -16.9760   19.8540 C   0  0  0  0  0  2  0  0  0  0  0  0
  -29.7200  -18.4590   19.3220 C   0  0  0  0  0  3  0  0  0  0  0  0
  -31.2090  -18.7540   18.9960 C   0  0  0  0  0  3  0  0  0  0  0  0
  -31.2520  -16.5230   19.4620 C   0  0  2  0  0  0  0  0  0  0  0  0
  -32.0350  -17.8190   19.9160 C   0  0  1  0  0  0  0  0  0  0  0  0
  -33.5580  -17.9050   19.5870 C   0  0  0  0  0  1  0  0  0  0  0  0
  -31.9330  -18.1920   21.4230 C   0  0  0  0  0  1  0  0  0  0  0  0
  -31.8380  -15.1230   19.9410 C   0  0  0  0  0  0  0  0  0  0  0  0
  -31.4560  -12.8170   19.1870 C   0  0  0  0  0  2  0  0  0  0  0  0
  -30.5370  -12.8350   17.9490 C   0  0  0  0  0  2  0  0  0  0  0  0
  -29.0600  -12.7840   18.3770 C   0  0  0  0  0  2  0  0  0  0  0  0
  -28.7130  -13.7960   19.5010 C   0  0  0  0  0  3  0  0  0  0  0  0
  -29.7700  -13.8060   20.6250 C   0  0  0  0  0  2  0  0  0  0  0  0
  -31.0940  -13.9790   20.0190 N   0  0  0  0  0  0  0  0  0  0  0  0
  -33.0580  -15.0250   19.8510 O   0  0  0  0  0  0  0  0  0  0  0  0
  -26.3850  -14.5350   20.2920 C   0  0  0  0  0  0  0  0  0  0  0  0
  -25.2760  -13.8250   20.6600 C   0  0  0  0  0  0  0  0  0  0  0  0
  -25.6480  -12.4470   20.5890 C   0  0  0  0  0  0  0  0  0  0  0  0
  -27.3650  -13.5940   20.0170 N   0  0  0  0  0  0  0  0  0  0  0  0
  -26.9280  -12.3310   20.2620 N   0  0  0  0  0  0  0  0  0  0  0  0
  -24.8420  -11.2310   20.7530 C   0  0  0  0  0  0  0  0  0  0  0  0
  -25.1570  -10.2640   21.7310 C   0  0  0  0  0  3  0  0  0  0  0  0
  -24.3550   -9.1120   21.8840 C   0  0  0  0  0  3  0  0  0  0  0  0
  -23.2240   -8.9210   21.0540 C   0  0  0  0  0  0  0  0  0  0  0  0
  -22.9290   -9.8760   20.0660 C   0  0  0  0  0  3  0  0  0  0  0  0
  -23.7310  -11.0190   19.9120 C   0  0  0  0  0  3  0  0  0  0  0  0
  -22.4030   -7.8220   21.1140 O   0  0  0  0  0  0  0  0  0  0  0  0
  -22.1440   -7.1790   22.2980 C   0  0  0  0  0  0  0  0  0  0  0  0
  -21.5000   -7.8300   23.3730 C   0  0  0  0  0  3  0  0  0  0  0  0
  -21.1920   -7.1120   24.5460 C   0  0  0  0  0  3  0  0  0  0  0  0
  -21.5160   -5.7460   24.6440 C   0  0  0  0  0  0  0  0  0  0  0  0
  -22.1530   -5.0950   23.5720 C   0  0  0  0  0  3  0  0  0  0  0  0
  -22.4630   -5.8100   22.4010 C   0  0  0  0  0  0  0  0  0  0  0  0
  -23.0570   -5.1740   21.3630 F   0  0  0  0  0  0  0  0  0  0  0  0
  -21.2130   -5.0550   25.7670 F   0  0  0  0  0  0  0  0  0  0  0  0
  -23.9170  -14.3860   20.9630 C   0  0  0  0  0  0  0  0  0  0  0  0
  -23.1590  -13.7220   21.8270 N   0  0  0  0  0  0  0  0  0  0  0  0
  -23.5390  -15.4480   20.4670 O   0  0  0  0  0  0  0  0  0  0  0  0
  -23.4780  -12.8630   22.2500 H   0  0  0  0  0  0  0  0  0  0  0  0
  -22.2460  -14.0790   22.0720 H   0  0  0  0  0  0  0  0  0  0  0  0
  -26.6290  -15.8960   20.1390 N   0  0  0  0  0  0  0  0  0  0  0  0
  -25.8960  -16.5860   20.2610 H   0  0  0  0  0  0  0  0  0  0  0  0
  -27.4820  -16.2850   19.7630 H   0  0  0  0  0  0  0  0  0  0  0  0
  -28.4130  -21.8920   20.5220 C   0  0  0  0  0  2  0  0  0  0  0  0
  -29.1410  -23.2650   20.7110 C   0  0  0  0  0  2  0  0  0  0  0  0
  -28.5520  -24.5270   19.9890 C   0  0  0  0  0  2  0  0  0  0  0  0
  -28.9060  -25.8800   20.6910 C   0  0  0  0  0  2  0  0  0  0  0  0
  -28.7520  -27.0940   19.9240 O   0  0  0  0  0  0  0  0  0  0  0  0
  -24.6480  -31.8360   23.3870 C   0  0  0  0  0  0  0  0  0  0  0  0
  -27.5540  -27.7690   20.0250 C   0  0  0  0  0  0  0  0  0  0  0  0
  -23.5390  -30.5120   21.6160 C   0  0  0  0  0  3  0  0  0  0  0  0
  -25.0910  -29.1640   20.1020 C   0  0  0  0  0  0  0  0  0  0  0  0
  -26.0460  -31.0090   21.4920 C   0  0  0  0  0  2  0  0  0  0  0  0
  -26.2140  -29.6960   20.7510 C   0  0  0  0  0  0  0  0  0  0  0  0
  -27.4510  -29.0080   20.7080 C   0  0  0  0  0  3  0  0  0  0  0  0
  -26.4180  -27.2570   19.3700 C   0  0  0  0  0  3  0  0  0  0  0  0
  -25.1890  -27.9450   19.4060 C   0  0  0  0  0  3  0  0  0  0  0  0
  -23.8040  -29.9560   20.1900 C   0  0  0  0  0  2  0  0  0  0  0  0
  -24.7610  -31.1310   22.2240 N   0  0  0  0  0  0  0  0  0  0  0  0
  -23.5450  -32.0080   23.9280 O   0  0  0  0  0  0  0  0  0  0  0  0
  -22.9280  -29.3850   22.4800 C   0  0  0  0  0  0  0  0  0  0  0  0
  -21.6320  -29.1050   22.2710 N   0  0  0  0  0  0  0  0  0  0  0  0
  -23.6210  -28.7680   23.2930 O   0  0  0  0  0  0  0  0  0  0  0  0
  -21.1310  -29.6620   21.5910 H   0  0  0  0  0  0  0  0  0  0  0  0
  -18.3430  -27.6300   22.5340 C   0  0  0  0  0  0  0  0  0  0  0  0
  -20.8590  -28.0580   22.9390 C   0  0  0  0  0  3  0  0  0  0  0  0
  -21.0960  -26.6810   22.2750 C   0  0  0  0  0  2  0  0  0  0  0  0
  -20.0640  -26.3490   21.1920 C   0  0  0  0  0  2  0  0  0  0  0  0
  -18.6500  -26.3470   21.7800 C   0  0  0  0  0  2  0  0  0  0  0  0
  -19.3810  -28.4410   23.0650 C   0  0  0  0  0  0  0  0  0  0  0  0
  -19.0420  -29.6400   23.7270 C   0  0  0  0  0  3  0  0  0  0  0  0
  -17.6980  -30.0330   23.8650 C   0  0  0  0  0  3  0  0  0  0  0  0
  -16.6730  -29.2180   23.3520 C   0  0  0  0  0  3  0  0  0  0  0  0
  -16.9960  -28.0180   22.6930 C   0  0  0  0  0  3  0  0  0  0  0  0
  -25.8900  -32.4790   24.0770 C   0  0  0  0  0  3  0  0  0  0  0  0
  -25.5740  -33.8910   24.3310 N   0  0  0  0  0  0  0  0  0  0  0  0
  -25.9770  -34.9100   23.5590 C   0  0  0  0  0  0  0  0  0  0  0  0
  -26.7220  -34.7610   22.5870 O   0  0  0  0  0  0  0  0  0  0  0  0
  -24.9210  -34.0820   25.0760 H   0  0  0  0  0  0  0  0  0  0  0  0
  -24.2990  -36.7000   23.0070 C   0  0  0  0  0  1  0  0  0  0  0  0
  -25.4720  -36.3190   23.9240 C   0  0  0  0  0  3  0  0  0  0  0  0
  -27.5330  -37.2360   24.8920 C   0  0  0  0  0  1  0  0  0  0  0  0
  -26.5220  -37.3590   23.8460 N   0  0  0  0  0  0  0  0  0  0  0  0
  -26.1130  -38.2880   23.9070 H   0  0  0  0  0  0  0  0  0  0  0  0
  -26.3040  -31.7510   25.4160 C   0  0  1  0  0  0  0  0  0  0  0  0
  -25.1280  -31.5420   26.3990 C   0  0  0  0  0  1  0  0  0  0  0  0
  -26.9200  -30.3660   25.1160 C   0  0  0  0  0  1  0  0  0  0  0  0
  -27.3940  -32.5730   26.1430 C   0  0  0  0  0  1  0  0  0  0  0  0
  1  2  1  0
  3  1  2  0
  3 49  1  0
  4  5  1  0
  5  9  1  0
  7  6  1  0
  7  1  1  0
  8  4  1  0
  8  7  1  0
  8 10  1  0
  9  6  1  0
  9 10  1  0
  9 13  1  1
 10 12  1  1
 11 10  1  0
 13 19  1  0
 14 19  1  0
 15 16  1  0
 15 14  1  0
 17 16  1  0
 17 24  1  0
 17 18  1  0
 19 18  1  0
 20 13  2  0
 21 22  2  0
 22 41  1  0
 23 22  1  0
 23 26  1  0
 24 25  1  0
 24 21  1  0
 25 23  2  0
 26 27  1  0
 27 28  2  0
 29 32  1  0
 29 28  1  0
 30 29  2  0
 31 30  1  0
 31 26  2  0
 32 33  1  0
 33 38  2  0
 33 34  1  0
 34 35  2  0
 35 36  1  0
 36 40  1  0
 37 36  2  0
 38 37  1  0
 39 38  1  0
 41 42  1  0
 42 45  1  0
 42 44  1  0
 43 41  2  0
 46 47  1  0
 46 21  1  0
 48 46  1  0
 49 50  1  0
 51 52  1  0
 51 50  1  0
 53 55  1  0
 53 52  1  0
 54 65  2  0
 55 60  1  0
 56 64  1  0
 56 66  1  0
 57 63  1  0
 57 59  1  0
 58 64  1  0
 59 58  1  0
 60 59  2  0
 61 62  1  0
 61 55  2  0
 62 57  2  0
 63 56  1  0
 64 54  1  0
 66 68  2  0
 67 66  1  0
 69 67  1  0
 70 79  2  0
 70 75  1  0
 71 67  1  0
 71 75  1  0
 72 71  1  0
 73 74  1  0
 73 72  1  0
 74 70  1  0
 75 76  2  0
 76 77  1  0
 78 77  2  0
 79 78  1  0
 80 54  1  0
 80 81  1  0
 80 90  1  0
 81 84  1  0
 82 86  1  0
 82 81  1  0
 83 82  2  0
 86 85  1  0
 88 89  1  0
 88 86  1  0
 88 87  1  0
 90 93  1  1
 90 91  1  0
 92 90  1  0
M  ISO  4   9 100  13 100  52 101  53 101
M  END
>  <TORSDO>  (15) 
F 21

>  <SCORE>  (15) 
-11.225

>  <name>  (15) 
14

>  <ligand_id>  (15) 
14

>  <original_smiles>  (15) 
[H]c1c([H])c([H])c2c(c1[H])C([H])([H])C([H])([H])C([H])([H])C2([H])N([H])C(=O)C1([H])N(C(=O)C([H])(N([H])C(=O)C([H])(N([H])C([H])([H])[H])C([H])([H])[H])C(C([H])([H])[H])(C([H])([H])[H])C([H])([H])[H])C([H])([H])c2c([H])c(OC([H])([H])C([H])([H])C([H])([H])C([H])([H])N=C(C([H])([H])[H])C3([H])C([H])([H])C4(C(=O)N5C([H])([H])C([H])([H])C([H])([H])C([H])(n6nc(-c7c([H])c([H])c(Oc8c([H])c([H])c(F)c([H])c8F)c([H])c7[H])c(C(=O)N([H])[H])c6N([H])[H])C5([H])[H])C([H])([H])C([H])([H])C3([H])C4(C([H])([H])[H])C([H])([H])[H])c([H])c([H])c2C1([H])[H]

>  <smiles>  (15) 
[H]c1c([H])c([H])c2c(c1[H])C([H])([H])C([H])([H])C([H])([H])C2([H])N([H])C(=O)C1([H])N(C(=O)C([H])(N([H])C(=O)C([H])(N([H])C([H])([H])[H])C([H])([H])[H])C(C([H])([H])[H])(C([H])([H])[H])C([H])([H])[H])C([H])([H])c2c([H])c(OC([H])([H])C([H])([H])C([H])([H])C([H])([H])N=C(C([H])([H])[H])C3([H])C([H])([H])C4(C(=O)N5C([H])([H])C([H])([H])C([H])([H])C([H])(n6nc(-c7c([H])c([H])c(Oc8c([H])c([H])c(F)c([H])c8F)c([H])c7[H])c(C(=O)N([H])[H])c6N([H])[H])C5([H])[H])C([H])([H])C([H])([H])C3([H])C4(C([H])([H])[H])C([H])([H])[H])c([H])c([H])c2C1([H])[H]

$$$$
15:0:0
     RDKit          3D

 95104  0  0  1  0  0  0  0  0999 V2000
  -32.3060  -21.9530   21.7370 C   0  0  0  0  0  2  0  0  0  0  0  0
  -31.3160  -21.1180   22.5170 C   0  0  0  0  0  3  0  0  0  0  0  0
  -30.8810  -22.4270   21.8750 C   0  0  0  0  0  3  0  0  0  0  0  0
  -30.9140  -19.7770   22.0180 C   0  0  0  0  0  3  0  0  0  0  0  0
  -31.7380  -18.7120   22.0160 C   0  0  0  0  0  3  0  0  0  0  0  0
  -30.0660  -17.0310   20.9130 C   0  0  0  0  0  2  0  0  0  0  0  0
  -30.7280  -15.1470   22.3210 C   0  0  0  0  0  2  0  0  0  0  0  0
  -31.4410  -17.2880   21.5470 C   0  0  0  0  0  3  0  0  0  0  0  0
  -29.7980  -15.5260   21.1460 C   0  0  0  0  0  3  0  0  0  0  0  0
  -31.5140  -16.3460   22.6730 N   0  0  0  0  0  4  0  0  0  0  0  0
  -32.4660  -16.1080   22.9040 H   0  0  0  0  0  0  0  0  0  0  0  0
  -31.0940  -16.7720   23.4830 H   0  0  0  0  0  0  0  0  0  0  0  0
  -30.0970  -14.6510   19.9060 C   0  0  0  0  0  0  0  0  0  0  0  0
  -29.6950  -12.6380   18.5220 C   0  0  0  0  0  2  0  0  0  0  0  0
  -28.5750  -12.8580   17.4880 C   0  0  0  0  0  2  0  0  0  0  0  0
  -27.1940  -12.5700   18.1120 C   0  0  0  0  0  2  0  0  0  0  0  0
  -26.9950  -13.2970   19.4690 C   0  0  0  0  0  3  0  0  0  0  0  0
  -28.2050  -13.0360   20.3920 C   0  0  0  0  0  2  0  0  0  0  0  0
  -29.4190  -13.4890   19.6890 N   0  0  0  0  0  0  0  0  0  0  0  0
  -30.9880  -15.0360   19.1410 O   0  0  0  0  0  0  0  0  0  0  0  0
  -24.6970  -13.7010   20.5650 C   0  0  0  0  0  0  0  0  0  0  0  0
  -23.7290  -12.8360   21.0030 C   0  0  0  0  0  0  0  0  0  0  0  0
  -24.2390  -11.5230   20.7690 C   0  0  0  0  0  0  0  0  0  0  0  0
  -25.7360  -12.9060   20.1010 N   0  0  0  0  0  0  0  0  0  0  0  0
  -25.4700  -11.5870   20.2750 N   0  0  0  0  0  0  0  0  0  0  0  0
  -23.6060  -10.2070   20.9320 C   0  0  0  0  0  0  0  0  0  0  0  0
  -24.1990   -9.1960   21.7200 C   0  0  0  0  0  3  0  0  0  0  0  0
  -23.5630   -7.9440   21.8740 C   0  0  0  0  0  3  0  0  0  0  0  0
  -22.3230   -7.6970   21.2400 C   0  0  0  0  0  0  0  0  0  0  0  0
  -21.7460   -8.7000   20.4380 C   0  0  0  0  0  3  0  0  0  0  0  0
  -22.3830   -9.9430   20.2830 C   0  0  0  0  0  3  0  0  0  0  0  0
  -21.6430   -6.5040   21.3140 O   0  0  0  0  0  0  0  0  0  0  0  0
  -21.7590   -5.6780   22.4030 C   0  0  0  0  0  0  0  0  0  0  0  0
  -21.4530   -6.1170   23.7090 C   0  0  0  0  0  3  0  0  0  0  0  0
  -21.5190   -5.2130   24.7890 C   0  0  0  0  0  3  0  0  0  0  0  0
  -21.8810   -3.8720   24.5660 C   0  0  0  0  0  0  0  0  0  0  0  0
  -22.1800   -3.4320   23.2640 C   0  0  0  0  0  3  0  0  0  0  0  0
  -22.1170   -4.3320   22.1860 C   0  0  0  0  0  0  0  0  0  0  0  0
  -22.3870   -3.8960   20.9320 F   0  0  0  0  0  0  0  0  0  0  0  0
  -21.9350   -3.0020   25.6010 F   0  0  0  0  0  0  0  0  0  0  0  0
  -22.3670  -13.2030   21.5230 C   0  0  0  0  0  0  0  0  0  0  0  0
  -21.8170  -12.3990   22.4260 N   0  0  0  0  0  0  0  0  0  0  0  0
  -21.8020  -14.2340   21.1630 O   0  0  0  0  0  0  0  0  0  0  0  0
  -22.2870  -11.5630   22.7380 H   0  0  0  0  0  0  0  0  0  0  0  0
  -20.9110  -12.6240   22.8120 H   0  0  0  0  0  0  0  0  0  0  0  0
  -24.7740  -15.0900   20.5090 N   0  0  0  0  0  0  0  0  0  0  0  0
  -24.0100  -15.6910   20.7980 H   0  0  0  0  0  0  0  0  0  0  0  0
  -25.5560  -15.6030   20.1220 H   0  0  0  0  0  0  0  0  0  0  0  0
  -29.9440  -22.4680   20.6770 C   0  0  0  0  0  2  0  0  0  0  0  0
  -30.0710  -23.7130   19.8880 N   0  0  0  0  0  4  0  0  0  0  0  0
  -31.0350  -23.8420   19.6240 H   0  0  0  0  0  0  0  0  0  0  0  0
  -29.5570  -23.5700   19.0330 H   0  0  0  0  0  0  0  0  0  0  0  0
  -29.5670  -24.9520   20.5310 C   0  0  0  0  0  2  0  0  0  0  0  0
  -28.7500  -25.8020   19.5430 C   0  0  0  0  0  2  0  0  0  0  0  0
  -28.5820  -27.1070   20.0960 O   0  0  0  0  0  0  0  0  0  0  0  0
  -24.6210  -31.9970   23.3320 C   0  0  0  0  0  0  0  0  0  0  0  0
  -27.3570  -27.7430   20.0840 C   0  0  0  0  0  0  0  0  0  0  0  0
  -23.4380  -30.6380   21.6350 C   0  0  0  0  0  3  0  0  0  0  0  0
  -24.9210  -29.1870   20.1510 C   0  0  0  0  0  0  0  0  0  0  0  0
  -25.9550  -31.0540   21.4580 C   0  0  0  0  0  2  0  0  0  0  0  0
  -26.0640  -29.7100   20.7680 C   0  0  0  0  0  0  0  0  0  0  0  0
  -27.2760  -28.9920   20.7380 C   0  0  0  0  0  3  0  0  0  0  0  0
  -26.1950  -27.2360   19.4510 C   0  0  0  0  0  3  0  0  0  0  0  0
  -24.9820  -27.9480   19.4920 C   0  0  0  0  0  3  0  0  0  0  0  0
  -23.6590  -30.0150   20.2300 C   0  0  0  0  0  2  0  0  0  0  0  0
  -24.6880  -31.2430   22.2000 N   0  0  0  0  0  0  0  0  0  0  0  0
  -23.5350  -32.2310   23.8820 O   0  0  0  0  0  0  0  0  0  0  0  0
  -22.8090  -29.5680   22.5560 C   0  0  0  0  0  0  0  0  0  0  0  0
  -21.4880  -29.3710   22.4220 N   0  0  0  0  0  0  0  0  0  0  0  0
  -23.5030  -28.9210   23.3430 O   0  0  0  0  0  0  0  0  0  0  0  0
  -20.9860  -29.9460   21.7610 H   0  0  0  0  0  0  0  0  0  0  0  0
  -18.1340  -28.1060   22.8630 C   0  0  0  0  0  0  0  0  0  0  0  0
  -20.6860  -28.3900   23.1540 C   0  0  0  0  0  3  0  0  0  0  0  0
  -20.8130  -26.9850   22.5210 C   0  0  0  0  0  2  0  0  0  0  0  0
  -19.7190  -26.6860   21.4920 C   0  0  0  0  0  2  0  0  0  0  0  0
  -18.3330  -26.7850   22.1370 C   0  0  0  0  0  2  0  0  0  0  0  0
  -19.2390  -28.8670   23.3260 C   0  0  0  0  0  0  0  0  0  0  0  0
  -19.0000  -30.1040   23.9620 C   0  0  0  0  0  3  0  0  0  0  0  0
  -17.6870  -30.5800   24.1410 C   0  0  0  0  0  3  0  0  0  0  0  0
  -16.5960  -29.8140   23.6980 C   0  0  0  0  0  3  0  0  0  0  0  0
  -16.8200  -28.5790   23.0630 C   0  0  0  0  0  3  0  0  0  0  0  0
  -25.8970  -32.6240   23.9760 C   0  0  0  0  0  3  0  0  0  0  0  0
  -25.5790  -34.0140   24.3290 N   0  0  0  0  0  0  0  0  0  0  0  0
  -25.9090  -35.0810   23.5890 C   0  0  0  0  0  0  0  0  0  0  0  0
  -26.5910  -34.9990   22.5630 O   0  0  0  0  0  0  0  0  0  0  0  0
  -24.9760  -34.1520   25.1270 H   0  0  0  0  0  0  0  0  0  0  0  0
  -24.1710  -36.8640   23.2490 C   0  0  0  0  0  1  0  0  0  0  0  0
  -25.4080  -36.4570   24.0650 C   0  0  0  0  0  3  0  0  0  0  0  0
  -27.5280  -37.3430   24.9300 C   0  0  0  0  0  1  0  0  0  0  0  0
  -26.4330  -37.5190   23.9790 N   0  0  0  0  0  0  0  0  0  0  0  0
  -26.0190  -38.4330   24.1390 H   0  0  0  0  0  0  0  0  0  0  0  0
  -26.4090  -31.8320   25.2420 C   0  0  1  0  0  0  0  0  0  0  0  0
  -25.3070  -31.5580   26.2910 C   0  0  0  0  0  1  0  0  0  0  0  0
  -27.0130  -30.4690   24.8260 C   0  0  0  0  0  1  0  0  0  0  0  0
  -27.5410  -32.6250   25.9360 C   0  0  0  0  0  1  0  0  0  0  0  0
  1  3  1  0
  1  2  1  0
  2  4  1  0
  3 49  1  0
  3  2  1  0
  5  4  2  0
  6  9  1  0
  6  8  1  0
  7 10  1  0
  8  5  1  0
  8 10  1  0
  9 13  1  0
  9  7  1  0
 10 11  1  0
 10 12  1  0
 14 19  1  0
 15 16  1  0
 15 14  1  0
 17 16  1  0
 17 24  1  0
 17 18  1  0
 19 13  1  0
 19 18  1  0
 20 13  2  0
 21 22  2  0
 22 41  1  0
 23 26  1  0
 23 22  1  0
 24 25  1  0
 24 21  1  0
 25 23  2  0
 26 27  1  0
 27 28  2  0
 29 32  1  0
 29 28  1  0
 30 29  2  0
 31 30  1  0
 31 26  2  0
 32 33  1  0
 33 34  1  0
 34 35  2  0
 36 35  1  0
 36 40  1  0
 37 36  2  0
 38 33  2  0
 38 37  1  0
 39 38  1  0
 41 42  1  0
 42 44  1  0
 42 45  1  0
 43 41  2  0
 46 21  1  0
 46 47  1  0
 48 46  1  0
 50 53  1  0
 50 49  1  0
 51 50  1  0
 52 50  1  0
 54 55  1  0
 54 53  1  0
 56 67  2  0
 57 55  1  0
 57 62  1  0
 58 66  1  0
 58 68  1  0
 59 65  1  0
 59 61  1  0
 60 66  1  0
 61 60  1  0
 62 61  2  0
 63 64  1  0
 63 57  2  0
 64 59  2  0
 65 58  1  0
 66 56  1  0
 68 70  2  0
 69 68  1  0
 71 69  1  0
 72 81  2  0
 72 77  1  0
 73 69  1  0
 73 77  1  0
 74 73  1  0
 75 76  1  0
 75 74  1  0
 76 72  1  0
 77 78  2  0
 78 79  1  0
 80 79  2  0
 81 80  1  0
 82 56  1  0
 82 83  1  0
 82 92  1  0
 83 86  1  0
 84 88  1  0
 84 83  1  0
 85 84  2  0
 88 87  1  0
 90 88  1  0
 90 91  1  0
 90 89  1  0
 92 95  1  1
 92 93  1  0
 94 92  1  0
M  ISO  4   9 100  13 100  54 101  55 101
M  END
>  <TORSDO>  (16) 
F 22

>  <SCORE>  (16) 
-10.211

>  <name>  (16) 
15

>  <ligand_id>  (16) 
15

>  <original_smiles>  (16) 
[H]C(=C([H])C1([H])C([H])([H])C([H])(C(=O)N2C([H])([H])C([H])([H])C([H])([H])C([H])(n3nc(-c4c([H])c([H])c(Oc5c([H])c([H])c(F)c([H])c5F)c([H])c4[H])c(C(=O)N([H])[H])c3N([H])[H])C2([H])[H])C([H])([H])[N+]1([H])[H])C1([H])C([H])([H])C1([H])C([H])([H])[N+]([H])([H])C([H])([H])C([H])([H])Oc1c([H])c([H])c2c(c1[H])C([H])([H])N(C(=O)C([H])(N([H])C(=O)C([H])(N([H])C([H])([H])[H])C([H])([H])[H])C(C([H])([H])[H])(C([H])([H])[H])C([H])([H])[H])C([H])(C(=O)N([H])C1([H])c3c([H])c([H])c([H])c([H])c3C([H])([H])C([H])([H])C1([H])[H])C2([H])[H]

>  <smiles>  (16) 
[H]C(=C([H])C1([H])C([H])([H])C([H])(C(=O)N2C([H])([H])C([H])([H])C([H])([H])C([H])(n3nc(-c4c([H])c([H])c(Oc5c([H])c([H])c(F)c([H])c5F)c([H])c4[H])c(C(=O)N([H])[H])c3N([H])[H])C2([H])[H])C([H])([H])[N+]1([H])[H])C1([H])C([H])([H])C1([H])C([H])([H])[N+]([H])([H])C([H])([H])C([H])([H])Oc1c([H])c([H])c2c(c1[H])C([H])([H])N(C(=O)C([H])(N([H])C(=O)C([H])(N([H])C([H])([H])[H])C([H])([H])[H])C(C([H])([H])[H])(C([H])([H])[H])C([H])([H])[H])C([H])(C(=O)N([H])C1([H])c3c([H])c([H])c([H])c([H])c3C([H])([H])C([H])([H])C1([H])[H])C2([H])[H]

$$$$
16:0:0
     RDKit          3D

 96103  0  0  1  0  0  0  0  0999 V2000
  -20.2900  -23.8450   20.3060 C   0  0  0  0  0  2  0  0  0  0  0  0
  -21.2390  -23.8220   19.0950 C   0  0  0  0  0  3  0  0  0  0  0  0
  -19.7780  -25.2730   21.4740 C   0  0  0  0  0  1  0  0  0  0  0  0
  -21.2670  -25.2940   18.1240 C   0  0  0  0  0  2  0  0  0  0  0  0
  -20.7440  -27.7320   20.1590 C   0  0  0  0  0  1  0  0  0  0  0  0
  -21.5640  -27.0720   18.5290 C   0  0  0  0  0  3  0  0  0  0  0  0
  -23.1730  -27.0930   18.3480 N   0  0  0  0  0  4  0  0  0  0  0  0
  -23.2780  -27.0280   17.3470 H   0  0  0  0  0  0  0  0  0  0  0  0
  -23.4860  -26.2030   18.6930 H   0  0  0  0  0  0  0  0  0  0  0  0
  -24.3010  -28.1090   18.7300 C   0  0  0  0  0  2  0  0  0  0  0  0
  -26.0050  -27.8790   18.6120 C   0  0  0  0  0  2  0  0  0  0  0  0
  -27.2740  -26.7470   18.8830 C   0  0  0  0  0  2  0  0  0  0  0  0
  -28.4840  -26.6330   19.8780 O   0  0  0  0  0  0  0  0  0  0  0  0
  -27.6880  -31.3550   25.3820 C   0  0  0  0  0  0  0  0  0  0  0  0
  -28.2450  -27.2760   21.0540 C   0  0  0  0  0  0  0  0  0  0  0  0
  -25.9710  -30.8380   23.7510 C   0  0  0  0  0  3  0  0  0  0  0  0
  -26.6890  -29.3210   21.9450 C   0  0  0  0  0  0  0  0  0  0  0  0
  -28.4700  -30.5270   23.1220 C   0  0  0  0  0  2  0  0  0  0  0  0
  -28.0560  -29.3920   22.2050 C   0  0  0  0  0  0  0  0  0  0  0  0
  -28.9080  -28.3940   21.6400 C   0  0  0  0  0  3  0  0  0  0  0  0
  -26.9600  -27.0080   21.4650 C   0  0  0  0  0  3  0  0  0  0  0  0
  -26.1490  -28.0900   21.6900 C   0  0  0  0  0  3  0  0  0  0  0  0
  -25.7960  -30.4700   22.2780 C   0  0  0  0  0  2  0  0  0  0  0  0
  -27.4150  -30.9140   24.1240 N   0  0  0  0  0  0  0  0  0  0  0  0
  -26.7900  -31.7460   26.1460 O   0  0  0  0  0  0  0  0  0  0  0  0
  -25.2390  -29.8300   24.6440 C   0  0  0  0  0  0  0  0  0  0  0  0
  -23.9030  -29.8360   24.6320 N   0  0  0  0  0  0  0  0  0  0  0  0
  -25.8870  -29.0140   25.3130 O   0  0  0  0  0  0  0  0  0  0  0  0
  -23.4090  -30.5500   24.1180 H   0  0  0  0  0  0  0  0  0  0  0  0
  -21.4840  -27.2040   23.3760 C   0  0  0  0  0  0  0  0  0  0  0  0
  -23.1210  -28.7220   25.1580 C   0  0  0  0  0  3  0  0  0  0  0  0
  -24.2840  -27.6500   25.7300 C   0  0  0  0  0  2  0  0  0  0  0  0
  -24.5470  -26.1480   25.1540 C   0  0  0  0  0  1  0  0  0  0  0  0
  -22.5470  -25.6060   23.3610 C   0  0  0  0  0  1  0  0  0  0  0  0
  -21.8460  -28.4590   24.1800 C   0  0  0  0  0  0  0  0  0  0  0  0
  -21.0700  -29.6780   24.1530 C   0  0  0  0  0  3  0  0  0  0  0  0
  -19.8890  -29.8360   23.4290 C   0  0  0  0  0  3  0  0  0  0  0  0
  -19.4600  -28.7100   22.7150 C   0  0  0  0  0  3  0  0  0  0  0  0
  -20.2150  -27.4730   22.6970 C   0  0  0  0  0  3  0  0  0  0  0  0
  -29.1380  -31.4200   25.9090 C   0  0  0  0  0  3  0  0  0  0  0  0
  -29.3110  -32.7740   26.4410 N   0  0  0  0  0  0  0  0  0  0  0  0
  -29.8300  -33.7900   25.7420 C   0  0  0  0  0  0  0  0  0  0  0  0
  -30.3040  -33.6470   24.6110 O   0  0  0  0  0  0  0  0  0  0  0  0
  -28.8920  -32.9670   27.3390 H   0  0  0  0  0  0  0  0  0  0  0  0
  -28.7010  -36.0340   25.8140 C   0  0  0  0  0  1  0  0  0  0  0  0
  -29.8300  -35.1760   26.4060 C   0  0  0  0  0  3  0  0  0  0  0  0
  -32.1980  -35.2670   27.0450 C   0  0  0  0  0  1  0  0  0  0  0  0
  -31.1220  -35.8830   26.2730 N   0  0  0  0  0  0  0  0  0  0  0  0
  -31.0360  -36.8520   26.5670 H   0  0  0  0  0  0  0  0  0  0  0  0
  -29.4500  -30.3340   27.0060 C   0  0  1  0  0  0  0  0  0  0  0  0
  -28.3860  -30.2370   28.1260 C   0  0  0  0  0  1  0  0  0  0  0  0
  -29.5870  -28.9360   26.3610 C   0  0  0  0  0  1  0  0  0  0  0  0
  -30.8110  -30.6610   27.6610 C   0  0  0  0  0  1  0  0  0  0  0  0
  -22.2900  -22.4340   18.5110 C   0  0  0  0  0  2  0  0  0  0  0  0
  -24.8550  -20.6360   18.0870 C   0  0  0  0  0  3  0  0  0  0  0  0
  -24.0290  -21.8830   18.3860 C   0  0  0  0  0  3  0  0  0  0  0  0
  -26.7320  -18.5870   17.3370 C   0  0  0  0  0  2  0  0  0  0  0  0
  -26.5380  -19.9640   17.9560 C   0  0  0  0  0  3  0  0  0  0  0  0
  -27.7280  -18.5930   18.4880 C   0  0  0  0  0  3  0  0  0  0  0  0
  -29.4700  -17.9110   18.2770 C   0  0  0  0  0  2  0  0  0  0  0  0
  -30.8290  -16.7530   18.8190 C   0  0  0  0  0  0  0  0  0  0  0  0
  -31.8920  -14.4040   19.4130 C   0  0  0  0  0  2  0  0  0  0  0  0
  -31.3110  -13.3150   18.4690 C   0  0  0  0  0  2  0  0  0  0  0  0
  -29.8850  -12.9240   18.9030 C   0  0  0  0  0  2  0  0  0  0  0  0
  -29.0660  -14.1770   19.3010 C   0  0  0  0  0  3  0  0  0  0  0  0
  -29.7900  -15.0530   20.3120 C   0  0  0  0  0  2  0  0  0  0  0  0
  -30.8860  -15.5420   19.5450 N   0  0  0  0  0  0  0  0  0  0  0  0
  -32.0260  -17.0000   18.4990 O   0  0  0  0  0  0  0  0  0  0  0  0
  -26.7520  -14.7980   20.0670 C   0  0  0  0  0  0  0  0  0  0  0  0
  -25.7090  -14.0590   20.5270 C   0  0  0  0  0  0  0  0  0  0  0  0
  -26.1600  -12.7060   20.5060 C   0  0  0  0  0  0  0  0  0  0  0  0
  -27.7600  -13.8990   19.8080 N   0  0  0  0  0  0  0  0  0  0  0  0
  -27.4310  -12.6350   20.1430 N   0  0  0  0  0  0  0  0  0  0  0  0
  -25.4290  -11.4650   20.7270 C   0  0  0  0  0  0  0  0  0  0  0  0
  -25.6500  -10.6740   21.8720 C   0  0  0  0  0  3  0  0  0  0  0  0
  -24.9130   -9.4880   22.0640 C   0  0  0  0  0  3  0  0  0  0  0  0
  -23.9490   -9.0910   21.1080 C   0  0  0  0  0  0  0  0  0  0  0  0
  -23.7540   -9.8730   19.9570 C   0  0  0  0  0  3  0  0  0  0  0  0
  -24.4920  -11.0490   19.7630 C   0  0  0  0  0  3  0  0  0  0  0  0
  -23.2010   -7.9440   21.2010 O   0  0  0  0  0  0  0  0  0  0  0  0
  -22.5670   -7.5980   22.3650 C   0  0  0  0  0  0  0  0  0  0  0  0
  -21.5640   -8.4110   22.9360 C   0  0  0  0  0  3  0  0  0  0  0  0
  -20.8890   -7.9810   24.0970 C   0  0  0  0  0  3  0  0  0  0  0  0
  -21.2060   -6.7390   24.6780 C   0  0  0  0  0  0  0  0  0  0  0  0
  -22.2030   -5.9280   24.1060 C   0  0  0  0  0  3  0  0  0  0  0  0
  -22.8780   -6.3560   22.9510 C   0  0  0  0  0  0  0  0  0  0  0  0
  -23.8230   -5.5630   22.3910 F   0  0  0  0  0  0  0  0  0  0  0  0
  -20.5510   -6.3220   25.7870 F   0  0  0  0  0  0  0  0  0  0  0  0
  -24.3430  -14.5760   20.8500 C   0  0  0  0  0  0  0  0  0  0  0  0
  -23.6780  -13.9720   21.8250 N   0  0  0  0  0  0  0  0  0  0  0  0
  -23.8800  -15.5600   20.2700 O   0  0  0  0  0  0  0  0  0  0  0  0
  -24.0760  -13.1890   22.3210 H   0  0  0  0  0  0  0  0  0  0  0  0
  -22.7620  -14.3050   22.0900 H   0  0  0  0  0  0  0  0  0  0  0  0
  -26.8980  -16.1450   19.8060 N   0  0  0  0  0  0  0  0  0  0  0  0
  -26.1020  -16.7700   19.8740 H   0  0  0  0  0  0  0  0  0  0  0  0
  -27.6950  -16.5640   19.3460 H   0  0  0  0  0  0  0  0  0  0  0  0
  1  3  1  0
  2  4  1  0
  2  1  1  0
  4  6  1  0
  6  5  1  0
  7  6  1  0
  7  9  1  0
  7 10  1  0
  8  7  1  0
 11 10  1  0
 11 12  1  0
 12 13  1  0
 13 15  1  0
 14 25  2  0
 15 21  2  0
 15 20  1  0
 16 24  1  0
 16 26  1  0
 17 19  1  0
 17 23  1  0
 18 24  1  0
 19 18  1  0
 20 19  2  0
 21 22  1  0
 22 17  2  0
 23 16  1  0
 24 14  1  0
 26 28  2  0
 27 26  1  0
 27 31  1  0
 29 27  1  0
 30 35  1  0
 31 32  1  0
 33 32  1  0
 34 30  1  0
 35 31  1  0
 36 35  2  0
 37 36  1  0
 38 37  2  0
 39 38  1  0
 39 30  2  0
 40 14  1  0
 40 41  1  0
 40 50  1  0
 41 44  1  0
 42 46  1  0
 42 41  1  0
 43 42  2  0
 46 45  1  0
 48 46  1  0
 48 49  1  0
 48 47  1  0
 50 53  1  1
 50 51  1  0
 52 50  1  0
 54  2  1  0
 55 56  2  0
 56 54  1  0
 57 58  1  0
 57 59  1  0
 58 55  1  0
 58 59  1  0
 59 60  1  0
 60 61  1  0
 61 67  1  0
 62 67  1  0
 63 64  1  0
 63 62  1  0
 65 64  1  0
 65 72  1  0
 65 66  1  0
 67 66  1  0
 68 61  2  0
 69 70  2  0
 70 89  1  0
 71 70  1  0
 71 74  1  0
 72 69  1  0
 72 73  1  0
 73 71  2  0
 74 75  1  0
 75 76  2  0
 77 80  1  0
 77 76  1  0
 78 77  2  0
 79 78  1  0
 79 74  2  0
 80 81  1  0
 81 82  2  0
 81 86  1  0
 82 83  1  0
 83 84  2  0
 84 88  1  0
 85 84  1  0
 86 85  2  0
 87 86  1  0
 89 90  1  0
 90 93  1  0
 90 92  1  0
 91 89  2  0
 94 95  1  0
 94 69  1  0
 96 94  1  0
M  ISO  4  12 101  13 101  60 100  61 100
M  END
>  <TORSDO>  (17) 
F 24

>  <SCORE>  (17) 
-5.979

>  <name>  (17) 
16

>  <ligand_id>  (17) 
16

>  <original_smiles>  (17) 
[H]C(=C([H])C1([H])C([H])([H])C1([H])C([H])([H])C(=O)N1C([H])([H])C([H])([H])C([H])([H])C([H])(n2nc(-c3c([H])c([H])c(Oc4c([H])c([H])c(F)c([H])c4F)c([H])c3[H])c(C(=O)N([H])[H])c2N([H])[H])C1([H])[H])C([H])([H])C1=C([H])C([H])([H])C([H])([H])C([H])([N+]([H])([H])C([H])([H])C([H])([H])C([H])([H])Oc2c([H])c([H])c3c(c2[H])C([H])([H])N(C(=O)C([H])(N([H])C(=O)C([H])(N([H])C([H])([H])[H])C([H])([H])[H])C(C([H])([H])[H])(C([H])([H])[H])C([H])([H])[H])C([H])(C(=O)N([H])C2([H])c4c([H])c([H])c([H])c([H])c4C([H])([H])C([H])([H])C2([H])[H])C3([H])[H])C1([H])[H]

>  <smiles>  (17) 
[H]C(=C([H])C1([H])C([H])([H])C1([H])C([H])([H])C(=O)N1C([H])([H])C([H])([H])C([H])([H])C([H])(n2nc(-c3c([H])c([H])c(Oc4c([H])c([H])c(F)c([H])c4F)c([H])c3[H])c(C(=O)N([H])[H])c2N([H])[H])C1([H])[H])C([H])([H])C1=C([H])C([H])([H])C([H])([H])C([H])([N+]([H])([H])C([H])([H])C([H])([H])C([H])([H])Oc2c([H])c([H])c3c(c2[H])C([H])([H])N(C(=O)C([H])(N([H])C(=O)C([H])(N([H])C([H])([H])[H])C([H])([H])[H])C(C([H])([H])[H])(C([H])([H])[H])C([H])([H])[H])C([H])(C(=O)N([H])C2([H])c4c([H])c([H])c([H])c([H])c4C([H])([H])C([H])([H])C2([H])[H])C3([H])[H])C1([H])[H]

$$$$
17:0:0
     RDKit          3D

 94102  0  0  1  0  0  0  0  0999 V2000
  -30.1050  -20.9920   20.5910 N   0  0  0  0  0  4  0  0  0  0  0  0
  -29.3980  -20.3060   20.8090 H   0  0  0  0  0  0  0  0  0  0  0  0
  -30.7480  -20.9940   21.3660 H   0  0  0  0  0  0  0  0  0  0  0  0
  -32.2940  -20.9230   19.4160 C   0  0  0  0  0  1  0  0  0  0  0  0
  -30.8020  -20.5210   19.3660 C   0  0  0  0  0  3  0  0  0  0  0  0
  -30.2750  -18.4670   16.8530 C   0  0  0  0  0  2  0  0  0  0  0  0
  -31.2320  -18.6490   17.7620 C   0  0  0  0  0  2  0  0  0  0  0  0
  -28.9100  -18.5890   17.4690 C   0  0  0  0  0  2  0  0  0  0  0  0
  -30.6700  -18.9790   19.1300 C   0  0  0  0  0  3  0  0  0  0  0  0
  -29.2100  -18.4370   18.9820 C   0  0  0  0  0  3  0  0  0  0  0  0
  -29.0760  -16.9250   19.3260 C   0  0  0  0  0  2  0  0  0  0  0  0
  -30.0440  -15.4430   21.2110 C   0  0  0  0  0  3  0  0  0  0  0  0
  -29.3650  -16.5300   20.7700 C   0  0  0  0  0  3  0  0  0  0  0  0
  -30.6620  -14.4620   20.3250 C   0  0  0  0  0  0  0  0  0  0  0  0
  -30.2930  -12.3720   19.0620 C   0  0  0  0  0  2  0  0  0  0  0  0
  -29.3100  -12.6330   17.9030 C   0  0  0  0  0  2  0  0  0  0  0  0
  -27.8500  -12.4870   18.3790 C   0  0  0  0  0  2  0  0  0  0  0  0
  -27.5680  -13.2710   19.6870 C   0  0  0  0  0  3  0  0  0  0  0  0
  -28.6560  -12.9870   20.7460 C   0  0  0  0  0  2  0  0  0  0  0  0
  -29.9660  -13.3050   20.1500 N   0  0  0  0  0  0  0  0  0  0  0  0
  -31.7220  -14.6900   19.7350 O   0  0  0  0  0  0  0  0  0  0  0  0
  -25.1970  -13.8800   20.4830 C   0  0  0  0  0  0  0  0  0  0  0  0
  -24.1360  -13.1070   20.8730 C   0  0  0  0  0  0  0  0  0  0  0  0
  -24.5870  -11.7540   20.7990 C   0  0  0  0  0  0  0  0  0  0  0  0
  -26.2280  -12.9980   20.2020 N   0  0  0  0  0  0  0  0  0  0  0  0
  -25.8660  -11.7120   20.4480 N   0  0  0  0  0  0  0  0  0  0  0  0
  -23.8620  -10.4910   20.9910 C   0  0  0  0  0  0  0  0  0  0  0  0
  -24.3340   -9.4960   21.8740 C   0  0  0  0  0  3  0  0  0  0  0  0
  -23.6100   -8.2980   22.0550 C   0  0  0  0  0  3  0  0  0  0  0  0
  -22.3990   -8.0880   21.3520 C   0  0  0  0  0  0  0  0  0  0  0  0
  -21.9450   -9.0740   20.4580 C   0  0  0  0  0  3  0  0  0  0  0  0
  -22.6710  -10.2630   20.2750 C   0  0  0  0  0  3  0  0  0  0  0  0
  -21.6420   -6.9450   21.4440 O   0  0  0  0  0  0  0  0  0  0  0  0
  -21.6610   -6.1580   22.5670 C   0  0  0  0  0  0  0  0  0  0  0  0
  -21.3400   -6.6710   23.8430 C   0  0  0  0  0  3  0  0  0  0  0  0
  -21.3050   -5.8110   24.9590 C   0  0  0  0  0  3  0  0  0  0  0  0
  -21.5800   -4.4400   24.8020 C   0  0  0  0  0  0  0  0  0  0  0  0
  -21.8950   -3.9260   23.5310 C   0  0  0  0  0  3  0  0  0  0  0  0
  -21.9320   -4.7830   22.4170 C   0  0  0  0  0  0  0  0  0  0  0  0
  -22.2150   -4.2790   21.1910 F   0  0  0  0  0  0  0  0  0  0  0  0
  -21.5380   -3.6130   25.8720 F   0  0  0  0  0  0  0  0  0  0  0  0
  -22.7510  -13.5850   21.2020 C   0  0  0  0  0  0  0  0  0  0  0  0
  -22.0500  -12.8770   22.0810 N   0  0  0  0  0  0  0  0  0  0  0  0
  -22.2990  -14.6220   20.7150 O   0  0  0  0  0  0  0  0  0  0  0  0
  -22.4300  -12.0400   22.4960 H   0  0  0  0  0  0  0  0  0  0  0  0
  -21.1230  -13.1790   22.3420 H   0  0  0  0  0  0  0  0  0  0  0  0
  -25.3620  -15.2540   20.3300 N   0  0  0  0  0  0  0  0  0  0  0  0
  -24.6070  -15.9090   20.4980 H   0  0  0  0  0  0  0  0  0  0  0  0
  -26.2190  -15.7010   20.0290 H   0  0  0  0  0  0  0  0  0  0  0  0
  -29.3980  -22.3050   20.5060 C   0  0  0  0  0  2  0  0  0  0  0  0
  -30.3140  -23.5290   20.2480 C   0  0  0  0  0  2  0  0  0  0  0  0
  -29.7540  -24.8990   20.6900 C   0  0  0  0  0  2  0  0  0  0  0  0
  -28.4750  -25.4000   19.9940 C   0  0  0  0  0  2  0  0  0  0  0  0
  -28.4230  -26.8070   20.2310 O   0  0  0  0  0  0  0  0  0  0  0  0
  -24.5830  -31.9250   23.2410 C   0  0  0  0  0  0  0  0  0  0  0  0
  -27.2190  -27.4740   20.1970 C   0  0  0  0  0  0  0  0  0  0  0  0
  -23.3670  -30.5200   21.6050 C   0  0  0  0  0  3  0  0  0  0  0  0
  -24.8140  -28.9650   20.1900 C   0  0  0  0  0  0  0  0  0  0  0  0
  -25.8870  -30.8790   21.3940 C   0  0  0  0  0  2  0  0  0  0  0  0
  -25.9690  -29.5020   20.7730 C   0  0  0  0  0  0  0  0  0  0  0  0
  -27.1690  -28.7620   20.7720 C   0  0  0  0  0  3  0  0  0  0  0  0
  -26.0460  -26.9430   19.6130 C   0  0  0  0  0  3  0  0  0  0  0  0
  -24.8480  -27.6840   19.6070 C   0  0  0  0  0  3  0  0  0  0  0  0
  -23.5680  -29.8200   20.2320 C   0  0  0  0  0  2  0  0  0  0  0  0
  -24.6310  -31.1230   22.1400 N   0  0  0  0  0  0  0  0  0  0  0  0
  -23.5050  -32.2030   23.7850 O   0  0  0  0  0  0  0  0  0  0  0  0
  -22.7150  -29.5120   22.5780 C   0  0  0  0  0  0  0  0  0  0  0  0
  -21.3890  -29.3360   22.4570 N   0  0  0  0  0  0  0  0  0  0  0  0
  -23.3980  -28.8890   23.3950 O   0  0  0  0  0  0  0  0  0  0  0  0
  -20.9010  -29.8880   21.7650 H   0  0  0  0  0  0  0  0  0  0  0  0
  -18.0100  -28.1690   22.9660 C   0  0  0  0  0  0  0  0  0  0  0  0
  -20.5680  -28.4090   23.2340 C   0  0  0  0  0  3  0  0  0  0  0  0
  -20.6600  -26.9750   22.6630 C   0  0  0  0  0  2  0  0  0  0  0  0
  -19.5530  -26.6570   21.6520 C   0  0  0  0  0  2  0  0  0  0  0  0
  -18.1730  -26.8160   22.2960 C   0  0  0  0  0  2  0  0  0  0  0  0
  -19.1340  -28.9240   23.3920 C   0  0  0  0  0  0  0  0  0  0  0  0
  -18.9260  -30.1930   23.9740 C   0  0  0  0  0  3  0  0  0  0  0  0
  -17.6250  -30.7050   24.1400 C   0  0  0  0  0  3  0  0  0  0  0  0
  -16.5150  -29.9460   23.7280 C   0  0  0  0  0  3  0  0  0  0  0  0
  -16.7080  -28.6820   23.1460 C   0  0  0  0  0  3  0  0  0  0  0  0
  -25.8750  -32.5500   23.8580 C   0  0  0  0  0  3  0  0  0  0  0  0
  -25.5730  -33.9490   24.1890 N   0  0  0  0  0  0  0  0  0  0  0  0
  -25.9100  -34.9990   23.4300 C   0  0  0  0  0  0  0  0  0  0  0  0
  -26.5830  -34.8940   22.4000 O   0  0  0  0  0  0  0  0  0  0  0  0
  -24.9770  -34.1020   24.9890 H   0  0  0  0  0  0  0  0  0  0  0  0
  -24.1910  -36.8000   23.0690 C   0  0  0  0  0  1  0  0  0  0  0  0
  -25.4260  -36.3900   23.8840 C   0  0  0  0  0  3  0  0  0  0  0  0
  -27.5660  -37.2660   24.7150 C   0  0  0  0  0  1  0  0  0  0  0  0
  -26.4630  -37.4390   23.7720 N   0  0  0  0  0  0  0  0  0  0  0  0
  -26.0620  -38.3610   23.9160 H   0  0  0  0  0  0  0  0  0  0  0  0
  -26.3930  -31.7770   25.1320 C   0  0  1  0  0  0  0  0  0  0  0  0
  -25.3060  -31.5470   26.2090 C   0  0  0  0  0  1  0  0  0  0  0  0
  -26.9660  -30.3950   24.7340 C   0  0  0  0  0  1  0  0  0  0  0  0
  -27.5500  -32.5660   25.7900 C   0  0  0  0  0  1  0  0  0  0  0  0
  1  2  1  0
  1  3  1  0
  5  4  1  0
  5  1  1  0
  6  8  1  0
  6  7  1  0
  7  9  1  0
  8 10  1  0
  9  5  1  0
 10  9  1  0
 10 11  1  0
 11 13  1  0
 13 12  2  0
 14 12  1  0
 15 20  1  0
 16 17  1  0
 16 15  1  0
 18 17  1  0
 18 25  1  0
 18 19  1  0
 20 14  1  0
 20 19  1  0
 21 14  2  0
 22 23  2  0
 23 42  1  0
 24 23  1  0
 24 27  1  0
 25 26  1  0
 25 22  1  0
 26 24  2  0
 27 28  1  0
 28 29  2  0
 30 33  1  0
 30 29  1  0
 31 30  2  0
 32 31  1  0
 32 27  2  0
 33 34  1  0
 34 35  1  0
 35 36  2  0
 37 36  1  0
 37 41  1  0
 38 37  2  0
 39 34  2  0
 39 38  1  0
 40 39  1  0
 42 43  1  0
 43 46  1  0
 43 45  1  0
 44 42  2  0
 47 22  1  0
 47 48  1  0
 49 47  1  0
 50  1  1  0
 51 50  1  0
 51 52  1  0
 53 54  1  0
 53 52  1  0
 55 66  2  0
 56 54  1  0
 56 61  1  0
 57 65  1  0
 57 67  1  0
 58 64  1  0
 58 60  1  0
 59 65  1  0
 60 59  1  0
 61 60  2  0
 62 56  2  0
 63 62  1  0
 63 58  2  0
 64 57  1  0
 65 55  1  0
 67 69  2  0
 68 67  1  0
 70 68  1  0
 71 80  2  0
 71 76  1  0
 72 68  1  0
 72 76  1  0
 73 72  1  0
 74 75  1  0
 74 73  1  0
 75 71  1  0
 76 77  2  0
 77 78  1  0
 79 78  2  0
 80 79  1  0
 81 55  1  0
 81 82  1  0
 81 91  1  0
 82 85  1  0
 83 87  1  0
 83 82  1  0
 84 83  2  0
 87 86  1  0
 89 87  1  0
 89 90  1  0
 89 88  1  0
 91 94  1  1
 91 92  1  0
 93 91  1  0
M  ISO  4  12 100  14 100  53 101  54 101
M  END
>  <TORSDO>  (18) 
F 24

>  <SCORE>  (18) 
-12.629

>  <name>  (18) 
17

>  <ligand_id>  (18) 
17

>  <original_smiles>  (18) 
[H]C(C(=O)N1C([H])([H])C([H])([H])C([H])([H])C([H])(n2nc(-c3c([H])c([H])c(Oc4c([H])c([H])c(F)c([H])c4F)c([H])c3[H])c(C(=O)N([H])[H])c2N([H])[H])C1([H])[H])=C([H])C([H])([H])C1([H])C([H])([H])C([H])=C([H])C1([H])C([H])(C([H])([H])[H])[N+]([H])([H])C([H])([H])C([H])([H])C([H])([H])C([H])([H])Oc1c([H])c([H])c2c(c1[H])C([H])([H])N(C(=O)C([H])(N([H])C(=O)C([H])(N([H])C([H])([H])[H])C([H])([H])[H])C(C([H])([H])[H])(C([H])([H])[H])C([H])([H])[H])C([H])(C(=O)N([H])C1([H])c3c([H])c([H])c([H])c([H])c3C([H])([H])C([H])([H])C1([H])[H])C2([H])[H]

>  <smiles>  (18) 
[H]C(C(=O)N1C([H])([H])C([H])([H])C([H])([H])C([H])(n2nc(-c3c([H])c([H])c(Oc4c([H])c([H])c(F)c([H])c4F)c([H])c3[H])c(C(=O)N([H])[H])c2N([H])[H])C1([H])[H])=C([H])C([H])([H])C1([H])C([H])([H])C([H])=C([H])C1([H])C([H])(C([H])([H])[H])[N+]([H])([H])C([H])([H])C([H])([H])C([H])([H])C([H])([H])Oc1c([H])c([H])c2c(c1[H])C([H])([H])N(C(=O)C([H])(N([H])C(=O)C([H])(N([H])C([H])([H])[H])C([H])([H])[H])C(C([H])([H])[H])(C([H])([H])[H])C([H])([H])[H])C([H])(C(=O)N([H])C1([H])c3c([H])c([H])c([H])c([H])c3C([H])([H])C([H])([H])C1([H])[H])C2([H])[H]

$$$$
18:0:0
     RDKit          3D

 92100  0  0  1  0  0  0  0  0999 V2000
  -26.6890  -21.3360   18.9420 C   0  0  0  0  0  0  0  0  0  0  0  0
  -26.8440  -22.6150   18.5640 C   0  0  0  0  0  3  0  0  0  0  0  0
  -25.4770  -20.4820   18.6830 C   0  0  0  0  0  2  0  0  0  0  0  0
  -27.7520  -20.4970   19.6000 C   0  0  0  0  0  2  0  0  0  0  0  0
  -26.0530  -19.0660   18.5880 C   0  0  0  0  0  2  0  0  0  0  0  0
  -27.2490  -19.0420   19.5600 C   0  0  0  0  0  3  0  0  0  0  0  0
  -28.1340  -23.4040   18.6960 C   0  0  0  0  0  2  0  0  0  0  0  0
  -28.0910  -24.4570   19.8090 C   0  0  0  0  0  2  0  0  0  0  0  0
  -28.6650  -25.7960   19.3200 C   0  0  0  0  0  2  0  0  0  0  0  0
  -28.4150  -26.8390   20.2440 O   0  0  0  0  0  0  0  0  0  0  0  0
  -24.5020  -31.8740   23.3040 C   0  0  0  0  0  0  0  0  0  0  0  0
  -27.2020  -27.4940   20.2100 C   0  0  0  0  0  0  0  0  0  0  0  0
  -23.3170  -30.4910   21.6270 C   0  0  0  0  0  3  0  0  0  0  0  0
  -24.7910  -28.9680   20.2130 C   0  0  0  0  0  0  0  0  0  0  0  0
  -25.8420  -30.8540   21.4710 C   0  0  0  0  0  2  0  0  0  0  0  0
  -25.9330  -29.4900   20.8290 C   0  0  0  0  0  0  0  0  0  0  0  0
  -27.1340  -28.7520   20.8390 C   0  0  0  0  0  3  0  0  0  0  0  0
  -26.0400  -26.9850   19.5810 C   0  0  0  0  0  3  0  0  0  0  0  0
  -24.8340  -27.7080   19.5930 C   0  0  0  0  0  3  0  0  0  0  0  0
  -23.5490  -29.8280   20.2430 C   0  0  0  0  0  2  0  0  0  0  0  0
  -24.5710  -31.0840   22.1950 N   0  0  0  0  0  0  0  0  0  0  0  0
  -23.4140  -32.1460   23.8290 O   0  0  0  0  0  0  0  0  0  0  0  0
  -22.6510  -29.4590   22.5630 C   0  0  0  0  0  0  0  0  0  0  0  0
  -21.3300  -29.2740   22.3980 N   0  0  0  0  0  0  0  0  0  0  0  0
  -23.3160  -28.8260   23.3860 O   0  0  0  0  0  0  0  0  0  0  0  0
  -20.8650  -29.8230   21.6910 H   0  0  0  0  0  0  0  0  0  0  0  0
  -17.9460  -28.0910   22.8050 C   0  0  0  0  0  0  0  0  0  0  0  0
  -20.4970  -28.3300   23.1420 C   0  0  0  0  0  3  0  0  0  0  0  0
  -20.6110  -26.9020   22.5570 C   0  0  0  0  0  2  0  0  0  0  0  0
  -19.5240  -26.5660   21.5340 C   0  0  0  0  0  2  0  0  0  0  0  0
  -18.1280  -26.7380   22.1390 C   0  0  0  0  0  2  0  0  0  0  0  0
  -19.0570  -28.8410   23.2720 C   0  0  0  0  0  0  0  0  0  0  0  0
  -18.8300  -30.0950   23.8810 C   0  0  0  0  0  3  0  0  0  0  0  0
  -17.5230  -30.5980   24.0230 C   0  0  0  0  0  3  0  0  0  0  0  0
  -16.4260  -29.8480   23.5630 C   0  0  0  0  0  3  0  0  0  0  0  0
  -16.6380  -28.5970   22.9580 C   0  0  0  0  0  3  0  0  0  0  0  0
  -25.7810  -32.4920   23.9510 C   0  0  0  0  0  3  0  0  0  0  0  0
  -25.4910  -33.9010   24.2470 N   0  0  0  0  0  0  0  0  0  0  0  0
  -25.8710  -34.9310   23.4790 C   0  0  0  0  0  0  0  0  0  0  0  0
  -26.5760  -34.7930   22.4750 O   0  0  0  0  0  0  0  0  0  0  0  0
  -24.8740  -34.0840   25.0260 H   0  0  0  0  0  0  0  0  0  0  0  0
  -24.2090  -36.7580   23.0110 C   0  0  0  0  0  1  0  0  0  0  0  0
  -25.3960  -36.3360   23.8920 C   0  0  0  0  0  3  0  0  0  0  0  0
  -27.5060  -37.1870   24.8170 C   0  0  0  0  0  1  0  0  0  0  0  0
  -26.4580  -37.3630   23.8150 N   0  0  0  0  0  0  0  0  0  0  0  0
  -26.0670  -38.2930   23.9250 H   0  0  0  0  0  0  0  0  0  0  0  0
  -26.2510  -31.7300   25.2510 C   0  0  1  0  0  0  0  0  0  0  0  0
  -25.1230  -31.5160   26.2880 C   0  0  0  0  0  1  0  0  0  0  0  0
  -26.8280  -30.3420   24.8880 C   0  0  0  0  0  1  0  0  0  0  0  0
  -27.3920  -32.5150   25.9370 C   0  0  0  0  0  1  0  0  0  0  0  0
  -28.3640  -18.0630   19.1320 C   0  0  0  0  0  2  0  0  0  0  0  0
  -30.0490  -18.7890   20.8620 C   0  0  0  0  0  1  0  0  0  0  0  0
  -29.3300  -17.6700   20.1980 N   0  0  2  0  0  4  0  0  0  0  0  0
  -28.7700  -17.2420   20.9180 H   0  0  0  0  0  0  0  0  0  0  0  0
  -30.2670  -16.6420   19.6770 C   0  0  0  0  0  2  0  0  0  0  0  0
  -30.7510  -15.6260   20.7290 C   0  0  0  0  0  2  0  0  0  0  0  0
  -31.2790  -14.3670   20.0120 C   0  0  0  0  0  0  0  0  0  0  0  0
  -30.8530  -12.1810   18.9510 C   0  0  0  0  0  2  0  0  0  0  0  0
  -29.8800  -12.3440   17.7640 C   0  0  0  0  0  2  0  0  0  0  0  0
  -28.4110  -12.3000   18.2330 C   0  0  0  0  0  2  0  0  0  0  0  0
  -28.1450  -13.2270   19.4510 C   0  0  0  0  0  3  0  0  0  0  0  0
  -29.2170  -13.0020   20.5410 C   0  0  0  0  0  2  0  0  0  0  0  0
  -30.5420  -13.2260   19.9400 N   0  0  0  0  0  0  0  0  0  0  0  0
  -32.3540  -14.4880   19.4150 O   0  0  0  0  0  0  0  0  0  0  0  0
  -25.8290  -14.0080   20.2660 C   0  0  0  0  0  0  0  0  0  0  0  0
  -24.7230  -13.3150   20.6780 C   0  0  0  0  0  0  0  0  0  0  0  0
  -25.0740  -11.9300   20.6020 C   0  0  0  0  0  0  0  0  0  0  0  0
  -26.7910  -13.0530   19.9750 N   0  0  0  0  0  0  0  0  0  0  0  0
  -26.3400  -11.7980   20.2280 N   0  0  0  0  0  0  0  0  0  0  0  0
  -24.2610  -10.7240   20.8020 C   0  0  0  0  0  0  0  0  0  0  0  0
  -24.5990   -9.7590   21.7780 C   0  0  0  0  0  3  0  0  0  0  0  0
  -23.7920   -8.6170   21.9670 C   0  0  0  0  0  3  0  0  0  0  0  0
  -22.6330   -8.4290   21.1780 C   0  0  0  0  0  0  0  0  0  0  0  0
  -22.3130   -9.3790   20.1910 C   0  0  0  0  0  3  0  0  0  0  0  0
  -23.1190  -10.5130   20.0020 C   0  0  0  0  0  3  0  0  0  0  0  0
  -21.8060   -7.3360   21.2730 O   0  0  0  0  0  0  0  0  0  0  0  0
  -21.5890   -6.6970   22.4690 C   0  0  0  0  0  0  0  0  0  0  0  0
  -21.0480   -7.3700   23.5850 C   0  0  0  0  0  3  0  0  0  0  0  0
  -20.7780   -6.6600   24.7720 C   0  0  0  0  0  3  0  0  0  0  0  0
  -21.0400   -5.2780   24.8410 C   0  0  0  0  0  0  0  0  0  0  0  0
  -21.5720   -4.6050   23.7280 C   0  0  0  0  0  3  0  0  0  0  0  0
  -21.8450   -5.3130   22.5430 C   0  0  0  0  0  0  0  0  0  0  0  0
  -22.3370   -4.6560   21.4670 F   0  0  0  0  0  0  0  0  0  0  0  0
  -20.7740   -4.5930   25.9780 F   0  0  0  0  0  0  0  0  0  0  0  0
  -23.3780  -13.8900   21.0190 C   0  0  0  0  0  0  0  0  0  0  0  0
  -22.6460  -13.2450   21.9200 N   0  0  0  0  0  0  0  0  0  0  0  0
  -22.9880  -14.9440   20.5190 O   0  0  0  0  0  0  0  0  0  0  0  0
  -22.9780  -12.3930   22.3480 H   0  0  0  0  0  0  0  0  0  0  0  0
  -21.7410  -13.6080   22.1860 H   0  0  0  0  0  0  0  0  0  0  0  0
  -26.0930  -15.3630   20.0810 N   0  0  0  0  0  0  0  0  0  0  0  0
  -25.2960  -15.9900   20.0980 H   0  0  0  0  0  0  0  0  0  0  0  0
  -26.7470  -15.6030   19.3510 H   0  0  0  0  0  0  0  0  0  0  0  0
  1  4  1  0
  2  7  1  0
  2  1  2  0
  3  1  1  0
  5  3  1  0
  5  6  1  0
  6 51  1  0
  6  4  1  0
  7  8  1  0
  9  8  1  0
  9 10  1  0
 11 22  2  0
 12 10  1  0
 12 17  1  0
 13 21  1  0
 13 23  1  0
 14 20  1  0
 14 16  1  0
 15 21  1  0
 16 17  2  0
 16 15  1  0
 18 19  1  0
 18 12  2  0
 19 14  2  0
 20 13  1  0
 21 11  1  0
 23 25  2  0
 24 23  1  0
 26 24  1  0
 27 36  2  0
 27 32  1  0
 28 24  1  0
 28 32  1  0
 29 28  1  0
 30 31  1  0
 30 29  1  0
 31 27  1  0
 32 33  2  0
 33 34  1  0
 35 34  2  0
 36 35  1  0
 37 11  1  0
 37 38  1  0
 37 47  1  0
 38 41  1  0
 39 43  1  0
 39 38  1  0
 40 39  2  0
 43 42  1  0
 45 43  1  0
 45 46  1  0
 45 44  1  0
 47 50  1  1
 47 48  1  0
 49 47  1  0
 51 53  1  0
 53 52  1  0
 53 54  1  1
 55 53  1  0
 55 56  1  0
 57 56  1  0
 58 63  1  0
 59 60  1  0
 59 58  1  0
 61 60  1  0
 61 68  1  0
 61 62  1  0
 63 57  1  0
 63 62  1  0
 64 57  2  0
 65 66  2  0
 66 85  1  0
 67 66  1  0
 67 70  1  0
 68 69  1  0
 68 65  1  0
 69 67  2  0
 70 71  1  0
 71 72  2  0
 73 76  1  0
 73 72  1  0
 74 73  2  0
 75 74  1  0
 75 70  2  0
 76 77  1  0
 77 82  2  0
 77 78  1  0
 78 79  2  0
 79 80  1  0
 80 84  1  0
 81 80  2  0
 82 81  1  0
 83 82  1  0
 85 86  1  0
 86 89  1  0
 86 88  1  0
 87 85  2  0
 90 91  1  0
 90 65  1  0
 92 90  1  0
M  ISO  4   9 101  10 101  56 100  57 100
M  END
>  <TORSDO>  (19) 
F 23

>  <SCORE>  (19) 
-11.581

>  <name>  (19) 
18

>  <ligand_id>  (19) 
18

>  <original_smiles>  (19) 
[H]C(=C1C([H])([H])C([H])([H])C([H])(C([H])([H])[N+]([H])(C([H])([H])[H])C([H])([H])C([H])([H])C(=O)N2C([H])([H])C([H])([H])C([H])([H])C([H])(n3nc(-c4c([H])c([H])c(Oc5c([H])c([H])c(F)c([H])c5F)c([H])c4[H])c(C(=O)N([H])[H])c3N([H])[H])C2([H])[H])C1([H])[H])C([H])([H])C([H])([H])C([H])([H])Oc1c([H])c([H])c2c(c1[H])C([H])([H])N(C(=O)C([H])(N([H])C(=O)C([H])(N([H])C([H])([H])[H])C([H])([H])[H])C(C([H])([H])[H])(C([H])([H])[H])C([H])([H])[H])C([H])(C(=O)N([H])C1([H])c3c([H])c([H])c([H])c([H])c3C([H])([H])C([H])([H])C1([H])[H])C2([H])[H]

>  <smiles>  (19) 
[H]C(=C1C([H])([H])C([H])([H])C([H])(C([H])([H])[N+]([H])(C([H])([H])[H])C([H])([H])C([H])([H])C(=O)N2C([H])([H])C([H])([H])C([H])([H])C([H])(n3nc(-c4c([H])c([H])c(Oc5c([H])c([H])c(F)c([H])c5F)c([H])c4[H])c(C(=O)N([H])[H])c3N([H])[H])C2([H])[H])C1([H])[H])C([H])([H])C([H])([H])C([H])([H])Oc1c([H])c([H])c2c(c1[H])C([H])([H])N(C(=O)C([H])(N([H])C(=O)C([H])(N([H])C([H])([H])[H])C([H])([H])[H])C(C([H])([H])[H])(C([H])([H])[H])C([H])([H])[H])C([H])(C(=O)N([H])C1([H])c3c([H])c([H])c([H])c([H])c3C([H])([H])C([H])([H])C1([H])[H])C2([H])[H]

$$$$
19:0:0
     RDKit          3D

 92101  0  0  1  0  0  0  0  0999 V2000
  -29.9640  -18.8930   22.3260 C   0  0  0  0  0  3  0  0  0  0  0  0
  -30.1620  -19.3740   21.0840 C   0  0  0  0  0  0  0  0  0  0  0  0
  -29.9100  -17.4260   22.6840 C   0  0  0  0  0  2  0  0  0  0  0  0
  -30.2420  -20.9580   20.8910 C   0  0  0  0  0  2  0  0  0  0  0  0
  -30.7220  -16.5700   21.7060 C   0  0  0  0  0  2  0  0  0  0  0  0
  -29.2360  -20.7420   18.7430 C   0  0  0  0  0  2  0  0  0  0  0  0
  -30.2910  -18.3720   19.8670 C   0  0  0  0  0  3  0  0  0  0  0  0
  -29.2170  -19.0980   18.9150 C   0  0  0  0  0  3  0  0  0  0  0  0
  -30.2260  -16.6740   20.2460 C   0  0  0  0  0  3  0  0  0  0  0  0
  -29.1500  -21.7280   20.0150 C   0  0  0  0  0  3  0  0  0  0  0  0
  -30.9060  -15.3120   19.5090 C   0  0  0  0  0  0  0  0  0  0  0  0
  -30.6640  -13.0000   18.4270 C   0  0  0  0  0  2  0  0  0  0  0  0
  -29.5640  -13.0140   17.3360 C   0  0  0  0  0  2  0  0  0  0  0  0
  -28.1730  -12.7720   17.9520 C   0  0  0  0  0  2  0  0  0  0  0  0
  -27.9430  -13.6280   19.2220 C   0  0  0  0  0  3  0  0  0  0  0  0
  -29.1410  -13.5660   20.1890 C   0  0  0  0  0  2  0  0  0  0  0  0
  -30.3250  -14.0340   19.4520 N   0  0  0  0  0  0  0  0  0  0  0  0
  -32.0090  -15.4120   18.9580 O   0  0  0  0  0  0  0  0  0  0  0  0
  -25.7220  -14.1820   20.3640 C   0  0  0  0  0  0  0  0  0  0  0  0
  -24.6970  -13.3980   20.8180 C   0  0  0  0  0  0  0  0  0  0  0  0
  -25.1030  -12.0470   20.5930 C   0  0  0  0  0  0  0  0  0  0  0  0
  -26.6840  -13.3090   19.8870 N   0  0  0  0  0  0  0  0  0  0  0  0
  -26.3310  -12.0130   20.0880 N   0  0  0  0  0  0  0  0  0  0  0  0
  -24.3670  -10.7890   20.7740 C   0  0  0  0  0  0  0  0  0  0  0  0
  -24.7970   -9.8040   21.6910 C   0  0  0  0  0  3  0  0  0  0  0  0
  -24.0600   -8.6120   21.8610 C   0  0  0  0  0  3  0  0  0  0  0  0
  -22.8780   -8.3960   21.1150 C   0  0  0  0  0  0  0  0  0  0  0  0
  -22.4650   -9.3690   20.1870 C   0  0  0  0  0  3  0  0  0  0  0  0
  -23.2030  -10.5520   20.0150 C   0  0  0  0  0  3  0  0  0  0  0  0
  -22.1130   -7.2570   21.1940 O   0  0  0  0  0  0  0  0  0  0  0  0
  -21.8930   -6.6200   22.3890 C   0  0  0  0  0  0  0  0  0  0  0  0
  -21.2880   -7.2750   23.4830 C   0  0  0  0  0  3  0  0  0  0  0  0
  -21.0170   -6.5620   24.6680 C   0  0  0  0  0  3  0  0  0  0  0  0
  -21.3420   -5.1960   24.7590 C   0  0  0  0  0  0  0  0  0  0  0  0
  -21.9410   -4.5410   23.6680 C   0  0  0  0  0  3  0  0  0  0  0  0
  -22.2120   -5.2500   22.4860 C   0  0  0  0  0  0  0  0  0  0  0  0
  -22.7690   -4.6080   21.4310 F   0  0  0  0  0  0  0  0  0  0  0  0
  -21.0760   -4.5090   25.8950 F   0  0  0  0  0  0  0  0  0  0  0  0
  -23.3730  -13.8780   21.3380 C   0  0  0  0  0  0  0  0  0  0  0  0
  -22.7640  -13.1270   22.2490 N   0  0  0  0  0  0  0  0  0  0  0  0
  -22.8930  -14.9500   20.9720 O   0  0  0  0  0  0  0  0  0  0  0  0
  -23.1680  -12.2580   22.5640 H   0  0  0  0  0  0  0  0  0  0  0  0
  -21.8810  -13.4280   22.6380 H   0  0  0  0  0  0  0  0  0  0  0  0
  -25.9070  -15.5590   20.2950 N   0  0  0  0  0  0  0  0  0  0  0  0
  -25.1930  -16.2160   20.5900 H   0  0  0  0  0  0  0  0  0  0  0  0
  -26.7200  -16.0110   19.8960 H   0  0  0  0  0  0  0  0  0  0  0  0
  -28.0790  -17.7390   17.1400 C   0  0  0  0  0  2  0  0  0  0  0  0
  -29.1700  -18.4010   17.5600 C   0  0  0  0  0  0  0  0  0  0  0  0
  -30.4230  -18.4800   16.7040 C   0  0  0  0  0  1  0  0  0  0  0  0
  -29.3260  -23.4480   19.8890 C   0  0  0  0  0  3  0  0  0  0  0  0
  -28.1830  -24.7280   19.7920 C   0  0  0  0  0  3  0  0  0  0  0  0
  -28.4060  -26.2930   19.9040 O   0  0  0  0  0  0  0  0  0  0  0  0
  -24.6890  -31.7860   23.2390 C   0  0  0  0  0  0  0  0  0  0  0  0
  -27.3250  -27.2700   19.9190 C   0  0  0  0  0  0  0  0  0  0  0  0
  -23.4920  -30.4400   21.5590 C   0  0  0  0  0  3  0  0  0  0  0  0
  -24.9500  -28.9740   20.0240 C   0  0  0  0  0  0  0  0  0  0  0  0
  -26.0360  -30.7770   21.3530 C   0  0  0  0  0  2  0  0  0  0  0  0
  -26.1340  -29.4180   20.6290 C   0  0  0  0  0  0  0  0  0  0  0  0
  -27.3200  -28.5850   20.5540 C   0  0  0  0  0  3  0  0  0  0  0  0
  -26.1080  -26.9400   19.2840 C   0  0  0  0  0  3  0  0  0  0  0  0
  -24.9520  -27.7530   19.3360 C   0  0  0  0  0  3  0  0  0  0  0  0
  -23.7000  -29.8370   20.1440 C   0  0  0  0  0  2  0  0  0  0  0  0
  -24.7600  -31.0220   22.1060 N   0  0  0  0  0  0  0  0  0  0  0  0
  -23.6070  -32.0120   23.8040 O   0  0  0  0  0  0  0  0  0  0  0  0
  -22.8610  -29.3680   22.4860 C   0  0  0  0  0  0  0  0  0  0  0  0
  -21.5570  -29.0910   22.3100 N   0  0  0  0  0  0  0  0  0  0  0  0
  -23.5520  -28.7900   23.3290 O   0  0  0  0  0  0  0  0  0  0  0  0
  -21.0520  -29.6130   21.6070 H   0  0  0  0  0  0  0  0  0  0  0  0
  -18.2870  -27.5630   22.6340 C   0  0  0  0  0  0  0  0  0  0  0  0
  -20.7900  -28.0780   23.0400 C   0  0  0  0  0  3  0  0  0  0  0  0
  -21.0630  -26.6620   22.4820 C   0  0  0  0  0  2  0  0  0  0  0  0
  -20.0570  -26.2300   21.4100 C   0  0  0  0  0  2  0  0  0  0  0  0
  -18.6340  -26.2380   21.9750 C   0  0  0  0  0  2  0  0  0  0  0  0
  -19.2990  -28.4340   23.1190 C   0  0  0  0  0  0  0  0  0  0  0  0
  -18.9220  -29.6670   23.6940 C   0  0  0  0  0  3  0  0  0  0  0  0
  -17.5660  -30.0340   23.7880 C   0  0  0  0  0  3  0  0  0  0  0  0
  -16.5680  -29.1620   23.3180 C   0  0  0  0  0  3  0  0  0  0  0  0
  -16.9290  -27.9290   22.7470 C   0  0  0  0  0  3  0  0  0  0  0  0
  -25.9610  -32.4310   23.8700 C   0  0  0  0  0  3  0  0  0  0  0  0
  -26.4620  -31.6740   25.1630 C   0  0  1  0  0  0  0  0  0  0  0  0
  -25.3490  -31.4220   26.2070 C   0  0  0  0  0  1  0  0  0  0  0  0
  -27.0780  -30.3040   24.7950 C   0  0  0  0  0  1  0  0  0  0  0  0
  -27.5830  -32.4910   25.8460 C   0  0  0  0  0  1  0  0  0  0  0  0
  -25.6430  -33.8310   24.1900 N   0  0  0  0  0  0  0  0  0  0  0  0
  -25.9570  -34.8830   23.4220 C   0  0  0  0  0  0  0  0  0  0  0  0
  -26.6080  -34.7750   22.3800 O   0  0  0  0  0  0  0  0  0  0  0  0
  -25.0620  -33.9880   25.0000 H   0  0  0  0  0  0  0  0  0  0  0  0
  -24.2050  -36.6620   23.1000 C   0  0  0  0  0  1  0  0  0  0  0  0
  -25.4730  -36.2730   23.8790 C   0  0  0  0  0  3  0  0  0  0  0  0
  -27.6160  -37.1950   24.6470 C   0  0  0  0  0  1  0  0  0  0  0  0
  -26.4930  -37.3330   23.7240 N   0  0  0  0  0  0  0  0  0  0  0  0
  -26.0810  -38.2530   23.8620 H   0  0  0  0  0  0  0  0  0  0  0  0
  1  3  1  0
  2  1  2  0
  4  2  1  0
  5  3  1  0
  6  8  1  0
  6 10  1  0
  7  9  1  0
  7  2  1  0
  8 48  1  0
  8  7  1  0
  9 11  1  0
  9  5  1  0
 10 50  1  0
 10  4  1  0
 12 17  1  0
 13 14  1  0
 13 12  1  0
 15 14  1  0
 15 22  1  0
 15 16  1  0
 17 11  1  0
 17 16  1  0
 18 11  2  0
 19 20  2  0
 20 39  1  0
 21 24  1  0
 21 20  1  0
 22 23  1  0
 22 19  1  0
 23 21  2  0
 24 25  1  0
 25 26  2  0
 27 30  1  0
 27 26  1  0
 28 27  2  0
 29 28  1  0
 29 24  2  0
 30 31  1  0
 31 36  2  0
 31 32  1  0
 32 33  2  0
 33 34  1  0
 34 38  1  0
 35 34  2  0
 36 35  1  0
 37 36  1  0
 39 40  1  0
 40 42  1  0
 40 43  1  0
 41 39  2  0
 44 19  1  0
 44 45  1  0
 46 44  1  0
 47 48  2  0
 49 48  1  0
 51 50  2  0
 51 52  1  0
 52 54  1  0
 53 64  2  0
 54 59  1  0
 55 63  1  0
 55 65  1  0
 56 62  1  0
 56 58  1  0
 57 63  1  0
 58 57  1  0
 59 58  2  0
 60 61  1  0
 60 54  2  0
 61 56  2  0
 62 55  1  0
 63 53  1  0
 65 67  2  0
 66 65  1  0
 68 66  1  0
 69 78  2  0
 69 74  1  0
 70 66  1  0
 70 74  1  0
 71 70  1  0
 72 73  1  0
 72 71  1  0
 73 69  1  0
 74 75  2  0
 75 76  1  0
 77 76  2  0
 78 77  1  0
 79 53  1  0
 79 84  1  0
 79 80  1  0
 80 83  1  1
 80 81  1  0
 82 80  1  0
 84 87  1  0
 85 89  1  0
 85 84  1  0
 86 85  2  0
 89 88  1  0
 91 92  1  0
 91 89  1  0
 91 90  1  0
M  ISO  4   9 100  11 100  51 101  52 101
M  END
>  <TORSDO>  (20) 
F 19

>  <SCORE>  (20) 
-11.038

>  <name>  (20) 
19

>  <ligand_id>  (20) 
19

>  <original_smiles>  (20) 
[H]C([H])=C(C([H])([H])[H])C1([H])C([H])([H])C([H])(C([H])([H])C([H])([H])Oc2c([H])c([H])c3c(c2[H])C([H])([H])N(C(=O)C([H])(N([H])C(=O)C([H])(N([H])C([H])([H])[H])C([H])([H])[H])C(C([H])([H])[H])(C([H])([H])[H])C([H])([H])[H])C([H])(C(=O)N([H])C2([H])c4c([H])c([H])c([H])c([H])c4C([H])([H])C([H])([H])C2([H])[H])C3([H])[H])C([H])([H])C2=C([H])C([H])([H])C([H])([H])C([H])(C(=O)N3C([H])([H])C([H])([H])C([H])([H])C([H])(n4nc(-c5c([H])c([H])c(Oc6c([H])c([H])c(F)c([H])c6F)c([H])c5[H])c(C(=O)N([H])[H])c4N([H])[H])C3([H])[H])C21[H]

>  <smiles>  (20) 
[H]C([H])=C(C([H])([H])[H])C1([H])C([H])([H])C([H])(C([H])([H])C([H])([H])Oc2c([H])c([H])c3c(c2[H])C([H])([H])N(C(=O)C([H])(N([H])C(=O)C([H])(N([H])C([H])([H])[H])C([H])([H])[H])C(C([H])([H])[H])(C([H])([H])[H])C([H])([H])[H])C([H])(C(=O)N([H])C2([H])c4c([H])c([H])c([H])c([H])c4C([H])([H])C([H])([H])C2([H])[H])C3([H])[H])C([H])([H])C2=C([H])C([H])([H])C([H])([H])C([H])(C(=O)N3C([H])([H])C([H])([H])C([H])([H])C([H])(n4nc(-c5c([H])c([H])c(Oc6c([H])c([H])c(F)c([H])c6F)c([H])c5[H])c(C(=O)N([H])[H])c4N([H])[H])C3([H])[H])C21[H]

$$$$
20:0:0
     RDKit          3D

 95103  0  0  1  0  0  0  0  0999 V2000
  -27.2190  -20.9400   21.0320 N   0  0  0  0  0  4  0  0  0  0  0  0
  -26.7330  -21.2170   20.1970 H   0  0  0  0  0  0  0  0  0  0  0  0
  -26.5130  -20.7520   21.7270 H   0  0  0  0  0  0  0  0  0  0  0  0
  -26.8830  -18.7110   20.0910 C   0  0  0  0  0  1  0  0  0  0  0  0
  -27.9180  -19.6570   20.7340 C   0  0  0  0  0  3  0  0  0  0  0  0
  -29.7100  -20.0570   17.4380 C   0  0  0  0  0  2  0  0  0  0  0  0
  -28.9850  -20.7090   18.6040 C   0  0  0  0  0  2  0  0  0  0  0  0
  -30.7030  -19.1200   18.0930 C   0  0  0  0  0  2  0  0  0  0  0  0
  -29.2170  -19.8390   19.8680 C   0  0  0  0  0  3  0  0  0  0  0  0
  -29.9790  -18.5700   19.3410 C   0  0  0  0  0  3  0  0  0  0  0  0
  -32.1350  -18.5230   20.7840 C   0  0  0  0  0  1  0  0  0  0  0  0
  -30.1180  -17.2490   21.5270 C   0  0  0  0  0  1  0  0  0  0  0  0
  -30.9130  -17.7160   20.2920 C   0  0  1  0  0  0  0  0  0  0  0  0
  -31.3910  -16.4810   19.4550 C   0  0  0  0  0  2  0  0  0  0  0  0
  -32.0800  -15.2400   20.0710 C   0  0  0  0  0  0  0  0  0  0  0  0
  -31.7340  -12.9610   19.2800 C   0  0  0  0  0  2  0  0  0  0  0  0
  -30.8490  -13.0550   18.0180 C   0  0  0  0  0  2  0  0  0  0  0  0
  -29.3560  -12.9970   18.3980 C   0  0  0  0  0  2  0  0  0  0  0  0
  -28.9830  -13.9960   19.5220 C   0  0  0  0  0  3  0  0  0  0  0  0
  -30.0050  -13.9460   20.6830 C   0  0  0  0  0  2  0  0  0  0  0  0
  -31.3700  -14.0840   20.1530 N   0  0  0  0  0  0  0  0  0  0  0  0
  -33.3090  -15.2520   19.9940 O   0  0  0  0  0  0  0  0  0  0  0  0
  -26.6310  -14.7820   20.1810 C   0  0  0  0  0  0  0  0  0  0  0  0
  -25.5020  -14.0920   20.5270 C   0  0  0  0  0  0  0  0  0  0  0  0
  -25.8690  -12.7130   20.5230 C   0  0  0  0  0  0  0  0  0  0  0  0
  -27.6140  -13.8230   19.9860 N   0  0  0  0  0  0  0  0  0  0  0  0
  -27.1600  -12.5750   20.2540 N   0  0  0  0  0  0  0  0  0  0  0  0
  -25.0540  -11.5070   20.7000 C   0  0  0  0  0  0  0  0  0  0  0  0
  -25.3380  -10.5710   21.7190 C   0  0  0  0  0  3  0  0  0  0  0  0
  -24.5290   -9.4260   21.8800 C   0  0  0  0  0  3  0  0  0  0  0  0
  -23.4240   -9.2120   21.0230 C   0  0  0  0  0  0  0  0  0  0  0  0
  -23.1610  -10.1350   19.9960 C   0  0  0  0  0  3  0  0  0  0  0  0
  -23.9700  -11.2710   19.8320 C   0  0  0  0  0  3  0  0  0  0  0  0
  -22.5990   -8.1150   21.0910 O   0  0  0  0  0  0  0  0  0  0  0  0
  -22.3110   -7.5050   22.2850 C   0  0  0  0  0  0  0  0  0  0  0  0
  -21.7270   -8.2090   23.3600 C   0  0  0  0  0  3  0  0  0  0  0  0
  -21.3840   -7.5280   24.5440 C   0  0  0  0  0  3  0  0  0  0  0  0
  -21.6140   -6.1440   24.6520 C   0  0  0  0  0  0  0  0  0  0  0  0
  -22.1910   -5.4400   23.5800 C   0  0  0  0  0  3  0  0  0  0  0  0
  -22.5350   -6.1180   22.3980 C   0  0  0  0  0  0  0  0  0  0  0  0
  -23.0710   -5.4330   21.3600 F   0  0  0  0  0  0  0  0  0  0  0  0
  -21.2770   -5.4860   25.7860 F   0  0  0  0  0  0  0  0  0  0  0  0
  -24.1350  -14.6700   20.7520 C   0  0  0  0  0  0  0  0  0  0  0  0
  -23.3410  -14.0450   21.6150 N   0  0  0  0  0  0  0  0  0  0  0  0
  -23.7790  -15.7090   20.1950 O   0  0  0  0  0  0  0  0  0  0  0  0
  -23.6420  -13.2040   22.0860 H   0  0  0  0  0  0  0  0  0  0  0  0
  -22.4220  -14.4140   21.8100 H   0  0  0  0  0  0  0  0  0  0  0  0
  -26.8940  -16.1350   19.9890 N   0  0  0  0  0  0  0  0  0  0  0  0
  -26.1660  -16.8360   20.0590 H   0  0  0  0  0  0  0  0  0  0  0  0
  -27.7750  -16.5040   19.6600 H   0  0  0  0  0  0  0  0  0  0  0  0
  -27.9970  -22.1080   21.5100 C   0  0  0  0  0  2  0  0  0  0  0  0
  -27.7740  -23.3230   20.5730 C   0  0  0  0  0  2  0  0  0  0  0  0
  -28.4010  -24.6490   21.0440 C   0  0  0  0  0  2  0  0  0  0  0  0
  -28.8820  -25.5350   19.8730 C   0  0  0  0  0  2  0  0  0  0  0  0
  -28.8100  -26.9290   20.1830 O   0  0  0  0  0  0  0  0  0  0  0  0
  -24.7540  -31.8650   23.2650 C   0  0  0  0  0  0  0  0  0  0  0  0
  -27.5870  -27.5700   20.1590 C   0  0  0  0  0  0  0  0  0  0  0  0
  -23.6200  -30.4670   21.5680 C   0  0  0  0  0  3  0  0  0  0  0  0
  -25.1450  -29.0000   20.1470 C   0  0  0  0  0  0  0  0  0  0  0  0
  -26.1370  -30.9030   21.4290 C   0  0  0  0  0  2  0  0  0  0  0  0
  -26.2750  -29.5480   20.7670 C   0  0  0  0  0  0  0  0  0  0  0  0
  -27.4960  -28.8410   20.7650 C   0  0  0  0  0  3  0  0  0  0  0  0
  -26.4320  -27.0290   19.5430 C   0  0  0  0  0  3  0  0  0  0  0  0
  -25.2190  -27.7400   19.5320 C   0  0  0  0  0  3  0  0  0  0  0  0
  -23.8780  -29.8220   20.1790 C   0  0  0  0  0  2  0  0  0  0  0  0
  -24.8550  -31.0920   22.1480 N   0  0  0  0  0  0  0  0  0  0  0  0
  -23.6540  -32.0960   23.7860 O   0  0  0  0  0  0  0  0  0  0  0  0
  -22.9800  -29.4070   22.4930 C   0  0  0  0  0  0  0  0  0  0  0  0
  -21.6680  -29.1740   22.3170 N   0  0  0  0  0  0  0  0  0  0  0  0
  -23.6600  -28.7990   23.3240 O   0  0  0  0  0  0  0  0  0  0  0  0
  -21.1830  -29.7170   21.6160 H   0  0  0  0  0  0  0  0  0  0  0  0
  -18.3270  -27.8480   22.6840 C   0  0  0  0  0  0  0  0  0  0  0  0
  -20.8630  -28.1940   23.0430 C   0  0  0  0  0  3  0  0  0  0  0  0
  -21.0380  -26.7780   22.4470 C   0  0  0  0  0  2  0  0  0  0  0  0
  -19.9790  -26.4320   21.3960 C   0  0  0  0  0  2  0  0  0  0  0  0
  -18.5760  -26.5140   22.0020 C   0  0  0  0  0  2  0  0  0  0  0  0
  -19.4020  -28.6440   23.1620 C   0  0  0  0  0  0  0  0  0  0  0  0
  -19.1200  -29.8920   23.7590 C   0  0  0  0  0  3  0  0  0  0  0  0
  -17.7920  -30.3450   23.8850 C   0  0  0  0  0  3  0  0  0  0  0  0
  -16.7320  -29.5460   23.4240 C   0  0  0  0  0  3  0  0  0  0  0  0
  -16.9990  -28.3010   22.8290 C   0  0  0  0  0  3  0  0  0  0  0  0
  -26.0110  -32.5170   23.9240 C   0  0  0  0  0  3  0  0  0  0  0  0
  -25.6770  -33.9140   24.2240 N   0  0  0  0  0  0  0  0  0  0  0  0
  -26.0310  -34.9600   23.4670 C   0  0  0  0  0  0  0  0  0  0  0  0
  -26.7440  -34.8510   22.4650 O   0  0  0  0  0  0  0  0  0  0  0  0
  -25.0490  -34.0730   24.9990 H   0  0  0  0  0  0  0  0  0  0  0  0
  -24.3000  -36.7290   23.0170 C   0  0  0  0  0  1  0  0  0  0  0  0
  -25.5110  -36.3490   23.8840 C   0  0  0  0  0  3  0  0  0  0  0  0
  -27.6010  -37.2670   24.7900 C   0  0  0  0  0  1  0  0  0  0  0  0
  -26.5370  -37.4110   23.7990 N   0  0  0  0  0  0  0  0  0  0  0  0
  -26.1170  -38.3280   23.9170 H   0  0  0  0  0  0  0  0  0  0  0  0
  -26.4890  -31.7640   25.2260 C   0  0  1  0  0  0  0  0  0  0  0  0
  -25.3580  -31.5190   26.2520 C   0  0  0  0  0  1  0  0  0  0  0  0
  -27.1080  -30.3930   24.8660 C   0  0  0  0  0  1  0  0  0  0  0  0
  -27.6000  -32.5810   25.9260 C   0  0  0  0  0  1  0  0  0  0  0  0
  1 51  1  0
  1  3  1  0
  2  1  1  0
  5  4  1  0
  5  1  1  0
  6  8  1  0
  6  7  1  0
  7  9  1  0
  8 10  1  0
  9  5  1  0
 10  9  1  0
 10 13  1  0
 13 11  1  1
 13 12  1  0
 14 15  1  0
 14 13  1  0
 15 21  1  0
 16 21  1  0
 17 18  1  0
 17 16  1  0
 19 18  1  0
 19 26  1  0
 19 20  1  0
 21 20  1  0
 22 15  2  0
 23 24  2  0
 24 43  1  0
 25 24  1  0
 25 28  1  0
 26 23  1  0
 26 27  1  0
 27 25  2  0
 28 29  1  0
 29 30  2  0
 31 34  1  0
 31 30  1  0
 32 31  2  0
 33 32  1  0
 33 28  2  0
 34 35  1  0
 35 40  2  0
 35 36  1  0
 36 37  2  0
 37 38  1  0
 38 42  1  0
 39 38  2  0
 40 39  1  0
 41 40  1  0
 43 44  1  0
 44 47  1  0
 44 46  1  0
 45 43  2  0
 48 49  1  0
 48 23  1  0
 50 48  1  0
 52 53  1  0
 52 51  1  0
 54 55  1  0
 54 53  1  0
 56 67  2  0
 57 55  1  0
 57 62  1  0
 58 66  1  0
 58 68  1  0
 59 65  1  0
 59 61  1  0
 60 66  1  0
 61 60  1  0
 62 61  2  0
 63 57  2  0
 64 63  1  0
 64 59  2  0
 65 58  1  0
 66 56  1  0
 68 70  2  0
 69 68  1  0
 71 69  1  0
 72 81  2  0
 72 77  1  0
 73 69  1  0
 73 77  1  0
 74 73  1  0
 75 76  1  0
 75 74  1  0
 76 72  1  0
 77 78  2  0
 78 79  1  0
 80 79  2  0
 81 80  1  0
 82 56  1  0
 82 83  1  0
 82 92  1  0
 83 86  1  0
 84 88  1  0
 84 83  1  0
 85 84  2  0
 88 87  1  0
 90 88  1  0
 90 91  1  0
 90 89  1  0
 92 95  1  1
 92 93  1  0
 94 92  1  0
M  ISO  4  14 100  15 100  54 101  55 101
M  END
>  <TORSDO>  (21) 
F 24

>  <SCORE>  (21) 
-9.682

>  <name>  (21) 
20

>  <ligand_id>  (21) 
20

>  <original_smiles>  (21) 
[H]c1c([H])c([H])c2c(c1[H])C([H])([H])C([H])([H])C([H])([H])C2([H])N([H])C(=O)C1([H])N(C(=O)C([H])(N([H])C(=O)C([H])(N([H])C([H])([H])[H])C([H])([H])[H])C(C([H])([H])[H])(C([H])([H])[H])C([H])([H])[H])C([H])([H])c2c([H])c(OC([H])([H])C([H])([H])C([H])([H])C([H])([H])[N+]([H])([H])C([H])(C([H])([H])[H])C3([H])C([H])([H])C([H])([H])C([H])([H])C3([H])C(C([H])([H])[H])(C([H])([H])[H])C([H])([H])C(=O)N3C([H])([H])C([H])([H])C([H])([H])C([H])(n4nc(-c5c([H])c([H])c(Oc6c([H])c([H])c(F)c([H])c6F)c([H])c5[H])c(C(=O)N([H])[H])c4N([H])[H])C3([H])[H])c([H])c([H])c2C1([H])[H]

>  <smiles>  (21) 
[H]c1c([H])c([H])c2c(c1[H])C([H])([H])C([H])([H])C([H])([H])C2([H])N([H])C(=O)C1([H])N(C(=O)C([H])(N([H])C(=O)C([H])(N([H])C([H])([H])[H])C([H])([H])[H])C(C([H])([H])[H])(C([H])([H])[H])C([H])([H])[H])C([H])([H])c2c([H])c(OC([H])([H])C([H])([H])C([H])([H])C([H])([H])[N+]([H])([H])C([H])(C([H])([H])[H])C3([H])C([H])([H])C([H])([H])C([H])([H])C3([H])C(C([H])([H])[H])(C([H])([H])[H])C([H])([H])C(=O)N3C([H])([H])C([H])([H])C([H])([H])C([H])(n4nc(-c5c([H])c([H])c(Oc6c([H])c([H])c(F)c([H])c6F)c([H])c5[H])c(C(=O)N([H])[H])c4N([H])[H])C3([H])[H])c([H])c([H])c2C1([H])[H]

$$$$
21:0:0
     RDKit          3D

 97105  0  0  1  0  0  0  0  0999 V2000
  -27.9530  -19.1970   18.6690 C   0  0  0  0  0  2  0  0  0  0  0  0
  -28.3950  -20.3190   19.6110 C   0  0  0  0  0  2  0  0  0  0  0  0
  -30.4720  -18.8810   18.2520 C   0  0  0  0  0  2  0  0  0  0  0  0
  -29.0430  -18.8290   17.6380 C   0  0  0  0  0  3  0  0  0  0  0  0
  -29.6560  -19.9630   20.4440 C   0  0  0  0  0  3  0  0  0  0  0  0
  -30.5330  -18.8420   19.8000 C   0  0  0  0  0  3  0  0  0  0  0  0
  -28.6870  -20.9090   16.1940 C   0  0  0  0  0  2  0  0  0  0  0  0
  -28.9720  -19.5960   16.3100 C   0  0  0  0  0  0  0  0  0  0  0  0
  -29.2570  -18.7720   15.0690 C   0  0  0  0  0  1  0  0  0  0  0  0
  -30.1700  -17.5060   20.3460 N   0  0  0  0  0  4  0  0  0  0  0  0
  -29.2720  -17.2410   19.9690 H   0  0  0  0  0  0  0  0  0  0  0  0
  -30.0500  -17.6260   21.3400 H   0  0  0  0  0  0  0  0  0  0  0  0
  -31.1570  -16.4100   20.1360 C   0  0  0  0  0  2  0  0  0  0  0  0
  -30.8210  -15.1410   20.9620 C   0  0  0  0  0  2  0  0  0  0  0  0
  -31.3990  -13.8520   20.3320 C   0  0  0  0  0  0  0  0  0  0  0  0
  -31.0030  -11.6120   19.3750 C   0  0  0  0  0  2  0  0  0  0  0  0
  -30.0830  -11.7410   18.1410 C   0  0  0  0  0  2  0  0  0  0  0  0
  -28.5940  -11.7680   18.5540 C   0  0  0  0  0  2  0  0  0  0  0  0
  -28.3100  -12.7610   19.7080 C   0  0  0  0  0  3  0  0  0  0  0  0
  -29.3180  -12.5330   20.8510 C   0  0  0  0  0  2  0  0  0  0  0  0
  -30.6700  -12.7080   20.3030 N   0  0  0  0  0  0  0  0  0  0  0  0
  -32.5110  -13.9350   19.7990 O   0  0  0  0  0  0  0  0  0  0  0  0
  -25.9960  -13.6680   20.3790 C   0  0  0  0  0  0  0  0  0  0  0  0
  -24.8460  -13.0410   20.7750 C   0  0  0  0  0  0  0  0  0  0  0  0
  -25.1460  -11.6440   20.7720 C   0  0  0  0  0  0  0  0  0  0  0  0
  -26.9320  -12.6630   20.1790 N   0  0  0  0  0  0  0  0  0  0  0  0
  -26.4210  -11.4410   20.4680 N   0  0  0  0  0  0  0  0  0  0  0  0
  -24.2780  -10.4810   20.9860 C   0  0  0  0  0  0  0  0  0  0  0  0
  -24.6700   -9.4160   21.8260 C   0  0  0  0  0  3  0  0  0  0  0  0
  -23.8160   -8.3120   22.0300 C   0  0  0  0  0  3  0  0  0  0  0  0
  -22.5500   -8.2700   21.4000 C   0  0  0  0  0  0  0  0  0  0  0  0
  -22.1740   -9.3190   20.5420 C   0  0  0  0  0  3  0  0  0  0  0  0
  -23.0300  -10.4130   20.3330 C   0  0  0  0  0  3  0  0  0  0  0  0
  -21.6650   -7.2290   21.5240 O   0  0  0  0  0  0  0  0  0  0  0  0
  -21.5990   -6.4680   22.6630 C   0  0  0  0  0  0  0  0  0  0  0  0
  -21.2560   -7.0270   23.9140 C   0  0  0  0  0  3  0  0  0  0  0  0
  -21.1190   -6.1950   25.0420 C   0  0  0  0  0  3  0  0  0  0  0  0
  -21.3270   -4.8060   24.9270 C   0  0  0  0  0  0  0  0  0  0  0  0
  -21.6650   -4.2500   23.6820 C   0  0  0  0  0  3  0  0  0  0  0  0
  -21.7980   -5.0780   22.5520 C   0  0  0  0  0  0  0  0  0  0  0  0
  -22.1030   -4.5320   21.3510 F   0  0  0  0  0  0  0  0  0  0  0  0
  -21.1930   -4.0050   26.0100 F   0  0  0  0  0  0  0  0  0  0  0  0
  -23.5110  -13.6840   21.0270 C   0  0  0  0  0  0  0  0  0  0  0  0
  -22.7430  -13.1460   21.9700 N   0  0  0  0  0  0  0  0  0  0  0  0
  -23.1590  -14.6900   20.4120 O   0  0  0  0  0  0  0  0  0  0  0  0
  -23.0410  -12.3340   22.4890 H   0  0  0  0  0  0  0  0  0  0  0  0
  -21.8340  -13.5400   22.1610 H   0  0  0  0  0  0  0  0  0  0  0  0
  -26.3210  -15.0010   20.1550 N   0  0  0  0  0  0  0  0  0  0  0  0
  -25.5480  -15.6520   20.0650 H   0  0  0  0  0  0  0  0  0  0  0  0
  -27.0990  -15.2370   19.5550 H   0  0  0  0  0  0  0  0  0  0  0  0
  -30.4600  -21.1720   20.6560 N   0  0  0  0  0  0  0  0  0  0  0  0
  -30.6050  -21.6220   19.7580 H   0  0  0  0  0  0  0  0  0  0  0  0
  -29.8170  -22.1020   21.5860 C   0  0  0  0  0  2  0  0  0  0  0  0
  -30.1340  -23.5680   21.2300 C   0  0  0  0  0  2  0  0  0  0  0  0
  -29.8030  -24.5230   22.4060 C   0  0  0  0  0  2  0  0  0  0  0  0
  -28.4680  -25.2730   22.2700 C   0  0  0  0  0  2  0  0  0  0  0  0
  -28.4930  -26.0970   21.1100 O   0  0  0  0  0  0  0  0  0  0  0  0
  -24.4720  -31.6280   23.1250 C   0  0  0  0  0  0  0  0  0  0  0  0
  -27.3550  -26.8380   20.9390 C   0  0  0  0  0  0  0  0  0  0  0  0
  -23.4200  -30.0270   21.5580 C   0  0  0  0  0  3  0  0  0  0  0  0
  -24.9950  -28.3150   20.5090 C   0  0  0  0  0  0  0  0  0  0  0  0
  -25.9550  -30.3580   21.5860 C   0  0  0  0  0  2  0  0  0  0  0  0
  -26.0880  -28.9140   21.1490 C   0  0  0  0  0  0  0  0  0  0  0  0
  -27.2700  -28.1780   21.3730 C   0  0  0  0  0  3  0  0  0  0  0  0
  -26.2550  -26.2460   20.2890 C   0  0  0  0  0  3  0  0  0  0  0  0
  -25.0710  -26.9760   20.0810 C   0  0  0  0  0  3  0  0  0  0  0  0
  -23.7650  -29.1700   20.3100 C   0  0  0  0  0  2  0  0  0  0  0  0
  -24.6260  -30.6920   22.1470 N   0  0  0  0  0  0  0  0  0  0  0  0
  -23.3440  -31.9700   23.5080 O   0  0  0  0  0  0  0  0  0  0  0  0
  -22.6540  -29.1420   22.5670 C   0  0  0  0  0  0  0  0  0  0  0  0
  -21.3290  -29.0270   22.3760 N   0  0  0  0  0  0  0  0  0  0  0  0
  -23.2500  -28.5590   23.4780 O   0  0  0  0  0  0  0  0  0  0  0  0
  -20.9150  -29.5560   21.6220 H   0  0  0  0  0  0  0  0  0  0  0  0
  -17.8420  -28.2930   22.9670 C   0  0  0  0  0  0  0  0  0  0  0  0
  -20.4150  -28.2050   23.1650 C   0  0  0  0  0  3  0  0  0  0  0  0
  -20.3070  -26.7710   22.5900 C   0  0  0  0  0  2  0  0  0  0  0  0
  -19.1410  -26.5940   21.6160 C   0  0  0  0  0  2  0  0  0  0  0  0
  -17.8130  -26.9270   22.3040 C   0  0  0  0  0  2  0  0  0  0  0  0
  -19.0650  -28.9010   23.3600 C   0  0  0  0  0  0  0  0  0  0  0  0
  -19.0380  -30.1860   23.9400 C   0  0  0  0  0  3  0  0  0  0  0  0
  -17.8200  -30.8620   24.1370 C   0  0  0  0  0  3  0  0  0  0  0  0
  -16.6110  -30.2550   23.7540 C   0  0  0  0  0  3  0  0  0  0  0  0
  -16.6220  -28.9720   23.1760 C   0  0  0  0  0  3  0  0  0  0  0  0
  -25.6990  -32.3240   23.7950 C   0  0  0  0  0  3  0  0  0  0  0  0
  -26.2090  -31.5790   25.0900 C   0  0  1  0  0  0  0  0  0  0  0  0
  -25.0770  -31.2010   26.0750 C   0  0  0  0  0  1  0  0  0  0  0  0
  -26.9640  -30.2840   24.7110 C   0  0  0  0  0  1  0  0  0  0  0  0
  -27.2200  -32.4740   25.8470 C   0  0  0  0  0  1  0  0  0  0  0  0
  -25.3070  -33.7050   24.1140 N   0  0  0  0  0  0  0  0  0  0  0  0
  -25.5920  -34.7680   23.3510 C   0  0  0  0  0  0  0  0  0  0  0  0
  -26.2840  -34.6970   22.3340 O   0  0  0  0  0  0  0  0  0  0  0  0
  -24.7010  -33.8320   24.9090 H   0  0  0  0  0  0  0  0  0  0  0  0
  -23.7560  -36.4420   22.9600 C   0  0  0  0  0  1  0  0  0  0  0  0
  -25.0130  -36.1290   23.7880 C   0  0  0  0  0  3  0  0  0  0  0  0
  -27.0580  -37.1760   24.6530 C   0  0  0  0  0  1  0  0  0  0  0  0
  -25.9780  -37.2440   23.6700 N   0  0  0  0  0  0  0  0  0  0  0  0
  -25.5070  -38.1390   23.7790 H   0  0  0  0  0  0  0  0  0  0  0  0
  1  2  1  0
  2  5  1  0
  3  6  1  0
  4  8  1  0
  4  3  1  0
  4  1  1  0
  5 51  1  0
  6 10  1  0
  6  5  1  0
  7  8  2  0
  9  8  1  0
 10 12  1  0
 11 10  1  0
 13 10  1  0
 13 14  1  0
 15 14  1  0
 16 21  1  0
 17 18  1  0
 17 16  1  0
 19 18  1  0
 19 26  1  0
 19 20  1  0
 21 15  1  0
 21 20  1  0
 22 15  2  0
 23 24  2  0
 24 43  1  0
 25 24  1  0
 25 28  1  0
 26 23  1  0
 26 27  1  0
 27 25  2  0
 28 29  1  0
 29 30  2  0
 31 34  1  0
 31 30  1  0
 32 31  2  0
 33 32  1  0
 33 28  2  0
 34 35  1  0
 35 36  1  0
 36 37  2  0
 38 37  1  0
 38 42  1  0
 39 38  2  0
 40 35  2  0
 40 39  1  0
 41 40  1  0
 43 44  1  0
 44 47  1  0
 44 46  1  0
 45 43  2  0
 48 23  1  0
 49 48  1  0
 50 48  1  0
 51 53  1  0
 52 51  1  0
 54 53  1  0
 54 55  1  0
 56 55  1  0
 57 56  1  0
 58 69  2  0
 59 57  1  0
 59 64  1  0
 60 68  1  0
 60 70  1  0
 61 63  1  0
 62 68  1  0
 63 64  2  0
 63 62  1  0
 65 59  2  0
 66 65  1  0
 66 61  2  0
 67 61  1  0
 67 60  1  0
 68 58  1  0
 70 72  2  0
 71 70  1  0
 73 71  1  0
 74 83  2  0
 74 79  1  0
 75 71  1  0
 75 79  1  0
 76 75  1  0
 77 78  1  0
 77 76  1  0
 78 74  1  0
 79 80  2  0
 80 81  1  0
 82 81  2  0
 83 82  1  0
 84 58  1  0
 84 89  1  0
 84 85  1  0
 85 88  1  1
 85 86  1  0
 87 85  1  0
 89 92  1  0
 90 94  1  0
 90 89  1  0
 91 90  2  0
 94 93  1  0
 96 97  1  0
 96 94  1  0
 96 95  1  0
M  ISO  4  14 100  15 100  56 101  57 101
M  END
>  <TORSDO>  (22) 
F 25

>  <SCORE>  (22) 
-11.644

>  <name>  (22) 
21

>  <ligand_id>  (22) 
21

>  <original_smiles>  (22) 
[H]C([H])=C(C([H])([H])[H])C1([H])C([H])([H])C([H])([H])C([H])(N([H])C([H])([H])C([H])([H])C([H])([H])C([H])([H])Oc2c([H])c([H])c3c(c2[H])C([H])([H])N(C(=O)C([H])(N([H])C(=O)C([H])(N([H])C([H])([H])[H])C([H])([H])[H])C(C([H])([H])[H])(C([H])([H])[H])C([H])([H])[H])C([H])(C(=O)N([H])C2([H])c4c([H])c([H])c([H])c([H])c4C([H])([H])C([H])([H])C2([H])[H])C3([H])[H])C([H])([N+]([H])([H])C([H])([H])C([H])([H])C(=O)N2C([H])([H])C([H])([H])C([H])([H])C([H])(n3nc(-c4c([H])c([H])c(Oc5c([H])c([H])c(F)c([H])c5F)c([H])c4[H])c(C(=O)N([H])[H])c3N([H])[H])C2([H])[H])C1([H])[H]

>  <smiles>  (22) 
[H]C([H])=C(C([H])([H])[H])C1([H])C([H])([H])C([H])([H])C([H])(N([H])C([H])([H])C([H])([H])C([H])([H])C([H])([H])Oc2c([H])c([H])c3c(c2[H])C([H])([H])N(C(=O)C([H])(N([H])C(=O)C([H])(N([H])C([H])([H])[H])C([H])([H])[H])C(C([H])([H])[H])(C([H])([H])[H])C([H])([H])[H])C([H])(C(=O)N([H])C2([H])c4c([H])c([H])c([H])c([H])c4C([H])([H])C([H])([H])C2([H])[H])C3([H])[H])C([H])([N+]([H])([H])C([H])([H])C([H])([H])C(=O)N2C([H])([H])C([H])([H])C([H])([H])C([H])(n3nc(-c4c([H])c([H])c(Oc5c([H])c([H])c(F)c([H])c5F)c([H])c4[H])c(C(=O)N([H])[H])c3N([H])[H])C2([H])[H])C1([H])[H]

$$$$
22:0:0
     RDKit          3D

 93103  0  0  1  0  0  0  0  0999 V2000
  -28.8220  -20.5840   20.3520 C   0  0  0  0  0  2  0  0  0  0  0  0
  -29.9660  -18.8560   17.8330 C   0  0  0  0  0  2  0  0  0  0  0  0
  -31.8990  -18.9730   18.3920 C   0  0  0  0  0  3  0  0  0  0  0  0
  -30.8380  -17.8760   18.6350 C   0  0  2  0  0  0  0  0  0  0  0  0
  -30.6690  -19.8140   18.8200 C   0  0  1  0  0  0  0  0  0  0  0  0
  -30.3910  -17.8570   20.0950 C   0  0  0  0  0  3  0  0  0  0  0  0
  -30.1140  -19.5330   20.2300 C   0  0  0  0  0  3  0  0  0  0  0  0
  -33.4480  -19.9860   20.1150 C   0  0  0  0  0  2  0  0  0  0  0  0
  -33.1330  -18.9740   19.2880 C   0  0  0  0  0  0  0  0  0  0  0  0
  -34.0170  -17.7500   19.1600 C   0  0  0  0  0  1  0  0  0  0  0  0
  -29.7320  -16.3950   20.5550 C   0  0  0  0  0  2  0  0  0  0  0  0
  -30.5360  -14.9610   20.3150 C   0  0  0  0  0  0  0  0  0  0  0  0
  -30.4030  -12.6260   19.3540 C   0  0  0  0  0  2  0  0  0  0  0  0
  -29.4540  -12.6360   18.1320 C   0  0  0  0  0  2  0  0  0  0  0  0
  -27.9920  -12.4320   18.5740 C   0  0  0  0  0  2  0  0  0  0  0  0
  -27.6080  -13.3310   19.7780 C   0  0  0  0  0  3  0  0  0  0  0  0
  -28.6770  -13.3100   20.8880 C   0  0  0  0  0  2  0  0  0  0  0  0
  -29.9530  -13.7000   20.2830 N   0  0  0  0  0  0  0  0  0  0  0  0
  -31.7310  -15.0120   20.0050 O   0  0  0  0  0  0  0  0  0  0  0  0
  -25.2360  -13.8940   20.5590 C   0  0  0  0  0  0  0  0  0  0  0  0
  -24.1790  -13.1110   20.9320 C   0  0  0  0  0  0  0  0  0  0  0  0
  -24.6480  -11.7620   20.8800 C   0  0  0  0  0  0  0  0  0  0  0  0
  -26.2780  -13.0220   20.2920 N   0  0  0  0  0  0  0  0  0  0  0  0
  -25.9350  -11.7340   20.5520 N   0  0  0  0  0  0  0  0  0  0  0  0
  -23.9280  -10.4950   21.0640 C   0  0  0  0  0  0  0  0  0  0  0  0
  -24.3670   -9.5200   21.9880 C   0  0  0  0  0  3  0  0  0  0  0  0
  -23.6430   -8.3200   22.1610 C   0  0  0  0  0  3  0  0  0  0  0  0
  -22.4670   -8.0860   21.4080 C   0  0  0  0  0  0  0  0  0  0  0  0
  -22.0470   -9.0480   20.4750 C   0  0  0  0  0  3  0  0  0  0  0  0
  -22.7710  -10.2400   20.3000 C   0  0  0  0  0  3  0  0  0  0  0  0
  -21.7150   -6.9380   21.4920 O   0  0  0  0  0  0  0  0  0  0  0  0
  -21.6670   -6.1900   22.6410 C   0  0  0  0  0  0  0  0  0  0  0  0
  -21.2240   -6.7340   23.8660 C   0  0  0  0  0  3  0  0  0  0  0  0
  -21.1260   -5.9120   25.0060 C   0  0  0  0  0  3  0  0  0  0  0  0
  -21.4590   -4.5460   24.9210 C   0  0  0  0  0  0  0  0  0  0  0  0
  -21.8960   -4.0020   23.7010 C   0  0  0  0  0  3  0  0  0  0  0  0
  -21.9960   -4.8220   22.5630 C   0  0  0  0  0  0  0  0  0  0  0  0
  -22.3970   -4.2870   21.3840 F   0  0  0  0  0  0  0  0  0  0  0  0
  -21.3570   -3.7540   26.0150 F   0  0  0  0  0  0  0  0  0  0  0  0
  -22.7840  -13.5790   21.2260 C   0  0  0  0  0  0  0  0  0  0  0  0
  -22.0670  -12.8670   22.0880 N   0  0  0  0  0  0  0  0  0  0  0  0
  -22.3400  -14.6130   20.7270 O   0  0  0  0  0  0  0  0  0  0  0  0
  -22.4400  -12.0310   22.5130 H   0  0  0  0  0  0  0  0  0  0  0  0
  -21.1330  -13.1640   22.3280 H   0  0  0  0  0  0  0  0  0  0  0  0
  -25.3950  -15.2670   20.3980 N   0  0  0  0  0  0  0  0  0  0  0  0
  -24.6310  -15.9200   20.5340 H   0  0  0  0  0  0  0  0  0  0  0  0
  -26.2410  -15.7120   20.0660 H   0  0  0  0  0  0  0  0  0  0  0  0
  -29.0450  -22.1020   20.7510 N   0  0  0  0  0  4  0  0  0  0  0  0
  -30.0340  -22.2220   20.9040 H   0  0  0  0  0  0  0  0  0  0  0  0
  -28.6360  -22.1710   21.6690 H   0  0  0  0  0  0  0  0  0  0  0  0
  -28.5450  -23.3850   19.9660 C   0  0  0  0  0  2  0  0  0  0  0  0
  -28.1810  -24.8260   20.7470 C   0  0  0  0  0  2  0  0  0  0  0  0
  -28.3070  -26.2850   20.2360 O   0  0  0  0  0  0  0  0  0  0  0  0
  -24.6180  -31.9180   23.2330 C   0  0  0  0  0  0  0  0  0  0  0  0
  -27.2200  -27.2180   20.2430 C   0  0  0  0  0  0  0  0  0  0  0  0
  -23.4260  -30.5130   21.5940 C   0  0  0  0  0  3  0  0  0  0  0  0
  -24.8830  -28.9310   20.1880 C   0  0  0  0  0  0  0  0  0  0  0  0
  -25.9760  -30.7920   21.4340 C   0  0  0  0  0  2  0  0  0  0  0  0
  -26.0580  -29.3970   20.7920 C   0  0  0  0  0  0  0  0  0  0  0  0
  -27.2310  -28.5580   20.7960 C   0  0  0  0  0  3  0  0  0  0  0  0
  -26.0190  -26.8370   19.6130 C   0  0  0  0  0  3  0  0  0  0  0  0
  -24.8730  -27.6620   19.5850 C   0  0  0  0  0  3  0  0  0  0  0  0
  -23.6530  -29.8250   20.2210 C   0  0  0  0  0  2  0  0  0  0  0  0
  -24.6930  -31.0950   22.1430 N   0  0  0  0  0  0  0  0  0  0  0  0
  -23.5310  -32.2040   23.7540 O   0  0  0  0  0  0  0  0  0  0  0  0
  -22.7440  -29.5100   22.5570 C   0  0  0  0  0  0  0  0  0  0  0  0
  -21.4160  -29.3470   22.4300 N   0  0  0  0  0  0  0  0  0  0  0  0
  -23.4120  -28.8810   23.3810 O   0  0  0  0  0  0  0  0  0  0  0  0
  -20.9340  -29.9050   21.7400 H   0  0  0  0  0  0  0  0  0  0  0  0
  -18.0230  -28.1830   22.9450 C   0  0  0  0  0  0  0  0  0  0  0  0
  -20.5870  -28.4160   23.2010 C   0  0  0  0  0  3  0  0  0  0  0  0
  -20.6700  -26.9850   22.6200 C   0  0  0  0  0  2  0  0  0  0  0  0
  -19.5590  -26.6780   21.6100 C   0  0  0  0  0  2  0  0  0  0  0  0
  -18.1810  -26.8350   22.2620 C   0  0  0  0  0  2  0  0  0  0  0  0
  -19.1530  -28.9320   23.3720 C   0  0  0  0  0  0  0  0  0  0  0  0
  -18.9500  -30.1920   23.9740 C   0  0  0  0  0  3  0  0  0  0  0  0
  -17.6520  -30.7060   24.1510 C   0  0  0  0  0  3  0  0  0  0  0  0
  -16.5370  -29.9560   23.7390 C   0  0  0  0  0  3  0  0  0  0  0  0
  -16.7240  -28.6960   23.1440 C   0  0  0  0  0  3  0  0  0  0  0  0
  -25.8940  -32.5540   23.8640 C   0  0  0  0  0  3  0  0  0  0  0  0
  -25.5830  -33.9560   24.1820 N   0  0  0  0  0  0  0  0  0  0  0  0
  -25.9280  -35.0050   23.4240 C   0  0  0  0  0  0  0  0  0  0  0  0
  -26.6060  -34.8940   22.3990 O   0  0  0  0  0  0  0  0  0  0  0  0
  -24.9790  -34.1160   24.9740 H   0  0  0  0  0  0  0  0  0  0  0  0
  -24.2180  -36.8120   23.0440 C   0  0  0  0  0  1  0  0  0  0  0  0
  -25.4450  -36.3990   23.8720 C   0  0  0  0  0  3  0  0  0  0  0  0
  -27.5720  -37.2730   24.7330 C   0  0  0  0  0  1  0  0  0  0  0  0
  -26.4860  -37.4450   23.7710 N   0  0  0  0  0  0  0  0  0  0  0  0
  -26.0840  -38.3670   23.9080 H   0  0  0  0  0  0  0  0  0  0  0  0
  -26.3910  -31.7940   25.1550 C   0  0  1  0  0  0  0  0  0  0  0  0
  -25.2850  -31.5720   26.2130 C   0  0  0  0  0  1  0  0  0  0  0  0
  -26.9740  -30.4100   24.7880 C   0  0  0  0  0  1  0  0  0  0  0  0
  -27.5370  -32.5920   25.8230 C   0  0  0  0  0  1  0  0  0  0  0  0
  1 48  1  0
  3  4  1  0
  3  5  1  0
  3  9  1  0
  4  2  1  6
  4  5  1  0
  4  6  1  0
  5  2  1  6
  5  7  1  0
  6  7  1  0
  6 11  1  0
  7  1  1  0
  9  8  2  0
 10  9  1  0
 12 11  1  0
 13 18  1  0
 14 15  1  0
 14 13  1  0
 16 15  1  0
 16 23  1  0
 16 17  1  0
 18 12  1  0
 18 17  1  0
 19 12  2  0
 20 21  2  0
 21 40  1  0
 22 21  1  0
 22 25  1  0
 23 24  1  0
 23 20  1  0
 24 22  2  0
 25 26  1  0
 26 27  2  0
 28 31  1  0
 28 27  1  0
 29 28  2  0
 30 29  1  0
 30 25  2  0
 31 32  1  0
 32 33  1  0
 33 34  2  0
 35 34  1  0
 35 39  1  0
 36 35  2  0
 37 32  2  0
 37 36  1  0
 38 37  1  0
 40 41  1  0
 41 44  1  0
 41 43  1  0
 42 40  2  0
 45 46  1  0
 45 20  1  0
 47 45  1  0
 48 49  1  0
 48 50  1  0
 51 52  1  0
 51 48  1  0
 53 55  1  0
 53 52  1  0
 54 65  2  0
 55 60  1  0
 56 64  1  0
 56 66  1  0
 57 63  1  0
 57 59  1  0
 58 64  1  0
 59 60  2  0
 59 58  1  0
 61 55  2  0
 62 61  1  0
 62 57  2  0
 63 56  1  0
 64 54  1  0
 66 68  2  0
 67 66  1  0
 69 67  1  0
 70 79  2  0
 70 75  1  0
 71 67  1  0
 71 75  1  0
 72 71  1  0
 73 74  1  0
 73 72  1  0
 74 70  1  0
 75 76  2  0
 76 77  1  0
 78 77  2  0
 79 78  1  0
 80 54  1  0
 80 81  1  0
 80 90  1  0
 81 84  1  0
 82 86  1  0
 82 81  1  0
 83 82  2  0
 86 85  1  0
 88 86  1  0
 88 89  1  0
 88 87  1  0
 90 93  1  1
 90 91  1  0
 92 90  1  0
M  ISO  4  11 100  12 100  52 101  53 101
M  END
>  <TORSDO>  (23) 
F 22

>  <SCORE>  (23) 
-13.238

>  <name>  (23) 
22

>  <ligand_id>  (23) 
22

>  <original_smiles>  (23) 
[H]C([H])=C(C([H])([H])[H])C1([H])C2([H])C([H])([H])C1([H])C([H])(C([H])([H])[N+]([H])([H])C([H])([H])C([H])([H])Oc1c([H])c([H])c3c(c1[H])C([H])([H])N(C(=O)C([H])(N([H])C(=O)C([H])(N([H])C([H])([H])[H])C([H])([H])[H])C(C([H])([H])[H])(C([H])([H])[H])C([H])([H])[H])C([H])(C(=O)N([H])C1([H])c4c([H])c([H])c([H])c([H])c4C([H])([H])C([H])([H])C1([H])[H])C3([H])[H])C2([H])C([H])([H])C(=O)N1C([H])([H])C([H])([H])C([H])([H])C([H])(n2nc(-c3c([H])c([H])c(Oc4c([H])c([H])c(F)c([H])c4F)c([H])c3[H])c(C(=O)N([H])[H])c2N([H])[H])C1([H])[H]

>  <smiles>  (23) 
[H]C([H])=C(C([H])([H])[H])C1([H])C2([H])C([H])([H])C1([H])C([H])(C([H])([H])[N+]([H])([H])C([H])([H])C([H])([H])Oc1c([H])c([H])c3c(c1[H])C([H])([H])N(C(=O)C([H])(N([H])C(=O)C([H])(N([H])C([H])([H])[H])C([H])([H])[H])C(C([H])([H])[H])(C([H])([H])[H])C([H])([H])[H])C([H])(C(=O)N([H])C1([H])c4c([H])c([H])c([H])c([H])c4C([H])([H])C([H])([H])C1([H])[H])C3([H])[H])C2([H])C([H])([H])C(=O)N1C([H])([H])C([H])([H])C([H])([H])C([H])(n2nc(-c3c([H])c([H])c(Oc4c([H])c([H])c(F)c([H])c4F)c([H])c3[H])c(C(=O)N([H])[H])c2N([H])[H])C1([H])[H]

$$$$
23:0:0
     RDKit          3D

 95102  0  0  1  0  0  0  0  0999 V2000
  -29.0960  -21.3730   21.7510 C   0  0  0  0  0  3  0  0  0  0  0  0
  -29.4290  -21.5100   23.1830 N   0  0  0  0  0  4  0  0  0  0  0  0
  -30.4020  -21.7280   23.3250 H   0  0  0  0  0  0  0  0  0  0  0  0
  -29.2140  -20.6530   23.6630 H   0  0  0  0  0  0  0  0  0  0  0  0
  -28.8810  -22.2460   23.5960 H   0  0  0  0  0  0  0  0  0  0  0  0
  -29.1640  -22.7590   21.0530 C   0  0  0  0  0  2  0  0  0  0  0  0
  -26.7560  -23.3500   21.6140 C   0  0  0  0  0  2  0  0  0  0  0  0
  -28.0260  -23.7290   21.3810 C   0  0  0  0  0  0  0  0  0  0  0  0
  -28.3910  -25.2050   21.3820 C   0  0  0  0  0  2  0  0  0  0  0  0
  -28.6560  -25.7050   19.9550 C   0  0  0  0  0  2  0  0  0  0  0  0
  -28.5770  -27.1220   19.8960 O   0  0  0  0  0  0  0  0  0  0  0  0
  -24.6040  -31.9440   23.2220 C   0  0  0  0  0  0  0  0  0  0  0  0
  -27.3390  -27.7240   19.9560 C   0  0  0  0  0  0  0  0  0  0  0  0
  -23.4110  -30.5720   21.5410 C   0  0  0  0  0  3  0  0  0  0  0  0
  -24.8870  -29.1190   20.0540 C   0  0  0  0  0  0  0  0  0  0  0  0
  -25.9120  -31.0260   21.3070 C   0  0  0  0  0  2  0  0  0  0  0  0
  -26.0310  -29.6750   20.6370 C   0  0  0  0  0  0  0  0  0  0  0  0
  -27.2590  -28.9870   20.5780 C   0  0  0  0  0  3  0  0  0  0  0  0
  -26.1740  -27.1640   19.3840 C   0  0  0  0  0  3  0  0  0  0  0  0
  -24.9510  -27.8640   19.4270 C   0  0  0  0  0  3  0  0  0  0  0  0
  -23.6150  -29.9300   20.1400 C   0  0  0  0  0  2  0  0  0  0  0  0
  -24.6630  -31.1930   22.0860 N   0  0  0  0  0  0  0  0  0  0  0  0
  -23.5220  -32.1690   23.7840 O   0  0  0  0  0  0  0  0  0  0  0  0
  -22.8000  -29.5030   22.4760 C   0  0  0  0  0  0  0  0  0  0  0  0
  -21.4800  -29.2920   22.3490 N   0  0  0  0  0  0  0  0  0  0  0  0
  -23.5100  -28.8690   23.2580 O   0  0  0  0  0  0  0  0  0  0  0  0
  -20.9680  -29.8580   21.6860 H   0  0  0  0  0  0  0  0  0  0  0  0
  -18.1420  -28.0060   22.8250 C   0  0  0  0  0  0  0  0  0  0  0  0
  -20.6940  -28.3000   23.0850 C   0  0  0  0  0  3  0  0  0  0  0  0
  -20.8220  -26.8990   22.4460 C   0  0  0  0  0  2  0  0  0  0  0  0
  -19.7160  -26.5980   21.4290 C   0  0  0  0  0  2  0  0  0  0  0  0
  -18.3380  -26.6890   22.0930 C   0  0  0  0  0  2  0  0  0  0  0  0
  -19.2490  -28.7700   23.2780 C   0  0  0  0  0  0  0  0  0  0  0  0
  -19.0150  -30.0050   23.9200 C   0  0  0  0  0  3  0  0  0  0  0  0
  -17.7020  -30.4720   24.1220 C   0  0  0  0  0  3  0  0  0  0  0  0
  -16.6090  -29.7020   23.6920 C   0  0  0  0  0  3  0  0  0  0  0  0
  -16.8290  -28.4710   23.0480 C   0  0  0  0  0  3  0  0  0  0  0  0
  -25.8820  -32.5830   23.8530 C   0  0  0  0  0  3  0  0  0  0  0  0
  -26.3950  -31.8140   25.1330 C   0  0  1  0  0  0  0  0  0  0  0  0
  -25.2930  -31.5660   26.1870 C   0  0  0  0  0  1  0  0  0  0  0  0
  -26.9890  -30.4420   24.7370 C   0  0  0  0  0  1  0  0  0  0  0  0
  -27.5320  -32.6130   25.8120 C   0  0  0  0  0  1  0  0  0  0  0  0
  -25.5700  -33.9830   24.1750 N   0  0  0  0  0  0  0  0  0  0  0  0
  -25.9140  -35.0310   23.4180 C   0  0  0  0  0  0  0  0  0  0  0  0
  -26.6010  -34.9270   22.3970 O   0  0  0  0  0  0  0  0  0  0  0  0
  -24.9640  -34.1440   24.9660 H   0  0  0  0  0  0  0  0  0  0  0  0
  -24.1960  -36.8260   23.0170 C   0  0  0  0  0  1  0  0  0  0  0  0
  -25.4160  -36.4200   23.8600 C   0  0  0  0  0  3  0  0  0  0  0  0
  -27.5220  -37.3070   24.7540 C   0  0  0  0  0  1  0  0  0  0  0  0
  -26.4500  -37.4740   23.7780 N   0  0  0  0  0  0  0  0  0  0  0  0
  -26.0380  -38.3950   23.9110 H   0  0  0  0  0  0  0  0  0  0  0  0
  -29.9610  -20.2780   21.0640 C   0  0  0  0  0  2  0  0  0  0  0  0
  -28.6190  -20.2120   18.8460 C   0  0  0  0  0  1  0  0  0  0  0  0
  -29.1730  -19.4120   20.0420 C   0  0  0  0  0  3  0  0  0  0  0  0
  -31.0550  -18.1310   18.8660 C   0  0  0  0  0  3  0  0  0  0  0  0
  -29.9220  -18.1410   19.6030 C   0  0  0  0  0  0  0  0  0  0  0  0
  -31.8700  -19.3010   18.3490 C   0  0  0  0  0  1  0  0  0  0  0  0
  -29.2840  -16.8040   20.0160 C   0  0  0  0  0  2  0  0  0  0  0  0
  -30.1620  -15.8950   20.9240 C   0  0  0  0  0  2  0  0  0  0  0  0
  -30.7750  -14.6820   20.1830 C   0  0  0  0  0  0  0  0  0  0  0  0
  -30.4150  -12.5540   18.9950 C   0  0  0  0  0  2  0  0  0  0  0  0
  -29.4260  -12.7970   17.8360 C   0  0  0  0  0  2  0  0  0  0  0  0
  -27.9670  -12.6490   18.3210 C   0  0  0  0  0  2  0  0  0  0  0  0
  -27.6880  -13.4450   19.6250 C   0  0  0  0  0  3  0  0  0  0  0  0
  -28.7930  -13.1970   20.6780 C   0  0  0  0  0  2  0  0  0  0  0  0
  -30.0930  -13.5090   20.0640 N   0  0  0  0  0  0  0  0  0  0  0  0
  -31.8620  -14.8620   19.6290 O   0  0  0  0  0  0  0  0  0  0  0  0
  -25.3270  -14.0370   20.4630 C   0  0  0  0  0  0  0  0  0  0  0  0
  -24.2810  -13.2580   20.8740 C   0  0  0  0  0  0  0  0  0  0  0  0
  -24.7380  -11.9090   20.7880 C   0  0  0  0  0  0  0  0  0  0  0  0
  -26.3600  -13.1630   20.1640 N   0  0  0  0  0  0  0  0  0  0  0  0
  -26.0120  -11.8760   20.4160 N   0  0  0  0  0  0  0  0  0  0  0  0
  -24.0190  -10.6450   20.9800 C   0  0  0  0  0  0  0  0  0  0  0  0
  -24.4630   -9.6760   21.9050 C   0  0  0  0  0  3  0  0  0  0  0  0
  -23.7440   -8.4740   22.0810 C   0  0  0  0  0  3  0  0  0  0  0  0
  -22.5680   -8.2320   21.3340 C   0  0  0  0  0  0  0  0  0  0  0  0
  -22.1440   -9.1920   20.3970 C   0  0  0  0  0  3  0  0  0  0  0  0
  -22.8610  -10.3850   20.2190 C   0  0  0  0  0  3  0  0  0  0  0  0
  -21.8220   -7.0820   21.4200 O   0  0  0  0  0  0  0  0  0  0  0  0
  -21.7530   -6.3540   22.5840 C   0  0  0  0  0  0  0  0  0  0  0  0
  -21.2630   -6.9160   23.7820 C   0  0  0  0  0  3  0  0  0  0  0  0
  -21.1490   -6.1170   24.9390 C   0  0  0  0  0  3  0  0  0  0  0  0
  -21.5080   -4.7560   24.8920 C   0  0  0  0  0  0  0  0  0  0  0  0
  -21.9930   -4.1950   23.6990 C   0  0  0  0  0  3  0  0  0  0  0  0
  -22.1140   -4.9930   22.5470 C   0  0  0  0  0  0  0  0  0  0  0  0
  -22.5590   -4.4430   21.3920 F   0  0  0  0  0  0  0  0  0  0  0  0
  -21.3890   -3.9860   25.9990 F   0  0  0  0  0  0  0  0  0  0  0  0
  -22.9030  -13.7320   21.2360 C   0  0  0  0  0  0  0  0  0  0  0  0
  -22.2180  -13.0170   22.1200 N   0  0  0  0  0  0  0  0  0  0  0  0
  -22.4440  -14.7760   20.7730 O   0  0  0  0  0  0  0  0  0  0  0  0
  -22.5970  -12.1720   22.5230 H   0  0  0  0  0  0  0  0  0  0  0  0
  -21.2920  -13.3170   22.3880 H   0  0  0  0  0  0  0  0  0  0  0  0
  -25.4780  -15.4090   20.2960 N   0  0  0  0  0  0  0  0  0  0  0  0
  -24.6910  -16.0390   20.3960 H   0  0  0  0  0  0  0  0  0  0  0  0
  -26.2850  -15.8360   19.8650 H   0  0  0  0  0  0  0  0  0  0  0  0
  1  6  1  0
  1  2  1  0
  2  3  1  0
  2  5  1  0
  2  4  1  0
  6  8  1  0
  8  9  1  0
  8  7  2  0
 10  9  1  0
 11 10  1  0
 11 13  1  0
 12 23  2  0
 13 18  1  0
 14 22  1  0
 14 24  1  0
 15 21  1  0
 15 17  1  0
 16 22  1  0
 17 16  1  0
 18 17  2  0
 19 20  1  0
 19 13  2  0
 20 15  2  0
 21 14  1  0
 22 12  1  0
 24 26  2  0
 25 24  1  0
 27 25  1  0
 28 37  2  0
 28 33  1  0
 29 25  1  0
 29 33  1  0
 30 29  1  0
 31 32  1  0
 31 30  1  0
 32 28  1  0
 33 34  2  0
 34 35  1  0
 36 35  2  0
 37 36  1  0
 38 12  1  0
 38 43  1  0
 38 39  1  0
 39 42  1  1
 39 40  1  0
 41 39  1  0
 43 46  1  0
 44 48  1  0
 44 43  1  0
 45 44  2  0
 48 47  1  0
 50 48  1  0
 50 51  1  0
 50 49  1  0
 52  1  1  0
 54 53  1  0
 54 52  1  0
 55 56  2  0
 56 58  1  0
 56 54  1  0
 57 55  1  0
 58 59  1  0
 60 59  1  0
 61 66  1  0
 62 63  1  0
 62 61  1  0
 64 63  1  0
 64 71  1  0
 64 65  1  0
 66 60  1  0
 66 65  1  0
 67 60  2  0
 68 69  2  0
 69 88  1  0
 70 69  1  0
 70 73  1  0
 71 72  1  0
 71 68  1  0
 72 70  2  0
 73 74  1  0
 74 75  2  0
 76 79  1  0
 76 75  1  0
 77 76  2  0
 78 77  1  0
 78 73  2  0
 79 80  1  0
 80 81  1  0
 81 82  2  0
 83 82  1  0
 83 87  1  0
 84 83  2  0
 85 80  2  0
 85 84  1  0
 86 85  1  0
 88 89  1  0
 89 92  1  0
 89 91  1  0
 90 88  2  0
 93 94  1  0
 93 68  1  0
 95 93  1  0
M  ISO  4  10 101  11 101  59 100  60 100
M  END
>  <TORSDO>  (24) 
F 26

>  <SCORE>  (24) 
-12.326

>  <name>  (24) 
23

>  <ligand_id>  (24) 
23

>  <original_smiles>  (24) 
[H]C([H])=C(C([H])([H])C([H])([H])Oc1c([H])c([H])c2c(c1[H])C([H])([H])N(C(=O)C([H])(N([H])C(=O)C([H])(N([H])C([H])([H])[H])C([H])([H])[H])C(C([H])([H])[H])(C([H])([H])[H])C([H])([H])[H])C([H])(C(=O)N([H])C1([H])c3c([H])c([H])c([H])c([H])c3C([H])([H])C([H])([H])C1([H])[H])C2([H])[H])C([H])([H])C([H])(C([H])([H])C([H])(C(=C([H])C([H])([H])[H])C([H])([H])C([H])([H])C(=O)N1C([H])([H])C([H])([H])C([H])([H])C([H])(n2nc(-c3c([H])c([H])c(Oc4c([H])c([H])c(F)c([H])c4F)c([H])c3[H])c(C(=O)N([H])[H])c2N([H])[H])C1([H])[H])C([H])([H])[H])[N+]([H])([H])[H]

>  <smiles>  (24) 
[H]C([H])=C(C([H])([H])C([H])([H])Oc1c([H])c([H])c2c(c1[H])C([H])([H])N(C(=O)C([H])(N([H])C(=O)C([H])(N([H])C([H])([H])[H])C([H])([H])[H])C(C([H])([H])[H])(C([H])([H])[H])C([H])([H])[H])C([H])(C(=O)N([H])C1([H])c3c([H])c([H])c([H])c([H])c3C([H])([H])C([H])([H])C1([H])[H])C2([H])[H])C([H])([H])C([H])(C([H])([H])C([H])(C(=C([H])C([H])([H])[H])C([H])([H])C([H])([H])C(=O)N1C([H])([H])C([H])([H])C([H])([H])C([H])(n2nc(-c3c([H])c([H])c(Oc4c([H])c([H])c(F)c([H])c4F)c([H])c3[H])c(C(=O)N([H])[H])c2N([H])[H])C1([H])[H])C([H])([H])[H])[N+]([H])([H])[H]

$$$$
24:0:0
     RDKit          3D

 99107  0  0  1  0  0  0  0  0999 V2000
  -32.6960  -22.2120   20.5900 C   0  0  0  0  0  3  0  0  0  0  0  0
  -31.3190  -22.7130   20.3360 N   0  0  0  0  0  4  0  0  0  0  0  0
  -31.0980  -22.5500   19.3670 H   0  0  0  0  0  0  0  0  0  0  0  0
  -30.6860  -22.1660   20.8980 H   0  0  0  0  0  0  0  0  0  0  0  0
  -31.0530  -24.1420   20.6560 C   0  0  0  0  0  2  0  0  0  0  0  0
  -29.7690  -24.7010   19.9470 C   0  0  0  0  0  2  0  0  0  0  0  0
  -28.5080  -25.4400   20.5080 C   0  0  0  0  0  2  0  0  0  0  0  0
  -28.4140  -26.7770   20.0030 O   0  0  0  0  0  0  0  0  0  0  0  0
  -24.5770  -31.8490   23.1940 C   0  0  0  0  0  0  0  0  0  0  0  0
  -27.2030  -27.4220   20.0960 C   0  0  0  0  0  0  0  0  0  0  0  0
  -23.3540  -30.4410   21.5690 C   0  0  0  0  0  3  0  0  0  0  0  0
  -24.7900  -28.8950   20.1400 C   0  0  0  0  0  0  0  0  0  0  0  0
  -25.8710  -30.8090   21.3350 C   0  0  0  0  0  2  0  0  0  0  0  0
  -25.9520  -29.4320   20.7100 C   0  0  0  0  0  0  0  0  0  0  0  0
  -27.1570  -28.7030   20.6840 C   0  0  0  0  0  3  0  0  0  0  0  0
  -26.0250  -26.8830   19.5310 C   0  0  0  0  0  3  0  0  0  0  0  0
  -24.8200  -27.6150   19.5550 C   0  0  0  0  0  3  0  0  0  0  0  0
  -23.5450  -29.7500   20.1910 C   0  0  0  0  0  2  0  0  0  0  0  0
  -24.6200  -31.0490   22.0920 N   0  0  0  0  0  0  0  0  0  0  0  0
  -23.5030  -32.1220   23.7450 O   0  0  0  0  0  0  0  0  0  0  0  0
  -22.7170  -29.4230   22.5410 C   0  0  0  0  0  0  0  0  0  0  0  0
  -21.3910  -29.2490   22.4330 N   0  0  0  0  0  0  0  0  0  0  0  0
  -23.4110  -28.7940   23.3450 O   0  0  0  0  0  0  0  0  0  0  0  0
  -20.8970  -29.8110   21.7520 H   0  0  0  0  0  0  0  0  0  0  0  0
  -18.0150  -28.0770   22.9660 C   0  0  0  0  0  0  0  0  0  0  0  0
  -20.5760  -28.3170   23.2130 C   0  0  0  0  0  3  0  0  0  0  0  0
  -20.6650  -26.8870   22.6340 C   0  0  0  0  0  2  0  0  0  0  0  0
  -19.5490  -26.5700   21.6340 C   0  0  0  0  0  2  0  0  0  0  0  0
  -18.1750  -26.7260   22.2910 C   0  0  0  0  0  2  0  0  0  0  0  0
  -19.1440  -28.8320   23.3830 C   0  0  0  0  0  0  0  0  0  0  0  0
  -18.9390  -30.0980   23.9740 C   0  0  0  0  0  3  0  0  0  0  0  0
  -17.6400  -30.6080   24.1550 C   0  0  0  0  0  3  0  0  0  0  0  0
  -16.5270  -29.8490   23.7550 C   0  0  0  0  0  3  0  0  0  0  0  0
  -16.7150  -28.5880   23.1640 C   0  0  0  0  0  3  0  0  0  0  0  0
  -25.8720  -32.4780   23.8010 C   0  0  0  0  0  3  0  0  0  0  0  0
  -26.4220  -31.6870   25.0500 C   0  0  1  0  0  0  0  0  0  0  0  0
  -25.3560  -31.4260   26.1380 C   0  0  0  0  0  1  0  0  0  0  0  0
  -27.0010  -30.3230   24.6130 C   0  0  0  0  0  1  0  0  0  0  0  0
  -27.5850  -32.4770   25.6960 C   0  0  0  0  0  1  0  0  0  0  0  0
  -25.5650  -33.8680   24.1580 N   0  0  0  0  0  0  0  0  0  0  0  0
  -25.8810  -34.9330   23.4090 C   0  0  0  0  0  0  0  0  0  0  0  0
  -26.5360  -34.8480   22.3660 O   0  0  0  0  0  0  0  0  0  0  0  0
  -24.9850  -34.0080   24.9730 H   0  0  0  0  0  0  0  0  0  0  0  0
  -24.1350  -36.7160   23.1070 C   0  0  0  0  0  1  0  0  0  0  0  0
  -25.3930  -36.3110   23.8940 C   0  0  0  0  0  3  0  0  0  0  0  0
  -27.5370  -37.1910   24.7000 C   0  0  0  0  0  1  0  0  0  0  0  0
  -26.4180  -37.3730   23.7800 N   0  0  0  0  0  0  0  0  0  0  0  0
  -26.0090  -38.2870   23.9530 H   0  0  0  0  0  0  0  0  0  0  0  0
  -35.0790  -22.0990   19.5160 C   0  0  0  0  0  1  0  0  0  0  0  0
  -33.5970  -22.4880   19.3580 C   0  0  0  0  0  2  0  0  0  0  0  0
  -32.6510  -20.7060   20.9600 C   0  0  0  0  0  2  0  0  0  0  0  0
  -32.4190  -18.8870   19.2290 C   0  0  0  0  0  0  0  0  0  0  0  0
  -31.9230  -19.8860   19.9820 N   0  0  0  0  0  0  0  0  0  0  0  0
  -33.6080  -18.5620   19.2450 O   0  0  0  0  0  0  0  0  0  0  0  0
  -30.9230  -20.0140   19.9340 H   0  0  0  0  0  0  0  0  0  0  0  0
  -31.9350  -17.3060   17.1840 C   0  0  0  0  0  2  0  0  0  0  0  0
  -30.9350  -16.2500   17.6550 C   0  0  0  0  0  2  0  0  0  0  0  0
  -31.4020  -18.1290   18.3620 C   0  0  0  0  0  3  0  0  0  0  0  0
  -31.0690  -16.8440   18.9820 N   0  0  1  0  0  4  0  0  0  0  0  0
  -31.9200  -16.4810   19.3950 H   0  0  0  0  0  0  0  0  0  0  0  0
  -29.8060  -15.6180   20.7800 C   0  0  0  0  0  3  0  0  0  0  0  0
  -29.9300  -16.6900   19.9610 C   0  0  0  0  0  0  0  0  0  0  0  0
  -28.9360  -17.8430   19.9120 C   0  0  0  0  0  1  0  0  0  0  0  0
  -30.7200  -14.4810   20.7080 C   0  0  0  0  0  0  0  0  0  0  0  0
  -30.5260  -12.2620   19.6960 C   0  0  0  0  0  2  0  0  0  0  0  0
  -29.6530  -12.4350   18.4300 C   0  0  0  0  0  2  0  0  0  0  0  0
  -28.1500  -12.3210   18.7670 C   0  0  0  0  0  2  0  0  0  0  0  0
  -27.7400  -13.2060   19.9740 C   0  0  0  0  0  3  0  0  0  0  0  0
  -28.7280  -13.0010   21.1490 C   0  0  0  0  0  2  0  0  0  0  0  0
  -30.0900  -13.2770   20.6650 N   0  0  0  0  0  0  0  0  0  0  0  0
  -31.9120  -14.6250   20.4210 O   0  0  0  0  0  0  0  0  0  0  0  0
  -25.3140  -13.8510   20.5260 C   0  0  0  0  0  0  0  0  0  0  0  0
  -24.2210  -13.0930   20.8590 C   0  0  0  0  0  0  0  0  0  0  0  0
  -24.6740  -11.7390   20.8920 C   0  0  0  0  0  0  0  0  0  0  0  0
  -26.3620  -12.9560   20.3820 N   0  0  0  0  0  0  0  0  0  0  0  0
  -25.9780  -11.6840   20.6570 N   0  0  0  0  0  0  0  0  0  0  0  0
  -23.9320  -10.4860   21.0730 C   0  0  0  0  0  0  0  0  0  0  0  0
  -24.3330   -9.5290   22.0290 C   0  0  0  0  0  3  0  0  0  0  0  0
  -23.5960   -8.3360   22.1980 C   0  0  0  0  0  3  0  0  0  0  0  0
  -22.4450   -8.0980   21.4110 C   0  0  0  0  0  0  0  0  0  0  0  0
  -22.0650   -9.0460   20.4440 C   0  0  0  0  0  3  0  0  0  0  0  0
  -22.8020  -10.2290   20.2740 C   0  0  0  0  0  3  0  0  0  0  0  0
  -21.6790   -6.9600   21.4900 O   0  0  0  0  0  0  0  0  0  0  0  0
  -21.6130   -6.2180   22.6420 C   0  0  0  0  0  0  0  0  0  0  0  0
  -21.2100   -6.7800   23.8730 C   0  0  0  0  0  3  0  0  0  0  0  0
  -21.0880   -5.9620   25.0140 C   0  0  0  0  0  3  0  0  0  0  0  0
  -21.3600   -4.5820   24.9250 C   0  0  0  0  0  0  0  0  0  0  0  0
  -21.7610   -4.0220   23.7000 C   0  0  0  0  0  3  0  0  0  0  0  0
  -21.8830   -4.8370   22.5610 C   0  0  0  0  0  0  0  0  0  0  0  0
  -22.2460   -4.2870   21.3770 F   0  0  0  0  0  0  0  0  0  0  0  0
  -21.2380   -3.7950   26.0190 F   0  0  0  0  0  0  0  0  0  0  0  0
  -22.8140  -13.5820   21.0400 C   0  0  0  0  0  0  0  0  0  0  0  0
  -22.0410  -12.9110   21.8900 N   0  0  0  0  0  0  0  0  0  0  0  0
  -22.4060  -14.5900   20.4650 O   0  0  0  0  0  0  0  0  0  0  0  0
  -22.3820  -12.0900   22.3690 H   0  0  0  0  0  0  0  0  0  0  0  0
  -21.0920  -13.2160   22.0570 H   0  0  0  0  0  0  0  0  0  0  0  0
  -25.5060  -15.2130   20.3200 N   0  0  0  0  0  0  0  0  0  0  0  0
  -24.7450  -15.8820   20.3550 H   0  0  0  0  0  0  0  0  0  0  0  0
  -26.3800  -15.6280   20.0230 H   0  0  0  0  0  0  0  0  0  0  0  0
  1 50  1  0
  1 51  1  0
  2  1  1  0
  2  5  1  0
  2  4  1  0
  3  2  1  0
  6  7  1  0
  6  5  1  0
  8 10  1  0
  8  7  1  0
  9 20  2  0
 10 15  1  0
 11 19  1  0
 11 21  1  0
 12 18  1  0
 12 14  1  0
 13 19  1  0
 14 13  1  0
 15 14  2  0
 16 17  1  0
 16 10  2  0
 17 12  2  0
 18 11  1  0
 19  9  1  0
 21 23  2  0
 22 21  1  0
 24 22  1  0
 25 34  2  0
 25 30  1  0
 26 22  1  0
 26 30  1  0
 27 26  1  0
 28 29  1  0
 28 27  1  0
 29 25  1  0
 30 31  2  0
 31 32  1  0
 33 32  2  0
 34 33  1  0
 35  9  1  0
 35 40  1  0
 35 36  1  0
 36 39  1  1
 36 37  1  0
 38 36  1  0
 40 43  1  0
 41 45  1  0
 41 40  1  0
 42 41  2  0
 45 44  1  0
 47 45  1  0
 47 48  1  0
 47 46  1  0
 50 49  1  0
 52 54  2  0
 52 53  1  0
 53 51  1  0
 55 53  1  0
 56 57  1  0
 56 58  1  0
 57 59  1  0
 58 59  1  0
 58 52  1  0
 59 60  1  1
 59 62  1  0
 62 61  2  0
 63 62  1  0
 64 61  1  0
 65 70  1  0
 66 67  1  0
 66 65  1  0
 68 67  1  0
 68 75  1  0
 68 69  1  0
 70 64  1  0
 70 69  1  0
 71 64  2  0
 72 73  2  0
 73 74  1  0
 73 92  1  0
 74 77  1  0
 75 72  1  0
 75 76  1  0
 76 74  2  0
 77 78  1  0
 78 79  2  0
 80 83  1  0
 80 79  1  0
 81 80  2  0
 82 81  1  0
 82 77  2  0
 83 84  1  0
 84 85  1  0
 85 86  2  0
 87 86  1  0
 87 91  1  0
 88 87  2  0
 89 84  2  0
 89 88  1  0
 90 89  1  0
 92 93  1  0
 93 96  1  0
 93 95  1  0
 94 92  2  0
 97 98  1  0
 97 72  1  0
 99 97  1  0
M  ISO  4   7 101   8 101  61 100  64 100
M  END
>  <TORSDO>  (25) 
F 25

>  <SCORE>  (25) 
-11.713

>  <name>  (25) 
24

>  <ligand_id>  (25) 
24

>  <original_smiles>  (25) 
[H]C(C(=O)N1C([H])([H])C([H])([H])C([H])([H])C([H])(n2nc(-c3c([H])c([H])c(Oc4c([H])c([H])c(F)c([H])c4F)c([H])c3[H])c(C(=O)N([H])[H])c2N([H])[H])C1([H])[H])=C(C([H])([H])[H])[N+]1([H])C([H])([H])C([H])([H])C1([H])C(=O)N([H])C([H])([H])C([H])(C([H])([H])C([H])([H])[H])[N+]([H])([H])C([H])([H])C([H])([H])C([H])([H])Oc1c([H])c([H])c2c(c1[H])C([H])([H])N(C(=O)C([H])(N([H])C(=O)C([H])(N([H])C([H])([H])[H])C([H])([H])[H])C(C([H])([H])[H])(C([H])([H])[H])C([H])([H])[H])C([H])(C(=O)N([H])C1([H])c3c([H])c([H])c([H])c([H])c3C([H])([H])C([H])([H])C1([H])[H])C2([H])[H]

>  <smiles>  (25) 
[H]C(C(=O)N1C([H])([H])C([H])([H])C([H])([H])C([H])(n2nc(-c3c([H])c([H])c(Oc4c([H])c([H])c(F)c([H])c4F)c([H])c3[H])c(C(=O)N([H])[H])c2N([H])[H])C1([H])[H])=C(C([H])([H])[H])[N+]1([H])C([H])([H])C([H])([H])C1([H])C(=O)N([H])C([H])([H])C([H])(C([H])([H])C([H])([H])[H])[N+]([H])([H])C([H])([H])C([H])([H])C([H])([H])Oc1c([H])c([H])c2c(c1[H])C([H])([H])N(C(=O)C([H])(N([H])C(=O)C([H])(N([H])C([H])([H])[H])C([H])([H])[H])C(C([H])([H])[H])(C([H])([H])[H])C([H])([H])[H])C([H])(C(=O)N([H])C1([H])c3c([H])c([H])c([H])c([H])c3C([H])([H])C([H])([H])C1([H])[H])C2([H])[H]

$$$$
25:0:0
     RDKit          3D

 90 99  0  0  1  0  0  0  0  0999 V2000
  -28.7520  -16.9820   18.8600 C   0  0  0  0  0  2  0  0  0  0  0  0
  -29.5820  -17.2470   20.1600 C   0  0  0  0  0  3  0  0  0  0  0  0
  -29.0750  -17.9070   17.6590 C   0  0  0  0  0  3  0  0  0  0  0  0
  -29.8370  -19.5450   18.5860 C   0  0  0  0  0  3  0  0  0  0  0  0
  -29.7460  -19.1610   20.1020 C   0  0  0  0  0  3  0  0  0  0  0  0
  -28.5270  -19.3370   17.7740 C   0  0  0  0  0  3  0  0  0  0  0  0
  -30.4800  -18.5930   17.5190 C   0  0  1  0  0  0  0  0  0  0  0  0
  -27.1180  -19.6170   18.2930 C   0  0  0  0  0  1  0  0  0  0  0  0
  -31.7600  -17.8100   17.8800 C   0  0  0  0  0  1  0  0  0  0  0  0
  -30.8360  -19.1670   16.1100 C   0  0  0  0  0  1  0  0  0  0  0  0
  -30.4260  -15.5980   20.2880 C   0  0  0  0  0  0  0  0  0  0  0  0
  -30.4850  -13.1060   19.4180 C   0  0  0  0  0  2  0  0  0  0  0  0
  -29.5650  -12.8330   18.1950 C   0  0  0  0  0  2  0  0  0  0  0  0
  -28.1270  -12.5170   18.6380 C   0  0  0  0  0  2  0  0  0  0  0  0
  -27.6540  -13.4720   19.7590 C   0  0  0  0  0  3  0  0  0  0  0  0
  -28.7020  -13.6870   20.8690 C   0  0  0  0  0  2  0  0  0  0  0  0
  -29.9090  -14.2510   20.2370 N   0  0  0  0  0  0  0  0  0  0  0  0
  -31.6690  -15.5140   20.1910 O   0  0  0  0  0  0  0  0  0  0  0  0
  -25.2940  -13.9960   20.5430 C   0  0  0  0  0  0  0  0  0  0  0  0
  -24.2410  -13.2080   20.9070 C   0  0  0  0  0  0  0  0  0  0  0  0
  -24.7180  -11.8610   20.8610 C   0  0  0  0  0  0  0  0  0  0  0  0
  -26.3400  -13.1310   20.2820 N   0  0  0  0  0  0  0  0  0  0  0  0
  -26.0090  -11.8390   20.5430 N   0  0  0  0  0  0  0  0  0  0  0  0
  -24.0000  -10.5930   21.0420 C   0  0  0  0  0  0  0  0  0  0  0  0
  -24.4290   -9.6260   21.9770 C   0  0  0  0  0  3  0  0  0  0  0  0
  -23.7080   -8.4240   22.1470 C   0  0  0  0  0  3  0  0  0  0  0  0
  -22.5440   -8.1790   21.3810 C   0  0  0  0  0  0  0  0  0  0  0  0
  -22.1340   -9.1350   20.4340 C   0  0  0  0  0  3  0  0  0  0  0  0
  -22.8540  -10.3300   20.2630 C   0  0  0  0  0  3  0  0  0  0  0  0
  -21.7960   -7.0280   21.4580 O   0  0  0  0  0  0  0  0  0  0  0  0
  -21.7280   -6.2910   22.6130 C   0  0  0  0  0  0  0  0  0  0  0  0
  -21.2430   -6.8400   23.8200 C   0  0  0  0  0  3  0  0  0  0  0  0
  -21.1230   -6.0270   24.9650 C   0  0  0  0  0  3  0  0  0  0  0  0
  -21.4790   -4.6660   24.9060 C   0  0  0  0  0  0  0  0  0  0  0  0
  -21.9570   -4.1180   23.7030 C   0  0  0  0  0  3  0  0  0  0  0  0
  -22.0780   -4.9270   22.5600 C   0  0  0  0  0  0  0  0  0  0  0  0
  -22.5180   -4.3870   21.3990 F   0  0  0  0  0  0  0  0  0  0  0  0
  -21.3570   -3.8840   26.0040 F   0  0  0  0  0  0  0  0  0  0  0  0
  -22.8410  -13.6730   21.1820 C   0  0  0  0  0  0  0  0  0  0  0  0
  -22.1170  -12.9660   22.0410 N   0  0  0  0  0  0  0  0  0  0  0  0
  -22.4000  -14.7010   20.6710 O   0  0  0  0  0  0  0  0  0  0  0  0
  -22.4860  -12.1350   22.4780 H   0  0  0  0  0  0  0  0  0  0  0  0
  -21.1800  -13.2640   22.2680 H   0  0  0  0  0  0  0  0  0  0  0  0
  -25.4500  -15.3720   20.3820 N   0  0  0  0  0  0  0  0  0  0  0  0
  -24.6820  -16.0220   20.5200 H   0  0  0  0  0  0  0  0  0  0  0  0
  -26.2970  -15.8230   20.0690 H   0  0  0  0  0  0  0  0  0  0  0  0
  -28.8880  -20.7130   20.7100 C   0  0  0  0  0  2  0  0  0  0  0  0
  -29.0130  -22.5460   20.3400 C   0  0  0  0  0  3  0  0  0  0  0  0
  -28.0570  -24.1300   20.6230 C   0  0  0  0  0  3  0  0  0  0  0  0
  -28.2730  -25.8110   20.4550 O   0  0  0  0  0  0  0  0  0  0  0  0
  -24.6490  -31.9350   23.2670 C   0  0  0  0  0  0  0  0  0  0  0  0
  -27.2630  -26.9440   20.3960 C   0  0  0  0  0  0  0  0  0  0  0  0
  -23.4860  -30.4940   21.6490 C   0  0  0  0  0  3  0  0  0  0  0  0
  -24.9620  -28.8620   20.2750 C   0  0  0  0  0  0  0  0  0  0  0  0
  -26.0560  -30.7070   21.5270 C   0  0  0  0  0  2  0  0  0  0  0  0
  -26.1450  -29.2730   20.9020 C   0  0  0  0  0  0  0  0  0  0  0  0
  -27.2890  -28.3390   20.9290 C   0  0  0  0  0  3  0  0  0  0  0  0
  -26.0490  -26.7080   19.7100 C   0  0  0  0  0  3  0  0  0  0  0  0
  -24.9450  -27.6010   19.6560 C   0  0  0  0  0  3  0  0  0  0  0  0
  -23.7400  -29.7840   20.2900 C   0  0  0  0  0  2  0  0  0  0  0  0
  -24.7520  -31.0760   22.2000 N   0  0  0  0  0  0  0  0  0  0  0  0
  -23.5510  -32.2220   23.7720 O   0  0  0  0  0  0  0  0  0  0  0  0
  -22.7920  -29.5120   22.6280 C   0  0  0  0  0  0  0  0  0  0  0  0
  -21.4690  -29.3100   22.4800 N   0  0  0  0  0  0  0  0  0  0  0  0
  -23.4510  -28.9330   23.4960 O   0  0  0  0  0  0  0  0  0  0  0  0
  -20.9870  -29.8300   21.7600 H   0  0  0  0  0  0  0  0  0  0  0  0
  -18.1090  -28.0170   22.9530 C   0  0  0  0  0  0  0  0  0  0  0  0
  -20.6540  -28.3720   23.2610 C   0  0  0  0  0  3  0  0  0  0  0  0
  -20.8090  -26.9260   22.7360 C   0  0  0  0  0  2  0  0  0  0  0  0
  -19.7420  -26.5390   21.7070 C   0  0  0  0  0  2  0  0  0  0  0  0
  -18.3420  -26.6570   22.3150 C   0  0  0  0  0  2  0  0  0  0  0  0
  -19.1940  -28.8280   23.3820 C   0  0  0  0  0  0  0  0  0  0  0  0
  -18.9200  -30.0960   23.9390 C   0  0  0  0  0  3  0  0  0  0  0  0
  -17.5950  -30.5550   24.0690 C   0  0  0  0  0  3  0  0  0  0  0  0
  -16.5260  -29.7430   23.6540 C   0  0  0  0  0  3  0  0  0  0  0  0
  -16.7840  -28.4750   23.1020 C   0  0  0  0  0  3  0  0  0  0  0  0
  -25.9030  -32.6090   23.9000 C   0  0  0  0  0  3  0  0  0  0  0  0
  -26.3970  -31.8860   25.2150 C   0  0  1  0  0  0  0  0  0  0  0  0
  -25.2810  -31.6670   26.2650 C   0  0  0  0  0  1  0  0  0  0  0  0
  -27.0100  -30.5040   24.8930 C   0  0  0  0  0  1  0  0  0  0  0  0
  -27.5180  -32.7190   25.8800 C   0  0  0  0  0  1  0  0  0  0  0  0
  -25.5640  -34.0150   24.1960 N   0  0  0  0  0  0  0  0  0  0  0  0
  -25.9000  -35.0640   23.4340 C   0  0  0  0  0  0  0  0  0  0  0  0
  -26.5900  -34.9530   22.4180 O   0  0  0  0  0  0  0  0  0  0  0  0
  -24.9530  -34.1730   24.9840 H   0  0  0  0  0  0  0  0  0  0  0  0
  -24.1720  -36.8510   23.0240 C   0  0  0  0  0  1  0  0  0  0  0  0
  -25.3970  -36.4580   23.8660 C   0  0  0  0  0  3  0  0  0  0  0  0
  -27.5050  -37.3700   24.7390 C   0  0  0  0  0  1  0  0  0  0  0  0
  -26.4260  -37.5170   23.7670 N   0  0  0  0  0  0  0  0  0  0  0  0
  -26.0110  -38.4370   23.8910 H   0  0  0  0  0  0  0  0  0  0  0  0
  1  2  1  0
  2 11  1  0
  3  6  1  0
  3  1  1  0
  4  7  1  0
  4  5  1  0
  5  2  1  0
  5 47  1  0
  6  8  1  0
  6  4  1  0
  7  3  1  0
  7  9  1  1
 10  7  1  0
 12 17  1  0
 13 14  1  0
 13 12  1  0
 15 14  1  0
 15 22  1  0
 15 16  1  0
 17 11  1  0
 17 16  1  0
 18 11  2  0
 19 20  2  0
 20 39  1  0
 21 20  1  0
 21 24  1  0
 22 19  1  0
 22 23  1  0
 23 21  2  0
 24 25  1  0
 25 26  2  0
 27 30  1  0
 27 26  1  0
 28 27  2  0
 29 28  1  0
 29 24  2  0
 30 31  1  0
 31 32  1  0
 32 33  2  0
 34 33  1  0
 34 38  1  0
 35 34  2  0
 36 31  2  0
 36 35  1  0
 37 36  1  0
 39 40  1  0
 40 43  1  0
 40 42  1  0
 41 39  2  0
 44 45  1  0
 44 19  1  0
 46 44  1  0
 48 49  2  0
 48 47  1  0
 50 49  1  0
 51 62  2  0
 52 50  1  0
 52 57  1  0
 53 61  1  0
 53 63  1  0
 54 60  1  0
 54 56  1  0
 55 61  1  0
 56 57  2  0
 56 55  1  0
 58 52  2  0
 59 58  1  0
 59 54  2  0
 60 53  1  0
 61 51  1  0
 63 65  2  0
 64 63  1  0
 66 64  1  0
 67 76  2  0
 67 72  1  0
 68 64  1  0
 68 72  1  0
 69 68  1  0
 70 71  1  0
 70 69  1  0
 71 67  1  0
 72 73  2  0
 73 74  1  0
 75 74  2  0
 76 75  1  0
 77 51  1  0
 77 82  1  0
 77 78  1  0
 78 81  1  1
 78 79  1  0
 80 78  1  0
 82 85  1  0
 83 87  1  0
 83 82  1  0
 84 83  2  0
 87 86  1  0
 89 87  1  0
 89 90  1  0
 89 88  1  0
M  ISO  4   2 100  11 100  49 101  50 101
M  END
>  <TORSDO>  (26) 
F 19

>  <SCORE>  (26) 
-16.807

>  <name>  (26) 
25

>  <ligand_id>  (26) 
25

>  <original_smiles>  (26) 
[H]c1c([H])c([H])c2c(c1[H])C([H])([H])C([H])([H])C([H])([H])C2([H])N([H])C(=O)C1([H])N(C(=O)C([H])(N([H])C(=O)C([H])(N([H])C([H])([H])[H])C([H])([H])[H])C(C([H])([H])[H])(C([H])([H])[H])C([H])([H])[H])C([H])([H])c2c([H])c(OC([H])([H])C([H])([H])C([H])([H])C3([H])C([H])(C(=O)N4C([H])([H])C([H])([H])C([H])([H])C([H])(n5nc(-c6c([H])c([H])c(Oc7c([H])c([H])c(F)c([H])c7F)c([H])c6[H])c(C(=O)N([H])[H])c5N([H])[H])C4([H])[H])C([H])([H])C4([H])C([H])(C([H])([H])[H])C3([H])C4(C([H])([H])[H])C([H])([H])[H])c([H])c([H])c2C1([H])[H]

>  <smiles>  (26) 
[H]c1c([H])c([H])c2c(c1[H])C([H])([H])C([H])([H])C([H])([H])C2([H])N([H])C(=O)C1([H])N(C(=O)C([H])(N([H])C(=O)C([H])(N([H])C([H])([H])[H])C([H])([H])[H])C(C([H])([H])[H])(C([H])([H])[H])C([H])([H])[H])C([H])([H])c2c([H])c(OC([H])([H])C([H])([H])C([H])([H])C3([H])C([H])(C(=O)N4C([H])([H])C([H])([H])C([H])([H])C([H])(n5nc(-c6c([H])c([H])c(Oc7c([H])c([H])c(F)c([H])c7F)c([H])c6[H])c(C(=O)N([H])[H])c5N([H])[H])C4([H])[H])C([H])([H])C4([H])C([H])(C([H])([H])[H])C3([H])C4(C([H])([H])[H])C([H])([H])[H])c([H])c([H])c2C1([H])[H]

$$$$
26:0:0
     RDKit          3D

 90 98  0  0  1  0  0  0  0  0999 V2000
  -30.0300  -22.1780   21.0590 C   0  0  0  0  0  2  0  0  0  0  0  0
  -29.4890  -20.7920   20.9310 N   0  0  0  0  0  4  0  0  0  0  0  0
  -29.0790  -20.7100   20.0140 H   0  0  0  0  0  0  0  0  0  0  0  0
  -28.7500  -20.6600   21.6020 H   0  0  0  0  0  0  0  0  0  0  0  0
  -31.0330  -19.6220   22.5280 C   0  0  0  0  0  1  0  0  0  0  0  0
  -30.4810  -19.6870   21.0910 C   0  0  0  0  0  3  0  0  0  0  0  0
  -30.1290  -17.7080   19.3550 C   0  0  0  0  0  2  0  0  0  0  0  0
  -30.7750  -17.0770   20.5710 C   0  0  0  0  0  3  0  0  0  0  0  0
  -29.8900  -18.3190   20.7160 C   0  0  0  0  0  3  0  0  0  0  0  0
  -30.3440  -15.6780   21.0460 C   0  0  0  0  0  2  0  0  0  0  0  0
  -30.9850  -14.4960   20.2730 C   0  0  0  0  0  0  0  0  0  0  0  0
  -30.6440  -12.3450   19.0950 C   0  0  0  0  0  2  0  0  0  0  0  0
  -29.6580  -12.5570   17.9270 C   0  0  0  0  0  2  0  0  0  0  0  0
  -28.1990  -12.4270   18.4090 C   0  0  0  0  0  2  0  0  0  0  0  0
  -27.9130  -13.2640   19.6850 C   0  0  0  0  0  3  0  0  0  0  0  0
  -29.0040  -13.0240   20.7530 C   0  0  0  0  0  2  0  0  0  0  0  0
  -30.3100  -13.3210   20.1440 N   0  0  0  0  0  0  0  0  0  0  0  0
  -32.0740  -14.6820   19.7200 O   0  0  0  0  0  0  0  0  0  0  0  0
  -25.5560  -13.9000   20.5010 C   0  0  0  0  0  0  0  0  0  0  0  0
  -24.4870  -13.1380   20.8910 C   0  0  0  0  0  0  0  0  0  0  0  0
  -24.9200  -11.7780   20.8050 C   0  0  0  0  0  0  0  0  0  0  0  0
  -26.5740  -13.0050   20.2080 N   0  0  0  0  0  0  0  0  0  0  0  0
  -26.1950  -11.7230   20.4470 N   0  0  0  0  0  0  0  0  0  0  0  0
  -24.1760  -10.5250   20.9910 C   0  0  0  0  0  0  0  0  0  0  0  0
  -24.5870   -9.5560   21.9320 C   0  0  0  0  0  3  0  0  0  0  0  0
  -23.8470   -8.3670   22.1030 C   0  0  0  0  0  3  0  0  0  0  0  0
  -22.6800   -8.1390   21.3350 C   0  0  0  0  0  0  0  0  0  0  0  0
  -22.2890   -9.0970   20.3850 C   0  0  0  0  0  3  0  0  0  0  0  0
  -23.0290  -10.2780   20.2110 C   0  0  0  0  0  3  0  0  0  0  0  0
  -21.9130   -7.0030   21.4170 O   0  0  0  0  0  0  0  0  0  0  0  0
  -21.7970   -6.2950   22.5860 C   0  0  0  0  0  0  0  0  0  0  0  0
  -21.2760   -6.8760   23.7610 C   0  0  0  0  0  3  0  0  0  0  0  0
  -21.1100   -6.0930   24.9220 C   0  0  0  0  0  3  0  0  0  0  0  0
  -21.4550   -4.7290   24.9050 C   0  0  0  0  0  0  0  0  0  0  0  0
  -21.9690   -4.1460   23.7340 C   0  0  0  0  0  3  0  0  0  0  0  0
  -22.1360   -4.9260   22.5760 C   0  0  0  0  0  0  0  0  0  0  0  0
  -22.6120   -4.3550   21.4430 F   0  0  0  0  0  0  0  0  0  0  0  0
  -21.2880   -3.9730   26.0160 F   0  0  0  0  0  0  0  0  0  0  0  0
  -23.1110  -13.6330   21.2300 C   0  0  0  0  0  0  0  0  0  0  0  0
  -22.4020  -12.9260   22.1040 N   0  0  0  0  0  0  0  0  0  0  0  0
  -22.6740  -14.6830   20.7590 O   0  0  0  0  0  0  0  0  0  0  0  0
  -22.7670  -12.0750   22.5060 H   0  0  0  0  0  0  0  0  0  0  0  0
  -21.4800  -13.2380   22.3730 H   0  0  0  0  0  0  0  0  0  0  0  0
  -25.7420  -15.2700   20.3520 N   0  0  0  0  0  0  0  0  0  0  0  0
  -24.9950  -15.9390   20.5070 H   0  0  0  0  0  0  0  0  0  0  0  0
  -26.5930  -15.7000   20.0090 H   0  0  0  0  0  0  0  0  0  0  0  0
  -28.9580  -23.3010   20.9430 C   0  0  0  0  0  2  0  0  0  0  0  0
  -29.5200  -24.7150   21.2650 C   0  0  0  0  0  2  0  0  0  0  0  0
  -28.4770  -25.8570   21.3890 C   0  0  0  0  0  2  0  0  0  0  0  0
  -28.3350  -26.6360   20.1970 O   0  0  0  0  0  0  0  0  0  0  0  0
  -24.5480  -31.8680   23.2450 C   0  0  0  0  0  0  0  0  0  0  0  0
  -27.2000  -27.4120   20.1980 C   0  0  0  0  0  0  0  0  0  0  0  0
  -23.3480  -30.4630   21.6010 C   0  0  0  0  0  3  0  0  0  0  0  0
  -24.8090  -28.9160   20.1890 C   0  0  0  0  0  0  0  0  0  0  0  0
  -25.8740  -30.8170   21.4150 C   0  0  0  0  0  2  0  0  0  0  0  0
  -25.9630  -29.4420   20.7860 C   0  0  0  0  0  0  0  0  0  0  0  0
  -27.1640  -28.6950   20.7930 C   0  0  0  0  0  3  0  0  0  0  0  0
  -26.0360  -26.9010   19.5920 C   0  0  0  0  0  3  0  0  0  0  0  0
  -24.8390  -27.6440   19.5910 C   0  0  0  0  0  3  0  0  0  0  0  0
  -23.5640  -29.7750   20.2250 C   0  0  0  0  0  2  0  0  0  0  0  0
  -24.6080  -31.0640   22.1460 N   0  0  0  0  0  0  0  0  0  0  0  0
  -23.4640  -32.1440   23.7790 O   0  0  0  0  0  0  0  0  0  0  0  0
  -22.6890  -29.4470   22.5620 C   0  0  0  0  0  0  0  0  0  0  0  0
  -21.3640  -29.2720   22.4320 N   0  0  0  0  0  0  0  0  0  0  0  0
  -23.3690  -28.8170   23.3780 O   0  0  0  0  0  0  0  0  0  0  0  0
  -20.8790  -29.8310   21.7440 H   0  0  0  0  0  0  0  0  0  0  0  0
  -17.9790  -28.1110   22.9340 C   0  0  0  0  0  0  0  0  0  0  0  0
  -20.5410  -28.3410   23.2030 C   0  0  0  0  0  3  0  0  0  0  0  0
  -20.6280  -26.9110   22.6220 C   0  0  0  0  0  2  0  0  0  0  0  0
  -19.5210  -26.6030   21.6080 C   0  0  0  0  0  2  0  0  0  0  0  0
  -18.1420  -26.7610   22.2550 C   0  0  0  0  0  2  0  0  0  0  0  0
  -19.1060  -28.8590   23.3650 C   0  0  0  0  0  0  0  0  0  0  0  0
  -18.9020  -30.1240   23.9580 C   0  0  0  0  0  3  0  0  0  0  0  0
  -17.6040  -30.6390   24.1270 C   0  0  0  0  0  3  0  0  0  0  0  0
  -16.4910  -29.8870   23.7130 C   0  0  0  0  0  3  0  0  0  0  0  0
  -16.6790  -28.6250   23.1220 C   0  0  0  0  0  3  0  0  0  0  0  0
  -25.8320  -32.4980   23.8680 C   0  0  0  0  0  3  0  0  0  0  0  0
  -25.5310  -33.9000   24.1840 N   0  0  0  0  0  0  0  0  0  0  0  0
  -25.8810  -34.9430   23.4200 C   0  0  0  0  0  0  0  0  0  0  0  0
  -26.5650  -34.8260   22.3990 O   0  0  0  0  0  0  0  0  0  0  0  0
  -24.9270  -34.0660   24.9760 H   0  0  0  0  0  0  0  0  0  0  0  0
  -24.1830  -36.7510   23.0100 C   0  0  0  0  0  1  0  0  0  0  0  0
  -25.3970  -36.3380   23.8580 C   0  0  0  0  0  3  0  0  0  0  0  0
  -27.5140  -37.2070   24.7480 C   0  0  0  0  0  1  0  0  0  0  0  0
  -26.4430  -37.3800   23.7690 N   0  0  0  0  0  0  0  0  0  0  0  0
  -26.0420  -38.3040   23.8970 H   0  0  0  0  0  0  0  0  0  0  0  0
  -26.3390  -31.7330   25.1520 C   0  0  1  0  0  0  0  0  0  0  0  0
  -25.2360  -31.4990   26.2110 C   0  0  0  0  0  1  0  0  0  0  0  0
  -26.9270  -30.3550   24.7700 C   0  0  0  0  0  1  0  0  0  0  0  0
  -27.4820  -32.5320   25.8220 C   0  0  0  0  0  1  0  0  0  0  0  0
  2  1  1  0
  2  6  1  0
  2  4  1  0
  3  2  1  0
  6  5  1  0
  7  8  1  0
  7  9  1  0
  8  9  1  0
  8 10  1  0
  9  6  1  0
 11 10  1  0
 12 17  1  0
 13 14  1  0
 13 12  1  0
 15 14  1  0
 15 22  1  0
 15 16  1  0
 17 11  1  0
 17 16  1  0
 18 11  2  0
 19 20  2  0
 20 39  1  0
 21 20  1  0
 21 24  1  0
 22 23  1  0
 22 19  1  0
 23 21  2  0
 24 25  1  0
 25 26  2  0
 27 30  1  0
 27 26  1  0
 28 27  2  0
 29 28  1  0
 29 24  2  0
 30 31  1  0
 31 32  1  0
 32 33  2  0
 34 33  1  0
 34 38  1  0
 35 34  2  0
 36 31  2  0
 36 35  1  0
 37 36  1  0
 39 40  1  0
 40 43  1  0
 40 42  1  0
 41 39  2  0
 44 19  1  0
 44 45  1  0
 46 44  1  0
 47  1  1  0
 47 48  1  0
 48 49  1  0
 50 52  1  0
 50 49  1  0
 51 62  2  0
 52 57  1  0
 53 61  1  0
 53 63  1  0
 54 60  1  0
 54 56  1  0
 55 61  1  0
 56 57  2  0
 56 55  1  0
 58 52  2  0
 59 58  1  0
 59 54  2  0
 60 53  1  0
 61 51  1  0
 63 65  2  0
 64 63  1  0
 66 64  1  0
 67 76  2  0
 67 72  1  0
 68 64  1  0
 68 72  1  0
 69 68  1  0
 70 71  1  0
 70 69  1  0
 71 67  1  0
 72 73  2  0
 73 74  1  0
 75 74  2  0
 76 75  1  0
 77 51  1  0
 77 78  1  0
 77 87  1  0
 78 81  1  0
 79 83  1  0
 79 78  1  0
 80 79  2  0
 83 82  1  0
 85 83  1  0
 85 86  1  0
 85 84  1  0
 87 90  1  1
 87 88  1  0
 89 87  1  0
M  ISO  4  10 100  11 100  49 101  50 101
M  END
>  <TORSDO>  (27) 
F 23

>  <SCORE>  (27) 
-12.669

>  <name>  (27) 
26

>  <ligand_id>  (27) 
26

>  <original_smiles>  (27) 
[H]c1c([H])c([H])c2c(c1[H])C([H])([H])C([H])([H])C([H])([H])C2([H])N([H])C(=O)C1([H])N(C(=O)C([H])(N([H])C(=O)C([H])(N([H])C([H])([H])[H])C([H])([H])[H])C(C([H])([H])[H])(C([H])([H])[H])C([H])([H])[H])C([H])([H])c2c([H])c(OC([H])([H])C([H])([H])C([H])([H])C([H])([H])[N+]([H])([H])C([H])(C([H])([H])[H])C3([H])C([H])([H])C3([H])C([H])([H])C(=O)N3C([H])([H])C([H])([H])C([H])([H])C([H])(n4nc(-c5c([H])c([H])c(Oc6c([H])c([H])c(F)c([H])c6F)c([H])c5[H])c(C(=O)N([H])[H])c4N([H])[H])C3([H])[H])c([H])c([H])c2C1([H])[H]

>  <smiles>  (27) 
[H]c1c([H])c([H])c2c(c1[H])C([H])([H])C([H])([H])C([H])([H])C2([H])N([H])C(=O)C1([H])N(C(=O)C([H])(N([H])C(=O)C([H])(N([H])C([H])([H])[H])C([H])([H])[H])C(C([H])([H])[H])(C([H])([H])[H])C([H])([H])[H])C([H])([H])c2c([H])c(OC([H])([H])C([H])([H])C([H])([H])C([H])([H])[N+]([H])([H])C([H])(C([H])([H])[H])C3([H])C([H])([H])C3([H])C([H])([H])C(=O)N3C([H])([H])C([H])([H])C([H])([H])C([H])(n4nc(-c5c([H])c([H])c(Oc6c([H])c([H])c(F)c([H])c6F)c([H])c5[H])c(C(=O)N([H])[H])c4N([H])[H])C3([H])[H])c([H])c([H])c2C1([H])[H]

$$$$
27:0:0
     RDKit          3D

 93101  0  0  1  0  0  0  0  0999 V2000
  -30.5400  -23.0860   22.2540 C   0  0  0  0  0  3  0  0  0  0  0  0
  -30.4970  -21.7680   21.7440 C   0  0  0  0  0  3  0  0  0  0  0  0
  -29.7880  -24.1290   21.6710 C   0  0  0  0  0  3  0  0  0  0  0  0
  -28.9170  -22.5230   20.0640 C   0  0  0  0  0  3  0  0  0  0  0  0
  -29.6870  -21.4420   20.6340 C   0  0  0  0  0  0  0  0  0  0  0  0
  -28.9600  -23.8810   20.5590 C   0  0  0  0  0  0  0  0  0  0  0  0
  -29.7920  -19.9990   19.9920 C   0  0  0  0  0  2  0  0  0  0  0  0
  -29.6460  -18.7420   20.8480 N   0  0  0  0  0  4  0  0  0  0  0  0
  -28.6720  -18.6570   21.0840 H   0  0  0  0  0  0  0  0  0  0  0  0
  -30.1410  -18.9100   21.7070 H   0  0  0  0  0  0  0  0  0  0  0  0
  -30.1560  -17.4100   20.2760 C   0  0  0  0  0  3  0  0  0  0  0  0
  -30.5200  -17.1110   17.8070 C   0  0  0  0  0  2  0  0  0  0  0  0
  -29.6670  -17.2100   18.8390 C   0  0  0  0  0  0  0  0  0  0  0  0
  -28.1640  -17.1330   18.6240 C   0  0  0  0  0  1  0  0  0  0  0  0
  -29.9310  -16.0630   21.1330 C   0  0  0  0  0  2  0  0  0  0  0  0
  -30.6630  -14.7290   20.6490 C   0  0  0  0  0  0  0  0  0  0  0  0
  -30.4790  -12.4810   19.5880 C   0  0  0  0  0  2  0  0  0  0  0  0
  -29.5880  -12.6020   18.3320 C   0  0  0  0  0  2  0  0  0  0  0  0
  -28.1010  -12.4380   18.7010 C   0  0  0  0  0  2  0  0  0  0  0  0
  -27.6930  -13.3050   19.9190 C   0  0  0  0  0  3  0  0  0  0  0  0
  -28.7050  -13.1750   21.0780 C   0  0  0  0  0  2  0  0  0  0  0  0
  -30.0350  -13.5110   20.5510 N   0  0  0  0  0  0  0  0  0  0  0  0
  -31.8320  -14.8390   20.2660 O   0  0  0  0  0  0  0  0  0  0  0  0
  -25.2690  -13.9060   20.5280 C   0  0  0  0  0  0  0  0  0  0  0  0
  -24.1910  -13.1360   20.8660 C   0  0  0  0  0  0  0  0  0  0  0  0
  -24.6580  -11.7870   20.8780 C   0  0  0  0  0  0  0  0  0  0  0  0
  -26.3260  -13.0280   20.3520 N   0  0  0  0  0  0  0  0  0  0  0  0
  -25.9610  -11.7480   20.6230 N   0  0  0  0  0  0  0  0  0  0  0  0
  -23.9280  -10.5260   21.0590 C   0  0  0  0  0  0  0  0  0  0  0  0
  -24.3400   -9.5620   22.0070 C   0  0  0  0  0  3  0  0  0  0  0  0
  -23.6090   -8.3680   22.1780 C   0  0  0  0  0  3  0  0  0  0  0  0
  -22.4520   -8.1260   21.3990 C   0  0  0  0  0  0  0  0  0  0  0  0
  -22.0590   -9.0770   20.4400 C   0  0  0  0  0  3  0  0  0  0  0  0
  -22.7910  -10.2650   20.2690 C   0  0  0  0  0  3  0  0  0  0  0  0
  -21.6970   -6.9810   21.4780 O   0  0  0  0  0  0  0  0  0  0  0  0
  -21.6420   -6.2320   22.6250 C   0  0  0  0  0  0  0  0  0  0  0  0
  -21.2240   -6.7840   23.8550 C   0  0  0  0  0  3  0  0  0  0  0  0
  -21.1140   -5.9630   24.9950 C   0  0  0  0  0  3  0  0  0  0  0  0
  -21.4120   -4.5900   24.9050 C   0  0  0  0  0  0  0  0  0  0  0  0
  -21.8230   -4.0360   23.6790 C   0  0  0  0  0  3  0  0  0  0  0  0
  -21.9350   -4.8560   22.5420 C   0  0  0  0  0  0  0  0  0  0  0  0
  -22.3110   -4.3130   21.3590 F   0  0  0  0  0  0  0  0  0  0  0  0
  -21.2990   -3.7990   25.9970 F   0  0  0  0  0  0  0  0  0  0  0  0
  -22.7820  -13.6140   21.0710 C   0  0  0  0  0  0  0  0  0  0  0  0
  -22.0230  -12.9320   21.9200 N   0  0  0  0  0  0  0  0  0  0  0  0
  -22.3630  -14.6270   20.5120 O   0  0  0  0  0  0  0  0  0  0  0  0
  -22.3750  -12.1110   22.3900 H   0  0  0  0  0  0  0  0  0  0  0  0
  -21.0750  -13.2320   22.1020 H   0  0  0  0  0  0  0  0  0  0  0  0
  -25.4300  -15.2750   20.3370 N   0  0  0  0  0  0  0  0  0  0  0  0
  -24.6480  -15.9170   20.4010 H   0  0  0  0  0  0  0  0  0  0  0  0
  -26.2800  -15.7170   20.0180 H   0  0  0  0  0  0  0  0  0  0  0  0
  -28.0530  -25.0240   19.9740 C   0  0  0  0  0  2  0  0  0  0  0  0
  -28.3070  -26.4640   20.2670 O   0  0  0  0  0  0  0  0  0  0  0  0
  -24.6570  -31.9370   23.2660 C   0  0  0  0  0  0  0  0  0  0  0  0
  -27.2140  -27.3540   20.1850 C   0  0  0  0  0  0  0  0  0  0  0  0
  -23.4340  -30.5510   21.6320 C   0  0  0  0  0  3  0  0  0  0  0  0
  -24.8640  -28.9980   20.1900 C   0  0  0  0  0  0  0  0  0  0  0  0
  -25.9760  -30.8470   21.4370 C   0  0  0  0  0  2  0  0  0  0  0  0
  -26.0410  -29.4690   20.7860 C   0  0  0  0  0  0  0  0  0  0  0  0
  -27.2170  -28.6560   20.7800 C   0  0  0  0  0  3  0  0  0  0  0  0
  -26.0170  -26.9590   19.5390 C   0  0  0  0  0  3  0  0  0  0  0  0
  -24.8560  -27.7490   19.5560 C   0  0  0  0  0  3  0  0  0  0  0  0
  -23.6350  -29.8810   20.2490 C   0  0  0  0  0  2  0  0  0  0  0  0
  -24.7090  -31.1280   22.1670 N   0  0  0  0  0  0  0  0  0  0  0  0
  -23.5790  -32.2220   23.8070 O   0  0  0  0  0  0  0  0  0  0  0  0
  -22.7690  -29.5370   22.5940 C   0  0  0  0  0  0  0  0  0  0  0  0
  -21.4410  -29.3660   22.4710 N   0  0  0  0  0  0  0  0  0  0  0  0
  -23.4460  -28.9070   23.4100 O   0  0  0  0  0  0  0  0  0  0  0  0
  -20.9530  -29.9260   21.7850 H   0  0  0  0  0  0  0  0  0  0  0  0
  -18.0610  -28.1790   22.9730 C   0  0  0  0  0  0  0  0  0  0  0  0
  -20.6200  -28.4350   23.2460 C   0  0  0  0  0  3  0  0  0  0  0  0
  -20.7190  -27.0000   22.6780 C   0  0  0  0  0  2  0  0  0  0  0  0
  -19.6190  -26.6730   21.6630 C   0  0  0  0  0  2  0  0  0  0  0  0
  -18.2360  -26.8260   22.3040 C   0  0  0  0  0  2  0  0  0  0  0  0
  -19.1810  -28.9420   23.4000 C   0  0  0  0  0  0  0  0  0  0  0  0
  -18.9630  -30.2080   23.9850 C   0  0  0  0  0  3  0  0  0  0  0  0
  -17.6590  -30.7130   24.1460 C   0  0  0  0  0  3  0  0  0  0  0  0
  -16.5540  -29.9480   23.7340 C   0  0  0  0  0  3  0  0  0  0  0  0
  -16.7550  -28.6830   23.1540 C   0  0  0  0  0  3  0  0  0  0  0  0
  -25.9490  -32.5590   23.8810 C   0  0  0  0  0  3  0  0  0  0  0  0
  -25.6490  -33.9550   24.2280 N   0  0  0  0  0  0  0  0  0  0  0  0
  -25.9790  -35.0140   23.4770 C   0  0  0  0  0  0  0  0  0  0  0  0
  -26.6410  -34.9180   22.4390 O   0  0  0  0  0  0  0  0  0  0  0  0
  -25.0620  -34.1040   25.0340 H   0  0  0  0  0  0  0  0  0  0  0  0
  -24.2590  -36.8200   23.1530 C   0  0  0  0  0  1  0  0  0  0  0  0
  -25.5030  -36.4000   23.9520 C   0  0  0  0  0  3  0  0  0  0  0  0
  -27.6470  -37.2630   24.7790 C   0  0  0  0  0  1  0  0  0  0  0  0
  -26.5400  -37.4490   23.8450 N   0  0  0  0  0  0  0  0  0  0  0  0
  -26.1400  -38.3690   24.0080 H   0  0  0  0  0  0  0  0  0  0  0  0
  -26.4740  -31.7740   25.1450 C   0  0  1  0  0  0  0  0  0  0  0  0
  -25.3900  -31.5330   26.2220 C   0  0  0  0  0  1  0  0  0  0  0  0
  -27.0440  -30.3960   24.7370 C   0  0  0  0  0  1  0  0  0  0  0  0
  -27.6360  -32.5550   25.8020 C   0  0  0  0  0  1  0  0  0  0  0  0
  2  1  1  0
  3  1  2  0
  4  6  2  0
  4  5  1  0
  5  2  2  0
  6  3  1  0
  7  5  1  0
  7  8  1  0
  8  9  1  0
  8 10  1  0
 11  8  1  0
 11 15  1  0
 12 13  2  0
 13 11  1  0
 14 13  1  0
 16 15  1  0
 17 22  1  0
 18 19  1  0
 18 17  1  0
 20 19  1  0
 20 27  1  0
 20 21  1  0
 22 16  1  0
 22 21  1  0
 23 16  2  0
 24 25  2  0
 25 26  1  0
 25 44  1  0
 26 29  1  0
 27 24  1  0
 27 28  1  0
 28 26  2  0
 29 30  1  0
 30 31  2  0
 32 35  1  0
 32 31  1  0
 33 32  2  0
 34 33  1  0
 34 29  2  0
 35 36  1  0
 36 37  1  0
 37 38  2  0
 39 38  1  0
 39 43  1  0
 40 39  2  0
 41 36  2  0
 41 40  1  0
 42 41  1  0
 44 45  1  0
 45 48  1  0
 45 47  1  0
 46 44  2  0
 49 50  1  0
 49 24  1  0
 51 49  1  0
 52 53  1  0
 52  6  1  0
 54 65  2  0
 55 53  1  0
 55 60  1  0
 56 64  1  0
 56 66  1  0
 57 63  1  0
 57 59  1  0
 58 64  1  0
 59 58  1  0
 60 59  2  0
 61 62  1  0
 61 55  2  0
 62 57  2  0
 63 56  1  0
 64 54  1  0
 66 68  2  0
 67 66  1  0
 69 67  1  0
 70 79  2  0
 70 75  1  0
 71 67  1  0
 71 75  1  0
 72 71  1  0
 73 74  1  0
 73 72  1  0
 74 70  1  0
 75 76  2  0
 76 77  1  0
 78 77  2  0
 79 78  1  0
 80 54  1  0
 80 81  1  0
 80 90  1  0
 81 84  1  0
 82 86  1  0
 82 81  1  0
 83 82  2  0
 86 85  1  0
 88 86  1  0
 88 89  1  0
 88 87  1  0
 90 93  1  1
 90 91  1  0
 92 90  1  0
M  ISO  4  15 100  16 100  52 101  53 101
M  END
>  <TORSDO>  (28) 
F 22

>  <SCORE>  (28) 
-13.107

>  <name>  (28) 
27

>  <ligand_id>  (28) 
27

>  <original_smiles>  (28) 
[H]C([H])=C(C([H])([H])[H])C([H])(C([H])([H])C(=O)N1C([H])([H])C([H])([H])C([H])([H])C([H])(n2nc(-c3c([H])c([H])c(Oc4c([H])c([H])c(F)c([H])c4F)c([H])c3[H])c(C(=O)N([H])[H])c2N([H])[H])C1([H])[H])[N+]([H])([H])C([H])([H])c1c([H])c([H])c([H])c(C([H])([H])Oc2c([H])c([H])c3c(c2[H])C([H])([H])N(C(=O)C([H])(N([H])C(=O)C([H])(N([H])C([H])([H])[H])C([H])([H])[H])C(C([H])([H])[H])(C([H])([H])[H])C([H])([H])[H])C([H])(C(=O)N([H])C2([H])c4c([H])c([H])c([H])c([H])c4C([H])([H])C([H])([H])C2([H])[H])C3([H])[H])c1[H]

>  <smiles>  (28) 
[H]C([H])=C(C([H])([H])[H])C([H])(C([H])([H])C(=O)N1C([H])([H])C([H])([H])C([H])([H])C([H])(n2nc(-c3c([H])c([H])c(Oc4c([H])c([H])c(F)c([H])c4F)c([H])c3[H])c(C(=O)N([H])[H])c2N([H])[H])C1([H])[H])[N+]([H])([H])C([H])([H])c1c([H])c([H])c([H])c(C([H])([H])Oc2c([H])c([H])c3c(c2[H])C([H])([H])N(C(=O)C([H])(N([H])C(=O)C([H])(N([H])C([H])([H])[H])C([H])([H])[H])C(C([H])([H])[H])(C([H])([H])[H])C([H])([H])[H])C([H])(C(=O)N([H])C2([H])c4c([H])c([H])c([H])c([H])c4C([H])([H])C([H])([H])C2([H])[H])C3([H])[H])c1[H]

$$$$
28:0:0
     RDKit          3D

 92100  0  0  1  0  0  0  0  0999 V2000
  -29.0370  -18.9510   21.2900 C   0  0  0  0  0  2  0  0  0  0  0  0
  -28.5640  -20.4450   21.2670 C   0  0  0  0  0  2  0  0  0  0  0  0
  -30.1410  -20.1050   19.5040 C   0  0  0  0  0  3  0  0  0  0  0  0
  -30.3570  -18.8880   20.5070 C   0  0  0  0  0  3  0  0  0  0  0  0
  -29.5350  -21.2750   20.3840 C   0  0  0  0  0  3  0  0  0  0  0  0
  -32.3350  -21.3090   19.1480 C   0  0  0  0  0  2  0  0  0  0  0  0
  -31.3320  -20.5530   18.6650 C   0  0  0  0  0  0  0  0  0  0  0  0
  -31.2870  -20.1270   17.2080 C   0  0  0  0  0  1  0  0  0  0  0  0
  -30.3310  -16.2000   20.1700 C   0  0  0  0  0  3  0  0  0  0  0  0
  -30.9310  -17.4590   20.0750 C   0  0  0  0  0  0  0  0  0  0  0  0
  -32.3660  -17.6240   19.5690 C   0  0  0  0  0  1  0  0  0  0  0  0
  -30.9780  -14.8780   19.7950 C   0  0  0  0  0  0  0  0  0  0  0  0
  -30.6000  -12.5860   18.8970 C   0  0  0  0  0  2  0  0  0  0  0  0
  -29.6180  -12.6670   17.7100 C   0  0  0  0  0  2  0  0  0  0  0  0
  -28.1790  -12.5070   18.2250 C   0  0  0  0  0  2  0  0  0  0  0  0
  -27.8790  -13.4460   19.4240 C   0  0  0  0  0  3  0  0  0  0  0  0
  -28.9910  -13.4110   20.4940 C   0  0  0  0  0  2  0  0  0  0  0  0
  -30.2670  -13.6950   19.8290 N   0  0  0  0  0  0  0  0  0  0  0  0
  -32.1140  -14.8230   19.3250 O   0  0  0  0  0  0  0  0  0  0  0  0
  -25.5630  -14.0790   20.3150 C   0  0  0  0  0  0  0  0  0  0  0  0
  -24.5040  -13.3220   20.7390 C   0  0  0  0  0  0  0  0  0  0  0  0
  -24.9340  -11.9620   20.6630 C   0  0  0  0  0  0  0  0  0  0  0  0
  -26.5670  -13.1780   19.9980 N   0  0  0  0  0  0  0  0  0  0  0  0
  -26.1990  -11.8990   20.2690 N   0  0  0  0  0  0  0  0  0  0  0  0
  -24.1900  -10.7140   20.8820 C   0  0  0  0  0  0  0  0  0  0  0  0
  -24.6340   -9.7410   21.8050 C   0  0  0  0  0  3  0  0  0  0  0  0
  -23.8890   -8.5590   22.0110 C   0  0  0  0  0  3  0  0  0  0  0  0
  -22.6880   -8.3440   21.2930 C   0  0  0  0  0  0  0  0  0  0  0  0
  -22.2650   -9.3050   20.3600 C   0  0  0  0  0  3  0  0  0  0  0  0
  -23.0100  -10.4760   20.1510 C   0  0  0  0  0  3  0  0  0  0  0  0
  -21.9100   -7.2170   21.4100 O   0  0  0  0  0  0  0  0  0  0  0  0
  -21.8620   -6.4930   22.5750 C   0  0  0  0  0  0  0  0  0  0  0  0
  -21.4010   -7.0560   23.7850 C   0  0  0  0  0  3  0  0  0  0  0  0
  -21.3020   -6.2580   24.9420 C   0  0  0  0  0  3  0  0  0  0  0  0
  -21.6570   -4.8970   24.8910 C   0  0  0  0  0  0  0  0  0  0  0  0
  -22.1120   -4.3320   23.6870 C   0  0  0  0  0  3  0  0  0  0  0  0
  -22.2120   -5.1280   22.5320 C   0  0  0  0  0  0  0  0  0  0  0  0
  -22.6310   -4.5740   21.3680 F   0  0  0  0  0  0  0  0  0  0  0  0
  -21.5560   -4.1280   25.9990 F   0  0  0  0  0  0  0  0  0  0  0  0
  -23.1410  -13.8300   21.1080 C   0  0  0  0  0  0  0  0  0  0  0  0
  -22.4540  -13.1410   22.0130 N   0  0  0  0  0  0  0  0  0  0  0  0
  -22.6960  -14.8710   20.6300 O   0  0  0  0  0  0  0  0  0  0  0  0
  -22.8300  -12.2980   22.4220 H   0  0  0  0  0  0  0  0  0  0  0  0
  -21.5420  -13.4620   22.3020 H   0  0  0  0  0  0  0  0  0  0  0  0
  -25.7510  -15.4460   20.1460 N   0  0  0  0  0  0  0  0  0  0  0  0
  -25.0100  -16.1200   20.3100 H   0  0  0  0  0  0  0  0  0  0  0  0
  -26.6000  -15.8660   19.7870 H   0  0  0  0  0  0  0  0  0  0  0  0
  -29.0330  -23.8760   20.0940 C   0  0  0  0  0  3  0  0  0  0  0  0
  -28.9100  -22.5560   19.6830 C   0  0  0  0  0  0  0  0  0  0  0  0
  -28.0920  -22.2050   18.4420 C   0  0  0  0  0  1  0  0  0  0  0  0
  -28.3150  -25.1290   19.4520 C   0  0  0  0  0  2  0  0  0  0  0  0
  -28.5600  -26.5470   19.8680 O   0  0  0  0  0  0  0  0  0  0  0  0
  -24.5500  -31.6190   23.1090 C   0  0  0  0  0  0  0  0  0  0  0  0
  -27.4530  -27.4260   19.7890 C   0  0  0  0  0  0  0  0  0  0  0  0
  -23.4580  -30.2830   21.3480 C   0  0  0  0  0  3  0  0  0  0  0  0
  -25.0200  -28.9470   19.8270 C   0  0  0  0  0  0  0  0  0  0  0  0
  -25.9820  -30.7490   21.2470 C   0  0  0  0  0  2  0  0  0  0  0  0
  -26.1510  -29.4320   20.4970 C   0  0  0  0  0  0  0  0  0  0  0  0
  -27.3700  -28.6820   20.4750 C   0  0  0  0  0  3  0  0  0  0  0  0
  -26.3080  -27.0440   19.0460 C   0  0  0  0  0  3  0  0  0  0  0  0
  -25.1040  -27.7630   19.0870 C   0  0  0  0  0  3  0  0  0  0  0  0
  -23.7330  -29.7390   19.9220 C   0  0  0  0  0  2  0  0  0  0  0  0
  -24.6800  -30.8980   21.9580 N   0  0  0  0  0  0  0  0  0  0  0  0
  -23.4420  -31.7970   23.6370 O   0  0  0  0  0  0  0  0  0  0  0  0
  -22.8420  -29.1550   22.2130 C   0  0  0  0  0  0  0  0  0  0  0  0
  -21.5360  -28.8950   22.0320 N   0  0  0  0  0  0  0  0  0  0  0  0
  -23.5420  -28.5180   23.0040 O   0  0  0  0  0  0  0  0  0  0  0  0
  -21.0260  -29.4680   21.3740 H   0  0  0  0  0  0  0  0  0  0  0  0
  -18.2330  -27.4550   22.3770 C   0  0  0  0  0  0  0  0  0  0  0  0
  -20.7640  -27.8540   22.7140 C   0  0  0  0  0  3  0  0  0  0  0  0
  -20.9650  -26.4760   22.0400 C   0  0  0  0  0  2  0  0  0  0  0  0
  -19.9020  -26.1620   20.9820 C   0  0  0  0  0  2  0  0  0  0  0  0
  -18.5040  -26.1740   21.6060 C   0  0  0  0  0  2  0  0  0  0  0  0
  -19.2940  -28.2530   22.8830 C   0  0  0  0  0  0  0  0  0  0  0  0
  -18.9860  -29.4510   23.5620 C   0  0  0  0  0  3  0  0  0  0  0  0
  -17.6500  -29.8570   23.7360 C   0  0  0  0  0  3  0  0  0  0  0  0
  -16.6020  -29.0580   23.2460 C   0  0  0  0  0  3  0  0  0  0  0  0
  -16.8940  -27.8570   22.5750 C   0  0  0  0  0  3  0  0  0  0  0  0
  -25.7820  -32.2790   23.8000 C   0  0  0  0  0  3  0  0  0  0  0  0
  -26.2600  -31.5060   25.0910 C   0  0  1  0  0  0  0  0  0  0  0  0
  -25.1240  -31.2180   26.1010 C   0  0  0  0  0  1  0  0  0  0  0  0
  -26.9060  -30.1520   24.7160 C   0  0  0  0  0  1  0  0  0  0  0  0
  -27.3590  -32.3240   25.8120 C   0  0  0  0  0  1  0  0  0  0  0  0
  -25.4180  -33.6640   24.1310 N   0  0  0  0  0  0  0  0  0  0  0  0
  -25.7570  -34.7360   23.4010 C   0  0  0  0  0  0  0  0  0  0  0  0
  -26.4810  -34.6620   22.4040 O   0  0  0  0  0  0  0  0  0  0  0  0
  -24.7810  -33.7930   24.9050 H   0  0  0  0  0  0  0  0  0  0  0  0
  -24.0010  -36.4850   22.9760 C   0  0  0  0  0  1  0  0  0  0  0  0
  -25.2090  -36.1040   23.8470 C   0  0  0  0  0  3  0  0  0  0  0  0
  -27.2640  -37.0420   24.8090 C   0  0  0  0  0  1  0  0  0  0  0  0
  -26.2170  -37.1870   23.8010 N   0  0  0  0  0  0  0  0  0  0  0  0
  -25.7780  -38.0930   23.9300 H   0  0  0  0  0  0  0  0  0  0  0  0
  2  1  1  0
  3  7  1  0
  3  5  1  0
  3  4  1  0
  4 10  1  0
  4  1  1  0
  5 49  1  0
  5  2  1  0
  7  6  2  0
  8  7  1  0
 10  9  2  0
 11 10  1  0
 12 18  1  0
 12  9  1  0
 13 18  1  0
 14 15  1  0
 14 13  1  0
 16 15  1  0
 16 23  1  0
 16 17  1  0
 18 17  1  0
 19 12  2  0
 20 21  2  0
 21 40  1  0
 22 21  1  0
 22 25  1  0
 23 24  1  0
 23 20  1  0
 24 22  2  0
 25 26  1  0
 26 27  2  0
 28 31  1  0
 28 27  1  0
 29 28  2  0
 30 29  1  0
 30 25  2  0
 31 32  1  0
 32 33  1  0
 33 34  2  0
 35 34  1  0
 35 39  1  0
 36 35  2  0
 37 32  2  0
 37 36  1  0
 38 37  1  0
 40 41  1  0
 41 44  1  0
 41 43  1  0
 42 40  2  0
 45 46  1  0
 45 20  1  0
 47 45  1  0
 49 48  2  0
 50 49  1  0
 51 52  1  0
 51 48  1  0
 53 64  2  0
 54 52  1  0
 54 59  1  0
 55 63  1  0
 55 65  1  0
 56 62  1  0
 56 58  1  0
 57 63  1  0
 58 57  1  0
 59 58  2  0
 60 61  1  0
 60 54  2  0
 61 56  2  0
 62 55  1  0
 63 53  1  0
 65 67  2  0
 66 65  1  0
 68 66  1  0
 69 78  2  0
 69 74  1  0
 70 66  1  0
 70 74  1  0
 71 70  1  0
 72 73  1  0
 72 71  1  0
 73 69  1  0
 74 75  2  0
 75 76  1  0
 77 76  2  0
 78 77  1  0
 79 53  1  0
 79 84  1  0
 79 80  1  0
 80 83  1  1
 80 81  1  0
 82 80  1  0
 84 87  1  0
 85 89  1  0
 85 84  1  0
 86 85  2  0
 89 88  1  0
 91 89  1  0
 91 92  1  0
 91 90  1  0
M  ISO  4   9 100  12 100  51 101  52 101
M  END
>  <TORSDO>  (29) 
F 20

>  <SCORE>  (29) 
-12.338

>  <name>  (29) 
28

>  <ligand_id>  (29) 
28

>  <original_smiles>  (29) 
[H]C([H])=C(C([H])([H])[H])C1([H])C([H])(C(=C([H])C(=O)N2C([H])([H])C([H])([H])C([H])([H])C([H])(n3nc(-c4c([H])c([H])c(Oc5c([H])c([H])c(F)c([H])c5F)c([H])c4[H])c(C(=O)N([H])[H])c3N([H])[H])C2([H])[H])C([H])([H])[H])C([H])([H])C([H])([H])C1([H])C(=C([H])C([H])([H])Oc1c([H])c([H])c2c(c1[H])C([H])([H])N(C(=O)C([H])(N([H])C(=O)C([H])(N([H])C([H])([H])[H])C([H])([H])[H])C(C([H])([H])[H])(C([H])([H])[H])C([H])([H])[H])C([H])(C(=O)N([H])C1([H])c3c([H])c([H])c([H])c([H])c3C([H])([H])C([H])([H])C1([H])[H])C2([H])[H])C([H])([H])[H]

>  <smiles>  (29) 
[H]C([H])=C(C([H])([H])[H])C1([H])C([H])(C(=C([H])C(=O)N2C([H])([H])C([H])([H])C([H])([H])C([H])(n3nc(-c4c([H])c([H])c(Oc5c([H])c([H])c(F)c([H])c5F)c([H])c4[H])c(C(=O)N([H])[H])c3N([H])[H])C2([H])[H])C([H])([H])[H])C([H])([H])C([H])([H])C1([H])C(=C([H])C([H])([H])Oc1c([H])c([H])c2c(c1[H])C([H])([H])N(C(=O)C([H])(N([H])C(=O)C([H])(N([H])C([H])([H])[H])C([H])([H])[H])C(C([H])([H])[H])(C([H])([H])[H])C([H])([H])[H])C([H])(C(=O)N([H])C1([H])c3c([H])c([H])c([H])c([H])c3C([H])([H])C([H])([H])C1([H])[H])C2([H])[H])C([H])([H])[H]

$$$$
29:0:0
     RDKit          3D

 92100  0  0  1  0  0  0  0  0999 V2000
  -29.1570  -20.3010   19.8520 C   0  0  0  0  0  0  0  0  0  0  0  0
  -29.7700  -21.3790   19.3380 N   0  0  0  0  0  0  0  0  0  0  0  0
  -28.7940  -20.2660   21.0300 O   0  0  0  0  0  0  0  0  0  0  0  0
  -30.0190  -21.3400   18.3580 H   0  0  0  0  0  0  0  0  0  0  0  0
  -30.9940  -17.9430   18.7720 C   0  0  0  0  0  2  0  0  0  0  0  0
  -30.0480  -18.8300   17.9530 C   0  0  0  0  0  2  0  0  0  0  0  0
  -28.6920  -17.7540   19.6000 C   0  0  0  0  0  2  0  0  0  0  0  0
  -30.0910  -17.0770   19.6860 C   0  0  0  0  0  3  0  0  0  0  0  0
  -28.8580  -19.1260   18.8830 C   0  0  1  0  0  0  0  0  0  0  0  0
  -27.5880  -19.4930   18.0840 C   0  0  0  0  0  1  0  0  0  0  0  0
  -30.0690  -15.5810   19.2570 C   0  0  0  0  0  2  0  0  0  0  0  0
  -30.6720  -14.5200   20.2130 C   0  0  0  0  0  0  0  0  0  0  0  0
  -30.3510  -12.2900   19.3630 C   0  0  0  0  0  2  0  0  0  0  0  0
  -29.4260  -12.4510   18.1400 C   0  0  0  0  0  2  0  0  0  0  0  0
  -27.9530  -12.3340   18.5780 C   0  0  0  0  0  2  0  0  0  0  0  0
  -27.5920  -13.2390   19.7900 C   0  0  0  0  0  3  0  0  0  0  0  0
  -28.6660  -13.1380   20.9020 C   0  0  0  0  0  2  0  0  0  0  0  0
  -30.0090  -13.3400   20.3280 N   0  0  0  0  0  0  0  0  0  0  0  0
  -31.8900  -14.6120   20.3340 O   0  0  0  0  0  0  0  0  0  0  0  0
  -25.2110  -13.8830   20.4980 C   0  0  0  0  0  0  0  0  0  0  0  0
  -24.1300  -13.1260   20.8630 C   0  0  0  0  0  0  0  0  0  0  0  0
  -24.5820  -11.7720   20.8550 C   0  0  0  0  0  0  0  0  0  0  0  0
  -26.2470  -12.9850   20.2920 N   0  0  0  0  0  0  0  0  0  0  0  0
  -25.8750  -11.7130   20.5730 N   0  0  0  0  0  0  0  0  0  0  0  0
  -23.8430  -10.5180   21.0390 C   0  0  0  0  0  0  0  0  0  0  0  0
  -24.2720   -9.5510   21.9720 C   0  0  0  0  0  3  0  0  0  0  0  0
  -23.5370   -8.3600   22.1550 C   0  0  0  0  0  3  0  0  0  0  0  0
  -22.3610   -8.1300   21.4020 C   0  0  0  0  0  0  0  0  0  0  0  0
  -21.9550   -9.0880   20.4570 C   0  0  0  0  0  3  0  0  0  0  0  0
  -22.6900  -10.2710   20.2720 C   0  0  0  0  0  3  0  0  0  0  0  0
  -21.5990   -6.9900   21.4910 O   0  0  0  0  0  0  0  0  0  0  0  0
  -21.5540   -6.2420   22.6400 C   0  0  0  0  0  0  0  0  0  0  0  0
  -21.1650   -6.8010   23.8780 C   0  0  0  0  0  3  0  0  0  0  0  0
  -21.0720   -5.9810   25.0210 C   0  0  0  0  0  3  0  0  0  0  0  0
  -21.3570   -4.6060   24.9260 C   0  0  0  0  0  0  0  0  0  0  0  0
  -21.7420   -4.0480   23.6950 C   0  0  0  0  0  3  0  0  0  0  0  0
  -21.8370   -4.8640   22.5530 C   0  0  0  0  0  0  0  0  0  0  0  0
  -22.1880   -4.3170   21.3640 F   0  0  0  0  0  0  0  0  0  0  0  0
  -21.2540   -3.8180   26.0210 F   0  0  0  0  0  0  0  0  0  0  0  0
  -22.7340  -13.6190   21.0960 C   0  0  0  0  0  0  0  0  0  0  0  0
  -21.9790  -12.9410   21.9550 N   0  0  0  0  0  0  0  0  0  0  0  0
  -22.3100  -14.6350   20.5490 O   0  0  0  0  0  0  0  0  0  0  0  0
  -22.3300  -12.1180   22.4220 H   0  0  0  0  0  0  0  0  0  0  0  0
  -21.0370  -13.2500   22.1440 H   0  0  0  0  0  0  0  0  0  0  0  0
  -25.3870  -15.2480   20.3000 N   0  0  0  0  0  0  0  0  0  0  0  0
  -24.6290  -15.9120   20.4090 H   0  0  0  0  0  0  0  0  0  0  0  0
  -26.2600  -15.6800   20.0210 H   0  0  0  0  0  0  0  0  0  0  0  0
  -30.0220  -22.6250   20.0530 C   0  0  0  0  0  2  0  0  0  0  0  0
  -30.3960  -23.7520   19.0750 C   0  0  0  0  0  2  0  0  0  0  0  0
  -30.1060  -25.1590   19.6270 C   0  0  0  0  0  2  0  0  0  0  0  0
  -28.6110  -25.5290   19.6090 C   0  0  0  0  0  2  0  0  0  0  0  0
  -28.4760  -26.8340   20.1530 O   0  0  0  0  0  0  0  0  0  0  0  0
  -24.5760  -31.8830   23.2430 C   0  0  0  0  0  0  0  0  0  0  0  0
  -27.2490  -27.4650   20.1550 C   0  0  0  0  0  0  0  0  0  0  0  0
  -23.3670  -30.4750   21.6020 C   0  0  0  0  0  3  0  0  0  0  0  0
  -24.8270  -28.9300   20.1850 C   0  0  0  0  0  0  0  0  0  0  0  0
  -25.8880  -30.8460   21.4000 C   0  0  0  0  0  2  0  0  0  0  0  0
  -25.9790  -29.4720   20.7670 C   0  0  0  0  0  0  0  0  0  0  0  0
  -27.1870  -28.7410   20.7560 C   0  0  0  0  0  3  0  0  0  0  0  0
  -26.0740  -26.9230   19.5850 C   0  0  0  0  0  3  0  0  0  0  0  0
  -24.8670  -27.6500   19.5980 C   0  0  0  0  0  3  0  0  0  0  0  0
  -23.5800  -29.7840   20.2260 C   0  0  0  0  0  2  0  0  0  0  0  0
  -24.6260  -31.0830   22.1400 N   0  0  0  0  0  0  0  0  0  0  0  0
  -23.4960  -32.1530   23.7880 O   0  0  0  0  0  0  0  0  0  0  0  0
  -22.7190  -29.4560   22.5670 C   0  0  0  0  0  0  0  0  0  0  0  0
  -21.3950  -29.2750   22.4440 N   0  0  0  0  0  0  0  0  0  0  0  0
  -23.4060  -28.8370   23.3840 O   0  0  0  0  0  0  0  0  0  0  0  0
  -20.9030  -29.8280   21.7570 H   0  0  0  0  0  0  0  0  0  0  0  0
  -18.0240  -28.0730   22.9350 C   0  0  0  0  0  0  0  0  0  0  0  0
  -20.5800  -28.3380   23.2170 C   0  0  0  0  0  3  0  0  0  0  0  0
  -20.6880  -26.9040   22.6450 C   0  0  0  0  0  2  0  0  0  0  0  0
  -19.5890  -26.5770   21.6280 C   0  0  0  0  0  2  0  0  0  0  0  0
  -18.2060  -26.7200   22.2670 C   0  0  0  0  0  2  0  0  0  0  0  0
  -19.1390  -28.8390   23.3670 C   0  0  0  0  0  0  0  0  0  0  0  0
  -18.9150  -30.1070   23.9480 C   0  0  0  0  0  3  0  0  0  0  0  0
  -17.6080  -30.6050   24.1050 C   0  0  0  0  0  3  0  0  0  0  0  0
  -16.5070  -29.8350   23.6910 C   0  0  0  0  0  3  0  0  0  0  0  0
  -16.7170  -28.5720   23.1100 C   0  0  0  0  0  3  0  0  0  0  0  0
  -25.8670  -32.5120   23.8540 C   0  0  0  0  0  3  0  0  0  0  0  0
  -25.5580  -33.9090   24.1890 N   0  0  0  0  0  0  0  0  0  0  0  0
  -25.8930  -34.9630   23.4340 C   0  0  0  0  0  0  0  0  0  0  0  0
  -26.5620  -34.8630   22.4020 O   0  0  0  0  0  0  0  0  0  0  0  0
  -24.9580  -34.0600   24.9860 H   0  0  0  0  0  0  0  0  0  0  0  0
  -24.1620  -36.7540   23.0870 C   0  0  0  0  0  1  0  0  0  0  0  0
  -25.4050  -36.3500   23.8940 C   0  0  0  0  0  3  0  0  0  0  0  0
  -27.5450  -37.2320   24.7160 C   0  0  0  0  0  1  0  0  0  0  0  0
  -26.4370  -37.4040   23.7800 N   0  0  0  0  0  0  0  0  0  0  0  0
  -26.0310  -38.3230   23.9360 H   0  0  0  0  0  0  0  0  0  0  0  0
  -26.3950  -31.7370   25.1240 C   0  0  1  0  0  0  0  0  0  0  0  0
  -25.3120  -31.4970   26.2020 C   0  0  0  0  0  1  0  0  0  0  0  0
  -26.9760  -30.3610   24.7240 C   0  0  0  0  0  1  0  0  0  0  0  0
  -27.5520  -32.5290   25.7780 C   0  0  0  0  0  1  0  0  0  0  0  0
  1  3  2  0
  2  1  1  0
  2 48  1  0
  4  2  1  0
  5  8  1  0
  6  5  1  0
  6  9  1  0
  7  8  1  0
  8 11  1  0
  9 10  1  6
  9  7  1  0
  9  1  1  0
 11 12  1  0
 12 18  1  0
 12 19  2  0
 13 18  1  0
 14 15  1  0
 14 13  1  0
 16 15  1  0
 16 23  1  0
 16 17  1  0
 18 17  1  0
 20 21  2  0
 21 40  1  0
 22 21  1  0
 22 25  1  0
 23 20  1  0
 23 24  1  0
 24 22  2  0
 25 26  1  0
 26 27  2  0
 28 31  1  0
 28 27  1  0
 29 28  2  0
 30 29  1  0
 30 25  2  0
 31 32  1  0
 32 33  1  0
 33 34  2  0
 35 34  1  0
 35 39  1  0
 36 35  2  0
 37 32  2  0
 37 36  1  0
 38 37  1  0
 40 41  1  0
 41 44  1  0
 41 43  1  0
 42 40  2  0
 45 46  1  0
 45 20  1  0
 47 45  1  0
 49 50  1  0
 49 48  1  0
 51 50  1  0
 51 52  1  0
 52 54  1  0
 53 64  2  0
 54 59  1  0
 55 63  1  0
 55 65  1  0
 56 62  1  0
 56 58  1  0
 57 63  1  0
 58 57  1  0
 59 58  2  0
 60 61  1  0
 60 54  2  0
 61 56  2  0
 62 55  1  0
 63 53  1  0
 65 67  2  0
 66 65  1  0
 68 66  1  0
 69 78  2  0
 69 74  1  0
 70 66  1  0
 70 74  1  0
 71 70  1  0
 72 73  1  0
 72 71  1  0
 73 69  1  0
 74 75  2  0
 75 76  1  0
 77 76  2  0
 78 77  1  0
 79 53  1  0
 79 80  1  0
 79 89  1  0
 80 83  1  0
 81 85  1  0
 81 80  1  0
 82 81  2  0
 85 84  1  0
 87 85  1  0
 87 88  1  0
 87 86  1  0
 89 92  1  1
 89 90  1  0
 91 89  1  0
M  ISO  4  11 100  12 100  51 101  52 101
M  END
>  <TORSDO>  (30) 
F 22

>  <SCORE>  (30) 
-13.195

>  <name>  (30) 
29

>  <ligand_id>  (30) 
29

>  <original_smiles>  (30) 
[H]c1c([H])c([H])c2c(c1[H])C([H])([H])C([H])([H])C([H])([H])C2([H])N([H])C(=O)C1([H])N(C(=O)C([H])(N([H])C(=O)C([H])(N([H])C([H])([H])[H])C([H])([H])[H])C(C([H])([H])[H])(C([H])([H])[H])C([H])([H])[H])C([H])([H])c2c([H])c(OC([H])([H])C([H])([H])C([H])([H])C([H])([H])N([H])C(=O)C3(C([H])([H])[H])C([H])([H])C([H])([H])C([H])(C([H])([H])C(=O)N4C([H])([H])C([H])([H])C([H])([H])C([H])(n5nc(-c6c([H])c([H])c(Oc7c([H])c([H])c(F)c([H])c7F)c([H])c6[H])c(C(=O)N([H])[H])c5N([H])[H])C4([H])[H])C3([H])[H])c([H])c([H])c2C1([H])[H]

>  <smiles>  (30) 
[H]c1c([H])c([H])c2c(c1[H])C([H])([H])C([H])([H])C([H])([H])C2([H])N([H])C(=O)C1([H])N(C(=O)C([H])(N([H])C(=O)C([H])(N([H])C([H])([H])[H])C([H])([H])[H])C(C([H])([H])[H])(C([H])([H])[H])C([H])([H])[H])C([H])([H])c2c([H])c(OC([H])([H])C([H])([H])C([H])([H])C([H])([H])N([H])C(=O)C3(C([H])([H])[H])C([H])([H])C([H])([H])C([H])(C([H])([H])C(=O)N4C([H])([H])C([H])([H])C([H])([H])C([H])(n5nc(-c6c([H])c([H])c(Oc7c([H])c([H])c(F)c([H])c7F)c([H])c6[H])c(C(=O)N([H])[H])c5N([H])[H])C4([H])[H])C3([H])[H])c([H])c([H])c2C1([H])[H]

$$$$
30:0:0
     RDKit          3D

100 97  0  0  1  0  0  0  0  0999 V2000
  -24.5570  -30.8870   20.2940 C   0  0  0  0  0 15  0  0  0  0  0  0
  -26.7740  -30.5240   21.2040 C   0  0  0  0  0 15  0  0  0  0  0  0
  -22.7220  -28.8680   20.3230 C   0  0  0  0  0 15  0  0  0  0  0  0
  -27.4460  -28.2820   22.2740 C   0  0  0  0  0 15  0  0  0  0  0  0
  -24.0550  -26.8890   21.3180 C   0  0  0  0  0  1  0  0  0  0  0  0
  -26.1860  -26.3940   21.9070 C   0  0  0  0  0 15  0  0  0  0  0  0
  -23.4300  -25.4440   21.2260 C   0  0  0  0  0  0  0  0  0  0  0  0
  -23.7050  -24.5500   20.2200 N   0  0  0  0  0  0  0  0  0  0  0  0
  -22.7640  -25.0330   22.1680 O   0  0  0  0  0  0  0  0  0  0  0  0
  -23.1530  -23.7020   20.2660 H   0  0  0  0  0  0  0  0  0  0  0  0
  -24.6040  -24.6300   19.0230 C   0  0  0  0  0  2  0  0  0  0  0  0
  -26.0750  -24.0290   19.1620 C   0  0  0  0  0  2  0  0  0  0  0  0
  -27.5790  -24.6780   19.0740 C   0  0  0  0  0  2  0  0  0  0  0  0
  -28.0760  -25.9120   19.7440 O   0  0  0  0  0  0  0  0  0  0  0  0
  -24.6630  -31.5980   23.3830 C   0  0  0  0  0  0  0  0  0  0  0  0
  -27.3820  -26.9970   19.3420 C   0  0  0  0  0  0  0  0  0  0  0  0
  -23.9290  -29.5660   22.0640 C   0  0  0  0  0  3  0  0  0  0  0  0
  -25.6990  -28.9310   19.1680 C   0  0  0  0  0  3  0  0  0  0  0  0
  -25.3060  -29.1070   22.2570 C   0  0  0  0  0  2  0  0  0  0  0  0
  -26.0390  -28.5170   20.4090 C   0  0  0  0  0  3  0  0  0  0  0  0
  -27.4110  -28.2560   19.8890 C   0  0  0  0  0  2  0  0  0  0  0  0
  -26.4450  -26.9150   18.3270 C   0  0  0  0  0  3  0  0  0  0  0  0
  -25.7460  -28.0560   18.0530 C   0  0  0  0  0  2  0  0  0  0  0  0
  -24.8540  -28.6580   20.0340 C   0  0  0  0  0  2  0  0  0  0  0  0
  -24.7200  -30.3600   22.7400 N   0  0  0  0  0  0  0  0  0  0  0  0
  -23.5580  -32.1110   23.6140 O   0  0  0  0  0  0  0  0  0  0  0  0
  -22.7780  -29.0710   23.0290 C   0  0  0  0  0  0  0  0  0  0  0  0
  -21.4680  -29.2850   22.8040 N   0  0  0  0  0  0  0  0  0  0  0  0
  -23.1640  -28.4270   23.9740 O   0  0  0  0  0  0  0  0  0  0  0  0
  -21.1900  -29.9190   22.0670 H   0  0  0  0  0  0  0  0  0  0  0  0
  -17.9690  -28.1520   22.8730 C   0  0  0  0  0  0  0  0  0  0  0  0
  -20.4830  -28.3250   23.2650 C   0  0  0  0  0  3  0  0  0  0  0  0
  -20.5950  -26.9960   22.4880 C   0  0  0  0  0  2  0  0  0  0  0  0
  -19.4720  -26.6860   21.5090 C   0  0  0  0  0  2  0  0  0  0  0  0
  -18.1310  -26.7940   22.2180 C   0  0  0  0  0  2  0  0  0  0  0  0
  -19.0870  -28.8960   23.3250 C   0  0  0  0  0  0  0  0  0  0  0  0
  -18.8960  -30.1660   23.9080 C   0  0  0  0  0  3  0  0  0  0  0  0
  -17.6020  -30.6910   24.0510 C   0  0  0  0  0  3  0  0  0  0  0  0
  -16.4910  -29.9440   23.6220 C   0  0  0  0  0  3  0  0  0  0  0  0
  -16.6740  -28.6790   23.0350 C   0  0  0  0  0  3  0  0  0  0  0  0
  -25.9030  -32.3870   23.9310 C   0  0  0  0  0  3  0  0  0  0  0  0
  -26.4990  -31.7040   25.2100 C   0  0  1  0  0  0  0  0  0  0  0  0
  -25.4150  -31.3910   26.2640 C   0  0  0  0  0  1  0  0  0  0  0  0
  -27.2290  -30.3910   24.8950 C   0  0  0  0  0  1  0  0  0  0  0  0
  -27.5740  -32.6110   25.8490 C   0  0  0  0  0  1  0  0  0  0  0  0
  -25.5420  -33.8000   24.2190 N   0  0  0  0  0  0  0  0  0  0  0  0
  -25.8960  -34.8930   23.5150 C   0  0  0  0  0  0  0  0  0  0  0  0
  -26.5830  -34.8390   22.4920 O   0  0  0  0  0  0  0  0  0  0  0  0
  -24.9350  -33.9390   25.0150 H   0  0  0  0  0  0  0  0  0  0  0  0
  -24.1490  -36.7050   23.2610 C   0  0  0  0  0  1  0  0  0  0  0  0
  -25.4090  -36.2740   24.0290 C   0  0  0  0  0  3  0  0  0  0  0  0
  -27.5540  -37.1610   24.8460 C   0  0  0  0  0  1  0  0  0  0  0  0
  -26.4300  -37.3440   23.9320 N   0  0  0  0  0  0  0  0  0  0  0  0
  -26.0180  -38.2560   24.1120 H   0  0  0  0  0  0  0  0  0  0  0  0
  -27.1300  -24.2410   22.0000 C   0  0  0  0  0  1  0  0  0  0  0  0
  -27.4070  -22.3160   21.3610 N   0  0  0  0  0  2  0  0  0  0  0  0
  -26.4800  -21.9520   21.5340 H   0  0  0  0  0  0  0  0  0  0  0  0
  -27.4420  -22.4680   20.3690 H   0  0  0  0  0  0  0  0  0  0  0  0
  -28.4450  -20.5680   21.4390 C   0  0  0  0  0 15  0  0  0  0  0  0
  -28.6680  -18.3310   20.8910 C   0  0  0  0  0 15  0  0  0  0  0  0
  -29.7190  -16.4210   20.6330 C   0  0  0  0  0  2  0  0  0  0  0  0
  -30.2900  -13.7240   19.7030 C   0  0  0  0  0  2  0  0  0  0  0  0
  -29.5800  -12.9600   18.5000 C   0  0  0  0  0  2  0  0  0  0  0  0
  -28.2240  -12.3780   18.9060 C   0  0  0  0  0  2  0  0  0  0  0  0
  -27.5530  -13.3840   19.8550 C   0  0  0  0  0  3  0  0  0  0  0  0
  -28.4360  -13.9410   21.0090 C   0  0  0  0  0  2  0  0  0  0  0  0
  -29.4600  -14.8800   20.4460 N   0  0  0  0  0  0  0  0  0  0  0  0
  -30.9740  -16.3290   20.4360 O   0  0  0  0  0  1  0  0  0  0  0  0
  -25.2020  -13.8350   20.5800 C   0  0  0  0  0  0  0  0  0  0  0  0
  -24.1510  -13.0390   20.9270 C   0  0  0  0  0  0  0  0  0  0  0  0
  -24.6350  -11.6950   20.8720 C   0  0  0  0  0  0  0  0  0  0  0  0
  -26.2480  -12.9780   20.3250 N   0  0  0  0  0  0  0  0  0  0  0  0
  -25.9310  -11.6780   20.5620 N   0  0  0  0  0  0  0  0  0  0  0  0
  -23.9110  -10.4270   21.0350 C   0  0  0  0  0  0  0  0  0  0  0  0
  -24.3660   -9.4200   21.9150 C   0  0  0  0  0  3  0  0  0  0  0  0
  -23.6320   -8.2250   22.0740 C   0  0  0  0  0  3  0  0  0  0  0  0
  -22.4290   -8.0280   21.3540 C   0  0  0  0  0  0  0  0  0  0  0  0
  -21.9930   -9.0240   20.4630 C   0  0  0  0  0  3  0  0  0  0  0  0
  -22.7270  -10.2110   20.3010 C   0  0  0  0  0  3  0  0  0  0  0  0
  -21.6660   -6.8880   21.4230 O   0  0  0  0  0  0  0  0  0  0  0  0
  -21.6860   -6.0720   22.5280 C   0  0  0  0  0  0  0  0  0  0  0  0
  -21.4030   -6.5630   23.8210 C   0  0  0  0  0  3  0  0  0  0  0  0
  -21.3670   -5.6780   24.9170 C   0  0  0  0  0  3  0  0  0  0  0  0
  -21.6040   -4.3040   24.7220 C   0  0  0  0  0  0  0  0  0  0  0  0
  -21.8820   -3.8140   23.4340 C   0  0  0  0  0  3  0  0  0  0  0  0
  -21.9210   -4.6950   22.3400 C   0  0  0  0  0  0  0  0  0  0  0  0
  -22.1670   -4.2140   21.0980 F   0  0  0  0  0  0  0  0  0  0  0  0
  -21.5630   -3.4540   25.7740 F   0  0  0  0  0  0  0  0  0  0  0  0
  -22.7550  -13.5090   21.1940 C   0  0  0  0  0  0  0  0  0  0  0  0
  -22.0280  -12.8040   22.0520 N   0  0  0  0  0  0  0  0  0  0  0  0
  -22.3220  -14.5400   20.6810 O   0  0  0  0  0  0  0  0  0  0  0  0
  -22.4010  -11.9740   22.4870 H   0  0  0  0  0  0  0  0  0  0  0  0
  -21.0880  -13.0980   22.2760 H   0  0  0  0  0  0  0  0  0  0  0  0
  -25.3520  -15.2100   20.4330 N   0  0  0  0  0  0  0  0  0  0  0  0
  -24.5710  -15.8480   20.5480 H   0  0  0  0  0  0  0  0  0  0  0  0
  -26.1910  -15.6660   20.1010 H   0  0  0  0  0  0  0  0  0  0  0  0
  -28.5210  -24.5120   22.6170 C   0  0  0  0  0  2  0  0  0  0  0  0
  -30.0730  -25.3160   24.4240 C   0  0  0  0  0  1  0  0  0  0  0  0
  -27.7450  -24.6350   25.0920 C   0  0  0  0  0  1  0  0  0  0  0  0
  -28.6040  -25.2490   23.9740 C   0  0  0  0  0  3  0  0  0  0  0  0
  7  5  1  0
  7  9  2  0
  8 10  1  0
  8  7  1  0
 11 12  1  0
 11  8  1  0
 13 12  1  0
 13 14  1  0
 15 26  2  0
 16 14  1  0
 16 21  1  0
 17 19  1  0
 17 25  1  0
 17 27  1  0
 18 23  1  0
 18 24  1  0
 18 20  1  0
 19 25  1  0
 20 21  1  0
 22 16  2  0
 23 22  1  0
 24 20  1  0
 25 15  1  0
 27 29  2  0
 28 27  1  0
 30 28  1  0
 31 40  2  0
 31 36  1  0
 32 28  1  0
 32 36  1  0
 33 32  1  0
 34 35  1  0
 34 33  1  0
 35 31  1  0
 36 37  2  0
 37 38  1  0
 39 38  2  0
 40 39  1  0
 41 15  1  0
 41 46  1  0
 41 42  1  0
 42 45  1  1
 42 43  1  0
 44 42  1  0
 46 49  1  0
 47 51  1  0
 47 46  1  0
 48 47  2  0
 51 50  1  0
 53 51  1  0
 53 54  1  0
 53 52  1  0
 55 97  1  0
 56 57  1  0
 58 56  1  0
 62 67  1  0
 63 64  1  0
 63 62  1  0
 65 64  1  0
 65 72  1  0
 65 66  1  0
 67 61  1  0
 67 66  1  0
 68 61  1  0
 69 70  2  0
 70 89  1  0
 71 70  1  0
 71 74  1  0
 72 73  1  0
 72 69  1  0
 73 71  2  0
 74 75  1  0
 75 76  2  0
 77 80  1  0
 77 76  1  0
 78 77  2  0
 79 78  1  0
 79 74  2  0
 80 81  1  0
 81 82  1  0
 82 83  2  0
 84 83  1  0
 84 88  1  0
 85 84  2  0
 86 81  2  0
 86 85  1  0
 87 86  1  0
 89 90  1  0
 90 93  1  0
 90 92  1  0
 91 89  2  0
 94 95  1  0
 94 69  1  0
 96 94  1  0
 97100  1  0
100 98  1  0
100 99  1  0
M  ISO  4  13 101  14 101  60 100  61 100
M  END
>  <TORSDO>  (31) 
F 26

>  <SCORE>  (31) 
-9.667

>  <name>  (31) 
30

>  <ligand_id>  (31) 
30

>  <original_smiles>  (31) 
[H]c1c([H])c([H])c2c(c1[H])C([H])([H])C([H])([H])C([H])([H])C2([H])N([H])C(=O)C1([H])N(C(=O)C([H])(N([H])C(=O)C([H])(N([H])C([H])([H])[H])C([H])([H])[H])C(C([H])([H])[H])(C([H])([H])[H])C([H])([H])[H])C([H])([H])c2c([H])c(OC([H])([H])C([H])([H])C([H])([H])N([H])C(=O)C3([H])C([H])([H])C([H])([H])C([H])([H])C([H])([H])C3([H])C([H])(C([H])([H])C([H])(C([H])([H])[H])C([H])([H])[H])[N+]([H])([H])C([H])([H])C([H])([H])C(=O)N3C([H])([H])C([H])([H])C([H])([H])C([H])(n4nc(-c5c([H])c([H])c(Oc6c([H])c([H])c(F)c([H])c6F)c([H])c5[H])c(C(=O)N([H])[H])c4N([H])[H])C3([H])[H])c([H])c([H])c2C1([H])[H]

>  <smiles>  (31) 
[H]c1c([H])c([H])c2c(c1[H])C([H])([H])C([H])([H])C([H])([H])C2([H])N([H])C(=O)C1([H])N(C(=O)C([H])(N([H])C(=O)C([H])(N([H])C([H])([H])[H])C([H])([H])[H])C(C([H])([H])[H])(C([H])([H])[H])C([H])([H])[H])C([H])([H])c2c([H])c(OC([H])([H])C([H])([H])C([H])([H])N([H])C(=O)C3([H])C([H])([H])C([H])([H])C([H])([H])C([H])([H])C3([H])C([H])(C([H])([H])C([H])(C([H])([H])[H])C([H])([H])[H])[N+]([H])([H])C([H])([H])C([H])([H])C(=O)N3C([H])([H])C([H])([H])C([H])([H])C([H])(n4nc(-c5c([H])c([H])c(Oc6c([H])c([H])c(F)c([H])c6F)c([H])c5[H])c(C(=O)N([H])[H])c4N([H])[H])C3([H])[H])c([H])c([H])c2C1([H])[H]

$$$$
31:0:0
     RDKit          3D

 91 99  0  0  1  0  0  0  0  0999 V2000
  -29.2170  -20.6220   20.0880 N   0  0  0  0  0  4  0  0  0  0  0  0
  -28.4840  -20.5280   20.7730 H   0  0  0  0  0  0  0  0  0  0  0  0
  -28.7890  -20.4090   19.2020 H   0  0  0  0  0  0  0  0  0  0  0  0
  -30.5990  -19.5270   21.8760 C   0  0  0  0  0  1  0  0  0  0  0  0
  -30.2440  -19.4610   20.3750 C   0  0  0  0  0  3  0  0  0  0  0  0
  -28.8440  -17.0230   19.9820 C   0  0  0  0  0  3  0  0  0  0  0  0
  -30.0530  -17.9100   19.7610 C   0  0  0  0  0  3  0  0  0  0  0  0
  -30.1570  -16.3670   20.4030 C   0  0  1  0  0  0  0  0  0  0  0  0
  -27.7470  -17.3190   20.9920 C   0  0  0  0  0  1  0  0  0  0  0  0
  -30.6390  -16.2710   21.8540 C   0  0  0  0  0  1  0  0  0  0  0  0
  -30.6520  -14.9940   19.6680 C   0  0  0  0  0  0  0  0  0  0  0  0
  -30.3840  -12.6390   18.7420 C   0  0  0  0  0  2  0  0  0  0  0  0
  -29.3390  -12.5840   17.6020 C   0  0  0  0  0  2  0  0  0  0  0  0
  -27.9300  -12.3550   18.1770 C   0  0  0  0  0  2  0  0  0  0  0  0
  -27.6320  -13.3050   19.3620 C   0  0  0  0  0  3  0  0  0  0  0  0
  -28.7880  -13.3740   20.3920 C   0  0  0  0  0  2  0  0  0  0  0  0
  -30.0160  -13.7500   19.6790 N   0  0  0  0  0  0  0  0  0  0  0  0
  -31.7330  -15.0370   19.0740 O   0  0  0  0  0  0  0  0  0  0  0  0
  -25.3350  -13.8770   20.3370 C   0  0  0  0  0  0  0  0  0  0  0  0
  -24.3070  -13.1030   20.7920 C   0  0  0  0  0  0  0  0  0  0  0  0
  -24.7620  -11.7510   20.6980 C   0  0  0  0  0  0  0  0  0  0  0  0
  -26.3490  -13.0040   19.9850 N   0  0  0  0  0  0  0  0  0  0  0  0
  -26.0190  -11.7160   20.2650 N   0  0  0  0  0  0  0  0  0  0  0  0
  -24.0500  -10.4910   20.9380 C   0  0  0  0  0  0  0  0  0  0  0  0
  -24.4900   -9.5670   21.9100 C   0  0  0  0  0  3  0  0  0  0  0  0
  -23.7730   -8.3730   22.1390 C   0  0  0  0  0  3  0  0  0  0  0  0
  -22.6030   -8.0930   21.3920 C   0  0  0  0  0  0  0  0  0  0  0  0
  -22.1810   -9.0070   20.4100 C   0  0  0  0  0  3  0  0  0  0  0  0
  -22.9000  -10.1920   20.1800 C   0  0  0  0  0  3  0  0  0  0  0  0
  -21.8580   -6.9460   21.5280 O   0  0  0  0  0  0  0  0  0  0  0  0
  -21.7180   -6.3180   22.7400 C   0  0  0  0  0  0  0  0  0  0  0  0
  -21.1610   -6.9730   23.8590 C   0  0  0  0  0  3  0  0  0  0  0  0
  -20.9680   -6.2680   25.0640 C   0  0  0  0  0  3  0  0  0  0  0  0
  -21.3280   -4.9110   25.1500 C   0  0  0  0  0  0  0  0  0  0  0  0
  -21.8810   -4.2550   24.0360 C   0  0  0  0  0  3  0  0  0  0  0  0
  -22.0720   -4.9570   22.8330 C   0  0  0  0  0  0  0  0  0  0  0  0
  -22.5850   -4.3150   21.7550 F   0  0  0  0  0  0  0  0  0  0  0  0
  -21.1380   -4.2310   26.3050 F   0  0  0  0  0  0  0  0  0  0  0  0
  -22.9490  -13.5830   21.2080 C   0  0  0  0  0  0  0  0  0  0  0  0
  -22.3100  -12.8820   22.1350 N   0  0  0  0  0  0  0  0  0  0  0  0
  -22.4680  -14.6190   20.7490 O   0  0  0  0  0  0  0  0  0  0  0  0
  -22.7130  -12.0400   22.5230 H   0  0  0  0  0  0  0  0  0  0  0  0
  -21.4070  -13.1910   22.4650 H   0  0  0  0  0  0  0  0  0  0  0  0
  -25.4890  -15.2500   20.1760 N   0  0  0  0  0  0  0  0  0  0  0  0
  -24.7850  -15.8980   20.5120 H   0  0  0  0  0  0  0  0  0  0  0  0
  -26.3910  -15.6820   20.0360 H   0  0  0  0  0  0  0  0  0  0  0  0
  -30.3770  -22.3900   18.7150 C   0  0  0  0  0  1  0  0  0  0  0  0
  -29.6150  -22.1510   20.0300 C   0  0  0  0  0  3  0  0  0  0  0  0
  -28.5340  -23.4060   20.3670 C   0  0  0  0  0  2  0  0  0  0  0  0
  -28.5220  -24.9380   19.6710 C   0  0  0  0  0  2  0  0  0  0  0  0
  -28.2980  -26.3380   20.2850 O   0  0  0  0  0  0  0  0  0  0  0  0
  -24.4600  -31.8030   23.2200 C   0  0  0  0  0  0  0  0  0  0  0  0
  -27.1870  -27.2320   20.1430 C   0  0  0  0  0  0  0  0  0  0  0  0
  -23.3120  -30.4240   21.5210 C   0  0  0  0  0  3  0  0  0  0  0  0
  -24.8160  -28.9050   20.0860 C   0  0  0  0  0  0  0  0  0  0  0  0
  -25.8570  -30.7440   21.4150 C   0  0  0  0  0  2  0  0  0  0  0  0
  -25.9660  -29.3720   20.7330 C   0  0  0  0  0  0  0  0  0  0  0  0
  -27.1450  -28.5460   20.7480 C   0  0  0  0  0  3  0  0  0  0  0  0
  -26.0130  -26.8490   19.4580 C   0  0  0  0  0  3  0  0  0  0  0  0
  -24.8520  -27.6600   19.4310 C   0  0  0  0  0  3  0  0  0  0  0  0
  -23.5690  -29.7750   20.1330 C   0  0  0  0  0  2  0  0  0  0  0  0
  -24.5600  -31.0140   22.1070 N   0  0  0  0  0  0  0  0  0  0  0  0
  -23.3630  -32.0600   23.7330 O   0  0  0  0  0  0  0  0  0  0  0  0
  -22.6290  -29.3900   22.4480 C   0  0  0  0  0  0  0  0  0  0  0  0
  -21.3070  -29.2120   22.2940 N   0  0  0  0  0  0  0  0  0  0  0  0
  -23.2920  -28.7500   23.2680 O   0  0  0  0  0  0  0  0  0  0  0  0
  -20.8300  -29.7770   21.6050 H   0  0  0  0  0  0  0  0  0  0  0  0
  -17.9280  -27.9740   22.6930 C   0  0  0  0  0  0  0  0  0  0  0  0
  -20.4780  -28.2500   23.0250 C   0  0  0  0  0  3  0  0  0  0  0  0
  -20.6040  -26.8350   22.4150 C   0  0  0  0  0  2  0  0  0  0  0  0
  -19.5280  -26.5290   21.3700 C   0  0  0  0  0  2  0  0  0  0  0  0
  -18.1310  -26.6440   21.9860 C   0  0  0  0  0  2  0  0  0  0  0  0
  -19.0290  -28.7360   23.1660 C   0  0  0  0  0  0  0  0  0  0  0  0
  -18.7830  -29.9790   23.7860 C   0  0  0  0  0  3  0  0  0  0  0  0
  -17.4700  -30.4650   23.9340 C   0  0  0  0  0  3  0  0  0  0  0  0
  -16.3830  -29.6990   23.4800 C   0  0  0  0  0  3  0  0  0  0  0  0
  -16.6120  -28.4540   22.8660 C   0  0  0  0  0  3  0  0  0  0  0  0
  -25.7200  -32.4340   23.8900 C   0  0  0  0  0  3  0  0  0  0  0  0
  -25.3860  -33.8190   24.2520 N   0  0  0  0  0  0  0  0  0  0  0  0
  -25.7280  -34.9010   23.5390 C   0  0  0  0  0  0  0  0  0  0  0  0
  -26.4230  -34.8360   22.5220 O   0  0  0  0  0  0  0  0  0  0  0  0
  -24.7690  -33.9440   25.0420 H   0  0  0  0  0  0  0  0  0  0  0  0
  -23.9970  -36.6950   23.2040 C   0  0  0  0  0  1  0  0  0  0  0  0
  -25.2200  -36.2700   24.0320 C   0  0  0  0  0  3  0  0  0  0  0  0
  -27.3200  -37.1500   24.9500 C   0  0  0  0  0  1  0  0  0  0  0  0
  -26.2460  -37.3340   23.9790 N   0  0  0  0  0  0  0  0  0  0  0  0
  -25.8270  -38.2460   24.1400 H   0  0  0  0  0  0  0  0  0  0  0  0
  -26.2160  -31.6330   25.1580 C   0  0  1  0  0  0  0  0  0  0  0  0
  -25.0990  -31.3510   26.1890 C   0  0  0  0  0  1  0  0  0  0  0  0
  -26.8230  -30.2720   24.7420 C   0  0  0  0  0  1  0  0  0  0  0  0
  -27.3410  -32.4210   25.8660 C   0  0  0  0  0  1  0  0  0  0  0  0
  1  5  1  0
  1  2  1  0
  3  1  1  0
  5  4  1  0
  6  8  1  0
  6  9  1  0
  7  6  1  0
  7  5  1  0
  7  8  1  0
  8 10  1  1
 11 17  1  0
 11  8  1  0
 12 17  1  0
 13 14  1  0
 13 12  1  0
 15 14  1  0
 15 22  1  0
 15 16  1  0
 17 16  1  0
 18 11  2  0
 19 20  2  0
 20 39  1  0
 21 20  1  0
 21 24  1  0
 22 23  1  0
 22 19  1  0
 23 21  2  0
 24 25  1  0
 25 26  2  0
 27 30  1  0
 27 26  1  0
 28 27  2  0
 29 28  1  0
 29 24  2  0
 30 31  1  0
 31 36  2  0
 31 32  1  0
 32 33  2  0
 33 34  1  0
 34 38  1  0
 35 34  2  0
 36 35  1  0
 37 36  1  0
 39 40  1  0
 40 43  1  0
 40 42  1  0
 41 39  2  0
 44 19  1  0
 44 45  1  0
 46 44  1  0
 48 47  1  0
 48  1  1  0
 48 49  1  0
 50 51  1  0
 50 49  1  0
 52 63  2  0
 53 51  1  0
 53 58  1  0
 54 62  1  0
 54 64  1  0
 55 61  1  0
 55 57  1  0
 56 62  1  0
 57 58  2  0
 57 56  1  0
 59 53  2  0
 60 59  1  0
 60 55  2  0
 61 54  1  0
 62 52  1  0
 64 66  2  0
 65 64  1  0
 67 65  1  0
 68 77  2  0
 68 73  1  0
 69 65  1  0
 69 73  1  0
 70 69  1  0
 71 72  1  0
 71 70  1  0
 72 68  1  0
 73 74  2  0
 74 75  1  0
 76 75  2  0
 77 76  1  0
 78 52  1  0
 78 79  1  0
 78 88  1  0
 79 82  1  0
 80 84  1  0
 80 79  1  0
 81 80  2  0
 84 83  1  0
 86 84  1  0
 86 87  1  0
 86 85  1  0
 88 91  1  1
 88 89  1  0
 90 88  1  0
M  ISO  4   8 100  11 100  50 101  51 101
M  END
>  <TORSDO>  (32) 
F 21

>  <SCORE>  (32) 
-12.158

>  <name>  (32) 
31

>  <ligand_id>  (32) 
31

>  <original_smiles>  (32) 
[H]c1c([H])c([H])c2c(c1[H])C([H])([H])C([H])([H])C([H])([H])C2([H])N([H])C(=O)C1([H])N(C(=O)C([H])(N([H])C(=O)C([H])(N([H])C([H])([H])[H])C([H])([H])[H])C(C([H])([H])[H])(C([H])([H])[H])C([H])([H])[H])C([H])([H])c2c([H])c(OC([H])([H])C([H])([H])C([H])(C([H])([H])[H])[N+]([H])([H])C([H])(C([H])([H])[H])C3([H])C([H])(C([H])([H])[H])C3(C(=O)N3C([H])([H])C([H])([H])C([H])([H])C([H])(n4nc(-c5c([H])c([H])c(Oc6c([H])c([H])c(F)c([H])c6F)c([H])c5[H])c(C(=O)N([H])[H])c4N([H])[H])C3([H])[H])C([H])([H])[H])c([H])c([H])c2C1([H])[H]

>  <smiles>  (32) 
[H]c1c([H])c([H])c2c(c1[H])C([H])([H])C([H])([H])C([H])([H])C2([H])N([H])C(=O)C1([H])N(C(=O)C([H])(N([H])C(=O)C([H])(N([H])C([H])([H])[H])C([H])([H])[H])C(C([H])([H])[H])(C([H])([H])[H])C([H])([H])[H])C([H])([H])c2c([H])c(OC([H])([H])C([H])([H])C([H])(C([H])([H])[H])[N+]([H])([H])C([H])(C([H])([H])[H])C3([H])C([H])(C([H])([H])[H])C3(C(=O)N3C([H])([H])C([H])([H])C([H])([H])C([H])(n4nc(-c5c([H])c([H])c(Oc6c([H])c([H])c(F)c([H])c6F)c([H])c5[H])c(C(=O)N([H])[H])c4N([H])[H])C3([H])[H])C([H])([H])[H])c([H])c([H])c2C1([H])[H]

$$$$
32:0:0
     RDKit          3D

 91100  0  0  1  0  0  0  0  0999 V2000
  -31.5600  -19.5020   22.5580 C   0  0  0  0  0  2  0  0  0  0  0  0
  -30.4450  -20.5200   22.7590 C   0  0  0  0  0  2  0  0  0  0  0  0
  -31.0550  -18.3530   21.6920 C   0  0  0  0  0  2  0  0  0  0  0  0
  -29.2420  -21.3160   19.3420 C   0  0  0  0  0  2  0  0  0  0  0  0
  -29.3150  -22.9670   19.9080 C   0  0  0  0  0  3  0  0  0  0  0  0
  -30.1480  -21.1360   21.3940 C   0  0  0  0  0  3  0  0  0  0  0  0
  -30.3830  -18.6610   20.3130 C   0  0  0  0  0  3  0  0  0  0  0  0
  -29.3480  -22.5260   21.3990 C   0  0  1  0  0  0  0  0  0  0  0  0
  -30.0660  -23.6050   22.2360 C   0  0  0  0  0  1  0  0  0  0  0  0
  -27.9210  -22.3400   21.9650 C   0  0  0  0  0  1  0  0  0  0  0  0
  -29.5690  -20.1470   20.4080 N   0  0  2  0  0  4  0  0  0  0  0  0
  -28.6710  -19.9020   20.7960 H   0  0  0  0  0  0  0  0  0  0  0  0
  -29.8300  -16.9790   20.0350 C   0  0  0  0  0  2  0  0  0  0  0  0
  -30.6860  -15.4440   20.0020 C   0  0  0  0  0  0  0  0  0  0  0  0
  -30.6700  -12.9730   19.2150 C   0  0  0  0  0  2  0  0  0  0  0  0
  -29.7340  -12.7730   17.9940 C   0  0  0  0  0  2  0  0  0  0  0  0
  -28.2820  -12.5340   18.4440 C   0  0  0  0  0  2  0  0  0  0  0  0
  -27.8530  -13.5150   19.5650 C   0  0  0  0  0  3  0  0  0  0  0  0
  -28.9140  -13.6590   20.6740 C   0  0  0  0  0  2  0  0  0  0  0  0
  -30.1530  -14.1260   20.0370 N   0  0  0  0  0  0  0  0  0  0  0  0
  -31.9010  -15.4430   19.7540 O   0  0  0  0  0  0  0  0  0  0  0  0
  -25.5080  -14.1010   20.3760 C   0  0  0  0  0  0  0  0  0  0  0  0
  -24.4430  -13.3370   20.7610 C   0  0  0  0  0  0  0  0  0  0  0  0
  -24.8880  -11.9800   20.7060 C   0  0  0  0  0  0  0  0  0  0  0  0
  -26.5310  -13.2140   20.0980 N   0  0  0  0  0  0  0  0  0  0  0  0
  -26.1720  -11.9300   20.3650 N   0  0  0  0  0  0  0  0  0  0  0  0
  -24.1450  -10.7270   20.8990 C   0  0  0  0  0  0  0  0  0  0  0  0
  -24.5470   -9.7680   21.8550 C   0  0  0  0  0  3  0  0  0  0  0  0
  -23.8030   -8.5820   22.0360 C   0  0  0  0  0  3  0  0  0  0  0  0
  -22.6410   -8.3460   21.2630 C   0  0  0  0  0  0  0  0  0  0  0  0
  -22.2580   -9.2930   20.2960 C   0  0  0  0  0  3  0  0  0  0  0  0
  -23.0030  -10.4710   20.1140 C   0  0  0  0  0  3  0  0  0  0  0  0
  -21.8710   -7.2120   21.3520 O   0  0  0  0  0  0  0  0  0  0  0  0
  -21.7510   -6.5150   22.5270 C   0  0  0  0  0  0  0  0  0  0  0  0
  -21.2260   -7.1070   23.6950 C   0  0  0  0  0  3  0  0  0  0  0  0
  -21.0550   -6.3350   24.8620 C   0  0  0  0  0  3  0  0  0  0  0  0
  -21.3980   -4.9690   24.8580 C   0  0  0  0  0  0  0  0  0  0  0  0
  -21.9170   -4.3760   23.6940 C   0  0  0  0  0  3  0  0  0  0  0  0
  -22.0900   -5.1470   22.5310 C   0  0  0  0  0  0  0  0  0  0  0  0
  -22.5690   -4.5640   21.4050 F   0  0  0  0  0  0  0  0  0  0  0  0
  -21.2280   -4.2250   25.9760 F   0  0  0  0  0  0  0  0  0  0  0  0
  -23.0590  -13.8320   21.0610 C   0  0  0  0  0  0  0  0  0  0  0  0
  -22.3380  -13.1430   21.9390 N   0  0  0  0  0  0  0  0  0  0  0  0
  -22.6280  -14.8680   20.5550 O   0  0  0  0  0  0  0  0  0  0  0  0
  -22.7000  -12.3050   22.3690 H   0  0  0  0  0  0  0  0  0  0  0  0
  -21.4100  -13.4570   22.1830 H   0  0  0  0  0  0  0  0  0  0  0  0
  -25.6880  -15.4720   20.2110 N   0  0  0  0  0  0  0  0  0  0  0  0
  -24.9300  -16.1330   20.3480 H   0  0  0  0  0  0  0  0  0  0  0  0
  -26.5320  -15.9020   19.8580 H   0  0  0  0  0  0  0  0  0  0  0  0
  -28.4700  -24.4990   19.4650 C   0  0  0  0  0  2  0  0  0  0  0  0
  -28.6460  -26.0960   19.8100 O   0  0  0  0  0  0  0  0  0  0  0  0
  -24.7870  -31.6670   23.0860 C   0  0  0  0  0  0  0  0  0  0  0  0
  -27.5990  -27.1520   19.7800 C   0  0  0  0  0  0  0  0  0  0  0  0
  -23.6890  -30.3670   21.3060 C   0  0  0  0  0  3  0  0  0  0  0  0
  -25.2340  -28.9370   19.8030 C   0  0  0  0  0  0  0  0  0  0  0  0
  -26.2480  -30.6840   21.2510 C   0  0  0  0  0  2  0  0  0  0  0  0
  -26.3870  -29.3360   20.4900 C   0  0  0  0  0  0  0  0  0  0  0  0
  -27.5640  -28.4650   20.4570 C   0  0  0  0  0  3  0  0  0  0  0  0
  -26.4130  -26.9020   19.0530 C   0  0  0  0  0  3  0  0  0  0  0  0
  -25.2710  -27.7420   19.0660 C   0  0  0  0  0  3  0  0  0  0  0  0
  -23.9810  -29.8060   19.8860 C   0  0  0  0  0  2  0  0  0  0  0  0
  -24.9280  -30.9280   21.9380 N   0  0  0  0  0  0  0  0  0  0  0  0
  -23.6730  -31.8750   23.5950 O   0  0  0  0  0  0  0  0  0  0  0  0
  -23.0090  -29.2710   22.1680 C   0  0  0  0  0  0  0  0  0  0  0  0
  -21.6790  -29.1150   22.0380 N   0  0  0  0  0  0  0  0  0  0  0  0
  -23.6840  -28.5650   22.9220 O   0  0  0  0  0  0  0  0  0  0  0  0
  -21.1860  -29.7370   21.4140 H   0  0  0  0  0  0  0  0  0  0  0  0
  -18.2900  -27.9180   22.5300 C   0  0  0  0  0  0  0  0  0  0  0  0
  -20.8650  -28.1000   22.7160 C   0  0  0  0  0  3  0  0  0  0  0  0
  -20.9100  -26.7540   21.9560 C   0  0  0  0  0  2  0  0  0  0  0  0
  -19.7600  -26.5880   20.9580 C   0  0  0  0  0  2  0  0  0  0  0  0
  -18.4090  -26.6680   21.6730 C   0  0  0  0  0  2  0  0  0  0  0  0
  -19.4430  -28.5980   23.0070 C   0  0  0  0  0  0  0  0  0  0  0  0
  -19.2750  -29.7710   23.7750 C   0  0  0  0  0  3  0  0  0  0  0  0
  -17.9880  -30.2620   24.0660 C   0  0  0  0  0  3  0  0  0  0  0  0
  -16.8520  -29.5780   23.6030 C   0  0  0  0  0  3  0  0  0  0  0  0
  -17.0040  -28.4060   22.8400 C   0  0  0  0  0  3  0  0  0  0  0  0
  -26.0160  -32.3000   23.8050 C   0  0  0  0  0  3  0  0  0  0  0  0
  -25.6620  -33.6800   24.1810 N   0  0  0  0  0  0  0  0  0  0  0  0
  -25.9790  -34.7740   23.4740 C   0  0  0  0  0  0  0  0  0  0  0  0
  -26.6650  -34.7260   22.4500 O   0  0  0  0  0  0  0  0  0  0  0  0
  -25.0540  -33.7880   24.9790 H   0  0  0  0  0  0  0  0  0  0  0  0
  -24.1990  -36.5290   23.1910 C   0  0  0  0  0  1  0  0  0  0  0  0
  -25.4560  -36.1330   23.9800 C   0  0  0  0  0  3  0  0  0  0  0  0
  -27.5610  -37.0620   24.8400 C   0  0  0  0  0  1  0  0  0  0  0  0
  -26.4570  -37.2200   23.8960 N   0  0  0  0  0  0  0  0  0  0  0  0
  -26.0230  -38.1230   24.0650 H   0  0  0  0  0  0  0  0  0  0  0  0
  -26.4680  -31.4900   25.0830 C   0  0  1  0  0  0  0  0  0  0  0  0
  -25.3200  -31.2050   26.0820 C   0  0  0  0  0  1  0  0  0  0  0  0
  -27.0870  -30.1320   24.6850 C   0  0  0  0  0  1  0  0  0  0  0  0
  -27.5730  -32.2700   25.8360 C   0  0  0  0  0  1  0  0  0  0  0  0
  1  2  1  0
  3  1  1  0
  4  5  1  0
  4 11  1  0
  5 50  1  0
  5  8  1  0
  6  8  1  0
  6  2  1  0
  7 13  1  0
  7 11  1  0
  7  3  1  0
  8 10  1  1
  8  9  1  0
 11 12  1  1
 11  6  1  0
 14 13  1  0
 14 20  1  0
 15 20  1  0
 16 17  1  0
 16 15  1  0
 18 17  1  0
 18 25  1  0
 18 19  1  0
 20 19  1  0
 21 14  2  0
 22 23  2  0
 23 42  1  0
 24 23  1  0
 24 27  1  0
 25 26  1  0
 25 22  1  0
 26 24  2  0
 27 28  1  0
 28 29  2  0
 30 33  1  0
 30 29  1  0
 31 30  2  0
 32 31  1  0
 32 27  2  0
 33 34  1  0
 34 39  2  0
 34 35  1  0
 35 36  2  0
 37 36  1  0
 37 41  1  0
 38 37  2  0
 39 38  1  0
 40 39  1  0
 42 43  1  0
 43 46  1  0
 43 45  1  0
 44 42  2  0
 47 48  1  0
 47 22  1  0
 49 47  1  0
 50 51  1  0
 52 63  2  0
 53 51  1  0
 53 58  1  0
 54 62  1  0
 54 64  1  0
 55 61  1  0
 55 57  1  0
 56 62  1  0
 57 56  1  0
 58 57  2  0
 59 60  1  0
 59 53  2  0
 60 55  2  0
 61 54  1  0
 62 52  1  0
 64 66  2  0
 65 64  1  0
 67 65  1  0
 68 77  2  0
 68 73  1  0
 69 65  1  0
 69 73  1  0
 70 69  1  0
 71 72  1  0
 71 70  1  0
 72 68  1  0
 73 74  2  0
 74 75  1  0
 76 75  2  0
 77 76  1  0
 78 52  1  0
 78 79  1  0
 78 88  1  0
 79 82  1  0
 80 84  1  0
 80 79  1  0
 81 80  2  0
 84 83  1  0
 86 84  1  0
 86 87  1  0
 86 85  1  0
 88 91  1  1
 88 89  1  0
 90 88  1  0
M  ISO  4  13 100  14 100  50 101  51 101
M  END
>  <TORSDO>  (33) 
F 18

>  <SCORE>  (33) 
-15.598

>  <name>  (33) 
32

>  <ligand_id>  (33) 
32

>  <original_smiles>  (33) 
[H]c1c([H])c([H])c2c(c1[H])C([H])([H])C([H])([H])C([H])([H])C2([H])N([H])C(=O)C1([H])N(C(=O)C([H])(N([H])C(=O)C([H])(N([H])C([H])([H])[H])C([H])([H])[H])C(C([H])([H])[H])(C([H])([H])[H])C([H])([H])[H])C([H])([H])c2c([H])c(OC([H])([H])C3([H])C(C([H])([H])[H])(C([H])([H])[H])C4([H])C([H])([H])C([H])([H])C([H])([H])C([H])(C([H])([H])C(=O)N5C([H])([H])C([H])([H])C([H])([H])C([H])(n6nc(-c7c([H])c([H])c(Oc8c([H])c([H])c(F)c([H])c8F)c([H])c7[H])c(C(=O)N([H])[H])c6N([H])[H])C5([H])[H])[N+]4([H])C3([H])[H])c([H])c([H])c2C1([H])[H]

>  <smiles>  (33) 
[H]c1c([H])c([H])c2c(c1[H])C([H])([H])C([H])([H])C([H])([H])C2([H])N([H])C(=O)C1([H])N(C(=O)C([H])(N([H])C(=O)C([H])(N([H])C([H])([H])[H])C([H])([H])[H])C(C([H])([H])[H])(C([H])([H])[H])C([H])([H])[H])C([H])([H])c2c([H])c(OC([H])([H])C3([H])C(C([H])([H])[H])(C([H])([H])[H])C4([H])C([H])([H])C([H])([H])C([H])([H])C([H])(C([H])([H])C(=O)N5C([H])([H])C([H])([H])C([H])([H])C([H])(n6nc(-c7c([H])c([H])c(Oc8c([H])c([H])c(F)c([H])c8F)c([H])c7[H])c(C(=O)N([H])[H])c6N([H])[H])C5([H])[H])[N+]4([H])C3([H])[H])c([H])c([H])c2C1([H])[H]

$$$$
33:0:0
     RDKit          3D

 93101  0  0  1  0  0  0  0  0999 V2000
  -28.8770  -20.2310   19.2220 C   0  0  0  0  0  3  0  0  0  0  0  0
  -30.8070  -19.3790   15.9880 C   0  0  0  0  0  2  0  0  0  0  0  0
  -29.7690  -20.3900   15.4810 C   0  0  0  0  0  2  0  0  0  0  0  0
  -30.5500  -19.2150   17.4950 C   0  0  0  0  0  2  0  0  0  0  0  0
  -28.8200  -20.6280   16.6560 C   0  0  0  0  0  2  0  0  0  0  0  0
  -29.6860  -20.4170   17.9080 C   0  0  0  0  0  3  0  0  0  0  0  0
  -29.7200  -19.5640   20.2640 N   0  0  0  0  0  4  0  0  0  0  0  0
  -30.6200  -19.4200   19.8380 H   0  0  0  0  0  0  0  0  0  0  0  0
  -29.8650  -20.1900   21.0390 H   0  0  0  0  0  0  0  0  0  0  0  0
  -29.2510  -18.2330   20.7700 C   0  0  0  0  0  2  0  0  0  0  0  0
  -30.3730  -17.1520   20.8530 C   0  0  0  0  0  2  0  0  0  0  0  0
  -29.9140  -15.7590   21.3990 C   0  0  0  0  0  2  0  0  0  0  0  0
  -30.6680  -14.5400   20.7950 C   0  0  0  0  0  0  0  0  0  0  0  0
  -30.4270  -12.4110   19.5610 C   0  0  0  0  0  2  0  0  0  0  0  0
  -29.5050  -12.6600   18.3490 C   0  0  0  0  0  2  0  0  0  0  0  0
  -28.0240  -12.4890   18.7440 C   0  0  0  0  0  2  0  0  0  0  0  0
  -27.6570  -13.2730   20.0310 C   0  0  0  0  0  3  0  0  0  0  0  0
  -28.6970  -13.0170   21.1470 C   0  0  0  0  0  2  0  0  0  0  0  0
  -30.0270  -13.3500   20.6190 N   0  0  0  0  0  0  0  0  0  0  0  0
  -31.8110  -14.7260   20.3680 O   0  0  0  0  0  0  0  0  0  0  0  0
  -25.2410  -13.8420   20.7050 C   0  0  0  0  0  0  0  0  0  0  0  0
  -24.1720  -13.0510   21.0320 C   0  0  0  0  0  0  0  0  0  0  0  0
  -24.6480  -11.7040   20.9800 C   0  0  0  0  0  0  0  0  0  0  0  0
  -26.2990  -12.9760   20.4760 N   0  0  0  0  0  0  0  0  0  0  0  0
  -25.9440  -11.6840   20.7000 N   0  0  0  0  0  0  0  0  0  0  0  0
  -23.9300  -10.4320   21.1260 C   0  0  0  0  0  0  0  0  0  0  0  0
  -24.3540   -9.4480   22.0460 C   0  0  0  0  0  3  0  0  0  0  0  0
  -23.6370   -8.2390   22.1810 C   0  0  0  0  0  3  0  0  0  0  0  0
  -22.4830   -8.0070   21.3960 C   0  0  0  0  0  0  0  0  0  0  0  0
  -22.0790   -8.9810   20.4650 C   0  0  0  0  0  3  0  0  0  0  0  0
  -22.7960  -10.1810   20.3280 C   0  0  0  0  0  3  0  0  0  0  0  0
  -21.7410   -6.8520   21.4400 O   0  0  0  0  0  0  0  0  0  0  0  0
  -21.6780   -6.0790   22.5710 C   0  0  0  0  0  0  0  0  0  0  0  0
  -21.1970   -6.5890   23.7970 C   0  0  0  0  0  3  0  0  0  0  0  0
  -21.0860   -5.7420   24.9170 C   0  0  0  0  0  3  0  0  0  0  0  0
  -21.4450   -4.3840   24.8120 C   0  0  0  0  0  0  0  0  0  0  0  0
  -21.9180   -3.8740   23.5920 C   0  0  0  0  0  3  0  0  0  0  0  0
  -22.0320   -4.7180   22.4740 C   0  0  0  0  0  0  0  0  0  0  0  0
  -22.4690   -4.2160   21.2940 F   0  0  0  0  0  0  0  0  0  0  0  0
  -21.3300   -3.5670   25.8860 F   0  0  0  0  0  0  0  0  0  0  0  0
  -22.7650  -13.5070   21.2850 C   0  0  0  0  0  0  0  0  0  0  0  0
  -22.0300  -12.7860   22.1240 N   0  0  0  0  0  0  0  0  0  0  0  0
  -22.3250  -14.5370   20.7760 O   0  0  0  0  0  0  0  0  0  0  0  0
  -22.3990  -11.9530   22.5580 H   0  0  0  0  0  0  0  0  0  0  0  0
  -21.0860  -13.0720   22.3380 H   0  0  0  0  0  0  0  0  0  0  0  0
  -25.3990  -15.2180   20.5630 N   0  0  0  0  0  0  0  0  0  0  0  0
  -24.6260  -15.8660   20.6660 H   0  0  0  0  0  0  0  0  0  0  0  0
  -26.2530  -15.6640   20.2580 H   0  0  0  0  0  0  0  0  0  0  0  0
  -28.1690  -21.5450   19.7130 C   0  0  0  0  0  3  0  0  0  0  0  0
  -28.9150  -22.9040   19.5470 C   0  0  0  0  0  3  0  0  0  0  0  0
  -28.1620  -24.1540   20.0940 C   0  0  0  0  0  2  0  0  0  0  0  0
  -28.6340  -25.4850   19.4420 C   0  0  0  0  0  2  0  0  0  0  0  0
  -28.4050  -26.6650   20.2270 O   0  0  0  0  0  0  0  0  0  0  0  0
  -24.5070  -31.7850   23.2520 C   0  0  0  0  0  0  0  0  0  0  0  0
  -27.2060  -27.3530   20.1810 C   0  0  0  0  0  0  0  0  0  0  0  0
  -23.3270  -30.3960   21.5770 C   0  0  0  0  0  3  0  0  0  0  0  0
  -24.8040  -28.8620   20.1670 C   0  0  0  0  0  0  0  0  0  0  0  0
  -25.8550  -30.7490   21.4300 C   0  0  0  0  0  2  0  0  0  0  0  0
  -25.9490  -29.3810   20.7830 C   0  0  0  0  0  0  0  0  0  0  0  0
  -27.1460  -28.6310   20.7900 C   0  0  0  0  0  3  0  0  0  0  0  0
  -26.0380  -26.8480   19.5660 C   0  0  0  0  0  3  0  0  0  0  0  0
  -24.8420  -27.5950   19.5620 C   0  0  0  0  0  3  0  0  0  0  0  0
  -23.5600  -29.7200   20.1970 C   0  0  0  0  0  2  0  0  0  0  0  0
  -24.5800  -30.9930   22.1440 N   0  0  0  0  0  0  0  0  0  0  0  0
  -23.4180  -32.0560   23.7760 O   0  0  0  0  0  0  0  0  0  0  0  0
  -22.6570  -29.3710   22.5210 C   0  0  0  0  0  0  0  0  0  0  0  0
  -21.3320  -29.2060   22.3790 N   0  0  0  0  0  0  0  0  0  0  0  0
  -23.3270  -28.7310   23.3360 O   0  0  0  0  0  0  0  0  0  0  0  0
  -20.8530  -29.7810   21.7000 H   0  0  0  0  0  0  0  0  0  0  0  0
  -17.9360  -28.0660   22.8620 C   0  0  0  0  0  0  0  0  0  0  0  0
  -20.4980  -28.2660   23.1310 C   0  0  0  0  0  3  0  0  0  0  0  0
  -20.5700  -26.8470   22.5210 C   0  0  0  0  0  2  0  0  0  0  0  0
  -19.4600  -26.5710   21.5020 C   0  0  0  0  0  2  0  0  0  0  0  0
  -18.0830  -26.7290   22.1550 C   0  0  0  0  0  2  0  0  0  0  0  0
  -19.0710  -28.7960   23.3060 C   0  0  0  0  0  0  0  0  0  0  0  0
  -18.8820  -30.0480   23.9290 C   0  0  0  0  0  3  0  0  0  0  0  0
  -17.5890  -30.5740   24.1080 C   0  0  0  0  0  3  0  0  0  0  0  0
  -16.4680  -29.8420   23.6810 C   0  0  0  0  0  3  0  0  0  0  0  0
  -16.6420  -28.5900   23.0640 C   0  0  0  0  0  3  0  0  0  0  0  0
  -25.7820  -32.4110   23.8980 C   0  0  0  0  0  3  0  0  0  0  0  0
  -26.2640  -31.6460   25.1930 C   0  0  1  0  0  0  0  0  0  0  0  0
  -25.1440  -31.4230   26.2360 C   0  0  0  0  0  1  0  0  0  0  0  0
  -26.8470  -30.2630   24.8230 C   0  0  0  0  0  1  0  0  0  0  0  0
  -27.4060  -32.4360   25.8760 C   0  0  0  0  0  1  0  0  0  0  0  0
  -25.4780  -33.8150   24.2080 N   0  0  0  0  0  0  0  0  0  0  0  0
  -25.8440  -34.8580   23.4500 C   0  0  0  0  0  0  0  0  0  0  0  0
  -26.5420  -34.7390   22.4390 O   0  0  0  0  0  0  0  0  0  0  0  0
  -24.8600  -33.9830   24.9890 H   0  0  0  0  0  0  0  0  0  0  0  0
  -24.1490  -36.6660   23.0290 C   0  0  0  0  0  1  0  0  0  0  0  0
  -25.3590  -36.2550   23.8820 C   0  0  0  0  0  3  0  0  0  0  0  0
  -27.4720  -37.1250   24.7810 C   0  0  0  0  0  1  0  0  0  0  0  0
  -26.4080  -37.2950   23.7950 N   0  0  0  0  0  0  0  0  0  0  0  0
  -26.0060  -38.2210   23.9180 H   0  0  0  0  0  0  0  0  0  0  0  0
  1 49  1  0
  1  7  1  0
  2  4  1  0
  3  2  1  0
  3  5  1  0
  4  6  1  0
  5  6  1  0
  6  1  1  0
  7 10  1  0
  7  9  1  0
  8  7  1  0
 10 11  1  0
 11 12  1  0
 13 12  1  0
 14 19  1  0
 15 16  1  0
 15 14  1  0
 17 16  1  0
 17 24  1  0
 17 18  1  0
 19 13  1  0
 19 18  1  0
 20 13  2  0
 21 22  2  0
 22 41  1  0
 23 22  1  0
 23 26  1  0
 24 25  1  0
 24 21  1  0
 25 23  2  0
 26 27  1  0
 27 28  2  0
 29 32  1  0
 29 28  1  0
 30 29  2  0
 31 30  1  0
 31 26  2  0
 32 33  1  0
 33 34  1  0
 34 35  2  0
 36 35  1  0
 36 40  1  0
 37 36  2  0
 38 33  2  0
 38 37  1  0
 39 38  1  0
 41 42  1  0
 42 45  1  0
 42 44  1  0
 43 41  2  0
 46 47  1  0
 46 21  1  0
 48 46  1  0
 50 49  2  0
 50 51  1  0
 52 51  1  0
 52 53  1  0
 54 65  2  0
 55 53  1  0
 55 60  1  0
 56 64  1  0
 56 66  1  0
 57 63  1  0
 57 59  1  0
 58 64  1  0
 59 60  2  0
 59 58  1  0
 61 55  2  0
 62 61  1  0
 62 57  2  0
 63 56  1  0
 64 54  1  0
 66 68  2  0
 67 66  1  0
 69 67  1  0
 70 79  2  0
 70 75  1  0
 71 67  1  0
 71 75  1  0
 72 71  1  0
 73 74  1  0
 73 72  1  0
 74 70  1  0
 75 76  2  0
 76 77  1  0
 78 77  2  0
 79 78  1  0
 80 54  1  0
 80 85  1  0
 80 81  1  0
 81 84  1  1
 81 82  1  0
 83 81  1  0
 85 88  1  0
 86 90  1  0
 86 85  1  0
 87 86  2  0
 90 89  1  0
 92 90  1  0
 92 93  1  0
 92 91  1  0
M  ISO  4  12 100  13 100  52 101  53 101
M  END
>  <TORSDO>  (34) 
F 25

>  <SCORE>  (34) 
-12.031

>  <name>  (34) 
33

>  <ligand_id>  (34) 
33

>  <original_smiles>  (34) 
[H]c1c([H])c([H])c2c(c1[H])C([H])([H])C([H])([H])C([H])([H])C2([H])N([H])C(=O)C1([H])N(C(=O)C([H])(N([H])C(=O)C([H])(N([H])C([H])([H])[H])C([H])([H])[H])C(C([H])([H])[H])(C([H])([H])[H])C([H])([H])[H])C([H])([H])c2c([H])c(OC([H])([H])C([H])([H])C([H])([H])C([H])([H])C([H])(C3([H])C([H])([H])C([H])([H])C([H])([H])C3([H])[H])[N+]([H])([H])C([H])([H])C([H])([H])C([H])([H])C(=O)N3C([H])([H])C([H])([H])C([H])([H])C([H])(n4nc(-c5c([H])c([H])c(Oc6c([H])c([H])c(F)c([H])c6F)c([H])c5[H])c(C(=O)N([H])[H])c4N([H])[H])C3([H])[H])c([H])c([H])c2C1([H])[H]

>  <smiles>  (34) 
[H]c1c([H])c([H])c2c(c1[H])C([H])([H])C([H])([H])C([H])([H])C2([H])N([H])C(=O)C1([H])N(C(=O)C([H])(N([H])C(=O)C([H])(N([H])C([H])([H])[H])C([H])([H])[H])C(C([H])([H])[H])(C([H])([H])[H])C([H])([H])[H])C([H])([H])c2c([H])c(OC([H])([H])C([H])([H])C([H])([H])C([H])([H])C([H])(C3([H])C([H])([H])C([H])([H])C([H])([H])C3([H])[H])[N+]([H])([H])C([H])([H])C([H])([H])C([H])([H])C(=O)N3C([H])([H])C([H])([H])C([H])([H])C([H])(n4nc(-c5c([H])c([H])c(Oc6c([H])c([H])c(F)c([H])c6F)c([H])c5[H])c(C(=O)N([H])[H])c4N([H])[H])C3([H])[H])c([H])c([H])c2C1([H])[H]

$$$$
34:0:0
     RDKit          3D

 95105  0  0  1  0  0  0  0  0999 V2000
  -29.0510  -20.4200   20.7580 C   0  0  0  0  0  3  0  0  0  0  0  0
  -30.0430  -19.6250   20.2690 C   0  0  0  0  0  0  0  0  0  0  0  0
  -31.0470  -19.9960   19.1830 C   0  0  0  0  0  1  0  0  0  0  0  0
  -30.0370  -16.7450   22.9140 C   0  0  0  0  0  2  0  0  0  0  0  0
  -30.1280  -18.2040   20.8690 C   0  0  0  0  0  3  0  0  0  0  0  0
  -30.1340  -18.2010   22.4070 C   0  0  1  0  0  0  0  0  0  0  0  0
  -31.4200  -16.8890   22.1780 C   0  0  2  0  0  0  0  0  0  0  0  0
  -31.3160  -17.2250   20.6730 C   0  0  0  0  0  3  0  0  0  0  0  0
  -31.5330  -18.1550   23.0550 C   0  0  1  0  0  0  0  0  0  0  0  0
  -32.5460  -19.2240   22.6240 C   0  0  0  0  0  1  0  0  0  0  0  0
  -31.6340  -18.0570   24.6080 C   0  0  0  0  0  1  0  0  0  0  0  0
  -31.0190  -16.0180   19.7120 C   0  0  0  0  0  2  0  0  0  0  0  0
  -31.8770  -14.7000   19.7390 C   0  0  0  0  0  0  0  0  0  0  0  0
  -31.5490  -12.3490   19.0080 C   0  0  0  0  0  2  0  0  0  0  0  0
  -30.5840  -12.3580   17.7950 C   0  0  0  0  0  2  0  0  0  0  0  0
  -29.1180  -12.7280   18.1360 C   0  0  0  0  0  2  0  0  0  0  0  0
  -28.8760  -12.8860   19.6390 C   0  0  0  0  0  3  0  0  0  0  0  0
  -29.9850  -13.3550   20.5860 C   0  0  0  0  0  2  0  0  0  0  0  0
  -31.2340  -13.5110   19.8590 N   0  0  0  0  0  0  0  0  0  0  0  0
  -33.0460  -14.7550   19.3440 O   0  0  0  0  0  0  0  0  0  0  0  0
  -26.6220  -14.1330   20.3590 C   0  0  0  0  0  0  0  0  0  0  0  0
  -25.4440  -13.5340   20.7370 C   0  0  0  0  0  0  0  0  0  0  0  0
  -25.6820  -12.1290   20.6650 C   0  0  0  0  0  0  0  0  0  0  0  0
  -27.5000  -13.0710   20.0930 N   0  0  0  0  0  0  0  0  0  0  0  0
  -26.9100  -11.8890   20.3130 N   0  0  0  0  0  0  0  0  0  0  0  0
  -24.8340  -10.9660   20.8410 C   0  0  0  0  0  0  0  0  0  0  0  0
  -25.1550   -9.9860   21.8060 C   0  0  0  0  0  3  0  0  0  0  0  0
  -24.3400   -8.8470   21.9520 C   0  0  0  0  0  3  0  0  0  0  0  0
  -23.1950   -8.6970   21.1360 C   0  0  0  0  0  0  0  0  0  0  0  0
  -22.9000   -9.6660   20.1590 C   0  0  0  0  0  3  0  0  0  0  0  0
  -23.7180  -10.7940   20.0080 C   0  0  0  0  0  3  0  0  0  0  0  0
  -22.3540   -7.6150   21.2010 O   0  0  0  0  0  0  0  0  0  0  0  0
  -22.0730   -6.9990   22.3930 C   0  0  0  0  0  0  0  0  0  0  0  0
  -21.5490   -7.7040   23.4990 C   0  0  0  0  0  3  0  0  0  0  0  0
  -21.2020   -7.0080   24.6750 C   0  0  0  0  0  3  0  0  0  0  0  0
  -21.3820   -5.6120   24.7450 C   0  0  0  0  0  0  0  0  0  0  0  0
  -21.9120   -4.9120   23.6470 C   0  0  0  0  0  3  0  0  0  0  0  0
  -22.2570   -5.6040   22.4740 C   0  0  0  0  0  0  0  0  0  0  0  0
  -22.7410   -4.9230   21.4070 F   0  0  0  0  0  0  0  0  0  0  0  0
  -21.0490   -4.9390   25.8700 F   0  0  0  0  0  0  0  0  0  0  0  0
  -24.1270  -14.1760   21.0710 C   0  0  0  0  0  0  0  0  0  0  0  0
  -23.3710  -13.5850   21.9870 N   0  0  0  0  0  0  0  0  0  0  0  0
  -23.7690  -15.2280   20.5430 O   0  0  0  0  0  0  0  0  0  0  0  0
  -23.6750  -12.7430   22.4520 H   0  0  0  0  0  0  0  0  0  0  0  0
  -22.4810  -13.9940   22.2400 H   0  0  0  0  0  0  0  0  0  0  0  0
  -27.0050  -15.4660   20.2210 N   0  0  0  0  0  0  0  0  0  0  0  0
  -26.4010  -16.2570   20.4180 H   0  0  0  0  0  0  0  0  0  0  0  0
  -27.9500  -15.7300   19.9860 H   0  0  0  0  0  0  0  0  0  0  0  0
  -28.5670  -21.8090   20.4880 C   0  0  0  0  0  0  0  0  0  0  0  0
  -27.2670  -22.1420   21.2310 C   0  0  0  0  0  1  0  0  0  0  0  0
  -29.1410  -22.6430   19.7010 N   0  0  0  0  0  0  0  0  0  0  0  0
  -28.5040  -23.9360   19.4210 C   0  0  0  0  0  2  0  0  0  0  0  0
  -29.5210  -25.0500   19.1400 C   0  0  0  0  0  2  0  0  0  0  0  0
  -28.9510  -26.4600   19.4280 C   0  0  0  0  0  2  0  0  0  0  0  0
  -27.8750  -26.7190   18.5300 O   0  0  0  0  0  0  0  0  0  0  0  0
  -25.2010  -31.1420   23.4960 C   0  0  0  0  0  0  0  0  0  0  0  0
  -26.8590  -27.5260   18.9880 C   0  0  0  0  0  0  0  0  0  0  0  0
  -23.6390  -30.3980   21.7260 C   0  0  0  0  0  3  0  0  0  0  0  0
  -24.7040  -29.1790   19.7530 C   0  0  0  0  0  0  0  0  0  0  0  0
  -26.1530  -30.5290   21.2810 C   0  0  0  0  0  2  0  0  0  0  0  0
  -25.9770  -29.3900   20.3010 C   0  0  0  0  0  0  0  0  0  0  0  0
  -27.0600  -28.5610   19.9290 C   0  0  0  0  0  3  0  0  0  0  0  0
  -25.5770  -27.3300   18.4410 C   0  0  0  0  0  3  0  0  0  0  0  0
  -24.4950  -28.1450   18.8240 C   0  0  0  0  0  3  0  0  0  0  0  0
  -23.6010  -30.1130   20.2000 C   0  0  0  0  0  2  0  0  0  0  0  0
  -25.0240  -30.6840   22.2260 N   0  0  0  0  0  0  0  0  0  0  0  0
  -24.2340  -31.3640   24.2370 O   0  0  0  0  0  0  0  0  0  0  0  0
  -22.9580  -29.2230   22.4630 C   0  0  0  0  0  0  0  0  0  0  0  0
  -21.6260  -29.1230   22.3230 N   0  0  0  0  0  0  0  0  0  0  0  0
  -23.6240  -28.4160   23.1180 O   0  0  0  0  0  0  0  0  0  0  0  0
  -21.1570  -29.8310   21.7760 H   0  0  0  0  0  0  0  0  0  0  0  0
  -18.2430  -27.8570   22.4290 C   0  0  0  0  0  0  0  0  0  0  0  0
  -20.7760  -28.0780   22.8890 C   0  0  0  0  0  3  0  0  0  0  0  0
  -20.9290  -26.7500   22.1100 C   0  0  0  0  0  2  0  0  0  0  0  0
  -19.8930  -26.5820   20.9940 C   0  0  0  0  0  2  0  0  0  0  0  0
  -18.4740  -26.6250   21.5690 C   0  0  0  0  0  2  0  0  0  0  0  0
  -19.3250  -28.5480   23.0350 C   0  0  0  0  0  0  0  0  0  0  0  0
  -19.0560  -29.7080   23.7940 C   0  0  0  0  0  3  0  0  0  0  0  0
  -17.7370  -30.1760   23.9510 C   0  0  0  0  0  3  0  0  0  0  0  0
  -16.6690  -29.4780   23.3600 C   0  0  0  0  0  3  0  0  0  0  0  0
  -16.9220  -28.3180   22.6070 C   0  0  0  0  0  3  0  0  0  0  0  0
  -26.6240  -31.4280   24.0720 C   0  0  0  0  0  3  0  0  0  0  0  0
  -26.5520  -32.6860   24.8250 N   0  0  0  0  0  0  0  0  0  0  0  0
  -27.0760  -33.8500   24.4140 C   0  0  0  0  0  0  0  0  0  0  0  0
  -27.7380  -33.9580   23.3770 O   0  0  0  0  0  0  0  0  0  0  0  0
  -25.9790  -32.6840   25.6580 H   0  0  0  0  0  0  0  0  0  0  0  0
  -25.7310  -35.9620   24.6440 C   0  0  0  0  0  1  0  0  0  0  0  0
  -26.8230  -35.0940   25.2890 C   0  0  0  0  0  3  0  0  0  0  0  0
  -29.0370  -35.2310   26.3440 C   0  0  0  0  0  1  0  0  0  0  0  0
  -28.0380  -35.9070   25.5190 N   0  0  0  0  0  0  0  0  0  0  0  0
  -27.8030  -36.7890   25.9640 H   0  0  0  0  0  0  0  0  0  0  0  0
  -27.1750  -30.2630   24.9820 C   0  0  1  0  0  0  0  0  0  0  0  0
  -26.1770  -29.7990   26.0700 C   0  0  0  0  0  1  0  0  0  0  0  0
  -27.5440  -29.0300   24.1240 C   0  0  0  0  0  1  0  0  0  0  0  0
  -28.4770  -30.7170   25.6850 C   0  0  0  0  0  1  0  0  0  0  0  0
  2  1  2  0
  3  2  1  0
  5  2  1  0
  5  6  1  0
  6  4  1  6
  6  9  1  0
  7  6  1  0
  7  4  1  6
  7  9  1  0
  8 12  1  0
  8  5  1  0
  8  7  1  0
  9 11  1  1
 10  9  1  0
 12 13  1  0
 13 19  1  0
 14 19  1  0
 15 16  1  0
 15 14  1  0
 17 16  1  0
 17 24  1  0
 17 18  1  0
 19 18  1  0
 20 13  2  0
 21 22  2  0
 22 41  1  0
 23 22  1  0
 23 26  1  0
 24 25  1  0
 24 21  1  0
 25 23  2  0
 26 27  1  0
 27 28  2  0
 29 32  1  0
 29 28  1  0
 30 29  2  0
 31 30  1  0
 31 26  2  0
 32 33  1  0
 33 38  2  0
 33 34  1  0
 34 35  2  0
 35 36  1  0
 36 40  1  0
 37 36  2  0
 38 37  1  0
 39 38  1  0
 41 42  1  0
 42 45  1  0
 42 44  1  0
 43 41  2  0
 46 21  1  0
 46 47  1  0
 48 46  1  0
 49  1  1  0
 49 50  1  0
 51 49  2  0
 52 51  1  0
 53 52  1  0
 53 54  1  0
 55 57  1  0
 55 54  1  0
 56 67  2  0
 57 62  1  0
 58 66  1  0
 58 68  1  0
 59 65  1  0
 59 61  1  0
 60 66  1  0
 61 60  1  0
 62 61  2  0
 63 64  1  0
 63 57  2  0
 64 59  2  0
 65 58  1  0
 66 56  1  0
 68 70  2  0
 69 68  1  0
 71 69  1  0
 72 81  2  0
 72 77  1  0
 73 69  1  0
 73 77  1  0
 74 73  1  0
 75 76  1  0
 75 74  1  0
 76 72  1  0
 77 78  2  0
 78 79  1  0
 80 79  2  0
 81 80  1  0
 82 56  1  0
 82 83  1  0
 82 92  1  0
 83 86  1  0
 84 83  1  0
 84 88  1  0
 85 84  2  0
 88 87  1  0
 88 90  1  0
 90 91  1  0
 90 89  1  0
 92 95  1  1
 92 93  1  0
 94 92  1  0
M  ISO  4  12 100  13 100  54 101  55 101
M  END
>  <TORSDO>  (35) 
F 22

>  <SCORE>  (35) 
-5.494

>  <name>  (35) 
34

>  <ligand_id>  (35) 
34

>  <original_smiles>  (35) 
[H]C(C(=NC([H])([H])C([H])([H])C([H])([H])Oc1c([H])c([H])c2c(c1[H])C([H])([H])N(C(=O)C([H])(N([H])C(=O)C([H])(N([H])C([H])([H])[H])C([H])([H])[H])C(C([H])([H])[H])(C([H])([H])[H])C([H])([H])[H])C([H])(C(=O)N([H])C1([H])c3c([H])c([H])c([H])c([H])c3C([H])([H])C([H])([H])C1([H])[H])C2([H])[H])C([H])([H])[H])=C(C([H])([H])[H])C1([H])C([H])(C([H])([H])C(=O)N2C([H])([H])C([H])([H])C([H])([H])C([H])(n3nc(-c4c([H])c([H])c(Oc5c([H])c([H])c(F)c([H])c5F)c([H])c4[H])c(C(=O)N([H])[H])c3N([H])[H])C2([H])[H])C2([H])C([H])([H])C1([H])C2(C([H])([H])[H])C([H])([H])[H]

>  <smiles>  (35) 
[H]C(C(=NC([H])([H])C([H])([H])C([H])([H])Oc1c([H])c([H])c2c(c1[H])C([H])([H])N(C(=O)C([H])(N([H])C(=O)C([H])(N([H])C([H])([H])[H])C([H])([H])[H])C(C([H])([H])[H])(C([H])([H])[H])C([H])([H])[H])C([H])(C(=O)N([H])C1([H])c3c([H])c([H])c([H])c([H])c3C([H])([H])C([H])([H])C1([H])[H])C2([H])[H])C([H])([H])[H])=C(C([H])([H])[H])C1([H])C([H])(C([H])([H])C(=O)N2C([H])([H])C([H])([H])C([H])([H])C([H])(n3nc(-c4c([H])c([H])c(Oc5c([H])c([H])c(F)c([H])c5F)c([H])c4[H])c(C(=O)N([H])[H])c3N([H])[H])C2([H])[H])C2([H])C([H])([H])C1([H])C2(C([H])([H])[H])C([H])([H])[H]

$$$$
35:0:0
     RDKit          3D

 90 98  0  0  1  0  0  0  0  0999 V2000
  -29.7230  -19.1360   20.0730 C   0  0  0  0  0  3  0  0  0  0  0  0
  -28.2830  -17.1040   20.9760 C   0  0  0  0  0  1  0  0  0  0  0  0
  -28.7370  -17.2680   18.5210 C   0  0  0  0  0  1  0  0  0  0  0  0
  -29.3860  -17.2870   19.9170 C   0  0  1  0  0  0  0  0  0  0  0  0
  -30.3170  -15.6890   19.9260 C   0  0  0  0  0  0  0  0  0  0  0  0
  -30.4510  -13.1500   19.1880 C   0  0  0  0  0  2  0  0  0  0  0  0
  -29.5080  -12.7840   18.0060 C   0  0  0  0  0  2  0  0  0  0  0  0
  -28.0820  -12.4580   18.4900 C   0  0  0  0  0  2  0  0  0  0  0  0
  -27.6190  -13.4480   19.5840 C   0  0  0  0  0  3  0  0  0  0  0  0
  -28.6970  -13.6980   20.6590 C   0  0  0  0  0  2  0  0  0  0  0  0
  -29.8630  -14.3090   19.9790 N   0  0  0  0  0  0  0  0  0  0  0  0
  -31.5390  -15.6850   19.6850 O   0  0  0  0  0  0  0  0  0  0  0  0
  -25.2900  -13.9930   20.4620 C   0  0  0  0  0  0  0  0  0  0  0  0
  -24.2440  -13.2120   20.8610 C   0  0  0  0  0  0  0  0  0  0  0  0
  -24.7000  -11.8620   20.7640 C   0  0  0  0  0  0  0  0  0  0  0  0
  -26.3160  -13.1200   20.1460 N   0  0  0  0  0  0  0  0  0  0  0  0
  -25.9750  -11.8290   20.3920 N   0  0  0  0  0  0  0  0  0  0  0  0
  -23.9690  -10.6010   20.9440 C   0  0  0  0  0  0  0  0  0  0  0  0
  -24.4160   -9.6090   21.8430 C   0  0  0  0  0  3  0  0  0  0  0  0
  -23.6810   -8.4150   22.0160 C   0  0  0  0  0  3  0  0  0  0  0  0
  -22.4840   -8.2070   21.2890 C   0  0  0  0  0  0  0  0  0  0  0  0
  -22.0570   -9.1890   20.3780 C   0  0  0  0  0  3  0  0  0  0  0  0
  -22.7920  -10.3720   20.2030 C   0  0  0  0  0  3  0  0  0  0  0  0
  -21.7190   -7.0690   21.3730 O   0  0  0  0  0  0  0  0  0  0  0  0
  -21.6680   -6.3200   22.5220 C   0  0  0  0  0  0  0  0  0  0  0  0
  -21.2210   -6.8630   23.7470 C   0  0  0  0  0  3  0  0  0  0  0  0
  -21.1180   -6.0390   24.8850 C   0  0  0  0  0  3  0  0  0  0  0  0
  -21.4540   -4.6740   24.8000 C   0  0  0  0  0  0  0  0  0  0  0  0
  -21.8940   -4.1320   23.5810 C   0  0  0  0  0  3  0  0  0  0  0  0
  -22.0000   -4.9520   22.4440 C   0  0  0  0  0  0  0  0  0  0  0  0
  -22.4040   -4.4210   21.2660 F   0  0  0  0  0  0  0  0  0  0  0  0
  -21.3470   -3.8810   25.8910 F   0  0  0  0  0  0  0  0  0  0  0  0
  -22.8650  -13.6930   21.2070 C   0  0  0  0  0  0  0  0  0  0  0  0
  -22.1790  -12.9910   22.1010 N   0  0  0  0  0  0  0  0  0  0  0  0
  -22.4090  -14.7270   20.7190 O   0  0  0  0  0  0  0  0  0  0  0  0
  -22.5600  -12.1540   22.5150 H   0  0  0  0  0  0  0  0  0  0  0  0
  -21.2550  -13.2970   22.3760 H   0  0  0  0  0  0  0  0  0  0  0  0
  -25.4410  -15.3670   20.3090 N   0  0  0  0  0  0  0  0  0  0  0  0
  -24.6820  -16.0170   20.4850 H   0  0  0  0  0  0  0  0  0  0  0  0
  -26.2760  -15.8200   19.9620 H   0  0  0  0  0  0  0  0  0  0  0  0
  -31.3750  -19.6560   21.7350 C   0  0  0  0  0  0  0  0  0  0  0  0
  -32.5100  -19.8910   20.7570 C   0  0  0  0  0  1  0  0  0  0  0  0
  -30.1830  -19.3180   21.4420 N   0  0  0  0  0  0  0  0  0  0  0  0
  -31.9290  -21.2500   23.7600 C   0  0  0  0  0  2  0  0  0  0  0  0
  -30.7960  -20.3710   24.2310 C   0  0  0  0  0  2  0  0  0  0  0  0
  -31.7670  -19.8610   23.1860 C   0  0  0  0  0  3  0  0  0  0  0  0
  -28.7400  -20.7150   19.7860 C   0  0  0  0  0  2  0  0  0  0  0  0
  -28.9450  -22.5710   20.0080 C   0  0  0  0  0  3  0  0  0  0  0  0
  -27.9470  -24.1500   19.7760 C   0  0  0  0  0  3  0  0  0  0  0  0
  -28.1220  -25.8380   19.9700 O   0  0  0  0  0  0  0  0  0  0  0  0
  -24.5360  -31.8620   23.0620 C   0  0  0  0  0  0  0  0  0  0  0  0
  -27.1110  -26.9780   19.9360 C   0  0  0  0  0  0  0  0  0  0  0  0
  -23.3470  -30.4840   21.4060 C   0  0  0  0  0  3  0  0  0  0  0  0
  -24.8020  -28.9040   19.9440 C   0  0  0  0  0  0  0  0  0  0  0  0
  -25.9170  -30.6950   21.2530 C   0  0  0  0  0  2  0  0  0  0  0  0
  -25.9940  -29.2890   20.5670 C   0  0  0  0  0  0  0  0  0  0  0  0
  -27.1370  -28.3500   20.5340 C   0  0  0  0  0  3  0  0  0  0  0  0
  -25.8820  -26.7730   19.2650 C   0  0  0  0  0  3  0  0  0  0  0  0
  -24.7760  -27.6690   19.2720 C   0  0  0  0  0  3  0  0  0  0  0  0
  -23.5770  -29.8240   20.0180 C   0  0  0  0  0  2  0  0  0  0  0  0
  -24.6230  -31.0440   21.9600 N   0  0  0  0  0  0  0  0  0  0  0  0
  -23.4460  -32.1340   23.5920 O   0  0  0  0  0  0  0  0  0  0  0  0
  -22.6600  -29.4720   22.3610 C   0  0  0  0  0  0  0  0  0  0  0  0
  -21.3260  -29.3200   22.2600 N   0  0  0  0  0  0  0  0  0  0  0  0
  -23.3370  -28.8230   23.1620 O   0  0  0  0  0  0  0  0  0  0  0  0
  -20.8320  -29.8970   21.5930 H   0  0  0  0  0  0  0  0  0  0  0  0
  -17.9440  -28.1250   22.8310 C   0  0  0  0  0  0  0  0  0  0  0  0
  -20.5150  -28.3620   23.0210 C   0  0  0  0  0  3  0  0  0  0  0  0
  -20.5830  -26.9510   22.3910 C   0  0  0  0  0  2  0  0  0  0  0  0
  -19.4460  -26.6770   21.4000 C   0  0  0  0  0  2  0  0  0  0  0  0
  -18.0870  -26.8040   22.0940 C   0  0  0  0  0  2  0  0  0  0  0  0
  -19.0830  -28.8630   23.2520 C   0  0  0  0  0  0  0  0  0  0  0  0
  -18.8900  -30.0980   23.9100 C   0  0  0  0  0  3  0  0  0  0  0  0
  -17.5950  -30.5960   24.1450 C   0  0  0  0  0  3  0  0  0  0  0  0
  -16.4720  -29.8540   23.7370 C   0  0  0  0  0  3  0  0  0  0  0  0
  -16.6480  -28.6200   23.0860 C   0  0  0  0  0  3  0  0  0  0  0  0
  -25.8000  -32.5090   23.7050 C   0  0  0  0  0  3  0  0  0  0  0  0
  -25.4720  -33.9040   24.0550 N   0  0  0  0  0  0  0  0  0  0  0  0
  -25.8210  -34.9810   23.3380 C   0  0  0  0  0  0  0  0  0  0  0  0
  -26.5090  -34.9050   22.3180 O   0  0  0  0  0  0  0  0  0  0  0  0
  -24.8580  -34.0350   24.8450 H   0  0  0  0  0  0  0  0  0  0  0  0
  -24.1130  -36.8030   22.9960 C   0  0  0  0  0  1  0  0  0  0  0  0
  -25.3280  -36.3610   23.8260 C   0  0  0  0  0  3  0  0  0  0  0  0
  -27.4390  -37.2160   24.7480 C   0  0  0  0  0  1  0  0  0  0  0  0
  -26.3700  -37.4110   23.7740 N   0  0  0  0  0  0  0  0  0  0  0  0
  -25.9630  -38.3300   23.9280 H   0  0  0  0  0  0  0  0  0  0  0  0
  -26.3070  -31.7380   24.9860 C   0  0  1  0  0  0  0  0  0  0  0  0
  -25.2060  -31.4980   26.0470 C   0  0  0  0  0  1  0  0  0  0  0  0
  -26.8930  -30.3600   24.6050 C   0  0  0  0  0  1  0  0  0  0  0  0
  -27.4530  -32.5320   25.6570 C   0  0  0  0  0  1  0  0  0  0  0  0
  1 47  1  0
  1 43  1  0
  4  3  1  6
  4  5  1  0
  4  1  1  0
  4  2  1  0
  5 11  1  0
  6 11  1  0
  7  8  1  0
  7  6  1  0
  9  8  1  0
  9 16  1  0
  9 10  1  0
 11 10  1  0
 12  5  2  0
 13 14  2  0
 14 33  1  0
 15 14  1  0
 15 18  1  0
 16 17  1  0
 16 13  1  0
 17 15  2  0
 18 19  1  0
 19 20  2  0
 21 24  1  0
 21 20  1  0
 22 21  2  0
 23 22  1  0
 23 18  2  0
 24 25  1  0
 25 26  1  0
 26 27  2  0
 28 27  1  0
 28 32  1  0
 29 28  2  0
 30 25  2  0
 30 29  1  0
 31 30  1  0
 33 34  1  0
 34 37  1  0
 34 36  1  0
 35 33  2  0
 38 13  1  0
 38 39  1  0
 40 38  1  0
 41 46  1  0
 42 41  1  0
 43 41  2  0
 44 45  1  0
 46 44  1  0
 46 45  1  0
 47 48  1  0
 49 50  1  0
 49 48  2  0
 51 62  2  0
 52 50  1  0
 52 57  1  0
 53 61  1  0
 53 63  1  0
 54 60  1  0
 54 56  1  0
 55 61  1  0
 56 55  1  0
 57 56  2  0
 58 59  1  0
 58 52  2  0
 59 54  2  0
 60 53  1  0
 61 51  1  0
 63 65  2  0
 64 63  1  0
 66 64  1  0
 67 76  2  0
 67 72  1  0
 68 64  1  0
 68 72  1  0
 69 68  1  0
 70 71  1  0
 70 69  1  0
 71 67  1  0
 72 73  2  0
 73 74  1  0
 75 74  2  0
 76 75  1  0
 77 51  1  0
 77 78  1  0
 77 87  1  0
 78 81  1  0
 79 83  1  0
 79 78  1  0
 80 79  2  0
 83 82  1  0
 85 83  1  0
 85 86  1  0
 85 84  1  0
 87 90  1  1
 87 88  1  0
 89 87  1  0
M  ISO  4   4 100   5 100  49 101  50 101
M  END
>  <TORSDO>  (36) 
F 22

>  <SCORE>  (36) 
-15.956

>  <name>  (36) 
35

>  <ligand_id>  (36) 
35

>  <original_smiles>  (36) 
[H]c1c([H])c([H])c2c(c1[H])C([H])([H])C([H])([H])C([H])([H])C2([H])N([H])C(=O)C1([H])N(C(=O)C([H])(N([H])C(=O)C([H])(N([H])C([H])([H])[H])C([H])([H])[H])C(C([H])([H])[H])(C([H])([H])[H])C([H])([H])[H])C([H])([H])c2c([H])c(OC([H])([H])C([H])([H])C([H])([H])C([H])(N=C(C([H])([H])[H])C3([H])C([H])([H])C3([H])[H])C(C(=O)N3C([H])([H])C([H])([H])C([H])([H])C([H])(n4nc(-c5c([H])c([H])c(Oc6c([H])c([H])c(F)c([H])c6F)c([H])c5[H])c(C(=O)N([H])[H])c4N([H])[H])C3([H])[H])(C([H])([H])[H])C([H])([H])[H])c([H])c([H])c2C1([H])[H]

>  <smiles>  (36) 
[H]c1c([H])c([H])c2c(c1[H])C([H])([H])C([H])([H])C([H])([H])C2([H])N([H])C(=O)C1([H])N(C(=O)C([H])(N([H])C(=O)C([H])(N([H])C([H])([H])[H])C([H])([H])[H])C(C([H])([H])[H])(C([H])([H])[H])C([H])([H])[H])C([H])([H])c2c([H])c(OC([H])([H])C([H])([H])C([H])([H])C([H])(N=C(C([H])([H])[H])C3([H])C([H])([H])C3([H])[H])C(C(=O)N3C([H])([H])C([H])([H])C([H])([H])C([H])(n4nc(-c5c([H])c([H])c(Oc6c([H])c([H])c(F)c([H])c6F)c([H])c5[H])c(C(=O)N([H])[H])c4N([H])[H])C3([H])[H])(C([H])([H])[H])C([H])([H])[H])c([H])c([H])c2C1([H])[H]

$$$$
36:0:0
     RDKit          3D

 89 97  0  0  1  0  0  0  0  0999 V2000
  -30.4800  -19.5090   20.6820 C   0  0  0  0  0  3  0  0  0  0  0  0
  -29.8790  -18.3320   20.4550 C   0  0  0  0  0  0  0  0  0  0  0  0
  -29.5130  -20.6050   20.6270 C   0  0  0  0  0  0  0  0  0  0  0  0
  -28.1380  -19.9870   20.3930 C   0  0  0  0  0  2  0  0  0  0  0  0
  -28.3810  -18.4610   20.2650 C   0  0  0  0  0  3  0  0  0  0  0  0
  -27.8910  -17.8910   18.9220 C   0  0  0  0  0  1  0  0  0  0  0  0
  -29.8200  -21.8470   20.7060 N   0  0  0  0  0  0  0  0  0  0  0  0
  -30.5990  -17.0050   20.2340 C   0  0  0  0  0  2  0  0  0  0  0  0
  -30.0670  -15.7580   20.9970 C   0  0  0  0  0  2  0  0  0  0  0  0
  -30.7370  -14.4700   20.4580 C   0  0  0  0  0  0  0  0  0  0  0  0
  -30.3990  -12.3260   19.2930 C   0  0  0  0  0  2  0  0  0  0  0  0
  -29.4740  -12.5690   18.0820 C   0  0  0  0  0  2  0  0  0  0  0  0
  -27.9950  -12.4450   18.4970 C   0  0  0  0  0  2  0  0  0  0  0  0
  -27.6580  -13.2720   19.7660 C   0  0  0  0  0  3  0  0  0  0  0  0
  -28.7050  -13.0430   20.8810 C   0  0  0  0  0  2  0  0  0  0  0  0
  -30.0370  -13.3110   20.3250 N   0  0  0  0  0  0  0  0  0  0  0  0
  -31.8820  -14.5840   20.0130 O   0  0  0  0  0  0  0  0  0  0  0  0
  -25.2520  -13.8880   20.4410 C   0  0  0  0  0  0  0  0  0  0  0  0
  -24.1790  -13.1200   20.8050 C   0  0  0  0  0  0  0  0  0  0  0  0
  -24.6410  -11.7680   20.7990 C   0  0  0  0  0  0  0  0  0  0  0  0
  -26.2990  -13.0040   20.2340 N   0  0  0  0  0  0  0  0  0  0  0  0
  -25.9350  -11.7240   20.5080 N   0  0  0  0  0  0  0  0  0  0  0  0
  -23.9120  -10.5080   20.9970 C   0  0  0  0  0  0  0  0  0  0  0  0
  -24.3400   -9.5470   21.9400 C   0  0  0  0  0  3  0  0  0  0  0  0
  -23.6110   -8.3530   22.1250 C   0  0  0  0  0  3  0  0  0  0  0  0
  -22.4410   -8.1100   21.3670 C   0  0  0  0  0  0  0  0  0  0  0  0
  -22.0340   -9.0580   20.4130 C   0  0  0  0  0  3  0  0  0  0  0  0
  -22.7620  -10.2450   20.2260 C   0  0  0  0  0  3  0  0  0  0  0  0
  -21.6860   -6.9650   21.4600 O   0  0  0  0  0  0  0  0  0  0  0  0
  -21.6360   -6.2280   22.6160 C   0  0  0  0  0  0  0  0  0  0  0  0
  -21.2140   -6.7890   23.8400 C   0  0  0  0  0  3  0  0  0  0  0  0
  -21.1110   -5.9780   24.9890 C   0  0  0  0  0  3  0  0  0  0  0  0
  -21.4210   -4.6070   24.9120 C   0  0  0  0  0  0  0  0  0  0  0  0
  -21.8380   -4.0450   23.6920 C   0  0  0  0  0  3  0  0  0  0  0  0
  -21.9410   -4.8540   22.5470 C   0  0  0  0  0  0  0  0  0  0  0  0
  -22.3220   -4.3030   21.3690 F   0  0  0  0  0  0  0  0  0  0  0  0
  -21.3160   -3.8260   26.0130 F   0  0  0  0  0  0  0  0  0  0  0  0
  -22.7790  -13.6000   21.0540 C   0  0  0  0  0  0  0  0  0  0  0  0
  -22.0400  -12.9160   21.9200 N   0  0  0  0  0  0  0  0  0  0  0  0
  -22.3460  -14.6190   20.5160 O   0  0  0  0  0  0  0  0  0  0  0  0
  -22.4010  -12.0910   22.3770 H   0  0  0  0  0  0  0  0  0  0  0  0
  -21.1000  -13.2200   22.1290 H   0  0  0  0  0  0  0  0  0  0  0  0
  -25.4210  -15.2560   20.2480 N   0  0  0  0  0  0  0  0  0  0  0  0
  -24.6540  -15.9130   20.3430 H   0  0  0  0  0  0  0  0  0  0  0  0
  -26.2810  -15.6910   19.9400 H   0  0  0  0  0  0  0  0  0  0  0  0
  -28.7630  -22.8300   20.4960 C   0  0  0  0  0  2  0  0  0  0  0  0
  -29.2740  -24.2950   20.5130 C   0  0  0  0  0  2  0  0  0  0  0  0
  -28.1530  -25.2390   20.0290 C   0  0  0  0  0  2  0  0  0  0  0  0
  -28.3650  -26.6560   20.1840 O   0  0  0  0  0  0  0  0  0  0  0  0
  -24.5920  -31.8780   23.2400 C   0  0  0  0  0  0  0  0  0  0  0  0
  -27.2120  -27.4260   20.1390 C   0  0  0  0  0  0  0  0  0  0  0  0
  -23.3790  -30.4860   21.5970 C   0  0  0  0  0  3  0  0  0  0  0  0
  -24.8260  -28.9600   20.1580 C   0  0  0  0  0  0  0  0  0  0  0  0
  -25.9100  -30.8350   21.3990 C   0  0  0  0  0  2  0  0  0  0  0  0
  -25.9900  -29.4690   20.7480 C   0  0  0  0  0  0  0  0  0  0  0  0
  -27.1860  -28.7110   20.7350 C   0  0  0  0  0  3  0  0  0  0  0  0
  -26.0250  -26.9520   19.5270 C   0  0  0  0  0  3  0  0  0  0  0  0
  -24.8380  -27.7010   19.5440 C   0  0  0  0  0  3  0  0  0  0  0  0
  -23.5850  -29.8200   20.2120 C   0  0  0  0  0  2  0  0  0  0  0  0
  -24.6450  -31.0800   22.1360 N   0  0  0  0  0  0  0  0  0  0  0  0
  -23.5120  -32.1510   23.7820 O   0  0  0  0  0  0  0  0  0  0  0  0
  -22.7290  -29.4600   22.5510 C   0  0  0  0  0  0  0  0  0  0  0  0
  -21.4020  -29.2820   22.4280 N   0  0  0  0  0  0  0  0  0  0  0  0
  -23.4120  -28.8270   23.3610 O   0  0  0  0  0  0  0  0  0  0  0  0
  -20.9130  -29.8450   21.7470 H   0  0  0  0  0  0  0  0  0  0  0  0
  -18.0240  -28.1050   22.9350 C   0  0  0  0  0  0  0  0  0  0  0  0
  -20.5850  -28.3440   23.1960 C   0  0  0  0  0  3  0  0  0  0  0  0
  -20.6760  -26.9160   22.6110 C   0  0  0  0  0  2  0  0  0  0  0  0
  -19.5660  -26.6070   21.6010 C   0  0  0  0  0  2  0  0  0  0  0  0
  -18.1880  -26.7580   22.2520 C   0  0  0  0  0  2  0  0  0  0  0  0
  -19.1490  -28.8560   23.3650 C   0  0  0  0  0  0  0  0  0  0  0  0
  -18.9420  -30.1190   23.9630 C   0  0  0  0  0  3  0  0  0  0  0  0
  -17.6430  -30.6280   24.1360 C   0  0  0  0  0  3  0  0  0  0  0  0
  -16.5310  -29.8730   23.7250 C   0  0  0  0  0  3  0  0  0  0  0  0
  -16.7220  -28.6130   23.1300 C   0  0  0  0  0  3  0  0  0  0  0  0
  -25.8810  -32.5030   23.8580 C   0  0  0  0  0  3  0  0  0  0  0  0
  -25.5760  -33.9010   24.1900 N   0  0  0  0  0  0  0  0  0  0  0  0
  -25.9080  -34.9530   23.4280 C   0  0  0  0  0  0  0  0  0  0  0  0
  -26.5740  -34.8480   22.3940 O   0  0  0  0  0  0  0  0  0  0  0  0
  -24.9860  -34.0570   24.9930 H   0  0  0  0  0  0  0  0  0  0  0  0
  -24.1830  -36.7490   23.0760 C   0  0  0  0  0  1  0  0  0  0  0  0
  -25.4240  -36.3410   23.8860 C   0  0  0  0  0  3  0  0  0  0  0  0
  -27.5610  -37.2210   24.7140 C   0  0  0  0  0  1  0  0  0  0  0  0
  -26.4580  -37.3920   23.7710 N   0  0  0  0  0  0  0  0  0  0  0  0
  -26.0540  -38.3130   23.9190 H   0  0  0  0  0  0  0  0  0  0  0  0
  -26.4000  -31.7270   25.1300 C   0  0  1  0  0  0  0  0  0  0  0  0
  -25.3100  -31.4890   26.2010 C   0  0  0  0  0  1  0  0  0  0  0  0
  -26.9790  -30.3500   24.7320 C   0  0  0  0  0  1  0  0  0  0  0  0
  -27.5530  -32.5170   25.7910 C   0  0  0  0  0  1  0  0  0  0  0  0
  2  1  2  0
  3  1  1  0
  3  7  2  0
  4  3  1  0
  5  6  1  0
  5  4  1  0
  5  2  1  0
  8  2  1  0
  8  9  1  0
 10  9  1  0
 11 16  1  0
 12 13  1  0
 12 11  1  0
 14 13  1  0
 14 21  1  0
 14 15  1  0
 16 10  1  0
 16 15  1  0
 17 10  2  0
 18 19  2  0
 19 38  1  0
 20 19  1  0
 20 23  1  0
 21 18  1  0
 21 22  1  0
 22 20  2  0
 23 24  1  0
 24 25  2  0
 26 29  1  0
 26 25  1  0
 27 26  2  0
 28 27  1  0
 28 23  2  0
 29 30  1  0
 30 31  1  0
 31 32  2  0
 33 32  1  0
 33 37  1  0
 34 33  2  0
 35 30  2  0
 35 34  1  0
 36 35  1  0
 38 39  1  0
 39 42  1  0
 39 41  1  0
 40 38  2  0
 43 44  1  0
 43 18  1  0
 45 43  1  0
 46 47  1  0
 46  7  1  0
 48 49  1  0
 48 47  1  0
 50 61  2  0
 51 49  1  0
 51 56  1  0
 52 60  1  0
 52 62  1  0
 53 59  1  0
 53 55  1  0
 54 60  1  0
 55 54  1  0
 56 55  2  0
 57 58  1  0
 57 51  2  0
 58 53  2  0
 59 52  1  0
 60 50  1  0
 62 64  2  0
 63 62  1  0
 65 63  1  0
 66 75  2  0
 66 71  1  0
 67 63  1  0
 67 71  1  0
 68 67  1  0
 69 70  1  0
 69 68  1  0
 70 66  1  0
 71 72  2  0
 72 73  1  0
 74 73  2  0
 75 74  1  0
 76 50  1  0
 76 77  1  0
 76 86  1  0
 77 80  1  0
 78 82  1  0
 78 77  1  0
 79 78  2  0
 82 81  1  0
 84 82  1  0
 84 85  1  0
 84 83  1  0
 86 89  1  1
 86 87  1  0
 88 86  1  0
M  ISO  4   9 100  10 100  48 101  49 101
M  END
>  <TORSDO>  (37) 
F 21

>  <SCORE>  (37) 
-13.740

>  <name>  (37) 
36

>  <ligand_id>  (37) 
36

>  <original_smiles>  (37) 
[H]C1=C(C([H])([H])C([H])([H])C(=O)N2C([H])([H])C([H])([H])C([H])([H])C([H])(n3nc(-c4c([H])c([H])c(Oc5c([H])c([H])c(F)c([H])c5F)c([H])c4[H])c(C(=O)N([H])[H])c3N([H])[H])C2([H])[H])C([H])(C([H])([H])[H])C([H])([H])C1=NC([H])([H])C([H])([H])C([H])([H])Oc1c([H])c([H])c2c(c1[H])C([H])([H])N(C(=O)C([H])(N([H])C(=O)C([H])(N([H])C([H])([H])[H])C([H])([H])[H])C(C([H])([H])[H])(C([H])([H])[H])C([H])([H])[H])C([H])(C(=O)N([H])C1([H])c3c([H])c([H])c([H])c([H])c3C([H])([H])C([H])([H])C1([H])[H])C2([H])[H]

>  <smiles>  (37) 
[H]C1=C(C([H])([H])C([H])([H])C(=O)N2C([H])([H])C([H])([H])C([H])([H])C([H])(n3nc(-c4c([H])c([H])c(Oc5c([H])c([H])c(F)c([H])c5F)c([H])c4[H])c(C(=O)N([H])[H])c3N([H])[H])C2([H])[H])C([H])(C([H])([H])[H])C([H])([H])C1=NC([H])([H])C([H])([H])C([H])([H])Oc1c([H])c([H])c2c(c1[H])C([H])([H])N(C(=O)C([H])(N([H])C(=O)C([H])(N([H])C([H])([H])[H])C([H])([H])[H])C(C([H])([H])[H])(C([H])([H])[H])C([H])([H])[H])C([H])(C(=O)N([H])C1([H])c3c([H])c([H])c([H])c([H])c3C([H])([H])C([H])([H])C1([H])[H])C2([H])[H]

$$$$
37:0:0
     RDKit          3D

 86 95  0  0  1  0  0  0  0  0999 V2000
  -31.4110  -19.6280   19.3200 C   0  0  0  0  0  2  0  0  0  0  0  0
  -30.9800  -19.4230   20.7670 C   0  0  0  0  0  2  0  0  0  0  0  0
  -29.5380  -21.5690   18.9270 C   0  0  0  0  0  2  0  0  0  0  0  0
  -28.4800  -20.5050   20.7090 C   0  0  0  0  0  2  0  0  0  0  0  0
  -29.9590  -19.9830   19.0090 C   0  0  0  0  0  3  0  0  0  0  0  0
  -28.8400  -22.1990   20.2140 C   0  0  0  0  0  3  0  0  0  0  0  0
  -29.5440  -19.1340   20.2870 C   0  0  1  0  0  0  0  0  0  0  0  0
  -29.3080  -17.2220   20.3580 C   0  0  0  0  0  2  0  0  0  0  0  0
  -30.2110  -15.6050   20.2250 C   0  0  0  0  0  0  0  0  0  0  0  0
  -30.3570  -13.0640   19.4370 C   0  0  0  0  0  2  0  0  0  0  0  0
  -29.4720  -12.7190   18.2030 C   0  0  0  0  0  2  0  0  0  0  0  0
  -28.0340  -12.3810   18.6280 C   0  0  0  0  0  2  0  0  0  0  0  0
  -27.5180  -13.3700   19.6990 C   0  0  0  0  0  3  0  0  0  0  0  0
  -28.5370  -13.6360   20.8290 C   0  0  0  0  0  2  0  0  0  0  0  0
  -29.7430  -14.2270   20.2140 N   0  0  0  0  0  0  0  0  0  0  0  0
  -31.4390  -15.5890   20.0090 O   0  0  0  0  0  0  0  0  0  0  0  0
  -25.1420  -13.8920   20.4350 C   0  0  0  0  0  0  0  0  0  0  0  0
  -24.0850  -13.1050   20.7990 C   0  0  0  0  0  0  0  0  0  0  0  0
  -24.5690  -11.7600   20.7850 C   0  0  0  0  0  0  0  0  0  0  0  0
  -26.1960  -13.0280   20.2050 N   0  0  0  0  0  0  0  0  0  0  0  0
  -25.8660  -11.7400   20.4870 N   0  0  0  0  0  0  0  0  0  0  0  0
  -23.8520  -10.4920   20.9800 C   0  0  0  0  0  0  0  0  0  0  0  0
  -24.2780   -9.5390   21.9300 C   0  0  0  0  0  3  0  0  0  0  0  0
  -23.5560   -8.3390   22.1140 C   0  0  0  0  0  3  0  0  0  0  0  0
  -22.3950   -8.0850   21.3480 C   0  0  0  0  0  0  0  0  0  0  0  0
  -21.9870   -9.0270   20.3880 C   0  0  0  0  0  3  0  0  0  0  0  0
  -22.7090  -10.2180   20.2020 C   0  0  0  0  0  3  0  0  0  0  0  0
  -21.6460   -6.9360   21.4400 O   0  0  0  0  0  0  0  0  0  0  0  0
  -21.5810   -6.2080   22.6010 C   0  0  0  0  0  0  0  0  0  0  0  0
  -21.1270   -6.7760   23.8110 C   0  0  0  0  0  3  0  0  0  0  0  0
  -21.0110   -5.9740   24.9650 C   0  0  0  0  0  3  0  0  0  0  0  0
  -21.3390   -4.6060   24.9090 C   0  0  0  0  0  0  0  0  0  0  0  0
  -21.7860   -4.0390   23.7030 C   0  0  0  0  0  3  0  0  0  0  0  0
  -21.9040   -4.8370   22.5520 C   0  0  0  0  0  0  0  0  0  0  0  0
  -22.3150   -4.2810   21.3880 F   0  0  0  0  0  0  0  0  0  0  0  0
  -21.2220   -3.8340   26.0140 F   0  0  0  0  0  0  0  0  0  0  0  0
  -22.6800  -13.5700   21.0430 C   0  0  0  0  0  0  0  0  0  0  0  0
  -21.9490  -12.8860   21.9150 N   0  0  0  0  0  0  0  0  0  0  0  0
  -22.2390  -14.5790   20.4940 O   0  0  0  0  0  0  0  0  0  0  0  0
  -22.3200  -12.0730   22.3820 H   0  0  0  0  0  0  0  0  0  0  0  0
  -21.0050  -13.1820   22.1180 H   0  0  0  0  0  0  0  0  0  0  0  0
  -25.2910  -15.2630   20.2480 N   0  0  0  0  0  0  0  0  0  0  0  0
  -24.5160  -15.9100   20.3520 H   0  0  0  0  0  0  0  0  0  0  0  0
  -26.1420  -15.7110   19.9350 H   0  0  0  0  0  0  0  0  0  0  0  0
  -27.9090  -23.8860   20.1350 C   0  0  0  0  0  2  0  0  0  0  0  0
  -28.1340  -25.6130   20.1680 O   0  0  0  0  0  0  0  0  0  0  0  0
  -24.6560  -31.8540   23.1320 C   0  0  0  0  0  0  0  0  0  0  0  0
  -27.1570  -26.8060   20.1300 C   0  0  0  0  0  0  0  0  0  0  0  0
  -23.4580  -30.4650   21.4950 C   0  0  0  0  0  3  0  0  0  0  0  0
  -24.8940  -28.8200   20.0790 C   0  0  0  0  0  0  0  0  0  0  0  0
  -26.0360  -30.6080   21.3650 C   0  0  0  0  0  2  0  0  0  0  0  0
  -26.0920  -29.1800   20.7070 C   0  0  0  0  0  0  0  0  0  0  0  0
  -27.2110  -28.2020   20.6990 C   0  0  0  0  0  3  0  0  0  0  0  0
  -25.9250  -26.6420   19.4510 C   0  0  0  0  0  3  0  0  0  0  0  0
  -24.8460  -27.5760   19.4260 C   0  0  0  0  0  3  0  0  0  0  0  0
  -23.6910  -29.7710   20.1240 C   0  0  0  0  0  2  0  0  0  0  0  0
  -24.7410  -31.0070   22.0510 N   0  0  0  0  0  0  0  0  0  0  0  0
  -23.5660  -32.1570   23.6460 O   0  0  0  0  0  0  0  0  0  0  0  0
  -22.7410  -29.4870   22.4650 C   0  0  0  0  0  0  0  0  0  0  0  0
  -21.4060  -29.3510   22.3520 N   0  0  0  0  0  0  0  0  0  0  0  0
  -23.3970  -28.8460   23.2890 O   0  0  0  0  0  0  0  0  0  0  0  0
  -20.9280  -29.9160   21.6650 H   0  0  0  0  0  0  0  0  0  0  0  0
  -18.0040  -28.2010   22.9040 C   0  0  0  0  0  0  0  0  0  0  0  0
  -20.5730  -28.4210   23.1260 C   0  0  0  0  0  3  0  0  0  0  0  0
  -20.6380  -26.9940   22.5330 C   0  0  0  0  0  2  0  0  0  0  0  0
  -19.5150  -26.7040   21.5330 C   0  0  0  0  0  2  0  0  0  0  0  0
  -18.1470  -26.8600   22.2030 C   0  0  0  0  0  2  0  0  0  0  0  0
  -19.1430  -28.9410   23.3230 C   0  0  0  0  0  0  0  0  0  0  0  0
  -18.9530  -30.1930   23.9470 C   0  0  0  0  0  3  0  0  0  0  0  0
  -17.6580  -30.7070   24.1490 C   0  0  0  0  0  3  0  0  0  0  0  0
  -16.5340  -29.9660   23.7440 C   0  0  0  0  0  3  0  0  0  0  0  0
  -16.7090  -28.7140   23.1280 C   0  0  0  0  0  3  0  0  0  0  0  0
  -25.9250  -32.4950   23.7730 C   0  0  0  0  0  3  0  0  0  0  0  0
  -25.6030  -33.8880   24.1360 N   0  0  0  0  0  0  0  0  0  0  0  0
  -25.9080  -34.9680   23.4030 C   0  0  0  0  0  0  0  0  0  0  0  0
  -26.5490  -34.8960   22.3510 O   0  0  0  0  0  0  0  0  0  0  0  0
  -25.0270  -34.0160   24.9550 H   0  0  0  0  0  0  0  0  0  0  0  0
  -24.1500  -36.7590   23.1690 C   0  0  0  0  0  1  0  0  0  0  0  0
  -25.4310  -36.3440   23.9130 C   0  0  0  0  0  3  0  0  0  0  0  0
  -27.5910  -37.2380   24.6680 C   0  0  0  0  0  1  0  0  0  0  0  0
  -26.4470  -37.4110   23.7760 N   0  0  0  0  0  0  0  0  0  0  0  0
  -26.0390  -38.3250   23.9590 H   0  0  0  0  0  0  0  0  0  0  0  0
  -26.4360  -31.7140   25.0480 C   0  0  1  0  0  0  0  0  0  0  0  0
  -25.3410  -31.4740   26.1130 C   0  0  0  0  0  1  0  0  0  0  0  0
  -27.0160  -30.3360   24.6590 C   0  0  0  0  0  1  0  0  0  0  0  0
  -27.5890  -32.5010   25.7160 C   0  0  0  0  0  1  0  0  0  0  0  0
  1  2  1  0
  3  6  1  0
  5  3  1  0
  5  1  1  0
  5  7  1  0
  6 45  1  0
  6  4  1  0
  7  8  1  6
  7  4  1  0
  7  2  1  0
  9  8  1  0
 10 15  1  0
 11 12  1  0
 11 10  1  0
 13 12  1  0
 13 20  1  0
 13 14  1  0
 15  9  1  0
 15 14  1  0
 16  9  2  0
 17 18  2  0
 18 37  1  0
 19 18  1  0
 19 22  1  0
 20 17  1  0
 20 21  1  0
 21 19  2  0
 22 23  1  0
 23 24  2  0
 25 28  1  0
 25 24  1  0
 26 25  2  0
 27 26  1  0
 27 22  2  0
 28 29  1  0
 29 30  1  0
 30 31  2  0
 32 31  1  0
 32 36  1  0
 33 32  2  0
 34 29  2  0
 34 33  1  0
 35 34  1  0
 37 38  1  0
 38 41  1  0
 38 40  1  0
 39 37  2  0
 42 43  1  0
 42 17  1  0
 44 42  1  0
 45 46  1  0
 47 58  2  0
 48 46  1  0
 48 53  1  0
 49 57  1  0
 49 59  1  0
 50 56  1  0
 50 52  1  0
 51 57  1  0
 52 51  1  0
 53 52  2  0
 54 48  2  0
 55 54  1  0
 55 50  2  0
 56 49  1  0
 57 47  1  0
 59 61  2  0
 60 59  1  0
 62 60  1  0
 63 72  2  0
 63 68  1  0
 64 60  1  0
 64 68  1  0
 65 64  1  0
 66 67  1  0
 66 65  1  0
 67 63  1  0
 68 69  2  0
 69 70  1  0
 71 70  2  0
 72 71  1  0
 73 47  1  0
 73 74  1  0
 73 83  1  0
 74 77  1  0
 75 79  1  0
 75 74  1  0
 76 75  2  0
 79 78  1  0
 81 79  1  0
 81 82  1  0
 81 80  1  0
 83 86  1  1
 83 84  1  0
 85 83  1  0
M  ISO  4   8 100   9 100  45 101  46 101
M  END
>  <TORSDO>  (38) 
F 18

>  <SCORE>  (38) 
-16.552

>  <name>  (38) 
37

>  <ligand_id>  (38) 
37

>  <original_smiles>  (38) 
[H]c1c([H])c([H])c2c(c1[H])C([H])([H])C([H])([H])C([H])([H])C2([H])N([H])C(=O)C1([H])N(C(=O)C([H])(N([H])C(=O)C([H])(N([H])C([H])([H])[H])C([H])([H])[H])C(C([H])([H])[H])(C([H])([H])[H])C([H])([H])[H])C([H])([H])c2c([H])c(OC([H])([H])C3([H])C([H])([H])C4([H])C([H])([H])C([H])([H])C4(C([H])([H])C(=O)N4C([H])([H])C([H])([H])C([H])([H])C([H])(n5nc(-c6c([H])c([H])c(Oc7c([H])c([H])c(F)c([H])c7F)c([H])c6[H])c(C(=O)N([H])[H])c5N([H])[H])C4([H])[H])C3([H])[H])c([H])c([H])c2C1([H])[H]

>  <smiles>  (38) 
[H]c1c([H])c([H])c2c(c1[H])C([H])([H])C([H])([H])C([H])([H])C2([H])N([H])C(=O)C1([H])N(C(=O)C([H])(N([H])C(=O)C([H])(N([H])C([H])([H])[H])C([H])([H])[H])C(C([H])([H])[H])(C([H])([H])[H])C([H])([H])[H])C([H])([H])c2c([H])c(OC([H])([H])C3([H])C([H])([H])C4([H])C([H])([H])C([H])([H])C4(C([H])([H])C(=O)N4C([H])([H])C([H])([H])C([H])([H])C([H])(n5nc(-c6c([H])c([H])c(Oc7c([H])c([H])c(F)c([H])c7F)c([H])c6[H])c(C(=O)N([H])[H])c5N([H])[H])C4([H])[H])C3([H])[H])c([H])c([H])c2C1([H])[H]

$$$$
38:0:0
     RDKit          3D

 86 94  0  0  1  0  0  0  0  0999 V2000
  -29.1850  -22.9290   19.9200 C   0  0  0  0  0  3  0  0  0  0  0  0
  -30.0370  -19.2520   21.5190 C   0  0  0  0  0  2  0  0  0  0  0  0
  -29.9970  -20.8530   21.4690 C   0  0  0  0  0  2  0  0  0  0  0  0
  -29.2130  -20.0050   19.4640 C   0  0  0  0  0  2  0  0  0  0  0  0
  -30.0410  -18.6270   20.0890 C   0  0  0  0  0  3  0  0  0  0  0  0
  -29.0930  -21.3240   20.3770 N   0  0  2  0  0  4  0  0  0  0  0  0
  -28.1640  -21.2410   20.7650 H   0  0  0  0  0  0  0  0  0  0  0  0
  -29.7240  -16.8590   19.9390 C   0  0  0  0  0  2  0  0  0  0  0  0
  -30.6490  -15.3740   19.8550 C   0  0  0  0  0  0  0  0  0  0  0  0
  -30.6330  -12.9310   18.9770 C   0  0  0  0  0  2  0  0  0  0  0  0
  -29.6380  -12.7690   17.7970 C   0  0  0  0  0  2  0  0  0  0  0  0
  -28.2120  -12.4930   18.3120 C   0  0  0  0  0  2  0  0  0  0  0  0
  -27.8290  -13.4360   19.4790 C   0  0  0  0  0  3  0  0  0  0  0  0
  -28.9390  -13.5440   20.5430 C   0  0  0  0  0  2  0  0  0  0  0  0
  -30.1440  -14.0440   19.8670 N   0  0  0  0  0  0  0  0  0  0  0  0
  -31.8520  -15.4190   19.5590 O   0  0  0  0  0  0  0  0  0  0  0  0
  -25.5180  -13.9840   20.4140 C   0  0  0  0  0  0  0  0  0  0  0  0
  -24.4770  -13.2010   20.8260 C   0  0  0  0  0  0  0  0  0  0  0  0
  -24.9280  -11.8500   20.7130 C   0  0  0  0  0  0  0  0  0  0  0  0
  -26.5320  -13.1120   20.0630 N   0  0  0  0  0  0  0  0  0  0  0  0
  -26.1940  -11.8190   20.3090 N   0  0  0  0  0  0  0  0  0  0  0  0
  -24.2050  -10.5850   20.9040 C   0  0  0  0  0  0  0  0  0  0  0  0
  -24.6130   -9.6360   21.8680 C   0  0  0  0  0  3  0  0  0  0  0  0
  -23.8860   -8.4400   22.0470 C   0  0  0  0  0  3  0  0  0  0  0  0
  -22.7380   -8.1810   21.2610 C   0  0  0  0  0  0  0  0  0  0  0  0
  -22.3480   -9.1180   20.2890 C   0  0  0  0  0  3  0  0  0  0  0  0
  -23.0760  -10.3060   20.1080 C   0  0  0  0  0  3  0  0  0  0  0  0
  -21.9880   -7.0320   21.3470 O   0  0  0  0  0  0  0  0  0  0  0  0
  -21.8240   -6.3650   22.5340 C   0  0  0  0  0  0  0  0  0  0  0  0
  -21.2000   -6.9690   23.6480 C   0  0  0  0  0  3  0  0  0  0  0  0
  -20.9920   -6.2260   24.8270 C   0  0  0  0  0  3  0  0  0  0  0  0
  -21.3960   -4.8780   24.8900 C   0  0  0  0  0  0  0  0  0  0  0  0
  -22.0120   -4.2740   23.7800 C   0  0  0  0  0  3  0  0  0  0  0  0
  -22.2220   -5.0150   22.6040 C   0  0  0  0  0  0  0  0  0  0  0  0
  -22.7980   -4.4220   21.5300 F   0  0  0  0  0  0  0  0  0  0  0  0
  -21.1880   -4.1610   26.0190 F   0  0  0  0  0  0  0  0  0  0  0  0
  -23.1050  -13.6770   21.2100 C   0  0  0  0  0  0  0  0  0  0  0  0
  -22.4280  -12.9480   22.0900 N   0  0  0  0  0  0  0  0  0  0  0  0
  -22.6470  -14.7290   20.7640 O   0  0  0  0  0  0  0  0  0  0  0  0
  -22.8150  -12.0960   22.4690 H   0  0  0  0  0  0  0  0  0  0  0  0
  -21.5100  -13.2450   22.3900 H   0  0  0  0  0  0  0  0  0  0  0  0
  -25.6830  -15.3590   20.2800 N   0  0  0  0  0  0  0  0  0  0  0  0
  -24.9360  -16.0180   20.4740 H   0  0  0  0  0  0  0  0  0  0  0  0
  -26.5140  -15.8000   19.9090 H   0  0  0  0  0  0  0  0  0  0  0  0
  -28.1950  -24.3580   20.3690 C   0  0  0  0  0  3  0  0  0  0  0  0
  -28.4010  -25.9900   20.2760 O   0  0  0  0  0  0  0  0  0  0  0  0
  -24.6420  -31.8670   23.1600 C   0  0  0  0  0  0  0  0  0  0  0  0
  -27.3520  -27.0440   20.2230 C   0  0  0  0  0  0  0  0  0  0  0  0
  -23.5080  -30.4460   21.5010 C   0  0  0  0  0  3  0  0  0  0  0  0
  -25.0140  -28.8630   20.1180 C   0  0  0  0  0  0  0  0  0  0  0  0
  -26.0690  -30.7110   21.4020 C   0  0  0  0  0  2  0  0  0  0  0  0
  -26.1810  -29.3020   20.7560 C   0  0  0  0  0  0  0  0  0  0  0  0
  -27.3480  -28.4140   20.7800 C   0  0  0  0  0  3  0  0  0  0  0  0
  -26.1520  -26.7540   19.5340 C   0  0  0  0  0  3  0  0  0  0  0  0
  -25.0220  -27.6100   19.4880 C   0  0  0  0  0  3  0  0  0  0  0  0
  -23.7770  -29.7610   20.1320 C   0  0  0  0  0  2  0  0  0  0  0  0
  -24.7600  -31.0350   22.0750 N   0  0  0  0  0  0  0  0  0  0  0  0
  -23.5380  -32.1380   23.6580 O   0  0  0  0  0  0  0  0  0  0  0  0
  -22.8130  -29.4400   22.4550 C   0  0  0  0  0  0  0  0  0  0  0  0
  -21.4880  -29.2590   22.3090 N   0  0  0  0  0  0  0  0  0  0  0  0
  -23.4730  -28.8220   23.2950 O   0  0  0  0  0  0  0  0  0  0  0  0
  -21.0100  -29.8080   21.6080 H   0  0  0  0  0  0  0  0  0  0  0  0
  -18.1170  -27.9920   22.7490 C   0  0  0  0  0  0  0  0  0  0  0  0
  -20.6650  -28.3110   23.0660 C   0  0  0  0  0  3  0  0  0  0  0  0
  -20.8100  -26.8780   22.5010 C   0  0  0  0  0  2  0  0  0  0  0  0
  -19.7350  -26.5300   21.4650 C   0  0  0  0  0  2  0  0  0  0  0  0
  -18.3380  -26.6460   22.0790 C   0  0  0  0  0  2  0  0  0  0  0  0
  -19.2110  -28.7800   23.1990 C   0  0  0  0  0  0  0  0  0  0  0  0
  -18.9510  -30.0360   23.7890 C   0  0  0  0  0  3  0  0  0  0  0  0
  -17.6320  -30.5070   23.9290 C   0  0  0  0  0  3  0  0  0  0  0  0
  -16.5540  -29.7170   23.4930 C   0  0  0  0  0  3  0  0  0  0  0  0
  -16.7970  -28.4600   22.9100 C   0  0  0  0  0  3  0  0  0  0  0  0
  -25.8890  -32.5310   23.8160 C   0  0  0  0  0  3  0  0  0  0  0  0
  -26.3780  -31.7780   25.1160 C   0  0  1  0  0  0  0  0  0  0  0  0
  -25.2530  -31.5230   26.1490 C   0  0  0  0  0  1  0  0  0  0  0  0
  -27.0060  -30.4120   24.7600 C   0  0  0  0  0  1  0  0  0  0  0  0
  -27.4890  -32.5990   25.8100 C   0  0  0  0  0  1  0  0  0  0  0  0
  -25.5410  -33.9250   24.1430 N   0  0  0  0  0  0  0  0  0  0  0  0
  -25.8910  -34.9950   23.4150 C   0  0  0  0  0  0  0  0  0  0  0  0
  -26.6040  -34.9110   22.4120 O   0  0  0  0  0  0  0  0  0  0  0  0
  -24.9120  -34.0590   24.9210 H   0  0  0  0  0  0  0  0  0  0  0  0
  -24.1780  -36.7920   22.9930 C   0  0  0  0  0  1  0  0  0  0  0  0
  -25.3710  -36.3750   23.8690 C   0  0  0  0  0  3  0  0  0  0  0  0
  -27.4410  -37.2600   24.8500 C   0  0  0  0  0  1  0  0  0  0  0  0
  -26.4040  -37.4340   23.8360 N   0  0  0  0  0  0  0  0  0  0  0  0
  -25.9860  -38.3510   23.9660 H   0  0  0  0  0  0  0  0  0  0  0  0
  1 45  2  0
  1  6  1  0
  3  2  1  0
  4  5  1  0
  4  6  1  0
  5  8  1  0
  5  2  1  0
  6  7  1  1
  6  3  1  0
  9 15  1  0
  9  8  1  0
 10 15  1  0
 11 12  1  0
 11 10  1  0
 13 12  1  0
 13 20  1  0
 13 14  1  0
 15 14  1  0
 16  9  2  0
 17 18  2  0
 18 37  1  0
 19 18  1  0
 19 22  1  0
 20 21  1  0
 20 17  1  0
 21 19  2  0
 22 23  1  0
 23 24  2  0
 25 28  1  0
 25 24  1  0
 26 25  2  0
 27 26  1  0
 27 22  2  0
 28 29  1  0
 29 34  2  0
 29 30  1  0
 30 31  2  0
 31 32  1  0
 32 36  1  0
 33 32  2  0
 34 33  1  0
 35 34  1  0
 37 38  1  0
 38 41  1  0
 38 40  1  0
 39 37  2  0
 42 17  1  0
 42 43  1  0
 44 42  1  0
 46 45  1  0
 47 58  2  0
 48 46  1  0
 48 53  1  0
 49 57  1  0
 49 59  1  0
 50 56  1  0
 50 52  1  0
 51 57  1  0
 52 53  2  0
 52 51  1  0
 54 48  2  0
 55 54  1  0
 55 50  2  0
 56 49  1  0
 57 47  1  0
 59 61  2  0
 60 59  1  0
 62 60  1  0
 63 72  2  0
 63 68  1  0
 64 60  1  0
 64 68  1  0
 65 64  1  0
 66 67  1  0
 66 65  1  0
 67 63  1  0
 68 69  2  0
 69 70  1  0
 71 70  2  0
 72 71  1  0
 73 47  1  0
 73 78  1  0
 73 74  1  0
 74 77  1  1
 74 75  1  0
 76 74  1  0
 78 81  1  0
 79 83  1  0
 79 78  1  0
 80 79  2  0
 83 82  1  0
 85 83  1  0
 85 86  1  0
 85 84  1  0
M  ISO  4   8 100   9 100  45 101  46 101
M  END
>  <TORSDO>  (39) 
F 19

>  <SCORE>  (39) 
-15.218

>  <name>  (39) 
38

>  <ligand_id>  (39) 
38

>  <original_smiles>  (39) 
[H]c1c([H])c([H])c2c(c1[H])C([H])([H])C([H])([H])C([H])([H])C2([H])N([H])C(=O)C1([H])N(C(=O)C([H])(N([H])C(=O)C([H])(N([H])C([H])([H])[H])C([H])([H])[H])C(C([H])([H])[H])(C([H])([H])[H])C([H])([H])[H])C([H])([H])c2c([H])c(OC([H])([H])C([H])([H])[N+]3([H])C([H])([H])C([H])([H])C([H])(C([H])([H])C(=O)N4C([H])([H])C([H])([H])C([H])([H])C([H])(n5nc(-c6c([H])c([H])c(Oc7c([H])c([H])c(F)c([H])c7F)c([H])c6[H])c(C(=O)N([H])[H])c5N([H])[H])C4([H])[H])C3([H])[H])c([H])c([H])c2C1([H])[H]

>  <smiles>  (39) 
[H]c1c([H])c([H])c2c(c1[H])C([H])([H])C([H])([H])C([H])([H])C2([H])N([H])C(=O)C1([H])N(C(=O)C([H])(N([H])C(=O)C([H])(N([H])C([H])([H])[H])C([H])([H])[H])C(C([H])([H])[H])(C([H])([H])[H])C([H])([H])[H])C([H])([H])c2c([H])c(OC([H])([H])C([H])([H])[N+]3([H])C([H])([H])C([H])([H])C([H])(C([H])([H])C(=O)N4C([H])([H])C([H])([H])C([H])([H])C([H])(n5nc(-c6c([H])c([H])c(Oc7c([H])c([H])c(F)c([H])c7F)c([H])c6[H])c(C(=O)N([H])[H])c5N([H])[H])C4([H])[H])C3([H])[H])c([H])c([H])c2C1([H])[H]

$$$$
39:0:0
     RDKit          3D

101109  0  0  1  0  0  0  0  0999 V2000
  -27.6660  -22.0250   20.9460 N   0  0  0  0  0  0  0  0  0  0  0  0
  -27.5920  -22.4800   21.8510 H   0  0  0  0  0  0  0  0  0  0  0  0
  -31.1860  -21.3130   20.0470 C   0  0  0  0  0  3  0  0  0  0  0  0
  -31.2310  -19.9080   20.1200 C   0  0  0  0  0  3  0  0  0  0  0  0
  -29.9890  -21.9950   20.3310 C   0  0  0  0  0  3  0  0  0  0  0  0
  -28.8720  -19.8730   20.7510 C   0  0  0  0  0  3  0  0  0  0  0  0
  -30.0750  -19.1800   20.4800 C   0  0  0  0  0  0  0  0  0  0  0  0
  -28.8240  -21.2830   20.6800 C   0  0  0  0  0  0  0  0  0  0  0  0
  -28.8760  -17.1080   21.3010 C   0  0  0  0  0  1  0  0  0  0  0  0
  -30.1230  -17.6600   20.5870 C   0  0  0  0  0  3  0  0  0  0  0  0
  -30.2960  -17.0680   19.2410 N   0  0  0  0  0  4  0  0  0  0  0  0
  -29.5070  -16.4810   19.0350 H   0  0  0  0  0  0  0  0  0  0  0  0
  -30.2650  -17.8370   18.5900 H   0  0  0  0  0  0  0  0  0  0  0  0
  -31.5790  -16.3550   19.0140 C   0  0  0  0  0  2  0  0  0  0  0  0
  -32.0080  -15.4280   20.1770 C   0  0  0  0  0  2  0  0  0  0  0  0
  -32.3560  -13.9920   19.7450 C   0  0  0  0  0  0  0  0  0  0  0  0
  -32.0350  -11.5500   19.9540 C   0  0  0  0  0  2  0  0  0  0  0  0
  -31.1690  -10.9640   18.8270 C   0  0  0  0  0  2  0  0  0  0  0  0
  -29.6730  -11.0640   19.1800 C   0  0  0  0  0  2  0  0  0  0  0  0
  -29.2740  -12.4880   19.6430 C   0  0  0  0  0  3  0  0  0  0  0  0
  -30.2480  -13.0120   20.7230 C   0  0  0  0  0  2  0  0  0  0  0  0
  -31.6200  -12.9410   20.1910 N   0  0  0  0  0  0  0  0  0  0  0  0
  -33.3670  -13.8410   19.0510 O   0  0  0  0  0  0  0  0  0  0  0  0
  -27.0770  -13.6270   20.3490 C   0  0  0  0  0  0  0  0  0  0  0  0
  -25.8550  -13.1180   20.7040 C   0  0  0  0  0  0  0  0  0  0  0  0
  -25.9900  -11.6960   20.6430 C   0  0  0  0  0  0  0  0  0  0  0  0
  -27.8880  -12.5300   20.1010 N   0  0  0  0  0  0  0  0  0  0  0  0
  -27.2370  -11.3640   20.3370 N   0  0  0  0  0  0  0  0  0  0  0  0
  -24.9900  -10.6330   20.8010 C   0  0  0  0  0  0  0  0  0  0  0  0
  -25.2270   -9.5160   21.6340 C   0  0  0  0  0  3  0  0  0  0  0  0
  -24.2450   -8.5130   21.7870 C   0  0  0  0  0  3  0  0  0  0  0  0
  -23.0090   -8.6210   21.1070 C   0  0  0  0  0  0  0  0  0  0  0  0
  -22.7870   -9.7210   20.2600 C   0  0  0  0  0  3  0  0  0  0  0  0
  -23.7670  -10.7170   20.1060 C   0  0  0  0  0  3  0  0  0  0  0  0
  -22.0060   -7.6830   21.1760 O   0  0  0  0  0  0  0  0  0  0  0  0
  -21.7770   -6.9580   22.3180 C   0  0  0  0  0  0  0  0  0  0  0  0
  -21.5360   -7.5810   23.5620 C   0  0  0  0  0  3  0  0  0  0  0  0
  -21.2350   -6.7990   24.6950 C   0  0  0  0  0  3  0  0  0  0  0  0
  -21.1650   -5.3970   24.5850 C   0  0  0  0  0  0  0  0  0  0  0  0
  -21.4000   -4.7750   23.3460 C   0  0  0  0  0  3  0  0  0  0  0  0
  -21.7030   -5.5540   22.2160 C   0  0  0  0  0  0  0  0  0  0  0  0
  -21.9070   -4.9520   21.0190 F   0  0  0  0  0  0  0  0  0  0  0  0
  -20.8690   -4.6440   25.6700 F   0  0  0  0  0  0  0  0  0  0  0  0
  -24.6010  -13.8980   20.9740 C   0  0  0  0  0  0  0  0  0  0  0  0
  -23.7000  -13.3520   21.7830 N   0  0  0  0  0  0  0  0  0  0  0  0
  -24.4350  -15.0220   20.5030 O   0  0  0  0  0  0  0  0  0  0  0  0
  -23.8390  -12.4370   22.1860 H   0  0  0  0  0  0  0  0  0  0  0  0
  -22.8560  -13.8620   22.0030 H   0  0  0  0  0  0  0  0  0  0  0  0
  -27.5700  -14.9220   20.1950 N   0  0  0  0  0  0  0  0  0  0  0  0
  -26.8660  -15.6520   20.2210 H   0  0  0  0  0  0  0  0  0  0  0  0
  -28.2030  -15.0620   19.4170 H   0  0  0  0  0  0  0  0  0  0  0  0
  -26.4660  -21.9790   20.1150 C   0  0  0  0  0  2  0  0  0  0  0  0
  -24.9670  -23.3350   18.5720 C   0  0  0  0  0  1  0  0  0  0  0  0
  -26.0610  -23.3910   19.6480 C   0  0  0  0  0  3  0  0  0  0  0  0
  -27.2500  -24.1110   19.1390 N   0  0  0  0  0  4  0  0  0  0  0  0
  -27.9460  -23.4100   18.9330 H   0  0  0  0  0  0  0  0  0  0  0  0
  -27.0010  -24.5710   18.2790 H   0  0  0  0  0  0  0  0  0  0  0  0
  -27.8430  -25.0950   20.0710 C   0  0  0  0  0  2  0  0  0  0  0  0
  -29.1030  -25.7560   19.4790 C   0  0  0  0  0  2  0  0  0  0  0  0
  -29.6890  -26.8840   20.3490 C   0  0  0  0  0  2  0  0  0  0  0  0
  -29.4310  -28.1810   19.8140 O   0  0  0  0  0  0  0  0  0  0  0  0
  -25.2490  -31.5750   24.4650 C   0  0  0  0  0  0  0  0  0  0  0  0
  -28.1930  -28.7030   20.0920 C   0  0  0  0  0  0  0  0  0  0  0  0
  -24.1240  -30.6990   22.4420 C   0  0  0  0  0  3  0  0  0  0  0  0
  -25.6700  -29.8560   20.5970 C   0  0  0  0  0  0  0  0  0  0  0  0
  -26.6020  -31.3310   22.3900 C   0  0  0  0  0  2  0  0  0  0  0  0
  -26.7880  -30.2610   21.3380 C   0  0  0  0  0  0  0  0  0  0  0  0
  -28.0510  -29.6810   21.0950 C   0  0  0  0  0  3  0  0  0  0  0  0
  -27.0680  -28.3240   19.3320 C   0  0  0  0  0  3  0  0  0  0  0  0
  -25.8020  -28.8780   19.5950 C   0  0  0  0  0  3  0  0  0  0  0  0
  -24.3580  -30.5330   20.9160 C   0  0  0  0  0  2  0  0  0  0  0  0
  -25.3430  -31.1970   23.1580 N   0  0  0  0  0  0  0  0  0  0  0  0
  -24.1650  -31.5530   25.0620 O   0  0  0  0  0  0  0  0  0  0  0  0
  -23.5910  -29.3630   23.0040 C   0  0  0  0  0  0  0  0  0  0  0  0
  -22.3420  -29.0250   22.6490 N   0  0  0  0  0  0  0  0  0  0  0  0
  -24.3020  -28.6450   23.7140 O   0  0  0  0  0  0  0  0  0  0  0  0
  -21.8210  -29.6720   22.0740 H   0  0  0  0  0  0  0  0  0  0  0  0
  -19.3210  -27.1180   22.1220 C   0  0  0  0  0  0  0  0  0  0  0  0
  -21.6470  -27.7950   23.0250 C   0  0  0  0  0  3  0  0  0  0  0  0
  -22.1940  -26.5840   22.2380 C   0  0  0  0  0  2  0  0  0  0  0  0
  -21.4110  -26.3020   20.9500 C   0  0  0  0  0  2  0  0  0  0  0  0
  -19.9370  -26.0230   21.2660 C   0  0  0  0  0  2  0  0  0  0  0  0
  -20.1250  -27.9610   22.9340 C   0  0  0  0  0  0  0  0  0  0  0  0
  -19.5080  -28.9880   23.6790 C   0  0  0  0  0  3  0  0  0  0  0  0
  -18.1140  -29.1780   23.6270 C   0  0  0  0  0  3  0  0  0  0  0  0
  -17.3200  -28.3310   22.8320 C   0  0  0  0  0  3  0  0  0  0  0  0
  -17.9220  -27.3030   22.0850 C   0  0  0  0  0  3  0  0  0  0  0  0
  -26.4950  -32.0730   25.2630 C   0  0  0  0  0  3  0  0  0  0  0  0
  -26.2380  -33.4630   25.6570 N   0  0  0  0  0  0  0  0  0  0  0  0
  -26.7890  -34.5350   25.0690 C   0  0  0  0  0  0  0  0  0  0  0  0
  -27.6310  -34.4470   24.1730 O   0  0  0  0  0  0  0  0  0  0  0  0
  -25.5140  -33.6140   26.3450 H   0  0  0  0  0  0  0  0  0  0  0  0
  -25.3540  -36.5280   24.5290 C   0  0  0  0  0  1  0  0  0  0  0  0
  -26.3300  -35.9240   25.5520 C   0  0  0  0  0  3  0  0  0  0  0  0
  -28.2770  -36.4930   26.9360 C   0  0  0  0  0  1  0  0  0  0  0  0
  -27.4490  -36.8630   25.7900 N   0  0  0  0  0  0  0  0  0  0  0  0
  -27.1010  -37.8060   25.9410 H   0  0  0  0  0  0  0  0  0  0  0  0
  -26.8220  -31.1830   26.5240 C   0  0  1  0  0  0  0  0  0  0  0  0
  -25.6070  -30.9500   27.4500 C   0  0  0  0  0  1  0  0  0  0  0  0
  -27.3570  -29.7990   26.0920 C   0  0  0  0  0  1  0  0  0  0  0  0
  -27.9410  -31.8490   27.3580 C   0  0  0  0  0  1  0  0  0  0  0  0
  1  2  1  0
  3  4  2  0
  3  5  1  0
  4  7  1  0
  5  8  2  0
  7 10  1  0
  7  6  2  0
  8  6  1  0
  8  1  1  0
 10  9  1  0
 11 10  1  0
 12 11  1  0
 13 11  1  0
 14 11  1  0
 14 15  1  0
 16 15  1  0
 16 22  1  0
 17 22  1  0
 18 19  1  0
 18 17  1  0
 20 19  1  0
 20 27  1  0
 20 21  1  0
 22 21  1  0
 23 16  2  0
 24 25  2  0
 25 44  1  0
 26 25  1  0
 26 29  1  0
 27 28  1  0
 27 24  1  0
 28 26  2  0
 29 30  1  0
 30 31  2  0
 32 35  1  0
 32 31  1  0
 33 32  2  0
 34 33  1  0
 34 29  2  0
 35 36  1  0
 36 37  1  0
 37 38  2  0
 39 38  1  0
 39 43  1  0
 40 39  2  0
 41 36  2  0
 41 40  1  0
 42 41  1  0
 44 45  1  0
 45 48  1  0
 45 47  1  0
 46 44  2  0
 49 50  1  0
 49 24  1  0
 51 49  1  0
 52  1  1  0
 54 53  1  0
 54 52  1  0
 55 54  1  0
 55 58  1  0
 56 55  1  0
 57 55  1  0
 59 58  1  0
 59 60  1  0
 61 63  1  0
 61 60  1  0
 62 73  2  0
 63 68  1  0
 64 74  1  0
 64 72  1  0
 65 71  1  0
 65 67  1  0
 66 72  1  0
 67 66  1  0
 68 67  2  0
 69 70  1  0
 69 63  2  0
 70 65  2  0
 71 64  1  0
 72 62  1  0
 74 76  2  0
 75 74  1  0
 77 75  1  0
 78 83  1  0
 79 75  1  0
 80 79  1  0
 81 82  1  0
 81 80  1  0
 82 78  1  0
 83 79  1  0
 83 84  2  0
 85 84  1  0
 86 85  2  0
 87 78  2  0
 87 86  1  0
 88 62  1  0
 88 89  1  0
 88 98  1  0
 89 92  1  0
 90 94  1  0
 90 89  1  0
 91 90  2  0
 94 93  1  0
 94 96  1  0
 96 97  1  0
 96 95  1  0
 98101  1  1
 98 99  1  0
100 98  1  0
M  ISO  4  15 100  16 100  60 101  61 101
M  END
>  <TORSDO>  (40) 
F 27

>  <SCORE>  (40) 
-6.905

>  <name>  (40) 
39

>  <ligand_id>  (40) 
39

>  <original_smiles>  (40) 
[H]c1c([H])c([H])c2c(c1[H])C([H])([H])C([H])([H])C([H])([H])C2([H])N([H])C(=O)C1([H])N(C(=O)C([H])(N([H])C(=O)C([H])(N([H])C([H])([H])[H])C([H])([H])[H])C(C([H])([H])[H])(C([H])([H])[H])C([H])([H])[H])C([H])([H])c2c([H])c(OC([H])([H])C([H])([H])C([H])([H])[N+]([H])([H])C([H])(C([H])([H])[H])C([H])([H])N([H])c3c([H])c([H])c([H])c(C([H])(C([H])([H])[H])[N+]([H])([H])C([H])([H])C([H])([H])C(=O)N4C([H])([H])C([H])([H])C([H])([H])C([H])(n5nc(-c6c([H])c([H])c(Oc7c([H])c([H])c(F)c([H])c7F)c([H])c6[H])c(C(=O)N([H])[H])c5N([H])[H])C4([H])[H])c3[H])c([H])c([H])c2C1([H])[H]

>  <smiles>  (40) 
[H]c1c([H])c([H])c2c(c1[H])C([H])([H])C([H])([H])C([H])([H])C2([H])N([H])C(=O)C1([H])N(C(=O)C([H])(N([H])C(=O)C([H])(N([H])C([H])([H])[H])C([H])([H])[H])C(C([H])([H])[H])(C([H])([H])[H])C([H])([H])[H])C([H])([H])c2c([H])c(OC([H])([H])C([H])([H])C([H])([H])[N+]([H])([H])C([H])(C([H])([H])[H])C([H])([H])N([H])c3c([H])c([H])c([H])c(C([H])(C([H])([H])[H])[N+]([H])([H])C([H])([H])C([H])([H])C(=O)N4C([H])([H])C([H])([H])C([H])([H])C([H])(n5nc(-c6c([H])c([H])c(Oc7c([H])c([H])c(F)c([H])c7F)c([H])c6[H])c(C(=O)N([H])[H])c5N([H])[H])C4([H])[H])c3[H])c([H])c([H])c2C1([H])[H]

$$$$
40:0:0
     RDKit          3D

 91 99  0  0  1  0  0  0  0  0999 V2000
  -29.5400  -20.0940   20.0200 N   0  0  0  0  0  4  0  0  0  0  0  0
  -30.4590  -20.2250   19.6290 H   0  0  0  0  0  0  0  0  0  0  0  0
  -28.9120  -19.9600   19.2440 H   0  0  0  0  0  0  0  0  0  0  0  0
  -29.1350  -21.3920   20.7130 C   0  0  0  0  0  3  0  0  0  0  0  0
  -29.0480  -22.7120   19.8170 C   0  0  0  0  0  3  0  0  0  0  0  0
  -28.6770  -24.1010   20.5160 C   0  0  0  0  0  3  0  0  0  0  0  0
  -28.6030  -25.3960   19.5940 C   0  0  0  0  0  3  0  0  0  0  0  0
  -28.4500  -26.7280   20.2180 O   0  0  0  0  0  0  0  0  0  0  0  0
  -24.5850  -31.9470   23.3020 C   0  0  0  0  0  0  0  0  0  0  0  0
  -27.2780  -27.4960   20.1650 C   0  0  0  0  0  0  0  0  0  0  0  0
  -23.4060  -30.5700   21.6230 C   0  0  0  0  0  3  0  0  0  0  0  0
  -24.8830  -29.0650   20.1770 C   0  0  0  0  0  0  0  0  0  0  0  0
  -25.9410  -30.9260   21.4630 C   0  0  0  0  0  2  0  0  0  0  0  0
  -26.0390  -29.5620   20.7890 C   0  0  0  0  0  0  0  0  0  0  0  0
  -27.2350  -28.7890   20.7730 C   0  0  0  0  0  3  0  0  0  0  0  0
  -26.0900  -27.0380   19.5490 C   0  0  0  0  0  3  0  0  0  0  0  0
  -24.9090  -27.8080   19.5510 C   0  0  0  0  0  3  0  0  0  0  0  0
  -23.6360  -29.9230   20.2320 C   0  0  0  0  0  2  0  0  0  0  0  0
  -24.6620  -31.1640   22.1870 N   0  0  0  0  0  0  0  0  0  0  0  0
  -23.4950  -32.2010   23.8350 O   0  0  0  0  0  0  0  0  0  0  0  0
  -22.7510  -29.5270   22.5580 C   0  0  0  0  0  0  0  0  0  0  0  0
  -21.4340  -29.3140   22.3940 N   0  0  0  0  0  0  0  0  0  0  0  0
  -23.4260  -28.9120   23.3880 O   0  0  0  0  0  0  0  0  0  0  0  0
  -20.9480  -29.8630   21.7000 H   0  0  0  0  0  0  0  0  0  0  0  0
  -18.0840  -28.0070   22.7770 C   0  0  0  0  0  0  0  0  0  0  0  0
  -20.6200  -28.3480   23.1350 C   0  0  0  0  0  3  0  0  0  0  0  0
  -20.7890  -26.9220   22.5620 C   0  0  0  0  0  2  0  0  0  0  0  0
  -19.7330  -26.5670   21.5090 C   0  0  0  0  0  2  0  0  0  0  0  0
  -18.3250  -26.6680   22.1040 C   0  0  0  0  0  2  0  0  0  0  0  0
  -19.1610  -28.8030   23.2470 C   0  0  0  0  0  0  0  0  0  0  0  0
  -18.8810  -30.0570   23.8330 C   0  0  0  0  0  3  0  0  0  0  0  0
  -17.5550  -30.5160   23.9550 C   0  0  0  0  0  3  0  0  0  0  0  0
  -16.4910  -29.7160   23.5030 C   0  0  0  0  0  3  0  0  0  0  0  0
  -16.7560  -28.4640   22.9200 C   0  0  0  0  0  3  0  0  0  0  0  0
  -25.8570  -32.5790   23.9480 C   0  0  0  0  0  3  0  0  0  0  0  0
  -25.5500  -33.9850   24.2480 N   0  0  0  0  0  0  0  0  0  0  0  0
  -25.9030  -35.0230   23.4780 C   0  0  0  0  0  0  0  0  0  0  0  0
  -26.5910  -34.8990   22.4620 O   0  0  0  0  0  0  0  0  0  0  0  0
  -24.9420  -34.1560   25.0350 H   0  0  0  0  0  0  0  0  0  0  0  0
  -24.1910  -36.8200   23.0630 C   0  0  0  0  0  1  0  0  0  0  0  0
  -25.4150  -36.4210   23.9050 C   0  0  0  0  0  3  0  0  0  0  0  0
  -27.5380  -37.3070   24.7650 C   0  0  0  0  0  1  0  0  0  0  0  0
  -26.4540  -37.4690   23.7990 N   0  0  0  0  0  0  0  0  0  0  0  0
  -26.0480  -38.3910   23.9320 H   0  0  0  0  0  0  0  0  0  0  0  0
  -26.3340  -31.8250   25.2490 C   0  0  1  0  0  0  0  0  0  0  0  0
  -25.2100  -31.6070   26.2880 C   0  0  0  0  0  1  0  0  0  0  0  0
  -26.9210  -30.4390   24.8960 C   0  0  0  0  0  1  0  0  0  0  0  0
  -27.4690  -32.6230   25.9320 C   0  0  0  0  0  1  0  0  0  0  0  0
  -29.5490  -18.7880   20.8140 C   0  0  0  0  0  3  0  0  0  0  0  0
  -28.8120  -16.7350   19.2810 C   0  0  0  0  0  2  0  0  0  0  0  0
  -29.5720  -15.9970   20.3680 C   0  0  0  0  0  3  0  0  0  0  0  0
  -29.9060  -17.4960   19.9760 C   0  0  0  0  0  3  0  0  0  0  0  0
  -30.3860  -14.7730   19.8780 C   0  0  0  0  0  0  0  0  0  0  0  0
  -30.1580  -12.5060   18.8760 C   0  0  0  0  0  2  0  0  0  0  0  0
  -29.1160  -12.5920   17.7380 C   0  0  0  0  0  2  0  0  0  0  0  0
  -27.6890  -12.3870   18.2860 C   0  0  0  0  0  2  0  0  0  0  0  0
  -27.4030  -13.2600   19.5360 C   0  0  0  0  0  3  0  0  0  0  0  0
  -28.5540  -13.1680   20.5620 C   0  0  0  0  0  2  0  0  0  0  0  0
  -29.8040  -13.5300   19.8810 N   0  0  0  0  0  0  0  0  0  0  0  0
  -31.4930  -14.9400   19.3580 O   0  0  0  0  0  0  0  0  0  0  0  0
  -25.0880  -13.8080   20.5060 C   0  0  0  0  0  0  0  0  0  0  0  0
  -24.0660  -13.0110   20.9440 C   0  0  0  0  0  0  0  0  0  0  0  0
  -24.5310  -11.6660   20.8130 C   0  0  0  0  0  0  0  0  0  0  0  0
  -26.1100  -12.9470   20.1360 N   0  0  0  0  0  0  0  0  0  0  0  0
  -25.7860  -11.6520   20.3790 N   0  0  0  0  0  0  0  0  0  0  0  0
  -23.8340  -10.3910   21.0210 C   0  0  0  0  0  0  0  0  0  0  0  0
  -24.3430   -9.4050   21.8950 C   0  0  0  0  0  3  0  0  0  0  0  0
  -23.6450   -8.1940   22.0930 C   0  0  0  0  0  3  0  0  0  0  0  0
  -22.4250   -7.9600   21.4170 C   0  0  0  0  0  0  0  0  0  0  0  0
  -21.9340   -8.9340   20.5300 C   0  0  0  0  0  3  0  0  0  0  0  0
  -22.6320  -10.1380   20.3300 C   0  0  0  0  0  3  0  0  0  0  0  0
  -21.6920   -6.8030   21.5270 O   0  0  0  0  0  0  0  0  0  0  0  0
  -21.7180   -6.0400   22.6670 C   0  0  0  0  0  0  0  0  0  0  0  0
  -21.3000   -6.5520   23.9150 C   0  0  0  0  0  3  0  0  0  0  0  0
  -21.2780   -5.7120   25.0460 C   0  0  0  0  0  3  0  0  0  0  0  0
  -21.6630   -4.3630   24.9310 C   0  0  0  0  0  0  0  0  0  0  0  0
  -22.0740   -3.8510   23.6880 C   0  0  0  0  0  3  0  0  0  0  0  0
  -22.0990   -4.6870   22.5590 C   0  0  0  0  0  0  0  0  0  0  0  0
  -22.4760   -4.1830   21.3590 F   0  0  0  0  0  0  0  0  0  0  0  0
  -21.6340   -3.5540   26.0160 F   0  0  0  0  0  0  0  0  0  0  0  0
  -22.7000  -13.4630   21.3700 C   0  0  0  0  0  0  0  0  0  0  0  0
  -22.0660  -12.7280   22.2770 N   0  0  0  0  0  0  0  0  0  0  0  0
  -22.2040  -14.5010   20.9330 O   0  0  0  0  0  0  0  0  0  0  0  0
  -22.4810  -11.8860   22.6480 H   0  0  0  0  0  0  0  0  0  0  0  0
  -21.1540  -13.0110   22.6050 H   0  0  0  0  0  0  0  0  0  0  0  0
  -25.2240  -15.1860   20.3700 N   0  0  0  0  0  0  0  0  0  0  0  0
  -24.4660  -15.8270   20.5800 H   0  0  0  0  0  0  0  0  0  0  0  0
  -26.0350  -15.6450   19.9770 H   0  0  0  0  0  0  0  0  0  0  0  0
  -30.4810  -18.9040   22.0500 C   0  0  0  0  0  2  0  0  0  0  0  0
  -30.9330  -18.0720   24.4290 C   0  0  0  0  0  1  0  0  0  0  0  0
  -30.4210  -17.7140   23.0280 C   0  0  0  0  0  2  0  0  0  0  0  0
  1  4  1  0
  1 49  1  0
  2  1  1  0
  3  1  1  0
  5  6  1  0
  5  4  2  0
  7  8  1  0
  7  6  2  0
  9 20  2  0
 10  8  1  0
 10 15  1  0
 11 19  1  0
 11 21  1  0
 12 18  1  0
 12 14  1  0
 13 19  1  0
 14 13  1  0
 15 14  2  0
 16 17  1  0
 16 10  2  0
 17 12  2  0
 18 11  1  0
 19  9  1  0
 21 23  2  0
 22 21  1  0
 24 22  1  0
 25 34  2  0
 25 30  1  0
 26 22  1  0
 26 30  1  0
 27 26  1  0
 28 29  1  0
 28 27  1  0
 29 25  1  0
 30 31  2  0
 31 32  1  0
 33 32  2  0
 34 33  1  0
 35  9  1  0
 35 36  1  0
 35 45  1  0
 36 39  1  0
 37 41  1  0
 37 36  1  0
 38 37  2  0
 41 40  1  0
 43 41  1  0
 43 44  1  0
 43 42  1  0
 45 48  1  1
 45 46  1  0
 47 45  1  0
 49 89  1  0
 50 52  1  0
 50 51  1  0
 51 53  1  0
 52 51  1  0
 52 49  1  0
 53 59  1  0
 54 59  1  0
 55 56  1  0
 55 54  1  0
 57 56  1  0
 57 64  1  0
 57 58  1  0
 59 58  1  0
 60 53  2  0
 61 62  2  0
 62 81  1  0
 63 62  1  0
 63 66  1  0
 64 65  1  0
 64 61  1  0
 65 63  2  0
 66 67  1  0
 67 68  2  0
 69 72  1  0
 69 68  1  0
 70 69  2  0
 71 70  1  0
 71 66  2  0
 72 73  1  0
 73 74  1  0
 74 75  2  0
 76 75  1  0
 76 80  1  0
 77 76  2  0
 78 73  2  0
 78 77  1  0
 79 78  1  0
 81 82  1  0
 82 85  1  0
 82 84  1  0
 83 81  2  0
 86 61  1  0
 86 87  1  0
 88 86  1  0
 89 91  1  0
 91 90  1  0
M  ISO  4   7 101   8 101  51 100  53 100
M  END
>  <TORSDO>  (41) 
F 24

>  <SCORE>  (41) 
-10.657

>  <name>  (41) 
40

>  <ligand_id>  (41) 
40

>  <original_smiles>  (41) 
[H]c1c([H])c([H])c2c(c1[H])C([H])([H])C([H])([H])C([H])([H])C2([H])N([H])C(=O)C1([H])N(C(=O)C([H])(N([H])C(=O)C([H])(N([H])C([H])([H])[H])C([H])([H])[H])C(C([H])([H])[H])(C([H])([H])[H])C([H])([H])[H])C([H])([H])c2c([H])c(OC([H])([H])C([H])([H])C([H])([H])C([H])([H])[N+]([H])([H])C([H])(C([H])([H])C([H])([H])C([H])([H])[H])C3([H])C([H])([H])C3([H])C(=O)N3C([H])([H])C([H])([H])C([H])([H])C([H])(n4nc(-c5c([H])c([H])c(Oc6c([H])c([H])c(F)c([H])c6F)c([H])c5[H])c(C(=O)N([H])[H])c4N([H])[H])C3([H])[H])c([H])c([H])c2C1([H])[H]

>  <smiles>  (41) 
[H]c1c([H])c([H])c2c(c1[H])C([H])([H])C([H])([H])C([H])([H])C2([H])N([H])C(=O)C1([H])N(C(=O)C([H])(N([H])C(=O)C([H])(N([H])C([H])([H])[H])C([H])([H])[H])C(C([H])([H])[H])(C([H])([H])[H])C([H])([H])[H])C([H])([H])c2c([H])c(OC([H])([H])C([H])([H])C([H])([H])C([H])([H])[N+]([H])([H])C([H])(C([H])([H])C([H])([H])C([H])([H])[H])C3([H])C([H])([H])C3([H])C(=O)N3C([H])([H])C([H])([H])C([H])([H])C([H])(n4nc(-c5c([H])c([H])c(Oc6c([H])c([H])c(F)c([H])c6F)c([H])c5[H])c(C(=O)N([H])[H])c4N([H])[H])C3([H])[H])c([H])c([H])c2C1([H])[H]

$$$$
41:0:0
     RDKit          3D

 89 92  0  0  1  0  0  0  0  0999 V2000
  -26.4270  -26.7880   22.6370 C   0  0  0  0  0  2  0  0  0  0  0  0
  -25.2440  -27.7600   22.1340 C   0  0  0  0  0  1  0  0  0  0  0  0
  -25.7840  -25.6100   21.9460 C   0  0  0  0  0  2  0  0  0  0  0  0
  -24.7410  -25.0030   22.8580 C   0  0  0  0  0  1  0  0  0  0  0  0
  -26.8930  -23.9190   21.2830 C   0  0  0  0  0  1  0  0  0  0  0  0
  -27.2020  -22.2560   21.1150 C   0  0  0  0  0  3  0  0  0  0  0  0
  -29.0710  -19.5300   21.2100 C   0  0  0  0  0  2  0  0  0  0  0  0
  -28.3350  -20.6370   20.3960 C   0  0  0  0  0  1  0  0  0  0  0  0
  -28.6930  -18.5090   20.1120 C   0  0  0  0  0  1  0  0  0  0  0  0
  -29.8600  -16.8120   19.5980 C   0  0  0  0  0  2  0  0  0  0  0  0
  -30.3850  -14.1870   18.6000 C   0  0  0  0  0  2  0  0  0  0  0  0
  -29.4850  -13.4630   17.5170 C   0  0  0  0  0  2  0  0  0  0  0  0
  -28.2150  -12.8730   18.1380 C   0  0  0  0  0  2  0  0  0  0  0  0
  -27.6900  -13.8580   19.1960 C   0  0  0  0  0  3  0  0  0  0  0  0
  -28.7440  -14.3770   20.2000 C   0  0  0  0  0  2  0  0  0  0  0  0
  -29.6490  -15.2910   19.4730 N   0  0  0  0  0  0  0  0  0  0  0  0
  -31.0600  -16.8290   19.1820 O   0  0  0  0  0  1  0  0  0  0  0  0
  -25.5450  -14.2500   20.4310 C   0  0  0  0  0  0  0  0  0  0  0  0
  -24.5730  -13.4220   20.9030 C   0  0  0  0  0  0  0  0  0  0  0  0
  -25.0080  -12.0900   20.6150 C   0  0  0  0  0  0  0  0  0  0  0  0
  -26.4990  -13.4220   19.8790 N   0  0  0  0  0  0  0  0  0  0  0  0
  -26.2120  -12.1060   20.0490 N   0  0  0  0  0  0  0  0  0  0  0  0
  -24.3110  -10.8110   20.7910 C   0  0  0  0  0  0  0  0  0  0  0  0
  -24.7910   -9.8200   21.6750 C   0  0  0  0  0  3  0  0  0  0  0  0
  -24.0830   -8.6110   21.8430 C   0  0  0  0  0  3  0  0  0  0  0  0
  -22.8810   -8.3880   21.1300 C   0  0  0  0  0  0  0  0  0  0  0  0
  -22.4210   -9.3690   20.2340 C   0  0  0  0  0  3  0  0  0  0  0  0
  -23.1300  -10.5680   20.0630 C   0  0  0  0  0  3  0  0  0  0  0  0
  -22.1390   -7.2340   21.2090 O   0  0  0  0  0  0  0  0  0  0  0  0
  -21.9580   -6.5760   22.3990 C   0  0  0  0  0  0  0  0  0  0  0  0
  -21.3860   -7.2130   23.5240 C   0  0  0  0  0  3  0  0  0  0  0  0
  -21.1550   -6.4800   24.7050 C   0  0  0  0  0  3  0  0  0  0  0  0
  -21.4860   -5.1120   24.7620 C   0  0  0  0  0  0  0  0  0  0  0  0
  -22.0490   -4.4760   23.6410 C   0  0  0  0  0  3  0  0  0  0  0  0
  -22.2820   -5.2070   22.4620 C   0  0  0  0  0  0  0  0  0  0  0  0
  -22.8070   -4.5850   21.3790 F   0  0  0  0  0  0  0  0  0  0  0  0
  -21.2560   -4.4050   25.8930 F   0  0  0  0  0  0  0  0  0  0  0  0
  -23.2680  -13.8590   21.4920 C   0  0  0  0  0  0  0  0  0  0  0  0
  -22.7350  -13.0880   22.4320 N   0  0  0  0  0  0  0  0  0  0  0  0
  -22.7410  -14.9170   21.1530 O   0  0  0  0  0  0  0  0  0  0  0  0
  -23.1860  -12.2320   22.7210 H   0  0  0  0  0  0  0  0  0  0  0  0
  -21.8670  -13.3570   22.8710 H   0  0  0  0  0  0  0  0  0  0  0  0
  -25.6900  -15.6350   20.4020 N   0  0  0  0  0  0  0  0  0  0  0  0
  -24.9600  -16.2490   20.7410 H   0  0  0  0  0  0  0  0  0  0  0  0
  -26.4480  -16.1300   19.9530 H   0  0  0  0  0  0  0  0  0  0  0  0
  -25.0330  -21.8510   22.5590 C   0  0  0  0  0  1  0  0  0  0  0  0
  -26.2100  -21.3020   21.7900 C   0  0  0  0  0  3  0  0  0  0  0  0
  -25.3580  -30.1700   20.1020 C   0  0  0  0  0  1  0  0  0  0  0  0
  -26.3320  -29.7270   18.8080 O   0  0  0  0  0  0  0  0  0  0  0  0
  -24.6730  -31.6270   23.1210 C   0  0  0  0  0  0  0  0  0  0  0  0
  -27.0620  -28.5300   18.6770 C   0  0  0  0  0  3  0  0  0  0  0  0
  -23.3970  -29.8500   21.6520 C   0  0  0  0  0  3  0  0  0  0  0  0
  -24.9530  -27.8700   19.7180 C   0  0  0  0  0  0  0  0  0  0  0  0
  -26.3390  -29.6700   21.9420 C   0  0  0  0  0  3  0  0  0  0  0  0
  -26.5130  -28.3780   20.5280 C   0  0  0  0  0  0  0  0  0  0  0  0
  -27.6630  -28.4090   19.8770 C   0  0  0  0  0  2  0  0  0  0  0  0
  -26.2880  -27.4340   18.1480 C   0  0  0  0  0  2  0  0  0  0  0  0
  -24.9590  -27.3650   18.5020 C   0  0  0  0  0  2  0  0  0  0  0  0
  -23.3850  -28.6180   20.3030 C   0  0  0  0  0  3  0  0  0  0  0  0
  -24.8170  -30.4140   22.3570 N   0  0  0  0  0  0  0  0  0  0  0  0
  -23.5700  -32.1020   23.4560 O   0  0  0  0  0  0  0  0  0  0  0  0
  -22.4530  -29.5780   22.7890 C   0  0  0  0  0  0  0  0  0  0  0  0
  -21.1510  -29.4540   22.5550 N   0  0  0  0  0  0  0  0  0  0  0  0
  -22.9600  -29.2780   23.8810 O   0  0  0  0  0  0  0  0  0  0  0  0
  -20.7690  -29.7190   21.6610 H   0  0  0  0  0  0  0  0  0  0  0  0
  -17.9160  -28.0570   23.1200 C   0  0  0  0  0  0  0  0  0  0  0  0
  -20.4190  -28.4890   23.3520 C   0  0  0  0  0  3  0  0  0  0  0  0
  -20.6340  -27.0710   22.7840 C   0  0  0  0  0  2  0  0  0  0  0  0
  -19.5670  -26.6910   21.7600 C   0  0  0  0  0  2  0  0  0  0  0  0
  -18.1860  -26.7240   22.4290 C   0  0  0  0  0  2  0  0  0  0  0  0
  -18.9780  -28.8980   23.5250 C   0  0  0  0  0  0  0  0  0  0  0  0
  -18.7020  -30.1430   24.1260 C   0  0  0  0  0  3  0  0  0  0  0  0
  -17.3770  -30.5500   24.3440 C   0  0  0  0  0  3  0  0  0  0  0  0
  -16.3180  -29.7050   23.9690 C   0  0  0  0  0  3  0  0  0  0  0  0
  -16.5850  -28.4670   23.3590 C   0  0  0  0  0  3  0  0  0  0  0  0
  -25.8800  -32.4720   23.6890 C   0  0  0  0  0  3  0  0  0  0  0  0
  -26.3970  -31.8820   25.0540 C   0  0  1  0  0  0  0  0  0  0  0  0
  -25.2620  -31.6640   26.0850 C   0  0  0  0  0  1  0  0  0  0  0  0
  -27.1140  -30.5490   24.8940 C   0  0  0  0  0  1  0  0  0  0  0  0
  -27.4730  -32.7960   25.6700 C   0  0  0  0  0  1  0  0  0  0  0  0
  -25.5040  -33.9100   23.9550 N   0  0  0  0  0  0  0  0  0  0  0  0
  -25.8410  -35.0110   23.2530 C   0  0  0  0  0  0  0  0  0  0  0  0
  -26.4700  -34.9430   22.1980 O   0  0  0  0  0  0  0  0  0  0  0  0
  -24.9040  -34.0490   24.7490 H   0  0  0  0  0  0  0  0  0  0  0  0
  -24.1000  -36.8670   23.1580 C   0  0  0  0  0  1  0  0  0  0  0  0
  -25.4230  -36.4100   23.7940 C   0  0  0  0  0  3  0  0  0  0  0  0
  -27.6360  -37.3330   24.3860 C   0  0  0  0  0  1  0  0  0  0  0  0
  -26.4330  -37.4780   23.5750 N   0  0  0  0  0  0  0  0  0  0  0  0
  -26.0310  -38.3910   23.7660 H   0  0  0  0  0  0  0  0  0  0  0  0
  2  1  1  0
  3  1  1  0
  3  4  1  0
  6  5  1  0
  6 47  2  0
  8  7  1  0
  9  7  1  0
 11 16  1  0
 12 13  1  0
 12 11  1  0
 14 13  1  0
 14 21  1  0
 14 15  1  0
 16 10  1  0
 16 15  1  0
 17 10  1  0
 18 19  2  0
 19 38  1  0
 20 23  1  0
 20 19  1  0
 21 22  1  0
 21 18  1  0
 22 20  2  0
 23 24  1  0
 24 25  2  0
 26 29  1  0
 26 25  1  0
 27 26  2  0
 28 27  1  0
 28 23  2  0
 29 30  1  0
 30 35  2  0
 30 31  1  0
 31 32  2  0
 32 33  1  0
 33 37  1  0
 34 33  2  0
 35 34  1  0
 36 35  1  0
 38 39  1  0
 39 41  1  0
 39 42  1  0
 40 38  2  0
 43 18  1  0
 43 44  1  0
 45 43  1  0
 47 46  1  0
 49 48  1  0
 50 61  2  0
 51 49  1  0
 51 56  1  0
 52 60  1  0
 52 62  1  0
 53 59  2  0
 53 55  1  0
 54 60  1  0
 55 54  2  0
 56 55  1  0
 57 58  1  0
 57 51  1  0
 58 53  1  0
 59 52  1  0
 60 50  1  0
 62 64  2  0
 63 62  1  0
 65 63  1  0
 66 75  2  0
 66 71  1  0
 67 63  1  0
 67 71  1  0
 68 67  1  0
 69 70  1  0
 69 68  1  0
 70 66  1  0
 71 72  2  0
 72 73  1  0
 74 73  2  0
 75 74  1  0
 76 50  1  0
 76 81  1  0
 76 77  1  0
 77 80  1  1
 77 78  1  0
 79 77  1  0
 81 84  1  0
 82 86  1  0
 82 81  1  0
 83 82  2  0
 86 85  1  0
 88 89  1  0
 88 86  1  0
 88 87  1  0
M  ISO  4   9 100  10 100  48 101  49 101
M  END
>  <TORSDO>  (42) 
F 20

>  <SCORE>  (42) 
-0.730

>  <name>  (42) 
41

>  <ligand_id>  (42) 
41

>  <original_smiles>  (42) 
[H]C(=C(C([H])([H])C([H])([H])[H])C1([H])C([H])([H])C1([H])C(=O)N1C([H])([H])C([H])([H])C([H])([H])C([H])(n2nc(-c3c([H])c([H])c(Oc4c([H])c([H])c(F)c([H])c4F)c([H])c3[H])c(C(=O)N([H])[H])c2N([H])[H])C1([H])[H])C1(C([H])([H])[H])C([H])([H])C1([H])C([H])([H])Oc1c([H])c([H])c2c(c1[H])C([H])([H])N(C(=O)C([H])(N([H])C(=O)C([H])(N([H])C([H])([H])[H])C([H])([H])[H])C(C([H])([H])[H])(C([H])([H])[H])C([H])([H])[H])C([H])(C(=O)N([H])C1([H])c3c([H])c([H])c([H])c([H])c3C([H])([H])C([H])([H])C1([H])[H])C2([H])[H]

>  <smiles>  (42) 
[H]C(=C(C([H])([H])C([H])([H])[H])C1([H])C([H])([H])C1([H])C(=O)N1C([H])([H])C([H])([H])C([H])([H])C([H])(n2nc(-c3c([H])c([H])c(Oc4c([H])c([H])c(F)c([H])c4F)c([H])c3[H])c(C(=O)N([H])[H])c2N([H])[H])C1([H])[H])C1(C([H])([H])[H])C([H])([H])C1([H])C([H])([H])Oc1c([H])c([H])c2c(c1[H])C([H])([H])N(C(=O)C([H])(N([H])C(=O)C([H])(N([H])C([H])([H])[H])C([H])([H])[H])C(C([H])([H])[H])(C([H])([H])[H])C([H])([H])[H])C([H])(C(=O)N([H])C1([H])c3c([H])c([H])c([H])c([H])c3C([H])([H])C([H])([H])C1([H])[H])C2([H])[H]

$$$$
42:0:0
     RDKit          3D

100 96  0  0  1  0  0  0  0  0999 V2000
  -20.4100  -26.6980   18.4670 C   0  0  0  0  0  2  0  0  0  0  0  0
  -20.4210  -27.7350   19.5470 C   0  0  0  0  0  2  0  0  0  0  0  0
  -21.6130  -25.7150   18.6790 C   0  0  0  0  0  2  0  0  0  0  0  0
  -21.1000  -27.2370   20.9260 C   0  0  0  0  0  2  0  0  0  0  0  0
  -22.6880  -26.1730   19.9030 C   0  0  0  0  0  1  0  0  0  0  0  0
  -20.8920  -25.8580   23.2310 C   0  0  0  0  0  3  0  0  0  0  0  0
  -21.7520  -24.5490   23.0300 N   0  0  0  0  0  0  0  0  0  0  0  0
  -20.3470  -26.1330   24.3050 O   0  0  0  0  0  0  0  0  0  0  0  0
  -21.7580  -24.0170   23.8930 H   0  0  0  0  0  0  0  0  0  0  0  0
  -22.9150  -23.8400   21.8080 C   0  0  0  0  0  1  0  0  0  0  0  0
  -23.2230  -23.2130   19.9630 C   0  0  0  0  0 15  0  0  0  0  0  0
  -24.6430  -23.3470   18.4840 C   0  0  0  0  0 15  0  0  0  0  0  0
  -26.4560  -24.5450   18.3320 C   0  0  0  0  0  1  0  0  0  0  0  0
  -27.2740  -25.9950   19.0540 O   0  0  0  0  0  0  0  0  0  0  0  0
  -24.8820  -32.1780   22.8790 C   0  0  0  0  0  0  0  0  0  0  0  0
  -27.0150  -27.4760   19.2140 C   0  0  0  0  0  0  0  0  0  0  0  0
  -23.7320  -30.9610   21.1220 C   0  0  0  0  0  3  0  0  0  0  0  0
  -25.2190  -29.7050   19.4480 C   0  0  0  0  0  0  0  0  0  0  0  0
  -26.2990  -31.0580   21.0970 C   0  0  0  0  0  2  0  0  0  0  0  0
  -26.2950  -29.7220   20.3040 C   0  0  0  0  0  0  0  0  0  0  0  0
  -27.1970  -28.5540   20.2410 C   0  0  0  0  0  3  0  0  0  0  0  0
  -26.4550  -28.0790   18.1200 C   0  0  0  0  0  3  0  0  0  0  0  0
  -25.5580  -29.1390   18.2520 C   0  0  0  0  0  3  0  0  0  0  0  0
  -23.9820  -30.5510   19.6530 C   0  0  0  0  0  2  0  0  0  0  0  0
  -24.9940  -31.4650   21.7240 N   0  0  0  0  0  0  0  0  0  0  0  0
  -23.7800  -32.4020   23.4120 O   0  0  0  0  0  0  0  0  0  0  0  0
  -23.2490  -29.7690   21.9840 C   0  0  0  0  0  0  0  0  0  0  0  0
  -21.9770  -29.6060   22.2370 N   0  0  0  0  0  0  0  0  0  0  0  0
  -24.0460  -28.9730   22.4590 O   0  0  0  0  0  0  0  0  0  0  0  0
  -21.2980  -30.3090   21.9630 H   0  0  0  0  0  0  0  0  0  0  0  0
  -18.5050  -28.5240   22.7330 C   0  0  0  0  0  0  0  0  0  0  0  0
  -21.4760  -28.3650   22.8680 C   0  0  0  0  0  2  0  0  0  0  0  0
  -21.9810  -26.7310   21.7510 C   0  0  0  0  0  1  0  0  0  0  0  0
  -19.3880  -26.0350   20.6180 C   0  0  0  0  0 15  0  0  0  0  0  0
  -18.1410  -27.2480   21.5530 C   0  0  0  0  0  1  0  0  0  0  0  0
  -19.8750  -28.9870   23.2490 C   0  0  0  0  0  0  0  0  0  0  0  0
  -19.8600  -30.1610   24.1030 C   0  0  0  0  0  3  0  0  0  0  0  0
  -18.7020  -30.8460   24.5720 C   0  0  0  0  0  3  0  0  0  0  0  0
  -17.4570  -30.3550   24.1970 C   0  0  0  0  0  3  0  0  0  0  0  0
  -17.3760  -29.2520   23.3150 C   0  0  0  0  0  3  0  0  0  0  0  0
  -26.1430  -32.7450   23.5760 C   0  0  0  0  0  3  0  0  0  0  0  0
  -26.6700  -31.8200   24.7420 C   0  0  1  0  0  0  0  0  0  0  0  0
  -25.5830  -31.4230   25.7700 C   0  0  0  0  0  1  0  0  0  0  0  0
  -27.2850  -30.5070   24.2070 C   0  0  0  0  0  1  0  0  0  0  0  0
  -27.8050  -32.5520   25.4940 C   0  0  0  0  0  1  0  0  0  0  0  0
  -25.7840  -34.0710   24.0980 N   0  0  0  0  0  0  0  0  0  0  0  0
  -26.0480  -35.2310   23.4850 C   0  0  0  0  0  0  0  0  0  0  0  0
  -26.6920  -35.2950   22.4350 O   0  0  0  0  0  0  0  0  0  0  0  0
  -25.2190  -34.0960   24.9340 H   0  0  0  0  0  0  0  0  0  0  0  0
  -24.2510  -36.9940   23.4130 C   0  0  0  0  0  1  0  0  0  0  0  0
  -25.5220  -36.5240   24.1400 C   0  0  0  0  0  3  0  0  0  0  0  0
  -27.6480  -37.3560   25.0420 C   0  0  0  0  0  1  0  0  0  0  0  0
  -26.5150  -37.6210   24.1610 N   0  0  0  0  0  0  0  0  0  0  0  0
  -26.0830  -38.4960   24.4510 H   0  0  0  0  0  0  0  0  0  0  0  0
  -24.7790  -25.4190   20.0350 C   0  0  0  0  0  1  0  0  0  0  0  0
  -26.1880  -23.7600   20.8150 N   0  0  0  0  0  2  0  0  0  0  0  0
  -26.0360  -23.8160   21.8250 H   0  0  0  0  0  0  0  0  0  0  0  0
  -26.9970  -24.3480   20.6090 H   0  0  0  0  0  0  0  0  0  0  0  0
  -27.5660  -21.5630   22.2520 C   0  0  0  0  0  1  0  0  0  0  0  0
  -27.4880  -21.9270   20.7560 C   0  0  0  0  0  1  0  0  0  0  0  0
  -28.6110  -19.7310   20.2070 C   0  0  0  0  0 15  0  0  0  0  0  0
  -29.8920  -17.7300   20.2940 C   0  0  0  0  0  2  0  0  0  0  0  0
  -30.9480  -14.9900   19.6370 C   0  0  0  0  0  2  0  0  0  0  0  0
  -30.4340  -13.9460   18.5310 C   0  0  0  0  0  2  0  0  0  0  0  0
  -29.1120  -13.2980   18.9360 C   0  0  0  0  0  2  0  0  0  0  0  0
  -28.3330  -14.3520   19.7160 C   0  0  0  0  0  3  0  0  0  0  0  0
  -29.0780  -15.0650   20.8650 C   0  0  0  0  0  2  0  0  0  0  0  0
  -29.9160  -16.1200   20.2190 N   0  0  0  0  0  0  0  0  0  0  0  0
  -31.1900  -17.6690   20.2390 O   0  0  0  0  0  1  0  0  0  0  0  0
  -26.0460  -14.9030   20.4690 C   0  0  0  0  0  0  0  0  0  0  0  0
  -24.9650  -14.1480   20.7700 C   0  0  0  0  0  0  0  0  0  0  0  0
  -25.3790  -12.7840   20.6490 C   0  0  0  0  0  0  0  0  0  0  0  0
  -27.0370  -13.9960   20.1650 N   0  0  0  0  0  0  0  0  0  0  0  0
  -26.6670  -12.7030   20.3430 N   0  0  0  0  0  0  0  0  0  0  0  0
  -24.5980  -11.5510   20.7330 C   0  0  0  0  0  0  0  0  0  0  0  0
  -24.9390  -10.5150   21.6290 C   0  0  0  0  0  3  0  0  0  0  0  0
  -24.1470   -9.3500   21.7000 C   0  0  0  0  0  3  0  0  0  0  0  0
  -23.0070   -9.2160   20.8740 C   0  0  0  0  0  0  0  0  0  0  0  0
  -22.6890  -10.2390   19.9670 C   0  0  0  0  0  3  0  0  0  0  0  0
  -23.4780  -11.3960   19.8910 C   0  0  0  0  0  3  0  0  0  0  0  0
  -22.1920   -8.1110   20.8600 O   0  0  0  0  0  0  0  0  0  0  0  0
  -21.9960   -7.3480   21.9830 C   0  0  0  0  0  0  0  0  0  0  0  0
  -21.5310   -7.9090   23.1910 C   0  0  0  0  0  3  0  0  0  0  0  0
  -21.2780   -7.0760   24.3010 C   0  0  0  0  0  3  0  0  0  0  0  0
  -21.4810   -5.6870   24.1990 C   0  0  0  0  0  0  0  0  0  0  0  0
  -21.9400   -5.1280   22.9930 C   0  0  0  0  0  3  0  0  0  0  0  0
  -22.1950   -5.9570   21.8880 C   0  0  0  0  0  0  0  0  0  0  0  0
  -22.6190   -5.4120   20.7210 F   0  0  0  0  0  0  0  0  0  0  0  0
  -21.2300   -4.8850   25.2600 F   0  0  0  0  0  0  0  0  0  0  0  0
  -23.5970  -14.6790   21.0440 C   0  0  0  0  0  0  0  0  0  0  0  0
  -22.8210  -13.9790   21.8600 N   0  0  0  0  0  0  0  0  0  0  0  0
  -23.2300  -15.7580   20.5710 O   0  0  0  0  0  0  0  0  0  0  0  0
  -23.1330  -13.1110   22.2600 H   0  0  0  0  0  0  0  0  0  0  0  0
  -21.8950  -14.3220   22.0870 H   0  0  0  0  0  0  0  0  0  0  0  0
  -26.2860  -16.2720   20.3880 N   0  0  0  0  0  0  0  0  0  0  0  0
  -25.5600  -16.9650   20.5230 H   0  0  0  0  0  0  0  0  0  0  0  0
  -27.1510  -16.6660   20.0340 H   0  0  0  0  0  0  0  0  0  0  0  0
  -24.5750  -24.8980   16.7190 C   0  0  0  0  0  1  0  0  0  0  0  0
  -23.4460  -26.7290   17.2560 C   0  0  0  0  0  1  0  0  0  0  0  0
  -24.2860  -25.6720   18.1460 C   0  0  0  0  0  3  0  0  0  0  0  0
  1  3  1  0
  1  2  1  0
  2  4  1  0
  3  5  1  0
  4 33  1  0
  6  8  2  0
  7  6  1  0
  7  9  1  0
 10  7  1  0
 13 14  1  0
 14 16  1  0
 15 26  2  0
 16 21  1  0
 17 25  1  0
 17 27  1  0
 18 24  1  0
 18 20  1  0
 19 25  1  0
 20 19  1  0
 21 20  2  0
 22 23  1  0
 22 16  2  0
 23 18  2  0
 24 17  1  0
 25 15  1  0
 27 28  1  0
 27 29  2  0
 28 32  1  0
 30 28  1  0
 31 36  2  0
 31 40  1  0
 32 36  1  0
 35 31  1  0
 36 37  1  0
 37 38  2  0
 39 38  1  0
 40 39  2  0
 41 15  1  0
 41 46  1  0
 41 42  1  0
 42 45  1  1
 42 43  1  0
 44 42  1  0
 46 49  1  0
 47 46  1  0
 47 51  1  0
 48 47  2  0
 51 50  1  0
 51 53  1  0
 53 54  1  0
 53 52  1  0
 56 57  1  0
 58 56  1  0
 60 59  1  0
 63 68  1  0
 64 65  1  0
 64 63  1  0
 66 65  1  0
 66 73  1  0
 66 67  1  0
 68 62  1  0
 68 67  1  0
 69 62  1  0
 70 71  2  0
 71 90  1  0
 72 75  1  0
 72 71  1  0
 73 74  1  0
 73 70  1  0
 74 72  2  0
 75 76  1  0
 76 77  2  0
 78 77  1  0
 79 78  2  0
 80 79  1  0
 80 75  2  0
 81 78  1  0
 81 82  1  0
 82 83  1  0
 83 84  2  0
 85 84  1  0
 85 89  1  0
 86 85  2  0
 87 82  2  0
 87 86  1  0
 88 87  1  0
 90 91  1  0
 91 94  1  0
 91 93  1  0
 92 90  2  0
 95 70  1  0
 95 96  1  0
 97 95  1  0
 98100  1  0
 99100  1  0
100 55  1  0
M  ISO  4  13 101  14 101  61 100  62 100
M  END
>  <TORSDO>  (43) 
F 26

>  <SCORE>  (43) 
-7.477

>  <name>  (43) 
42

>  <ligand_id>  (43) 
42

>  <original_smiles>  (43) 
[H]c1c([H])c([H])c2c(c1[H])C([H])([H])C([H])([H])C([H])([H])C2([H])N([H])C(=O)C1([H])N(C(=O)C([H])(N([H])C(=O)C([H])(N([H])C([H])([H])[H])C([H])([H])[H])C(C([H])([H])[H])(C([H])([H])[H])C([H])([H])[H])C([H])([H])c2c([H])c(OC([H])([H])C([H])([H])C([H])([H])C([H])([H])N([H])C(=O)C3([H])C([H])([H])C([H])([H])C([H])([H])C3([H])C([H])(C([H])(C([H])([H])[H])C([H])([H])[H])[N+]([H])([H])C([H])(C([H])([H])[H])C([H])([H])C(=O)N3C([H])([H])C([H])([H])C([H])([H])C([H])(n4nc(-c5c([H])c([H])c(Oc6c([H])c([H])c(F)c([H])c6F)c([H])c5[H])c(C(=O)N([H])[H])c4N([H])[H])C3([H])[H])c([H])c([H])c2C1([H])[H]

>  <smiles>  (43) 
[H]c1c([H])c([H])c2c(c1[H])C([H])([H])C([H])([H])C([H])([H])C2([H])N([H])C(=O)C1([H])N(C(=O)C([H])(N([H])C(=O)C([H])(N([H])C([H])([H])[H])C([H])([H])[H])C(C([H])([H])[H])(C([H])([H])[H])C([H])([H])[H])C([H])([H])c2c([H])c(OC([H])([H])C([H])([H])C([H])([H])C([H])([H])N([H])C(=O)C3([H])C([H])([H])C([H])([H])C([H])([H])C3([H])C([H])(C([H])(C([H])([H])[H])C([H])([H])[H])[N+]([H])([H])C([H])(C([H])([H])[H])C([H])([H])C(=O)N3C([H])([H])C([H])([H])C([H])([H])C([H])(n4nc(-c5c([H])c([H])c(Oc6c([H])c([H])c(F)c([H])c6F)c([H])c5[H])c(C(=O)N([H])[H])c4N([H])[H])C3([H])[H])c([H])c([H])c2C1([H])[H]

$$$$
43:0:0
     RDKit          3D

 89 95  0  0  1  0  0  0  0  0999 V2000
  -30.2620  -19.9150   18.9800 C   0  0  0  0  0  3  0  0  0  0  0  0
  -30.0610  -21.8310   19.4050 C   0  0  0  0  0  3  0  0  0  0  0  0
  -29.1340  -19.5800   19.9550 C   0  0  0  0  0  1  0  0  0  0  0  0
  -28.8800  -21.5830   20.3600 C   0  0  0  0  0  1  0  0  0  0  0  0
  -31.2650  -20.8710   19.6820 C   0  0  1  0  0  0  0  0  0  0  0  0
  -29.8960  -21.1140   18.0320 C   0  0  1  0  0  0  0  0  0  0  0  0
  -31.5930  -20.6160   21.1690 C   0  0  0  0  0  1  0  0  0  0  0  0
  -32.6580  -21.1290   19.0540 C   0  0  0  0  0  1  0  0  0  0  0  0
  -30.8170  -21.5500   16.8610 C   0  0  0  0  0  1  0  0  0  0  0  0
  -28.4990  -21.1080   17.3560 C   0  0  0  0  0  1  0  0  0  0  0  0
  -29.4520  -17.6730   20.6200 C   0  0  0  0  0  1  0  0  0  0  0  0
  -30.1640  -15.8760   20.2810 C   0  0  0  0  0  0  0  0  0  0  0  0
  -30.3450  -13.2480   19.5530 C   0  0  0  0  0  2  0  0  0  0  0  0
  -29.4960  -12.7580   18.3370 C   0  0  0  0  0  2  0  0  0  0  0  0
  -28.0790  -12.3660   18.7730 C   0  0  0  0  0  2  0  0  0  0  0  0
  -27.5270  -13.3850   19.7910 C   0  0  0  0  0  3  0  0  0  0  0  0
  -28.5240  -13.7820   20.9120 C   0  0  0  0  0  2  0  0  0  0  0  0
  -29.6940  -14.4550   20.2780 N   0  0  0  0  0  0  0  0  0  0  0  0
  -31.3830  -15.7570   20.0170 O   0  0  0  0  0  0  0  0  0  0  0  0
  -25.1580  -13.9040   20.5220 C   0  0  0  0  0  0  0  0  0  0  0  0
  -24.0980  -13.1250   20.8810 C   0  0  0  0  0  0  0  0  0  0  0  0
  -24.5710  -11.7760   20.8670 C   0  0  0  0  0  0  0  0  0  0  0  0
  -26.2080  -13.0350   20.2980 N   0  0  0  0  0  0  0  0  0  0  0  0
  -25.8690  -11.7480   20.5730 N   0  0  0  0  0  0  0  0  0  0  0  0
  -23.8420  -10.5140   21.0550 C   0  0  0  0  0  0  0  0  0  0  0  0
  -24.2690   -9.5430   21.9860 C   0  0  0  0  0  3  0  0  0  0  0  0
  -23.5340   -8.3500   22.1670 C   0  0  0  0  0  3  0  0  0  0  0  0
  -22.3550   -8.1220   21.4160 C   0  0  0  0  0  0  0  0  0  0  0  0
  -21.9460   -9.0830   20.4730 C   0  0  0  0  0  3  0  0  0  0  0  0
  -22.6830  -10.2660   20.2920 C   0  0  0  0  0  3  0  0  0  0  0  0
  -21.5920   -6.9820   21.5050 O   0  0  0  0  0  0  0  0  0  0  0  0
  -21.5580   -6.2250   22.6490 C   0  0  0  0  0  0  0  0  0  0  0  0
  -21.1720   -6.7730   23.8930 C   0  0  0  0  0  3  0  0  0  0  0  0
  -21.0850   -5.9440   25.0300 C   0  0  0  0  0  3  0  0  0  0  0  0
  -21.3710   -4.5700   24.9240 C   0  0  0  0  0  0  0  0  0  0  0  0
  -21.7460   -4.0220   23.6850 C   0  0  0  0  0  3  0  0  0  0  0  0
  -21.8370   -4.8470   22.5510 C   0  0  0  0  0  0  0  0  0  0  0  0
  -22.1800   -4.3100   21.3560 F   0  0  0  0  0  0  0  0  0  0  0  0
  -21.2780   -3.7710   26.0140 F   0  0  0  0  0  0  0  0  0  0  0  0
  -22.6950  -13.6020   21.1200 C   0  0  0  0  0  0  0  0  0  0  0  0
  -21.9560  -12.9200   21.9860 N   0  0  0  0  0  0  0  0  0  0  0  0
  -22.2660  -14.6210   20.5780 O   0  0  0  0  0  0  0  0  0  0  0  0
  -22.3140  -12.0990   22.4520 H   0  0  0  0  0  0  0  0  0  0  0  0
  -21.0120  -13.2230   22.1870 H   0  0  0  0  0  0  0  0  0  0  0  0
  -25.3210  -15.2750   20.3330 N   0  0  0  0  0  0  0  0  0  0  0  0
  -24.5560  -15.9340   20.4250 H   0  0  0  0  0  0  0  0  0  0  0  0
  -26.1810  -15.7080   20.0200 H   0  0  0  0  0  0  0  0  0  0  0  0
  -27.9880  -23.4270   20.1730 C   0  0  0  0  0  1  0  0  0  0  0  0
  -28.1160  -25.2630   20.3070 O   0  0  0  0  0  0  0  0  0  0  0  0
  -24.6440  -31.7910   23.1430 C   0  0  0  0  0  0  0  0  0  0  0  0
  -27.1650  -26.5470   20.2310 C   0  0  0  0  0  0  0  0  0  0  0  0
  -23.4650  -30.3670   21.5260 C   0  0  0  0  0  3  0  0  0  0  0  0
  -24.9150  -28.6770   20.1420 C   0  0  0  0  0  0  0  0  0  0  0  0
  -26.0510  -30.4700   21.4190 C   0  0  0  0  0  2  0  0  0  0  0  0
  -26.1140  -29.0130   20.7790 C   0  0  0  0  0  0  0  0  0  0  0  0
  -27.2170  -27.9810   20.7840 C   0  0  0  0  0  3  0  0  0  0  0  0
  -25.9280  -26.4630   19.5290 C   0  0  0  0  0  3  0  0  0  0  0  0
  -24.8710  -27.4320   19.4900 C   0  0  0  0  0  3  0  0  0  0  0  0
  -23.7150  -29.6440   20.1690 C   0  0  0  0  0  2  0  0  0  0  0  0
  -24.7460  -30.9140   22.0820 N   0  0  0  0  0  0  0  0  0  0  0  0
  -23.5480  -32.1040   23.6410 O   0  0  0  0  0  0  0  0  0  0  0  0
  -22.7360  -29.4140   22.5130 C   0  0  0  0  0  0  0  0  0  0  0  0
  -21.4000  -29.2720   22.4000 N   0  0  0  0  0  0  0  0  0  0  0  0
  -23.3870  -28.7970   23.3600 O   0  0  0  0  0  0  0  0  0  0  0  0
  -20.9220  -29.8210   21.7000 H   0  0  0  0  0  0  0  0  0  0  0  0
  -18.0080  -28.0700   22.9400 C   0  0  0  0  0  0  0  0  0  0  0  0
  -20.5700  -28.3470   23.1840 C   0  0  0  0  0  3  0  0  0  0  0  0
  -20.6670  -26.9060   22.6280 C   0  0  0  0  0  2  0  0  0  0  0  0
  -19.5620  -26.5720   21.6200 C   0  0  0  0  0  2  0  0  0  0  0  0
  -18.1830  -26.7180   22.2700 C   0  0  0  0  0  2  0  0  0  0  0  0
  -19.1280  -28.8430   23.3540 C   0  0  0  0  0  0  0  0  0  0  0  0
  -18.9030  -30.1040   23.9460 C   0  0  0  0  0  3  0  0  0  0  0  0
  -17.5960  -30.5950   24.1270 C   0  0  0  0  0  3  0  0  0  0  0  0
  -16.4930  -29.8220   23.7230 C   0  0  0  0  0  3  0  0  0  0  0  0
  -16.7010  -28.5610   23.1370 C   0  0  0  0  0  3  0  0  0  0  0  0
  -25.9000  -32.4590   23.7840 C   0  0  0  0  0  3  0  0  0  0  0  0
  -25.5600  -33.8550   24.1300 N   0  0  0  0  0  0  0  0  0  0  0  0
  -25.8750  -34.9350   23.4000 C   0  0  0  0  0  0  0  0  0  0  0  0
  -26.5330  -34.8610   22.3600 O   0  0  0  0  0  0  0  0  0  0  0  0
  -24.9720  -33.9850   24.9390 H   0  0  0  0  0  0  0  0  0  0  0  0
  -24.1200  -36.7270   23.1310 C   0  0  0  0  0  1  0  0  0  0  0  0
  -25.3870  -36.3130   23.8990 C   0  0  0  0  0  3  0  0  0  0  0  0
  -27.5320  -37.2160   24.6890 C   0  0  0  0  0  1  0  0  0  0  0  0
  -26.4030  -37.3820   23.7760 N   0  0  0  0  0  0  0  0  0  0  0  0
  -25.9890  -38.2940   23.9480 H   0  0  0  0  0  0  0  0  0  0  0  0
  -26.4130  -31.7040   25.0740 C   0  0  1  0  0  0  0  0  0  0  0  0
  -25.3150  -31.4710   26.1390 C   0  0  0  0  0  1  0  0  0  0  0  0
  -27.0040  -30.3230   24.7120 C   0  0  0  0  0  1  0  0  0  0  0  0
  -27.5590  -32.5090   25.7310 C   0  0  0  0  0  1  0  0  0  0  0  0
  1  5  1  0
  1  3  1  0
  2  5  1  0
  2  4  1  0
  5  7  1  1
  6  1  1  0
  6  2  1  0
  8  5  1  0
  6  9  1  6
 10  6  1  0
 12 11  1  0
 13 18  1  0
 14 15  1  0
 14 13  1  0
 16 15  1  0
 16 23  1  0
 16 17  1  0
 18 12  1  0
 18 17  1  0
 19 12  2  0
 20 21  2  0
 21 40  1  0
 22 21  1  0
 22 25  1  0
 23 20  1  0
 23 24  1  0
 24 22  2  0
 25 26  1  0
 26 27  2  0
 28 31  1  0
 28 27  1  0
 29 28  2  0
 30 29  1  0
 30 25  2  0
 31 32  1  0
 32 33  1  0
 33 34  2  0
 35 34  1  0
 35 39  1  0
 36 35  2  0
 37 32  2  0
 37 36  1  0
 38 37  1  0
 40 41  1  0
 41 44  1  0
 41 43  1  0
 42 40  2  0
 45 46  1  0
 45 20  1  0
 47 45  1  0
 48 49  1  0
 50 61  2  0
 51 49  1  0
 51 56  1  0
 52 60  1  0
 52 62  1  0
 53 59  1  0
 53 55  1  0
 54 60  1  0
 55 56  2  0
 55 54  1  0
 57 51  2  0
 58 57  1  0
 58 53  2  0
 59 52  1  0
 60 50  1  0
 62 64  2  0
 63 62  1  0
 65 63  1  0
 66 75  2  0
 66 71  1  0
 67 63  1  0
 67 71  1  0
 68 67  1  0
 69 70  1  0
 69 68  1  0
 70 66  1  0
 71 72  2  0
 72 73  1  0
 74 73  2  0
 75 74  1  0
 76 50  1  0
 76 77  1  0
 76 86  1  0
 77 80  1  0
 78 82  1  0
 78 77  1  0
 79 78  2  0
 82 81  1  0
 84 82  1  0
 84 85  1  0
 84 83  1  0
 86 89  1  1
 86 87  1  0
 88 86  1  0
M  ISO  4  11 100  12 100  48 101  49 101
M  END
>  <TORSDO>  (44) 
F 18

>  <SCORE>  (44) 
-16.499

>  <name>  (44) 
43

>  <ligand_id>  (44) 
43

>  <original_smiles>  (44) 
[H]c1c([H])c([H])c2c(c1[H])C([H])([H])C([H])([H])C([H])([H])C2([H])N([H])C(=O)C1([H])N(C(=O)C([H])(N([H])C(=O)C([H])(N([H])C([H])([H])[H])C([H])([H])[H])C(C([H])([H])[H])(C([H])([H])[H])C([H])([H])[H])C([H])([H])c2c([H])c(OC([H])([H])C3([H])C([H])(C([H])([H])C(=O)N4C([H])([H])C([H])([H])C([H])([H])C([H])(n5nc(-c6c([H])c([H])c(Oc7c([H])c([H])c(F)c([H])c7F)c([H])c6[H])c(C(=O)N([H])[H])c5N([H])[H])C4([H])[H])C4([H])C(C([H])([H])[H])(C([H])([H])[H])C3([H])C4(C([H])([H])[H])C([H])([H])[H])c([H])c([H])c2C1([H])[H]

>  <smiles>  (44) 
[H]c1c([H])c([H])c2c(c1[H])C([H])([H])C([H])([H])C([H])([H])C2([H])N([H])C(=O)C1([H])N(C(=O)C([H])(N([H])C(=O)C([H])(N([H])C([H])([H])[H])C([H])([H])[H])C(C([H])([H])[H])(C([H])([H])[H])C([H])([H])[H])C([H])([H])c2c([H])c(OC([H])([H])C3([H])C([H])(C([H])([H])C(=O)N4C([H])([H])C([H])([H])C([H])([H])C([H])(n5nc(-c6c([H])c([H])c(Oc7c([H])c([H])c(F)c([H])c7F)c([H])c6[H])c(C(=O)N([H])[H])c5N([H])[H])C4([H])[H])C4([H])C(C([H])([H])[H])(C([H])([H])[H])C3([H])C4(C([H])([H])[H])C([H])([H])[H])c([H])c([H])c2C1([H])[H]

$$$$
44:0:0
     RDKit          3D

 93101  0  0  1  0  0  0  0  0999 V2000
  -29.5920  -22.2490   21.1890 C   0  0  0  0  0  3  0  0  0  0  0  0
  -28.1830  -21.0650   22.8760 C   0  0  0  0  0  1  0  0  0  0  0  0
  -28.2540  -21.7350   21.5620 N   0  0  0  0  0  4  0  0  0  0  0  0
  -27.6310  -22.5260   21.6130 H   0  0  0  0  0  0  0  0  0  0  0  0
  -27.9010  -21.1220   20.8470 H   0  0  0  0  0  0  0  0  0  0  0  0
  -31.7630  -21.1320   21.7330 C   0  0  0  0  0  2  0  0  0  0  0  0
  -30.6310  -21.1110   21.0040 C   0  0  0  0  0  0  0  0  0  0  0  0
  -31.6400  -19.4810   19.2550 C   0  0  0  0  0  2  0  0  0  0  0  0
  -31.9450  -18.0610   19.7540 C   0  0  0  0  0  2  0  0  0  0  0  0
  -29.8220  -18.6520   20.6570 C   0  0  0  0  0  2  0  0  0  0  0  0
  -30.3690  -19.9590   20.0040 C   0  0  0  0  0  3  0  0  0  0  0  0
  -30.5670  -17.4460   20.0290 C   0  0  0  0  0  3  0  0  0  0  0  0
  -30.5350  -16.1200   20.8710 C   0  0  0  0  0  2  0  0  0  0  0  0
  -31.1790  -14.8630   20.2040 C   0  0  0  0  0  0  0  0  0  0  0  0
  -30.8770  -12.6830   19.0760 C   0  0  0  0  0  2  0  0  0  0  0  0
  -29.9340  -12.8790   17.8710 C   0  0  0  0  0  2  0  0  0  0  0  0
  -28.4620  -12.7390   18.3040 C   0  0  0  0  0  2  0  0  0  0  0  0
  -28.1320  -13.5890   19.5600 C   0  0  0  0  0  3  0  0  0  0  0  0
  -29.1890  -13.3690   20.6650 C   0  0  0  0  0  2  0  0  0  0  0  0
  -30.5070  -13.6800   20.0950 N   0  0  0  0  0  0  0  0  0  0  0  0
  -32.2990  -14.9990   19.7050 O   0  0  0  0  0  0  0  0  0  0  0  0
  -25.7380  -14.2140   20.2620 C   0  0  0  0  0  0  0  0  0  0  0  0
  -24.6670  -13.4510   20.6430 C   0  0  0  0  0  0  0  0  0  0  0  0
  -25.1220  -12.0970   20.6280 C   0  0  0  0  0  0  0  0  0  0  0  0
  -26.7790  -13.3250   20.0430 N   0  0  0  0  0  0  0  0  0  0  0  0
  -26.4110  -12.0480   20.3180 N   0  0  0  0  0  0  0  0  0  0  0  0
  -24.3900  -10.8400   20.8370 C   0  0  0  0  0  0  0  0  0  0  0  0
  -24.7550   -9.9340   21.8560 C   0  0  0  0  0  3  0  0  0  0  0  0
  -24.0240   -8.7410   22.0480 C   0  0  0  0  0  3  0  0  0  0  0  0
  -22.9160   -8.4460   21.2190 C   0  0  0  0  0  0  0  0  0  0  0  0
  -22.5730   -9.3410   20.1890 C   0  0  0  0  0  3  0  0  0  0  0  0
  -23.3030  -10.5240   19.9970 C   0  0  0  0  0  3  0  0  0  0  0  0
  -22.1640   -7.3000   21.3140 O   0  0  0  0  0  0  0  0  0  0  0  0
  -21.9510   -6.6790   22.5190 C   0  0  0  0  0  0  0  0  0  0  0  0
  -21.3100   -7.3340   23.5920 C   0  0  0  0  0  3  0  0  0  0  0  0
  -21.0480   -6.6350   24.7880 C   0  0  0  0  0  3  0  0  0  0  0  0
  -21.4180   -5.2820   24.9090 C   0  0  0  0  0  0  0  0  0  0  0  0
  -22.0500   -4.6260   23.8380 C   0  0  0  0  0  3  0  0  0  0  0  0
  -22.3140   -5.3230   22.6460 C   0  0  0  0  0  0  0  0  0  0  0  0
  -22.9050   -4.6800   21.6100 F   0  0  0  0  0  0  0  0  0  0  0  0
  -21.1590   -4.6070   26.0540 F   0  0  0  0  0  0  0  0  0  0  0  0
  -23.2720  -13.9380   20.9140 C   0  0  0  0  0  0  0  0  0  0  0  0
  -22.5460  -13.2560   21.7920 N   0  0  0  0  0  0  0  0  0  0  0  0
  -22.8370  -14.9590   20.3810 O   0  0  0  0  0  0  0  0  0  0  0  0
  -22.9120  -12.4280   22.2400 H   0  0  0  0  0  0  0  0  0  0  0  0
  -21.6120  -13.5630   22.0200 H   0  0  0  0  0  0  0  0  0  0  0  0
  -25.9100  -15.5810   20.0650 N   0  0  0  0  0  0  0  0  0  0  0  0
  -25.1480  -16.2430   20.1580 H   0  0  0  0  0  0  0  0  0  0  0  0
  -26.7660  -16.0040   19.7260 H   0  0  0  0  0  0  0  0  0  0  0  0
  -29.5220  -23.2900   20.0290 C   0  0  0  0  0  2  0  0  0  0  0  0
  -28.7090  -24.5860   20.3610 C   0  0  0  0  0  2  0  0  0  0  0  0
  -28.8930  -25.7460   19.3450 C   0  0  0  0  0  2  0  0  0  0  0  0
  -28.6300  -27.0490   19.8880 O   0  0  0  0  0  0  0  0  0  0  0  0
  -24.5140  -31.8050   23.1520 C   0  0  0  0  0  0  0  0  0  0  0  0
  -27.3800  -27.6420   19.8790 C   0  0  0  0  0  0  0  0  0  0  0  0
  -23.3670  -30.4130   21.4550 C   0  0  0  0  0  3  0  0  0  0  0  0
  -24.8920  -29.0090   19.9590 C   0  0  0  0  0  0  0  0  0  0  0  0
  -25.8620  -30.9200   21.2470 C   0  0  0  0  0  2  0  0  0  0  0  0
  -26.0200  -29.5750   20.5630 C   0  0  0  0  0  0  0  0  0  0  0  0
  -27.2590  -28.8980   20.5230 C   0  0  0  0  0  3  0  0  0  0  0  0
  -26.2330  -27.0810   19.2770 C   0  0  0  0  0  3  0  0  0  0  0  0
  -24.9950  -27.7630   19.3110 C   0  0  0  0  0  3  0  0  0  0  0  0
  -23.5980  -29.7920   20.0490 C   0  0  0  0  0  2  0  0  0  0  0  0
  -24.6020  -31.0590   22.0120 N   0  0  0  0  0  0  0  0  0  0  0  0
  -23.4270  -31.9950   23.7140 O   0  0  0  0  0  0  0  0  0  0  0  0
  -22.7750  -29.3250   22.3780 C   0  0  0  0  0  0  0  0  0  0  0  0
  -21.4660  -29.0650   22.2320 N   0  0  0  0  0  0  0  0  0  0  0  0
  -23.4920  -28.7130   23.1760 O   0  0  0  0  0  0  0  0  0  0  0  0
  -20.9470  -29.6120   21.5590 H   0  0  0  0  0  0  0  0  0  0  0  0
  -18.1750  -27.6320   22.6390 C   0  0  0  0  0  0  0  0  0  0  0  0
  -20.7060  -28.0500   22.9600 C   0  0  0  0  0  3  0  0  0  0  0  0
  -20.9140  -26.6490   22.3410 C   0  0  0  0  0  2  0  0  0  0  0  0
  -19.8510  -26.2860   21.2990 C   0  0  0  0  0  2  0  0  0  0  0  0
  -18.4530  -26.3190   21.9230 C   0  0  0  0  0  2  0  0  0  0  0  0
  -19.2340  -28.4520   23.1110 C   0  0  0  0  0  0  0  0  0  0  0  0
  -18.9250  -29.6780   23.7370 C   0  0  0  0  0  3  0  0  0  0  0  0
  -17.5880  -30.0870   23.8980 C   0  0  0  0  0  3  0  0  0  0  0  0
  -16.5440  -29.2640   23.4450 C   0  0  0  0  0  3  0  0  0  0  0  0
  -16.8370  -28.0380   22.8210 C   0  0  0  0  0  3  0  0  0  0  0  0
  -25.7710  -32.4740   23.7930 C   0  0  0  0  0  3  0  0  0  0  0  0
  -25.4130  -33.8570   24.1350 N   0  0  0  0  0  0  0  0  0  0  0  0
  -25.7360  -34.9290   23.4000 C   0  0  0  0  0  0  0  0  0  0  0  0
  -26.4350  -34.8580   22.3830 O   0  0  0  0  0  0  0  0  0  0  0  0
  -24.7990  -33.9820   24.9260 H   0  0  0  0  0  0  0  0  0  0  0  0
  -23.9760  -36.6820   23.0030 C   0  0  0  0  0  1  0  0  0  0  0  0
  -25.1950  -36.2960   23.8580 C   0  0  0  0  0  3  0  0  0  0  0  0
  -27.2670  -37.2230   24.7910 C   0  0  0  0  0  1  0  0  0  0  0  0
  -26.2020  -37.3770   23.8040 N   0  0  0  0  0  0  0  0  0  0  0  0
  -25.7680  -38.2840   23.9470 H   0  0  0  0  0  0  0  0  0  0  0  0
  -26.3050  -31.7060   25.0640 C   0  0  1  0  0  0  0  0  0  0  0  0
  -25.2120  -31.4060   26.1180 C   0  0  0  0  0  1  0  0  0  0  0  0
  -26.9480  -30.3620   24.6500 C   0  0  0  0  0  1  0  0  0  0  0  0
  -27.4170  -32.5360   25.7510 C   0  0  0  0  0  1  0  0  0  0  0  0
  1 50  1  0
  1  3  1  0
  3  4  1  0
  3  2  1  0
  5  3  1  0
  7  1  1  0
  7  6  2  0
  8  9  1  0
  8 11  1  0
  9 12  1  0
 11 10  1  0
 11  7  1  0
 12 10  1  0
 12 13  1  0
 14 13  1  0
 15 20  1  0
 16 17  1  0
 16 15  1  0
 18 17  1  0
 18 25  1  0
 18 19  1  0
 20 14  1  0
 20 19  1  0
 21 14  2  0
 22 23  2  0
 23 42  1  0
 24 23  1  0
 24 27  1  0
 25 22  1  0
 25 26  1  0
 26 24  2  0
 27 28  1  0
 28 29  2  0
 30 33  1  0
 30 29  1  0
 31 30  2  0
 32 31  1  0
 32 27  2  0
 33 34  1  0
 34 39  2  0
 34 35  1  0
 35 36  2  0
 36 37  1  0
 37 41  1  0
 38 37  2  0
 39 38  1  0
 40 39  1  0
 42 43  1  0
 43 46  1  0
 43 45  1  0
 44 42  2  0
 47 48  1  0
 47 22  1  0
 49 47  1  0
 50 51  1  0
 52 53  1  0
 52 51  1  0
 54 65  2  0
 55 53  1  0
 55 60  1  0
 56 64  1  0
 56 66  1  0
 57 63  1  0
 57 59  1  0
 58 64  1  0
 59 58  1  0
 60 59  2  0
 61 62  1  0
 61 55  2  0
 62 57  2  0
 63 56  1  0
 64 54  1  0
 66 68  2  0
 67 66  1  0
 69 67  1  0
 70 79  2  0
 70 75  1  0
 71 67  1  0
 71 75  1  0
 72 71  1  0
 73 74  1  0
 73 72  1  0
 74 70  1  0
 75 76  2  0
 76 77  1  0
 78 77  2  0
 79 78  1  0
 80 54  1  0
 80 81  1  0
 80 90  1  0
 81 84  1  0
 82 86  1  0
 82 81  1  0
 83 82  2  0
 86 85  1  0
 88 86  1  0
 88 89  1  0
 88 87  1  0
 90 93  1  1
 90 91  1  0
 92 90  1  0
M  ISO  4  13 100  14 100  52 101  53 101
M  END
>  <TORSDO>  (45) 
F 23

>  <SCORE>  (45) 
-9.902

>  <name>  (45) 
44

>  <ligand_id>  (45) 
44

>  <original_smiles>  (45) 
[H]C([H])=C(C1([H])C([H])([H])C([H])([H])C([H])(C([H])([H])C(=O)N2C([H])([H])C([H])([H])C([H])([H])C([H])(n3nc(-c4c([H])c([H])c(Oc5c([H])c([H])c(F)c([H])c5F)c([H])c4[H])c(C(=O)N([H])[H])c3N([H])[H])C2([H])[H])C1([H])[H])C([H])(C([H])([H])C([H])([H])C([H])([H])Oc1c([H])c([H])c2c(c1[H])C([H])([H])N(C(=O)C([H])(N([H])C(=O)C([H])(N([H])C([H])([H])[H])C([H])([H])[H])C(C([H])([H])[H])(C([H])([H])[H])C([H])([H])[H])C([H])(C(=O)N([H])C1([H])c3c([H])c([H])c([H])c([H])c3C([H])([H])C([H])([H])C1([H])[H])C2([H])[H])[N+]([H])([H])C([H])([H])[H]

>  <smiles>  (45) 
[H]C([H])=C(C1([H])C([H])([H])C([H])([H])C([H])(C([H])([H])C(=O)N2C([H])([H])C([H])([H])C([H])([H])C([H])(n3nc(-c4c([H])c([H])c(Oc5c([H])c([H])c(F)c([H])c5F)c([H])c4[H])c(C(=O)N([H])[H])c3N([H])[H])C2([H])[H])C1([H])[H])C([H])(C([H])([H])C([H])([H])C([H])([H])Oc1c([H])c([H])c2c(c1[H])C([H])([H])N(C(=O)C([H])(N([H])C(=O)C([H])(N([H])C([H])([H])[H])C([H])([H])[H])C(C([H])([H])[H])(C([H])([H])[H])C([H])([H])[H])C([H])(C(=O)N([H])C1([H])c3c([H])c([H])c([H])c([H])c3C([H])([H])C([H])([H])C1([H])[H])C2([H])[H])[N+]([H])([H])C([H])([H])[H]

$$$$
45:0:0
     RDKit          3D

 97108  0  0  1  0  0  0  0  0999 V2000
  -31.3610  -21.9190   19.4040 C   0  0  0  0  0  2  0  0  0  0  0  0
  -30.5790  -22.4680   20.3540 C   0  0  0  0  0  3  0  0  0  0  0  0
  -30.7310  -21.6870   18.0540 C   0  0  0  0  0  2  0  0  0  0  0  0
  -28.8930  -21.7820   22.2640 C   0  0  0  0  0  2  0  0  0  0  0  0
  -27.6930  -21.0300   21.6280 C   0  0  0  0  0  2  0  0  0  0  0  0
  -30.4440  -20.0680   21.3080 C   0  0  0  0  0  2  0  0  0  0  0  0
  -27.2510  -22.3350   19.4360 C   0  0  0  0  0  2  0  0  0  0  0  0
  -29.4960  -23.4600   19.8860 C   0  0  0  0  0  3  0  0  0  0  0  0
  -30.2820  -21.5950   21.5920 C   0  0  0  0  0  3  0  0  0  0  0  0
  -29.2040  -21.4860   18.2710 C   0  0  0  0  0  3  0  0  0  0  0  0
  -27.5340  -20.9790   20.0830 C   0  0  0  0  0  3  0  0  0  0  0  0
  -28.5800  -22.7790   18.8220 C   0  0  0  0  0  3  0  0  0  0  0  0
  -28.6950  -20.3620   19.2530 C   0  0  0  0  0  3  0  0  0  0  0  0
  -29.7090  -19.4610   20.0510 C   0  0  0  0  0  3  0  0  0  0  0  0
  -31.3070  -25.2360   19.5020 C   0  0  0  0  0  2  0  0  0  0  0  0
  -30.0220  -24.8370   19.4410 C   0  0  0  0  0  0  0  0  0  0  0  0
  -28.9320  -25.7560   18.9140 C   0  0  0  0  0  2  0  0  0  0  0  0
  -28.9270  -27.0720   19.4640 O   0  0  0  0  0  0  0  0  0  0  0  0
  -24.7060  -31.5880   22.9750 C   0  0  0  0  0  0  0  0  0  0  0  0
  -27.6910  -27.6930   19.4980 C   0  0  0  0  0  0  0  0  0  0  0  0
  -23.6130  -30.2620   21.1990 C   0  0  0  0  0  3  0  0  0  0  0  0
  -25.1810  -28.9930   19.6470 C   0  0  0  0  0  0  0  0  0  0  0  0
  -26.1050  -30.8310   21.0600 C   0  0  0  0  0  2  0  0  0  0  0  0
  -26.2950  -29.5410   20.2930 C   0  0  0  0  0  0  0  0  0  0  0  0
  -27.5500  -28.8970   20.2230 C   0  0  0  0  0  3  0  0  0  0  0  0
  -26.5490  -27.1660   18.8390 C   0  0  0  0  0  3  0  0  0  0  0  0
  -25.3020  -27.8000   18.9230 C   0  0  0  0  0  3  0  0  0  0  0  0
  -23.8740  -29.7400   19.7640 C   0  0  0  0  0  2  0  0  0  0  0  0
  -24.8250  -30.9030   21.8040 N   0  0  0  0  0  0  0  0  0  0  0  0
  -23.6050  -31.7250   23.5280 O   0  0  0  0  0  0  0  0  0  0  0  0
  -23.0440  -29.1040   22.0490 C   0  0  0  0  0  0  0  0  0  0  0  0
  -21.7350  -28.8450   21.9040 N   0  0  0  0  0  0  0  0  0  0  0  0
  -23.7760  -28.4470   22.7940 O   0  0  0  0  0  0  0  0  0  0  0  0
  -21.2040  -29.4330   21.2770 H   0  0  0  0  0  0  0  0  0  0  0  0
  -18.4450  -27.4080   22.3070 C   0  0  0  0  0  0  0  0  0  0  0  0
  -20.9870  -27.7810   22.5750 C   0  0  0  0  0  3  0  0  0  0  0  0
  -21.1610  -26.4310   21.8410 C   0  0  0  0  0  2  0  0  0  0  0  0
  -20.0590  -26.1600   20.8110 C   0  0  0  0  0  2  0  0  0  0  0  0
  -18.6830  -26.1530   21.4850 C   0  0  0  0  0  2  0  0  0  0  0  0
  -19.5270  -28.1810   22.8060 C   0  0  0  0  0  0  0  0  0  0  0  0
  -19.2500  -29.3580   23.5350 C   0  0  0  0  0  3  0  0  0  0  0  0
  -17.9230  -29.7640   23.7710 C   0  0  0  0  0  3  0  0  0  0  0  0
  -16.8550  -28.9870   23.2890 C   0  0  0  0  0  3  0  0  0  0  0  0
  -17.1170  -27.8100   22.5640 C   0  0  0  0  0  3  0  0  0  0  0  0
  -25.9400  -32.2520   23.6630 C   0  0  0  0  0  3  0  0  0  0  0  0
  -26.4550  -31.4510   24.9200 C   0  0  1  0  0  0  0  0  0  0  0  0
  -25.3430  -31.1210   25.9430 C   0  0  0  0  0  1  0  0  0  0  0  0
  -27.1110  -30.1190   24.4880 C   0  0  0  0  0  1  0  0  0  0  0  0
  -27.5500  -32.2660   25.6480 C   0  0  0  0  0  1  0  0  0  0  0  0
  -25.5530  -33.6180   24.0380 N   0  0  0  0  0  0  0  0  0  0  0  0
  -25.8420  -34.7130   23.3200 C   0  0  0  0  0  0  0  0  0  0  0  0
  -26.5330  -34.6810   22.2990 O   0  0  0  0  0  0  0  0  0  0  0  0
  -24.9390  -33.7130   24.8330 H   0  0  0  0  0  0  0  0  0  0  0  0
  -24.0140  -36.4100   23.0060 C   0  0  0  0  0  1  0  0  0  0  0  0
  -25.2710  -36.0550   23.8160 C   0  0  0  0  0  3  0  0  0  0  0  0
  -27.3430  -37.0370   24.6950 C   0  0  0  0  0  1  0  0  0  0  0  0
  -26.2430  -37.1680   23.7430 N   0  0  0  0  0  0  0  0  0  0  0  0
  -25.7840  -38.0590   23.9110 H   0  0  0  0  0  0  0  0  0  0  0  0
  -29.0610  -18.0880   20.3970 C   0  0  0  0  0  2  0  0  0  0  0  0
  -30.2750  -15.8760   20.7200 C   0  0  0  0  0  3  0  0  0  0  0  0
  -29.8880  -16.9040   19.9410 C   0  0  0  0  0  3  0  0  0  0  0  0
  -31.0250  -14.7910   20.1120 C   0  0  0  0  0  0  0  0  0  0  0  0
  -30.7180  -12.5710   19.0920 C   0  0  0  0  0  2  0  0  0  0  0  0
  -29.7380  -12.7070   17.9060 C   0  0  0  0  0  2  0  0  0  0  0  0
  -28.2770  -12.5870   18.3850 C   0  0  0  0  0  2  0  0  0  0  0  0
  -27.9710  -13.4940   19.6070 C   0  0  0  0  0  3  0  0  0  0  0  0
  -29.0550  -13.3230   20.6920 C   0  0  0  0  0  2  0  0  0  0  0  0
  -30.3670  -13.6000   20.0810 N   0  0  0  0  0  0  0  0  0  0  0  0
  -32.1080  -14.9740   19.5500 O   0  0  0  0  0  0  0  0  0  0  0  0
  -25.6220  -14.1450   20.4410 C   0  0  0  0  0  0  0  0  0  0  0  0
  -24.5520  -13.3900   20.8390 C   0  0  0  0  0  0  0  0  0  0  0  0
  -24.9750  -12.0290   20.7460 C   0  0  0  0  0  0  0  0  0  0  0  0
  -26.6330  -13.2440   20.1390 N   0  0  0  0  0  0  0  0  0  0  0  0
  -26.2490  -11.9650   20.3790 N   0  0  0  0  0  0  0  0  0  0  0  0
  -24.2270  -10.7790   20.9350 C   0  0  0  0  0  0  0  0  0  0  0  0
  -24.6510   -9.7970   21.8580 C   0  0  0  0  0  3  0  0  0  0  0  0
  -23.9040   -8.6130   22.0340 C   0  0  0  0  0  3  0  0  0  0  0  0
  -22.7210   -8.4010   21.2890 C   0  0  0  0  0  0  0  0  0  0  0  0
  -22.3170   -9.3710   20.3550 C   0  0  0  0  0  3  0  0  0  0  0  0
  -23.0630  -10.5470   20.1760 C   0  0  0  0  0  3  0  0  0  0  0  0
  -21.9460   -7.2700   21.3760 O   0  0  0  0  0  0  0  0  0  0  0  0
  -21.8470   -6.5530   22.5410 C   0  0  0  0  0  0  0  0  0  0  0  0
  -21.3770   -7.1370   23.7380 C   0  0  0  0  0  3  0  0  0  0  0  0
  -21.2250   -6.3460   24.8950 C   0  0  0  0  0  3  0  0  0  0  0  0
  -21.5330   -4.9730   24.8550 C   0  0  0  0  0  0  0  0  0  0  0  0
  -21.9930   -4.3890   23.6630 C   0  0  0  0  0  3  0  0  0  0  0  0
  -22.1480   -5.1770   22.5090 C   0  0  0  0  0  0  0  0  0  0  0  0
  -22.5730   -4.6040   21.3560 F   0  0  0  0  0  0  0  0  0  0  0  0
  -21.3800   -4.2110   25.9650 F   0  0  0  0  0  0  0  0  0  0  0  0
  -23.1820  -13.8910   21.1930 C   0  0  0  0  0  0  0  0  0  0  0  0
  -22.4840  -13.1900   22.0800 N   0  0  0  0  0  0  0  0  0  0  0  0
  -22.7420  -14.9390   20.7210 O   0  0  0  0  0  0  0  0  0  0  0  0
  -22.8540  -12.3400   22.4800 H   0  0  0  0  0  0  0  0  0  0  0  0
  -21.5660  -13.5060   22.3600 H   0  0  0  0  0  0  0  0  0  0  0  0
  -25.8150  -15.5150   20.2940 N   0  0  0  0  0  0  0  0  0  0  0  0
  -25.0740  -16.1870   20.4610 H   0  0  0  0  0  0  0  0  0  0  0  0
  -26.6750  -15.9400   19.9710 H   0  0  0  0  0  0  0  0  0  0  0  0
  2  1  1  0
  2  9  1  0
  3  1  1  0
  5  4  1  0
  8 16  1  0
  8  2  1  0
  9  6  1  0
  9  4  1  0
 10  3  1  0
 10 12  1  0
 10 13  1  0
 11  7  1  0
 11  5  1  0
 12  7  1  0
 12  8  1  0
 13 14  1  0
 13 11  1  0
 14 59  1  0
 14  6  1  0
 16 15  2  0
 17 16  1  0
 17 18  1  0
 18 20  1  0
 19 30  2  0
 19 45  1  0
 20 25  1  0
 21 29  1  0
 21 31  1  0
 22 28  1  0
 22 24  1  0
 23 29  1  0
 24 23  1  0
 25 24  2  0
 26 27  1  0
 26 20  2  0
 27 22  2  0
 28 21  1  0
 29 19  1  0
 31 33  2  0
 32 31  1  0
 32 36  1  0
 34 32  1  0
 35 44  2  0
 35 40  1  0
 36 40  1  0
 37 36  1  0
 38 39  1  0
 38 37  1  0
 39 35  1  0
 40 41  2  0
 41 42  1  0
 43 42  2  0
 44 43  1  0
 45 50  1  0
 45 46  1  0
 46 49  1  1
 46 47  1  0
 48 46  1  0
 50 53  1  0
 51 55  1  0
 51 50  1  0
 52 51  2  0
 54 55  1  0
 57 55  1  0
 57 58  1  0
 57 56  1  0
 61 59  1  0
 61 60  2  0
 62 60  1  0
 63 68  1  0
 64 65  1  0
 64 63  1  0
 65 66  1  0
 66 73  1  0
 66 67  1  0
 68 62  1  0
 68 67  1  0
 69 62  2  0
 70 71  2  0
 71 90  1  0
 72 71  1  0
 72 75  1  0
 73 74  1  0
 73 70  1  0
 74 72  2  0
 75 76  1  0
 76 77  2  0
 78 81  1  0
 78 77  1  0
 79 78  2  0
 80 79  1  0
 80 75  2  0
 81 82  1  0
 82 83  1  0
 83 84  2  0
 85 84  1  0
 85 89  1  0
 86 85  2  0
 87 82  2  0
 87 86  1  0
 88 87  1  0
 90 91  1  0
 91 94  1  0
 91 93  1  0
 92 90  2  0
 95 70  1  0
 95 96  1  0
 97 95  1  0
M  ISO  4  17 101  18 101  60 100  62 100
M  END
>  <TORSDO>  (46) 
F 20

>  <SCORE>  (46) 
-11.517

>  <name>  (46) 
45

>  <ligand_id>  (46) 
45

>  <original_smiles>  (46) 
[H]C([H])=C(C([H])([H])Oc1c([H])c([H])c2c(c1[H])C([H])([H])N(C(=O)C([H])(N([H])C(=O)C([H])(N([H])C([H])([H])[H])C([H])([H])[H])C(C([H])([H])[H])(C([H])([H])[H])C([H])([H])[H])C([H])(C(=O)N([H])C1([H])c3c([H])c([H])c([H])c([H])c3C([H])([H])C([H])([H])C1([H])[H])C2([H])[H])C1([H])C2=C([H])C([H])([H])C3([H])C1([H])C([H])([H])C1([H])C([H])([H])C([H])([H])C2([H])C([H])([H])C([H])(C([H])([H])C([H])=C([H])C(=O)N2C([H])([H])C([H])([H])C([H])([H])C([H])(n4nc(-c5c([H])c([H])c(Oc6c([H])c([H])c(F)c([H])c6F)c([H])c5[H])c(C(=O)N([H])[H])c4N([H])[H])C2([H])[H])C13[H]

>  <smiles>  (46) 
[H]C([H])=C(C([H])([H])Oc1c([H])c([H])c2c(c1[H])C([H])([H])N(C(=O)C([H])(N([H])C(=O)C([H])(N([H])C([H])([H])[H])C([H])([H])[H])C(C([H])([H])[H])(C([H])([H])[H])C([H])([H])[H])C([H])(C(=O)N([H])C1([H])c3c([H])c([H])c([H])c([H])c3C([H])([H])C([H])([H])C1([H])[H])C2([H])[H])C1([H])C2=C([H])C([H])([H])C3([H])C1([H])C([H])([H])C1([H])C([H])([H])C([H])([H])C2([H])C([H])([H])C([H])(C([H])([H])C([H])=C([H])C(=O)N2C([H])([H])C([H])([H])C([H])([H])C([H])(n4nc(-c5c([H])c([H])c(Oc6c([H])c([H])c(F)c([H])c6F)c([H])c5[H])c(C(=O)N([H])[H])c4N([H])[H])C2([H])[H])C13[H]

$$$$
46:0:0
     RDKit          3D

 93101  0  0  1  0  0  0  0  0999 V2000
  -29.0610  -20.5490   20.0820 N   0  0  0  0  0  4  0  0  0  0  0  0
  -28.1210  -20.2970   19.8230 H   0  0  0  0  0  0  0  0  0  0  0  0
  -29.5730  -20.6860   19.2230 H   0  0  0  0  0  0  0  0  0  0  0  0
  -32.1950  -19.9950   20.2220 C   0  0  0  0  0  3  0  0  0  0  0  0
  -31.1190  -19.6230   21.2770 C   0  0  0  0  0  3  0  0  0  0  0  0
  -31.7470  -20.2110   18.7520 C   0  0  0  0  0  2  0  0  0  0  0  0
  -30.9460  -17.7370   18.8900 C   0  0  0  0  0  2  0  0  0  0  0  0
  -29.8220  -17.7740   19.9690 C   0  0  0  0  0  3  0  0  0  0  0  0
  -29.7150  -19.2690   20.7430 C   0  0  0  0  0  3  0  0  0  0  0  0
  -31.2160  -18.9650   17.9750 C   0  0  1  0  0  0  0  0  0  0  0  0
  -29.9670  -19.3060   17.1330 C   0  0  0  0  0  1  0  0  0  0  0  0
  -32.3040  -18.5520   16.9590 C   0  0  0  0  0  1  0  0  0  0  0  0
  -29.9180  -16.3330   20.8420 C   0  0  0  0  0  2  0  0  0  0  0  0
  -30.5810  -14.8960   20.3610 C   0  0  0  0  0  0  0  0  0  0  0  0
  -30.3960  -12.5720   19.3860 C   0  0  0  0  0  2  0  0  0  0  0  0
  -29.4770  -12.6180   18.1440 C   0  0  0  0  0  2  0  0  0  0  0  0
  -28.0030  -12.4390   18.5500 C   0  0  0  0  0  2  0  0  0  0  0  0
  -27.6100  -13.3260   19.7610 C   0  0  0  0  0  3  0  0  0  0  0  0
  -28.6600  -13.2770   20.8920 C   0  0  0  0  0  2  0  0  0  0  0  0
  -29.9560  -13.6540   20.3130 N   0  0  0  0  0  0  0  0  0  0  0  0
  -31.7580  -14.9250   19.9840 O   0  0  0  0  0  0  0  0  0  0  0  0
  -25.2150  -13.9010   20.4610 C   0  0  0  0  0  0  0  0  0  0  0  0
  -24.1480  -13.1260   20.8230 C   0  0  0  0  0  0  0  0  0  0  0  0
  -24.6180  -11.7750   20.8130 C   0  0  0  0  0  0  0  0  0  0  0  0
  -26.2660  -13.0250   20.2440 N   0  0  0  0  0  0  0  0  0  0  0  0
  -25.9120  -11.7410   20.5180 N   0  0  0  0  0  0  0  0  0  0  0  0
  -23.8900  -10.5130   21.0060 C   0  0  0  0  0  0  0  0  0  0  0  0
  -24.3090   -9.5540   21.9540 C   0  0  0  0  0  3  0  0  0  0  0  0
  -23.5790   -8.3600   22.1370 C   0  0  0  0  0  3  0  0  0  0  0  0
  -22.4150   -8.1150   21.3700 C   0  0  0  0  0  0  0  0  0  0  0  0
  -22.0150   -9.0620   20.4120 C   0  0  0  0  0  3  0  0  0  0  0  0
  -22.7460  -10.2470   20.2280 C   0  0  0  0  0  3  0  0  0  0  0  0
  -21.6590   -6.9700   21.4600 O   0  0  0  0  0  0  0  0  0  0  0  0
  -21.5970   -6.2360   22.6180 C   0  0  0  0  0  0  0  0  0  0  0  0
  -21.1640   -6.8020   23.8370 C   0  0  0  0  0  3  0  0  0  0  0  0
  -21.0490   -5.9950   24.9860 C   0  0  0  0  0  3  0  0  0  0  0  0
  -21.3570   -4.6230   24.9190 C   0  0  0  0  0  0  0  0  0  0  0  0
  -21.7820   -4.0560   23.7050 C   0  0  0  0  0  3  0  0  0  0  0  0
  -21.8990   -4.8600   22.5580 C   0  0  0  0  0  0  0  0  0  0  0  0
  -22.2890   -4.3040   21.3850 F   0  0  0  0  0  0  0  0  0  0  0  0
  -21.2400   -3.8470   26.0210 F   0  0  0  0  0  0  0  0  0  0  0  0
  -22.7460  -13.6000   21.0720 C   0  0  0  0  0  0  0  0  0  0  0  0
  -22.0100  -12.9110   21.9350 N   0  0  0  0  0  0  0  0  0  0  0  0
  -22.3120  -14.6180   20.5350 O   0  0  0  0  0  0  0  0  0  0  0  0
  -22.3750  -12.0880   22.3930 H   0  0  0  0  0  0  0  0  0  0  0  0
  -21.0680  -13.2070   22.1440 H   0  0  0  0  0  0  0  0  0  0  0  0
  -25.3760  -15.2710   20.2740 N   0  0  0  0  0  0  0  0  0  0  0  0
  -24.6060  -15.9230   20.3760 H   0  0  0  0  0  0  0  0  0  0  0  0
  -26.2310  -15.7150   19.9650 H   0  0  0  0  0  0  0  0  0  0  0  0
  -28.9680  -21.9640   20.7800 C   0  0  0  0  0  3  0  0  0  0  0  0
  -28.5970  -23.3880   19.9700 C   0  0  0  0  0  3  0  0  0  0  0  0
  -28.1680  -24.8170   20.7290 C   0  0  0  0  0  2  0  0  0  0  0  0
  -28.3020  -26.2650   20.2190 O   0  0  0  0  0  0  0  0  0  0  0  0
  -24.6090  -31.8740   23.2400 C   0  0  0  0  0  0  0  0  0  0  0  0
  -27.2110  -27.1910   20.2330 C   0  0  0  0  0  0  0  0  0  0  0  0
  -23.4110  -30.4640   21.6080 C   0  0  0  0  0  3  0  0  0  0  0  0
  -24.8640  -28.8860   20.1970 C   0  0  0  0  0  0  0  0  0  0  0  0
  -25.9610  -30.7520   21.4340 C   0  0  0  0  0  2  0  0  0  0  0  0
  -26.0400  -29.3580   20.7910 C   0  0  0  0  0  0  0  0  0  0  0  0
  -27.2180  -28.5280   20.7880 C   0  0  0  0  0  3  0  0  0  0  0  0
  -26.0050  -26.7970   19.6180 C   0  0  0  0  0  3  0  0  0  0  0  0
  -24.8550  -27.6150   19.5980 C   0  0  0  0  0  3  0  0  0  0  0  0
  -23.6330  -29.7770   20.2350 C   0  0  0  0  0  2  0  0  0  0  0  0
  -24.6790  -31.0520   22.1490 N   0  0  0  0  0  0  0  0  0  0  0  0
  -23.5220  -32.1560   23.7690 O   0  0  0  0  0  0  0  0  0  0  0  0
  -22.7390  -29.4590   22.5770 C   0  0  0  0  0  0  0  0  0  0  0  0
  -21.4120  -29.2810   22.4500 N   0  0  0  0  0  0  0  0  0  0  0  0
  -23.4140  -28.8420   23.4050 O   0  0  0  0  0  0  0  0  0  0  0  0
  -20.9270  -29.8340   21.7560 H   0  0  0  0  0  0  0  0  0  0  0  0
  -18.0360  -28.0680   22.9510 C   0  0  0  0  0  0  0  0  0  0  0  0
  -20.5930  -28.3460   23.2240 C   0  0  0  0  0  3  0  0  0  0  0  0
  -20.7030  -26.9100   22.6600 C   0  0  0  0  0  2  0  0  0  0  0  0
  -19.6060  -26.5740   21.6460 C   0  0  0  0  0  2  0  0  0  0  0  0
  -18.2220  -26.7160   22.2850 C   0  0  0  0  0  2  0  0  0  0  0  0
  -19.1490  -28.8400   23.3770 C   0  0  0  0  0  0  0  0  0  0  0  0
  -18.9200  -30.1040   23.9630 C   0  0  0  0  0  3  0  0  0  0  0  0
  -17.6120  -30.5980   24.1220 C   0  0  0  0  0  3  0  0  0  0  0  0
  -16.5140  -29.8250   23.7090 C   0  0  0  0  0  3  0  0  0  0  0  0
  -16.7270  -28.5610   23.1310 C   0  0  0  0  0  3  0  0  0  0  0  0
  -25.8870  -32.5140   23.8650 C   0  0  0  0  0  3  0  0  0  0  0  0
  -25.5710  -33.9150   24.1870 N   0  0  0  0  0  0  0  0  0  0  0  0
  -25.9080  -34.9670   23.4300 C   0  0  0  0  0  0  0  0  0  0  0  0
  -26.5820  -34.8600   22.4020 O   0  0  0  0  0  0  0  0  0  0  0  0
  -24.9680  -34.0700   24.9810 H   0  0  0  0  0  0  0  0  0  0  0  0
  -24.1820  -36.7650   23.0650 C   0  0  0  0  0  1  0  0  0  0  0  0
  -25.4200  -36.3580   23.8820 C   0  0  0  0  0  3  0  0  0  0  0  0
  -27.5520  -37.2420   24.7200 C   0  0  0  0  0  1  0  0  0  0  0  0
  -26.4550  -37.4100   23.7700 N   0  0  0  0  0  0  0  0  0  0  0  0
  -26.0500  -38.3320   23.9120 H   0  0  0  0  0  0  0  0  0  0  0  0
  -26.3940  -31.7550   25.1530 C   0  0  1  0  0  0  0  0  0  0  0  0
  -25.2950  -31.5320   26.2170 C   0  0  0  0  0  1  0  0  0  0  0  0
  -26.9770  -30.3710   24.7810 C   0  0  0  0  0  1  0  0  0  0  0  0
  -27.5430  -32.5550   25.8110 C   0  0  0  0  0  1  0  0  0  0  0  0
  1 50  1  0
  2  1  1  0
  3  1  1  0
  4  5  2  0
  6  4  1  0
  7  8  1  0
  8  9  1  0
  8 13  1  0
  9  1  1  0
  9  5  1  0
 10  6  1  0
 10  7  1  0
 10 11  1  6
 12 10  1  0
 14 13  1  0
 15 20  1  0
 16 17  1  0
 16 15  1  0
 18 17  1  0
 18 25  1  0
 18 19  1  0
 20 14  1  0
 20 19  1  0
 21 14  2  0
 22 23  2  0
 23 42  1  0
 24 23  1  0
 24 27  1  0
 25 22  1  0
 25 26  1  0
 26 24  2  0
 27 28  1  0
 28 29  2  0
 30 33  1  0
 30 29  1  0
 31 30  2  0
 32 31  1  0
 32 27  2  0
 33 34  1  0
 34 35  1  0
 35 36  2  0
 37 36  1  0
 37 41  1  0
 38 37  2  0
 39 34  2  0
 39 38  1  0
 40 39  1  0
 42 43  1  0
 43 46  1  0
 43 45  1  0
 44 42  2  0
 47 48  1  0
 47 22  1  0
 49 47  1  0
 51 52  1  0
 51 50  2  0
 53 55  1  0
 53 52  1  0
 54 65  2  0
 55 60  1  0
 56 64  1  0
 56 66  1  0
 57 63  1  0
 57 59  1  0
 58 64  1  0
 59 58  1  0
 60 59  2  0
 61 55  2  0
 62 61  1  0
 62 57  2  0
 63 56  1  0
 64 54  1  0
 66 68  2  0
 67 66  1  0
 69 67  1  0
 70 79  2  0
 70 75  1  0
 71 67  1  0
 71 75  1  0
 72 71  1  0
 73 74  1  0
 73 72  1  0
 74 70  1  0
 75 76  2  0
 76 77  1  0
 78 77  2  0
 79 78  1  0
 80 54  1  0
 80 81  1  0
 80 90  1  0
 81 84  1  0
 82 86  1  0
 82 81  1  0
 83 82  2  0
 86 85  1  0
 88 86  1  0
 88 89  1  0
 88 87  1  0
 90 93  1  1
 90 91  1  0
 92 90  1  0
M  ISO  4  13 100  14 100  52 101  53 101
M  END
>  <TORSDO>  (47) 
F 21

>  <SCORE>  (47) 
-13.558

>  <name>  (47) 
46

>  <ligand_id>  (47) 
46

>  <original_smiles>  (47) 
[H]c1c([H])c([H])c2c(c1[H])C([H])([H])C([H])([H])C([H])([H])C2([H])N([H])C(=O)C1([H])N(C(=O)C([H])(N([H])C(=O)C([H])(N([H])C([H])([H])[H])C([H])([H])[H])C(C([H])([H])[H])(C([H])([H])[H])C([H])([H])[H])C([H])([H])c2c([H])c(OC([H])([H])C([H])([H])C([H])([H])[N+]([H])([H])C3([H])C([H])([H])C([H])([H])C([H])([H])C(C([H])([H])[H])(C([H])([H])[H])C([H])([H])C3([H])C([H])([H])C(=O)N3C([H])([H])C([H])([H])C([H])([H])C([H])(n4nc(-c5c([H])c([H])c(Oc6c([H])c([H])c(F)c([H])c6F)c([H])c5[H])c(C(=O)N([H])[H])c4N([H])[H])C3([H])[H])c([H])c([H])c2C1([H])[H]

>  <smiles>  (47) 
[H]c1c([H])c([H])c2c(c1[H])C([H])([H])C([H])([H])C([H])([H])C2([H])N([H])C(=O)C1([H])N(C(=O)C([H])(N([H])C(=O)C([H])(N([H])C([H])([H])[H])C([H])([H])[H])C(C([H])([H])[H])(C([H])([H])[H])C([H])([H])[H])C([H])([H])c2c([H])c(OC([H])([H])C([H])([H])C([H])([H])[N+]([H])([H])C3([H])C([H])([H])C([H])([H])C([H])([H])C(C([H])([H])[H])(C([H])([H])[H])C([H])([H])C3([H])C([H])([H])C(=O)N3C([H])([H])C([H])([H])C([H])([H])C([H])(n4nc(-c5c([H])c([H])c(Oc6c([H])c([H])c(F)c([H])c6F)c([H])c5[H])c(C(=O)N([H])[H])c4N([H])[H])C3([H])[H])c([H])c([H])c2C1([H])[H]

$$$$
47:0:0
     RDKit          3D

 96105  0  0  1  0  0  0  0  0999 V2000
  -29.9730  -18.1220   22.3920 C   0  0  0  0  0  2  0  0  0  0  0  0
  -29.5060  -17.6310   21.0100 C   0  0  0  0  0  2  0  0  0  0  0  0
  -31.5030  -18.2700   22.5270 C   0  0  0  0  0  2  0  0  0  0  0  0
  -30.1600  -18.4350   19.8810 C   0  0  0  0  0  2  0  0  0  0  0  0
  -32.3980  -20.9230   19.9180 C   0  0  0  0  0  2  0  0  0  0  0  0
  -32.1810  -20.4150   21.3490 C   0  0  0  0  0  3  0  0  0  0  0  0
  -32.2230  -18.8880   21.2940 C   0  0  0  0  0  3  0  0  0  0  0  0
  -32.1880  -19.7370   18.9550 C   0  0  0  0  0  3  0  0  0  0  0  0
  -31.7190  -18.4580   19.8820 C   0  0  2  0  0  0  0  0  0  0  0  0
  -32.6770  -21.6990   23.4260 C   0  0  0  0  0  2  0  0  0  0  0  0
  -33.1430  -20.9680   22.4040 C   0  0  0  0  0  0  0  0  0  0  0  0
  -34.6330  -20.6740   22.2800 C   0  0  0  0  0  1  0  0  0  0  0  0
  -30.9720  -21.2320   17.1560 C   0  0  0  0  0  0  0  0  0  0  0  0
  -30.0880  -20.9890   15.9430 C   0  0  0  0  0  1  0  0  0  0  0  0
  -31.2830  -20.1160   17.8030 N   0  0  0  0  0  0  0  0  0  0  0  0
  -31.3230  -22.7960   17.2750 C   0  0  0  0  0  3  0  0  0  0  0  0
  -30.1130  -23.8660   17.5010 C   0  0  0  0  0  3  0  0  0  0  0  0
  -30.3190  -25.3590   17.5940 O   0  0  0  0  0  0  0  0  0  0  0  0
  -25.3620  -28.2650   22.0370 C   0  0  0  0  0  0  0  0  0  0  0  0
  -29.1760  -26.1710   17.7720 C   0  0  0  0  0  0  0  0  0  0  0  0
  -24.7790  -28.1240   19.6440 C   0  0  0  0  0  3  0  0  0  0  0  0
  -26.7220  -27.6330   18.0530 C   0  0  0  0  0  0  0  0  0  0  0  0
  -27.2340  -28.3690   20.3800 C   0  0  0  0  0  2  0  0  0  0  0  0
  -27.6450  -27.6270   19.1080 C   0  0  0  0  0  0  0  0  0  0  0  0
  -28.8800  -26.9100   18.9680 C   0  0  0  0  0  3  0  0  0  0  0  0
  -28.2340  -26.2620   16.7250 C   0  0  0  0  0  3  0  0  0  0  0  0
  -27.0190  -26.9590   16.8620 C   0  0  0  0  0  3  0  0  0  0  0  0
  -25.4070  -28.3640   18.2480 C   0  0  0  0  0  2  0  0  0  0  0  0
  -25.7920  -28.2330   20.7430 N   0  0  0  0  0  0  0  0  0  0  0  0
  -24.1540  -28.2300   22.3190 O   0  0  0  0  0  0  0  0  0  0  0  0
  -24.0370  -26.7670   19.6340 C   0  0  0  0  0  0  0  0  0  0  0  0
  -22.8470  -26.7300   19.0100 N   0  0  0  0  0  0  0  0  0  0  0  0
  -24.5440  -25.7710   20.1550 O   0  0  0  0  0  0  0  0  0  0  0  0
  -22.5080  -27.5840   18.5870 H   0  0  0  0  0  0  0  0  0  0  0  0
  -19.7280  -25.5650   17.6020 C   0  0  0  0  0  0  0  0  0  0  0  0
  -21.9940  -25.5540   18.8480 C   0  0  0  0  0  3  0  0  0  0  0  0
  -22.5090  -24.6540   17.7010 C   0  0  0  0  0  2  0  0  0  0  0  0
  -21.8470  -24.9620   16.3540 C   0  0  0  0  0  2  0  0  0  0  0  0
  -20.3290  -24.7840   16.4450 C   0  0  0  0  0  2  0  0  0  0  0  0
  -20.5150  -25.9410   18.7220 C   0  0  0  0  0  0  0  0  0  0  0  0
  -19.9190  -26.6960   19.7560 C   0  0  0  0  0  3  0  0  0  0  0  0
  -18.5640  -27.0710   19.6850 C   0  0  0  0  0  3  0  0  0  0  0  0
  -17.7840  -26.6780   18.5850 C   0  0  0  0  0  3  0  0  0  0  0  0
  -18.3650  -25.9270   17.5470 C   0  0  0  0  0  3  0  0  0  0  0  0
  -26.3690  -28.3710   23.2240 C   0  0  0  0  0  3  0  0  0  0  0  0
  -25.7910  -29.2950   24.2090 N   0  0  0  0  0  0  0  0  0  0  0  0
  -26.2250  -30.5460   24.4220 C   0  0  0  0  0  0  0  0  0  0  0  0
  -27.2060  -31.0240   23.8480 O   0  0  0  0  0  0  0  0  0  0  0  0
  -24.9400  -28.9960   24.6630 H   0  0  0  0  0  0  0  0  0  0  0  0
  -24.5290  -32.3770   24.6840 C   0  0  0  0  0  1  0  0  0  0  0  0
  -25.4470  -31.4030   25.4370 C   0  0  0  0  0  3  0  0  0  0  0  0
  -27.0210  -31.2920   27.3160 C   0  0  0  0  0  1  0  0  0  0  0  0
  -26.3210  -32.1530   26.3650 N   0  0  0  0  0  0  0  0  0  0  0  0
  -25.7800  -32.8350   26.8950 H   0  0  0  0  0  0  0  0  0  0  0  0
  -26.6880  -26.9750   23.8870 C   0  0  1  0  0  0  0  0  0  0  0  0
  -25.4240  -26.1720   24.2730 C   0  0  0  0  0  1  0  0  0  0  0  0
  -27.5280  -26.0880   22.9390 C   0  0  0  0  0  1  0  0  0  0  0  0
  -27.5440  -27.1860   25.1590 C   0  0  0  0  0  1  0  0  0  0  0  0
  -32.3600  -16.9890   19.5660 C   0  0  0  0  0  3  0  0  0  0  0  0
  -31.9340  -15.6550   20.3990 C   0  0  0  0  0  3  0  0  0  0  0  0
  -32.6860  -14.2520   20.3510 C   0  0  0  0  0  0  0  0  0  0  0  0
  -32.3340  -11.8210   19.9230 C   0  0  0  0  0  2  0  0  0  0  0  0
  -31.4670  -11.6760   18.6460 C   0  0  0  0  0  2  0  0  0  0  0  0
  -29.9640  -11.7590   18.9750 C   0  0  0  0  0  2  0  0  0  0  0  0
  -29.6390  -12.9920   19.8530 C   0  0  0  0  0  3  0  0  0  0  0  0
  -30.5890  -13.0440   21.0670 C   0  0  0  0  0  2  0  0  0  0  0  0
  -31.9700  -13.0970   20.5610 N   0  0  0  0  0  0  0  0  0  0  0  0
  -33.8820  -14.1990   20.0430 O   0  0  0  0  0  0  0  0  0  0  0  0
  -27.4190  -14.1210   20.4830 C   0  0  0  0  0  0  0  0  0  0  0  0
  -26.1880  -13.5960   20.7910 C   0  0  0  0  0  0  0  0  0  0  0  0
  -26.3450  -12.1790   20.7650 C   0  0  0  0  0  0  0  0  0  0  0  0
  -28.2460  -13.0260   20.2760 N   0  0  0  0  0  0  0  0  0  0  0  0
  -27.6050  -11.8540   20.5120 N   0  0  0  0  0  0  0  0  0  0  0  0
  -25.3570  -11.1030   20.9010 C   0  0  0  0  0  0  0  0  0  0  0  0
  -25.5270  -10.0590   21.8360 C   0  0  0  0  0  3  0  0  0  0  0  0
  -24.5540   -9.0440   21.9550 C   0  0  0  0  0  3  0  0  0  0  0  0
  -23.4020   -9.0690   21.1350 C   0  0  0  0  0  0  0  0  0  0  0  0
  -23.2510  -10.0970   20.1890 C   0  0  0  0  0  3  0  0  0  0  0  0
  -24.2220  -11.1040   20.0680 C   0  0  0  0  0  3  0  0  0  0  0  0
  -22.4140   -8.1130   21.1640 O   0  0  0  0  0  0  0  0  0  0  0  0
  -22.1350   -7.3990   22.3000 C   0  0  0  0  0  0  0  0  0  0  0  0
  -21.7290   -8.0310   23.4960 C   0  0  0  0  0  3  0  0  0  0  0  0
  -21.3840   -7.2550   24.6210 C   0  0  0  0  0  3  0  0  0  0  0  0
  -21.4380   -5.8500   24.5500 C   0  0  0  0  0  0  0  0  0  0  0  0
  -21.8440   -5.2190   23.3610 C   0  0  0  0  0  3  0  0  0  0  0  0
  -22.1860   -5.9920   22.2370 C   0  0  0  0  0  0  0  0  0  0  0  0
  -22.5510   -5.3780   21.0860 F   0  0  0  0  0  0  0  0  0  0  0  0
  -21.1010   -5.1040   25.6280 F   0  0  0  0  0  0  0  0  0  0  0  0
  -24.9170  -14.3670   20.9990 C   0  0  0  0  0  0  0  0  0  0  0  0
  -24.0220  -13.8500   21.8370 N   0  0  0  0  0  0  0  0  0  0  0  0
  -24.7270  -15.4520   20.4570 O   0  0  0  0  0  0  0  0  0  0  0  0
  -24.1920  -12.9710   22.3000 H   0  0  0  0  0  0  0  0  0  0  0  0
  -23.1600  -14.3450   22.0240 H   0  0  0  0  0  0  0  0  0  0  0  0
  -27.8920  -15.4200   20.3420 N   0  0  0  0  0  0  0  0  0  0  0  0
  -27.2920  -16.2300   20.4620 H   0  0  0  0  0  0  0  0  0  0  0  0
  -28.8430  -15.6650   20.0970 H   0  0  0  0  0  0  0  0  0  0  0  0
  1  3  1  0
  2  1  1  0
  4  9  1  0
  4  2  1  0
  5  6  1  0
  6 11  1  0
  7  6  1  0
  7  3  1  0
  8 15  1  0
  8  9  1  0
  8  5  1  0
  9 59  1  6
  9  7  1  0
 11 10  2  0
 12 11  1  0
 13 16  1  0
 13 15  2  0
 14 13  1  0
 16 17  2  0
 17 18  1  0
 18 20  1  0
 19 30  2  0
 20 25  1  0
 21 31  1  0
 21 29  1  0
 22 28  1  0
 22 24  1  0
 23 29  1  0
 24 23  1  0
 25 24  2  0
 26 27  1  0
 26 20  2  0
 27 22  2  0
 28 21  1  0
 29 19  1  0
 31 33  2  0
 32 31  1  0
 34 32  1  0
 35 40  1  0
 36 32  1  0
 37 36  1  0
 38 39  1  0
 38 37  1  0
 39 35  1  0
 40 36  1  0
 40 41  2  0
 42 41  1  0
 43 42  2  0
 44 35  2  0
 44 43  1  0
 45 19  1  0
 45 55  1  0
 45 46  1  0
 46 47  1  0
 46 49  1  0
 47 51  1  0
 48 47  2  0
 51 50  1  0
 51 53  1  0
 53 54  1  0
 53 52  1  0
 55 56  1  1
 55 58  1  0
 57 55  1  0
 59 60  2  0
 61 60  1  0
 61 67  1  0
 62 67  1  0
 63 64  1  0
 63 62  1  0
 65 64  1  0
 65 72  1  0
 65 66  1  0
 67 66  1  0
 68 61  2  0
 69 70  2  0
 70 89  1  0
 71 70  1  0
 71 74  1  0
 72 69  1  0
 72 73  1  0
 73 71  2  0
 74 75  1  0
 75 76  2  0
 77 80  1  0
 77 76  1  0
 78 77  2  0
 79 78  1  0
 79 74  2  0
 80 81  1  0
 81 82  1  0
 82 83  2  0
 84 83  1  0
 84 88  1  0
 85 84  2  0
 86 81  2  0
 86 85  1  0
 87 86  1  0
 89 90  1  0
 90 93  1  0
 90 92  1  0
 91 89  2  0
 94 95  1  0
 94 69  1  0
 96 94  1  0
M  ISO  4  17 101  18 101  60 100  61 100
M  END
>  <TORSDO>  (48) 
F 22

>  <SCORE>  (48) 
-7.331

>  <name>  (48) 
47

>  <ligand_id>  (48) 
47

>  <original_smiles>  (48) 
[H]C([H])=C(C([H])([H])[H])C1([H])C([H])([H])C([H])(N=C(C([H])([H])[H])C([H])([H])C([H])([H])Oc2c([H])c([H])c3c(c2[H])C([H])([H])N(C(=O)C([H])(N([H])C(=O)C([H])(N([H])C([H])([H])[H])C([H])([H])[H])C(C([H])([H])[H])(C([H])([H])[H])C([H])([H])[H])C([H])(C(=O)N([H])C2([H])c4c([H])c([H])c([H])c([H])c4C([H])([H])C([H])([H])C2([H])[H])C3([H])[H])C2(C([H])([H])C([H])([H])C(=O)N3C([H])([H])C([H])([H])C([H])([H])C([H])(n4nc(-c5c([H])c([H])c(Oc6c([H])c([H])c(F)c([H])c6F)c([H])c5[H])c(C(=O)N([H])[H])c4N([H])[H])C3([H])[H])C([H])([H])C([H])([H])C([H])([H])C([H])([H])C12[H]

>  <smiles>  (48) 
[H]C([H])=C(C([H])([H])[H])C1([H])C([H])([H])C([H])(N=C(C([H])([H])[H])C([H])([H])C([H])([H])Oc2c([H])c([H])c3c(c2[H])C([H])([H])N(C(=O)C([H])(N([H])C(=O)C([H])(N([H])C([H])([H])[H])C([H])([H])[H])C(C([H])([H])[H])(C([H])([H])[H])C([H])([H])[H])C([H])(C(=O)N([H])C2([H])c4c([H])c([H])c([H])c([H])c4C([H])([H])C([H])([H])C2([H])[H])C3([H])[H])C2(C([H])([H])C([H])([H])C(=O)N3C([H])([H])C([H])([H])C([H])([H])C([H])(n4nc(-c5c([H])c([H])c(Oc6c([H])c([H])c(F)c([H])c6F)c([H])c5[H])c(C(=O)N([H])[H])c4N([H])[H])C3([H])[H])C([H])([H])C([H])([H])C([H])([H])C([H])([H])C12[H]

$$$$
48:0:0
     RDKit          3D

103113  0  0  1  0  0  0  0  0999 V2000
  -29.4050  -19.0740   18.7480 N   0  0  0  0  0  4  0  0  0  0  0  0
  -29.0470  -19.2800   17.8310 H   0  0  0  0  0  0  0  0  0  0  0  0
  -30.0030  -19.8440   19.0030 H   0  0  0  0  0  0  0  0  0  0  0  0
  -31.2130  -18.3710   14.8790 C   0  0  0  0  0  3  0  0  0  0  0  0
  -30.5520  -17.9950   16.0600 C   0  0  0  0  0  3  0  0  0  0  0  0
  -32.4630  -18.9940   14.9540 C   0  0  0  0  0  3  0  0  0  0  0  0
  -31.0990  -18.2900   17.3320 C   0  0  0  0  0  0  0  0  0  0  0  0
  -32.3180  -19.0300   17.4100 C   0  0  0  0  0  0  0  0  0  0  0  0
  -33.0260  -19.3120   16.2010 C   0  0  0  0  0  0  0  0  0  0  0  0
  -32.0130  -19.8270   19.9330 C   0  0  0  0  0  2  0  0  0  0  0  0
  -33.6780  -18.1690   19.2580 C   0  0  0  0  0  2  0  0  0  0  0  0
  -31.3820  -18.6390   20.7370 C   0  0  0  0  0  2  0  0  0  0  0  0
  -32.6570  -17.0290   19.4690 C   0  0  0  0  0  2  0  0  0  0  0  0
  -32.9490  -19.3910   18.7670 C   0  0  0  0  0  3  0  0  0  0  0  0
  -30.2860  -17.8800   18.5680 C   0  0  0  0  0  3  0  0  0  0  0  0
  -31.1470  -17.3900   19.8290 C   0  0  2  0  0  0  0  0  0  0  0  0
  -34.4220  -19.9130   16.1900 C   0  0  0  0  0  1  0  0  0  0  0  0
  -30.3890  -16.1440   20.5830 C   0  0  0  0  0  2  0  0  0  0  0  0
  -30.8110  -14.6390   20.3000 C   0  0  0  0  0  0  0  0  0  0  0  0
  -30.3410  -12.4330   19.3050 C   0  0  0  0  0  2  0  0  0  0  0  0
  -29.4350  -12.6230   18.0770 C   0  0  0  0  0  2  0  0  0  0  0  0
  -27.9650  -12.4960   18.5160 C   0  0  0  0  0  2  0  0  0  0  0  0
  -27.6190  -13.3710   19.7540 C   0  0  0  0  0  3  0  0  0  0  0  0
  -28.6960  -13.2900   20.8580 C   0  0  0  0  0  2  0  0  0  0  0  0
  -30.0110  -13.5270   20.2450 N   0  0  0  0  0  0  0  0  0  0  0  0
  -31.9800  -14.4730   19.9950 O   0  0  0  0  0  0  0  0  0  0  0  0
  -25.2240  -13.9100   20.5090 C   0  0  0  0  0  0  0  0  0  0  0  0
  -24.1730  -13.1110   20.8770 C   0  0  0  0  0  0  0  0  0  0  0  0
  -24.6650  -11.7710   20.8430 C   0  0  0  0  0  0  0  0  0  0  0  0
  -26.2850  -13.0540   20.2660 N   0  0  0  0  0  0  0  0  0  0  0  0
  -25.9540  -11.7610   20.5340 N   0  0  0  0  0  0  0  0  0  0  0  0
  -23.9600  -10.4920   21.0270 C   0  0  0  0  0  0  0  0  0  0  0  0
  -24.4050   -9.5280   21.9600 C   0  0  0  0  0  3  0  0  0  0  0  0
  -23.6990   -8.3180   22.1350 C   0  0  0  0  0  3  0  0  0  0  0  0
  -22.5330   -8.0610   21.3760 C   0  0  0  0  0  0  0  0  0  0  0  0
  -22.1080   -9.0100   20.4300 C   0  0  0  0  0  3  0  0  0  0  0  0
  -22.8150  -10.2120   20.2550 C   0  0  0  0  0  3  0  0  0  0  0  0
  -21.8020   -6.9000   21.4570 O   0  0  0  0  0  0  0  0  0  0  0  0
  -21.7610   -6.1530   22.6090 C   0  0  0  0  0  0  0  0  0  0  0  0
  -21.3120   -6.6950   23.8320 C   0  0  0  0  0  3  0  0  0  0  0  0
  -21.2230   -5.8750   24.9750 C   0  0  0  0  0  3  0  0  0  0  0  0
  -21.5680   -4.5130   24.8930 C   0  0  0  0  0  0  0  0  0  0  0  0
  -22.0110   -3.9700   23.6740 C   0  0  0  0  0  3  0  0  0  0  0  0
  -22.1030   -4.7880   22.5340 C   0  0  0  0  0  0  0  0  0  0  0  0
  -22.5090   -4.2530   21.3580 F   0  0  0  0  0  0  0  0  0  0  0  0
  -21.4750   -3.7250   25.9890 F   0  0  0  0  0  0  0  0  0  0  0  0
  -22.7670  -13.5600   21.1440 C   0  0  0  0  0  0  0  0  0  0  0  0
  -22.0460  -12.8490   22.0080 N   0  0  0  0  0  0  0  0  0  0  0  0
  -22.3110  -14.5770   20.6220 O   0  0  0  0  0  0  0  0  0  0  0  0
  -22.4260  -12.0290   22.4570 H   0  0  0  0  0  0  0  0  0  0  0  0
  -21.1030  -13.1340   22.2250 H   0  0  0  0  0  0  0  0  0  0  0  0
  -25.3640  -15.2810   20.3370 N   0  0  0  0  0  0  0  0  0  0  0  0
  -24.5970  -15.9310   20.4840 H   0  0  0  0  0  0  0  0  0  0  0  0
  -26.2220  -15.7380   20.0480 H   0  0  0  0  0  0  0  0  0  0  0  0
  -28.2540  -19.1360   19.6740 C   0  0  0  0  0  2  0  0  0  0  0  0
  -26.7320  -20.7570   18.3380 C   0  0  0  0  0  1  0  0  0  0  0  0
  -27.5860  -20.5480   19.6050 C   0  0  0  0  0  3  0  0  0  0  0  0
  -28.5710  -21.6430   19.6500 N   0  0  0  0  0  0  0  0  0  0  0  0
  -28.6580  -22.0010   18.7040 H   0  0  0  0  0  0  0  0  0  0  0  0
  -28.0800  -22.7740   20.4540 C   0  0  0  0  0  2  0  0  0  0  0  0
  -28.6700  -24.1510   20.0240 C   0  0  0  0  0  2  0  0  0  0  0  0
  -28.1570  -25.3370   20.8910 C   0  0  0  0  0  2  0  0  0  0  0  0
  -28.3630  -26.6680   20.3490 O   0  0  0  0  0  0  0  0  0  0  0  0
  -24.5700  -31.9520   23.2870 C   0  0  0  0  0  0  0  0  0  0  0  0
  -27.2250  -27.4530   20.3050 C   0  0  0  0  0  0  0  0  0  0  0  0
  -23.3780  -30.5380   21.6430 C   0  0  0  0  0  3  0  0  0  0  0  0
  -24.8450  -28.9830   20.2560 C   0  0  0  0  0  0  0  0  0  0  0  0
  -25.9070  -30.8940   21.4660 C   0  0  0  0  0  2  0  0  0  0  0  0
  -26.0000  -29.5130   20.8450 C   0  0  0  0  0  0  0  0  0  0  0  0
  -27.1980  -28.7560   20.8630 C   0  0  0  0  0  3  0  0  0  0  0  0
  -26.0530  -26.9470   19.7050 C   0  0  0  0  0  3  0  0  0  0  0  0
  -24.8660  -27.7010   19.6830 C   0  0  0  0  0  3  0  0  0  0  0  0
  -23.6020  -29.8450   20.2740 C   0  0  0  0  0  2  0  0  0  0  0  0
  -24.6360  -31.1410   22.1910 N   0  0  0  0  0  0  0  0  0  0  0  0
  -23.4820  -32.2330   23.8130 O   0  0  0  0  0  0  0  0  0  0  0  0
  -22.7110  -29.5310   22.6080 C   0  0  0  0  0  0  0  0  0  0  0  0
  -21.3850  -29.3610   22.4770 N   0  0  0  0  0  0  0  0  0  0  0  0
  -23.3820  -28.9050   23.4320 O   0  0  0  0  0  0  0  0  0  0  0  0
  -20.9030  -29.9140   21.7820 H   0  0  0  0  0  0  0  0  0  0  0  0
  -17.9970  -28.2150   22.9760 C   0  0  0  0  0  0  0  0  0  0  0  0
  -20.5560  -28.4380   23.2510 C   0  0  0  0  0  3  0  0  0  0  0  0
  -20.6430  -27.0050   22.6780 C   0  0  0  0  0  2  0  0  0  0  0  0
  -19.5390  -26.6950   21.6610 C   0  0  0  0  0  2  0  0  0  0  0  0
  -18.1580  -26.8620   22.3040 C   0  0  0  0  0  2  0  0  0  0  0  0
  -19.1260  -28.9610   23.4070 C   0  0  0  0  0  0  0  0  0  0  0  0
  -18.9270  -30.2290   23.9960 C   0  0  0  0  0  3  0  0  0  0  0  0
  -17.6300  -30.7510   24.1570 C   0  0  0  0  0  3  0  0  0  0  0  0
  -16.5150  -30.0000   23.7460 C   0  0  0  0  0  3  0  0  0  0  0  0
  -16.6980  -28.7340   23.1600 C   0  0  0  0  0  3  0  0  0  0  0  0
  -25.8530  -32.5880   23.9110 C   0  0  0  0  0  3  0  0  0  0  0  0
  -25.5510  -33.9930   24.2120 N   0  0  0  0  0  0  0  0  0  0  0  0
  -25.9000  -35.0290   23.4400 C   0  0  0  0  0  0  0  0  0  0  0  0
  -26.5840  -34.9070   22.4200 O   0  0  0  0  0  0  0  0  0  0  0  0
  -24.9560  -34.1680   25.0080 H   0  0  0  0  0  0  0  0  0  0  0  0
  -24.1960  -36.8300   23.0230 C   0  0  0  0  0  1  0  0  0  0  0  0
  -25.4140  -36.4260   23.8680 C   0  0  0  0  0  3  0  0  0  0  0  0
  -27.5330  -37.3110   24.7350 C   0  0  0  0  0  1  0  0  0  0  0  0
  -26.4540  -37.4690   23.7620 N   0  0  0  0  0  0  0  0  0  0  0  0
  -26.0500  -38.3920   23.8920 H   0  0  0  0  0  0  0  0  0  0  0  0
  -26.3540  -31.8330   25.2020 C   0  0  1  0  0  0  0  0  0  0  0  0
  -25.2460  -31.6140   26.2580 C   0  0  0  0  0  1  0  0  0  0  0  0
  -26.9390  -30.4480   24.8330 C   0  0  0  0  0  1  0  0  0  0  0  0
  -27.4920  -32.6350   25.8780 C   0  0  0  0  0  1  0  0  0  0  0  0
  1  3  1  0
  1 55  1  0
  2  1  1  0
  4  6  2  0
  4  5  1  0
  5  7  2  0
  6  9  1  0
  7  8  1  0
  7 15  1  0
  8 14  1  0
  9  8  2  0
 10 12  1  0
 11 13  1  0
 13 16  1  0
 14 11  1  0
 14 10  1  0
 15  1  1  0
 15 16  1  0
 16 18  1  1
 16 12  1  0
 17  9  1  0
 19 18  1  0
 20 25  1  0
 21 22  1  0
 21 20  1  0
 23 22  1  0
 23 30  1  0
 23 24  1  0
 25 19  1  0
 25 24  1  0
 26 19  2  0
 27 28  2  0
 28 47  1  0
 29 28  1  0
 29 32  1  0
 30 27  1  0
 30 31  1  0
 31 29  2  0
 32 33  1  0
 33 34  2  0
 35 38  1  0
 35 34  1  0
 36 35  2  0
 37 36  1  0
 37 32  2  0
 38 39  1  0
 39 40  1  0
 40 41  2  0
 42 41  1  0
 42 46  1  0
 43 42  2  0
 44 39  2  0
 44 43  1  0
 45 44  1  0
 47 48  1  0
 48 51  1  0
 48 50  1  0
 49 47  2  0
 52 53  1  0
 52 27  1  0
 54 52  1  0
 57 56  1  0
 57 58  1  0
 57 55  1  0
 58 60  1  0
 59 58  1  0
 61 60  1  0
 61 62  1  0
 63 62  1  0
 64 75  2  0
 65 63  1  0
 65 70  1  0
 66 74  1  0
 66 76  1  0
 67 73  1  0
 67 69  1  0
 68 74  1  0
 69 70  2  0
 69 68  1  0
 71 65  2  0
 72 71  1  0
 72 67  2  0
 73 66  1  0
 74 64  1  0
 76 78  2  0
 77 76  1  0
 79 77  1  0
 80 89  2  0
 80 85  1  0
 81 77  1  0
 81 85  1  0
 82 81  1  0
 83 84  1  0
 83 82  1  0
 84 80  1  0
 85 86  2  0
 86 87  1  0
 88 87  2  0
 89 88  1  0
 90 64  1  0
 90 91  1  0
 90100  1  0
 91 94  1  0
 92 96  1  0
 92 91  1  0
 93 92  2  0
 96 95  1  0
 98 96  1  0
 98 99  1  0
 98 97  1  0
100103  1  1
100101  1  0
102100  1  0
M  ISO  4  18 100  19 100  62 101  63 101
M  END
>  <TORSDO>  (49) 
F 24

>  <SCORE>  (49) 
-12.747

>  <name>  (49) 
48

>  <ligand_id>  (49) 
48

>  <original_smiles>  (49) 
[H]c1c([H])c([H])c2c(c1[H])C([H])([H])C([H])([H])C([H])([H])C2([H])N([H])C(=O)C1([H])N(C(=O)C([H])(N([H])C(=O)C([H])(N([H])C([H])([H])[H])C([H])([H])[H])C(C([H])([H])[H])(C([H])([H])[H])C([H])([H])[H])C([H])([H])c2c([H])c(OC([H])([H])C([H])([H])C([H])([H])N([H])C([H])(C([H])([H])[H])C([H])([H])[N+]([H])([H])C3([H])c4c([H])c([H])c([H])c(C([H])([H])[H])c4C4([H])C([H])([H])C([H])([H])C3(C([H])([H])C(=O)N3C([H])([H])C([H])([H])C([H])([H])C([H])(n5nc(-c6c([H])c([H])c(Oc7c([H])c([H])c(F)c([H])c7F)c([H])c6[H])c(C(=O)N([H])[H])c5N([H])[H])C3([H])[H])C([H])([H])C4([H])[H])c([H])c([H])c2C1([H])[H]

>  <smiles>  (49) 
[H]c1c([H])c([H])c2c(c1[H])C([H])([H])C([H])([H])C([H])([H])C2([H])N([H])C(=O)C1([H])N(C(=O)C([H])(N([H])C(=O)C([H])(N([H])C([H])([H])[H])C([H])([H])[H])C(C([H])([H])[H])(C([H])([H])[H])C([H])([H])[H])C([H])([H])c2c([H])c(OC([H])([H])C([H])([H])C([H])([H])N([H])C([H])(C([H])([H])[H])C([H])([H])[N+]([H])([H])C3([H])c4c([H])c([H])c([H])c(C([H])([H])[H])c4C4([H])C([H])([H])C([H])([H])C3(C([H])([H])C(=O)N3C([H])([H])C([H])([H])C([H])([H])C([H])(n5nc(-c6c([H])c([H])c(Oc7c([H])c([H])c(F)c([H])c7F)c([H])c6[H])c(C(=O)N([H])[H])c5N([H])[H])C3([H])[H])C([H])([H])C4([H])[H])c([H])c([H])c2C1([H])[H]

$$$$
49:0:0
     RDKit          3D

 91100  0  0  1  0  0  0  0  0999 V2000
  -32.3860  -18.8910   20.6440 C   0  0  0  0  0  2  0  0  0  0  0  0
  -32.0520  -18.7210   19.1670 C   0  0  0  0  0  2  0  0  0  0  0  0
  -31.4300  -17.9360   21.3580 C   0  0  0  0  0  2  0  0  0  0  0  0
  -29.0290  -18.7180   21.0590 C   0  0  0  0  0  2  0  0  0  0  0  0
  -29.2550  -20.2970   21.0900 C   0  0  0  0  0  2  0  0  0  0  0  0
  -29.7650  -19.8840   18.7350 C   0  0  0  0  0  2  0  0  0  0  0  0
  -30.5310  -18.5200   19.1140 C   0  0  0  0  0  3  0  0  0  0  0  0
  -30.1640  -17.7910   20.4710 C   0  0  1  0  0  0  0  0  0  0  0  0
  -29.6570  -20.9580   19.7960 N   0  0  1  0  0  4  0  0  0  0  0  0
  -30.6050  -21.2740   19.9320 H   0  0  0  0  0  0  0  0  0  0  0  0
  -29.6940  -16.2060   20.4360 C   0  0  0  0  0  2  0  0  0  0  0  0
  -30.5360  -14.8940   19.9840 C   0  0  0  0  0  0  0  0  0  0  0  0
  -30.3540  -12.5770   19.0180 C   0  0  0  0  0  2  0  0  0  0  0  0
  -29.3500  -12.6130   17.8400 C   0  0  0  0  0  2  0  0  0  0  0  0
  -27.9050  -12.4260   18.3420 C   0  0  0  0  0  2  0  0  0  0  0  0
  -27.5810  -13.3330   19.5560 C   0  0  0  0  0  3  0  0  0  0  0  0
  -28.6930  -13.2720   20.6250 C   0  0  0  0  0  2  0  0  0  0  0  0
  -29.9620  -13.6360   19.9770 N   0  0  0  0  0  0  0  0  0  0  0  0
  -31.6740  -15.0220   19.5230 O   0  0  0  0  0  0  0  0  0  0  0  0
  -25.2420  -13.9350   20.4240 C   0  0  0  0  0  0  0  0  0  0  0  0
  -24.1920  -13.1640   20.8430 C   0  0  0  0  0  0  0  0  0  0  0  0
  -24.6410  -11.8100   20.7680 C   0  0  0  0  0  0  0  0  0  0  0  0
  -26.2630  -13.0500   20.1170 N   0  0  0  0  0  0  0  0  0  0  0  0
  -25.9110  -11.7660   20.3850 N   0  0  0  0  0  0  0  0  0  0  0  0
  -23.9150  -10.5510   20.9820 C   0  0  0  0  0  0  0  0  0  0  0  0
  -24.3840   -9.5710   21.8850 C   0  0  0  0  0  3  0  0  0  0  0  0
  -23.6580   -8.3780   22.0870 C   0  0  0  0  0  3  0  0  0  0  0  0
  -22.4480   -8.1560   21.3860 C   0  0  0  0  0  0  0  0  0  0  0  0
  -21.9980   -9.1240   20.4720 C   0  0  0  0  0  3  0  0  0  0  0  0
  -22.7240  -10.3100   20.2690 C   0  0  0  0  0  3  0  0  0  0  0  0
  -21.6900   -7.0150   21.5000 O   0  0  0  0  0  0  0  0  0  0  0  0
  -21.6880   -6.2640   22.6480 C   0  0  0  0  0  0  0  0  0  0  0  0
  -21.3180   -6.8100   23.8970 C   0  0  0  0  0  3  0  0  0  0  0  0
  -21.2630   -5.9860   25.0380 C   0  0  0  0  0  3  0  0  0  0  0  0
  -21.5690   -4.6150   24.9320 C   0  0  0  0  0  0  0  0  0  0  0  0
  -21.9320   -4.0680   23.6890 C   0  0  0  0  0  3  0  0  0  0  0  0
  -21.9880   -4.8900   22.5490 C   0  0  0  0  0  0  0  0  0  0  0  0
  -22.3180   -4.3530   21.3500 F   0  0  0  0  0  0  0  0  0  0  0  0
  -21.5080   -3.8200   26.0260 F   0  0  0  0  0  0  0  0  0  0  0  0
  -22.8160  -13.6480   21.2000 C   0  0  0  0  0  0  0  0  0  0  0  0
  -22.1330  -12.9490   22.0990 N   0  0  0  0  0  0  0  0  0  0  0  0
  -22.3560  -14.6820   20.7150 O   0  0  0  0  0  0  0  0  0  0  0  0
  -22.5200  -12.1120   22.5120 H   0  0  0  0  0  0  0  0  0  0  0  0
  -21.2130  -13.2530   22.3810 H   0  0  0  0  0  0  0  0  0  0  0  0
  -25.4090  -15.3070   20.2580 N   0  0  0  0  0  0  0  0  0  0  0  0
  -24.6570  -15.9660   20.4210 H   0  0  0  0  0  0  0  0  0  0  0  0
  -26.2460  -15.7430   19.8940 H   0  0  0  0  0  0  0  0  0  0  0  0
  -28.8570  -22.2280   19.3710 C   0  0  0  0  0  2  0  0  0  0  0  0
  -29.2290  -23.7420   19.8700 C   0  0  0  0  0  3  0  0  0  0  0  0
  -28.2290  -24.9700   19.4680 C   0  0  0  0  0  3  0  0  0  0  0  0
  -28.4300  -26.4330   19.8090 O   0  0  0  0  0  0  0  0  0  0  0  0
  -24.5970  -31.6910   23.0850 C   0  0  0  0  0  0  0  0  0  0  0  0
  -27.3110  -27.3130   19.7890 C   0  0  0  0  0  0  0  0  0  0  0  0
  -23.4230  -30.3380   21.3900 C   0  0  0  0  0  3  0  0  0  0  0  0
  -24.9070  -28.9030   19.8730 C   0  0  0  0  0  0  0  0  0  0  0  0
  -25.9560  -30.7260   21.2070 C   0  0  0  0  0  2  0  0  0  0  0  0
  -26.0710  -29.3800   20.4870 C   0  0  0  0  0  0  0  0  0  0  0  0
  -27.2750  -28.6000   20.4340 C   0  0  0  0  0  3  0  0  0  0  0  0
  -26.1170  -26.9150   19.1430 C   0  0  0  0  0  3  0  0  0  0  0  0
  -24.9350  -27.6800   19.1900 C   0  0  0  0  0  3  0  0  0  0  0  0
  -23.6460  -29.7400   19.9770 C   0  0  0  0  0  2  0  0  0  0  0  0
  -24.6790  -30.9350   21.9500 N   0  0  0  0  0  0  0  0  0  0  0  0
  -23.5090  -31.9090   23.6390 O   0  0  0  0  0  0  0  0  0  0  0  0
  -22.7980  -29.2570   22.3060 C   0  0  0  0  0  0  0  0  0  0  0  0
  -21.4790  -29.0380   22.1750 N   0  0  0  0  0  0  0  0  0  0  0  0
  -23.5010  -28.6200   23.0950 O   0  0  0  0  0  0  0  0  0  0  0  0
  -20.9680  -29.6040   21.5120 H   0  0  0  0  0  0  0  0  0  0  0  0
  -18.1480  -27.6910   22.6300 C   0  0  0  0  0  0  0  0  0  0  0  0
  -20.6960  -28.0380   22.9060 C   0  0  0  0  0  3  0  0  0  0  0  0
  -20.8510  -26.6360   22.2700 C   0  0  0  0  0  2  0  0  0  0  0  0
  -19.7590  -26.3150   21.2450 C   0  0  0  0  0  2  0  0  0  0  0  0
  -18.3750  -26.3790   21.8950 C   0  0  0  0  0  2  0  0  0  0  0  0
  -19.2390  -28.4770   23.0900 C   0  0  0  0  0  0  0  0  0  0  0  0
  -18.9730  -29.7020   23.7380 C   0  0  0  0  0  3  0  0  0  0  0  0
  -17.6510  -30.1450   23.9280 C   0  0  0  0  0  3  0  0  0  0  0  0
  -16.5750  -29.3570   23.4830 C   0  0  0  0  0  3  0  0  0  0  0  0
  -16.8250  -28.1300   22.8410 C   0  0  0  0  0  3  0  0  0  0  0  0
  -25.8640  -32.3370   23.7270 C   0  0  0  0  0  3  0  0  0  0  0  0
  -26.4020  -31.5350   24.9760 C   0  0  1  0  0  0  0  0  0  0  0  0
  -25.3190  -31.2350   26.0390 C   0  0  0  0  0  1  0  0  0  0  0  0
  -27.0160  -30.1850   24.5390 C   0  0  0  0  0  1  0  0  0  0  0  0
  -27.5370  -32.3340   25.6600 C   0  0  0  0  0  1  0  0  0  0  0  0
  -25.5170  -33.7130   24.1080 N   0  0  0  0  0  0  0  0  0  0  0  0
  -25.8040  -34.8020   23.3820 C   0  0  0  0  0  0  0  0  0  0  0  0
  -26.4580  -34.7540   22.3370 O   0  0  0  0  0  0  0  0  0  0  0  0
  -24.9320  -33.8220   24.9240 H   0  0  0  0  0  0  0  0  0  0  0  0
  -24.0100  -36.5480   23.1330 C   0  0  0  0  0  1  0  0  0  0  0  0
  -25.2870  -36.1590   23.8960 C   0  0  0  0  0  3  0  0  0  0  0  0
  -27.4120  -37.0900   24.6990 C   0  0  0  0  0  1  0  0  0  0  0  0
  -26.2810  -37.2490   23.7880 N   0  0  0  0  0  0  0  0  0  0  0  0
  -25.8500  -38.1500   23.9720 H   0  0  0  0  0  0  0  0  0  0  0  0
  1  3  1  0
  2  1  1  0
  4  5  1  0
  6  9  1  0
  7  6  1  0
  7  2  1  0
  7  8  1  0
  8 11  1  6
  8  4  1  0
  8  3  1  0
  9 10  1  1
  9  5  1  0
 12 11  1  0
 13 18  1  0
 14 15  1  0
 14 13  1  0
 16 15  1  0
 16 23  1  0
 16 17  1  0
 18 12  1  0
 18 17  1  0
 19 12  2  0
 20 21  2  0
 21 40  1  0
 22 21  1  0
 22 25  1  0
 23 24  1  0
 23 20  1  0
 24 22  2  0
 25 26  1  0
 26 27  2  0
 28 31  1  0
 28 27  1  0
 29 28  2  0
 30 29  1  0
 30 25  2  0
 31 32  1  0
 32 33  1  0
 33 34  2  0
 35 34  1  0
 35 39  1  0
 36 35  2  0
 37 32  2  0
 37 36  1  0
 38 37  1  0
 40 41  1  0
 41 44  1  0
 41 43  1  0
 42 40  2  0
 45 46  1  0
 45 20  1  0
 47 45  1  0
 48  9  1  0
 48 49  1  0
 50 51  1  0
 50 49  2  0
 52 63  2  0
 53 51  1  0
 53 58  1  0
 54 62  1  0
 54 64  1  0
 55 61  1  0
 55 57  1  0
 56 62  1  0
 57 56  1  0
 58 57  2  0
 59 60  1  0
 59 53  2  0
 60 55  2  0
 61 54  1  0
 62 52  1  0
 64 66  2  0
 65 64  1  0
 67 65  1  0
 68 77  2  0
 68 73  1  0
 69 65  1  0
 69 73  1  0
 70 69  1  0
 71 72  1  0
 71 70  1  0
 72 68  1  0
 73 74  2  0
 74 75  1  0
 76 75  2  0
 77 76  1  0
 78 52  1  0
 78 83  1  0
 78 79  1  0
 79 82  1  1
 79 80  1  0
 81 79  1  0
 83 86  1  0
 84 88  1  0
 84 83  1  0
 85 84  2  0
 88 87  1  0
 90 88  1  0
 90 91  1  0
 90 89  1  0
M  ISO  4  11 100  12 100  50 101  51 101
M  END
>  <TORSDO>  (50) 
F 20

>  <SCORE>  (50) 
-13.294

>  <name>  (50) 
49

>  <ligand_id>  (50) 
49

>  <original_smiles>  (50) 
[H]c1c([H])c([H])c2c(c1[H])C([H])([H])C([H])([H])C([H])([H])C2([H])N([H])C(=O)C1([H])N(C(=O)C([H])(N([H])C(=O)C([H])(N([H])C([H])([H])[H])C([H])([H])[H])C(C([H])([H])[H])(C([H])([H])[H])C([H])([H])[H])C([H])([H])c2c([H])c(OC([H])([H])C([H])([H])C([H])([H])[N+]3([H])C([H])([H])C([H])([H])C4(C([H])([H])C(=O)N5C([H])([H])C([H])([H])C([H])([H])C([H])(n6nc(-c7c([H])c([H])c(Oc8c([H])c([H])c(F)c([H])c8F)c([H])c7[H])c(C(=O)N([H])[H])c6N([H])[H])C5([H])[H])C([H])([H])C([H])([H])C([H])([H])C4([H])C3([H])[H])c([H])c([H])c2C1([H])[H]

>  <smiles>  (50) 
[H]c1c([H])c([H])c2c(c1[H])C([H])([H])C([H])([H])C([H])([H])C2([H])N([H])C(=O)C1([H])N(C(=O)C([H])(N([H])C(=O)C([H])(N([H])C([H])([H])[H])C([H])([H])[H])C(C([H])([H])[H])(C([H])([H])[H])C([H])([H])[H])C([H])([H])c2c([H])c(OC([H])([H])C([H])([H])C([H])([H])[N+]3([H])C([H])([H])C([H])([H])C4(C([H])([H])C(=O)N5C([H])([H])C([H])([H])C([H])([H])C([H])(n6nc(-c7c([H])c([H])c(Oc8c([H])c([H])c(F)c([H])c8F)c([H])c7[H])c(C(=O)N([H])[H])c6N([H])[H])C5([H])[H])C([H])([H])C([H])([H])C([H])([H])C4([H])C3([H])[H])c([H])c([H])c2C1([H])[H]

$$$$
50:0:0
     RDKit          3D

 85 93  0  0  1  0  0  0  0  0999 V2000
  -29.2630  -21.4920   20.1110 C   0  0  0  0  0  0  0  0  0  0  0  0
  -29.0090  -22.9600   20.0700 C   0  0  0  0  0  3  0  0  0  0  0  0
  -30.5650  -20.9150   19.5120 C   0  0  0  0  0  2  0  0  0  0  0  0
  -28.6720  -19.9940   20.5620 C   0  0  0  0  0  2  0  0  0  0  0  0
  -30.5090  -19.3400   19.2490 C   0  0  0  0  0  2  0  0  0  0  0  0
  -29.7220  -18.6170   20.3730 C   0  0  0  0  0  3  0  0  0  0  0  0
  -27.9350  -24.2860   20.3840 C   0  0  0  0  0  2  0  0  0  0  0  0
  -28.2100  -25.9150   20.3000 O   0  0  0  0  0  0  0  0  0  0  0  0
  -24.6490  -31.9060   23.2540 C   0  0  0  0  0  0  0  0  0  0  0  0
  -27.1940  -27.0090   20.2620 C   0  0  0  0  0  0  0  0  0  0  0  0
  -23.4520  -30.5070   21.6190 C   0  0  0  0  0  3  0  0  0  0  0  0
  -24.8970  -28.8930   20.2060 C   0  0  0  0  0  0  0  0  0  0  0  0
  -26.0190  -30.7120   21.4730 C   0  0  0  0  0  2  0  0  0  0  0  0
  -26.0870  -29.2990   20.8240 C   0  0  0  0  0  0  0  0  0  0  0  0
  -27.2300  -28.3800   20.8230 C   0  0  0  0  0  3  0  0  0  0  0  0
  -25.9720  -26.7550   19.5980 C   0  0  0  0  0  3  0  0  0  0  0  0
  -24.8640  -27.6410   19.5730 C   0  0  0  0  0  3  0  0  0  0  0  0
  -23.6810  -29.8170   20.2470 C   0  0  0  0  0  2  0  0  0  0  0  0
  -24.7290  -31.0690   22.1690 N   0  0  0  0  0  0  0  0  0  0  0  0
  -23.5600  -32.2010   23.7730 O   0  0  0  0  0  0  0  0  0  0  0  0
  -22.7550  -29.5170   22.5890 C   0  0  0  0  0  0  0  0  0  0  0  0
  -21.4250  -29.3500   22.4590 N   0  0  0  0  0  0  0  0  0  0  0  0
  -23.4160  -28.8980   23.4250 O   0  0  0  0  0  0  0  0  0  0  0  0
  -20.9430  -29.9000   21.7600 H   0  0  0  0  0  0  0  0  0  0  0  0
  -18.0420  -28.1350   22.9550 C   0  0  0  0  0  0  0  0  0  0  0  0
  -20.5990  -28.4160   23.2330 C   0  0  0  0  0  3  0  0  0  0  0  0
  -20.7110  -26.9800   22.6720 C   0  0  0  0  0  2  0  0  0  0  0  0
  -19.6170  -26.6420   21.6530 C   0  0  0  0  0  2  0  0  0  0  0  0
  -18.2300  -26.7830   22.2880 C   0  0  0  0  0  2  0  0  0  0  0  0
  -19.1530  -28.9090   23.3830 C   0  0  0  0  0  0  0  0  0  0  0  0
  -18.9210  -30.1720   23.9710 C   0  0  0  0  0  3  0  0  0  0  0  0
  -17.6120  -30.6620   24.1300 C   0  0  0  0  0  3  0  0  0  0  0  0
  -16.5150  -29.8860   23.7150 C   0  0  0  0  0  3  0  0  0  0  0  0
  -16.7310  -28.6250   23.1340 C   0  0  0  0  0  3  0  0  0  0  0  0
  -25.9210  -32.5480   23.8850 C   0  0  0  0  0  3  0  0  0  0  0  0
  -25.6070  -33.9500   24.2110 N   0  0  0  0  0  0  0  0  0  0  0  0
  -25.9250  -35.0060   23.4500 C   0  0  0  0  0  0  0  0  0  0  0  0
  -26.5750  -34.9020   22.4080 O   0  0  0  0  0  0  0  0  0  0  0  0
  -25.0250  -34.1030   25.0220 H   0  0  0  0  0  0  0  0  0  0  0  0
  -24.1820  -36.7990   23.1450 C   0  0  0  0  0  1  0  0  0  0  0  0
  -25.4490  -36.3970   23.9180 C   0  0  0  0  0  3  0  0  0  0  0  0
  -27.6020  -37.2980   24.6830 C   0  0  0  0  0  1  0  0  0  0  0  0
  -26.4740  -37.4530   23.7680 N   0  0  0  0  0  0  0  0  0  0  0  0
  -26.0690  -38.3730   23.9180 H   0  0  0  0  0  0  0  0  0  0  0  0
  -26.4200  -31.7900   25.1770 C   0  0  1  0  0  0  0  0  0  0  0  0
  -25.3160  -31.5700   26.2370 C   0  0  0  0  0  1  0  0  0  0  0  0
  -27.0010  -30.4030   24.8140 C   0  0  0  0  0  1  0  0  0  0  0  0
  -27.5680  -32.5850   25.8400 C   0  0  0  0  0  1  0  0  0  0  0  0
  -29.4020  -16.8350   20.2680 C   0  0  0  0  0  2  0  0  0  0  0  0
  -30.3190  -15.3360   20.1230 C   0  0  0  0  0  0  0  0  0  0  0  0
  -30.3360  -12.8890   19.2360 C   0  0  0  0  0  2  0  0  0  0  0  0
  -29.3810  -12.7140   18.0250 C   0  0  0  0  0  2  0  0  0  0  0  0
  -27.9400  -12.4340   18.4900 C   0  0  0  0  0  2  0  0  0  0  0  0
  -27.5160  -13.3730   19.6460 C   0  0  0  0  0  3  0  0  0  0  0  0
  -28.5900  -13.4900   20.7440 C   0  0  0  0  0  2  0  0  0  0  0  0
  -29.8150  -14.0020   20.1100 N   0  0  0  0  0  0  0  0  0  0  0  0
  -31.5280  -15.3750   19.8510 O   0  0  0  0  0  0  0  0  0  0  0  0
  -25.1590  -13.9080   20.4600 C   0  0  0  0  0  0  0  0  0  0  0  0
  -24.1130  -13.1210   20.8520 C   0  0  0  0  0  0  0  0  0  0  0  0
  -24.5910  -11.7740   20.8060 C   0  0  0  0  0  0  0  0  0  0  0  0
  -26.2030  -13.0430   20.1860 N   0  0  0  0  0  0  0  0  0  0  0  0
  -25.8760  -11.7530   20.4630 N   0  0  0  0  0  0  0  0  0  0  0  0
  -23.8800  -10.5050   21.0100 C   0  0  0  0  0  0  0  0  0  0  0  0
  -24.3320   -9.5440   21.9420 C   0  0  0  0  0  3  0  0  0  0  0  0
  -23.6170   -8.3420   22.1340 C   0  0  0  0  0  3  0  0  0  0  0  0
  -22.4360   -8.0930   21.3970 C   0  0  0  0  0  0  0  0  0  0  0  0
  -22.0020   -9.0420   20.4560 C   0  0  0  0  0  3  0  0  0  0  0  0
  -22.7180  -10.2350   20.2610 C   0  0  0  0  0  3  0  0  0  0  0  0
  -21.6910   -6.9410   21.4990 O   0  0  0  0  0  0  0  0  0  0  0  0
  -21.6520   -6.2100   22.6580 C   0  0  0  0  0  0  0  0  0  0  0  0
  -21.2010   -6.7650   23.8750 C   0  0  0  0  0  3  0  0  0  0  0  0
  -21.1110   -5.9580   25.0270 C   0  0  0  0  0  3  0  0  0  0  0  0
  -21.4620   -4.5970   24.9630 C   0  0  0  0  0  0  0  0  0  0  0  0
  -21.9070   -4.0410   23.7500 C   0  0  0  0  0  3  0  0  0  0  0  0
  -21.9980   -4.8450   22.6010 C   0  0  0  0  0  0  0  0  0  0  0  0
  -22.4060   -4.2980   21.4300 F   0  0  0  0  0  0  0  0  0  0  0  0
  -21.3700   -3.8190   26.0680 F   0  0  0  0  0  0  0  0  0  0  0  0
  -22.7180  -13.5840   21.1540 C   0  0  0  0  0  0  0  0  0  0  0  0
  -22.0170  -12.8840   22.0390 N   0  0  0  0  0  0  0  0  0  0  0  0
  -22.2590  -14.6040   20.6410 O   0  0  0  0  0  0  0  0  0  0  0  0
  -22.4030  -12.0600   22.4760 H   0  0  0  0  0  0  0  0  0  0  0  0
  -21.0820  -13.1780   22.2840 H   0  0  0  0  0  0  0  0  0  0  0  0
  -25.3050  -15.2810   20.2870 N   0  0  0  0  0  0  0  0  0  0  0  0
  -24.5380  -15.9290   20.4280 H   0  0  0  0  0  0  0  0  0  0  0  0
  -26.1460  -15.7320   19.9500 H   0  0  0  0  0  0  0  0  0  0  0  0
  1  4  1  0
  2  1  2  0
  2  7  1  0
  3  1  1  0
  5  3  1  0
  5  6  1  0
  6 49  1  0
  6  4  1  0
  8  7  1  0
  9 20  2  0
 10  8  1  0
 10 15  1  0
 11 19  1  0
 11 21  1  0
 12 18  1  0
 12 14  1  0
 13 19  1  0
 14 13  1  0
 15 14  2  0
 16 10  2  0
 17 16  1  0
 17 12  2  0
 18 11  1  0
 19  9  1  0
 21 23  2  0
 22 21  1  0
 24 22  1  0
 25 34  2  0
 25 30  1  0
 26 22  1  0
 26 30  1  0
 27 26  1  0
 28 29  1  0
 28 27  1  0
 29 25  1  0
 30 31  2  0
 31 32  1  0
 33 32  2  0
 34 33  1  0
 35  9  1  0
 35 36  1  0
 35 45  1  0
 36 39  1  0
 37 41  1  0
 37 36  1  0
 38 37  2  0
 41 40  1  0
 43 41  1  0
 43 44  1  0
 43 42  1  0
 45 48  1  1
 45 46  1  0
 47 45  1  0
 50 49  1  0
 51 56  1  0
 52 53  1  0
 52 51  1  0
 54 53  1  0
 54 61  1  0
 54 55  1  0
 56 50  1  0
 56 55  1  0
 57 50  2  0
 58 59  2  0
 59 78  1  0
 60 59  1  0
 60 63  1  0
 61 58  1  0
 61 62  1  0
 62 60  2  0
 63 64  1  0
 64 65  2  0
 66 69  1  0
 66 65  1  0
 67 66  2  0
 68 67  1  0
 68 63  2  0
 69 70  1  0
 70 71  1  0
 71 72  2  0
 73 72  1  0
 73 77  1  0
 74 73  2  0
 75 70  2  0
 75 74  1  0
 76 75  1  0
 78 79  1  0
 79 82  1  0
 79 81  1  0
 80 78  2  0
 83 84  1  0
 83 58  1  0
 85 83  1  0
M  ISO  4   7 101   8 101  49 100  50 100
M  END
>  <TORSDO>  (51) 
F 18

>  <SCORE>  (51) 
-16.601

>  <name>  (51) 
50

>  <ligand_id>  (51) 
50

>  <original_smiles>  (51) 
[H]C(=C1C([H])([H])C([H])([H])C([H])(C([H])([H])C(=O)N2C([H])([H])C([H])([H])C([H])([H])C([H])(n3nc(-c4c([H])c([H])c(Oc5c([H])c([H])c(F)c([H])c5F)c([H])c4[H])c(C(=O)N([H])[H])c3N([H])[H])C2([H])[H])C1([H])[H])C([H])([H])Oc1c([H])c([H])c2c(c1[H])C([H])([H])N(C(=O)C([H])(N([H])C(=O)C([H])(N([H])C([H])([H])[H])C([H])([H])[H])C(C([H])([H])[H])(C([H])([H])[H])C([H])([H])[H])C([H])(C(=O)N([H])C1([H])c3c([H])c([H])c([H])c([H])c3C([H])([H])C([H])([H])C1([H])[H])C2([H])[H]

>  <smiles>  (51) 
[H]C(=C1C([H])([H])C([H])([H])C([H])(C([H])([H])C(=O)N2C([H])([H])C([H])([H])C([H])([H])C([H])(n3nc(-c4c([H])c([H])c(Oc5c([H])c([H])c(F)c([H])c5F)c([H])c4[H])c(C(=O)N([H])[H])c3N([H])[H])C2([H])[H])C1([H])[H])C([H])([H])Oc1c([H])c([H])c2c(c1[H])C([H])([H])N(C(=O)C([H])(N([H])C(=O)C([H])(N([H])C([H])([H])[H])C([H])([H])[H])C(C([H])([H])[H])(C([H])([H])[H])C([H])([H])[H])C([H])(C(=O)N([H])C1([H])c3c([H])c([H])c([H])c([H])c3C([H])([H])C([H])([H])C1([H])[H])C2([H])[H]

$$$$
51:0:0
     RDKit          3D

 95104  0  0  1  0  0  0  0  0999 V2000
  -27.5670  -18.8740   17.0890 N   0  0  0  0  0  4  0  0  0  0  0  0
  -28.0860  -18.7630   17.9490 H   0  0  0  0  0  0  0  0  0  0  0  0
  -26.7750  -18.2300   17.1400 H   0  0  0  0  0  0  0  0  0  0  0  0
  -32.5450  -18.3630   18.1650 C   0  0  0  0  0  2  0  0  0  0  0  0
  -30.4130  -18.1450   17.6000 C   0  0  0  0  0  3  0  0  0  0  0  0
  -31.3040  -18.1310   18.7350 C   0  0  0  0  0  3  0  0  0  0  0  0
  -30.7550  -19.0120   16.6200 C   0  0  0  0  0  3  0  0  0  0  0  0
  -29.2940  -17.3030   17.1220 C   0  0  0  0  0  2  0  0  0  0  0  0
  -29.7130  -19.1730   15.5670 C   0  0  0  0  0  2  0  0  0  0  0  0
  -28.5560  -18.2610   16.1420 C   0  0  0  0  0  3  0  0  0  0  0  0
  -32.4640  -19.1790   16.6140 S   0  0  0  0  0  0  0  0  0  0  0  0
  -30.9360  -18.0620   20.2520 C   0  0  0  0  0  2  0  0  0  0  0  0
  -29.9560  -17.0350   20.9620 C   0  0  0  0  0  2  0  0  0  0  0  0
  -30.6060  -15.7350   21.4050 C   0  0  0  0  0  0  0  0  0  0  0  0
  -30.6000  -13.5630   20.3340 C   0  0  0  0  0  2  0  0  0  0  0  0
  -29.8810  -13.6240   19.0050 C   0  0  0  0  0  2  0  0  0  0  0  0
  -28.3790  -13.8270   19.1010 C   0  0  0  0  0  2  0  0  0  0  0  0
  -27.7210  -14.1380   20.4710 C   0  0  0  0  0  3  0  0  0  0  0  0
  -28.7140  -14.0800   21.6720 C   0  0  0  0  0  2  0  0  0  0  0  0
  -30.0020  -14.5260   21.2190 N   0  0  0  0  0  0  0  0  0  0  0  0
  -31.7960  -15.8340   21.6040 O   0  0  0  0  0  0  0  0  0  0  0  0
  -25.1770  -14.2980   20.9210 C   0  0  0  0  0  0  0  0  0  0  0  0
  -24.1930  -13.3830   21.1130 C   0  0  0  0  0  0  0  0  0  0  0  0
  -24.8240  -12.0970   21.1230 C   0  0  0  0  0  0  0  0  0  0  0  0
  -26.3740  -13.5950   20.7670 N   0  0  0  0  0  0  0  0  0  0  0  0
  -26.1560  -12.2680   20.9440 N   0  0  0  0  0  0  0  0  0  0  0  0
  -24.2480  -10.7230   21.1970 C   0  0  0  0  0  0  0  0  0  0  0  0
  -24.6370   -9.7270   22.1400 C   0  0  0  0  0  3  0  0  0  0  0  0
  -24.0260   -8.4550   22.1310 C   0  0  0  0  0  3  0  0  0  0  0  0
  -23.0280   -8.1290   21.1970 C   0  0  0  0  0  0  0  0  0  0  0  0
  -22.6610   -9.1130   20.2580 C   0  0  0  0  0  3  0  0  0  0  0  0
  -23.2610  -10.3730   20.2510 C   0  0  0  0  0  3  0  0  0  0  0  0
  -22.4200   -6.9000   21.1080 O   0  0  0  0  0  0  0  0  0  0  0  0
  -22.1670   -6.1300   22.2220 C   0  0  0  0  0  0  0  0  0  0  0  0
  -21.4120   -6.6290   23.3070 C   0  0  0  0  0  3  0  0  0  0  0  0
  -21.1260   -5.8100   24.4210 C   0  0  0  0  0  3  0  0  0  0  0  0
  -21.5710   -4.4770   24.4480 C   0  0  0  0  0  0  0  0  0  0  0  0
  -22.3110   -3.9590   23.3670 C   0  0  0  0  0  3  0  0  0  0  0  0
  -22.6030   -4.7830   22.2600 C   0  0  0  0  0  0  0  0  0  0  0  0
  -23.2940   -4.2650   21.2150 F   0  0  0  0  0  0  0  0  0  0  0  0
  -21.2940   -3.6870   25.5130 F   0  0  0  0  0  0  0  0  0  0  0  0
  -22.6990  -13.6470   21.2100 C   0  0  0  0  0  0  0  0  0  0  0  0
  -21.9550  -12.8430   21.9140 N   0  0  0  0  0  0  0  0  0  0  0  0
  -22.1880  -14.6450   20.6900 O   0  0  0  0  0  0  0  0  0  0  0  0
  -22.3160  -11.9750   22.3530 H   0  0  0  0  0  0  0  0  0  0  0  0
  -20.9540  -13.0230   21.9650 H   0  0  0  0  0  0  0  0  0  0  0  0
  -25.1620  -15.7020   20.8830 N   0  0  0  0  0  0  0  0  0  0  0  0
  -24.3180  -16.1940   21.1470 H   0  0  0  0  0  0  0  0  0  0  0  0
  -25.9380  -16.0170   21.4340 H   0  0  0  0  0  0  0  0  0  0  0  0
  -27.1440  -20.3250   17.1490 C   0  0  0  0  0  2  0  0  0  0  0  0
  -27.1910  -20.9040   18.6360 C   0  0  0  0  0  2  0  0  0  0  0  0
  -26.7250  -22.4140   18.9350 C   0  0  0  0  0  2  0  0  0  0  0  0
  -27.6320  -23.4930   19.7970 C   0  0  0  0  0  3  0  0  0  0  0  0
  -27.1380  -25.0520   19.8130 C   0  0  0  0  0  3  0  0  0  0  0  0
  -27.8090  -26.4090   20.1790 O   0  0  0  0  0  0  0  0  0  0  0  0
  -24.8420  -32.3810   23.5520 C   0  0  0  0  0  0  0  0  0  0  0  0
  -26.9170  -27.5230   20.3130 C   0  0  0  0  0  0  0  0  0  0  0  0
  -23.4920  -31.0080   22.0470 C   0  0  0  0  0  3  0  0  0  0  0  0
  -24.7610  -29.4090   20.5330 C   0  0  0  0  0  0  0  0  0  0  0  0
  -26.0510  -31.1460   21.7090 C   0  0  0  0  0  2  0  0  0  0  0  0
  -26.0060  -29.7610   21.0420 C   0  0  0  0  0  0  0  0  0  0  0  0
  -27.0990  -28.8190   20.9320 C   0  0  0  0  0  3  0  0  0  0  0  0
  -25.6200  -27.2980   19.7920 C   0  0  0  0  0  3  0  0  0  0  0  0
  -24.5650  -28.1870   19.9130 C   0  0  0  0  0  3  0  0  0  0  0  0
  -23.5860  -30.3570   20.6590 C   0  0  0  0  0  2  0  0  0  0  0  0
  -24.8270  -31.5310   22.4820 N   0  0  0  0  0  0  0  0  0  0  0  0
  -23.8010  -32.7060   24.1460 O   0  0  0  0  0  0  0  0  0  0  0  0
  -22.8650  -30.0050   23.0510 C   0  0  0  0  0  0  0  0  0  0  0  0
  -21.6080  -29.6000   22.8090 N   0  0  0  0  0  0  0  0  0  0  0  0
  -23.5150  -29.5990   24.0200 O   0  0  0  0  0  0  0  0  0  0  0  0
  -21.1340  -29.9830   22.0010 H   0  0  0  0  0  0  0  0  0  0  0  0
  -18.5050  -27.7350   22.9800 C   0  0  0  0  0  0  0  0  0  0  0  0
  -20.8370  -28.6500   23.6180 C   0  0  0  0  0  3  0  0  0  0  0  0
  -21.3450  -27.2030   23.4180 C   0  0  0  0  0  2  0  0  0  0  0  0
  -20.5820  -26.4400   22.3310 C   0  0  0  0  0  2  0  0  0  0  0  0
  -19.0900  -26.3660   22.6720 C   0  0  0  0  0  2  0  0  0  0  0  0
  -19.3270  -28.8110   23.4070 C   0  0  0  0  0  0  0  0  0  0  0  0
  -18.7340  -30.0700   23.6480 C   0  0  0  0  0  3  0  0  0  0  0  0
  -17.3520  -30.2620   23.4680 C   0  0  0  0  0  3  0  0  0  0  0  0
  -16.5410  -29.1900   23.0550 C   0  0  0  0  0  3  0  0  0  0  0  0
  -17.1170  -27.9280   22.8160 C   0  0  0  0  0  3  0  0  0  0  0  0
  -26.1740  -32.9980   24.0690 C   0  0  0  0  0  3  0  0  0  0  0  0
  -25.9080  -34.4100   24.3910 N   0  0  0  0  0  0  0  0  0  0  0  0
  -26.2100  -35.4450   23.5940 C   0  0  0  0  0  0  0  0  0  0  0  0
  -26.8090  -35.3120   22.5240 O   0  0  0  0  0  0  0  0  0  0  0  0
  -25.3670  -34.5870   25.2220 H   0  0  0  0  0  0  0  0  0  0  0  0
  -24.4920  -37.2660   23.3300 C   0  0  0  0  0  1  0  0  0  0  0  0
  -25.7800  -36.8490   24.0610 C   0  0  0  0  0  3  0  0  0  0  0  0
  -27.9820  -37.7010   24.7330 C   0  0  0  0  0  1  0  0  0  0  0  0
  -26.8210  -37.8820   23.8640 N   0  0  0  0  0  0  0  0  0  0  0  0
  -26.4410  -38.8090   24.0300 H   0  0  0  0  0  0  0  0  0  0  0  0
  -26.7490  -32.2500   25.3360 C   0  0  1  0  0  0  0  0  0  0  0  0
  -25.6970  -31.9980   26.4410 C   0  0  0  0  0  1  0  0  0  0  0  0
  -27.3560  -30.8820   24.9450 C   0  0  0  0  0  1  0  0  0  0  0  0
  -27.9020  -33.0800   25.9480 C   0  0  0  0  0  1  0  0  0  0  0  0
  1  3  1  0
  1 50  1  0
  1  2  1  0
  4  6  1  0
  5  8  1  0
  5  6  1  0
  6 12  1  0
  7  9  1  0
  7  5  1  0
  9 10  1  0
 10  1  1  0
 10  8  1  0
 11  7  1  0
 11  4  1  0
 12 13  1  0
 13 14  1  0
 14 21  2  0
 15 20  1  0
 16 17  1  0
 16 15  1  0
 18 17  1  0
 18 25  1  0
 18 19  1  0
 20 14  1  0
 20 19  1  0
 22 23  2  0
 23 24  1  0
 23 42  1  0
 24 27  1  0
 25 22  1  0
 25 26  1  0
 26 24  2  0
 27 28  1  0
 29 28  2  0
 30 29  1  0
 31 30  2  0
 32 31  1  0
 32 27  2  0
 33 30  1  0
 33 34  1  0
 34 39  2  0
 34 35  1  0
 35 36  2  0
 36 37  1  0
 37 41  1  0
 38 37  2  0
 39 38  1  0
 40 39  1  0
 42 43  1  0
 43 46  1  0
 43 45  1  0
 44 42  2  0
 47 22  1  0
 47 48  1  0
 47 49  1  0
 50 51  1  0
 51 52  1  0
 52 53  1  0
 53 54  2  0
 54 55  1  0
 55 57  1  0
 56 67  2  0
 57 62  1  0
 58 66  1  0
 58 68  1  0
 59 65  1  0
 59 61  1  0
 60 66  1  0
 61 60  1  0
 62 61  2  0
 63 64  1  0
 63 57  2  0
 64 59  2  0
 65 58  1  0
 66 56  1  0
 68 70  2  0
 69 68  1  0
 71 69  1  0
 72 77  1  0
 73 69  1  0
 74 73  1  0
 75 76  1  0
 75 74  1  0
 76 72  1  0
 77 73  1  0
 77 78  2  0
 79 78  1  0
 80 79  2  0
 81 72  2  0
 81 80  1  0
 82 56  1  0
 82 83  1  0
 82 92  1  0
 83 86  1  0
 84 88  1  0
 84 83  1  0
 85 84  2  0
 88 87  1  0
 90 91  1  0
 90 88  1  0
 90 89  1  0
 92 95  1  1
 92 93  1  0
 94 92  1  0
M  ISO  4  13 100  14 100  54 101  55 101
M  END
>  <TORSDO>  (52) 
F 24

>  <SCORE>  (52) 
-8.935

>  <name>  (52) 
51

>  <ligand_id>  (52) 
51

>  <original_smiles>  (52) 
[H]c1sc2c(c1C([H])([H])C([H])([H])C(=O)N1C([H])([H])C([H])([H])C([H])([H])C([H])(n3nc(-c4c([H])c([H])c(Oc5c([H])c([H])c(F)c([H])c5F)c([H])c4[H])c(C(=O)N([H])[H])c3N([H])[H])C1([H])[H])C([H])([H])C([H])([N+]([H])([H])C([H])([H])C([H])([H])C([H])([H])C([H])([H])C([H])([H])Oc1c([H])c([H])c3c(c1[H])C([H])([H])N(C(=O)C([H])(N([H])C(=O)C([H])(N([H])C([H])([H])[H])C([H])([H])[H])C(C([H])([H])[H])(C([H])([H])[H])C([H])([H])[H])C([H])(C(=O)N([H])C1([H])c4c([H])c([H])c([H])c([H])c4C([H])([H])C([H])([H])C1([H])[H])C3([H])[H])C2([H])[H]

>  <smiles>  (52) 
[H]c1sc2c(c1C([H])([H])C([H])([H])C(=O)N1C([H])([H])C([H])([H])C([H])([H])C([H])(n3nc(-c4c([H])c([H])c(Oc5c([H])c([H])c(F)c([H])c5F)c([H])c4[H])c(C(=O)N([H])[H])c3N([H])[H])C1([H])[H])C([H])([H])C([H])([N+]([H])([H])C([H])([H])C([H])([H])C([H])([H])C([H])([H])C([H])([H])Oc1c([H])c([H])c3c(c1[H])C([H])([H])N(C(=O)C([H])(N([H])C(=O)C([H])(N([H])C([H])([H])[H])C([H])([H])[H])C(C([H])([H])[H])(C([H])([H])[H])C([H])([H])[H])C([H])(C(=O)N([H])C1([H])c4c([H])c([H])c([H])c([H])c4C([H])([H])C([H])([H])C1([H])[H])C3([H])[H])C2([H])[H]

$$$$
52:0:0
     RDKit          3D

 88 96  0  0  1  0  0  0  0  0999 V2000
  -27.1460  -23.2020   21.0410 C   0  0  0  0  0  2  0  0  0  0  0  0
  -28.1620  -23.4050   20.1880 C   0  0  0  0  0  0  0  0  0  0  0  0
  -29.1960  -22.1620   19.8690 C   0  0  0  0  0  2  0  0  0  0  0  0
  -28.2970  -19.8000   21.0800 C   0  0  0  0  0  2  0  0  0  0  0  0
  -28.5450  -18.2550   20.9390 C   0  0  0  0  0  2  0  0  0  0  0  0
  -30.1230  -19.3990   19.6090 C   0  0  0  0  0  2  0  0  0  0  0  0
  -28.9290  -20.5000   19.8560 C   0  0  0  0  0  3  0  0  0  0  0  0
  -29.9840  -17.9650   20.4140 C   0  0  1  0  0  0  0  0  0  0  0  0
  -30.9600  -17.9160   21.6260 C   0  0  0  0  0  1  0  0  0  0  0  0
  -29.9900  -16.4660   19.6470 C   0  0  0  0  0  2  0  0  0  0  0  0
  -30.8940  -15.0930   19.8320 C   0  0  0  0  0  0  0  0  0  0  0  0
  -30.7680  -12.6960   19.0500 C   0  0  0  0  0  2  0  0  0  0  0  0
  -29.8250  -12.6390   17.8310 C   0  0  0  0  0  2  0  0  0  0  0  0
  -28.3580  -12.4800   18.2790 C   0  0  0  0  0  2  0  0  0  0  0  0
  -27.9720  -13.4550   19.4240 C   0  0  0  0  0  3  0  0  0  0  0  0
  -29.0390  -13.4940   20.5360 C   0  0  0  0  0  2  0  0  0  0  0  0
  -30.3250  -13.8260   19.9120 N   0  0  0  0  0  0  0  0  0  0  0  0
  -32.1000  -15.1470   19.5770 O   0  0  0  0  0  0  0  0  0  0  0  0
  -25.6290  -14.1040   20.2350 C   0  0  0  0  0  0  0  0  0  0  0  0
  -24.5510  -13.3510   20.6330 C   0  0  0  0  0  0  0  0  0  0  0  0
  -24.9800  -11.9910   20.5920 C   0  0  0  0  0  0  0  0  0  0  0  0
  -26.6370  -13.1960   19.9570 N   0  0  0  0  0  0  0  0  0  0  0  0
  -26.2610  -11.9200   20.2390 N   0  0  0  0  0  0  0  0  0  0  0  0
  -24.2270  -10.7460   20.8070 C   0  0  0  0  0  0  0  0  0  0  0  0
  -24.6170   -9.8000   21.7800 C   0  0  0  0  0  3  0  0  0  0  0  0
  -23.8610   -8.6230   21.9760 C   0  0  0  0  0  3  0  0  0  0  0  0
  -22.7040   -8.3840   21.1970 C   0  0  0  0  0  0  0  0  0  0  0  0
  -22.3310   -9.3210   20.2150 C   0  0  0  0  0  3  0  0  0  0  0  0
  -23.0870  -10.4890   20.0170 C   0  0  0  0  0  3  0  0  0  0  0  0
  -21.9270   -7.2560   21.2990 O   0  0  0  0  0  0  0  0  0  0  0  0
  -21.7860   -6.5840   22.4890 C   0  0  0  0  0  0  0  0  0  0  0  0
  -21.2920   -7.2200   23.6470 C   0  0  0  0  0  3  0  0  0  0  0  0
  -21.0980   -6.4780   24.8300 C   0  0  0  0  0  3  0  0  0  0  0  0
  -21.3880   -5.1010   24.8530 C   0  0  0  0  0  0  0  0  0  0  0  0
  -21.8710   -4.4630   23.6970 C   0  0  0  0  0  3  0  0  0  0  0  0
  -22.0660   -5.2030   22.5170 C   0  0  0  0  0  0  0  0  0  0  0  0
  -22.5120   -4.5780   21.4000 F   0  0  0  0  0  0  0  0  0  0  0  0
  -21.1940   -4.3870   25.9870 F   0  0  0  0  0  0  0  0  0  0  0  0
  -23.1760  -13.8690   20.9320 C   0  0  0  0  0  0  0  0  0  0  0  0
  -22.4470  -13.2010   21.8240 N   0  0  0  0  0  0  0  0  0  0  0  0
  -22.7500  -14.8960   20.4070 O   0  0  0  0  0  0  0  0  0  0  0  0
  -22.7950  -12.3700   22.2760 H   0  0  0  0  0  0  0  0  0  0  0  0
  -21.5300  -13.5420   22.0640 H   0  0  0  0  0  0  0  0  0  0  0  0
  -25.8190  -15.4670   20.0570 N   0  0  0  0  0  0  0  0  0  0  0  0
  -25.0770  -16.1400   20.2120 H   0  0  0  0  0  0  0  0  0  0  0  0
  -26.6680  -15.8890   19.7050 H   0  0  0  0  0  0  0  0  0  0  0  0
  -28.2810  -24.8900   19.4910 C   0  0  0  0  0  2  0  0  0  0  0  0
  -28.1380  -26.2730   20.1810 O   0  0  0  0  0  0  0  0  0  0  0  0
  -24.5570  -31.8880   23.2240 C   0  0  0  0  0  0  0  0  0  0  0  0
  -27.0670  -27.2250   20.0620 C   0  0  0  0  0  0  0  0  0  0  0  0
  -23.3290  -30.5150   21.5930 C   0  0  0  0  0  3  0  0  0  0  0  0
  -24.7360  -28.9720   20.0970 C   0  0  0  0  0  0  0  0  0  0  0  0
  -25.8850  -30.7770   21.3830 C   0  0  0  0  0  2  0  0  0  0  0  0
  -25.9300  -29.4080   20.6870 C   0  0  0  0  0  0  0  0  0  0  0  0
  -27.0890  -28.5510   20.6490 C   0  0  0  0  0  3  0  0  0  0  0  0
  -25.8480  -26.8850   19.4280 C   0  0  0  0  0  3  0  0  0  0  0  0
  -24.7030  -27.7160   19.4670 C   0  0  0  0  0  3  0  0  0  0  0  0
  -23.5170  -29.8780   20.1900 C   0  0  0  0  0  2  0  0  0  0  0  0
  -24.6120  -31.0840   22.1180 N   0  0  0  0  0  0  0  0  0  0  0  0
  -23.4760  -32.1660   23.7690 O   0  0  0  0  0  0  0  0  0  0  0  0
  -22.6830  -29.4820   22.5550 C   0  0  0  0  0  0  0  0  0  0  0  0
  -21.3590  -29.2900   22.4380 N   0  0  0  0  0  0  0  0  0  0  0  0
  -23.3710  -28.8660   23.3740 O   0  0  0  0  0  0  0  0  0  0  0  0
  -20.8630  -29.8250   21.7420 H   0  0  0  0  0  0  0  0  0  0  0  0
  -18.0010  -28.0300   22.9290 C   0  0  0  0  0  0  0  0  0  0  0  0
  -20.5530  -28.3390   23.2060 C   0  0  0  0  0  3  0  0  0  0  0  0
  -20.6870  -26.9140   22.6160 C   0  0  0  0  0  2  0  0  0  0  0  0
  -19.5890  -26.5770   21.6060 C   0  0  0  0  0  2  0  0  0  0  0  0
  -18.2040  -26.6930   22.2450 C   0  0  0  0  0  2  0  0  0  0  0  0
  -19.1000  -28.8150   23.3630 C   0  0  0  0  0  0  0  0  0  0  0  0
  -18.8500  -30.0740   23.9550 C   0  0  0  0  0  3  0  0  0  0  0  0
  -17.5330  -30.5400   24.1300 C   0  0  0  0  0  3  0  0  0  0  0  0
  -16.4480  -29.7460   23.7210 C   0  0  0  0  0  3  0  0  0  0  0  0
  -16.6830  -28.5010   23.1130 C   0  0  0  0  0  3  0  0  0  0  0  0
  -25.8410  -32.5230   23.8440 C   0  0  0  0  0  3  0  0  0  0  0  0
  -26.3590  -31.7620   25.1270 C   0  0  1  0  0  0  0  0  0  0  0  0
  -25.2850  -31.5210   26.2130 C   0  0  0  0  0  1  0  0  0  0  0  0
  -26.9420  -30.3850   24.7450 C   0  0  0  0  0  1  0  0  0  0  0  0
  -27.5120  -32.5610   25.7830 C   0  0  0  0  0  1  0  0  0  0  0  0
  -25.5330  -33.9220   24.1790 N   0  0  0  0  0  0  0  0  0  0  0  0
  -25.8510  -34.9820   23.4240 C   0  0  0  0  0  0  0  0  0  0  0  0
  -26.5070  -34.8870   22.3850 O   0  0  0  0  0  0  0  0  0  0  0  0
  -24.9600  -34.0710   24.9970 H   0  0  0  0  0  0  0  0  0  0  0  0
  -24.1220  -36.7820   23.0980 C   0  0  0  0  0  1  0  0  0  0  0  0
  -25.3660  -36.3660   23.8990 C   0  0  0  0  0  3  0  0  0  0  0  0
  -27.5060  -37.2450   24.7270 C   0  0  0  0  0  1  0  0  0  0  0  0
  -26.4000  -37.4190   23.7910 N   0  0  0  0  0  0  0  0  0  0  0  0
  -25.9940  -38.3370   23.9520 H   0  0  0  0  0  0  0  0  0  0  0  0
  2  1  2  0
  3  2  1  0
  5  4  1  0
  6  7  1  0
  6  8  1  0
  7  3  1  0
  7  4  1  0
  8  5  1  0
  8  9  1  1
 10 11  1  0
 10  8  1  0
 11 17  1  0
 12 17  1  0
 13 14  1  0
 13 12  1  0
 15 14  1  0
 15 22  1  0
 15 16  1  0
 17 16  1  0
 18 11  2  0
 19 20  2  0
 20 39  1  0
 21 20  1  0
 21 24  1  0
 22 19  1  0
 22 23  1  0
 23 21  2  0
 24 25  1  0
 25 26  2  0
 27 30  1  0
 27 26  1  0
 28 27  2  0
 29 28  1  0
 29 24  2  0
 30 31  1  0
 31 36  2  0
 31 32  1  0
 32 33  2  0
 33 34  1  0
 34 38  1  0
 35 34  2  0
 36 35  1  0
 37 36  1  0
 39 40  1  0
 40 43  1  0
 40 42  1  0
 41 39  2  0
 44 45  1  0
 44 19  1  0
 46 44  1  0
 47 48  1  0
 47  2  1  0
 49 60  2  0
 50 48  1  0
 50 55  1  0
 51 59  1  0
 51 61  1  0
 52 58  1  0
 52 54  1  0
 53 59  1  0
 54 53  1  0
 55 54  2  0
 56 57  1  0
 56 50  2  0
 57 52  2  0
 58 51  1  0
 59 49  1  0
 61 63  2  0
 62 61  1  0
 64 62  1  0
 65 74  2  0
 65 70  1  0
 66 62  1  0
 66 70  1  0
 67 66  1  0
 68 69  1  0
 68 67  1  0
 69 65  1  0
 70 71  2  0
 71 72  1  0
 73 72  2  0
 74 73  1  0
 75 49  1  0
 75 80  1  0
 75 76  1  0
 76 79  1  1
 76 77  1  0
 78 76  1  0
 80 83  1  0
 81 85  1  0
 81 80  1  0
 82 81  2  0
 85 84  1  0
 87 85  1  0
 87 88  1  0
 87 86  1  0
M  ISO  4  10 100  11 100  47 101  48 101
M  END
>  <TORSDO>  (53) 
F 20

>  <SCORE>  (53) 
-12.818

>  <name>  (53) 
52

>  <ligand_id>  (53) 
52

>  <original_smiles>  (53) 
[H]C([H])=C(C([H])([H])Oc1c([H])c([H])c2c(c1[H])C([H])([H])N(C(=O)C([H])(N([H])C(=O)C([H])(N([H])C([H])([H])[H])C([H])([H])[H])C(C([H])([H])[H])(C([H])([H])[H])C([H])([H])[H])C([H])(C(=O)N([H])C1([H])c3c([H])c([H])c([H])c([H])c3C([H])([H])C([H])([H])C1([H])[H])C2([H])[H])C([H])([H])C1([H])C([H])([H])C([H])([H])C(C([H])([H])[H])(C([H])([H])C(=O)N2C([H])([H])C([H])([H])C([H])([H])C([H])(n3nc(-c4c([H])c([H])c(Oc5c([H])c([H])c(F)c([H])c5F)c([H])c4[H])c(C(=O)N([H])[H])c3N([H])[H])C2([H])[H])C1([H])[H]

>  <smiles>  (53) 
[H]C([H])=C(C([H])([H])Oc1c([H])c([H])c2c(c1[H])C([H])([H])N(C(=O)C([H])(N([H])C(=O)C([H])(N([H])C([H])([H])[H])C([H])([H])[H])C(C([H])([H])[H])(C([H])([H])[H])C([H])([H])[H])C([H])(C(=O)N([H])C1([H])c3c([H])c([H])c([H])c([H])c3C([H])([H])C([H])([H])C1([H])[H])C2([H])[H])C([H])([H])C1([H])C([H])([H])C([H])([H])C(C([H])([H])[H])(C([H])([H])C(=O)N2C([H])([H])C([H])([H])C([H])([H])C([H])(n3nc(-c4c([H])c([H])c(Oc5c([H])c([H])c(F)c([H])c5F)c([H])c4[H])c(C(=O)N([H])[H])c3N([H])[H])C2([H])[H])C1([H])[H]

$$$$
53:0:0
     RDKit          3D

 91100  0  0  1  0  0  0  0  0999 V2000
  -28.8530  -19.4700   20.9830 C   0  0  0  0  0  3  0  0  0  0  0  0
  -29.0200  -18.0730   21.2160 C   0  0  0  0  0  3  0  0  0  0  0  0
  -30.9440  -18.0200   19.7930 C   0  0  0  0  0  3  0  0  0  0  0  0
  -29.7210  -20.2030   20.1340 C   0  0  0  0  0  0  0  0  0  0  0  0
  -30.7640  -19.4220   19.5300 C   0  0  0  0  0  0  0  0  0  0  0  0
  -30.0630  -17.2950   20.6380 C   0  0  0  0  0  0  0  0  0  0  0  0
  -31.7220  -20.0590   18.5320 C   0  0  0  0  0  2  0  0  0  0  0  0
  -31.6440  -21.5920   18.4330 C   0  0  0  0  0  2  0  0  0  0  0  0
  -30.2120  -22.1290   18.5370 C   0  0  0  0  0  2  0  0  0  0  0  0
  -29.6260  -21.7800   19.9060 C   0  0  0  0  0  3  0  0  0  0  0  0
  -28.3490  -22.6270   20.2550 C   0  0  0  0  0  3  0  0  0  0  0  0
  -27.9790  -23.9550   20.0920 C   0  0  0  0  0  3  0  0  0  0  0  0
  -28.6330  -25.2140   19.4320 C   0  0  0  0  0  2  0  0  0  0  0  0
  -28.4760  -26.5340   20.0850 O   0  0  0  0  0  0  0  0  0  0  0  0
  -24.6570  -31.8060   23.1580 C   0  0  0  0  0  0  0  0  0  0  0  0
  -27.3200  -27.3230   20.0170 C   0  0  0  0  0  0  0  0  0  0  0  0
  -23.4710  -30.4200   21.4940 C   0  0  0  0  0  3  0  0  0  0  0  0
  -24.9340  -28.9060   20.0350 C   0  0  0  0  0  0  0  0  0  0  0  0
  -26.0140  -30.7610   21.3240 C   0  0  0  0  0  2  0  0  0  0  0  0
  -26.0990  -29.4020   20.6380 C   0  0  0  0  0  0  0  0  0  0  0  0
  -27.2930  -28.6260   20.6010 C   0  0  0  0  0  3  0  0  0  0  0  0
  -26.1290  -26.8610   19.4160 C   0  0  0  0  0  3  0  0  0  0  0  0
  -24.9560  -27.6470   19.4080 C   0  0  0  0  0  3  0  0  0  0  0  0
  -23.6850  -29.7610   20.1030 C   0  0  0  0  0  2  0  0  0  0  0  0
  -24.7340  -31.0150   22.0450 N   0  0  0  0  0  0  0  0  0  0  0  0
  -23.5690  -32.0680   23.6890 O   0  0  0  0  0  0  0  0  0  0  0  0
  -22.8160  -29.3850   22.4380 C   0  0  0  0  0  0  0  0  0  0  0  0
  -21.4870  -29.2180   22.3160 N   0  0  0  0  0  0  0  0  0  0  0  0
  -23.4990  -28.7390   23.2380 O   0  0  0  0  0  0  0  0  0  0  0  0
  -21.0050  -29.7930   21.6400 H   0  0  0  0  0  0  0  0  0  0  0  0
  -18.0900  -28.0820   22.8680 C   0  0  0  0  0  0  0  0  0  0  0  0
  -20.6620  -28.2700   23.0680 C   0  0  0  0  0  3  0  0  0  0  0  0
  -20.7060  -26.8610   22.4300 C   0  0  0  0  0  2  0  0  0  0  0  0
  -19.5630  -26.6100   21.4390 C   0  0  0  0  0  2  0  0  0  0  0  0
  -18.2070  -26.7590   22.1290 C   0  0  0  0  0  2  0  0  0  0  0  0
  -19.2400  -28.8000   23.2920 C   0  0  0  0  0  0  0  0  0  0  0  0
  -19.0650  -30.0420   23.9410 C   0  0  0  0  0  3  0  0  0  0  0  0
  -17.7760  -30.5630   24.1660 C   0  0  0  0  0  3  0  0  0  0  0  0
  -16.6420  -29.8400   23.7550 C   0  0  0  0  0  3  0  0  0  0  0  0
  -16.8020  -28.5990   23.1130 C   0  0  0  0  0  3  0  0  0  0  0  0
  -25.9300  -32.4350   23.8020 C   0  0  0  0  0  3  0  0  0  0  0  0
  -26.4360  -31.6550   25.0760 C   0  0  1  0  0  0  0  0  0  0  0  0
  -25.3330  -31.3910   26.1270 C   0  0  0  0  0  1  0  0  0  0  0  0
  -27.0370  -30.2900   24.6740 C   0  0  0  0  0  1  0  0  0  0  0  0
  -27.5770  -32.4530   25.7560 C   0  0  0  0  0  1  0  0  0  0  0  0
  -25.6150  -33.8300   24.1470 N   0  0  0  0  0  0  0  0  0  0  0  0
  -25.9460  -34.8940   23.4030 C   0  0  0  0  0  0  0  0  0  0  0  0
  -26.6230  -34.8040   22.3740 O   0  0  0  0  0  0  0  0  0  0  0  0
  -25.0280  -33.9740   24.9560 H   0  0  0  0  0  0  0  0  0  0  0  0
  -24.2280  -36.6880   23.0400 C   0  0  0  0  0  1  0  0  0  0  0  0
  -25.4510  -36.2760   23.8740 C   0  0  0  0  0  3  0  0  0  0  0  0
  -27.5650  -37.1410   24.7740 C   0  0  0  0  0  1  0  0  0  0  0  0
  -26.4920  -37.3270   23.7990 N   0  0  0  0  0  0  0  0  0  0  0  0
  -26.0890  -38.2510   23.9380 H   0  0  0  0  0  0  0  0  0  0  0  0
  -30.1620  -15.7650   21.0410 C   0  0  0  0  0  2  0  0  0  0  0  0
  -30.8040  -14.6170   20.1530 C   0  0  0  0  0  0  0  0  0  0  0  0
  -30.5310  -12.4340   18.9430 C   0  0  0  0  0  2  0  0  0  0  0  0
  -29.5280  -12.6440   17.7850 C   0  0  0  0  0  2  0  0  0  0  0  0
  -28.0700  -12.4810   18.2620 C   0  0  0  0  0  2  0  0  0  0  0  0
  -27.7900  -13.2750   19.5650 C   0  0  0  0  0  3  0  0  0  0  0  0
  -28.8950  -13.0030   20.6100 C   0  0  0  0  0  2  0  0  0  0  0  0
  -30.1790  -13.3980   20.0070 N   0  0  0  0  0  0  0  0  0  0  0  0
  -31.8900  -14.8190   19.5950 O   0  0  0  0  0  0  0  0  0  0  0  0
  -25.4260  -13.8740   20.3730 C   0  0  0  0  0  0  0  0  0  0  0  0
  -24.3690  -13.0980   20.7740 C   0  0  0  0  0  0  0  0  0  0  0  0
  -24.8240  -11.7460   20.7050 C   0  0  0  0  0  0  0  0  0  0  0  0
  -26.4580  -12.9930   20.0900 N   0  0  0  0  0  0  0  0  0  0  0  0
  -26.1010  -11.7070   20.3430 N   0  0  0  0  0  0  0  0  0  0  0  0
  -24.1020  -10.4820   20.9070 C   0  0  0  0  0  0  0  0  0  0  0  0
  -24.5030   -9.5500   21.8880 C   0  0  0  0  0  3  0  0  0  0  0  0
  -23.7810   -8.3500   22.0730 C   0  0  0  0  0  3  0  0  0  0  0  0
  -22.6420   -8.0780   21.2790 C   0  0  0  0  0  0  0  0  0  0  0  0
  -22.2600   -9.0000   20.2890 C   0  0  0  0  0  3  0  0  0  0  0  0
  -22.9850  -10.1890   20.1000 C   0  0  0  0  0  3  0  0  0  0  0  0
  -21.8910   -6.9310   21.3760 O   0  0  0  0  0  0  0  0  0  0  0  0
  -21.7250   -6.2790   22.5690 C   0  0  0  0  0  0  0  0  0  0  0  0
  -21.1100   -6.8980   23.6800 C   0  0  0  0  0  3  0  0  0  0  0  0
  -20.8960   -6.1670   24.8660 C   0  0  0  0  0  3  0  0  0  0  0  0
  -21.2840   -4.8150   24.9410 C   0  0  0  0  0  0  0  0  0  0  0  0
  -21.8910   -4.1960   23.8330 C   0  0  0  0  0  3  0  0  0  0  0  0
  -22.1090   -4.9250   22.6530 C   0  0  0  0  0  0  0  0  0  0  0  0
  -22.6760   -4.3160   21.5830 F   0  0  0  0  0  0  0  0  0  0  0  0
  -21.0720   -4.1110   26.0770 F   0  0  0  0  0  0  0  0  0  0  0  0
  -22.9860  -13.5770   21.1090 C   0  0  0  0  0  0  0  0  0  0  0  0
  -22.2870  -12.8630   21.9880 N   0  0  0  0  0  0  0  0  0  0  0  0
  -22.5340  -14.6150   20.6310 O   0  0  0  0  0  0  0  0  0  0  0  0
  -22.6650  -12.0240   22.4010 H   0  0  0  0  0  0  0  0  0  0  0  0
  -21.3570  -13.1590   22.2520 H   0  0  0  0  0  0  0  0  0  0  0  0
  -25.5880  -15.2440   20.2080 N   0  0  0  0  0  0  0  0  0  0  0  0
  -24.8320  -15.9050   20.3450 H   0  0  0  0  0  0  0  0  0  0  0  0
  -26.4420  -15.6810   19.8820 H   0  0  0  0  0  0  0  0  0  0  0  0
  1  2  1  0
  3  6  1  0
  4  1  2  0
  5  3  2  0
  5  4  1  0
  6 55  1  0
  6  2  2  0
  7  5  1  0
  8  7  1  0
  8  9  1  0
  9 10  1  0
 10  4  1  0
 10 11  1  0
 12 11  2  0
 13 14  1  0
 13 12  1  0
 15 26  2  0
 16 14  1  0
 16 21  1  0
 17 25  1  0
 17 27  1  0
 18 24  1  0
 18 20  1  0
 19 25  1  0
 20 19  1  0
 21 20  2  0
 22 16  2  0
 23 22  1  0
 23 18  2  0
 24 17  1  0
 25 15  1  0
 27 29  2  0
 28 27  1  0
 30 28  1  0
 31 40  2  0
 31 36  1  0
 32 28  1  0
 32 36  1  0
 33 32  1  0
 34 35  1  0
 34 33  1  0
 35 31  1  0
 36 37  2  0
 37 38  1  0
 39 38  2  0
 40 39  1  0
 41 15  1  0
 41 46  1  0
 41 42  1  0
 42 45  1  1
 42 43  1  0
 44 42  1  0
 46 49  1  0
 47 51  1  0
 47 46  1  0
 48 47  2  0
 51 50  1  0
 53 51  1  0
 53 54  1  0
 53 52  1  0
 56 55  1  0
 57 62  1  0
 58 59  1  0
 58 57  1  0
 60 59  1  0
 60 67  1  0
 60 61  1  0
 62 56  1  0
 62 61  1  0
 63 56  2  0
 64 65  2  0
 65 84  1  0
 66 65  1  0
 66 69  1  0
 67 68  1  0
 67 64  1  0
 68 66  2  0
 69 70  1  0
 70 71  2  0
 72 75  1  0
 72 71  1  0
 73 72  2  0
 74 73  1  0
 74 69  2  0
 75 76  1  0
 76 81  2  0
 76 77  1  0
 77 78  2  0
 78 79  1  0
 79 83  1  0
 80 79  2  0
 81 80  1  0
 82 81  1  0
 84 85  1  0
 85 88  1  0
 85 87  1  0
 86 84  2  0
 89 90  1  0
 89 64  1  0
 91 89  1  0
M  ISO  4  13 101  14 101  55 100  56 100
M  END
>  <TORSDO>  (54) 
F 19

>  <SCORE>  (54) 
-13.405

>  <name>  (54) 
53

>  <ligand_id>  (54) 
53

>  <original_smiles>  (54) 
[H]C(=C([H])C1([H])c2c([H])c([H])c(C([H])([H])C(=O)N3C([H])([H])C([H])([H])C([H])([H])C([H])(n4nc(-c5c([H])c([H])c(Oc6c([H])c([H])c(F)c([H])c6F)c([H])c5[H])c(C(=O)N([H])[H])c4N([H])[H])C3([H])[H])c([H])c2C([H])([H])C([H])([H])C1([H])[H])C([H])([H])Oc1c([H])c([H])c2c(c1[H])C([H])([H])N(C(=O)C([H])(N([H])C(=O)C([H])(N([H])C([H])([H])[H])C([H])([H])[H])C(C([H])([H])[H])(C([H])([H])[H])C([H])([H])[H])C([H])(C(=O)N([H])C1([H])c3c([H])c([H])c([H])c([H])c3C([H])([H])C([H])([H])C1([H])[H])C2([H])[H]

>  <smiles>  (54) 
[H]C(=C([H])C1([H])c2c([H])c([H])c(C([H])([H])C(=O)N3C([H])([H])C([H])([H])C([H])([H])C([H])(n4nc(-c5c([H])c([H])c(Oc6c([H])c([H])c(F)c([H])c6F)c([H])c5[H])c(C(=O)N([H])[H])c4N([H])[H])C3([H])[H])c([H])c2C([H])([H])C([H])([H])C1([H])[H])C([H])([H])Oc1c([H])c([H])c2c(c1[H])C([H])([H])N(C(=O)C([H])(N([H])C(=O)C([H])(N([H])C([H])([H])[H])C([H])([H])[H])C(C([H])([H])[H])(C([H])([H])[H])C([H])([H])[H])C([H])(C(=O)N([H])C1([H])c3c([H])c([H])c([H])c([H])c3C([H])([H])C([H])([H])C1([H])[H])C2([H])[H]

$$$$
54:0:0
     RDKit          3D

 94102  0  0  1  0  0  0  0  0999 V2000
  -30.0130  -18.9700   19.6920 C   0  0  0  0  0  0  0  0  0  0  0  0
  -29.5690  -20.2210   20.0730 N   0  0  0  0  0  0  0  0  0  0  0  0
  -30.3330  -18.7220   18.5320 O   0  0  0  0  0  0  0  0  0  0  0  0
  -29.3250  -20.3030   21.0510 H   0  0  0  0  0  0  0  0  0  0  0  0
  -30.0780  -16.0160   22.2770 C   0  0  0  0  0  2  0  0  0  0  0  0
  -31.4440  -17.9890   21.6530 C   0  0  0  0  0  2  0  0  0  0  0  0
  -29.8800  -16.2800   20.7560 C   0  0  0  0  0  3  0  0  0  0  0  0
  -30.1810  -17.8650   20.8070 C   0  0  0  0  0  3  0  0  0  0  0  0
  -31.2020  -16.9660   22.7830 C   0  0  0  0  0  3  0  0  0  0  0  0
  -30.7080  -15.1280   20.0050 C   0  0  0  0  0  0  0  0  0  0  0  0
  -30.5920  -12.8680   18.8950 C   0  0  0  0  0  2  0  0  0  0  0  0
  -29.6090  -12.8990   17.7010 C   0  0  0  0  0  2  0  0  0  0  0  0
  -28.1480  -12.6920   18.1620 C   0  0  0  0  0  2  0  0  0  0  0  0
  -27.7890  -13.5690   19.3850 C   0  0  0  0  0  3  0  0  0  0  0  0
  -28.8710  -13.4560   20.4730 C   0  0  0  0  0  2  0  0  0  0  0  0
  -30.1520  -13.8750   19.8820 N   0  0  0  0  0  0  0  0  0  0  0  0
  -31.8140  -15.3630   19.5020 O   0  0  0  0  0  0  0  0  0  0  0  0
  -25.4260  -14.1400   20.2170 C   0  0  0  0  0  0  0  0  0  0  0  0
  -24.3830  -13.3560   20.6270 C   0  0  0  0  0  0  0  0  0  0  0  0
  -24.8550  -12.0090   20.5670 C   0  0  0  0  0  0  0  0  0  0  0  0
  -26.4630  -13.2710   19.9190 N   0  0  0  0  0  0  0  0  0  0  0  0
  -26.1290  -11.9850   20.1940 N   0  0  0  0  0  0  0  0  0  0  0  0
  -24.1520  -10.7400   20.7760 C   0  0  0  0  0  0  0  0  0  0  0  0
  -24.5590   -9.8270   21.7740 C   0  0  0  0  0  3  0  0  0  0  0  0
  -23.8580   -8.6160   21.9640 C   0  0  0  0  0  3  0  0  0  0  0  0
  -22.7360   -8.3110   21.1580 C   0  0  0  0  0  0  0  0  0  0  0  0
  -22.3490   -9.2120   20.1500 C   0  0  0  0  0  3  0  0  0  0  0  0
  -23.0490  -10.4130   19.9580 C   0  0  0  0  0  3  0  0  0  0  0  0
  -22.0090   -7.1480   21.2540 O   0  0  0  0  0  0  0  0  0  0  0  0
  -21.7780   -6.5470   22.4650 C   0  0  0  0  0  0  0  0  0  0  0  0
  -21.1080   -7.2140   23.5130 C   0  0  0  0  0  3  0  0  0  0  0  0
  -20.8310   -6.5340   24.7150 C   0  0  0  0  0  3  0  0  0  0  0  0
  -21.2110   -5.1860   24.8690 C   0  0  0  0  0  0  0  0  0  0  0  0
  -21.8720   -4.5190   23.8220 C   0  0  0  0  0  3  0  0  0  0  0  0
  -22.1520   -5.1980   22.6230 C   0  0  0  0  0  0  0  0  0  0  0  0
  -22.7740   -4.5450   21.6110 F   0  0  0  0  0  0  0  0  0  0  0  0
  -20.9350   -4.5290   26.0200 F   0  0  0  0  0  0  0  0  0  0  0  0
  -22.9950  -13.8190   20.9620 C   0  0  0  0  0  0  0  0  0  0  0  0
  -22.3160  -13.1270   21.8720 N   0  0  0  0  0  0  0  0  0  0  0  0
  -22.5240  -14.8350   20.4530 O   0  0  0  0  0  0  0  0  0  0  0  0
  -22.7050  -12.3070   22.3130 H   0  0  0  0  0  0  0  0  0  0  0  0
  -21.3910  -13.4330   22.1380 H   0  0  0  0  0  0  0  0  0  0  0  0
  -25.5730  -15.5160   20.0520 N   0  0  0  0  0  0  0  0  0  0  0  0
  -24.8030  -16.1630   20.1790 H   0  0  0  0  0  0  0  0  0  0  0  0
  -26.3990  -15.9580   19.6720 H   0  0  0  0  0  0  0  0  0  0  0  0
  -30.8560  -17.6050   24.0700 N   0  0  0  0  0  4  0  0  0  0  0  0
  -30.0100  -18.1470   24.0100 H   0  0  0  0  0  0  0  0  0  0  0  0
  -31.6010  -18.2090   24.3650 H   0  0  0  0  0  0  0  0  0  0  0  0
  -30.7350  -16.9100   24.7890 H   0  0  0  0  0  0  0  0  0  0  0  0
  -29.5850  -21.5350   19.3270 C   0  0  0  0  0  2  0  0  0  0  0  0
  -28.6730  -22.7300   19.8920 C   0  0  0  0  0  2  0  0  0  0  0  0
  -29.0120  -24.2530   19.5150 C   0  0  0  0  0  3  0  0  0  0  0  0
  -27.8440  -25.3400   19.6170 C   0  0  0  0  0  3  0  0  0  0  0  0
  -28.1390  -26.7990   19.5210 O   0  0  0  0  0  0  0  0  0  0  0  0
  -24.6670  -31.8350   23.3930 C   0  0  0  0  0  0  0  0  0  0  0  0
  -27.0530  -27.6860   19.6300 C   0  0  0  0  0  0  0  0  0  0  0  0
  -23.3760  -30.7040   21.6230 C   0  0  0  0  0  3  0  0  0  0  0  0
  -24.7350  -29.3440   19.9410 C   0  0  0  0  0  0  0  0  0  0  0  0
  -25.9150  -30.9820   21.3930 C   0  0  0  0  0  2  0  0  0  0  0  0
  -25.9360  -29.7070   20.5600 C   0  0  0  0  0  0  0  0  0  0  0  0
  -27.0960  -28.8890   20.4000 C   0  0  0  0  0  3  0  0  0  0  0  0
  -25.8330  -27.4000   18.9720 C   0  0  0  0  0  3  0  0  0  0  0  0
  -24.6880  -28.2000   19.1330 C   0  0  0  0  0  3  0  0  0  0  0  0
  -23.5250  -30.2290   20.1560 C   0  0  0  0  0  2  0  0  0  0  0  0
  -24.6740  -31.1850   22.1940 N   0  0  0  0  0  0  0  0  0  0  0  0
  -23.6090  -32.0550   24.0030 O   0  0  0  0  0  0  0  0  0  0  0  0
  -22.7190  -29.5770   22.4570 C   0  0  0  0  0  0  0  0  0  0  0  0
  -21.3950  -29.3990   22.3000 N   0  0  0  0  0  0  0  0  0  0  0  0
  -23.4000  -28.8680   23.2000 O   0  0  0  0  0  0  0  0  0  0  0  0
  -20.9030  -30.0150   21.6670 H   0  0  0  0  0  0  0  0  0  0  0  0
  -18.0360  -28.0890   22.6090 C   0  0  0  0  0  0  0  0  0  0  0  0
  -20.5820  -28.3750   22.9610 C   0  0  0  0  0  3  0  0  0  0  0  0
  -20.7320  -27.0090   22.2520 C   0  0  0  0  0  2  0  0  0  0  0  0
  -19.6600  -26.7650   21.1860 C   0  0  0  0  0  2  0  0  0  0  0  0
  -18.2610  -26.8170   21.8100 C   0  0  0  0  0  2  0  0  0  0  0  0
  -19.1270  -28.8300   23.1360 C   0  0  0  0  0  0  0  0  0  0  0  0
  -18.8650  -30.0230   23.8440 C   0  0  0  0  0  3  0  0  0  0  0  0
  -17.5440  -30.4730   24.0320 C   0  0  0  0  0  3  0  0  0  0  0  0
  -16.4690  -29.7300   23.5180 C   0  0  0  0  0  3  0  0  0  0  0  0
  -16.7130  -28.5390   22.8100 C   0  0  0  0  0  3  0  0  0  0  0  0
  -25.9840  -32.3510   24.0470 C   0  0  0  0  0  3  0  0  0  0  0  0
  -25.7590  -33.7450   24.4570 N   0  0  0  0  0  0  0  0  0  0  0  0
  -26.1670  -34.8160   23.7650 C   0  0  0  0  0  0  0  0  0  0  0  0
  -26.8390  -34.7290   22.7320 O   0  0  0  0  0  0  0  0  0  0  0  0
  -25.1610  -33.8900   25.2580 H   0  0  0  0  0  0  0  0  0  0  0  0
  -24.5640  -36.7390   23.5030 C   0  0  0  0  0  1  0  0  0  0  0  0
  -25.7660  -36.2060   24.2980 C   0  0  0  0  0  3  0  0  0  0  0  0
  -27.9420  -36.9000   25.2000 C   0  0  0  0  0  1  0  0  0  0  0  0
  -26.8680  -37.1920   24.2550 N   0  0  0  0  0  0  0  0  0  0  0  0
  -26.5220  -38.1260   24.4560 H   0  0  0  0  0  0  0  0  0  0  0  0
  -26.4500  -31.4770   25.2760 C   0  0  1  0  0  0  0  0  0  0  0  0
  -25.3470  -31.2450   26.3320 C   0  0  0  0  0  1  0  0  0  0  0  0
  -26.9530  -30.0920   24.8060 C   0  0  0  0  0  1  0  0  0  0  0  0
  -27.6470  -32.1620   25.9800 C   0  0  0  0  0  1  0  0  0  0  0  0
  1  2  1  0
  2  4  1  0
  3  1  2  0
  5  9  1  0
  6  9  1  0
  7 10  1  0
  7  8  1  0
  7  5  1  0
  8  1  1  0
  8  6  1  0
  9 46  1  0
 11 16  1  0
 12 13  1  0
 12 11  1  0
 14 13  1  0
 14 21  1  0
 14 15  1  0
 16 10  1  0
 16 15  1  0
 17 10  2  0
 18 19  2  0
 19 38  1  0
 20 19  1  0
 20 23  1  0
 21 22  1  0
 21 18  1  0
 22 20  2  0
 23 24  1  0
 24 25  2  0
 26 29  1  0
 26 25  1  0
 27 26  2  0
 28 27  1  0
 28 23  2  0
 29 30  1  0
 30 35  2  0
 30 31  1  0
 31 32  2  0
 32 33  1  0
 33 37  1  0
 34 33  2  0
 35 34  1  0
 36 35  1  0
 38 39  1  0
 39 42  1  0
 39 41  1  0
 40 38  2  0
 43 44  1  0
 43 18  1  0
 45 43  1  0
 46 48  1  0
 46 49  1  0
 47 46  1  0
 50 51  1  0
 50  2  1  0
 52 53  2  0
 52 51  1  0
 54 53  1  0
 54 56  1  0
 55 66  2  0
 56 61  1  0
 57 65  1  0
 57 67  1  0
 58 64  1  0
 58 60  1  0
 59 65  1  0
 60 59  1  0
 61 60  2  0
 62 63  1  0
 62 56  2  0
 63 58  2  0
 64 57  1  0
 65 55  1  0
 67 69  2  0
 68 67  1  0
 70 68  1  0
 71 80  2  0
 71 76  1  0
 72 68  1  0
 72 76  1  0
 73 72  1  0
 74 75  1  0
 74 73  1  0
 75 71  1  0
 76 77  2  0
 77 78  1  0
 79 78  2  0
 80 79  1  0
 81 55  1  0
 81 82  1  0
 81 91  1  0
 82 85  1  0
 83 87  1  0
 83 82  1  0
 84 83  2  0
 87 86  1  0
 89 87  1  0
 89 90  1  0
 89 88  1  0
 91 94  1  1
 91 92  1  0
 93 91  1  0
M  ISO  4   7 100  10 100  53 101  54 101
M  END
>  <TORSDO>  (55) 
F 22

>  <SCORE>  (55) 
-11.235

>  <name>  (55) 
54

>  <ligand_id>  (55) 
54

>  <original_smiles>  (55) 
[H]c1c([H])c([H])c2c(c1[H])C([H])([H])C([H])([H])C([H])([H])C2([H])N([H])C(=O)C1([H])N(C(=O)C([H])(N([H])C(=O)C([H])(N([H])C([H])([H])[H])C([H])([H])[H])C(C([H])([H])[H])(C([H])([H])[H])C([H])([H])[H])C([H])([H])c2c([H])c(OC([H])([H])C([H])([H])C([H])([H])C([H])([H])N([H])C(=O)C3([H])C([H])([H])C([H])([N+]([H])([H])[H])C([H])([H])C3([H])C(=O)N3C([H])([H])C([H])([H])C([H])([H])C([H])(n4nc(-c5c([H])c([H])c(Oc6c([H])c([H])c(F)c([H])c6F)c([H])c5[H])c(C(=O)N([H])[H])c4N([H])[H])C3([H])[H])c([H])c([H])c2C1([H])[H]

>  <smiles>  (55) 
[H]c1c([H])c([H])c2c(c1[H])C([H])([H])C([H])([H])C([H])([H])C2([H])N([H])C(=O)C1([H])N(C(=O)C([H])(N([H])C(=O)C([H])(N([H])C([H])([H])[H])C([H])([H])[H])C(C([H])([H])[H])(C([H])([H])[H])C([H])([H])[H])C([H])([H])c2c([H])c(OC([H])([H])C([H])([H])C([H])([H])C([H])([H])N([H])C(=O)C3([H])C([H])([H])C([H])([N+]([H])([H])[H])C([H])([H])C3([H])C(=O)N3C([H])([H])C([H])([H])C([H])([H])C([H])(n4nc(-c5c([H])c([H])c(Oc6c([H])c([H])c(F)c([H])c6F)c([H])c5[H])c(C(=O)N([H])[H])c4N([H])[H])C3([H])[H])c([H])c([H])c2C1([H])[H]

$$$$
55:0:0
     RDKit          3D

 96105  0  0  1  0  0  0  0  0999 V2000
  -24.4990  -23.2000   19.9300 C   0  0  0  0  0  2  0  0  0  0  0  0
  -24.8570  -21.8160   20.4810 C   0  0  0  0  0  2  0  0  0  0  0  0
  -27.0640  -23.7130   18.9350 C   0  0  0  0  0  3  0  0  0  0  0  0
  -26.0020  -23.5900   20.0640 C   0  0  0  0  0  3  0  0  0  0  0  0
  -26.3210  -22.0810   20.1090 C   0  0  0  0  0  3  0  0  0  0  0  0
  -26.8010  -22.2200   18.6550 C   0  0  0  0  0  3  0  0  0  0  0  0
  -26.7100  -24.6520   17.7680 C   0  0  0  0  0  0  0  0  0  0  0  0
  -27.4670  -25.7430   17.5760 N   0  0  0  0  0  0  0  0  0  0  0  0
  -25.8080  -24.3440   16.9830 O   0  0  0  0  0  0  0  0  0  0  0  0
  -28.1730  -25.9800   18.2600 H   0  0  0  0  0  0  0  0  0  0  0  0
  -27.4020  -26.5180   16.3360 C   0  0  0  0  0  2  0  0  0  0  0  0
  -27.8470  -27.9930   16.4480 C   0  0  0  0  0  2  0  0  0  0  0  0
  -27.7150  -28.7100   17.6820 O   0  0  0  0  0  0  0  0  0  0  0  0
  -24.4010  -31.6220   23.2180 C   0  0  0  0  0  0  0  0  0  0  0  0
  -26.4820  -29.0960   18.1680 C   0  0  0  0  0  0  0  0  0  0  0  0
  -22.9460  -30.4560   21.6000 C   0  0  0  0  0  3  0  0  0  0  0  0
  -24.0280  -29.8380   19.3750 C   0  0  0  0  0  0  0  0  0  0  0  0
  -25.1420  -31.5260   20.8450 C   0  0  0  0  0  2  0  0  0  0  0  0
  -25.2160  -30.4640   19.7650 C   0  0  0  0  0  0  0  0  0  0  0  0
  -26.4400  -30.0980   19.1660 C   0  0  0  0  0  3  0  0  0  0  0  0
  -25.2700  -28.4780   17.7820 C   0  0  0  0  0  3  0  0  0  0  0  0
  -24.0500  -28.8480   18.3780 C   0  0  0  0  0  3  0  0  0  0  0  0
  -22.7580  -30.2670   20.0710 C   0  0  0  0  0  2  0  0  0  0  0  0
  -24.1960  -31.2120   21.9370 N   0  0  0  0  0  0  0  0  0  0  0  0
  -23.5480  -31.4280   24.0990 O   0  0  0  0  0  0  0  0  0  0  0  0
  -22.8670  -29.0740   22.2860 C   0  0  0  0  0  0  0  0  0  0  0  0
  -21.7200  -28.3950   22.1220 N   0  0  0  0  0  0  0  0  0  0  0  0
  -23.8260  -28.6160   22.9150 O   0  0  0  0  0  0  0  0  0  0  0  0
  -20.9940  -28.8440   21.5900 H   0  0  0  0  0  0  0  0  0  0  0  0
  -19.3940  -25.6390   21.9440 C   0  0  0  0  0  0  0  0  0  0  0  0
  -21.4300  -27.0600   22.6510 C   0  0  0  0  0  3  0  0  0  0  0  0
  -22.2900  -25.9840   21.9450 C   0  0  0  0  0  2  0  0  0  0  0  0
  -21.5960  -25.3610   20.7250 C   0  0  0  0  0  2  0  0  0  0  0  0
  -20.2770  -24.7020   21.1420 C   0  0  0  0  0  2  0  0  0  0  0  0
  -19.9310  -26.7570   22.6360 C   0  0  0  0  0  0  0  0  0  0  0  0
  -19.0510  -27.6150   23.3380 C   0  0  0  0  0  3  0  0  0  0  0  0
  -17.6660  -27.3650   23.3530 C   0  0  0  0  0  3  0  0  0  0  0  0
  -17.1460  -26.2520   22.6630 C   0  0  0  0  0  3  0  0  0  0  0  0
  -18.0090  -25.3890   21.9630 C   0  0  0  0  0  3  0  0  0  0  0  0
  -25.6990  -32.3860   23.6400 C   0  0  0  0  0  3  0  0  0  0  0  0
  -25.2950  -33.7150   24.1200 N   0  0  0  0  0  0  0  0  0  0  0  0
  -25.3990  -34.8460   23.4040 C   0  0  0  0  0  0  0  0  0  0  0  0
  -25.9260  -34.8810   22.2890 O   0  0  0  0  0  0  0  0  0  0  0  0
  -24.8000  -33.7550   25.0000 H   0  0  0  0  0  0  0  0  0  0  0  0
  -23.4720  -36.4590   23.4010 C   0  0  0  0  0  1  0  0  0  0  0  0
  -24.8340  -36.1360   24.0340 C   0  0  0  0  0  3  0  0  0  0  0  0
  -26.9600  -37.1730   24.6960 C   0  0  0  0  0  1  0  0  0  0  0  0
  -25.7390  -37.2980   23.9010 N   0  0  0  0  0  0  0  0  0  0  0  0
  -25.2650  -38.1570   24.1670 H   0  0  0  0  0  0  0  0  0  0  0  0
  -26.5470  -31.6320   24.7380 C   0  0  1  0  0  0  0  0  0  0  0  0
  -25.7190  -31.1930   25.9670 C   0  0  0  0  0  1  0  0  0  0  0  0
  -27.2010  -30.3670   24.1360 C   0  0  0  0  0  1  0  0  0  0  0  0
  -27.6980  -32.5410   25.2310 C   0  0  0  0  0  1  0  0  0  0  0  0
  -27.9030  -21.3270   18.2260 N   0  0  0  0  0  4  0  0  0  0  0  0
  -27.8710  -21.3030   17.2200 H   0  0  0  0  0  0  0  0  0  0  0  0
  -27.6640  -20.4020   18.5380 H   0  0  0  0  0  0  0  0  0  0  0  0
  -29.3200  -21.5570   18.6030 C   0  0  0  0  0  2  0  0  0  0  0  0
  -29.8840  -20.1500   18.8590 C   0  0  0  0  0  2  0  0  0  0  0  0
  -31.2950  -19.8370   19.4490 C   0  0  0  0  0  2  0  0  0  0  0  0
  -31.1970  -18.3140   19.6800 C   0  0  0  0  0  2  0  0  0  0  0  0
  -32.2540  -17.4040   20.3400 C   0  0  0  0  0  0  0  0  0  0  0  0
  -32.4380  -14.9510   20.2130 C   0  0  0  0  0  2  0  0  0  0  0  0
  -31.7500  -14.5410   18.8830 C   0  0  0  0  0  2  0  0  0  0  0  0
  -30.2280  -14.3510   19.0720 C   0  0  0  0  0  2  0  0  0  0  0  0
  -29.5780  -15.5600   19.7860 C   0  0  0  0  0  3  0  0  0  0  0  0
  -30.3870  -15.8930   21.0720 C   0  0  0  0  0  2  0  0  0  0  0  0
  -31.7870  -16.1750   20.6980 N   0  0  0  0  0  0  0  0  0  0  0  0
  -33.4490  -17.6590   20.1760 O   0  0  0  0  0  0  0  0  0  0  0  0
  -27.1260  -16.2850   20.1570 C   0  0  0  0  0  0  0  0  0  0  0  0
  -25.9940  -15.5590   20.3890 C   0  0  0  0  0  0  0  0  0  0  0  0
  -26.4090  -14.1890   20.4230 C   0  0  0  0  0  0  0  0  0  0  0  0
  -28.1610  -15.3610   20.0740 N   0  0  0  0  0  0  0  0  0  0  0  0
  -27.7240  -14.1000   20.2910 N   0  0  0  0  0  0  0  0  0  0  0  0
  -25.6300  -12.9520   20.5110 C   0  0  0  0  0  0  0  0  0  0  0  0
  -25.8140  -12.0410   21.5740 C   0  0  0  0  0  3  0  0  0  0  0  0
  -25.0440  -10.8610   21.6430 C   0  0  0  0  0  3  0  0  0  0  0  0
  -24.0740  -10.5880   20.6490 C   0  0  0  0  0  0  0  0  0  0  0  0
  -23.9130  -11.4880   19.5810 C   0  0  0  0  0  3  0  0  0  0  0  0
  -24.6830  -12.6590   19.5090 C   0  0  0  0  0  3  0  0  0  0  0  0
  -23.2980   -9.4540   20.6210 O   0  0  0  0  0  0  0  0  0  0  0  0
  -22.8170   -8.8840   21.7730 C   0  0  0  0  0  0  0  0  0  0  0  0
  -21.9950   -9.6020   22.6710 C   0  0  0  0  0  3  0  0  0  0  0  0
  -21.4660   -8.9560   23.8070 C   0  0  0  0  0  3  0  0  0  0  0  0
  -21.7470   -7.5980   24.0410 C   0  0  0  0  0  0  0  0  0  0  0  0
  -22.5590   -6.8810   23.1430 C   0  0  0  0  0  3  0  0  0  0  0  0
  -23.0900   -7.5240   22.0120 C   0  0  0  0  0  0  0  0  0  0  0  0
  -23.8570   -6.8250   21.1410 F   0  0  0  0  0  0  0  0  0  0  0  0
  -21.2320   -6.9760   25.1270 F   0  0  0  0  0  0  0  0  0  0  0  0
  -24.5850  -16.0770   20.4590 C   0  0  0  0  0  0  0  0  0  0  0  0
  -23.7190  -15.4120   21.2110 N   0  0  0  0  0  0  0  0  0  0  0  0
  -24.2570  -17.1090   19.8690 O   0  0  0  0  0  0  0  0  0  0  0  0
  -23.9880  -14.5700   21.6980 H   0  0  0  0  0  0  0  0  0  0  0  0
  -22.7700  -15.7450   21.3010 H   0  0  0  0  0  0  0  0  0  0  0  0
  -27.3650  -17.6470   19.9790 N   0  0  0  0  0  0  0  0  0  0  0  0
  -26.5440  -18.1980   19.7640 H   0  0  0  0  0  0  0  0  0  0  0  0
  -28.1470  -17.8850   19.3850 H   0  0  0  0  0  0  0  0  0  0  0  0
  1  2  1  0
  3  7  1  0
  3  4  1  0
  4  1  1  0
  4  5  1  0
  5  2  1  0
  6 54  1  0
  6  3  1  0
  6  5  1  0
  8  7  1  0
  8 10  1  0
  9  7  2  0
 11 12  1  0
 11  8  1  0
 12 13  1  0
 13 15  1  0
 14 25  2  0
 15 20  1  0
 16 24  1  0
 16 26  1  0
 17 19  1  0
 17 23  1  0
 18 24  1  0
 19 18  1  0
 20 19  2  0
 21 15  2  0
 21 22  1  0
 22 17  2  0
 23 16  1  0
 24 14  1  0
 26 28  2  0
 27 26  1  0
 29 27  1  0
 30 39  2  0
 30 35  1  0
 31 27  1  0
 32 31  1  0
 33 34  1  0
 33 32  1  0
 34 30  1  0
 35 31  1  0
 35 36  2  0
 36 37  1  0
 38 37  2  0
 39 38  1  0
 40 14  1  0
 40 41  1  0
 40 50  1  0
 41 44  1  0
 42 46  1  0
 42 41  1  0
 43 42  2  0
 46 45  1  0
 48 46  1  0
 48 49  1  0
 48 47  1  0
 50 53  1  1
 50 51  1  0
 52 50  1  0
 54 56  1  0
 54 57  1  0
 55 54  1  0
 57 58  1  0
 58 59  1  0
 59 60  1  0
 60 61  1  0
 61 67  1  0
 62 67  1  0
 63 64  1  0
 63 62  1  0
 65 64  1  0
 65 72  1  0
 65 66  1  0
 67 66  1  0
 68 61  2  0
 69 70  2  0
 70 71  1  0
 70 89  1  0
 71 74  1  0
 72 69  1  0
 72 73  1  0
 73 71  2  0
 74 75  1  0
 75 76  2  0
 77 76  1  0
 78 77  2  0
 79 78  1  0
 79 74  2  0
 80 77  1  0
 80 81  1  0
 81 86  2  0
 81 82  1  0
 82 83  2  0
 83 84  1  0
 84 88  1  0
 85 84  2  0
 86 85  1  0
 87 86  1  0
 89 90  1  0
 90 93  1  0
 90 92  1  0
 91 89  2  0
 94 69  1  0
 95 94  1  0
 96 94  1  0
M  ISO  4  12 101  13 101  60 100  61 100
M  END
>  <TORSDO>  (56) 
F 24

>  <SCORE>  (56) 
-0.449

>  <name>  (56) 
55

>  <ligand_id>  (56) 
55

>  <original_smiles>  (56) 
[H]c1c([H])c([H])c2c(c1[H])C([H])([H])C([H])([H])C([H])([H])C2([H])N([H])C(=O)C1([H])N(C(=O)C([H])(N([H])C(=O)C([H])(N([H])C([H])([H])[H])C([H])([H])[H])C(C([H])([H])[H])(C([H])([H])[H])C([H])([H])[H])C([H])([H])c2c([H])c(OC([H])([H])C([H])([H])N([H])C(=O)C3([H])C4([H])C([H])([H])C([H])([H])C4([H])C3([H])[N+]([H])([H])C([H])([H])C([H])([H])C([H])([H])C([H])([H])C(=O)N3C([H])([H])C([H])([H])C([H])([H])C([H])(n4nc(-c5c([H])c([H])c(Oc6c([H])c([H])c(F)c([H])c6F)c([H])c5[H])c(C(=O)N([H])[H])c4N([H])[H])C3([H])[H])c([H])c([H])c2C1([H])[H]

>  <smiles>  (56) 
[H]c1c([H])c([H])c2c(c1[H])C([H])([H])C([H])([H])C([H])([H])C2([H])N([H])C(=O)C1([H])N(C(=O)C([H])(N([H])C(=O)C([H])(N([H])C([H])([H])[H])C([H])([H])[H])C(C([H])([H])[H])(C([H])([H])[H])C([H])([H])[H])C([H])([H])c2c([H])c(OC([H])([H])C([H])([H])N([H])C(=O)C3([H])C4([H])C([H])([H])C([H])([H])C4([H])C3([H])[N+]([H])([H])C([H])([H])C([H])([H])C([H])([H])C([H])([H])C(=O)N3C([H])([H])C([H])([H])C([H])([H])C([H])(n4nc(-c5c([H])c([H])c(Oc6c([H])c([H])c(F)c([H])c6F)c([H])c5[H])c(C(=O)N([H])[H])c4N([H])[H])C3([H])[H])c([H])c([H])c2C1([H])[H]

$$$$
56:0:0
     RDKit          3D

 89 97  0  0  1  0  0  0  0  0999 V2000
  -29.4080  -21.2050   18.8970 C   0  0  0  0  0  2  0  0  0  0  0  0
  -28.7550  -21.9560   21.0160 C   0  0  0  0  0  2  0  0  0  0  0  0
  -28.8780  -22.6990   18.8210 C   0  0  0  0  0  3  0  0  0  0  0  0
  -28.9900  -23.3750   20.2250 C   0  0  2  0  0  0  0  0  0  0  0  0
  -29.4820  -23.5040   17.6570 C   0  0  0  0  0  1  0  0  0  0  0  0
  -30.4270  -23.8520   20.5220 C   0  0  0  0  0  1  0  0  0  0  0  0
  -29.4460  -20.7590   20.3160 N   0  0  1  0  0  4  0  0  0  0  0  0
  -30.4130  -20.8460   20.5900 H   0  0  0  0  0  0  0  0  0  0  0  0
  -27.9890  -24.7100   20.4810 C   0  0  0  0  0  2  0  0  0  0  0  0
  -28.2600  -26.2180   20.2040 O   0  0  0  0  0  0  0  0  0  0  0  0
  -24.6260  -31.8820   23.2330 C   0  0  0  0  0  0  0  0  0  0  0  0
  -27.1930  -27.1850   20.1840 C   0  0  0  0  0  0  0  0  0  0  0  0
  -23.4180  -30.4890   21.5970 C   0  0  0  0  0  3  0  0  0  0  0  0
  -24.8600  -28.9180   20.1660 C   0  0  0  0  0  0  0  0  0  0  0  0
  -25.9710  -30.7570   21.4210 C   0  0  0  0  0  2  0  0  0  0  0  0
  -26.0430  -29.3670   20.7690 C   0  0  0  0  0  0  0  0  0  0  0  0
  -27.2100  -28.5170   20.7600 C   0  0  0  0  0  3  0  0  0  0  0  0
  -25.9860  -26.8380   19.5360 C   0  0  0  0  0  3  0  0  0  0  0  0
  -24.8450  -27.6650   19.5340 C   0  0  0  0  0  3  0  0  0  0  0  0
  -23.6330  -29.8140   20.2170 C   0  0  0  0  0  2  0  0  0  0  0  0
  -24.6920  -31.0640   22.1380 N   0  0  0  0  0  0  0  0  0  0  0  0
  -23.5420  -32.1680   23.7650 O   0  0  0  0  0  0  0  0  0  0  0  0
  -22.7430  -29.4810   22.5590 C   0  0  0  0  0  0  0  0  0  0  0  0
  -21.4150  -29.3080   22.4330 N   0  0  0  0  0  0  0  0  0  0  0  0
  -23.4160  -28.8580   23.3830 O   0  0  0  0  0  0  0  0  0  0  0  0
  -20.9280  -29.8630   21.7440 H   0  0  0  0  0  0  0  0  0  0  0  0
  -18.0340  -28.1130   22.9460 C   0  0  0  0  0  0  0  0  0  0  0  0
  -20.5950  -28.3720   23.2050 C   0  0  0  0  0  3  0  0  0  0  0  0
  -20.6930  -26.9400   22.6280 C   0  0  0  0  0  2  0  0  0  0  0  0
  -19.5880  -26.6190   21.6180 C   0  0  0  0  0  2  0  0  0  0  0  0
  -18.2070  -26.7650   22.2660 C   0  0  0  0  0  2  0  0  0  0  0  0
  -19.1560  -28.8750   23.3720 C   0  0  0  0  0  0  0  0  0  0  0  0
  -18.9380  -30.1360   23.9680 C   0  0  0  0  0  3  0  0  0  0  0  0
  -17.6340  -30.6350   24.1420 C   0  0  0  0  0  3  0  0  0  0  0  0
  -16.5280  -29.8710   23.7310 C   0  0  0  0  0  3  0  0  0  0  0  0
  -16.7300  -28.6120   23.1380 C   0  0  0  0  0  3  0  0  0  0  0  0
  -25.9070  -32.5160   23.8550 C   0  0  0  0  0  3  0  0  0  0  0  0
  -26.4260  -31.7400   25.1290 C   0  0  1  0  0  0  0  0  0  0  0  0
  -25.3340  -31.5000   26.1990 C   0  0  0  0  0  1  0  0  0  0  0  0
  -27.0070  -30.3620   24.7360 C   0  0  0  0  0  1  0  0  0  0  0  0
  -27.5790  -32.5310   25.7910 C   0  0  0  0  0  1  0  0  0  0  0  0
  -25.5960  -33.9130   24.1970 N   0  0  0  0  0  0  0  0  0  0  0  0
  -25.9140  -34.9740   23.4430 C   0  0  0  0  0  0  0  0  0  0  0  0
  -26.5700  -34.8790   22.4020 O   0  0  0  0  0  0  0  0  0  0  0  0
  -25.0120  -34.0590   25.0080 H   0  0  0  0  0  0  0  0  0  0  0  0
  -24.1760  -36.7680   23.1350 C   0  0  0  0  0  1  0  0  0  0  0  0
  -25.4330  -36.3580   23.9210 C   0  0  0  0  0  3  0  0  0  0  0  0
  -27.5780  -37.2460   24.7210 C   0  0  0  0  0  1  0  0  0  0  0  0
  -26.4610  -37.4150   23.7960 N   0  0  0  0  0  0  0  0  0  0  0  0
  -26.0550  -38.3340   23.9550 H   0  0  0  0  0  0  0  0  0  0  0  0
  -29.0750  -19.2500   20.6390 C   0  0  0  0  0  3  0  0  0  0  0  0
  -30.0430  -17.9150   20.2950 C   0  0  0  0  0  3  0  0  0  0  0  0
  -29.6610  -16.3330   20.7260 C   0  0  0  0  0  2  0  0  0  0  0  0
  -30.5040  -14.9530   20.3670 C   0  0  0  0  0  0  0  0  0  0  0  0
  -30.3990  -12.6210   19.3750 C   0  0  0  0  0  2  0  0  0  0  0  0
  -29.4700  -12.6430   18.1370 C   0  0  0  0  0  2  0  0  0  0  0  0
  -27.9990  -12.4380   18.5520 C   0  0  0  0  0  2  0  0  0  0  0  0
  -27.5980  -13.3280   19.7560 C   0  0  0  0  0  3  0  0  0  0  0  0
  -28.6470  -13.2830   20.8860 C   0  0  0  0  0  2  0  0  0  0  0  0
  -29.9370  -13.6820   20.3110 N   0  0  0  0  0  0  0  0  0  0  0  0
  -31.6880  -15.0510   20.0230 O   0  0  0  0  0  0  0  0  0  0  0  0
  -25.2070  -13.9060   20.4710 C   0  0  0  0  0  0  0  0  0  0  0  0
  -24.1410  -13.1300   20.8360 C   0  0  0  0  0  0  0  0  0  0  0  0
  -24.6090  -11.7800   20.8160 C   0  0  0  0  0  0  0  0  0  0  0  0
  -26.2550  -13.0300   20.2430 N   0  0  0  0  0  0  0  0  0  0  0  0
  -25.9030  -11.7460   20.5160 N   0  0  0  0  0  0  0  0  0  0  0  0
  -23.8850  -10.5170   21.0070 C   0  0  0  0  0  0  0  0  0  0  0  0
  -24.3060   -9.5580   21.9540 C   0  0  0  0  0  3  0  0  0  0  0  0
  -23.5810   -8.3600   22.1320 C   0  0  0  0  0  3  0  0  0  0  0  0
  -22.4190   -8.1140   21.3620 C   0  0  0  0  0  0  0  0  0  0  0  0
  -22.0170   -9.0610   20.4030 C   0  0  0  0  0  3  0  0  0  0  0  0
  -22.7430  -10.2500   20.2240 C   0  0  0  0  0  3  0  0  0  0  0  0
  -21.6660   -6.9680   21.4470 O   0  0  0  0  0  0  0  0  0  0  0  0
  -21.5960   -6.2380   22.6070 C   0  0  0  0  0  0  0  0  0  0  0  0
  -21.1360   -6.8030   23.8170 C   0  0  0  0  0  3  0  0  0  0  0  0
  -21.0130   -5.9990   24.9670 C   0  0  0  0  0  3  0  0  0  0  0  0
  -21.3420   -4.6320   24.9110 C   0  0  0  0  0  0  0  0  0  0  0  0
  -21.7950   -4.0660   23.7060 C   0  0  0  0  0  3  0  0  0  0  0  0
  -21.9190   -4.8660   22.5570 C   0  0  0  0  0  0  0  0  0  0  0  0
  -22.3370   -4.3120   21.3940 F   0  0  0  0  0  0  0  0  0  0  0  0
  -21.2160   -3.8580   26.0140 F   0  0  0  0  0  0  0  0  0  0  0  0
  -22.7400  -13.6040   21.0900 C   0  0  0  0  0  0  0  0  0  0  0  0
  -22.0050  -12.9100   21.9510 N   0  0  0  0  0  0  0  0  0  0  0  0
  -22.3050  -14.6270   20.5620 O   0  0  0  0  0  0  0  0  0  0  0  0
  -22.3700  -12.0830   22.3990 H   0  0  0  0  0  0  0  0  0  0  0  0
  -21.0650  -13.2090   22.1660 H   0  0  0  0  0  0  0  0  0  0  0  0
  -25.3690  -15.2770   20.2890 N   0  0  0  0  0  0  0  0  0  0  0  0
  -24.6020  -15.9310   20.3940 H   0  0  0  0  0  0  0  0  0  0  0  0
  -26.2220  -15.7140   19.9650 H   0  0  0  0  0  0  0  0  0  0  0  0
  1  7  1  0
  3  5  1  0
  3  1  1  0
  3  4  1  0
  4  9  1  0
  4  6  1  6
  4  2  1  0
  7  8  1  1
  7 51  1  0
  7  2  1  0
 10  9  1  0
 11 22  2  0
 12 10  1  0
 12 17  1  0
 13 21  1  0
 13 23  1  0
 14 20  1  0
 14 16  1  0
 15 21  1  0
 16 15  1  0
 17 16  2  0
 18 12  2  0
 19 18  1  0
 19 14  2  0
 20 13  1  0
 21 11  1  0
 23 25  2  0
 24 23  1  0
 26 24  1  0
 27 36  2  0
 27 32  1  0
 28 24  1  0
 28 32  1  0
 29 28  1  0
 30 31  1  0
 30 29  1  0
 31 27  1  0
 32 33  2  0
 33 34  1  0
 35 34  2  0
 36 35  1  0
 37 11  1  0
 37 42  1  0
 37 38  1  0
 38 41  1  1
 38 39  1  0
 40 38  1  0
 42 45  1  0
 43 47  1  0
 43 42  1  0
 44 43  2  0
 47 46  1  0
 49 47  1  0
 49 50  1  0
 49 48  1  0
 52 51  2  0
 52 53  1  0
 54 53  1  0
 55 60  1  0
 56 57  1  0
 56 55  1  0
 58 57  1  0
 58 65  1  0
 58 59  1  0
 60 54  1  0
 60 59  1  0
 61 54  2  0
 62 63  2  0
 63 82  1  0
 64 63  1  0
 64 67  1  0
 65 62  1  0
 65 66  1  0
 66 64  2  0
 67 68  1  0
 68 69  2  0
 70 73  1  0
 70 69  1  0
 71 70  2  0
 72 71  1  0
 72 67  2  0
 73 74  1  0
 74 75  1  0
 75 76  2  0
 77 76  1  0
 77 81  1  0
 78 77  2  0
 79 74  2  0
 79 78  1  0
 80 79  1  0
 82 83  1  0
 83 86  1  0
 83 85  1  0
 84 82  2  0
 87 88  1  0
 87 62  1  0
 89 87  1  0
M  ISO  4   9 101  10 101  53 100  54 100
M  END
>  <TORSDO>  (57) 
F 20

>  <SCORE>  (57) 
-13.718

>  <name>  (57) 
56

>  <ligand_id>  (57) 
56

>  <original_smiles>  (57) 
[H]c1c([H])c([H])c2c(c1[H])C([H])([H])C([H])([H])C([H])([H])C2([H])N([H])C(=O)C1([H])N(C(=O)C([H])(N([H])C(=O)C([H])(N([H])C([H])([H])[H])C([H])([H])[H])C(C([H])([H])[H])(C([H])([H])[H])C([H])([H])[H])C([H])([H])c2c([H])c(OC([H])([H])C3(C([H])([H])[H])C([H])(C([H])([H])[H])C([H])([H])[N+]([H])(C([H])([H])C([H])([H])C([H])([H])C(=O)N4C([H])([H])C([H])([H])C([H])([H])C([H])(n5nc(-c6c([H])c([H])c(Oc7c([H])c([H])c(F)c([H])c7F)c([H])c6[H])c(C(=O)N([H])[H])c5N([H])[H])C4([H])[H])C3([H])[H])c([H])c([H])c2C1([H])[H]

>  <smiles>  (57) 
[H]c1c([H])c([H])c2c(c1[H])C([H])([H])C([H])([H])C([H])([H])C2([H])N([H])C(=O)C1([H])N(C(=O)C([H])(N([H])C(=O)C([H])(N([H])C([H])([H])[H])C([H])([H])[H])C(C([H])([H])[H])(C([H])([H])[H])C([H])([H])[H])C([H])([H])c2c([H])c(OC([H])([H])C3(C([H])([H])[H])C([H])(C([H])([H])[H])C([H])([H])[N+]([H])(C([H])([H])C([H])([H])C([H])([H])C(=O)N4C([H])([H])C([H])([H])C([H])([H])C([H])(n5nc(-c6c([H])c([H])c(Oc7c([H])c([H])c(F)c([H])c7F)c([H])c6[H])c(C(=O)N([H])[H])c5N([H])[H])C4([H])[H])C3([H])[H])c([H])c([H])c2C1([H])[H]

$$$$
57:0:0
     RDKit          3D

 96105  0  0  1  0  0  0  0  0999 V2000
  -30.0000  -21.8920   21.3750 C   0  0  0  0  0  3  0  0  0  0  0  0
  -28.5360  -19.0020   17.9240 C   0  0  0  0  0  2  0  0  0  0  0  0
  -30.2910  -20.5580   19.0760 C   0  0  0  0  0  2  0  0  0  0  0  0
  -30.3270  -17.3570   18.8620 C   0  0  0  0  0  2  0  0  0  0  0  0
  -28.9360  -19.8400   19.1360 C   0  0  0  0  0  3  0  0  0  0  0  0
  -29.3910  -19.1930   20.4700 C   0  0  0  0  0  3  0  0  0  0  0  0
  -29.2630  -17.6440   17.7790 C   0  0  0  0  0  3  0  0  0  0  0  0
  -30.3280  -20.5000   20.6020 C   0  0  0  0  0  3  0  0  0  0  0  0
  -29.7790  -17.6360   20.2810 C   0  0  0  0  0  3  0  0  0  0  0  0
  -29.8140  -17.4250   16.3630 C   0  0  0  0  0  1  0  0  0  0  0  0
  -30.4220  -16.7430   21.4400 C   0  0  0  0  0  2  0  0  0  0  0  0
  -31.1530  -15.3760   21.0730 C   0  0  0  0  0  0  0  0  0  0  0  0
  -31.0610  -13.0890   20.0940 C   0  0  0  0  0  2  0  0  0  0  0  0
  -30.2350  -13.0960   18.7900 C   0  0  0  0  0  2  0  0  0  0  0  0
  -28.7300  -12.9370   19.0850 C   0  0  0  0  0  2  0  0  0  0  0  0
  -28.2360  -13.8490   20.2390 C   0  0  0  0  0  3  0  0  0  0  0  0
  -29.1900  -13.8150   21.4510 C   0  0  0  0  0  2  0  0  0  0  0  0
  -30.5380  -14.1530   20.9810 N   0  0  0  0  0  0  0  0  0  0  0  0
  -32.3400  -15.4800   20.7520 O   0  0  0  0  0  0  0  0  0  0  0  0
  -25.7910  -14.3990   20.7930 C   0  0  0  0  0  0  0  0  0  0  0  0
  -24.7090  -13.6030   21.0530 C   0  0  0  0  0  0  0  0  0  0  0  0
  -25.1890  -12.2590   21.0170 C   0  0  0  0  0  0  0  0  0  0  0  0
  -26.8600  -13.5380   20.6150 N   0  0  0  0  0  0  0  0  0  0  0  0
  -26.5010  -12.2430   20.8130 N   0  0  0  0  0  0  0  0  0  0  0  0
  -24.4670  -10.9830   21.1070 C   0  0  0  0  0  0  0  0  0  0  0  0
  -24.8100  -10.0080   22.0700 C   0  0  0  0  0  3  0  0  0  0  0  0
  -24.0890   -8.7980   22.1520 C   0  0  0  0  0  3  0  0  0  0  0  0
  -23.0090   -8.5550   21.2710 C   0  0  0  0  0  0  0  0  0  0  0  0
  -22.6860   -9.5190   20.2990 C   0  0  0  0  0  3  0  0  0  0  0  0
  -23.4080  -10.7210   20.2150 C   0  0  0  0  0  3  0  0  0  0  0  0
  -22.2660   -7.3990   21.2600 O   0  0  0  0  0  0  0  0  0  0  0  0
  -22.0030   -6.7020   22.4130 C   0  0  0  0  0  0  0  0  0  0  0  0
  -21.3090   -7.2860   23.4940 C   0  0  0  0  0  3  0  0  0  0  0  0
  -20.9980   -6.5140   24.6320 C   0  0  0  0  0  3  0  0  0  0  0  0
  -21.3720   -5.1570   24.6840 C   0  0  0  0  0  0  0  0  0  0  0  0
  -22.0570   -4.5720   23.6050 C   0  0  0  0  0  3  0  0  0  0  0  0
  -22.3700   -5.3420   22.4720 C   0  0  0  0  0  0  0  0  0  0  0  0
  -23.0130   -4.7680   21.4250 F   0  0  0  0  0  0  0  0  0  0  0  0
  -21.0670   -4.4120   25.7720 F   0  0  0  0  0  0  0  0  0  0  0  0
  -23.2890  -14.0570   21.2300 C   0  0  0  0  0  0  0  0  0  0  0  0
  -22.5090  -13.3330   22.0250 N   0  0  0  0  0  0  0  0  0  0  0  0
  -22.8740  -15.0860   20.6960 O   0  0  0  0  0  0  0  0  0  0  0  0
  -22.8570  -12.5000   22.4780 H   0  0  0  0  0  0  0  0  0  0  0  0
  -21.5530  -13.6170   22.1880 H   0  0  0  0  0  0  0  0  0  0  0  0
  -25.9500  -15.7770   20.6730 N   0  0  0  0  0  0  0  0  0  0  0  0
  -25.1650  -16.4160   20.7360 H   0  0  0  0  0  0  0  0  0  0  0  0
  -26.8200  -16.2400   20.4530 H   0  0  0  0  0  0  0  0  0  0  0  0
  -30.5520  -21.5030   23.7690 C   0  0  0  0  0  1  0  0  0  0  0  0
  -29.5010  -21.6420   22.7420 N   0  0  0  0  0  4  0  0  0  0  0  0
  -28.9070  -22.4140   23.0060 H   0  0  0  0  0  0  0  0  0  0  0  0
  -28.9180  -20.8230   22.7310 H   0  0  0  0  0  0  0  0  0  0  0  0
  -29.0540  -23.0320   20.7480 C   0  0  0  0  0  0  0  0  0  0  0  0
  -27.9340  -22.7680   20.3050 O   0  0  0  0  0  0  0  0  0  0  0  0
  -29.4880  -24.5560   20.7660 C   0  0  0  0  0  3  0  0  0  0  0  0
  -28.4070  -25.6160   20.2770 C   0  0  0  0  0  3  0  0  0  0  0  0
  -28.6520  -27.0790   20.3580 O   0  0  0  0  0  0  0  0  0  0  0  0
  -24.7290  -32.0750   23.7970 C   0  0  0  0  0  0  0  0  0  0  0  0
  -27.5210  -27.9160   20.3560 C   0  0  0  0  0  0  0  0  0  0  0  0
  -23.5980  -30.8110   22.0080 C   0  0  0  0  0  3  0  0  0  0  0  0
  -25.1160  -29.4660   20.4570 C   0  0  0  0  0  0  0  0  0  0  0  0
  -26.1330  -31.2150   21.9120 C   0  0  0  0  0  2  0  0  0  0  0  0
  -26.2610  -29.9160   21.1270 C   0  0  0  0  0  0  0  0  0  0  0  0
  -27.4680  -29.1540   21.0700 C   0  0  0  0  0  3  0  0  0  0  0  0
  -26.3500  -27.5290   19.6590 C   0  0  0  0  0  3  0  0  0  0  0  0
  -25.1640  -28.2770   19.7150 C   0  0  0  0  0  3  0  0  0  0  0  0
  -23.8510  -30.2930   20.5690 C   0  0  0  0  0  2  0  0  0  0  0  0
  -24.8370  -31.3780   22.6290 N   0  0  0  0  0  0  0  0  0  0  0  0
  -23.6280  -32.2690   24.3340 O   0  0  0  0  0  0  0  0  0  0  0  0
  -22.9560  -29.6780   22.8460 C   0  0  0  0  0  0  0  0  0  0  0  0
  -21.6570  -29.4230   22.6160 N   0  0  0  0  0  0  0  0  0  0  0  0
  -23.6250  -29.0410   23.6620 O   0  0  0  0  0  0  0  0  0  0  0  0
  -21.1760  -29.9950   21.9360 H   0  0  0  0  0  0  0  0  0  0  0  0
  -18.3450  -27.9780   22.8030 C   0  0  0  0  0  0  0  0  0  0  0  0
  -20.8580  -28.3830   23.2640 C   0  0  0  0  0  3  0  0  0  0  0  0
  -21.0960  -27.0050   22.6020 C   0  0  0  0  0  2  0  0  0  0  0  0
  -20.0860  -26.6850   21.4960 C   0  0  0  0  0  2  0  0  0  0  0  0
  -18.6570  -26.6950   22.0510 C   0  0  0  0  0  2  0  0  0  0  0  0
  -19.3790  -28.7790   23.3570 C   0  0  0  0  0  0  0  0  0  0  0  0
  -19.0380  -29.9800   24.0160 C   0  0  0  0  0  3  0  0  0  0  0  0
  -17.6940  -30.3810   24.1270 C   0  0  0  0  0  3  0  0  0  0  0  0
  -16.6720  -29.5780   23.5890 C   0  0  0  0  0  3  0  0  0  0  0  0
  -16.9990  -28.3780   22.9320 C   0  0  0  0  0  3  0  0  0  0  0  0
  -25.9800  -32.6780   24.5020 C   0  0  0  0  0  3  0  0  0  0  0  0
  -25.6640  -34.0700   24.8520 N   0  0  0  0  0  0  0  0  0  0  0  0
  -26.0740  -35.1410   24.1600 C   0  0  0  0  0  0  0  0  0  0  0  0
  -26.8290  -35.0600   23.1880 O   0  0  0  0  0  0  0  0  0  0  0  0
  -25.0010  -34.2080   25.6020 H   0  0  0  0  0  0  0  0  0  0  0  0
  -24.4180  -36.9790   23.7090 C   0  0  0  0  0  1  0  0  0  0  0  0
  -25.5670  -36.5220   24.6200 C   0  0  0  0  0  3  0  0  0  0  0  0
  -27.6270  -37.3300   25.6840 C   0  0  0  0  0  1  0  0  0  0  0  0
  -26.6250  -37.5570   24.6450 N   0  0  0  0  0  0  0  0  0  0  0  0
  -26.2240  -38.4810   24.7870 H   0  0  0  0  0  0  0  0  0  0  0  0
  -26.4220  -31.8690   25.7850 C   0  0  1  0  0  0  0  0  0  0  0  0
  -25.2490  -31.5230   26.7340 C   0  0  0  0  0  1  0  0  0  0  0  0
  -27.1110  -30.5430   25.3870 C   0  0  0  0  0  1  0  0  0  0  0  0
  -27.4680  -32.6840   26.5810 C   0  0  0  0  0  1  0  0  0  0  0  0
  1 52  1  0
  1 49  1  0
  3  5  1  0
  3  8  1  0
  4  9  1  0
  5  2  1  0
  5  6  1  0
  6  8  1  0
  7  2  1  0
  7  4  1  0
  8  1  1  0
  9  6  1  0
  9 11  1  0
 10  7  1  0
 12 11  1  0
 13 18  1  0
 14 15  1  0
 14 13  1  0
 15 16  1  0
 16 23  1  0
 16 17  1  0
 18 12  1  0
 18 17  1  0
 19 12  2  0
 20 21  2  0
 21 40  1  0
 22 21  1  0
 22 25  1  0
 23 20  1  0
 23 24  1  0
 24 22  2  0
 25 26  1  0
 26 27  2  0
 28 27  1  0
 29 28  2  0
 30 29  1  0
 30 25  2  0
 31 28  1  0
 31 32  1  0
 32 37  2  0
 32 33  1  0
 33 34  2  0
 34 35  1  0
 35 39  1  0
 36 35  2  0
 37 36  1  0
 38 37  1  0
 40 41  1  0
 41 44  1  0
 41 43  1  0
 42 40  2  0
 45 46  1  0
 45 20  1  0
 47 45  1  0
 49 50  1  0
 49 48  1  0
 51 49  1  0
 52 54  1  0
 53 52  2  0
 55 56  1  0
 55 54  2  0
 57 68  2  0
 57 83  1  0
 58 56  1  0
 58 63  1  0
 59 67  1  0
 59 69  1  0
 60 66  1  0
 60 62  1  0
 61 67  1  0
 62 61  1  0
 63 62  2  0
 64 65  1  0
 64 58  2  0
 65 60  2  0
 66 59  1  0
 67 57  1  0
 69 71  2  0
 70 69  1  0
 70 74  1  0
 72 70  1  0
 73 82  2  0
 73 78  1  0
 74 78  1  0
 75 74  1  0
 76 77  1  0
 76 75  1  0
 77 73  1  0
 78 79  2  0
 79 80  1  0
 81 80  2  0
 82 81  1  0
 83 84  1  0
 83 93  1  0
 84 87  1  0
 85 89  1  0
 85 84  1  0
 86 85  2  0
 88 89  1  0
 89 91  1  0
 91 92  1  0
 91 90  1  0
 93 96  1  1
 93 94  1  0
 95 93  1  0
M  ISO  4  11 100  12 100  55 101  56 101
M  END
>  <TORSDO>  (58) 
F 22

>  <SCORE>  (58) 
-10.670

>  <name>  (58) 
57

>  <ligand_id>  (58) 
57

>  <original_smiles>  (58) 
[H]c1c([H])c([H])c2c(c1[H])C([H])([H])C([H])([H])C([H])([H])C2([H])N([H])C(=O)C1([H])N(C(=O)C([H])(N([H])C(=O)C([H])(N([H])C([H])([H])[H])C([H])([H])[H])C(C([H])([H])[H])(C([H])([H])[H])C([H])([H])[H])C([H])([H])c2c([H])c(OC([H])([H])C([H])([H])C(=O)C([H])(C3([H])C([H])([H])C4([H])C([H])([H])C([H])(C([H])([H])[H])C([H])([H])C([H])(C([H])([H])C(=O)N5C([H])([H])C([H])([H])C([H])([H])C([H])(n6nc(-c7c([H])c([H])c(Oc8c([H])c([H])c(F)c([H])c8F)c([H])c7[H])c(C(=O)N([H])[H])c6N([H])[H])C5([H])[H])C43[H])[N+]([H])([H])C([H])([H])[H])c([H])c([H])c2C1([H])[H]

>  <smiles>  (58) 
[H]c1c([H])c([H])c2c(c1[H])C([H])([H])C([H])([H])C([H])([H])C2([H])N([H])C(=O)C1([H])N(C(=O)C([H])(N([H])C(=O)C([H])(N([H])C([H])([H])[H])C([H])([H])[H])C(C([H])([H])[H])(C([H])([H])[H])C([H])([H])[H])C([H])([H])c2c([H])c(OC([H])([H])C([H])([H])C(=O)C([H])(C3([H])C([H])([H])C4([H])C([H])([H])C([H])(C([H])([H])[H])C([H])([H])C([H])(C([H])([H])C(=O)N5C([H])([H])C([H])([H])C([H])([H])C([H])(n6nc(-c7c([H])c([H])c(Oc8c([H])c([H])c(F)c([H])c8F)c([H])c7[H])c(C(=O)N([H])[H])c6N([H])[H])C5([H])[H])C43[H])[N+]([H])([H])C([H])([H])[H])c([H])c([H])c2C1([H])[H]

$$$$
58:0:0
     RDKit          3D

 94102  0  0  1  0  0  0  0  0999 V2000
  -29.2170  -21.8200   21.7420 N   0  0  0  0  0  4  0  0  0  0  0  0
  -29.7290  -22.3500   22.4270 H   0  0  0  0  0  0  0  0  0  0  0  0
  -28.2980  -21.6460   22.1150 H   0  0  0  0  0  0  0  0  0  0  0  0
  -30.8640  -20.1470   22.6660 C   0  0  0  0  0  2  0  0  0  0  0  0
  -31.8000  -19.1360   21.9870 C   0  0  0  0  0  2  0  0  0  0  0  0
  -30.8100  -20.5140   20.3250 C   0  0  0  0  0  2  0  0  0  0  0  0
  -29.8920  -20.5220   21.5450 C   0  0  0  0  0  3  0  0  0  0  0  0
  -31.7360  -19.4160   20.5540 N   0  0  0  0  0  0  0  0  0  0  0  0
  -32.4400  -19.2110   18.2810 C   0  0  0  0  0  2  0  0  0  0  0  0
  -32.4410  -18.7690   19.5500 C   0  0  0  0  0  0  0  0  0  0  0  0
  -33.2110  -17.5230   19.9490 C   0  0  0  0  0  2  0  0  0  0  0  0
  -32.5190  -16.1970   19.5670 C   0  0  0  0  0  2  0  0  0  0  0  0
  -33.3460  -15.0160   20.1000 C   0  0  0  0  0  2  0  0  0  0  0  0
  -33.2750  -13.7270   19.2740 C   0  0  0  0  0  0  0  0  0  0  0  0
  -32.8460  -11.3220   19.5680 C   0  0  0  0  0  2  0  0  0  0  0  0
  -31.8700  -10.6740   18.5770 C   0  0  0  0  0  2  0  0  0  0  0  0
  -30.4230  -10.8440   19.0660 C   0  0  0  0  0  2  0  0  0  0  0  0
  -30.0880  -12.3130   19.4320 C   0  0  0  0  0  3  0  0  0  0  0  0
  -31.1660  -12.9280   20.3570 C   0  0  0  0  0  2  0  0  0  0  0  0
  -32.4870  -12.7330   19.7400 N   0  0  0  0  0  0  0  0  0  0  0  0
  -34.1130  -13.5670   18.3800 O   0  0  0  0  0  0  0  0  0  0  0  0
  -28.0090  -13.5510   20.3130 C   0  0  0  0  0  0  0  0  0  0  0  0
  -26.7900  -13.1000   20.7440 C   0  0  0  0  0  0  0  0  0  0  0  0
  -26.8460  -11.6740   20.6660 C   0  0  0  0  0  0  0  0  0  0  0  0
  -28.7480  -12.4180   20.0070 N   0  0  0  0  0  0  0  0  0  0  0  0
  -28.0530  -11.2830   20.2740 N   0  0  0  0  0  0  0  0  0  0  0  0
  -25.8070  -10.6630   20.8910 C   0  0  0  0  0  0  0  0  0  0  0  0
  -25.9150   -9.7120   21.9290 C   0  0  0  0  0  3  0  0  0  0  0  0
  -24.8950   -8.7590   22.1390 C   0  0  0  0  0  3  0  0  0  0  0  0
  -23.7490   -8.7540   21.3090 C   0  0  0  0  0  0  0  0  0  0  0  0
  -23.6550   -9.6880   20.2620 C   0  0  0  0  0  3  0  0  0  0  0  0
  -24.6740  -10.6320   20.0520 C   0  0  0  0  0  3  0  0  0  0  0  0
  -22.7210   -7.8480   21.4200 O   0  0  0  0  0  0  0  0  0  0  0  0
  -22.2310   -7.4610   22.6420 C   0  0  0  0  0  0  0  0  0  0  0  0
  -21.7400   -8.4000   23.5770 C   0  0  0  0  0  3  0  0  0  0  0  0
  -21.1810   -7.9560   24.7920 C   0  0  0  0  0  3  0  0  0  0  0  0
  -21.1030   -6.5770   25.0690 C   0  0  0  0  0  0  0  0  0  0  0  0
  -21.5870   -5.6430   24.1370 C   0  0  0  0  0  3  0  0  0  0  0  0
  -22.1460   -6.0850   22.9250 C   0  0  0  0  0  0  0  0  0  0  0  0
  -22.5910   -5.1790   22.0210 F   0  0  0  0  0  0  0  0  0  0  0  0
  -20.5600   -6.1500   26.2340 F   0  0  0  0  0  0  0  0  0  0  0  0
  -25.6040  -13.9420   21.1180 C   0  0  0  0  0  0  0  0  0  0  0  0
  -24.8050  -13.4820   22.0740 N   0  0  0  0  0  0  0  0  0  0  0  0
  -25.4090  -15.0400   20.5970 O   0  0  0  0  0  0  0  0  0  0  0  0
  -24.9800  -12.5910   22.5140 H   0  0  0  0  0  0  0  0  0  0  0  0
  -24.0100  -14.0280   22.3700 H   0  0  0  0  0  0  0  0  0  0  0  0
  -28.5420  -14.8240   20.1390 N   0  0  0  0  0  0  0  0  0  0  0  0
  -27.9970  -15.6640   20.3000 H   0  0  0  0  0  0  0  0  0  0  0  0
  -29.4660  -15.0120   19.7740 H   0  0  0  0  0  0  0  0  0  0  0  0
  -29.0730  -22.6190   20.5050 C   0  0  0  0  0  2  0  0  0  0  0  0
  -28.6720  -24.0700   20.8150 C   0  0  0  0  0  2  0  0  0  0  0  0
  -28.7770  -25.0000   19.5980 C   0  0  0  0  0  2  0  0  0  0  0  0
  -28.5630  -26.4770   19.9680 C   0  0  0  0  0  2  0  0  0  0  0  0
  -27.8350  -27.0840   18.9090 O   0  0  0  0  0  0  0  0  0  0  0  0
  -24.9030  -31.4630   23.6850 C   0  0  0  0  0  0  0  0  0  0  0  0
  -26.7410  -27.8010   19.3150 C   0  0  0  0  0  0  0  0  0  0  0  0
  -23.3590  -30.5090   21.9980 C   0  0  0  0  0  3  0  0  0  0  0  0
  -24.4690  -29.2920   20.0520 C   0  0  0  0  0  0  0  0  0  0  0  0
  -25.8320  -30.8470   21.4570 C   0  0  0  0  0  2  0  0  0  0  0  0
  -25.7320  -29.6440   20.5480 C   0  0  0  0  0  0  0  0  0  0  0  0
  -26.8700  -28.8980   20.1880 C   0  0  0  0  0  3  0  0  0  0  0  0
  -25.4670  -27.4470   18.8260 C   0  0  0  0  0  3  0  0  0  0  0  0
  -24.3300  -28.1860   19.1950 C   0  0  0  0  0  3  0  0  0  0  0  0
  -23.3010  -30.1460   20.4890 C   0  0  0  0  0  2  0  0  0  0  0  0
  -24.7250  -30.9410   22.4380 N   0  0  0  0  0  0  0  0  0  0  0  0
  -23.9410  -31.6310   24.4470 O   0  0  0  0  0  0  0  0  0  0  0  0
  -22.8040  -29.3150   22.8090 C   0  0  0  0  0  0  0  0  0  0  0  0
  -21.5520  -28.9290   22.5180 N   0  0  0  0  0  0  0  0  0  0  0  0
  -23.5020  -28.7440   23.6500 O   0  0  0  0  0  0  0  0  0  0  0  0
  -21.0460  -29.4540   21.8180 H   0  0  0  0  0  0  0  0  0  0  0  0
  -18.5950  -26.8770   22.2220 C   0  0  0  0  0  0  0  0  0  0  0  0
  -20.8340  -27.8060   23.1200 C   0  0  0  0  0  3  0  0  0  0  0  0
  -21.4520  -26.4560   22.6900 C   0  0  0  0  0  2  0  0  0  0  0  0
  -20.7770  -25.8520   21.4560 C   0  0  0  0  0  2  0  0  0  0  0  0
  -19.2840  -25.6230   21.7120 C   0  0  0  0  0  2  0  0  0  0  0  0
  -19.3250  -27.9100   22.8700 C   0  0  0  0  0  0  0  0  0  0  0  0
  -18.6410  -29.0700   23.2930 C   0  0  0  0  0  3  0  0  0  0  0  0
  -17.2550  -29.2050   23.0840 C   0  0  0  0  0  3  0  0  0  0  0  0
  -16.5360  -28.1720   22.4600 C   0  0  0  0  0  3  0  0  0  0  0  0
  -17.2050  -27.0110   22.0320 C   0  0  0  0  0  3  0  0  0  0  0  0
  -26.3100  -31.8950   24.2030 C   0  0  0  0  0  3  0  0  0  0  0  0
  -26.9040  -30.9110   25.2840 C   0  0  1  0  0  0  0  0  0  0  0  0
  -25.9100  -30.5620   26.4170 C   0  0  0  0  0  1  0  0  0  0  0  0
  -27.3540  -29.5870   24.6230 C   0  0  0  0  0  1  0  0  0  0  0  0
  -28.1650  -31.5340   25.9290 C   0  0  0  0  0  1  0  0  0  0  0  0
  -26.1840  -33.2520   24.7490 N   0  0  0  0  0  0  0  0  0  0  0  0
  -26.5830  -34.3650   24.1170 C   0  0  0  0  0  0  0  0  0  0  0  0
  -27.1740  -34.3440   23.0340 O   0  0  0  0  0  0  0  0  0  0  0  0
  -25.6620  -33.3490   25.6080 H   0  0  0  0  0  0  0  0  0  0  0  0
  -25.0490  -36.3600   24.1450 C   0  0  0  0  0  1  0  0  0  0  0  0
  -26.2810  -35.7160   24.7970 C   0  0  0  0  0  3  0  0  0  0  0  0
  -28.5480  -36.2430   25.5770 C   0  0  0  0  0  1  0  0  0  0  0  0
  -27.4160  -36.6630   24.7560 N   0  0  0  0  0  0  0  0  0  0  0  0
  -27.1250  -37.5850   25.0700 H   0  0  0  0  0  0  0  0  0  0  0  0
  1  3  1  0
  1  2  1  0
  5  4  1  0
  6  8  1  0
  6  7  1  0
  7  1  1  0
  7  4  1  0
  8  5  1  0
  9 10  2  0
 10 11  1  0
 10  8  1  0
 12 11  1  0
 12 13  1  0
 14 20  1  0
 14 13  1  0
 15 20  1  0
 16 17  1  0
 16 15  1  0
 18 17  1  0
 18 25  1  0
 18 19  1  0
 20 19  1  0
 21 14  2  0
 22 23  2  0
 23 42  1  0
 24 23  1  0
 24 27  1  0
 25 26  1  0
 25 22  1  0
 26 24  2  0
 27 28  1  0
 28 29  2  0
 30 33  1  0
 30 29  1  0
 31 30  2  0
 32 31  1  0
 32 27  2  0
 33 34  1  0
 34 39  2  0
 34 35  1  0
 35 36  2  0
 36 37  1  0
 37 41  1  0
 38 37  2  0
 39 38  1  0
 40 39  1  0
 42 43  1  0
 43 46  1  0
 43 45  1  0
 44 42  2  0
 47 48  1  0
 47 22  1  0
 49 47  1  0
 50 51  1  0
 50  1  1  0
 52 53  1  0
 52 51  1  0
 54 56  1  0
 54 53  1  0
 55 66  2  0
 56 61  1  0
 57 65  1  0
 57 67  1  0
 58 64  1  0
 58 60  1  0
 59 65  1  0
 60 59  1  0
 61 60  2  0
 62 63  1  0
 62 56  2  0
 63 58  2  0
 64 57  1  0
 65 55  1  0
 67 69  2  0
 68 67  1  0
 70 68  1  0
 71 76  1  0
 72 68  1  0
 73 72  1  0
 74 75  1  0
 74 73  1  0
 75 71  1  0
 76 72  1  0
 76 77  2  0
 78 77  1  0
 79 78  2  0
 80 71  2  0
 80 79  1  0
 81 55  1  0
 81 86  1  0
 81 82  1  0
 82 85  1  1
 82 83  1  0
 84 82  1  0
 86 89  1  0
 87 86  1  0
 87 91  1  0
 88 87  2  0
 91 90  1  0
 93 91  1  0
 93 94  1  0
 93 92  1  0
M  ISO  4  13 100  14 100  53 101  54 101
M  END
>  <TORSDO>  (59) 
F 25

>  <SCORE>  (59) 
-7.269

>  <name>  (59) 
58

>  <ligand_id>  (59) 
58

>  <original_smiles>  (59) 
[H]C([H])=C(N1C([H])([H])C([H])([H])C([H])([N+]([H])([H])C([H])([H])C([H])([H])C([H])([H])C([H])([H])Oc2c([H])c([H])c3c(c2[H])C([H])([H])N(C(=O)C([H])(N([H])C(=O)C([H])(N([H])C([H])([H])[H])C([H])([H])[H])C(C([H])([H])[H])(C([H])([H])[H])C([H])([H])[H])C([H])(C(=O)N([H])C2([H])c4c([H])c([H])c([H])c([H])c4C([H])([H])C([H])([H])C2([H])[H])C3([H])[H])C1([H])[H])C([H])([H])C([H])([H])C([H])([H])C(=O)N1C([H])([H])C([H])([H])C([H])([H])C([H])(n2nc(-c3c([H])c([H])c(Oc4c([H])c([H])c(F)c([H])c4F)c([H])c3[H])c(C(=O)N([H])[H])c2N([H])[H])C1([H])[H]

>  <smiles>  (59) 
[H]C([H])=C(N1C([H])([H])C([H])([H])C([H])([N+]([H])([H])C([H])([H])C([H])([H])C([H])([H])C([H])([H])Oc2c([H])c([H])c3c(c2[H])C([H])([H])N(C(=O)C([H])(N([H])C(=O)C([H])(N([H])C([H])([H])[H])C([H])([H])[H])C(C([H])([H])[H])(C([H])([H])[H])C([H])([H])[H])C([H])(C(=O)N([H])C2([H])c4c([H])c([H])c([H])c([H])c4C([H])([H])C([H])([H])C2([H])[H])C3([H])[H])C1([H])[H])C([H])([H])C([H])([H])C([H])([H])C(=O)N1C([H])([H])C([H])([H])C([H])([H])C([H])(n2nc(-c3c([H])c([H])c(Oc4c([H])c([H])c(F)c([H])c4F)c([H])c3[H])c(C(=O)N([H])[H])c2N([H])[H])C1([H])[H]

$$$$
59:0:0
     RDKit          3D

 93103  0  0  1  0  0  0  0  0999 V2000
  -31.1360  -19.8950   20.4510 C   0  0  0  0  0  2  0  0  0  0  0  0
  -30.9960  -18.4590   19.8050 C   0  0  0  0  0  3  0  0  0  0  0  0
  -30.0390  -18.6960   18.6210 C   0  0  0  0  0  3  0  0  0  0  0  0
  -28.7060  -18.8890   19.3060 C   0  0  0  0  0  3  0  0  0  0  0  0
  -30.2590  -17.7630   20.9730 C   0  0  0  0  0  3  0  0  0  0  0  0
  -29.1060  -18.8240   20.8090 C   0  0  0  0  0  3  0  0  0  0  0  0
  -28.8360  -17.9310   18.1110 C   0  0  1  0  0  0  0  0  0  0  0  0
  -28.2500  -18.3690   16.7610 C   0  0  0  0  0  1  0  0  0  0  0  0
  -28.7460  -16.4300   18.2130 C   0  0  0  0  0  1  0  0  0  0  0  0
  -29.8070  -20.1420   21.1100 N   0  0  2  0  0  4  0  0  0  0  0  0
  -29.9640  -20.1440   22.1090 H   0  0  0  0  0  0  0  0  0  0  0  0
  -29.9620  -16.1900   21.2450 C   0  0  0  0  0  2  0  0  0  0  0  0
  -30.8280  -14.9330   20.8040 C   0  0  0  0  0  0  0  0  0  0  0  0
  -30.6760  -12.7140   19.6670 C   0  0  0  0  0  2  0  0  0  0  0  0
  -29.7750  -12.8710   18.4200 C   0  0  0  0  0  2  0  0  0  0  0  0
  -28.2950  -12.6750   18.7900 C   0  0  0  0  0  2  0  0  0  0  0  0
  -27.8760  -13.5110   20.0220 C   0  0  0  0  0  3  0  0  0  0  0  0
  -28.8890  -13.3580   21.1770 C   0  0  0  0  0  2  0  0  0  0  0  0
  -30.2260  -13.7060   20.6680 N   0  0  0  0  0  0  0  0  0  0  0  0
  -32.0060  -15.0920   20.4800 O   0  0  0  0  0  0  0  0  0  0  0  0
  -25.4540  -14.1120   20.6340 C   0  0  0  0  0  0  0  0  0  0  0  0
  -24.3740  -13.3320   20.9370 C   0  0  0  0  0  0  0  0  0  0  0  0
  -24.8450  -11.9810   20.9240 C   0  0  0  0  0  0  0  0  0  0  0  0
  -26.5100  -13.2340   20.4420 N   0  0  0  0  0  0  0  0  0  0  0  0
  -26.1470  -11.9490   20.6820 N   0  0  0  0  0  0  0  0  0  0  0  0
  -24.1210  -10.7130   21.0680 C   0  0  0  0  0  0  0  0  0  0  0  0
  -24.5000   -9.7450   22.0220 C   0  0  0  0  0  3  0  0  0  0  0  0
  -23.7730   -8.5420   22.1490 C   0  0  0  0  0  3  0  0  0  0  0  0
  -22.6560   -8.2990   21.3150 C   0  0  0  0  0  0  0  0  0  0  0  0
  -22.3010   -9.2540   20.3440 C   0  0  0  0  0  3  0  0  0  0  0  0
  -23.0290  -10.4490   20.2180 C   0  0  0  0  0  3  0  0  0  0  0  0
  -21.9120   -7.1440   21.3450 O   0  0  0  0  0  0  0  0  0  0  0  0
  -21.7870   -6.3980   22.4890 C   0  0  0  0  0  0  0  0  0  0  0  0
  -21.2410   -6.9380   23.6730 C   0  0  0  0  0  3  0  0  0  0  0  0
  -21.0620   -6.1210   24.8070 C   0  0  0  0  0  3  0  0  0  0  0  0
  -21.4230   -4.7620   24.7570 C   0  0  0  0  0  0  0  0  0  0  0  0
  -21.9630   -4.2170   23.5780 C   0  0  0  0  0  3  0  0  0  0  0  0
  -22.1370   -5.0320   22.4470 C   0  0  0  0  0  0  0  0  0  0  0  0
  -22.6360   -4.4970   21.3060 F   0  0  0  0  0  0  0  0  0  0  0  0
  -21.2430   -3.9740   25.8420 F   0  0  0  0  0  0  0  0  0  0  0  0
  -22.9600  -13.7950   21.1440 C   0  0  0  0  0  0  0  0  0  0  0  0
  -22.2000  -13.0900   21.9730 N   0  0  0  0  0  0  0  0  0  0  0  0
  -22.5350  -14.8160   20.6030 O   0  0  0  0  0  0  0  0  0  0  0  0
  -22.5570  -12.2550   22.4130 H   0  0  0  0  0  0  0  0  0  0  0  0
  -21.2520  -13.3820   22.1680 H   0  0  0  0  0  0  0  0  0  0  0  0
  -25.6330  -15.4890   20.4800 N   0  0  0  0  0  0  0  0  0  0  0  0
  -24.8770  -16.1640   20.5430 H   0  0  0  0  0  0  0  0  0  0  0  0
  -26.5050  -15.9060   20.1820 H   0  0  0  0  0  0  0  0  0  0  0  0
  -29.0700  -21.4520   20.7820 C   0  0  0  0  0  3  0  0  0  0  0  0
  -29.5650  -22.8260   21.4410 C   0  0  0  0  0  3  0  0  0  0  0  0
  -28.6440  -24.1580   21.4140 C   0  0  0  0  0  2  0  0  0  0  0  0
  -28.8750  -25.3580   20.3780 C   0  0  0  0  0  2  0  0  0  0  0  0
  -28.6740  -26.7770   20.7740 O   0  0  0  0  0  0  0  0  0  0  0  0
  -24.5760  -32.0870   23.3690 C   0  0  0  0  0  0  0  0  0  0  0  0
  -27.4910  -27.5190   20.6130 C   0  0  0  0  0  0  0  0  0  0  0  0
  -23.4950  -30.5890   21.7280 C   0  0  0  0  0  3  0  0  0  0  0  0
  -25.0640  -29.0320   20.4310 C   0  0  0  0  0  0  0  0  0  0  0  0
  -26.0200  -30.9970   21.6340 C   0  0  0  0  0  2  0  0  0  0  0  0
  -26.1790  -29.5920   21.0610 C   0  0  0  0  0  0  0  0  0  0  0  0
  -27.3900  -28.8420   21.1450 C   0  0  0  0  0  3  0  0  0  0  0  0
  -26.3510  -27.0030   19.9580 C   0  0  0  0  0  3  0  0  0  0  0  0
  -25.1520  -27.7460   19.8670 C   0  0  0  0  0  3  0  0  0  0  0  0
  -23.7950  -29.8620   20.3860 C   0  0  0  0  0  2  0  0  0  0  0  0
  -24.7130  -31.2470   22.3030 N   0  0  0  0  0  0  0  0  0  0  0  0
  -23.4620  -32.3450   23.8480 O   0  0  0  0  0  0  0  0  0  0  0  0
  -22.8240  -29.5910   22.7010 C   0  0  0  0  0  0  0  0  0  0  0  0
  -21.5210  -29.3300   22.4970 N   0  0  0  0  0  0  0  0  0  0  0  0
  -23.4770  -29.0570   23.6020 O   0  0  0  0  0  0  0  0  0  0  0  0
  -21.0540  -29.8190   21.7450 H   0  0  0  0  0  0  0  0  0  0  0  0
  -18.1990  -27.9280   22.8130 C   0  0  0  0  0  0  0  0  0  0  0  0
  -20.7050  -28.3820   23.2580 C   0  0  0  0  0  3  0  0  0  0  0  0
  -20.9460  -26.9300   22.7860 C   0  0  0  0  0  2  0  0  0  0  0  0
  -19.9550  -26.4730   21.7110 C   0  0  0  0  0  2  0  0  0  0  0  0
  -18.5190  -26.5570   22.2390 C   0  0  0  0  0  2  0  0  0  0  0  0
  -19.2280  -28.7880   23.2800 C   0  0  0  0  0  0  0  0  0  0  0  0
  -18.8830  -30.0630   23.7780 C   0  0  0  0  0  3  0  0  0  0  0  0
  -17.5420  -30.4850   23.8100 C   0  0  0  0  0  3  0  0  0  0  0  0
  -16.5230  -29.6250   23.3610 C   0  0  0  0  0  3  0  0  0  0  0  0
  -16.8520  -28.3470   22.8710 C   0  0  0  0  0  3  0  0  0  0  0  0
  -25.8090  -32.7860   24.0270 C   0  0  0  0  0  3  0  0  0  0  0  0
  -25.4420  -34.1880   24.2800 N   0  0  0  0  0  0  0  0  0  0  0  0
  -25.7680  -35.2180   23.4860 C   0  0  0  0  0  0  0  0  0  0  0  0
  -26.4800  -35.0890   22.4860 O   0  0  0  0  0  0  0  0  0  0  0  0
  -24.7960  -34.3560   25.0370 H   0  0  0  0  0  0  0  0  0  0  0  0
  -23.9850  -36.9320   23.0090 C   0  0  0  0  0  1  0  0  0  0  0  0
  -25.2210  -36.6090   23.8630 C   0  0  0  0  0  3  0  0  0  0  0  0
  -27.3040  -37.6120   24.6900 C   0  0  0  0  0  1  0  0  0  0  0  0
  -26.2160  -37.6940   23.7190 N   0  0  0  0  0  0  0  0  0  0  0  0
  -25.7710  -38.6020   23.8180 H   0  0  0  0  0  0  0  0  0  0  0  0
  -26.2840  -32.0830   25.3600 C   0  0  1  0  0  0  0  0  0  0  0  0
  -25.1360  -31.8180   26.3630 C   0  0  0  0  0  1  0  0  0  0  0  0
  -26.9620  -30.7280   25.0550 C   0  0  0  0  0  1  0  0  0  0  0  0
  -27.3470  -32.9540   26.0670 C   0  0  0  0  0  1  0  0  0  0  0  0
  1 10  1  0
  2  1  1  0
  2  5  1  0
  3  7  1  0
  3  4  1  0
  3  2  1  0
  4  7  1  0
  4  6  1  0
  5 12  1  0
  6  5  1  0
  6 10  1  0
  7  9  1  1
  8  7  1  0
 10 11  1  1
 13 12  1  0
 14 19  1  0
 15 16  1  0
 15 14  1  0
 17 16  1  0
 17 24  1  0
 17 18  1  0
 19 13  1  0
 19 18  1  0
 20 13  2  0
 21 22  2  0
 22 41  1  0
 23 22  1  0
 23 26  1  0
 24 21  1  0
 24 25  1  0
 25 23  2  0
 26 27  1  0
 27 28  2  0
 29 32  1  0
 29 28  1  0
 30 29  2  0
 31 30  1  0
 31 26  2  0
 32 33  1  0
 33 34  1  0
 34 35  2  0
 36 35  1  0
 36 40  1  0
 37 36  2  0
 38 33  2  0
 38 37  1  0
 39 38  1  0
 41 42  1  0
 42 45  1  0
 42 44  1  0
 43 41  2  0
 46 47  1  0
 46 21  1  0
 48 46  1  0
 49 10  1  0
 49 50  2  0
 51 50  1  0
 52 53  1  0
 52 51  1  0
 54 65  2  0
 55 53  1  0
 55 60  1  0
 56 64  1  0
 56 66  1  0
 57 59  1  0
 58 64  1  0
 59 60  2  0
 59 58  1  0
 61 55  2  0
 62 61  1  0
 62 57  2  0
 63 57  1  0
 63 56  1  0
 64 54  1  0
 66 68  2  0
 67 66  1  0
 69 67  1  0
 70 79  2  0
 70 75  1  0
 71 67  1  0
 71 75  1  0
 72 71  1  0
 73 74  1  0
 73 72  1  0
 74 70  1  0
 75 76  2  0
 76 77  1  0
 78 77  2  0
 79 78  1  0
 80 54  1  0
 80 81  1  0
 80 90  1  0
 81 84  1  0
 82 86  1  0
 82 81  1  0
 83 82  2  0
 86 85  1  0
 88 89  1  0
 88 86  1  0
 88 87  1  0
 90 93  1  1
 90 91  1  0
 92 90  1  0
M  ISO  4  12 100  13 100  52 101  53 101
M  END
>  <TORSDO>  (60) 
F 21

>  <SCORE>  (60) 
-12.590

>  <name>  (60) 
59

>  <ligand_id>  (60) 
59

>  <original_smiles>  (60) 
[H]c1c([H])c([H])c2c(c1[H])C([H])([H])C([H])([H])C([H])([H])C2([H])N([H])C(=O)C1([H])N(C(=O)C([H])(N([H])C(=O)C([H])(N([H])C([H])([H])[H])C([H])([H])[H])C(C([H])([H])[H])(C([H])([H])[H])C([H])([H])[H])C([H])([H])c2c([H])c(OC([H])([H])C([H])([H])C([H])([H])C([H])([H])[N+]3([H])C([H])([H])C4([H])C5([H])C([H])(C5(C([H])([H])[H])C([H])([H])[H])C3([H])C4([H])C([H])([H])C(=O)N3C([H])([H])C([H])([H])C([H])([H])C([H])(n4nc(-c5c([H])c([H])c(Oc6c([H])c([H])c(F)c([H])c6F)c([H])c5[H])c(C(=O)N([H])[H])c4N([H])[H])C3([H])[H])c([H])c([H])c2C1([H])[H]

>  <smiles>  (60) 
[H]c1c([H])c([H])c2c(c1[H])C([H])([H])C([H])([H])C([H])([H])C2([H])N([H])C(=O)C1([H])N(C(=O)C([H])(N([H])C(=O)C([H])(N([H])C([H])([H])[H])C([H])([H])[H])C(C([H])([H])[H])(C([H])([H])[H])C([H])([H])[H])C([H])([H])c2c([H])c(OC([H])([H])C([H])([H])C([H])([H])C([H])([H])[N+]3([H])C([H])([H])C4([H])C5([H])C([H])(C5(C([H])([H])[H])C([H])([H])[H])C3([H])C4([H])C([H])([H])C(=O)N3C([H])([H])C([H])([H])C([H])([H])C([H])(n4nc(-c5c([H])c([H])c(Oc6c([H])c([H])c(F)c([H])c6F)c([H])c5[H])c(C(=O)N([H])[H])c4N([H])[H])C3([H])[H])c([H])c([H])c2C1([H])[H]

$$$$
60:0:0
     RDKit          3D

 96105  0  0  1  0  0  0  0  0999 V2000
  -31.3400  -22.4620   20.1070 C   0  0  0  0  0  0  0  0  0  0  0  0
  -30.1700  -23.1450   20.2470 C   0  0  0  0  0  3  0  0  0  0  0  0
  -33.7310  -22.1970   20.4930 C   0  0  0  0  0  2  0  0  0  0  0  0
  -31.1180  -20.3430   22.4350 C   0  0  0  0  0  2  0  0  0  0  0  0
  -31.6420  -20.9450   20.1780 C   0  0  0  0  0  3  0  0  0  0  0  0
  -32.6790  -23.1550   19.9100 C   0  0  0  0  0  3  0  0  0  0  0  0
  -32.9760  -20.9290   20.9210 C   0  0  0  0  0  3  0  0  0  0  0  0
  -30.7880  -19.9240   20.9930 C   0  0  0  0  0  3  0  0  0  0  0  0
  -32.5750  -20.8570   22.4160 C   0  0  0  0  0  3  0  0  0  0  0  0
  -32.9420  -23.4710   18.4280 C   0  0  0  0  0  1  0  0  0  0  0  0
  -31.2750  -18.5200   20.7190 N   0  0  0  0  0  4  0  0  0  0  0  0
  -31.9680  -18.3170   21.4220 H   0  0  0  0  0  0  0  0  0  0  0  0
  -31.7490  -18.5300   19.8300 H   0  0  0  0  0  0  0  0  0  0  0  0
  -30.3110  -17.3690   20.6890 C   0  0  0  0  0  2  0  0  0  0  0  0
  -30.8630  -16.0570   21.3690 C   0  0  0  0  0  2  0  0  0  0  0  0
  -31.3930  -14.9290   20.4260 C   0  0  0  0  0  0  0  0  0  0  0  0
  -31.0440  -12.9120   19.0210 C   0  0  0  0  0  2  0  0  0  0  0  0
  -30.1300  -13.2710   17.8280 C   0  0  0  0  0  2  0  0  0  0  0  0
  -28.6460  -13.1340   18.2140 C   0  0  0  0  0  2  0  0  0  0  0  0
  -28.3120  -13.8370   19.5570 C   0  0  0  0  0  3  0  0  0  0  0  0
  -29.3400  -13.4550   20.6470 C   0  0  0  0  0  2  0  0  0  0  0  0
  -30.6820  -13.7950   20.1460 N   0  0  0  0  0  0  0  0  0  0  0  0
  -32.4960  -15.1220   19.9100 O   0  0  0  0  0  0  0  0  0  0  0  0
  -25.8680  -14.4300   20.0960 C   0  0  0  0  0  0  0  0  0  0  0  0
  -24.7970  -13.6600   20.4600 C   0  0  0  0  0  0  0  0  0  0  0  0
  -25.2880  -12.3210   20.5500 C   0  0  0  0  0  0  0  0  0  0  0  0
  -26.9420  -13.5600   19.9810 N   0  0  0  0  0  0  0  0  0  0  0  0
  -26.5920  -12.2900   20.3110 N   0  0  0  0  0  0  0  0  0  0  0  0
  -24.5770  -11.0580   20.7910 C   0  0  0  0  0  0  0  0  0  0  0  0
  -24.8830  -10.2360   21.8980 C   0  0  0  0  0  3  0  0  0  0  0  0
  -24.1730   -9.0350   22.1160 C   0  0  0  0  0  3  0  0  0  0  0  0
  -23.1440   -8.6470   21.2260 C   0  0  0  0  0  0  0  0  0  0  0  0
  -22.8610   -9.4560   20.1110 C   0  0  0  0  0  3  0  0  0  0  0  0
  -23.5730  -10.6470   19.8930 C   0  0  0  0  0  3  0  0  0  0  0  0
  -22.4190   -7.4860   21.3460 O   0  0  0  0  0  0  0  0  0  0  0  0
  -22.0720   -6.9770   22.5720 C   0  0  0  0  0  0  0  0  0  0  0  0
  -21.2740   -7.7050   23.4820 C   0  0  0  0  0  3  0  0  0  0  0  0
  -20.8830   -7.1170   24.7010 C   0  0  0  0  0  3  0  0  0  0  0  0
  -21.2780   -5.8010   25.0080 C   0  0  0  0  0  0  0  0  0  0  0  0
  -22.0670   -5.0720   24.1000 C   0  0  0  0  0  3  0  0  0  0  0  0
  -22.4590   -5.6580   22.8840 C   0  0  0  0  0  0  0  0  0  0  0  0
  -23.2030   -4.9450   22.0040 F   0  0  0  0  0  0  0  0  0  0  0  0
  -20.8950   -5.2330   26.1740 F   0  0  0  0  0  0  0  0  0  0  0  0
  -23.3790  -14.1210   20.6280 C   0  0  0  0  0  0  0  0  0  0  0  0
  -22.6290  -13.4800   21.5170 N   0  0  0  0  0  0  0  0  0  0  0  0
  -22.9430  -15.0870   20.0030 O   0  0  0  0  0  0  0  0  0  0  0  0
  -23.0000  -12.7060   22.0480 H   0  0  0  0  0  0  0  0  0  0  0  0
  -21.6740  -13.7700   21.6750 H   0  0  0  0  0  0  0  0  0  0  0  0
  -26.0170  -15.7870   19.8310 N   0  0  0  0  0  0  0  0  0  0  0  0
  -25.2330  -16.4310   19.8430 H   0  0  0  0  0  0  0  0  0  0  0  0
  -26.8750  -16.2110   19.5050 H   0  0  0  0  0  0  0  0  0  0  0  0
  -34.7680  -20.2630   23.1270 C   0  0  0  0  0  1  0  0  0  0  0  0
  -33.3860  -19.9270   23.1210 O   0  0  0  0  0  0  0  0  0  0  0  0
  -29.9990  -24.6680   20.0050 C   0  0  0  0  0  2  0  0  0  0  0  0
  -28.8240  -25.4090   20.7000 C   0  0  0  0  0  2  0  0  0  0  0  0
  -28.8830  -26.8390   20.4400 O   0  0  0  0  0  0  0  0  0  0  0  0
  -25.0280  -32.0090   23.5530 C   0  0  0  0  0  0  0  0  0  0  0  0
  -27.6990  -27.5680   20.4430 C   0  0  0  0  0  0  0  0  0  0  0  0
  -23.8240  -30.5840   21.9310 C   0  0  0  0  0  3  0  0  0  0  0  0
  -25.2830  -29.0680   20.4890 C   0  0  0  0  0  0  0  0  0  0  0  0
  -26.3460  -30.9760   21.6980 C   0  0  0  0  0  2  0  0  0  0  0  0
  -26.4460  -29.6040   21.0540 C   0  0  0  0  0  0  0  0  0  0  0  0
  -27.6560  -28.8640   21.0240 C   0  0  0  0  0  3  0  0  0  0  0  0
  -26.5090  -27.0540   19.8780 C   0  0  0  0  0  3  0  0  0  0  0  0
  -25.3120  -27.7930   19.8990 C   0  0  0  0  0  3  0  0  0  0  0  0
  -24.0280  -29.9090   20.5500 C   0  0  0  0  0  2  0  0  0  0  0  0
  -25.0870  -31.2050   22.4520 N   0  0  0  0  0  0  0  0  0  0  0  0
  -23.9480  -32.2650   24.1060 O   0  0  0  0  0  0  0  0  0  0  0  0
  -23.2040  -29.5520   22.9020 C   0  0  0  0  0  0  0  0  0  0  0  0
  -21.9210  -29.2230   22.6860 N   0  0  0  0  0  0  0  0  0  0  0  0
  -23.8790  -29.0510   23.8050 O   0  0  0  0  0  0  0  0  0  0  0  0
  -21.4340  -29.6860   21.9320 H   0  0  0  0  0  0  0  0  0  0  0  0
  -18.7240  -27.5480   22.8660 C   0  0  0  0  0  0  0  0  0  0  0  0
  -21.1450  -28.2440   23.4460 C   0  0  0  0  0  3  0  0  0  0  0  0
  -21.5420  -26.7990   23.0660 C   0  0  0  0  0  2  0  0  0  0  0  0
  -20.6680  -26.2030   21.9590 C   0  0  0  0  0  2  0  0  0  0  0  0
  -19.1970  -26.1850   22.3900 C   0  0  0  0  0  2  0  0  0  0  0  0
  -19.6400  -28.5200   23.3460 C   0  0  0  0  0  0  0  0  0  0  0  0
  -19.1510  -29.7840   23.7430 C   0  0  0  0  0  3  0  0  0  0  0  0
  -17.7780  -30.0810   23.6680 C   0  0  0  0  0  3  0  0  0  0  0  0
  -16.8740  -29.1090   23.2060 C   0  0  0  0  0  3  0  0  0  0  0  0
  -17.3460  -27.8450   22.8100 C   0  0  0  0  0  3  0  0  0  0  0  0
  -26.3110  -32.6650   24.1550 C   0  0  0  0  0  3  0  0  0  0  0  0
  -25.9680  -34.0440   24.5260 N   0  0  0  0  0  0  0  0  0  0  0  0
  -26.3610  -35.1330   23.8530 C   0  0  0  0  0  0  0  0  0  0  0  0
  -27.1180  -35.0820   22.8800 O   0  0  0  0  0  0  0  0  0  0  0  0
  -25.3020  -34.1580   25.2760 H   0  0  0  0  0  0  0  0  0  0  0  0
  -24.6460  -36.9290   23.4580 C   0  0  0  0  0  1  0  0  0  0  0  0
  -25.8300  -36.4950   24.3360 C   0  0  0  0  0  3  0  0  0  0  0  0
  -27.8840  -37.3630   25.3630 C   0  0  0  0  0  1  0  0  0  0  0  0
  -26.8580  -37.5600   24.3430 N   0  0  0  0  0  0  0  0  0  0  0  0
  -26.4330  -38.4710   24.4920 H   0  0  0  0  0  0  0  0  0  0  0  0
  -26.8840  -31.8790   25.3970 C   0  0  1  0  0  0  0  0  0  0  0  0
  -25.8170  -31.5390   26.4640 C   0  0  0  0  0  1  0  0  0  0  0  0
  -27.5420  -30.5530   24.9470 C   0  0  0  0  0  1  0  0  0  0  0  0
  -27.9900  -32.7140   26.0800 C   0  0  0  0  0  1  0  0  0  0  0  0
  1  2  2  0
  5  1  1  0
  5  7  1  0
  5  8  1  0
  6 10  1  0
  6  1  1  0
  6  3  1  0
  7  3  1  0
  7  9  1  0
  8 11  1  0
  8  4  1  0
  9  4  1  0
  9 53  1  0
 11 12  1  0
 13 11  1  0
 14 11  1  0
 14 15  1  0
 16 15  1  0
 17 22  1  0
 18 19  1  0
 18 17  1  0
 20 19  1  0
 20 27  1  0
 20 21  1  0
 22 16  1  0
 22 21  1  0
 23 16  2  0
 24 25  2  0
 25 26  1  0
 25 44  1  0
 26 29  1  0
 27 24  1  0
 27 28  1  0
 28 26  2  0
 29 30  1  0
 30 31  2  0
 32 35  1  0
 32 31  1  0
 33 32  2  0
 34 33  1  0
 34 29  2  0
 35 36  1  0
 36 41  2  0
 36 37  1  0
 37 38  2  0
 38 39  1  0
 39 43  1  0
 40 39  2  0
 41 40  1  0
 42 41  1  0
 44 45  1  0
 45 48  1  0
 45 47  1  0
 46 44  2  0
 49 50  1  0
 49 24  1  0
 51 49  1  0
 53 52  1  0
 54  2  1  0
 54 55  1  0
 56 58  1  0
 56 55  1  0
 57 68  2  0
 58 63  1  0
 59 67  1  0
 59 69  1  0
 60 66  1  0
 60 62  1  0
 61 67  1  0
 62 61  1  0
 63 62  2  0
 64 65  1  0
 64 58  2  0
 65 60  2  0
 66 59  1  0
 67 57  1  0
 69 71  2  0
 70 69  1  0
 72 70  1  0
 73 78  1  0
 74 70  1  0
 75 74  1  0
 76 77  1  0
 76 75  1  0
 77 73  1  0
 78 74  1  0
 78 79  2  0
 80 79  1  0
 81 80  2  0
 82 73  2  0
 82 81  1  0
 83 57  1  0
 83 84  1  0
 83 93  1  0
 84 87  1  0
 85 89  1  0
 85 84  1  0
 86 85  2  0
 89 88  1  0
 89 91  1  0
 91 92  1  0
 91 90  1  0
 93 96  1  1
 93 94  1  0
 95 93  1  0
M  ISO  4  15 100  16 100  55 101  56 101
M  END
>  <TORSDO>  (61) 
F 22

>  <SCORE>  (61) 
-10.240

>  <name>  (61) 
60

>  <ligand_id>  (61) 
60

>  <original_smiles>  (61) 
[H]C(=C1C([H])(C([H])([H])[H])C([H])([H])C2([H])C([H])(OC([H])([H])[H])C([H])([H])C([H])([N+]([H])([H])C([H])([H])C([H])([H])C(=O)N3C([H])([H])C([H])([H])C([H])([H])C([H])(n4nc(-c5c([H])c([H])c(Oc6c([H])c([H])c(F)c([H])c6F)c([H])c5[H])c(C(=O)N([H])[H])c4N([H])[H])C3([H])[H])C12[H])C([H])([H])C([H])([H])Oc1c([H])c([H])c2c(c1[H])C([H])([H])N(C(=O)C([H])(N([H])C(=O)C([H])(N([H])C([H])([H])[H])C([H])([H])[H])C(C([H])([H])[H])(C([H])([H])[H])C([H])([H])[H])C([H])(C(=O)N([H])C1([H])c3c([H])c([H])c([H])c([H])c3C([H])([H])C([H])([H])C1([H])[H])C2([H])[H]

>  <smiles>  (61) 
[H]C(=C1C([H])(C([H])([H])[H])C([H])([H])C2([H])C([H])(OC([H])([H])[H])C([H])([H])C([H])([N+]([H])([H])C([H])([H])C([H])([H])C(=O)N3C([H])([H])C([H])([H])C([H])([H])C([H])(n4nc(-c5c([H])c([H])c(Oc6c([H])c([H])c(F)c([H])c6F)c([H])c5[H])c(C(=O)N([H])[H])c4N([H])[H])C3([H])[H])C12[H])C([H])([H])C([H])([H])Oc1c([H])c([H])c2c(c1[H])C([H])([H])N(C(=O)C([H])(N([H])C(=O)C([H])(N([H])C([H])([H])[H])C([H])([H])[H])C(C([H])([H])[H])(C([H])([H])[H])C([H])([H])[H])C([H])(C(=O)N([H])C1([H])c3c([H])c([H])c([H])c([H])c3C([H])([H])C([H])([H])C1([H])[H])C2([H])[H]

$$$$
61:0:0
     RDKit          3D

 92100  0  0  1  0  0  0  0  0999 V2000
  -30.4460  -20.3820   19.7700 N   0  0  0  0  0  4  0  0  0  0  0  0
  -31.2630  -19.9110   20.1280 H   0  0  0  0  0  0  0  0  0  0  0  0
  -30.5970  -20.4450   18.7780 H   0  0  0  0  0  0  0  0  0  0  0  0
  -30.5050  -21.7490   20.4050 C   0  0  0  0  0  3  0  0  0  0  0  0
  -29.6300  -22.8760   19.7540 C   0  0  0  0  0  3  0  0  0  0  0  0
  -29.8910  -24.3440   20.2440 C   0  0  0  0  0  2  0  0  0  0  0  0
  -28.6270  -25.2450   20.0750 C   0  0  0  0  0  2  0  0  0  0  0  0
  -28.8000  -26.6900   20.0700 O   0  0  0  0  0  0  0  0  0  0  0  0
  -24.6710  -31.6560   23.1250 C   0  0  0  0  0  0  0  0  0  0  0  0
  -27.6190  -27.4250   20.0060 C   0  0  0  0  0  0  0  0  0  0  0  0
  -23.5890  -30.2550   21.4030 C   0  0  0  0  0  3  0  0  0  0  0  0
  -25.1640  -28.8570   19.9590 C   0  0  0  0  0  0  0  0  0  0  0  0
  -26.1020  -30.7430   21.2960 C   0  0  0  0  0  2  0  0  0  0  0  0
  -26.2760  -29.4010   20.6120 C   0  0  0  0  0  0  0  0  0  0  0  0
  -27.5090  -28.6950   20.6310 C   0  0  0  0  0  3  0  0  0  0  0  0
  -26.4870  -26.9270   19.3160 C   0  0  0  0  0  3  0  0  0  0  0  0
  -25.2650  -27.6240   19.2970 C   0  0  0  0  0  3  0  0  0  0  0  0
  -23.8760  -29.6510   20.0040 C   0  0  0  0  0  2  0  0  0  0  0  0
  -24.8030  -30.8970   22.0000 N   0  0  0  0  0  0  0  0  0  0  0  0
  -23.5610  -31.8530   23.6370 O   0  0  0  0  0  0  0  0  0  0  0  0
  -22.9660  -29.1640   22.3060 C   0  0  0  0  0  0  0  0  0  0  0  0
  -21.6540  -28.9320   22.1480 N   0  0  0  0  0  0  0  0  0  0  0  0
  -23.6640  -28.5350   23.1060 O   0  0  0  0  0  0  0  0  0  0  0  0
  -21.1510  -29.4830   21.4660 H   0  0  0  0  0  0  0  0  0  0  0  0
  -18.3180  -27.5980   22.5660 C   0  0  0  0  0  0  0  0  0  0  0  0
  -20.8640  -27.9360   22.8700 C   0  0  0  0  0  3  0  0  0  0  0  0
  -21.0260  -26.5340   22.2410 C   0  0  0  0  0  2  0  0  0  0  0  0
  -19.9420  -26.2020   21.2100 C   0  0  0  0  0  2  0  0  0  0  0  0
  -18.5480  -26.2810   21.8450 C   0  0  0  0  0  2  0  0  0  0  0  0
  -19.4070  -28.3800   23.0380 C   0  0  0  0  0  0  0  0  0  0  0  0
  -19.1400  -29.6060   23.6850 C   0  0  0  0  0  3  0  0  0  0  0  0
  -17.8190  -30.0520   23.8660 C   0  0  0  0  0  3  0  0  0  0  0  0
  -16.7460  -29.2700   23.4110 C   0  0  0  0  0  3  0  0  0  0  0  0
  -16.9950  -28.0450   22.7650 C   0  0  0  0  0  3  0  0  0  0  0  0
  -25.9020  -32.3330   23.8010 C   0  0  0  0  0  3  0  0  0  0  0  0
  -25.5470  -33.7340   24.0650 N   0  0  0  0  0  0  0  0  0  0  0  0
  -25.9070  -34.7690   23.2950 C   0  0  0  0  0  0  0  0  0  0  0  0
  -26.6470  -34.6490   22.3140 O   0  0  0  0  0  0  0  0  0  0  0  0
  -24.8990  -33.9000   24.8200 H   0  0  0  0  0  0  0  0  0  0  0  0
  -24.1650  -36.5120   22.7820 C   0  0  0  0  0  1  0  0  0  0  0  0
  -25.3640  -36.1600   23.6780 C   0  0  0  0  0  3  0  0  0  0  0  0
  -27.4170  -37.1270   24.6140 C   0  0  0  0  0  1  0  0  0  0  0  0
  -26.3790  -37.2330   23.5920 N   0  0  0  0  0  0  0  0  0  0  0  0
  -25.9430  -38.1480   23.6750 H   0  0  0  0  0  0  0  0  0  0  0  0
  -26.3570  -31.6140   25.1320 C   0  0  1  0  0  0  0  0  0  0  0  0
  -25.2060  -31.3970   26.1410 C   0  0  0  0  0  1  0  0  0  0  0  0
  -26.9840  -30.2340   24.8220 C   0  0  0  0  0  1  0  0  0  0  0  0
  -27.4580  -32.4480   25.8330 C   0  0  0  0  0  1  0  0  0  0  0  0
  -29.2990  -19.4650   20.0930 C   0  0  0  0  0  3  0  0  0  0  0  0
  -28.2410  -19.5300   17.7140 C   0  0  0  0  0  1  0  0  0  0  0  0
  -26.7650  -19.0050   19.6610 C   0  0  0  0  0  1  0  0  0  0  0  0
  -28.0420  -19.7490   19.2190 C   0  0  0  0  0  3  0  0  0  0  0  0
  -30.2710  -17.2420   18.8840 C   0  0  0  0  0  2  0  0  0  0  0  0
  -31.0300  -17.2890   20.1930 C   0  0  0  0  0  3  0  0  0  0  0  0
  -29.6510  -17.9480   20.0740 C   0  0  0  0  0  3  0  0  0  0  0  0
  -31.2150  -16.0240   21.0550 C   0  0  0  0  0  2  0  0  0  0  0  0
  -31.6960  -14.7220   20.3460 C   0  0  0  0  0  0  0  0  0  0  0  0
  -31.3790  -12.3680   19.5950 C   0  0  0  0  0  2  0  0  0  0  0  0
  -30.4970  -12.2760   18.3350 C   0  0  0  0  0  2  0  0  0  0  0  0
  -29.0060  -12.2280   18.7310 C   0  0  0  0  0  2  0  0  0  0  0  0
  -28.6250  -13.3460   19.7380 C   0  0  0  0  0  3  0  0  0  0  0  0
  -29.6260  -13.3760   20.9150 C   0  0  0  0  0  2  0  0  0  0  0  0
  -30.9820  -13.5580   20.3750 N   0  0  0  0  0  0  0  0  0  0  0  0
  -32.7830  -14.7870   19.7630 O   0  0  0  0  0  0  0  0  0  0  0  0
  -26.3040  -14.1680   20.5110 C   0  0  0  0  0  0  0  0  0  0  0  0
  -25.1700  -13.4970   20.8610 C   0  0  0  0  0  0  0  0  0  0  0  0
  -25.4840  -12.1080   20.7510 C   0  0  0  0  0  0  0  0  0  0  0  0
  -27.2520  -13.1980   20.2180 N   0  0  0  0  0  0  0  0  0  0  0  0
  -26.7590  -11.9500   20.4210 N   0  0  0  0  0  0  0  0  0  0  0  0
  -24.6290  -10.9220   20.8760 C   0  0  0  0  0  0  0  0  0  0  0  0
  -24.9310   -9.8890   21.7920 C   0  0  0  0  0  3  0  0  0  0  0  0
  -24.0810   -8.7710   21.9110 C   0  0  0  0  0  3  0  0  0  0  0  0
  -22.9170   -8.6740   21.1130 C   0  0  0  0  0  0  0  0  0  0  0  0
  -22.6330   -9.6930   20.1890 C   0  0  0  0  0  3  0  0  0  0  0  0
  -23.4830  -10.8060   20.0670 C   0  0  0  0  0  3  0  0  0  0  0  0
  -22.0520   -7.6100   21.1400 O   0  0  0  0  0  0  0  0  0  0  0  0
  -21.8060   -6.9080   22.2920 C   0  0  0  0  0  0  0  0  0  0  0  0
  -21.2790   -7.5310   23.4460 C   0  0  0  0  0  3  0  0  0  0  0  0
  -20.9720   -6.7590   24.5840 C   0  0  0  0  0  3  0  0  0  0  0  0
  -21.1890   -5.3660   24.5700 C   0  0  0  0  0  0  0  0  0  0  0  0
  -21.7070   -4.7480   23.4210 C   0  0  0  0  0  3  0  0  0  0  0  0
  -22.0110   -5.5150   22.2840 C   0  0  0  0  0  0  0  0  0  0  0  0
  -22.4890   -4.9090   21.1710 F   0  0  0  0  0  0  0  0  0  0  0  0
  -20.8940   -4.6200   25.6600 F   0  0  0  0  0  0  0  0  0  0  0  0
  -23.8300  -14.1000   21.1700 C   0  0  0  0  0  0  0  0  0  0  0  0
  -23.0440  -13.4540   22.0210 N   0  0  0  0  0  0  0  0  0  0  0  0
  -23.4900  -15.1820   20.6850 O   0  0  0  0  0  0  0  0  0  0  0  0
  -23.3100  -12.5650   22.4220 H   0  0  0  0  0  0  0  0  0  0  0  0
  -22.1490  -13.8530   22.2650 H   0  0  0  0  0  0  0  0  0  0  0  0
  -26.5940  -15.5240   20.3880 N   0  0  0  0  0  0  0  0  0  0  0  0
  -25.8680  -16.2190   20.5170 H   0  0  0  0  0  0  0  0  0  0  0  0
  -27.4460  -15.8960   19.9920 H   0  0  0  0  0  0  0  0  0  0  0  0
  1 49  1  0
  1  2  1  0
  1  4  1  0
  3  1  1  0
  5  6  1  0
  5  4  2  0
  7  6  1  0
  8  7  1  0
  9 20  2  0
 10  8  1  0
 10 15  1  0
 11 19  1  0
 11 21  1  0
 12 18  1  0
 12 14  1  0
 13 19  1  0
 14 15  2  0
 14 13  1  0
 16 10  2  0
 17 16  1  0
 17 12  2  0
 18 11  1  0
 19  9  1  0
 21 23  2  0
 22 21  1  0
 24 22  1  0
 25 34  2  0
 25 30  1  0
 26 22  1  0
 26 30  1  0
 27 26  1  0
 28 29  1  0
 28 27  1  0
 29 25  1  0
 30 31  2  0
 31 32  1  0
 33 32  2  0
 34 33  1  0
 35  9  1  0
 35 36  1  0
 35 45  1  0
 36 39  1  0
 37 41  1  0
 37 36  1  0
 38 37  2  0
 41 40  1  0
 43 44  1  0
 43 41  1  0
 43 42  1  0
 45 48  1  1
 45 46  1  0
 47 45  1  0
 49 52  1  0
 50 52  1  0
 52 51  1  0
 53 55  1  0
 53 54  1  0
 54 56  1  0
 55 49  1  0
 55 54  1  0
 57 63  1  0
 57 56  1  0
 58 63  1  0
 59 60  1  0
 59 58  1  0
 61 60  1  0
 61 68  1  0
 61 62  1  0
 63 62  1  0
 64 57  2  0
 65 66  2  0
 66 85  1  0
 67 66  1  0
 67 70  1  0
 68 69  1  0
 68 65  1  0
 69 67  2  0
 70 71  1  0
 71 72  2  0
 73 76  1  0
 73 72  1  0
 74 73  2  0
 75 74  1  0
 75 70  2  0
 76 77  1  0
 77 78  1  0
 78 79  2  0
 80 79  1  0
 80 84  1  0
 81 80  2  0
 82 77  2  0
 82 81  1  0
 83 82  1  0
 85 86  1  0
 86 89  1  0
 86 88  1  0
 87 85  2  0
 90 65  1  0
 90 91  1  0
 92 90  1  0
M  ISO  4   7 101   8 101  56 100  57 100
M  END
>  <TORSDO>  (62) 
F 24

>  <SCORE>  (62) 
-10.975

>  <name>  (62) 
61

>  <ligand_id>  (62) 
61

>  <original_smiles>  (62) 
[H]c1c([H])c([H])c2c(c1[H])C([H])([H])C([H])([H])C([H])([H])C2([H])N([H])C(=O)C1([H])N(C(=O)C([H])(N([H])C(=O)C([H])(N([H])C([H])([H])[H])C([H])([H])[H])C(C([H])([H])[H])(C([H])([H])[H])C([H])([H])[H])C([H])([H])c2c([H])c(OC([H])([H])C([H])([H])C([H])([H])C([H])([H])[N+]([H])([H])C([H])(C([H])(C([H])([H])[H])C([H])([H])[H])C3([H])C([H])([H])C3([H])C([H])([H])C(=O)N3C([H])([H])C([H])([H])C([H])([H])C([H])(n4nc(-c5c([H])c([H])c(Oc6c([H])c([H])c(F)c([H])c6F)c([H])c5[H])c(C(=O)N([H])[H])c4N([H])[H])C3([H])[H])c([H])c([H])c2C1([H])[H]

>  <smiles>  (62) 
[H]c1c([H])c([H])c2c(c1[H])C([H])([H])C([H])([H])C([H])([H])C2([H])N([H])C(=O)C1([H])N(C(=O)C([H])(N([H])C(=O)C([H])(N([H])C([H])([H])[H])C([H])([H])[H])C(C([H])([H])[H])(C([H])([H])[H])C([H])([H])[H])C([H])([H])c2c([H])c(OC([H])([H])C([H])([H])C([H])([H])C([H])([H])[N+]([H])([H])C([H])(C([H])(C([H])([H])[H])C([H])([H])[H])C3([H])C([H])([H])C3([H])C([H])([H])C(=O)N3C([H])([H])C([H])([H])C([H])([H])C([H])(n4nc(-c5c([H])c([H])c(Oc6c([H])c([H])c(F)c([H])c6F)c([H])c5[H])c(C(=O)N([H])[H])c4N([H])[H])C3([H])[H])c([H])c([H])c2C1([H])[H]

$$$$
62:0:0
     RDKit          3D

 92100  0  0  1  0  0  0  0  0999 V2000
  -28.3590  -21.5560   20.0840 C   0  0  0  0  0  0  0  0  0  0  0  0
  -26.8670  -21.7940   19.9740 C   0  0  0  0  0  1  0  0  0  0  0  0
  -28.7680  -20.3390   19.9490 N   0  0  0  0  0  0  0  0  0  0  0  0
  -30.1690  -19.9150   20.0370 C   0  0  0  0  0  2  0  0  0  0  0  0
  -30.5580  -17.3460   22.8560 C   0  0  0  0  0  3  0  0  0  0  0  0
  -30.8750  -16.1520   22.1870 C   0  0  0  0  0  3  0  0  0  0  0  0
  -30.3000  -18.5200   22.1290 C   0  0  0  0  0  3  0  0  0  0  0  0
  -30.8980  -16.0830   20.7750 C   0  0  0  0  0  0  0  0  0  0  0  0
  -30.3430  -18.5280   20.7210 C   0  0  0  0  0  0  0  0  0  0  0  0
  -30.6170  -17.2950   20.0340 C   0  0  0  0  0  0  0  0  0  0  0  0
  -31.3990  -14.7960   20.1120 C   0  0  0  0  0  0  0  0  0  0  0  0
  -30.9310  -12.6450   18.9910 C   0  0  0  0  0  2  0  0  0  0  0  0
  -29.9680  -12.8750   17.8070 C   0  0  0  0  0  2  0  0  0  0  0  0
  -28.5040  -12.7970   18.2800 C   0  0  0  0  0  2  0  0  0  0  0  0
  -28.2380  -13.6550   19.5470 C   0  0  0  0  0  3  0  0  0  0  0  0
  -29.3170  -13.4190   20.6190 C   0  0  0  0  0  2  0  0  0  0  0  0
  -30.6380  -13.6620   20.0200 N   0  0  0  0  0  0  0  0  0  0  0  0
  -32.5080  -14.8480   19.5770 O   0  0  0  0  0  0  0  0  0  0  0  0
  -25.9290  -14.3540   20.4390 C   0  0  0  0  0  0  0  0  0  0  0  0
  -24.8290  -13.6290   20.8060 C   0  0  0  0  0  0  0  0  0  0  0  0
  -25.1950  -12.2550   20.6600 C   0  0  0  0  0  0  0  0  0  0  0  0
  -26.8970  -13.4280   20.0830 N   0  0  0  0  0  0  0  0  0  0  0  0
  -26.4640  -12.1560   20.2810 N   0  0  0  0  0  0  0  0  0  0  0  0
  -24.3950  -11.0330   20.8060 C   0  0  0  0  0  0  0  0  0  0  0  0
  -24.7880   -9.9930   21.6770 C   0  0  0  0  0  3  0  0  0  0  0  0
  -23.9930   -8.8350   21.8120 C   0  0  0  0  0  3  0  0  0  0  0  0
  -22.7920   -8.7060   21.0760 C   0  0  0  0  0  0  0  0  0  0  0  0
  -22.4170   -9.7350   20.1950 C   0  0  0  0  0  3  0  0  0  0  0  0
  -23.2090  -10.8870   20.0580 C   0  0  0  0  0  3  0  0  0  0  0  0
  -21.9710   -7.6040   21.1240 O   0  0  0  0  0  0  0  0  0  0  0  0
  -21.8790   -6.8230   22.2470 C   0  0  0  0  0  0  0  0  0  0  0  0
  -21.5170   -7.3600   23.5020 C   0  0  0  0  0  3  0  0  0  0  0  0
  -21.3660   -6.5080   24.6150 C   0  0  0  0  0  3  0  0  0  0  0  0
  -21.5690   -5.1230   24.4750 C   0  0  0  0  0  0  0  0  0  0  0  0
  -21.9210   -4.5850   23.2250 C   0  0  0  0  0  3  0  0  0  0  0  0
  -22.0760   -5.4340   22.1140 C   0  0  0  0  0  0  0  0  0  0  0  0
  -22.3970   -4.9080   20.9080 F   0  0  0  0  0  0  0  0  0  0  0  0
  -21.4180   -4.3050   25.5420 F   0  0  0  0  0  0  0  0  0  0  0  0
  -23.4810  -14.1750   21.1810 C   0  0  0  0  0  0  0  0  0  0  0  0
  -22.7560  -13.4810   22.0560 N   0  0  0  0  0  0  0  0  0  0  0  0
  -23.0790  -15.2480   20.7330 O   0  0  0  0  0  0  0  0  0  0  0  0
  -23.0880  -12.6090   22.4370 H   0  0  0  0  0  0  0  0  0  0  0  0
  -21.8560  -13.8310   22.3490 H   0  0  0  0  0  0  0  0  0  0  0  0
  -26.1880  -15.7180   20.3570 N   0  0  0  0  0  0  0  0  0  0  0  0
  -25.5010  -16.4240   20.5990 H   0  0  0  0  0  0  0  0  0  0  0  0
  -27.0880  -16.1090   20.1080 H   0  0  0  0  0  0  0  0  0  0  0  0
  -31.9260  -17.7560   17.8720 C   0  0  0  0  0  1  0  0  0  0  0  0
  -30.5970  -17.2980   18.5020 C   0  0  0  0  0  2  0  0  0  0  0  0
  -29.1890  -22.8310   20.3950 C   0  0  0  0  0  2  0  0  0  0  0  0
  -28.8300  -24.1660   19.6280 C   0  0  0  0  0  2  0  0  0  0  0  0
  -28.1720  -25.3000   20.4770 C   0  0  0  0  0  2  0  0  0  0  0  0
  -28.3040  -26.6480   19.9410 O   0  0  0  0  0  0  0  0  0  0  0  0
  -24.5470  -31.8610   23.1100 C   0  0  0  0  0  0  0  0  0  0  0  0
  -27.1580  -27.4280   19.9580 C   0  0  0  0  0  0  0  0  0  0  0  0
  -23.3260  -30.4780   21.4630 C   0  0  0  0  0  3  0  0  0  0  0  0
  -24.7710  -28.9600   20.0000 C   0  0  0  0  0  0  0  0  0  0  0  0
  -25.8520  -30.8370   21.2450 C   0  0  0  0  0  2  0  0  0  0  0  0
  -25.9370  -29.4720   20.5860 C   0  0  0  0  0  0  0  0  0  0  0  0
  -27.1380  -28.7170   20.5540 C   0  0  0  0  0  3  0  0  0  0  0  0
  -25.9760  -26.9450   19.3610 C   0  0  0  0  0  3  0  0  0  0  0  0
  -24.7880  -27.7000   19.3790 C   0  0  0  0  0  3  0  0  0  0  0  0
  -23.5240  -29.8170   20.0710 C   0  0  0  0  0  2  0  0  0  0  0  0
  -24.5940  -31.0740   21.9980 N   0  0  0  0  0  0  0  0  0  0  0  0
  -23.4700  -32.1240   23.6640 O   0  0  0  0  0  0  0  0  0  0  0  0
  -22.6860  -29.4440   22.4180 C   0  0  0  0  0  0  0  0  0  0  0  0
  -21.3590  -29.2680   22.3130 N   0  0  0  0  0  0  0  0  0  0  0  0
  -23.3820  -28.8010   23.2080 O   0  0  0  0  0  0  0  0  0  0  0  0
  -20.8560  -29.8440   21.6510 H   0  0  0  0  0  0  0  0  0  0  0  0
  -17.9940  -28.0680   22.8480 C   0  0  0  0  0  0  0  0  0  0  0  0
  -20.5540  -28.3220   23.0840 C   0  0  0  0  0  3  0  0  0  0  0  0
  -20.6460  -26.8960   22.4900 C   0  0  0  0  0  2  0  0  0  0  0  0
  -19.5310  -26.5870   21.4870 C   0  0  0  0  0  2  0  0  0  0  0  0
  -18.1590  -26.7250   22.1520 C   0  0  0  0  0  2  0  0  0  0  0  0
  -19.1190  -28.8220   23.2730 C   0  0  0  0  0  0  0  0  0  0  0  0
  -18.9110  -30.0770   23.8860 C   0  0  0  0  0  3  0  0  0  0  0  0
  -17.6100  -30.5790   24.0750 C   0  0  0  0  0  3  0  0  0  0  0  0
  -16.4990  -29.8190   23.6690 C   0  0  0  0  0  3  0  0  0  0  0  0
  -16.6930  -28.5650   23.0620 C   0  0  0  0  0  3  0  0  0  0  0  0
  -25.8360  -32.4890   23.7230 C   0  0  0  0  0  3  0  0  0  0  0  0
  -25.5190  -33.8730   24.1000 N   0  0  0  0  0  0  0  0  0  0  0  0
  -25.8260  -34.9510   23.3660 C   0  0  0  0  0  0  0  0  0  0  0  0
  -26.4770  -34.8850   22.3210 O   0  0  0  0  0  0  0  0  0  0  0  0
  -24.9450  -33.9980   24.9200 H   0  0  0  0  0  0  0  0  0  0  0  0
  -24.0680  -36.7290   23.1000 C   0  0  0  0  0  1  0  0  0  0  0  0
  -25.3310  -36.3200   23.8740 C   0  0  0  0  0  3  0  0  0  0  0  0
  -27.4730  -37.2080   24.6810 C   0  0  0  0  0  1  0  0  0  0  0  0
  -26.3470  -37.3880   23.7680 N   0  0  0  0  0  0  0  0  0  0  0  0
  -25.9340  -38.3000   23.9470 H   0  0  0  0  0  0  0  0  0  0  0  0
  -26.3910  -31.6880   24.9640 C   0  0  1  0  0  0  0  0  0  0  0  0
  -25.3230  -31.4090   26.0490 C   0  0  0  0  0  1  0  0  0  0  0  0
  -26.9810  -30.3280   24.5210 C   0  0  0  0  0  1  0  0  0  0  0  0
  -27.5470  -32.4730   25.6260 C   0  0  0  0  0  1  0  0  0  0  0  0
  1 49  1  0
  2  1  1  0
  3  4  1  0
  3  1  2  0
  4  9  1  0
  6  5  1  0
  7  5  2  0
  8  6  2  0
  9  7  1  0
 10  9  2  0
 10  8  1  0
 11  8  1  0
 12 17  1  0
 13 14  1  0
 13 12  1  0
 15 14  1  0
 15 22  1  0
 15 16  1  0
 17 11  1  0
 17 16  1  0
 18 11  2  0
 19 20  2  0
 20 39  1  0
 21 24  1  0
 21 20  1  0
 22 23  1  0
 22 19  1  0
 23 21  2  0
 24 25  1  0
 25 26  2  0
 27 30  1  0
 27 26  1  0
 28 27  2  0
 29 28  1  0
 29 24  2  0
 30 31  1  0
 31 32  1  0
 32 33  2  0
 34 33  1  0
 34 38  1  0
 35 34  2  0
 36 31  2  0
 36 35  1  0
 37 36  1  0
 39 40  1  0
 40 43  1  0
 40 42  1  0
 41 39  2  0
 44 19  1  0
 44 45  1  0
 46 44  1  0
 47 48  1  0
 48 10  1  0
 50 49  1  0
 50 51  1  0
 52 54  1  0
 52 51  1  0
 53 64  2  0
 54 59  1  0
 55 63  1  0
 55 65  1  0
 56 62  1  0
 56 58  1  0
 57 63  1  0
 58 57  1  0
 59 58  2  0
 60 61  1  0
 60 54  2  0
 61 56  2  0
 62 55  1  0
 63 53  1  0
 65 67  2  0
 66 65  1  0
 68 66  1  0
 69 78  2  0
 69 74  1  0
 70 66  1  0
 70 74  1  0
 71 70  1  0
 72 73  1  0
 72 71  1  0
 73 69  1  0
 74 75  2  0
 75 76  1  0
 77 76  2  0
 78 77  1  0
 79 53  1  0
 79 80  1  0
 79 89  1  0
 80 83  1  0
 81 85  1  0
 81 80  1  0
 82 81  2  0
 85 84  1  0
 87 85  1  0
 87 88  1  0
 87 86  1  0
 89 92  1  1
 89 90  1  0
 91 89  1  0
M  ISO  4   8 100  11 100  51 101  52 101
M  END
>  <TORSDO>  (63) 
F 22

>  <SCORE>  (63) 
-11.628

>  <name>  (63) 
62

>  <ligand_id>  (63) 
62

>  <original_smiles>  (63) 
[H]c1c([H])c(C(=O)N2C([H])([H])C([H])([H])C([H])([H])C([H])(n3nc(-c4c([H])c([H])c(Oc5c([H])c([H])c(F)c([H])c5F)c([H])c4[H])c(C(=O)N([H])[H])c3N([H])[H])C2([H])[H])c(C([H])([H])C([H])([H])[H])c(C([H])([H])N=C(C([H])([H])[H])C([H])([H])C([H])([H])C([H])([H])Oc2c([H])c([H])c3c(c2[H])C([H])([H])N(C(=O)C([H])(N([H])C(=O)C([H])(N([H])C([H])([H])[H])C([H])([H])[H])C(C([H])([H])[H])(C([H])([H])[H])C([H])([H])[H])C([H])(C(=O)N([H])C2([H])c4c([H])c([H])c([H])c([H])c4C([H])([H])C([H])([H])C2([H])[H])C3([H])[H])c1[H]

>  <smiles>  (63) 
[H]c1c([H])c(C(=O)N2C([H])([H])C([H])([H])C([H])([H])C([H])(n3nc(-c4c([H])c([H])c(Oc5c([H])c([H])c(F)c([H])c5F)c([H])c4[H])c(C(=O)N([H])[H])c3N([H])[H])C2([H])[H])c(C([H])([H])C([H])([H])[H])c(C([H])([H])N=C(C([H])([H])[H])C([H])([H])C([H])([H])C([H])([H])Oc2c([H])c([H])c3c(c2[H])C([H])([H])N(C(=O)C([H])(N([H])C(=O)C([H])(N([H])C([H])([H])[H])C([H])([H])[H])C(C([H])([H])[H])(C([H])([H])[H])C([H])([H])[H])C([H])(C(=O)N([H])C2([H])c4c([H])c([H])c([H])c([H])c4C([H])([H])C([H])([H])C2([H])[H])C3([H])[H])c1[H]

$$$$
63:0:0
     RDKit          3D

 95104  0  0  1  0  0  0  0  0999 V2000
  -34.5770  -20.4900   17.4220 C   0  0  0  0  0  2  0  0  0  0  0  0
  -34.7980  -20.1830   18.9090 C   0  0  0  0  0  2  0  0  0  0  0  0
  -33.0880  -20.4010   17.0620 C   0  0  0  0  0  2  0  0  0  0  0  0
  -33.9540  -21.1000   19.8100 C   0  0  0  0  0  2  0  0  0  0  0  0
  -32.2440  -21.3350   17.9540 C   0  0  0  0  0  2  0  0  0  0  0  0
  -31.7930  -19.7550   19.8810 C   0  0  0  0  0  2  0  0  0  0  0  0
  -31.6710  -22.0560   20.3520 C   0  0  0  0  0  2  0  0  0  0  0  0
  -30.2780  -19.9970   20.0390 C   0  0  0  0  0  3  0  0  0  0  0  0
  -30.2170  -21.5330   20.5690 C   0  0  0  0  0  3  0  0  0  0  0  0
  -32.4430  -21.0640   19.4720 C   0  0  1  0  0  0  0  0  0  0  0  0
  -29.2050  -22.5180   19.9780 N   0  0  0  0  0  4  0  0  0  0  0  0
  -28.2900  -22.1810   20.2360 H   0  0  0  0  0  0  0  0  0  0  0  0
  -29.2500  -22.4590   18.9730 H   0  0  0  0  0  0  0  0  0  0  0  0
  -29.3020  -24.0050   20.3760 C   0  0  0  0  0  3  0  0  0  0  0  0
  -28.1690  -25.0110   19.8770 C   0  0  0  0  0  3  0  0  0  0  0  0
  -28.3240  -26.4610   20.1720 O   0  0  0  0  0  0  0  0  0  0  0  0
  -24.6180  -31.8620   23.2250 C   0  0  0  0  0  0  0  0  0  0  0  0
  -27.1940  -27.3010   20.1290 C   0  0  0  0  0  0  0  0  0  0  0  0
  -23.3960  -30.4700   21.5960 C   0  0  0  0  0  3  0  0  0  0  0  0
  -24.8280  -28.9170   20.1530 C   0  0  0  0  0  0  0  0  0  0  0  0
  -25.9350  -30.7780   21.3930 C   0  0  0  0  0  2  0  0  0  0  0  0
  -26.0040  -29.4010   20.7400 C   0  0  0  0  0  0  0  0  0  0  0  0
  -27.1860  -28.6040   20.7220 C   0  0  0  0  0  3  0  0  0  0  0  0
  -25.9940  -26.8730   19.5180 C   0  0  0  0  0  3  0  0  0  0  0  0
  -24.8250  -27.6570   19.5360 C   0  0  0  0  0  3  0  0  0  0  0  0
  -23.5960  -29.7960   20.2120 C   0  0  0  0  0  2  0  0  0  0  0  0
  -24.6690  -31.0530   22.1280 N   0  0  0  0  0  0  0  0  0  0  0  0
  -23.5410  -32.1420   23.7720 O   0  0  0  0  0  0  0  0  0  0  0  0
  -22.7380  -29.4550   22.5610 C   0  0  0  0  0  0  0  0  0  0  0  0
  -21.4110  -29.2780   22.4430 N   0  0  0  0  0  0  0  0  0  0  0  0
  -23.4210  -28.8280   23.3750 O   0  0  0  0  0  0  0  0  0  0  0  0
  -20.9200  -29.8270   21.7510 H   0  0  0  0  0  0  0  0  0  0  0  0
  -18.0400  -28.0730   22.9620 C   0  0  0  0  0  0  0  0  0  0  0  0
  -20.5980  -28.3420   23.2210 C   0  0  0  0  0  3  0  0  0  0  0  0
  -20.7030  -26.9090   22.6500 C   0  0  0  0  0  2  0  0  0  0  0  0
  -19.5980  -26.5770   21.6430 C   0  0  0  0  0  2  0  0  0  0  0  0
  -18.2170  -26.7220   22.2890 C   0  0  0  0  0  2  0  0  0  0  0  0
  -19.1570  -28.8410   23.3830 C   0  0  0  0  0  0  0  0  0  0  0  0
  -18.9380  -30.1060   23.9690 C   0  0  0  0  0  3  0  0  0  0  0  0
  -17.6310  -30.6060   24.1360 C   0  0  0  0  0  3  0  0  0  0  0  0
  -16.5280  -29.8360   23.7290 C   0  0  0  0  0  3  0  0  0  0  0  0
  -16.7320  -28.5710   23.1500 C   0  0  0  0  0  3  0  0  0  0  0  0
  -25.9090  -32.4920   23.8350 C   0  0  0  0  0  3  0  0  0  0  0  0
  -25.6010  -33.8860   24.1820 N   0  0  0  0  0  0  0  0  0  0  0  0
  -25.9160  -34.9470   23.4270 C   0  0  0  0  0  0  0  0  0  0  0  0
  -26.5670  -34.8540   22.3840 O   0  0  0  0  0  0  0  0  0  0  0  0
  -25.0180  -34.0290   24.9950 H   0  0  0  0  0  0  0  0  0  0  0  0
  -24.1720  -36.7340   23.1220 C   0  0  0  0  0  1  0  0  0  0  0  0
  -25.4320  -36.3320   23.9040 C   0  0  0  0  0  3  0  0  0  0  0  0
  -27.5850  -37.2170   24.6880 C   0  0  0  0  0  1  0  0  0  0  0  0
  -26.4570  -37.3900   23.7750 N   0  0  0  0  0  0  0  0  0  0  0  0
  -26.0540  -38.3080   23.9370 H   0  0  0  0  0  0  0  0  0  0  0  0
  -26.4400  -31.7090   25.0980 C   0  0  1  0  0  0  0  0  0  0  0  0
  -25.3600  -31.4620   26.1790 C   0  0  0  0  0  1  0  0  0  0  0  0
  -27.0160  -30.3340   24.6890 C   0  0  0  0  0  1  0  0  0  0  0  0
  -27.6030  -32.4940   25.7470 C   0  0  0  0  0  1  0  0  0  0  0  0
  -29.7250  -18.7160   20.8370 C   0  0  0  0  0  2  0  0  0  0  0  0
  -30.2890  -17.2870   20.3510 C   0  0  0  0  0  3  0  0  0  0  0  0
  -29.8200  -15.9000   20.9770 C   0  0  0  0  0  3  0  0  0  0  0  0
  -30.5800  -14.6050   20.4630 C   0  0  0  0  0  0  0  0  0  0  0  0
  -30.3610  -12.3810   19.3650 C   0  0  0  0  0  2  0  0  0  0  0  0
  -29.4260  -12.5550   18.1500 C   0  0  0  0  0  2  0  0  0  0  0  0
  -27.9480  -12.4000   18.5670 C   0  0  0  0  0  2  0  0  0  0  0  0
  -27.5950  -13.2430   19.8220 C   0  0  0  0  0  3  0  0  0  0  0  0
  -28.6480  -13.0560   20.9350 C   0  0  0  0  0  2  0  0  0  0  0  0
  -29.9620  -13.3860   20.3710 N   0  0  0  0  0  0  0  0  0  0  0  0
  -31.7300  -14.7440   20.0300 O   0  0  0  0  0  0  0  0  0  0  0  0
  -25.2040  -13.8570   20.5300 C   0  0  0  0  0  0  0  0  0  0  0  0
  -24.1310  -13.0920   20.8980 C   0  0  0  0  0  0  0  0  0  0  0  0
  -24.5860  -11.7370   20.8740 C   0  0  0  0  0  0  0  0  0  0  0  0
  -26.2440  -12.9700   20.3030 N   0  0  0  0  0  0  0  0  0  0  0  0
  -25.8780  -11.6900   20.5710 N   0  0  0  0  0  0  0  0  0  0  0  0
  -23.8530  -10.4790   21.0700 C   0  0  0  0  0  0  0  0  0  0  0  0
  -24.2960   -9.5040   21.9900 C   0  0  0  0  0  3  0  0  0  0  0  0
  -23.5660   -8.3110   22.1760 C   0  0  0  0  0  3  0  0  0  0  0  0
  -22.3790   -8.0830   21.4430 C   0  0  0  0  0  0  0  0  0  0  0  0
  -21.9530   -9.0480   20.5120 C   0  0  0  0  0  3  0  0  0  0  0  0
  -22.6840  -10.2330   20.3250 C   0  0  0  0  0  3  0  0  0  0  0  0
  -21.6210   -6.9410   21.5370 O   0  0  0  0  0  0  0  0  0  0  0  0
  -21.6090   -6.1770   22.6760 C   0  0  0  0  0  0  0  0  0  0  0  0
  -21.2510   -6.7150   23.9310 C   0  0  0  0  0  3  0  0  0  0  0  0
  -21.1820   -5.8780   25.0620 C   0  0  0  0  0  3  0  0  0  0  0  0
  -21.4630   -4.5040   24.9420 C   0  0  0  0  0  0  0  0  0  0  0  0
  -21.8130   -3.9660   23.6920 C   0  0  0  0  0  3  0  0  0  0  0  0
  -21.8830   -4.7980   22.5620 C   0  0  0  0  0  0  0  0  0  0  0  0
  -22.2000   -4.2690   21.3540 F   0  0  0  0  0  0  0  0  0  0  0  0
  -21.3890   -3.6990   26.0270 F   0  0  0  0  0  0  0  0  0  0  0  0
  -22.7340  -13.5760   21.1640 C   0  0  0  0  0  0  0  0  0  0  0  0
  -22.0030  -12.8900   22.0330 N   0  0  0  0  0  0  0  0  0  0  0  0
  -22.3020  -14.5980   20.6320 O   0  0  0  0  0  0  0  0  0  0  0  0
  -22.3670  -12.0650   22.4900 H   0  0  0  0  0  0  0  0  0  0  0  0
  -21.0640  -13.1960   22.2450 H   0  0  0  0  0  0  0  0  0  0  0  0
  -25.3770  -15.2270   20.3460 N   0  0  0  0  0  0  0  0  0  0  0  0
  -24.6220  -15.8920   20.4650 H   0  0  0  0  0  0  0  0  0  0  0  0
  -26.2360  -15.6570   20.0290 H   0  0  0  0  0  0  0  0  0  0  0  0
  1  2  1  0
  2  4  1  0
  3  1  1  0
  3  5  1  0
 10  5  1  6
  6  8  1  0
  7  9  1  0
  8  9  1  0
  8 57  1  0
  9 11  1  0
 10  4  1  0
 10  6  1  0
 10  7  1  0
 11 12  1  0
 11 14  1  0
 13 11  1  0
 15 16  1  0
 15 14  2  0
 17 28  2  0
 18 16  1  0
 18 23  1  0
 19 27  1  0
 19 29  1  0
 20 26  1  0
 20 22  1  0
 21 27  1  0
 22 21  1  0
 23 22  2  0
 24 25  1  0
 24 18  2  0
 25 20  2  0
 26 19  1  0
 27 17  1  0
 29 31  2  0
 30 29  1  0
 32 30  1  0
 33 42  2  0
 33 38  1  0
 34 30  1  0
 34 38  1  0
 35 34  1  0
 36 37  1  0
 36 35  1  0
 37 33  1  0
 38 39  2  0
 39 40  1  0
 41 40  2  0
 42 41  1  0
 43 17  1  0
 43 44  1  0
 43 53  1  0
 44 47  1  0
 45 49  1  0
 45 44  1  0
 46 45  2  0
 49 48  1  0
 51 49  1  0
 51 52  1  0
 51 50  1  0
 53 56  1  1
 53 54  1  0
 55 53  1  0
 58 57  1  0
 58 59  2  0
 60 59  1  0
 61 66  1  0
 62 63  1  0
 62 61  1  0
 64 63  1  0
 64 71  1  0
 64 65  1  0
 66 60  1  0
 66 65  1  0
 67 60  2  0
 68 69  2  0
 69 88  1  0
 70 69  1  0
 70 73  1  0
 71 68  1  0
 71 72  1  0
 72 70  2  0
 73 74  1  0
 74 75  2  0
 76 79  1  0
 76 75  1  0
 77 76  2  0
 78 77  1  0
 78 73  2  0
 79 80  1  0
 80 81  1  0
 81 82  2  0
 83 82  1  0
 83 87  1  0
 84 83  2  0
 85 80  2  0
 85 84  1  0
 86 85  1  0
 88 89  1  0
 89 92  1  0
 89 91  1  0
 90 88  2  0
 93 94  1  0
 93 68  1  0
 95 93  1  0
M  ISO  4  15 101  16 101  59 100  60 100
M  END
>  <TORSDO>  (64) 
F 22

>  <SCORE>  (64) 
-13.085

>  <name>  (64) 
63

>  <ligand_id>  (64) 
63

>  <original_smiles>  (64) 
[H]c1c([H])c([H])c2c(c1[H])C([H])([H])C([H])([H])C([H])([H])C2([H])N([H])C(=O)C1([H])N(C(=O)C([H])(N([H])C(=O)C([H])(N([H])C([H])([H])[H])C([H])([H])[H])C(C([H])([H])[H])(C([H])([H])[H])C([H])([H])[H])C([H])([H])c2c([H])c(OC([H])([H])C([H])([H])[N+]([H])([H])C3([H])C([H])([H])C4(C([H])([H])C([H])([H])C([H])([H])C([H])([H])C4([H])[H])C([H])([H])C3([H])C([H])([H])C([H])([H])C([H])([H])C(=O)N3C([H])([H])C([H])([H])C([H])([H])C([H])(n4nc(-c5c([H])c([H])c(Oc6c([H])c([H])c(F)c([H])c6F)c([H])c5[H])c(C(=O)N([H])[H])c4N([H])[H])C3([H])[H])c([H])c([H])c2C1([H])[H]

>  <smiles>  (64) 
[H]c1c([H])c([H])c2c(c1[H])C([H])([H])C([H])([H])C([H])([H])C2([H])N([H])C(=O)C1([H])N(C(=O)C([H])(N([H])C(=O)C([H])(N([H])C([H])([H])[H])C([H])([H])[H])C(C([H])([H])[H])(C([H])([H])[H])C([H])([H])[H])C([H])([H])c2c([H])c(OC([H])([H])C([H])([H])[N+]([H])([H])C3([H])C([H])([H])C4(C([H])([H])C([H])([H])C([H])([H])C([H])([H])C4([H])[H])C([H])([H])C3([H])C([H])([H])C([H])([H])C([H])([H])C(=O)N3C([H])([H])C([H])([H])C([H])([H])C([H])(n4nc(-c5c([H])c([H])c(Oc6c([H])c([H])c(F)c([H])c6F)c([H])c5[H])c(C(=O)N([H])[H])c4N([H])[H])C3([H])[H])c([H])c([H])c2C1([H])[H]

$$$$
64:0:0
     RDKit          3D

 85 93  0  0  1  0  0  0  0  0999 V2000
  -28.9110  -23.3530   19.9690 C   0  0  0  0  0  3  0  0  0  0  0  0
  -29.4850  -20.6010   20.3570 C   0  0  0  0  0  3  0  0  0  0  0  0
  -28.7900  -21.8250   20.5810 C   0  0  0  0  0  3  0  0  0  0  0  0
  -29.7830  -19.8490   21.6510 C   0  0  0  0  0  2  0  0  0  0  0  0
  -29.1760  -18.9720   20.6380 C   0  0  0  0  0  3  0  0  0  0  0  0
  -29.7540  -16.2710   20.4140 C   0  0  0  0  0  3  0  0  0  0  0  0
  -30.0220  -17.6530   20.2190 C   0  0  0  0  0  3  0  0  0  0  0  0
  -30.5790  -15.0070   20.0400 C   0  0  0  0  0  0  0  0  0  0  0  0
  -30.4030  -12.6810   19.0490 C   0  0  0  0  0  2  0  0  0  0  0  0
  -29.4160  -12.6940   17.8590 C   0  0  0  0  0  2  0  0  0  0  0  0
  -27.9700  -12.4800   18.3470 C   0  0  0  0  0  2  0  0  0  0  0  0
  -27.6280  -13.3600   19.5780 C   0  0  0  0  0  3  0  0  0  0  0  0
  -28.7350  -13.3150   20.6540 C   0  0  0  0  0  2  0  0  0  0  0  0
  -29.9870  -13.7420   20.0100 N   0  0  0  0  0  0  0  0  0  0  0  0
  -31.7510  -15.0690   19.6450 O   0  0  0  0  0  0  0  0  0  0  0  0
  -25.2790  -13.9250   20.4250 C   0  0  0  0  0  0  0  0  0  0  0  0
  -24.2320  -13.1430   20.8340 C   0  0  0  0  0  0  0  0  0  0  0  0
  -24.6960  -11.7930   20.7620 C   0  0  0  0  0  0  0  0  0  0  0  0
  -26.3110  -13.0520   20.1260 N   0  0  0  0  0  0  0  0  0  0  0  0
  -25.9730  -11.7640   20.3950 N   0  0  0  0  0  0  0  0  0  0  0  0
  -23.9790  -10.5270   20.9690 C   0  0  0  0  0  0  0  0  0  0  0  0
  -24.4320   -9.5630   21.8970 C   0  0  0  0  0  3  0  0  0  0  0  0
  -23.7150   -8.3640   22.0920 C   0  0  0  0  0  3  0  0  0  0  0  0
  -22.5290   -8.1180   21.3590 C   0  0  0  0  0  0  0  0  0  0  0  0
  -22.0950   -9.0690   20.4200 C   0  0  0  0  0  3  0  0  0  0  0  0
  -22.8130  -10.2610   20.2230 C   0  0  0  0  0  3  0  0  0  0  0  0
  -21.7820   -6.9690   21.4630 O   0  0  0  0  0  0  0  0  0  0  0  0
  -21.7340   -6.2450   22.6270 C   0  0  0  0  0  0  0  0  0  0  0  0
  -21.2880   -6.8140   23.8400 C   0  0  0  0  0  3  0  0  0  0  0  0
  -21.1880   -6.0150   24.9970 C   0  0  0  0  0  3  0  0  0  0  0  0
  -21.5200   -4.6490   24.9430 C   0  0  0  0  0  0  0  0  0  0  0  0
  -21.9550   -4.0790   23.7340 C   0  0  0  0  0  3  0  0  0  0  0  0
  -22.0600   -4.8750   22.5780 C   0  0  0  0  0  0  0  0  0  0  0  0
  -22.4600   -4.3150   21.4120 F   0  0  0  0  0  0  0  0  0  0  0  0
  -21.4160   -3.8800   26.0510 F   0  0  0  0  0  0  0  0  0  0  0  0
  -22.8470  -13.6140   21.1710 C   0  0  0  0  0  0  0  0  0  0  0  0
  -22.1560  -12.9040   22.0570 N   0  0  0  0  0  0  0  0  0  0  0  0
  -22.3860  -14.6460   20.6850 O   0  0  0  0  0  0  0  0  0  0  0  0
  -22.5420  -12.0700   22.4730 H   0  0  0  0  0  0  0  0  0  0  0  0
  -21.2300  -13.2040   22.3240 H   0  0  0  0  0  0  0  0  0  0  0  0
  -25.4300  -15.2990   20.2600 N   0  0  0  0  0  0  0  0  0  0  0  0
  -24.6670  -15.9480   20.4190 H   0  0  0  0  0  0  0  0  0  0  0  0
  -26.2580  -15.7460   19.8890 H   0  0  0  0  0  0  0  0  0  0  0  0
  -28.1000  -24.7120   20.5700 C   0  0  0  0  0  2  0  0  0  0  0  0
  -28.3230  -26.2240   20.2360 O   0  0  0  0  0  0  0  0  0  0  0  0
  -24.6380  -31.8860   23.2330 C   0  0  0  0  0  0  0  0  0  0  0  0
  -27.2530  -27.1920   20.2180 C   0  0  0  0  0  0  0  0  0  0  0  0
  -23.4510  -30.4840   21.5880 C   0  0  0  0  0  3  0  0  0  0  0  0
  -24.9130  -28.9150   20.1710 C   0  0  0  0  0  0  0  0  0  0  0  0
  -26.0020  -30.7700   21.4280 C   0  0  0  0  0  2  0  0  0  0  0  0
  -26.0870  -29.3740   20.7840 C   0  0  0  0  0  0  0  0  0  0  0  0
  -27.2610  -28.5280   20.7870 C   0  0  0  0  0  3  0  0  0  0  0  0
  -26.0550  -26.8320   19.5680 C   0  0  0  0  0  3  0  0  0  0  0  0
  -24.9090  -27.6560   19.5490 C   0  0  0  0  0  3  0  0  0  0  0  0
  -23.6810  -29.8060   20.2100 C   0  0  0  0  0  2  0  0  0  0  0  0
  -24.7160  -31.0660   22.1390 N   0  0  0  0  0  0  0  0  0  0  0  0
  -23.5500  -32.1620   23.7600 O   0  0  0  0  0  0  0  0  0  0  0  0
  -22.7760  -29.4720   22.5500 C   0  0  0  0  0  0  0  0  0  0  0  0
  -21.4470  -29.3000   22.4270 N   0  0  0  0  0  0  0  0  0  0  0  0
  -23.4520  -28.8420   23.3680 O   0  0  0  0  0  0  0  0  0  0  0  0
  -20.9590  -29.8600   21.7430 H   0  0  0  0  0  0  0  0  0  0  0  0
  -18.0710  -28.0880   22.9320 C   0  0  0  0  0  0  0  0  0  0  0  0
  -20.6290  -28.3610   23.1980 C   0  0  0  0  0  3  0  0  0  0  0  0
  -20.7370  -26.9290   22.6240 C   0  0  0  0  0  2  0  0  0  0  0  0
  -19.6370  -26.6010   21.6090 C   0  0  0  0  0  2  0  0  0  0  0  0
  -18.2550  -26.7400   22.2540 C   0  0  0  0  0  2  0  0  0  0  0  0
  -19.1870  -28.8550   23.3610 C   0  0  0  0  0  0  0  0  0  0  0  0
  -18.9620  -30.1160   23.9570 C   0  0  0  0  0  3  0  0  0  0  0  0
  -17.6550  -30.6080   24.1250 C   0  0  0  0  0  3  0  0  0  0  0  0
  -16.5540  -29.8390   23.7100 C   0  0  0  0  0  3  0  0  0  0  0  0
  -16.7640  -28.5810   23.1190 C   0  0  0  0  0  3  0  0  0  0  0  0
  -25.9120  -32.5300   23.8610 C   0  0  0  0  0  3  0  0  0  0  0  0
  -26.4230  -31.7650   25.1450 C   0  0  1  0  0  0  0  0  0  0  0  0
  -25.3230  -31.5310   26.2080 C   0  0  0  0  0  1  0  0  0  0  0  0
  -27.0120  -30.3860   24.7680 C   0  0  0  0  0  1  0  0  0  0  0  0
  -27.5680  -32.5650   25.8100 C   0  0  0  0  0  1  0  0  0  0  0  0
  -25.5930  -33.9270   24.1900 N   0  0  0  0  0  0  0  0  0  0  0  0
  -25.9240  -34.9840   23.4360 C   0  0  0  0  0  0  0  0  0  0  0  0
  -26.5960  -34.8850   22.4060 O   0  0  0  0  0  0  0  0  0  0  0  0
  -24.9970  -34.0800   24.9900 H   0  0  0  0  0  0  0  0  0  0  0  0
  -24.1920  -36.7750   23.0830 C   0  0  0  0  0  1  0  0  0  0  0  0
  -25.4340  -36.3720   23.8950 C   0  0  0  0  0  3  0  0  0  0  0  0
  -27.5640  -37.2620   24.7310 C   0  0  0  0  0  1  0  0  0  0  0  0
  -26.4630  -37.4280   23.7850 N   0  0  0  0  0  0  0  0  0  0  0  0
  -26.0550  -38.3470   23.9320 H   0  0  0  0  0  0  0  0  0  0  0  0
  1 44  1  0
  1  3  2  0
  2  3  1  0
  2  5  1  0
  2  4  1  0
  5  7  1  0
  5  4  1  0
  7  6  2  0
  8  6  1  0
  9 14  1  0
 10 11  1  0
 10  9  1  0
 12 11  1  0
 12 19  1  0
 12 13  1  0
 14  8  1  0
 14 13  1  0
 15  8  2  0
 16 17  2  0
 17 36  1  0
 18 17  1  0
 18 21  1  0
 19 20  1  0
 19 16  1  0
 20 18  2  0
 21 22  1  0
 22 23  2  0
 24 27  1  0
 24 23  1  0
 25 24  2  0
 26 25  1  0
 26 21  2  0
 27 28  1  0
 28 29  1  0
 29 30  2  0
 31 30  1  0
 31 35  1  0
 32 31  2  0
 33 28  2  0
 33 32  1  0
 34 33  1  0
 36 37  1  0
 37 40  1  0
 37 39  1  0
 38 36  2  0
 41 42  1  0
 41 16  1  0
 43 41  1  0
 45 44  1  0
 46 57  2  0
 47 45  1  0
 47 52  1  0
 48 56  1  0
 48 58  1  0
 49 55  1  0
 49 51  1  0
 50 56  1  0
 51 52  2  0
 51 50  1  0
 53 47  2  0
 54 53  1  0
 54 49  2  0
 55 48  1  0
 56 46  1  0
 58 60  2  0
 59 58  1  0
 61 59  1  0
 62 71  2  0
 62 67  1  0
 63 59  1  0
 63 67  1  0
 64 63  1  0
 65 66  1  0
 65 64  1  0
 66 62  1  0
 67 68  2  0
 68 69  1  0
 70 69  2  0
 71 70  1  0
 72 46  1  0
 72 77  1  0
 72 73  1  0
 73 76  1  1
 73 74  1  0
 75 73  1  0
 77 80  1  0
 78 82  1  0
 78 77  1  0
 79 78  2  0
 82 81  1  0
 84 82  1  0
 84 85  1  0
 84 83  1  0
M  ISO  4   6 100   8 100  44 101  45 101
M  END
>  <TORSDO>  (65) 
F 19

>  <SCORE>  (65) 
-13.665

>  <name>  (65) 
64

>  <ligand_id>  (65) 
64

>  <original_smiles>  (65) 
[H]C(C(=O)N1C([H])([H])C([H])([H])C([H])([H])C([H])(n2nc(-c3c([H])c([H])c(Oc4c([H])c([H])c(F)c([H])c4F)c([H])c3[H])c(C(=O)N([H])[H])c2N([H])[H])C1([H])[H])=C([H])C1([H])C(=C([H])C([H])([H])C([H])([H])Oc2c([H])c([H])c3c(c2[H])C([H])([H])N(C(=O)C([H])(N([H])C(=O)C([H])(N([H])C([H])([H])[H])C([H])([H])[H])C(C([H])([H])[H])(C([H])([H])[H])C([H])([H])[H])C([H])(C(=O)N([H])C2([H])c4c([H])c([H])c([H])c([H])c4C([H])([H])C([H])([H])C2([H])[H])C3([H])[H])C1([H])[H]

>  <smiles>  (65) 
[H]C(C(=O)N1C([H])([H])C([H])([H])C([H])([H])C([H])(n2nc(-c3c([H])c([H])c(Oc4c([H])c([H])c(F)c([H])c4F)c([H])c3[H])c(C(=O)N([H])[H])c2N([H])[H])C1([H])[H])=C([H])C1([H])C(=C([H])C([H])([H])C([H])([H])Oc2c([H])c([H])c3c(c2[H])C([H])([H])N(C(=O)C([H])(N([H])C(=O)C([H])(N([H])C([H])([H])[H])C([H])([H])[H])C(C([H])([H])[H])(C([H])([H])[H])C([H])([H])[H])C([H])(C(=O)N([H])C2([H])c4c([H])c([H])c([H])c([H])c4C([H])([H])C([H])([H])C2([H])[H])C3([H])[H])C1([H])[H]

$$$$
65:0:0
     RDKit          3D

 98107  0  0  1  0  0  0  0  0999 V2000
  -32.2480  -16.8070   20.9170 C   0  0  0  0  0  2  0  0  0  0  0  0
  -30.8530  -17.2970   21.3480 C   0  0  0  0  0  2  0  0  0  0  0  0
  -33.2180  -17.9500   20.5830 C   0  0  0  0  0  2  0  0  0  0  0  0
  -31.4900  -19.3030   19.2360 C   0  0  0  0  0  2  0  0  0  0  0  0
  -28.7010  -18.4940   20.8040 C   0  0  0  0  0  2  0  0  0  0  0  0
  -30.2770  -18.3520   18.9950 C   0  0  0  0  0  3  0  0  0  0  0  0
  -29.0660  -19.2200   18.5160 C   0  0  0  0  0  3  0  0  0  0  0  0
  -28.0050  -19.2270   19.6380 C   0  0  0  0  0  3  0  0  0  0  0  0
  -29.7830  -17.5270   20.2330 C   0  0  1  0  0  0  0  0  0  0  0  0
  -32.9310  -18.7230   19.2770 C   0  0  2  0  0  0  0  0  0  0  0  0
  -28.5030  -18.7450   17.1660 C   0  0  0  0  0  1  0  0  0  0  0  0
  -33.2440  -17.8550   18.0390 C   0  0  0  0  0  1  0  0  0  0  0  0
  -33.9000  -19.9240   19.2410 C   0  0  0  0  0  1  0  0  0  0  0  0
  -27.5400  -20.5930   20.0390 N   0  0  0  0  0  4  0  0  0  0  0  0
  -28.2210  -20.9940   20.6640 H   0  0  0  0  0  0  0  0  0  0  0  0
  -26.6890  -20.4710   20.5670 H   0  0  0  0  0  0  0  0  0  0  0  0
  -27.2510  -21.5900   18.9660 C   0  0  0  0  0  2  0  0  0  0  0  0
  -27.0650  -23.0330   19.5330 C   0  0  0  0  0  2  0  0  0  0  0  0
  -26.9330  -24.1890   18.4940 C   0  0  0  0  0  2  0  0  0  0  0  0
  -26.9250  -25.5990   19.1500 C   0  0  0  0  0  2  0  0  0  0  0  0
  -26.6040  -26.6910   18.2580 O   0  0  0  0  0  0  0  0  0  0  0  0
  -25.3970  -31.3620   23.5240 C   0  0  0  0  0  0  0  0  0  0  0  0
  -25.7690  -27.6460   18.8010 C   0  0  0  0  0  0  0  0  0  0  0  0
  -23.4610  -30.8110   22.0860 C   0  0  0  0  0  3  0  0  0  0  0  0
  -23.9970  -29.5340   19.9410 C   0  0  0  0  0  0  0  0  0  0  0  0
  -25.8440  -30.6990   21.1600 C   0  0  0  0  0  2  0  0  0  0  0  0
  -25.3690  -29.6060   20.2220 C   0  0  0  0  0  0  0  0  0  0  0  0
  -26.2630  -28.6710   19.6440 C   0  0  0  0  0  3  0  0  0  0  0  0
  -24.3890  -27.6000   18.5180 C   0  0  0  0  0  3  0  0  0  0  0  0
  -23.5030  -28.5350   19.0850 C   0  0  0  0  0  3  0  0  0  0  0  0
  -23.1050  -30.5660   20.5950 C   0  0  0  0  0  2  0  0  0  0  0  0
  -24.9370  -30.9500   22.3080 N   0  0  0  0  0  0  0  0  0  0  0  0
  -24.6160  -31.6610   24.4370 O   0  0  0  0  0  0  0  0  0  0  0  0
  -22.8170  -29.6940   22.9390 C   0  0  0  0  0  0  0  0  0  0  0  0
  -21.4980  -29.4980   22.7730 N   0  0  0  0  0  0  0  0  0  0  0  0
  -23.5010  -29.0120   23.7080 O   0  0  0  0  0  0  0  0  0  0  0  0
  -21.0090  -30.1020   22.1290 H   0  0  0  0  0  0  0  0  0  0  0  0
  -18.2680  -27.8790   22.7720 C   0  0  0  0  0  0  0  0  0  0  0  0
  -20.6910  -28.4780   23.4430 C   0  0  0  0  0  3  0  0  0  0  0  0
  -21.0690  -27.0610   22.9510 C   0  0  0  0  0  2  0  0  0  0  0  0
  -20.1990  -26.5750   21.7860 C   0  0  0  0  0  2  0  0  0  0  0  0
  -18.7230  -26.5510   22.1920 C   0  0  0  0  0  2  0  0  0  0  0  0
  -19.1940  -28.7910   23.3440 C   0  0  0  0  0  0  0  0  0  0  0  0
  -18.7220  -30.0280   23.8360 C   0  0  0  0  0  3  0  0  0  0  0  0
  -17.3540  -30.3530   23.7700 C   0  0  0  0  0  3  0  0  0  0  0  0
  -16.4410  -29.4410   23.2160 C   0  0  0  0  0  3  0  0  0  0  0  0
  -16.8970  -28.2060   22.7200 C   0  0  0  0  0  3  0  0  0  0  0  0
  -26.9240  -31.4980   23.8180 C   0  0  0  0  0  3  0  0  0  0  0  0
  -27.1070  -32.6890   24.6580 N   0  0  0  0  0  0  0  0  0  0  0  0
  -27.5690  -33.8660   24.2180 C   0  0  0  0  0  0  0  0  0  0  0  0
  -27.9560  -34.0440   23.0580 O   0  0  0  0  0  0  0  0  0  0  0  0
  -26.7590  -32.6330   25.6030 H   0  0  0  0  0  0  0  0  0  0  0  0
  -26.4290  -35.9830   24.9570 C   0  0  0  0  0  1  0  0  0  0  0  0
  -27.6080  -35.0340   25.2220 C   0  0  0  0  0  3  0  0  0  0  0  0
  -30.0140  -35.0440   25.7130 C   0  0  0  0  0  1  0  0  0  0  0  0
  -28.8750  -35.7960   25.1930 N   0  0  0  0  0  0  0  0  0  0  0  0
  -28.7900  -36.6540   25.7300 H   0  0  0  0  0  0  0  0  0  0  0  0
  -27.5410  -30.2220   24.5130 C   0  0  1  0  0  0  0  0  0  0  0  0
  -26.7630  -29.7590   25.7670 C   0  0  0  0  0  1  0  0  0  0  0  0
  -27.5910  -29.0330   23.5260 C   0  0  0  0  0  1  0  0  0  0  0  0
  -29.0010  -30.5110   24.9350 C   0  0  0  0  0  1  0  0  0  0  0  0
  -29.0780  -16.1540   19.8740 C   0  0  0  0  0  2  0  0  0  0  0  0
  -29.8920  -14.9160   19.3690 C   0  0  0  0  0  0  0  0  0  0  0  0
  -29.7630  -12.5980   18.5090 C   0  0  0  0  0  2  0  0  0  0  0  0
  -28.6560  -12.5340   17.4330 C   0  0  0  0  0  2  0  0  0  0  0  0
  -27.2760  -12.2730   18.0730 C   0  0  0  0  0  2  0  0  0  0  0  0
  -26.9960  -13.2020   19.2870 C   0  0  0  0  0  3  0  0  0  0  0  0
  -28.2090  -13.2310   20.2450 C   0  0  0  0  0  2  0  0  0  0  0  0
  -29.3910  -13.6480   19.4750 N   0  0  0  0  0  0  0  0  0  0  0  0
  -30.9080  -15.1320   18.7050 O   0  0  0  0  0  0  0  0  0  0  0  0
  -24.7340  -13.6240   20.4400 C   0  0  0  0  0  0  0  0  0  0  0  0
  -23.7940  -12.7680   20.9510 C   0  0  0  0  0  0  0  0  0  0  0  0
  -24.3170  -11.4510   20.7670 C   0  0  0  0  0  0  0  0  0  0  0  0
  -25.7670  -12.8210   19.9810 N   0  0  0  0  0  0  0  0  0  0  0  0
  -25.5310  -11.5080   20.2340 N   0  0  0  0  0  0  0  0  0  0  0  0
  -23.7080  -10.1370   21.0170 C   0  0  0  0  0  0  0  0  0  0  0  0
  -24.2510   -9.2370   21.9600 C   0  0  0  0  0  3  0  0  0  0  0  0
  -23.6350   -7.9900   22.1960 C   0  0  0  0  0  3  0  0  0  0  0  0
  -22.4650   -7.6310   21.4860 C   0  0  0  0  0  0  0  0  0  0  0  0
  -21.9410   -8.5220   20.5320 C   0  0  0  0  0  3  0  0  0  0  0  0
  -22.5570   -9.7610   20.2960 C   0  0  0  0  0  3  0  0  0  0  0  0
  -21.8140   -6.4290   21.6290 O   0  0  0  0  0  0  0  0  0  0  0  0
  -21.7830   -5.7650   22.8290 C   0  0  0  0  0  0  0  0  0  0  0  0
  -21.1450   -6.3120   23.9640 C   0  0  0  0  0  3  0  0  0  0  0  0
  -21.0730   -5.5670   25.1570 C   0  0  0  0  0  3  0  0  0  0  0  0
  -21.6310   -4.2750   25.2170 C   0  0  0  0  0  0  0  0  0  0  0  0
  -22.2620   -3.7280   24.0850 C   0  0  0  0  0  3  0  0  0  0  0  0
  -22.3350   -4.4700   22.8940 C   0  0  0  0  0  0  0  0  0  0  0  0
  -22.9250   -3.9290   21.8000 F   0  0  0  0  0  0  0  0  0  0  0  0
  -21.5560   -3.5550   26.3610 F   0  0  0  0  0  0  0  0  0  0  0  0
  -22.4440  -13.1440   21.4880 C   0  0  0  0  0  0  0  0  0  0  0  0
  -21.9170  -12.3610   22.4230 N   0  0  0  0  0  0  0  0  0  0  0  0
  -21.8700  -14.1660   21.1170 O   0  0  0  0  0  0  0  0  0  0  0  0
  -22.3960  -11.5300   22.7400 H   0  0  0  0  0  0  0  0  0  0  0  0
  -21.0210  -12.5970   22.8260 H   0  0  0  0  0  0  0  0  0  0  0  0
  -24.7860  -15.0080   20.3090 N   0  0  0  0  0  0  0  0  0  0  0  0
  -24.0240  -15.6090   20.6000 H   0  0  0  0  0  0  0  0  0  0  0  0
  -25.5390  -15.5150   19.8610 H   0  0  0  0  0  0  0  0  0  0  0  0
  1  2  1  0
  3  1  1  0
  4 10  1  0
  6  4  1  0
  6  9  1  0
  7 11  1  0
  7  6  1  0
  7  8  1  0
  8 14  1  0
  8  5  1  0
  9 62  1  6
  9  5  1  0
  9  2  1  0
 10  3  1  0
 10 12  1  6
 13 10  1  0
 14 16  1  0
 14 15  1  0
 17 18  1  0
 17 14  1  0
 19 20  1  0
 19 18  1  0
 21 23  1  0
 21 20  1  0
 22 33  2  0
 23 28  1  0
 24 32  1  0
 24 34  1  0
 25 27  1  0
 25 31  1  0
 26 32  1  0
 27 26  1  0
 28 27  2  0
 29 23  2  0
 29 30  1  0
 30 25  2  0
 31 24  1  0
 32 22  1  0
 34 36  2  0
 35 34  1  0
 37 35  1  0
 38 43  1  0
 39 35  1  0
 40 39  1  0
 41 42  1  0
 41 40  1  0
 42 38  1  0
 43 39  1  0
 43 44  2  0
 45 44  1  0
 46 45  2  0
 47 38  2  0
 47 46  1  0
 48 22  1  0
 48 58  1  0
 48 49  1  0
 49 52  1  0
 50 49  1  0
 50 54  1  0
 51 50  2  0
 54 53  1  0
 56 54  1  0
 56 55  1  0
 56 57  1  0
 58 61  1  1
 58 59  1  0
 60 58  1  0
 63 69  1  0
 63 62  1  0
 64 69  1  0
 65 66  1  0
 65 64  1  0
 67 66  1  0
 67 74  1  0
 67 68  1  0
 69 68  1  0
 70 63  2  0
 71 72  2  0
 72 91  1  0
 73 72  1  0
 73 76  1  0
 74 75  1  0
 74 71  1  0
 75 73  2  0
 76 77  1  0
 77 78  2  0
 79 82  1  0
 79 78  1  0
 80 79  2  0
 81 80  1  0
 81 76  2  0
 82 83  1  0
 83 88  2  0
 83 84  1  0
 84 85  2  0
 85 86  1  0
 86 90  1  0
 87 86  2  0
 88 87  1  0
 89 88  1  0
 91 92  1  0
 92 94  1  0
 92 95  1  0
 93 91  2  0
 96 71  1  0
 96 97  1  0
 98 96  1  0
M  ISO  4  20 101  21 101  62 100  63 100
M  END
>  <TORSDO>  (66) 
F 22

>  <SCORE>  (66) 
-10.443

>  <name>  (66) 
65

>  <ligand_id>  (66) 
65

>  <original_smiles>  (66) 
[H]c1c([H])c([H])c2c(c1[H])C([H])([H])C([H])([H])C([H])([H])C2([H])N([H])C(=O)C1([H])N(C(=O)C([H])(N([H])C(=O)C([H])(N([H])C([H])([H])[H])C([H])([H])[H])C(C([H])([H])[H])(C([H])([H])[H])C([H])([H])[H])C([H])([H])c2c([H])c(OC([H])([H])C([H])([H])C([H])([H])C([H])([H])[N+]([H])([H])C3([H])C([H])([H])C4(C([H])([H])C(=O)N5C([H])([H])C([H])([H])C([H])([H])C([H])(n6nc(-c7c([H])c([H])c(Oc8c([H])c([H])c(F)c([H])c8F)c([H])c7[H])c(C(=O)N([H])[H])c6N([H])[H])C5([H])[H])C([H])([H])C([H])([H])C([H])([H])C(C([H])([H])[H])(C([H])([H])[H])C([H])([H])C4([H])C3([H])C([H])([H])[H])c([H])c([H])c2C1([H])[H]

>  <smiles>  (66) 
[H]c1c([H])c([H])c2c(c1[H])C([H])([H])C([H])([H])C([H])([H])C2([H])N([H])C(=O)C1([H])N(C(=O)C([H])(N([H])C(=O)C([H])(N([H])C([H])([H])[H])C([H])([H])[H])C(C([H])([H])[H])(C([H])([H])[H])C([H])([H])[H])C([H])([H])c2c([H])c(OC([H])([H])C([H])([H])C([H])([H])C([H])([H])[N+]([H])([H])C3([H])C([H])([H])C4(C([H])([H])C(=O)N5C([H])([H])C([H])([H])C([H])([H])C([H])(n6nc(-c7c([H])c([H])c(Oc8c([H])c([H])c(F)c([H])c8F)c([H])c7[H])c(C(=O)N([H])[H])c6N([H])[H])C5([H])[H])C([H])([H])C([H])([H])C([H])([H])C(C([H])([H])[H])(C([H])([H])[H])C([H])([H])C4([H])C3([H])C([H])([H])[H])c([H])c([H])c2C1([H])[H]

$$$$
66:0:0
     RDKit          3D

 97106  0  0  1  0  0  0  0  0999 V2000
  -32.3070  -16.5620   21.1150 C   0  0  0  0  0  2  0  0  0  0  0  0
  -30.0290  -15.7410   21.3450 C   0  0  0  0  0  2  0  0  0  0  0  0
  -30.9360  -18.6070   20.4680 C   0  0  0  0  0  2  0  0  0  0  0  0
  -29.3440  -18.3960   18.5820 C   0  0  0  0  0  2  0  0  0  0  0  0
  -31.4620  -15.5280   21.8710 C   0  0  0  0  0  3  0  0  0  0  0  0
  -31.3860  -17.1720   20.0360 C   0  0  0  0  0  3  0  0  0  0  0  0
  -28.9990  -17.0010   19.2150 C   0  0  0  0  0  3  0  0  0  0  0  0
  -30.1830  -16.1690   19.8540 C   0  0  2  0  0  0  0  0  0  0  0  0
  -30.1500  -19.3260   19.4280 N   0  0  1  0  0  4  0  0  0  0  0  0
  -30.8450  -19.6870   18.7920 H   0  0  0  0  0  0  0  0  0  0  0  0
  -30.5660  -14.8990   18.9680 C   0  0  0  0  0  0  0  0  0  0  0  0
  -30.1630  -12.6480   17.9820 C   0  0  0  0  0  2  0  0  0  0  0  0
  -28.9760  -12.6710   17.0000 C   0  0  0  0  0  2  0  0  0  0  0  0
  -27.6640  -12.3750   17.7490 C   0  0  0  0  0  2  0  0  0  0  0  0
  -27.5020  -13.2610   19.0060 C   0  0  0  0  0  3  0  0  0  0  0  0
  -28.7870  -13.2960   19.8640 C   0  0  0  0  0  2  0  0  0  0  0  0
  -29.9290  -13.6810   19.0160 N   0  0  0  0  0  0  0  0  0  0  0  0
  -31.4800  -15.0630   18.1560 O   0  0  0  0  0  0  0  0  0  0  0  0
  -25.4080  -13.7140   20.4240 C   0  0  0  0  0  0  0  0  0  0  0  0
  -24.4630  -12.8750   20.9500 C   0  0  0  0  0  0  0  0  0  0  0  0
  -24.8840  -11.5510   20.6180 C   0  0  0  0  0  0  0  0  0  0  0  0
  -26.3370  -12.8930   19.8010 N   0  0  0  0  0  0  0  0  0  0  0  0
  -26.0440  -11.5800   19.9770 N   0  0  0  0  0  0  0  0  0  0  0  0
  -24.2190  -10.2590   20.8240 C   0  0  0  0  0  0  0  0  0  0  0  0
  -24.7210   -9.3090   21.7400 C   0  0  0  0  0  3  0  0  0  0  0  0
  -24.0550   -8.0800   21.9310 C   0  0  0  0  0  3  0  0  0  0  0  0
  -22.8740   -7.7920   21.2060 C   0  0  0  0  0  0  0  0  0  0  0  0
  -22.3930   -8.7320   20.2770 C   0  0  0  0  0  3  0  0  0  0  0  0
  -23.0600   -9.9530   20.0850 C   0  0  0  0  0  3  0  0  0  0  0  0
  -22.1740   -6.6160   21.3080 O   0  0  0  0  0  0  0  0  0  0  0  0
  -21.9120   -6.0370   22.5230 C   0  0  0  0  0  0  0  0  0  0  0  0
  -21.1860   -6.7110   23.5290 C   0  0  0  0  0  3  0  0  0  0  0  0
  -20.8800   -6.0520   24.7370 C   0  0  0  0  0  3  0  0  0  0  0  0
  -21.2900   -4.7210   24.9370 C   0  0  0  0  0  0  0  0  0  0  0  0
  -22.0080   -4.0460   23.9340 C   0  0  0  0  0  3  0  0  0  0  0  0
  -22.3160   -4.7020   22.7300 C   0  0  0  0  0  0  0  0  0  0  0  0
  -22.9900   -4.0410   21.7580 F   0  0  0  0  0  0  0  0  0  0  0  0
  -20.9900   -4.0850   26.0940 F   0  0  0  0  0  0  0  0  0  0  0  0
  -23.1970  -13.2810   21.6500 C   0  0  0  0  0  0  0  0  0  0  0  0
  -22.7430  -12.4780   22.6060 N   0  0  0  0  0  0  0  0  0  0  0  0
  -22.6310  -14.3400   21.3850 O   0  0  0  0  0  0  0  0  0  0  0  0
  -23.2170  -11.6180   22.8370 H   0  0  0  0  0  0  0  0  0  0  0  0
  -21.9060  -12.7270   23.1140 H   0  0  0  0  0  0  0  0  0  0  0  0
  -25.5470  -15.0980   20.4120 N   0  0  0  0  0  0  0  0  0  0  0  0
  -24.8900  -15.6740   20.9250 H   0  0  0  0  0  0  0  0  0  0  0  0
  -26.4680  -15.5300   20.3520 H   0  0  0  0  0  0  0  0  0  0  0  0
  -31.3660  -16.6040   24.1730 C   0  0  0  0  0  2  0  0  0  0  0  0
  -31.6610  -15.5540   23.3860 C   0  0  0  0  0  0  0  0  0  0  0  0
  -32.2100  -14.2690   23.9820 C   0  0  0  0  0  1  0  0  0  0  0  0
  -27.8450  -17.0840   20.0410 O   0  0  0  0  0  0  0  0  0  0  0  0
  -28.0590  -17.5670   20.8330 H   0  0  0  0  0  0  0  0  0  0  0  0
  -29.4340  -20.5580   19.9280 C   0  0  0  0  0  2  0  0  0  0  0  0
  -29.6980  -21.8700   19.1040 C   0  0  0  0  0  2  0  0  0  0  0  0
  -29.0470  -23.1670   19.7010 C   0  0  0  0  0  2  0  0  0  0  0  0
  -29.1400  -24.4820   18.8490 C   0  0  0  0  0  2  0  0  0  0  0  0
  -28.5010  -25.7340   19.5360 C   0  0  0  0  0  2  0  0  0  0  0  0
  -28.3660  -26.9230   18.7100 O   0  0  0  0  0  0  0  0  0  0  0  0
  -24.3980  -31.2080   22.8430 C   0  0  0  0  0  0  0  0  0  0  0  0
  -27.1820  -27.6220   18.8770 C   0  0  0  0  0  0  0  0  0  0  0  0
  -23.2170  -30.0750   20.9900 C   0  0  0  0  0  3  0  0  0  0  0  0
  -24.7060  -28.9560   19.2440 C   0  0  0  0  0  0  0  0  0  0  0  0
  -25.7070  -30.6380   20.7970 C   0  0  0  0  0  2  0  0  0  0  0  0
  -25.8550  -29.4280   19.8920 C   0  0  0  0  0  0  0  0  0  0  0  0
  -27.0990  -28.7720   19.7030 C   0  0  0  0  0  3  0  0  0  0  0  0
  -26.0170  -27.1820   18.2160 C   0  0  0  0  0  3  0  0  0  0  0  0
  -24.7840  -27.8350   18.3990 C   0  0  0  0  0  3  0  0  0  0  0  0
  -23.4130  -29.6990   19.4970 C   0  0  0  0  0  2  0  0  0  0  0  0
  -24.4600  -30.6460   21.6020 N   0  0  0  0  0  0  0  0  0  0  0  0
  -23.3240  -31.2910   23.4580 O   0  0  0  0  0  0  0  0  0  0  0  0
  -22.6720  -28.8420   21.7460 C   0  0  0  0  0  0  0  0  0  0  0  0
  -21.3610  -28.5850   21.6110 N   0  0  0  0  0  0  0  0  0  0  0  0
  -23.4250  -28.1270   22.4140 O   0  0  0  0  0  0  0  0  0  0  0  0
  -20.8090  -29.2230   21.0540 H   0  0  0  0  0  0  0  0  0  0  0  0
  -18.0960  -27.0700   21.9480 C   0  0  0  0  0  0  0  0  0  0  0  0
  -20.6390  -27.4550   22.1980 C   0  0  0  0  0  3  0  0  0  0  0  0
  -20.8140  -26.1780   21.3440 C   0  0  0  0  0  2  0  0  0  0  0  0
  -19.6960  -25.9830   20.3150 C   0  0  0  0  0  2  0  0  0  0  0  0
  -18.3340  -25.8980   21.0110 C   0  0  0  0  0  2  0  0  0  0  0  0
  -19.1780  -27.8110   22.4940 C   0  0  0  0  0  0  0  0  0  0  0  0
  -18.9000  -28.9140   23.3300 C   0  0  0  0  0  3  0  0  0  0  0  0
  -17.5730  -29.2760   23.6280 C   0  0  0  0  0  3  0  0  0  0  0  0
  -16.5060  -28.5290   23.0980 C   0  0  0  0  0  3  0  0  0  0  0  0
  -16.7680  -27.4280   22.2640 C   0  0  0  0  0  3  0  0  0  0  0  0
  -25.6650  -31.7950   23.5410 C   0  0  0  0  0  3  0  0  0  0  0  0
  -25.3460  -33.1660   23.9580 N   0  0  0  0  0  0  0  0  0  0  0  0
  -25.7230  -34.2710   23.3000 C   0  0  0  0  0  0  0  0  0  0  0  0
  -26.4460  -34.2390   22.3000 O   0  0  0  0  0  0  0  0  0  0  0  0
  -24.7140  -33.2660   24.7390 H   0  0  0  0  0  0  0  0  0  0  0  0
  -24.0360  -36.1080   22.9800 C   0  0  0  0  0  1  0  0  0  0  0  0
  -25.2180  -35.6230   23.8360 C   0  0  0  0  0  3  0  0  0  0  0  0
  -27.3100  -36.4030   24.8590 C   0  0  0  0  0  1  0  0  0  0  0  0
  -26.2630  -36.6700   23.8750 N   0  0  0  0  0  0  0  0  0  0  0  0
  -25.8560  -37.5770   24.0840 H   0  0  0  0  0  0  0  0  0  0  0  0
  -26.1530  -30.9370   24.7710 C   0  0  1  0  0  0  0  0  0  0  0  0
  -25.0280  -30.5940   25.7760 C   0  0  0  0  0  1  0  0  0  0  0  0
  -26.7790  -29.6060   24.2930 C   0  0  0  0  0  1  0  0  0  0  0  0
  -27.2610  -31.6980   25.5360 C   0  0  0  0  0  1  0  0  0  0  0  0
  1  5  1  0
  2  5  1  0
  4  7  1  0
  4  9  1  0
  5 48  1  0
  6  3  1  0
  6  1  1  0
  7  8  1  0
  7 50  1  0
  8 11  1  6
  8  6  1  0
  8  2  1  0
  9 52  1  0
  9  3  1  0
  9 10  1  6
 11 17  1  0
 12 17  1  0
 13 14  1  0
 13 12  1  0
 15 14  1  0
 15 22  1  0
 15 16  1  0
 17 16  1  0
 18 11  2  0
 19 20  2  0
 20 39  1  0
 21 24  1  0
 21 20  1  0
 22 23  1  0
 22 19  1  0
 23 21  2  0
 24 25  1  0
 25 26  2  0
 27 30  1  0
 27 26  1  0
 28 27  2  0
 29 28  1  0
 29 24  2  0
 30 31  1  0
 31 36  2  0
 31 32  1  0
 32 33  2  0
 33 34  1  0
 34 38  1  0
 35 34  2  0
 36 35  1  0
 37 36  1  0
 39 40  1  0
 40 42  1  0
 40 43  1  0
 41 39  2  0
 44 19  1  0
 44 45  1  0
 46 44  1  0
 48 49  1  0
 48 47  2  0
 50 51  1  0
 53 54  1  0
 53 52  1  0
 55 56  1  0
 55 54  1  0
 57 59  1  0
 57 56  1  0
 58 69  2  0
 59 64  1  0
 60 68  1  0
 60 70  1  0
 61 67  1  0
 61 63  1  0
 62 68  1  0
 63 62  1  0
 64 63  2  0
 65 66  1  0
 65 59  2  0
 66 61  2  0
 67 60  1  0
 68 58  1  0
 70 72  2  0
 71 70  1  0
 73 71  1  0
 74 83  2  0
 74 79  1  0
 75 71  1  0
 75 79  1  0
 76 75  1  0
 77 78  1  0
 77 76  1  0
 78 74  1  0
 79 80  2  0
 80 81  1  0
 82 81  2  0
 83 82  1  0
 84 58  1  0
 84 85  1  0
 84 94  1  0
 85 88  1  0
 86 90  1  0
 86 85  1  0
 87 86  2  0
 90 89  1  0
 90 92  1  0
 92 93  1  0
 92 91  1  0
 94 97  1  1
 94 95  1  0
 96 94  1  0
M  ISO  4   8 100  11 100  56 101  57 101
M  END
>  <TORSDO>  (67) 
F 23

>  <SCORE>  (67) 
1.013

>  <name>  (67) 
66

>  <ligand_id>  (67) 
66

>  <original_smiles>  (67) 
[H]OC1([H])C2(C(=O)N3C([H])([H])C([H])([H])C([H])([H])C([H])(n4nc(-c5c([H])c([H])c(Oc6c([H])c([H])c(F)c([H])c6F)c([H])c5[H])c(C(=O)N([H])[H])c4N([H])[H])C3([H])[H])C([H])([H])C([H])(C(=C([H])[H])C([H])([H])[H])C([H])([H])C2([H])C([H])([H])[N+]([H])(C([H])([H])C([H])([H])C([H])([H])C([H])([H])C([H])([H])Oc2c([H])c([H])c3c(c2[H])C([H])([H])N(C(=O)C([H])(N([H])C(=O)C([H])(N([H])C([H])([H])[H])C([H])([H])[H])C(C([H])([H])[H])(C([H])([H])[H])C([H])([H])[H])C([H])(C(=O)N([H])C2([H])c4c([H])c([H])c([H])c([H])c4C([H])([H])C([H])([H])C2([H])[H])C3([H])[H])C1([H])[H]

>  <smiles>  (67) 
[H]OC1([H])C2(C(=O)N3C([H])([H])C([H])([H])C([H])([H])C([H])(n4nc(-c5c([H])c([H])c(Oc6c([H])c([H])c(F)c([H])c6F)c([H])c5[H])c(C(=O)N([H])[H])c4N([H])[H])C3([H])[H])C([H])([H])C([H])(C(=C([H])[H])C([H])([H])[H])C([H])([H])C2([H])C([H])([H])[N+]([H])(C([H])([H])C([H])([H])C([H])([H])C([H])([H])C([H])([H])Oc2c([H])c([H])c3c(c2[H])C([H])([H])N(C(=O)C([H])(N([H])C(=O)C([H])(N([H])C([H])([H])[H])C([H])([H])[H])C(C([H])([H])[H])(C([H])([H])[H])C([H])([H])[H])C([H])(C(=O)N([H])C2([H])c4c([H])c([H])c([H])c([H])c4C([H])([H])C([H])([H])C2([H])[H])C3([H])[H])C1([H])[H]

$$$$
67:0:0
     RDKit          3D

 93102  0  0  1  0  0  0  0  0999 V2000
  -29.7570  -20.7100   21.1560 C   0  0  0  0  0  0  0  0  0  0  0  0
  -29.9910  -19.3750   21.0070 N   0  0  0  0  0  0  0  0  0  0  0  0
  -29.4840  -19.2560   16.0340 C   0  0  0  0  0  2  0  0  0  0  0  0
  -29.8250  -20.2940   17.1030 C   0  0  0  0  0  2  0  0  0  0  0  0
  -28.8990  -18.0190   16.7130 C   0  0  0  0  0  2  0  0  0  0  0  0
  -30.9070  -19.7470   18.0440 C   0  0  0  0  0  2  0  0  0  0  0  0
  -29.0700  -16.4310   18.6690 C   0  0  0  0  0  2  0  0  0  0  0  0
  -29.5420  -16.5950   20.1480 C   0  0  0  0  0  3  0  0  0  0  0  0
  -29.8620  -17.3830   17.7440 C   0  0  0  0  0  3  0  0  0  0  0  0
  -30.5660  -18.3810   18.6900 C   0  0  0  0  0  3  0  0  0  0  0  0
  -29.6880  -18.2980   19.9430 C   0  0  0  0  0  3  0  0  0  0  0  0
  -30.5580  -15.2560   20.2970 C   0  0  0  0  0  0  0  0  0  0  0  0
  -30.5710  -12.8510   19.4740 C   0  0  0  0  0  2  0  0  0  0  0  0
  -29.6420  -12.7030   18.2400 C   0  0  0  0  0  2  0  0  0  0  0  0
  -28.1620  -12.5310   18.6520 C   0  0  0  0  0  2  0  0  0  0  0  0
  -27.7270  -13.4510   19.8240 C   0  0  0  0  0  3  0  0  0  0  0  0
  -28.7880  -13.5150   20.9420 C   0  0  0  0  0  2  0  0  0  0  0  0
  -30.0580  -13.9480   20.3420 N   0  0  0  0  0  0  0  0  0  0  0  0
  -31.7760  -15.3640   20.1060 O   0  0  0  0  0  0  0  0  0  0  0  0
  -25.3490  -14.0160   20.5780 C   0  0  0  0  0  0  0  0  0  0  0  0
  -24.2880  -13.2290   20.9310 C   0  0  0  0  0  0  0  0  0  0  0  0
  -24.7630  -11.8830   20.8830 C   0  0  0  0  0  0  0  0  0  0  0  0
  -26.3960  -13.1440   20.3270 N   0  0  0  0  0  0  0  0  0  0  0  0
  -26.0550  -11.8570   20.5760 N   0  0  0  0  0  0  0  0  0  0  0  0
  -24.0490  -10.6140   21.0530 C   0  0  0  0  0  0  0  0  0  0  0  0
  -24.4750   -9.6490   21.9920 C   0  0  0  0  0  3  0  0  0  0  0  0
  -23.7600   -8.4430   22.1500 C   0  0  0  0  0  3  0  0  0  0  0  0
  -22.6070   -8.1930   21.3690 C   0  0  0  0  0  0  0  0  0  0  0  0
  -22.2030   -9.1470   20.4190 C   0  0  0  0  0  3  0  0  0  0  0  0
  -22.9170  -10.3450   20.2590 C   0  0  0  0  0  3  0  0  0  0  0  0
  -21.8660   -7.0380   21.4370 O   0  0  0  0  0  0  0  0  0  0  0  0
  -21.7880   -6.3000   22.5900 C   0  0  0  0  0  0  0  0  0  0  0  0
  -21.2830   -6.8480   23.7910 C   0  0  0  0  0  3  0  0  0  0  0  0
  -21.1540   -6.0350   24.9350 C   0  0  0  0  0  3  0  0  0  0  0  0
  -21.5180   -4.6770   24.8790 C   0  0  0  0  0  0  0  0  0  0  0  0
  -22.0140   -4.1290   23.6830 C   0  0  0  0  0  3  0  0  0  0  0  0
  -22.1460   -4.9390   22.5410 C   0  0  0  0  0  0  0  0  0  0  0  0
  -22.6040   -4.4020   21.3850 F   0  0  0  0  0  0  0  0  0  0  0  0
  -21.3870   -3.8940   25.9750 F   0  0  0  0  0  0  0  0  0  0  0  0
  -22.8860  -13.6930   21.2040 C   0  0  0  0  0  0  0  0  0  0  0  0
  -22.1630  -12.9830   22.0610 N   0  0  0  0  0  0  0  0  0  0  0  0
  -22.4420  -14.7190   20.6910 O   0  0  0  0  0  0  0  0  0  0  0  0
  -22.5360  -12.1540   22.4990 H   0  0  0  0  0  0  0  0  0  0  0  0
  -21.2200  -13.2740   22.2830 H   0  0  0  0  0  0  0  0  0  0  0  0
  -25.5040  -15.3910   20.4260 N   0  0  0  0  0  0  0  0  0  0  0  0
  -24.7390  -16.0400   20.5690 H   0  0  0  0  0  0  0  0  0  0  0  0
  -26.3610  -15.8440   20.1360 H   0  0  0  0  0  0  0  0  0  0  0  0
  -31.8980  -21.6490   22.1480 C   0  0  0  0  0  1  0  0  0  0  0  0
  -30.4390  -21.2430   22.4090 C   0  0  0  0  0  2  0  0  0  0  0  0
  -28.9560  -21.9590   20.3790 C   0  0  0  0  0  2  0  0  0  0  0  0
  -29.0290  -23.5960   20.8430 C   0  0  0  0  0  3  0  0  0  0  0  0
  -28.1550  -24.8930   20.2100 C   0  0  0  0  0  3  0  0  0  0  0  0
  -28.3270  -26.4080   20.5340 O   0  0  0  0  0  0  0  0  0  0  0  0
  -24.6690  -32.0890   23.4470 C   0  0  0  0  0  0  0  0  0  0  0  0
  -27.2640  -27.3800   20.4310 C   0  0  0  0  0  0  0  0  0  0  0  0
  -23.4770  -30.7000   21.7950 C   0  0  0  0  0  3  0  0  0  0  0  0
  -24.9330  -29.1240   20.3750 C   0  0  0  0  0  0  0  0  0  0  0  0
  -26.0310  -30.9610   21.6500 C   0  0  0  0  0  2  0  0  0  0  0  0
  -26.1060  -29.5690   20.9980 C   0  0  0  0  0  0  0  0  0  0  0  0
  -27.2680  -28.7110   21.0110 C   0  0  0  0  0  3  0  0  0  0  0  0
  -26.0680  -27.0390   19.7600 C   0  0  0  0  0  3  0  0  0  0  0  0
  -24.9280  -27.8730   19.7380 C   0  0  0  0  0  3  0  0  0  0  0  0
  -23.7060  -30.0220   20.4160 C   0  0  0  0  0  2  0  0  0  0  0  0
  -24.7450  -31.2720   22.3520 N   0  0  0  0  0  0  0  0  0  0  0  0
  -23.5790  -32.3760   23.9670 O   0  0  0  0  0  0  0  0  0  0  0  0
  -22.7860  -29.6940   22.7500 C   0  0  0  0  0  0  0  0  0  0  0  0
  -21.4660  -29.5000   22.5870 N   0  0  0  0  0  0  0  0  0  0  0  0
  -23.4440  -29.0900   23.6010 O   0  0  0  0  0  0  0  0  0  0  0  0
  -20.9920  -30.0390   21.8760 H   0  0  0  0  0  0  0  0  0  0  0  0
  -18.0930  -28.2450   22.9970 C   0  0  0  0  0  0  0  0  0  0  0  0
  -20.6370  -28.5600   23.3460 C   0  0  0  0  0  3  0  0  0  0  0  0
  -20.7830  -27.1220   22.7980 C   0  0  0  0  0  2  0  0  0  0  0  0
  -19.7230  -26.7620   21.7530 C   0  0  0  0  0  2  0  0  0  0  0  0
  -18.3170  -26.8900   22.3480 C   0  0  0  0  0  2  0  0  0  0  0  0
  -19.1820  -29.0360   23.4510 C   0  0  0  0  0  0  0  0  0  0  0  0
  -18.9180  -30.3020   24.0160 C   0  0  0  0  0  3  0  0  0  0  0  0
  -17.5980  -30.7780   24.1340 C   0  0  0  0  0  3  0  0  0  0  0  0
  -16.5230  -29.9850   23.6960 C   0  0  0  0  0  3  0  0  0  0  0  0
  -16.7720  -28.7210   23.1340 C   0  0  0  0  0  3  0  0  0  0  0  0
  -25.9440  -32.7180   24.0850 C   0  0  0  0  0  3  0  0  0  0  0  0
  -25.6520  -34.1300   24.3740 N   0  0  0  0  0  0  0  0  0  0  0  0
  -25.9910  -35.1580   23.5830 C   0  0  0  0  0  0  0  0  0  0  0  0
  -26.6490  -35.0150   22.5510 O   0  0  0  0  0  0  0  0  0  0  0  0
  -25.0640  -34.3160   25.1740 H   0  0  0  0  0  0  0  0  0  0  0  0
  -24.2600  -36.9500   23.2250 C   0  0  0  0  0  1  0  0  0  0  0  0
  -25.5280  -36.5670   24.0070 C   0  0  0  0  0  3  0  0  0  0  0  0
  -27.6900  -37.4760   24.7330 C   0  0  0  0  0  1  0  0  0  0  0  0
  -26.5600  -37.6090   23.8170 N   0  0  0  0  0  0  0  0  0  0  0  0
  -26.1630  -38.5360   23.9360 H   0  0  0  0  0  0  0  0  0  0  0  0
  -26.4120  -31.9750   25.3990 C   0  0  1  0  0  0  0  0  0  0  0  0
  -25.2800  -31.7680   26.4330 C   0  0  0  0  0  1  0  0  0  0  0  0
  -27.0010  -30.5850   25.0640 C   0  0  0  0  0  1  0  0  0  0  0  0
  -27.5420  -32.7800   26.0810 C   0  0  0  0  0  1  0  0  0  0  0  0
  1 49  1  0
  2  1  2  0
  3  5  1  0
  3  4  1  0
  4  6  1  0
  7  8  1  0
  8 12  1  0
  9  5  1  0
  9  7  1  0
  9 10  1  0
 10  6  1  0
 10 11  1  0
 11  8  1  0
 11  2  1  0
 12 18  1  0
 13 18  1  0
 14 15  1  0
 14 13  1  0
 16 15  1  0
 16 23  1  0
 16 17  1  0
 18 17  1  0
 19 12  2  0
 20 21  2  0
 21 40  1  0
 22 21  1  0
 22 25  1  0
 23 24  1  0
 23 20  1  0
 24 22  2  0
 25 26  1  0
 26 27  2  0
 28 31  1  0
 28 27  1  0
 29 28  2  0
 30 29  1  0
 30 25  2  0
 31 32  1  0
 32 33  1  0
 33 34  2  0
 35 34  1  0
 35 39  1  0
 36 35  2  0
 37 32  2  0
 37 36  1  0
 38 37  1  0
 40 41  1  0
 41 44  1  0
 41 43  1  0
 42 40  2  0
 45 46  1  0
 45 20  1  0
 47 45  1  0
 48 49  1  0
 50 51  1  0
 50  1  1  0
 52 53  1  0
 52 51  2  0
 54 65  2  0
 55 53  1  0
 55 60  1  0
 56 64  1  0
 56 66  1  0
 57 63  1  0
 57 59  1  0
 58 64  1  0
 59 60  2  0
 59 58  1  0
 61 55  2  0
 62 61  1  0
 62 57  2  0
 63 56  1  0
 64 54  1  0
 66 68  2  0
 67 66  1  0
 69 67  1  0
 70 79  2  0
 70 75  1  0
 71 67  1  0
 71 75  1  0
 72 71  1  0
 73 74  1  0
 73 72  1  0
 74 70  1  0
 75 76  2  0
 76 77  1  0
 78 77  2  0
 79 78  1  0
 80 54  1  0
 80 81  1  0
 80 90  1  0
 81 84  1  0
 82 86  1  0
 82 81  1  0
 83 82  2  0
 86 85  1  0
 88 89  1  0
 88 86  1  0
 88 87  1  0
 90 93  1  1
 90 91  1  0
 92 90  1  0
M  ISO  4   8 100  12 100  52 101  53 101
M  END
>  <TORSDO>  (68) 
F 21

>  <SCORE>  (68) 
-13.106

>  <name>  (68) 
67

>  <ligand_id>  (68) 
67

>  <original_smiles>  (68) 
[H]c1c([H])c([H])c2c(c1[H])C([H])([H])C([H])([H])C([H])([H])C2([H])N([H])C(=O)C1([H])N(C(=O)C([H])(N([H])C(=O)C([H])(N([H])C([H])([H])[H])C([H])([H])[H])C(C([H])([H])[H])(C([H])([H])[H])C([H])([H])[H])C([H])([H])c2c([H])c(OC([H])([H])C([H])([H])C([H])([H])C(=NC3([H])C([H])(C(=O)N4C([H])([H])C([H])([H])C([H])([H])C([H])(n5nc(-c6c([H])c([H])c(Oc7c([H])c([H])c(F)c([H])c7F)c([H])c6[H])c(C(=O)N([H])[H])c5N([H])[H])C4([H])[H])C([H])([H])C4([H])C([H])([H])C([H])([H])C([H])([H])C([H])([H])C34[H])C([H])([H])C([H])([H])[H])c([H])c([H])c2C1([H])[H]

>  <smiles>  (68) 
[H]c1c([H])c([H])c2c(c1[H])C([H])([H])C([H])([H])C([H])([H])C2([H])N([H])C(=O)C1([H])N(C(=O)C([H])(N([H])C(=O)C([H])(N([H])C([H])([H])[H])C([H])([H])[H])C(C([H])([H])[H])(C([H])([H])[H])C([H])([H])[H])C([H])([H])c2c([H])c(OC([H])([H])C([H])([H])C([H])([H])C(=NC3([H])C([H])(C(=O)N4C([H])([H])C([H])([H])C([H])([H])C([H])(n5nc(-c6c([H])c([H])c(Oc7c([H])c([H])c(F)c([H])c7F)c([H])c6[H])c(C(=O)N([H])[H])c5N([H])[H])C4([H])[H])C([H])([H])C4([H])C([H])([H])C([H])([H])C([H])([H])C([H])([H])C34[H])C([H])([H])C([H])([H])[H])c([H])c([H])c2C1([H])[H]

$$$$
68:0:0
     RDKit          3D

 96 96  0  0  1  0  0  0  0  0999 V2000
  -21.7140  -30.4700   25.2870 C   0  0  0  0  0  2  0  0  0  0  0  0
  -22.9210  -29.8720   25.9920 C   0  0  0  0  0  2  0  0  0  0  0  0
  -22.0280  -31.0900   23.8720 C   0  0  0  0  0  2  0  0  0  0  0  0
  -23.4300  -28.5170   25.4230 C   0  0  0  0  0  2  0  0  0  0  0  0
  -23.0990  -30.3800   22.9410 C   0  0  0  0  0  1  0  0  0  0  0  0
  -24.1420  -28.5810   24.0490 C   0  0  0  0  0  1  0  0  0  0  0  0
  -25.9080  -25.3100   23.3830 C   0  0  0  0  0  2  0  0  0  0  0  0
  -25.1610  -26.8300   23.7330 N   0  0  0  0  0  2  0  0  0  0  0  0
  -26.8750  -25.3520   24.1410 O   0  0  0  0  0  1  0  0  0  0  0  0
  -25.8910  -27.0410   24.3970 H   0  0  0  0  0  0  0  0  0  0  0  0
  -24.8750  -21.8900   23.7150 C   0  0  0  0  0  2  0  0  0  0  0  0
  -24.7560  -22.8970   22.5640 C   0  0  0  0  0  2  0  0  0  0  0  0
  -26.0790  -20.9700   23.4130 C   0  0  0  0  0  2  0  0  0  0  0  0
  -26.1780  -23.4360   22.4520 C   0  0  0  0  0  1  0  0  0  0  0  0
  -27.0700  -21.6580   22.5450 N   0  0  0  0  0  2  0  0  0  0  0  0
  -27.8230  -21.9170   23.1630 H   0  0  0  0  0  0  0  0  0  0  0  0
  -27.9140  -20.1270   21.5710 C   0  0  0  0  0 15  0  0  0  0  0  0
  -28.5500  -17.9510   21.5640 C   0  0  0  0  0 15  0  0  0  0  0  0
  -29.6250  -16.2290   20.8510 C   0  0  0  0  0  2  0  0  0  0  0  0
  -30.2870  -13.6300   19.7870 C   0  0  0  0  0  2  0  0  0  0  0  0
  -29.5840  -12.9380   18.5410 C   0  0  0  0  0  2  0  0  0  0  0  0
  -28.2130  -12.3600   18.9040 C   0  0  0  0  0  2  0  0  0  0  0  0
  -27.5470  -13.3450   19.8780 C   0  0  0  0  0  3  0  0  0  0  0  0
  -28.4100  -13.7730   21.0890 C   0  0  0  0  0  2  0  0  0  0  0  0
  -29.4360  -14.7130   20.5970 N   0  0  0  0  0  0  0  0  0  0  0  0
  -30.8540  -16.2450   20.5090 O   0  0  0  0  0  1  0  0  0  0  0  0
  -25.1990  -13.8250   20.5740 C   0  0  0  0  0  0  0  0  0  0  0  0
  -24.1460  -13.0370   20.9250 C   0  0  0  0  0  0  0  0  0  0  0  0
  -24.6210  -11.6900   20.8720 C   0  0  0  0  0  0  0  0  0  0  0  0
  -26.2340  -12.9590   20.3140 N   0  0  0  0  0  0  0  0  0  0  0  0
  -25.9130  -11.6630   20.5610 N   0  0  0  0  0  0  0  0  0  0  0  0
  -23.8990  -10.4260   21.0400 C   0  0  0  0  0  0  0  0  0  0  0  0
  -24.3580   -9.4210   21.9190 C   0  0  0  0  0  3  0  0  0  0  0  0
  -23.6270   -8.2240   22.0760 C   0  0  0  0  0  3  0  0  0  0  0  0
  -22.4260   -8.0270   21.3550 C   0  0  0  0  0  0  0  0  0  0  0  0
  -21.9870   -9.0220   20.4650 C   0  0  0  0  0  3  0  0  0  0  0  0
  -22.7180  -10.2100   20.3040 C   0  0  0  0  0  3  0  0  0  0  0  0
  -21.6640   -6.8870   21.4250 O   0  0  0  0  0  0  0  0  0  0  0  0
  -21.6850   -6.0720   22.5280 C   0  0  0  0  0  0  0  0  0  0  0  0
  -21.4010   -6.5630   23.8220 C   0  0  0  0  0  3  0  0  0  0  0  0
  -21.3640   -5.6780   24.9170 C   0  0  0  0  0  3  0  0  0  0  0  0
  -21.6040   -4.3040   24.7230 C   0  0  0  0  0  0  0  0  0  0  0  0
  -21.8820   -3.8140   23.4350 C   0  0  0  0  0  3  0  0  0  0  0  0
  -21.9210   -4.6950   22.3410 C   0  0  0  0  0  0  0  0  0  0  0  0
  -22.1660   -4.2150   21.0980 F   0  0  0  0  0  0  0  0  0  0  0  0
  -21.5630   -3.4520   25.7730 F   0  0  0  0  0  0  0  0  0  0  0  0
  -22.7510  -13.5170   21.1890 C   0  0  0  0  0  0  0  0  0  0  0  0
  -22.0130  -12.8220   22.0470 N   0  0  0  0  0  0  0  0  0  0  0  0
  -22.3260  -14.5500   20.6740 O   0  0  0  0  0  0  0  0  0  0  0  0
  -22.3720  -11.9900   22.4910 H   0  0  0  0  0  0  0  0  0  0  0  0
  -21.0740  -13.1290   22.2620 H   0  0  0  0  0  0  0  0  0  0  0  0
  -25.3660  -15.2000   20.4320 N   0  0  0  0  0  0  0  0  0  0  0  0
  -24.6030  -15.8570   20.5500 H   0  0  0  0  0  0  0  0  0  0  0  0
  -26.2160  -15.6380   20.0950 H   0  0  0  0  0  0  0  0  0  0  0  0
  -24.0350  -31.1170   20.9210 C   0  0  0  0  0 15  0  0  0  0  0  0
  -25.6760  -30.3990   20.0530 O   0  0  0  0  0  1  0  0  0  0  0  0
  -25.3870  -31.4030   23.2560 C   0  0  0  0  0  0  0  0  0  0  0  0
  -26.5470  -29.3110   19.3430 C   0  0  0  0  0  3  0  0  0  0  0  0
  -24.0400  -28.8290   21.5710 C   0  0  0  0  0  3  0  0  0  0  0  0
  -25.2940  -27.7600   20.5930 C   0  0  1  0  0  0  0  0  0  0  0  0
  -26.5980  -29.5740   22.1890 C   0  0  0  0  0  2  0  0  0  0  0  0
  -26.4830  -28.4850   21.1640 C   0  0  0  0  0  3  0  0  0  0  0  0
  -27.4440  -28.8110   20.2540 C   0  0  0  0  0  2  0  0  0  0  0  0
  -26.1650  -28.0840   18.6540 C   0  0  0  0  0  2  0  0  0  0  0  0
  -25.4990  -27.1380   19.3960 C   0  0  0  0  0  2  0  0  0  0  0  0
  -24.0480  -28.4610   20.2280 C   0  0  0  0  0  2  0  0  0  0  0  0
  -25.3670  -30.0280   22.4740 N   0  0  0  0  0  2  0  0  0  0  0  0
  -24.4260  -32.1330   23.6390 O   0  0  0  0  0  0  0  0  0  0  0  0
  -22.6280  -28.0890   22.0270 C   0  0  0  0  0  0  0  0  0  0  0  0
  -21.3370  -28.5820   22.0800 N   0  0  0  0  0  0  0  0  0  0  0  0
  -22.8490  -27.1040   22.6320 O   0  0  0  0  0  0  0  0  0  0  0  0
  -21.1380  -29.4900   21.6920 H   0  0  0  0  0  0  0  0  0  0  0  0
  -17.9010  -28.1340   22.7180 C   0  0  0  0  0  0  0  0  0  0  0  0
  -20.4100  -28.0770   23.0870 C   0  0  0  0  0  3  0  0  0  0  0  0
  -20.1990  -26.5890   22.7770 C   0  0  0  0  0  2  0  0  0  0  0  0
  -19.4010  -26.4480   21.5140 C   0  0  0  0  0  2  0  0  0  0  0  0
  -17.9850  -26.8650   21.8870 C   0  0  0  0  0  2  0  0  0  0  0  0
  -19.0450  -28.8050   23.1950 C   0  0  0  0  0  0  0  0  0  0  0  0
  -18.8150  -30.0660   23.8060 C   0  0  0  0  0  3  0  0  0  0  0  0
  -17.5430  -30.6220   24.0000 C   0  0  0  0  0  3  0  0  0  0  0  0
  -16.4330  -29.8860   23.5930 C   0  0  0  0  0  3  0  0  0  0  0  0
  -16.6170  -28.6590   22.9400 C   0  0  0  0  0  3  0  0  0  0  0  0
  -26.4870  -32.3240   23.8220 C   0  0  0  0  0  3  0  0  0  0  0  0
  -26.0220  -33.7560   24.1610 N   0  0  0  0  0  0  0  0  0  0  0  0
  -26.0530  -34.8720   23.4190 C   0  0  0  0  0  0  0  0  0  0  0  0
  -26.6060  -34.8820   22.3210 O   0  0  0  0  0  0  0  0  0  0  0  0
  -25.4570  -33.8070   24.9940 H   0  0  0  0  0  0  0  0  0  0  0  0
  -24.1790  -36.6250   23.2670 C   0  0  0  0  0  1  0  0  0  0  0  0
  -25.4660  -36.1930   23.9990 C   0  0  0  0  0  3  0  0  0  0  0  0
  -27.5620  -37.1690   24.8540 C   0  0  0  0  0  1  0  0  0  0  0  0
  -26.4200  -37.3260   23.9600 N   0  0  0  0  0  0  0  0  0  0  0  0
  -25.9500  -38.1880   24.2100 H   0  0  0  0  0  0  0  0  0  0  0  0
  -26.9160  -31.6850   25.1810 C   0  0  1  0  0  0  0  0  0  0  0  0
  -25.8630  -31.4660   26.2820 C   0  0  0  0  0  1  0  0  0  0  0  0
  -27.6180  -30.3400   24.9680 C   0  0  0  0  0  1  0  0  0  0  0  0
  -27.9490  -32.6260   25.8130 C   0  0  0  0  0  1  0  0  0  0  0  0
  1  2  1  0
  3  1  1  0
  4  2  1  0
  5  3  1  0
  6  4  1  0
  7  8  1  0
  7  9  1  0
  8 10  1  0
 12 11  1  0
 13 11  1  0
 14 12  1  0
 15 16  1  0
 15 13  1  0
 20 25  1  0
 21 22  1  0
 21 20  1  0
 23 22  1  0
 23 30  1  0
 23 24  1  0
 25 19  1  0
 25 24  1  0
 26 19  1  0
 27 28  2  0
 28 47  1  0
 29 28  1  0
 29 32  1  0
 30 31  1  0
 30 27  1  0
 31 29  2  0
 32 33  1  0
 33 34  2  0
 35 38  1  0
 35 34  1  0
 36 35  2  0
 37 36  1  0
 37 32  2  0
 38 39  1  0
 39 40  1  0
 40 41  2  0
 42 41  1  0
 42 46  1  0
 43 42  2  0
 44 39  2  0
 44 43  1  0
 45 44  1  0
 47 48  1  0
 48 51  1  0
 48 50  1  0
 49 47  2  0
 52 53  1  0
 52 27  1  0
 54 52  1  0
 57 68  2  0
 58 56  1  0
 58 63  1  0
 59 69  1  0
 60 65  1  6
 60 62  1  0
 60 59  1  0
 61 67  1  0
 62 61  1  0
 63 62  1  0
 64 58  1  0
 64 65  1  0
 66 60  1  0
 66 59  1  0
 67 57  1  0
 69 70  1  0
 69 71  2  0
 72 70  1  0
 73 82  2  0
 73 78  1  0
 74 70  1  0
 74 78  1  0
 75 74  1  0
 76 77  1  0
 76 75  1  0
 77 73  1  0
 78 79  2  0
 79 80  1  0
 81 80  2  0
 82 81  1  0
 83 57  1  0
 83 84  1  0
 83 93  1  0
 84 87  1  0
 85 89  1  0
 85 84  1  0
 86 85  2  0
 89 88  1  0
 91 89  1  0
 91 92  1  0
 91 90  1  0
 93 96  1  1
 93 94  1  0
 95 93  1  0
M  ISO  4  18 100  19 100  55 101  56 101
M  END
>  <TORSDO>  (69) 
F 21

>  <SCORE>  (69) 
19.390

>  <name>  (69) 
68

>  <ligand_id>  (69) 
68

>  <original_smiles>  (69) 
[H]c1c([H])c([H])c2c(c1[H])C([H])([H])C([H])([H])C([H])([H])C2([H])N([H])C(=O)C1([H])N(C(=O)C([H])(N([H])C(=O)C([H])(N([H])C([H])([H])[H])C([H])([H])[H])C(C([H])([H])[H])(C([H])([H])[H])C([H])([H])[H])C([H])([H])c2c([H])c(OC([H])([H])C3([H])C([H])([H])C([H])([H])C([H])([H])C([H])([H])C3([H])N([H])C(=O)C3([H])C([H])([H])C([H])([H])C([H])([H])[N+]3([H])C([H])([H])C([H])([H])C(=O)N3C([H])([H])C([H])([H])C([H])([H])C([H])(n4nc(-c5c([H])c([H])c(Oc6c([H])c([H])c(F)c([H])c6F)c([H])c5[H])c(C(=O)N([H])[H])c4N([H])[H])C3([H])[H])c([H])c([H])c2C1([H])[H]

>  <smiles>  (69) 
[H]c1c([H])c([H])c2c(c1[H])C([H])([H])C([H])([H])C([H])([H])C2([H])N([H])C(=O)C1([H])N(C(=O)C([H])(N([H])C(=O)C([H])(N([H])C([H])([H])[H])C([H])([H])[H])C(C([H])([H])[H])(C([H])([H])[H])C([H])([H])[H])C([H])([H])c2c([H])c(OC([H])([H])C3([H])C([H])([H])C([H])([H])C([H])([H])C([H])([H])C3([H])N([H])C(=O)C3([H])C([H])([H])C([H])([H])C([H])([H])[N+]3([H])C([H])([H])C([H])([H])C(=O)N3C([H])([H])C([H])([H])C([H])([H])C([H])(n4nc(-c5c([H])c([H])c(Oc6c([H])c([H])c(F)c([H])c6F)c([H])c5[H])c(C(=O)N([H])[H])c4N([H])[H])C3([H])[H])c([H])c([H])c2C1([H])[H]

$$$$
69:0:0
     RDKit          3D

 94102  0  0  1  0  0  0  0  0999 V2000
  -30.0170  -21.2410   23.1200 C   0  0  0  0  0  0  0  0  0  0  0  0
  -31.0710  -22.1060   23.7990 C   0  0  0  0  0  1  0  0  0  0  0  0
  -29.0640  -21.6680   22.3880 N   0  0  0  0  0  0  0  0  0  0  0  0
  -30.1510  -19.7430   23.3450 C   0  0  0  0  0  2  0  0  0  0  0  0
  -32.3940  -19.0050   22.2710 C   0  0  0  0  0  2  0  0  0  0  0  0
  -32.8570  -17.7810   21.4670 C   0  0  0  0  0  2  0  0  0  0  0  0
  -30.4950  -17.5400   22.0320 C   0  0  0  0  0  3  0  0  0  0  0  0
  -30.8620  -19.0260   22.1700 C   0  0  0  0  0  3  0  0  0  0  0  0
  -31.5960  -16.9580   21.1220 C   0  0  0  0  0  3  0  0  0  0  0  0
  -28.6030  -17.8860   20.3970 C   0  0  0  0  0  2  0  0  0  0  0  0
  -29.0820  -17.2990   21.5060 C   0  0  0  0  0  0  0  0  0  0  0  0
  -28.2300  -16.3490   22.3250 C   0  0  0  0  0  1  0  0  0  0  0  0
  -31.7570  -15.4250   21.2730 C   0  0  0  0  0  2  0  0  0  0  0  0
  -31.8380  -14.6560   19.9370 C   0  0  0  0  0  0  0  0  0  0  0  0
  -31.1570  -12.7850   18.4690 C   0  0  0  0  0  2  0  0  0  0  0  0
  -30.1480  -13.2050   17.3840 C   0  0  0  0  0  2  0  0  0  0  0  0
  -28.7070  -13.1430   17.9230 C   0  0  0  0  0  2  0  0  0  0  0  0
  -28.5560  -13.8670   19.2850 C   0  0  0  0  0  3  0  0  0  0  0  0
  -29.6540  -13.4060   20.2690 C   0  0  0  0  0  2  0  0  0  0  0  0
  -30.9700  -13.6470   19.6480 N   0  0  0  0  0  0  0  0  0  0  0  0
  -32.7760  -14.9410   19.1840 O   0  0  0  0  0  0  0  0  0  0  0  0
  -26.2470  -14.6170   20.1450 C   0  0  0  0  0  0  0  0  0  0  0  0
  -25.1570  -13.9100   20.5750 C   0  0  0  0  0  0  0  0  0  0  0  0
  -25.5270  -12.5320   20.5010 C   0  0  0  0  0  0  0  0  0  0  0  0
  -27.2190  -13.6760   19.8440 N   0  0  0  0  0  0  0  0  0  0  0  0
  -26.7900  -12.4150   20.1100 N   0  0  0  0  0  0  0  0  0  0  0  0
  -24.7350  -11.3160   20.7250 C   0  0  0  0  0  0  0  0  0  0  0  0
  -25.1390  -10.3310   21.6530 C   0  0  0  0  0  3  0  0  0  0  0  0
  -24.3510   -9.1790   21.8620 C   0  0  0  0  0  3  0  0  0  0  0  0
  -23.1440   -9.0050   21.1430 C   0  0  0  0  0  0  0  0  0  0  0  0
  -22.7600   -9.9770   20.2020 C   0  0  0  0  0  3  0  0  0  0  0  0
  -23.5480  -11.1190   19.9920 C   0  0  0  0  0  3  0  0  0  0  0  0
  -22.3290   -7.9060   21.2620 O   0  0  0  0  0  0  0  0  0  0  0  0
  -22.1660   -7.2550   22.4580 C   0  0  0  0  0  0  0  0  0  0  0  0
  -21.7710   -7.9390   23.6280 C   0  0  0  0  0  3  0  0  0  0  0  0
  -21.5460   -7.2230   24.8210 C   0  0  0  0  0  3  0  0  0  0  0  0
  -21.7090   -5.8250   24.8450 C   0  0  0  0  0  0  0  0  0  0  0  0
  -22.0980   -5.1410   23.6790 C   0  0  0  0  0  3  0  0  0  0  0  0
  -22.3230   -5.8550   22.4890 C   0  0  0  0  0  0  0  0  0  0  0  0
  -22.6780   -5.1900   21.3630 F   0  0  0  0  0  0  0  0  0  0  0  0
  -21.4880   -5.1340   25.9880 F   0  0  0  0  0  0  0  0  0  0  0  0
  -23.8140  -14.4700   20.9440 C   0  0  0  0  0  0  0  0  0  0  0  0
  -23.1210  -13.8350   21.8830 N   0  0  0  0  0  0  0  0  0  0  0  0
  -23.3900  -15.5090   20.4360 O   0  0  0  0  0  0  0  0  0  0  0  0
  -23.4780  -12.9960   22.3160 H   0  0  0  0  0  0  0  0  0  0  0  0
  -22.2220  -14.1930   22.1720 H   0  0  0  0  0  0  0  0  0  0  0  0
  -26.4830  -15.9760   19.9670 N   0  0  0  0  0  0  0  0  0  0  0  0
  -25.7800  -16.6790   20.1570 H   0  0  0  0  0  0  0  0  0  0  0  0
  -27.3620  -16.3670   19.6510 H   0  0  0  0  0  0  0  0  0  0  0  0
  -28.9080  -23.0720   22.0610 C   0  0  0  0  0  2  0  0  0  0  0  0
  -29.6710  -23.4090   20.7670 C   0  0  0  0  0  2  0  0  0  0  0  0
  -29.0870  -24.6010   19.9950 C   0  0  0  0  0  2  0  0  0  0  0  0
  -29.0840  -25.9110   20.7890 C   0  0  0  0  0  2  0  0  0  0  0  0
  -28.8560  -26.9760   19.8830 O   0  0  0  0  0  0  0  0  0  0  0  0
  -24.8340  -31.7000   23.3560 C   0  0  0  0  0  0  0  0  0  0  0  0
  -27.6450  -27.6060   19.9970 C   0  0  0  0  0  0  0  0  0  0  0  0
  -23.6900  -30.3970   21.5910 C   0  0  0  0  0  3  0  0  0  0  0  0
  -25.2050  -29.0010   20.0890 C   0  0  0  0  0  0  0  0  0  0  0  0
  -26.2010  -30.8440   21.4590 C   0  0  0  0  0  2  0  0  0  0  0  0
  -26.3330  -29.5230   20.7320 C   0  0  0  0  0  0  0  0  0  0  0  0
  -27.5600  -28.8300   20.6890 C   0  0  0  0  0  3  0  0  0  0  0  0
  -26.5060  -27.0770   19.3620 C   0  0  0  0  0  3  0  0  0  0  0  0
  -25.2800  -27.7730   19.4040 C   0  0  0  0  0  3  0  0  0  0  0  0
  -23.9370  -29.8220   20.1700 C   0  0  0  0  0  2  0  0  0  0  0  0
  -24.9260  -30.9890   22.1970 N   0  0  0  0  0  0  0  0  0  0  0  0
  -23.7390  -31.9060   23.8950 O   0  0  0  0  0  0  0  0  0  0  0  0
  -23.0480  -29.2930   22.4600 C   0  0  0  0  0  0  0  0  0  0  0  0
  -21.7280  -29.1060   22.3070 N   0  0  0  0  0  0  0  0  0  0  0  0
  -23.7370  -28.6080   23.2200 O   0  0  0  0  0  0  0  0  0  0  0  0
  -21.2360  -29.7140   21.6680 H   0  0  0  0  0  0  0  0  0  0  0  0
  -18.3610  -27.8490   22.6790 C   0  0  0  0  0  0  0  0  0  0  0  0
  -20.9150  -28.0980   22.9880 C   0  0  0  0  0  3  0  0  0  0  0  0
  -21.0330  -26.7230   22.2910 C   0  0  0  0  0  2  0  0  0  0  0  0
  -19.9380  -26.4830   21.2460 C   0  0  0  0  0  2  0  0  0  0  0  0
  -18.5510  -26.5640   21.8910 C   0  0  0  0  0  2  0  0  0  0  0  0
  -19.4720  -28.5780   23.1790 C   0  0  0  0  0  0  0  0  0  0  0  0
  -19.2440  -29.7850   23.8730 C   0  0  0  0  0  3  0  0  0  0  0  0
  -17.9360  -30.2630   24.0750 C   0  0  0  0  0  3  0  0  0  0  0  0
  -16.8380  -29.5300   23.5930 C   0  0  0  0  0  3  0  0  0  0  0  0
  -17.0510  -28.3250   22.9000 C   0  0  0  0  0  3  0  0  0  0  0  0
  -26.0960  -32.3080   24.0440 C   0  0  0  0  0  3  0  0  0  0  0  0
  -25.7580  -33.6750   24.4590 N   0  0  0  0  0  0  0  0  0  0  0  0
  -26.0910  -34.7790   23.7750 C   0  0  0  0  0  0  0  0  0  0  0  0
  -26.7830  -34.7510   22.7540 O   0  0  0  0  0  0  0  0  0  0  0  0
  -25.1420  -33.7680   25.2530 H   0  0  0  0  0  0  0  0  0  0  0  0
  -24.3350  -36.5580   23.5020 C   0  0  0  0  0  1  0  0  0  0  0  0
  -25.5700  -36.1260   24.3090 C   0  0  0  0  0  3  0  0  0  0  0  0
  -27.6770  -36.9910   25.2270 C   0  0  0  0  0  1  0  0  0  0  0  0
  -26.5840  -37.2020   24.2810 N   0  0  0  0  0  0  0  0  0  0  0  0
  -26.1610  -38.1030   24.4840 H   0  0  0  0  0  0  0  0  0  0  0  0
  -26.6050  -31.4590   25.2730 C   0  0  1  0  0  0  0  0  0  0  0  0
  -25.4930  -31.1150   26.2900 C   0  0  0  0  0  1  0  0  0  0  0  0
  -27.2360  -30.1320   24.7900 C   0  0  0  0  0  1  0  0  0  0  0  0
  -27.7150  -32.2320   26.0220 C   0  0  0  0  0  1  0  0  0  0  0  0
  1  4  1  0
  1  2  1  0
  3  1  2  0
  6  5  1  0
  7 11  1  0
  7  8  1  0
  8  5  1  0
  8  4  1  0
  9 13  1  0
  9  6  1  0
  9  7  1  0
 10 11  2  0
 11 12  1  0
 14 13  1  0
 15 20  1  0
 16 17  1  0
 16 15  1  0
 18 17  1  0
 18 25  1  0
 18 19  1  0
 20 14  1  0
 20 19  1  0
 21 14  2  0
 22 23  2  0
 23 42  1  0
 24 23  1  0
 24 27  1  0
 25 26  1  0
 25 22  1  0
 26 24  2  0
 27 28  1  0
 28 29  2  0
 30 33  1  0
 30 29  1  0
 31 30  2  0
 32 31  1  0
 32 27  2  0
 33 34  1  0
 34 39  2  0
 34 35  1  0
 35 36  2  0
 36 37  1  0
 37 41  1  0
 38 37  2  0
 39 38  1  0
 40 39  1  0
 42 43  1  0
 43 46  1  0
 43 45  1  0
 44 42  2  0
 47 22  1  0
 47 48  1  0
 49 47  1  0
 50  3  1  0
 51 50  1  0
 52 51  1  0
 52 53  1  0
 54 56  1  0
 54 53  1  0
 55 66  2  0
 56 61  1  0
 57 65  1  0
 57 67  1  0
 58 64  1  0
 58 60  1  0
 59 65  1  0
 60 59  1  0
 61 60  2  0
 62 63  1  0
 62 56  2  0
 63 58  2  0
 64 57  1  0
 65 55  1  0
 67 69  2  0
 68 67  1  0
 70 68  1  0
 71 80  2  0
 71 76  1  0
 72 68  1  0
 72 76  1  0
 73 72  1  0
 74 75  1  0
 74 73  1  0
 75 71  1  0
 76 77  2  0
 77 78  1  0
 79 78  2  0
 80 79  1  0
 81 55  1  0
 81 82  1  0
 81 91  1  0
 82 85  1  0
 83 87  1  0
 83 82  1  0
 84 83  2  0
 87 86  1  0
 89 87  1  0
 89 90  1  0
 89 88  1  0
 91 94  1  1
 91 92  1  0
 93 91  1  0
M  ISO  4  13 100  14 100  53 101  54 101
M  END
>  <TORSDO>  (70) 
F 24

>  <SCORE>  (70) 
-4.275

>  <name>  (70) 
69

>  <ligand_id>  (70) 
69

>  <original_smiles>  (70) 
[H]C([H])=C(C([H])([H])[H])C1([H])C([H])(C([H])([H])C(=O)N2C([H])([H])C([H])([H])C([H])([H])C([H])(n3nc(-c4c([H])c([H])c(Oc5c([H])c([H])c(F)c([H])c5F)c([H])c4[H])c(C(=O)N([H])[H])c3N([H])[H])C2([H])[H])C([H])([H])C([H])([H])C1([H])C([H])([H])C(=NC([H])([H])C([H])([H])C([H])([H])C([H])([H])Oc1c([H])c([H])c2c(c1[H])C([H])([H])N(C(=O)C([H])(N([H])C(=O)C([H])(N([H])C([H])([H])[H])C([H])([H])[H])C(C([H])([H])[H])(C([H])([H])[H])C([H])([H])[H])C([H])(C(=O)N([H])C1([H])c3c([H])c([H])c([H])c([H])c3C([H])([H])C([H])([H])C1([H])[H])C2([H])[H])C([H])([H])[H]

>  <smiles>  (70) 
[H]C([H])=C(C([H])([H])[H])C1([H])C([H])(C([H])([H])C(=O)N2C([H])([H])C([H])([H])C([H])([H])C([H])(n3nc(-c4c([H])c([H])c(Oc5c([H])c([H])c(F)c([H])c5F)c([H])c4[H])c(C(=O)N([H])[H])c3N([H])[H])C2([H])[H])C([H])([H])C([H])([H])C1([H])C([H])([H])C(=NC([H])([H])C([H])([H])C([H])([H])C([H])([H])Oc1c([H])c([H])c2c(c1[H])C([H])([H])N(C(=O)C([H])(N([H])C(=O)C([H])(N([H])C([H])([H])[H])C([H])([H])[H])C(C([H])([H])[H])(C([H])([H])[H])C([H])([H])[H])C([H])(C(=O)N([H])C1([H])c3c([H])c([H])c([H])c([H])c3C([H])([H])C([H])([H])C1([H])[H])C2([H])[H])C([H])([H])[H]

$$$$
70:0:0
     RDKit          3D

 91 99  0  0  1  0  0  0  0  0999 V2000
  -28.8500  -21.6610   19.6670 C   0  0  0  0  0  3  0  0  0  0  0  0
  -26.7820  -21.7410   18.0950 C   0  0  0  0  0  1  0  0  0  0  0  0
  -27.3860  -21.2330   19.4110 C   0  0  0  0  0  2  0  0  0  0  0  0
  -29.6110  -20.3480   20.4170 C   0  0  0  0  0  2  0  0  0  0  0  0
  -29.9080  -18.7760   19.8850 C   0  0  0  0  0  0  0  0  0  0  0  0
  -29.7680  -18.5560   18.6810 O   0  0  0  0  0  0  0  0  0  0  0  0
  -30.7150  -17.4020   23.3600 C   0  0  0  0  0  3  0  0  0  0  0  0
  -30.9720  -16.0410   23.2830 C   0  0  0  0  0  3  0  0  0  0  0  0
  -30.4380  -18.1220   22.1920 C   0  0  0  0  0  3  0  0  0  0  0  0
  -30.9780  -15.4260   22.0320 C   0  0  0  0  0  3  0  0  0  0  0  0
  -30.3610  -17.5720   20.8740 C   0  0  0  0  0  0  0  0  0  0  0  0
  -30.6890  -16.0730   20.7960 C   0  0  0  0  0  0  0  0  0  0  0  0
  -30.9900  -15.0140   19.6450 C   0  0  0  0  0  0  0  0  0  0  0  0
  -30.6290  -12.7700   18.4790 C   0  0  0  0  0  2  0  0  0  0  0  0
  -29.5560  -12.8600   17.3680 C   0  0  0  0  0  2  0  0  0  0  0  0
  -28.1440  -12.6680   17.9510 C   0  0  0  0  0  2  0  0  0  0  0  0
  -27.9250  -13.5140   19.2300 C   0  0  0  0  0  3  0  0  0  0  0  0
  -29.0940  -13.3670   20.2240 C   0  0  0  0  0  2  0  0  0  0  0  0
  -30.3270  -13.7840   19.5330 N   0  0  0  0  0  0  0  0  0  0  0  0
  -31.9940  -15.1800   18.9450 O   0  0  0  0  0  0  0  0  0  0  0  0
  -25.6610  -14.1420   20.2500 C   0  0  0  0  0  0  0  0  0  0  0  0
  -24.6160  -13.3880   20.7100 C   0  0  0  0  0  0  0  0  0  0  0  0
  -25.0250  -12.0250   20.5760 C   0  0  0  0  0  0  0  0  0  0  0  0
  -26.6380  -13.2410   19.8590 N   0  0  0  0  0  0  0  0  0  0  0  0
  -26.2700  -11.9590   20.1190 N   0  0  0  0  0  0  0  0  0  0  0  0
  -24.2790  -10.7800   20.8030 C   0  0  0  0  0  0  0  0  0  0  0  0
  -24.7270   -9.8060   21.7220 C   0  0  0  0  0  3  0  0  0  0  0  0
  -23.9810   -8.6270   21.9350 C   0  0  0  0  0  3  0  0  0  0  0  0
  -22.7720   -8.4140   21.2310 C   0  0  0  0  0  0  0  0  0  0  0  0
  -22.3410   -9.3770   20.3010 C   0  0  0  0  0  3  0  0  0  0  0  0
  -23.0890  -10.5470   20.0850 C   0  0  0  0  0  3  0  0  0  0  0  0
  -21.9940   -7.2870   21.3540 O   0  0  0  0  0  0  0  0  0  0  0  0
  -21.9010   -6.6040   22.5400 C   0  0  0  0  0  0  0  0  0  0  0  0
  -21.4930   -7.2350   23.7340 C   0  0  0  0  0  3  0  0  0  0  0  0
  -21.3450   -6.4810   24.9160 C   0  0  0  0  0  3  0  0  0  0  0  0
  -21.5940   -5.0950   24.9020 C   0  0  0  0  0  0  0  0  0  0  0  0
  -21.9950   -4.4630   23.7120 C   0  0  0  0  0  3  0  0  0  0  0  0
  -22.1460   -5.2160   22.5330 C   0  0  0  0  0  0  0  0  0  0  0  0
  -22.5120   -4.5980   21.3840 F   0  0  0  0  0  0  0  0  0  0  0  0
  -21.4440   -4.3670   26.0330 F   0  0  0  0  0  0  0  0  0  0  0  0
  -23.2780  -13.8980   21.1560 C   0  0  0  0  0  0  0  0  0  0  0  0
  -22.6620  -13.2360   22.1290 N   0  0  0  0  0  0  0  0  0  0  0  0
  -22.7910  -14.9200   20.6750 O   0  0  0  0  0  0  0  0  0  0  0  0
  -23.0720  -12.4100   22.5390 H   0  0  0  0  0  0  0  0  0  0  0  0
  -21.7680  -13.5610   22.4710 H   0  0  0  0  0  0  0  0  0  0  0  0
  -25.8540  -15.5130   20.1090 N   0  0  0  0  0  0  0  0  0  0  0  0
  -25.1340  -16.1890   20.3400 H   0  0  0  0  0  0  0  0  0  0  0  0
  -26.6890  -15.9390   19.7230 H   0  0  0  0  0  0  0  0  0  0  0  0
  -28.8840  -23.2490   20.2950 C   0  0  0  0  0  3  0  0  0  0  0  0
  -28.0300  -24.6110   19.7590 C   0  0  0  0  0  3  0  0  0  0  0  0
  -28.2130  -26.1170   20.1380 O   0  0  0  0  0  0  0  0  0  0  0  0
  -24.6180  -31.8220   23.1070 C   0  0  0  0  0  0  0  0  0  0  0  0
  -27.1580  -27.1020   20.0490 C   0  0  0  0  0  0  0  0  0  0  0  0
  -23.3980  -30.4270   21.4800 C   0  0  0  0  0  3  0  0  0  0  0  0
  -24.8300  -28.8530   20.0370 C   0  0  0  0  0  0  0  0  0  0  0  0
  -25.9510  -30.6870   21.2920 C   0  0  0  0  0  2  0  0  0  0  0  0
  -26.0150  -29.2950   20.6390 C   0  0  0  0  0  0  0  0  0  0  0  0
  -27.1760  -28.4340   20.6330 C   0  0  0  0  0  3  0  0  0  0  0  0
  -25.9510  -26.7700   19.3910 C   0  0  0  0  0  3  0  0  0  0  0  0
  -24.8120  -27.6050   19.3970 C   0  0  0  0  0  3  0  0  0  0  0  0
  -23.6050  -29.7510   20.0990 C   0  0  0  0  0  2  0  0  0  0  0  0
  -24.6770  -31.0020   22.0140 N   0  0  0  0  0  0  0  0  0  0  0  0
  -23.5370  -32.1090   23.6460 O   0  0  0  0  0  0  0  0  0  0  0  0
  -22.7290  -29.4210   22.4500 C   0  0  0  0  0  0  0  0  0  0  0  0
  -21.3980  -29.2560   22.3420 N   0  0  0  0  0  0  0  0  0  0  0  0
  -23.4090  -28.7920   23.2650 O   0  0  0  0  0  0  0  0  0  0  0  0
  -20.9060  -29.8160   21.6590 H   0  0  0  0  0  0  0  0  0  0  0  0
  -18.0160  -28.0920   22.9120 C   0  0  0  0  0  0  0  0  0  0  0  0
  -20.5830  -28.3230   23.1240 C   0  0  0  0  0  3  0  0  0  0  0  0
  -20.6540  -26.8940   22.5370 C   0  0  0  0  0  2  0  0  0  0  0  0
  -19.5270  -26.5930   21.5440 C   0  0  0  0  0  2  0  0  0  0  0  0
  -18.1610  -26.7480   22.2190 C   0  0  0  0  0  2  0  0  0  0  0  0
  -19.1520  -28.8390   23.3220 C   0  0  0  0  0  0  0  0  0  0  0  0
  -18.9600  -30.0970   23.9330 C   0  0  0  0  0  3  0  0  0  0  0  0
  -17.6650  -30.6100   24.1350 C   0  0  0  0  0  3  0  0  0  0  0  0
  -16.5430  -29.8610   23.7390 C   0  0  0  0  0  3  0  0  0  0  0  0
  -16.7190  -28.6040   23.1330 C   0  0  0  0  0  3  0  0  0  0  0  0
  -25.9030  -32.4570   23.7200 C   0  0  0  0  0  3  0  0  0  0  0  0
  -25.5840  -33.8460   24.0900 N   0  0  0  0  0  0  0  0  0  0  0  0
  -25.8890  -34.9230   23.3540 C   0  0  0  0  0  0  0  0  0  0  0  0
  -26.5350  -34.8530   22.3050 O   0  0  0  0  0  0  0  0  0  0  0  0
  -25.0070  -33.9740   24.9090 H   0  0  0  0  0  0  0  0  0  0  0  0
  -24.1410  -36.7140   23.0890 C   0  0  0  0  0  1  0  0  0  0  0  0
  -25.4020  -36.2950   23.8610 C   0  0  0  0  0  3  0  0  0  0  0  0
  -27.5470  -37.1770   24.6720 C   0  0  0  0  0  1  0  0  0  0  0  0
  -26.4250  -37.3600   23.7540 N   0  0  0  0  0  0  0  0  0  0  0  0
  -26.0140  -38.2720   23.9320 H   0  0  0  0  0  0  0  0  0  0  0  0
  -26.4460  -31.6670   24.9740 C   0  0  1  0  0  0  0  0  0  0  0  0
  -25.3730  -31.3970   26.0530 C   0  0  0  0  0  1  0  0  0  0  0  0
  -27.0380  -30.3030   24.5510 C   0  0  0  0  0  1  0  0  0  0  0  0
  -27.5990  -32.4620   25.6330 C   0  0  0  0  0  1  0  0  0  0  0  0
  1  3  1  0
  1 49  1  0
  1  4  1  0
  2  3  1  0
  5  4  1  0
  5 11  1  0
  6  5  2  0
  8  7  1  0
  9  7  2  0
 10  8  2  0
 11  9  1  0
 12 11  2  0
 12 10  1  0
 13 12  1  0
 14 19  1  0
 15 16  1  0
 15 14  1  0
 17 16  1  0
 17 24  1  0
 17 18  1  0
 19 13  1  0
 19 18  1  0
 20 13  2  0
 21 22  2  0
 22 41  1  0
 23 22  1  0
 23 26  1  0
 24 25  1  0
 24 21  1  0
 25 23  2  0
 26 27  1  0
 27 28  2  0
 29 32  1  0
 29 28  1  0
 30 29  2  0
 31 30  1  0
 31 26  2  0
 32 33  1  0
 33 34  1  0
 34 35  2  0
 36 35  1  0
 36 40  1  0
 37 36  2  0
 38 33  2  0
 38 37  1  0
 39 38  1  0
 41 42  1  0
 42 45  1  0
 42 44  1  0
 43 41  2  0
 46 21  1  0
 46 47  1  0
 48 46  1  0
 50 51  1  0
 50 49  2  0
 52 63  2  0
 53 51  1  0
 53 58  1  0
 54 62  1  0
 54 64  1  0
 55 61  1  0
 55 57  1  0
 56 62  1  0
 57 56  1  0
 58 57  2  0
 59 60  1  0
 59 53  2  0
 60 55  2  0
 61 54  1  0
 62 52  1  0
 64 66  2  0
 65 64  1  0
 67 65  1  0
 68 77  2  0
 68 73  1  0
 69 65  1  0
 69 73  1  0
 70 69  1  0
 71 72  1  0
 71 70  1  0
 72 68  1  0
 73 74  2  0
 74 75  1  0
 76 75  2  0
 77 76  1  0
 78 52  1  0
 78 79  1  0
 78 88  1  0
 79 82  1  0
 80 84  1  0
 80 79  1  0
 81 80  2  0
 84 83  1  0
 86 84  1  0
 86 87  1  0
 86 85  1  0
 88 91  1  1
 88 89  1  0
 90 88  1  0
M  ISO  4  12 100  13 100  50 101  51 101
M  END
>  <TORSDO>  (71) 
F 22

>  <SCORE>  (71) 
-10.545

>  <name>  (71) 
70

>  <ligand_id>  (71) 
70

>  <original_smiles>  (71) 
[H]c1c([H])c([H])c(C(=O)C([H])([H])C([H])(C([H])([H])C([H])([H])[H])C([H])([H])C([H])([H])Oc2c([H])c([H])c3c(c2[H])C([H])([H])N(C(=O)C([H])(N([H])C(=O)C([H])(N([H])C([H])([H])[H])C([H])([H])[H])C(C([H])([H])[H])(C([H])([H])[H])C([H])([H])[H])C([H])(C(=O)N([H])C2([H])c4c([H])c([H])c([H])c([H])c4C([H])([H])C([H])([H])C2([H])[H])C3([H])[H])c(C(=O)N2C([H])([H])C([H])([H])C([H])([H])C([H])(n3nc(-c4c([H])c([H])c(Oc5c([H])c([H])c(F)c([H])c5F)c([H])c4[H])c(C(=O)N([H])[H])c3N([H])[H])C2([H])[H])c1[H]

>  <smiles>  (71) 
[H]c1c([H])c([H])c(C(=O)C([H])([H])C([H])(C([H])([H])C([H])([H])[H])C([H])([H])C([H])([H])Oc2c([H])c([H])c3c(c2[H])C([H])([H])N(C(=O)C([H])(N([H])C(=O)C([H])(N([H])C([H])([H])[H])C([H])([H])[H])C(C([H])([H])[H])(C([H])([H])[H])C([H])([H])[H])C([H])(C(=O)N([H])C2([H])c4c([H])c([H])c([H])c([H])c4C([H])([H])C([H])([H])C2([H])[H])C3([H])[H])c(C(=O)N2C([H])([H])C([H])([H])C([H])([H])C([H])(n3nc(-c4c([H])c([H])c(Oc5c([H])c([H])c(F)c([H])c5F)c([H])c4[H])c(C(=O)N([H])[H])c3N([H])[H])C2([H])[H])c1[H]

$$$$
71:0:0
     RDKit          3D

 94104  0  0  1  0  0  0  0  0999 V2000
  -28.1100  -22.5630   21.3670 C   0  0  0  0  0  0  0  0  0  0  0  0
  -29.0640  -23.4950   21.3410 C   0  0  0  0  0  0  0  0  0  0  0  0
  -26.7730  -22.5790   21.4930 C   0  0  0  0  0  1  0  0  0  0  0  0
  -30.2070  -22.5080   21.2320 C   0  0  0  0  0  2  0  0  0  0  0  0
  -29.6450  -18.8090   18.2200 C   0  0  0  0  0  2  0  0  0  0  0  0
  -30.0510  -19.1560   21.9600 C   0  0  0  0  0  2  0  0  0  0  0  0
  -30.3090  -17.4450   18.5100 C   0  0  0  0  0  2  0  0  0  0  0  0
  -29.0650  -20.3210   22.2480 C   0  0  0  0  0  2  0  0  0  0  0  0
  -28.8300  -20.7510   19.7700 C   0  0  0  0  0  2  0  0  0  0  0  0
  -29.8230  -19.6080   19.5080 C   0  0  0  0  0  3  0  0  0  0  0  0
  -29.7350  -18.5330   20.5870 C   0  0  0  0  0  3  0  0  0  0  0  0
  -30.6180  -17.3890   20.0320 C   0  0  0  0  0  3  0  0  0  0  0  0
  -29.0940  -21.4060   21.1410 C   0  0  1  0  0  0  0  0  0  0  0  0
  -29.0090  -24.7470   21.4280 N   0  0  0  0  0  2  0  0  0  0  0  0
  -30.3690  -16.0030   20.7020 C   0  0  0  0  0  2  0  0  0  0  0  0
  -31.1080  -14.7910   20.0680 C   0  0  0  0  0  0  0  0  0  0  0  0
  -30.8180  -12.6110   18.9340 C   0  0  0  0  0  2  0  0  0  0  0  0
  -29.8350  -12.8060   17.7610 C   0  0  0  0  0  2  0  0  0  0  0  0
  -28.3750  -12.6580   18.2360 C   0  0  0  0  0  2  0  0  0  0  0  0
  -28.0730  -13.5050   19.5010 C   0  0  0  0  0  3  0  0  0  0  0  0
  -29.1610  -13.2890   20.5770 C   0  0  0  0  0  2  0  0  0  0  0  0
  -30.4670  -13.5940   19.9720 N   0  0  0  0  0  0  0  0  0  0  0  0
  -32.2220  -14.9750   19.5640 O   0  0  0  0  0  0  0  0  0  0  0  0
  -25.7160  -14.1170   20.3300 C   0  0  0  0  0  0  0  0  0  0  0  0
  -24.6560  -13.3490   20.7290 C   0  0  0  0  0  0  0  0  0  0  0  0
  -25.1030  -11.9940   20.6520 C   0  0  0  0  0  0  0  0  0  0  0  0
  -26.7390  -13.2310   20.0280 N   0  0  0  0  0  0  0  0  0  0  0  0
  -26.3750  -11.9480   20.2800 N   0  0  0  0  0  0  0  0  0  0  0  0
  -24.3710  -10.7360   20.8460 C   0  0  0  0  0  0  0  0  0  0  0  0
  -24.7670   -9.7980   21.8240 C   0  0  0  0  0  3  0  0  0  0  0  0
  -24.0400   -8.6000   22.0050 C   0  0  0  0  0  3  0  0  0  0  0  0
  -22.9060   -8.3320   21.2040 C   0  0  0  0  0  0  0  0  0  0  0  0
  -22.5310   -9.2580   20.2130 C   0  0  0  0  0  3  0  0  0  0  0  0
  -23.2580  -10.4470   20.0330 C   0  0  0  0  0  3  0  0  0  0  0  0
  -22.1530   -7.1870   21.2920 O   0  0  0  0  0  0  0  0  0  0  0  0
  -21.9550   -6.5450   22.4900 C   0  0  0  0  0  0  0  0  0  0  0  0
  -21.3610   -7.1950   23.5940 C   0  0  0  0  0  3  0  0  0  0  0  0
  -21.1110   -6.4800   24.7820 C   0  0  0  0  0  3  0  0  0  0  0  0
  -21.4470   -5.1150   24.8660 C   0  0  0  0  0  0  0  0  0  0  0  0
  -22.0320   -4.4650   23.7670 C   0  0  0  0  0  3  0  0  0  0  0  0
  -22.2830   -5.1780   22.5800 C   0  0  0  0  0  0  0  0  0  0  0  0
  -22.8290   -4.5410   21.5160 F   0  0  0  0  0  0  0  0  0  0  0  0
  -21.2020   -4.4260   26.0040 F   0  0  0  0  0  0  0  0  0  0  0  0
  -23.2780  -13.8320   21.0740 C   0  0  0  0  0  0  0  0  0  0  0  0
  -22.5890  -13.1390   21.9750 N   0  0  0  0  0  0  0  0  0  0  0  0
  -22.8190  -14.8610   20.5780 O   0  0  0  0  0  0  0  0  0  0  0  0
  -22.9740  -12.3080   22.3970 H   0  0  0  0  0  0  0  0  0  0  0  0
  -21.6630  -13.4410   22.2430 H   0  0  0  0  0  0  0  0  0  0  0  0
  -25.8880  -15.4880   20.1780 N   0  0  0  0  0  0  0  0  0  0  0  0
  -25.1370  -16.1500   20.3380 H   0  0  0  0  0  0  0  0  0  0  0  0
  -26.7300  -15.9250   19.8240 H   0  0  0  0  0  0  0  0  0  0  0  0
  -29.9940  -25.5410   20.7080 C   0  0  0  0  0  2  0  0  0  0  0  0
  -29.4520  -26.9600   20.4290 C   0  0  0  0  0  2  0  0  0  0  0  0
  -28.4940  -26.9160   19.3670 O   0  0  0  0  0  0  0  0  0  0  0  0
  -24.7200  -31.7140   23.0700 C   0  0  0  0  0  0  0  0  0  0  0  0
  -27.3420  -27.6510   19.5220 C   0  0  0  0  0  0  0  0  0  0  0  0
  -23.4720  -30.4150   21.3730 C   0  0  0  0  0  3  0  0  0  0  0  0
  -24.8980  -29.0500   19.7540 C   0  0  0  0  0  0  0  0  0  0  0  0
  -25.9660  -30.8830   21.0800 C   0  0  0  0  0  2  0  0  0  0  0  0
  -26.0600  -29.5690   20.3360 C   0  0  0  0  0  0  0  0  0  0  0  0
  -27.2860  -28.8780   20.2230 C   0  0  0  0  0  3  0  0  0  0  0  0
  -26.1680  -27.1500   18.9240 C   0  0  0  0  0  3  0  0  0  0  0  0
  -24.9460  -27.8380   19.0410 C   0  0  0  0  0  3  0  0  0  0  0  0
  -23.6290  -29.8550   19.9320 C   0  0  0  0  0  2  0  0  0  0  0  0
  -24.7390  -31.0150   21.9000 N   0  0  0  0  0  0  0  0  0  0  0  0
  -23.6630  -31.9010   23.6880 O   0  0  0  0  0  0  0  0  0  0  0  0
  -22.9040  -29.2970   22.2790 C   0  0  0  0  0  0  0  0  0  0  0  0
  -21.5840  -29.0620   22.1800 N   0  0  0  0  0  0  0  0  0  0  0  0
  -23.6430  -28.6510   23.0250 O   0  0  0  0  0  0  0  0  0  0  0  0
  -21.0480  -29.6400   21.5470 H   0  0  0  0  0  0  0  0  0  0  0  0
  -18.2970  -27.6420   22.6450 C   0  0  0  0  0  0  0  0  0  0  0  0
  -20.8380  -28.0370   22.9070 C   0  0  0  0  0  3  0  0  0  0  0  0
  -21.0190  -26.6490   22.2490 C   0  0  0  0  0  2  0  0  0  0  0  0
  -19.9240  -26.3190   21.2300 C   0  0  0  0  0  2  0  0  0  0  0  0
  -18.5450  -26.3450   21.8940 C   0  0  0  0  0  2  0  0  0  0  0  0
  -19.3740  -28.4440   23.1080 C   0  0  0  0  0  0  0  0  0  0  0  0
  -19.0880  -29.6590   23.7690 C   0  0  0  0  0  3  0  0  0  0  0  0
  -17.7570  -30.0680   23.9790 C   0  0  0  0  0  3  0  0  0  0  0  0
  -16.6960  -29.2630   23.5300 C   0  0  0  0  0  3  0  0  0  0  0  0
  -16.9670  -28.0540   22.8660 C   0  0  0  0  0  3  0  0  0  0  0  0
  -26.0190  -32.3350   23.6740 C   0  0  0  0  0  3  0  0  0  0  0  0
  -26.6400  -31.4700   24.8370 C   0  0  1  0  0  0  0  0  0  0  0  0
  -25.6290  -31.0950   25.9470 C   0  0  0  0  0  1  0  0  0  0  0  0
  -27.2360  -30.1580   24.2770 C   0  0  0  0  0  1  0  0  0  0  0  0
  -27.8070  -32.2390   25.4960 C   0  0  0  0  0  1  0  0  0  0  0  0
  -25.6850  -33.6820   24.1530 N   0  0  0  0  0  0  0  0  0  0  0  0
  -25.9640  -34.8140   23.4920 C   0  0  0  0  0  0  0  0  0  0  0  0
  -26.6010  -34.8330   22.4340 O   0  0  0  0  0  0  0  0  0  0  0  0
  -25.1040  -33.7380   24.9770 H   0  0  0  0  0  0  0  0  0  0  0  0
  -24.1850  -36.5900   23.3650 C   0  0  0  0  0  1  0  0  0  0  0  0
  -25.4560  -36.1340   24.1010 C   0  0  0  0  0  3  0  0  0  0  0  0
  -27.5910  -36.9870   24.9660 C   0  0  0  0  0  1  0  0  0  0  0  0
  -26.4600  -37.2210   24.0720 N   0  0  0  0  0  0  0  0  0  0  0  0
  -26.0330  -38.1070   24.3250 H   0  0  0  0  0  0  0  0  0  0  0  0
  1  3  1  0
  2  1  2  0
  2 14  1  0
  4  2  1  0
  5  7  1  0
  6  8  1  0
  7 12  1  0
 10  5  1  0
 10  9  1  0
 10 11  1  0
 11  6  1  0
 12 11  1  0
 12 15  1  0
 13  9  1  6
 13  4  1  0
 13  1  1  0
 13  8  1  0
 16 15  1  0
 17 22  1  0
 18 19  1  0
 18 17  1  0
 20 19  1  0
 20 27  1  0
 20 21  1  0
 22 16  1  0
 22 21  1  0
 23 16  2  0
 24 25  2  0
 25 44  1  0
 26 25  1  0
 26 29  1  0
 27 28  1  0
 27 24  1  0
 28 26  2  0
 29 30  1  0
 30 31  2  0
 32 35  1  0
 32 31  1  0
 33 32  2  0
 34 33  1  0
 34 29  2  0
 35 36  1  0
 36 41  2  0
 36 37  1  0
 37 38  2  0
 38 39  1  0
 39 43  1  0
 40 39  2  0
 41 40  1  0
 42 41  1  0
 44 45  1  0
 45 48  1  0
 45 47  1  0
 46 44  2  0
 49 24  1  0
 49 50  1  0
 51 49  1  0
 52 14  1  0
 53 52  1  0
 54 56  1  0
 54 53  1  0
 55 66  2  0
 56 61  1  0
 57 65  1  0
 57 67  1  0
 58 64  1  0
 58 60  1  0
 59 65  1  0
 60 59  1  0
 61 60  2  0
 62 63  1  0
 62 56  2  0
 63 58  2  0
 64 57  1  0
 65 55  1  0
 67 69  2  0
 68 67  1  0
 70 68  1  0
 71 80  2  0
 71 76  1  0
 72 68  1  0
 72 76  1  0
 73 72  1  0
 74 75  1  0
 74 73  1  0
 75 71  1  0
 76 77  2  0
 77 78  1  0
 79 78  2  0
 80 79  1  0
 81 55  1  0
 81 86  1  0
 81 82  1  0
 82 85  1  1
 82 83  1  0
 84 82  1  0
 86 89  1  0
 87 91  1  0
 87 86  1  0
 88 87  2  0
 91 90  1  0
 93 91  1  0
 93 94  1  0
 93 92  1  0
M  ISO  4  15 100  16 100  53 101  54 101
M  END
>  <TORSDO>  (72) 
F 19

>  <SCORE>  (72) 
-11.480

>  <name>  (72) 
71

>  <ligand_id>  (72) 
71

>  <original_smiles>  (72) 
[H]C([H])=C1C(=NC([H])([H])C([H])([H])Oc2c([H])c([H])c3c(c2[H])C([H])([H])N(C(=O)C([H])(N([H])C(=O)C([H])(N([H])C([H])([H])[H])C([H])([H])[H])C(C([H])([H])[H])(C([H])([H])[H])C([H])([H])[H])C([H])(C(=O)N([H])C2([H])c4c([H])c([H])c([H])c([H])c4C([H])([H])C([H])([H])C2([H])[H])C3([H])[H])C([H])([H])C12C([H])([H])C([H])([H])C1([H])C([H])(C([H])([H])C(=O)N3C([H])([H])C([H])([H])C([H])([H])C([H])(n4nc(-c5c([H])c([H])c(Oc6c([H])c([H])c(F)c([H])c6F)c([H])c5[H])c(C(=O)N([H])[H])c4N([H])[H])C3([H])[H])C([H])([H])C([H])([H])C1([H])C2([H])[H]

>  <smiles>  (72) 
[H]C([H])=C1C(=NC([H])([H])C([H])([H])Oc2c([H])c([H])c3c(c2[H])C([H])([H])N(C(=O)C([H])(N([H])C(=O)C([H])(N([H])C([H])([H])[H])C([H])([H])[H])C(C([H])([H])[H])(C([H])([H])[H])C([H])([H])[H])C([H])(C(=O)N([H])C2([H])c4c([H])c([H])c([H])c([H])c4C([H])([H])C([H])([H])C2([H])[H])C3([H])[H])C([H])([H])C12C([H])([H])C([H])([H])C1([H])C([H])(C([H])([H])C(=O)N3C([H])([H])C([H])([H])C([H])([H])C([H])(n4nc(-c5c([H])c([H])c(Oc6c([H])c([H])c(F)c([H])c6F)c([H])c5[H])c(C(=O)N([H])[H])c4N([H])[H])C3([H])[H])C([H])([H])C([H])([H])C1([H])C2([H])[H]

$$$$
72:0:0
     RDKit          3D

 99108  0  0  1  0  0  0  0  0999 V2000
  -26.9330  -23.6310   21.6720 C   0  0  0  0  0  0  0  0  0  0  0  0
  -25.6010  -23.8070   21.7250 C   0  0  0  0  0  2  0  0  0  0  0  0
  -27.8790  -24.5050   22.4900 C   0  0  0  0  0  2  0  0  0  0  0  0
  -29.2260  -24.8310   21.8050 C   0  0  0  0  0  2  0  0  0  0  0  0
  -27.6980  -21.2430   21.5910 C   0  0  0  0  0  2  0  0  0  0  0  0
  -29.1400  -21.2850   22.0710 C   0  0  0  0  0  2  0  0  0  0  0  0
  -27.5460  -22.5390   20.7990 C   0  0  0  0  0  3  0  0  0  0  0  0
  -28.9490  -22.8570   20.2010 C   0  0  0  0  0  3  0  0  0  0  0  0
  -29.2960  -24.4180   20.3270 C   0  0  0  0  0  3  0  0  0  0  0  0
  -29.9420  -21.7490   20.8410 C   0  0  0  0  0  3  0  0  0  0  0  0
  -28.4100  -25.4170   19.4580 C   0  0  0  0  0  2  0  0  0  0  0  0
  -28.5490  -26.8700   19.6920 O   0  0  0  0  0  0  0  0  0  0  0  0
  -24.7110  -31.8340   23.2410 C   0  0  0  0  0  0  0  0  0  0  0  0
  -27.3940  -27.6690   19.7300 C   0  0  0  0  0  0  0  0  0  0  0  0
  -23.5140  -30.5390   21.5140 C   0  0  0  0  0  3  0  0  0  0  0  0
  -24.9780  -29.1870   19.9180 C   0  0  0  0  0  0  0  0  0  0  0  0
  -26.0350  -30.9690   21.3010 C   0  0  0  0  0  2  0  0  0  0  0  0
  -26.1430  -29.6580   20.5380 C   0  0  0  0  0  0  0  0  0  0  0  0
  -27.3490  -28.9000   20.4490 C   0  0  0  0  0  3  0  0  0  0  0  0
  -26.2100  -27.2720   19.0650 C   0  0  0  0  0  3  0  0  0  0  0  0
  -25.0140  -28.0020   19.1760 C   0  0  0  0  0  3  0  0  0  0  0  0
  -23.7130  -30.0090   20.0730 C   0  0  0  0  0  2  0  0  0  0  0  0
  -24.7730  -31.1280   22.0780 N   0  0  0  0  0  0  0  0  0  0  0  0
  -23.6290  -32.0260   23.8170 O   0  0  0  0  0  0  0  0  0  0  0  0
  -22.9210  -29.4080   22.3920 C   0  0  0  0  0  0  0  0  0  0  0  0
  -21.6020  -29.1750   22.2610 N   0  0  0  0  0  0  0  0  0  0  0  0
  -23.6400  -28.7540   23.1500 O   0  0  0  0  0  0  0  0  0  0  0  0
  -21.0770  -29.7620   21.6290 H   0  0  0  0  0  0  0  0  0  0  0  0
  -18.2950  -27.7570   22.6310 C   0  0  0  0  0  0  0  0  0  0  0  0
  -20.8340  -28.1430   22.9610 C   0  0  0  0  0  3  0  0  0  0  0  0
  -21.0240  -26.7590   22.2980 C   0  0  0  0  0  2  0  0  0  0  0  0
  -19.9530  -26.4400   21.2500 C   0  0  0  0  0  2  0  0  0  0  0  0
  -18.5570  -26.4650   21.8800 C   0  0  0  0  0  2  0  0  0  0  0  0
  -19.3630  -28.5520   23.1270 C   0  0  0  0  0  0  0  0  0  0  0  0
  -19.0650  -29.7630   23.7860 C   0  0  0  0  0  3  0  0  0  0  0  0
  -17.7290  -30.1750   23.9650 C   0  0  0  0  0  3  0  0  0  0  0  0
  -16.6760  -29.3720   23.4940 C   0  0  0  0  0  3  0  0  0  0  0  0
  -16.9600  -28.1680   22.8260 C   0  0  0  0  0  3  0  0  0  0  0  0
  -25.9850  -32.4580   23.8890 C   0  0  0  0  0  3  0  0  0  0  0  0
  -25.6500  -33.8270   24.3050 N   0  0  0  0  0  0  0  0  0  0  0  0
  -25.9820  -34.9330   23.6290 C   0  0  0  0  0  0  0  0  0  0  0  0
  -26.6800  -34.9090   22.6100 O   0  0  0  0  0  0  0  0  0  0  0  0
  -25.0390  -33.9200   25.1040 H   0  0  0  0  0  0  0  0  0  0  0  0
  -24.2490  -36.7280   23.3400 C   0  0  0  0  0  1  0  0  0  0  0  0
  -25.4610  -36.2780   24.1690 C   0  0  0  0  0  3  0  0  0  0  0  0
  -27.5550  -37.1150   25.1380 C   0  0  0  0  0  1  0  0  0  0  0  0
  -26.4840  -37.3450   24.1730 N   0  0  0  0  0  0  0  0  0  0  0  0
  -26.0620  -38.2470   24.3720 H   0  0  0  0  0  0  0  0  0  0  0  0
  -26.5310  -31.6250   25.1110 C   0  0  1  0  0  0  0  0  0  0  0  0
  -25.4510  -31.2920   26.1670 C   0  0  0  0  0  1  0  0  0  0  0  0
  -27.1540  -30.2940   24.6260 C   0  0  0  0  0  1  0  0  0  0  0  0
  -27.6560  -32.4150   25.8200 C   0  0  0  0  0  1  0  0  0  0  0  0
  -30.4550  -20.4940   19.9470 C   0  0  0  0  0  3  0  0  0  0  0  0
  -30.6640  -19.1700   20.7100 N   0  0  0  0  0  4  0  0  0  0  0  0
  -29.8520  -19.0670   21.2960 H   0  0  0  0  0  0  0  0  0  0  0  0
  -31.4450  -19.2970   21.3380 H   0  0  0  0  0  0  0  0  0  0  0  0
  -30.0960  -17.7220   18.6800 C   0  0  0  0  0  1  0  0  0  0  0  0
  -30.8880  -17.8230   19.9990 C   0  0  0  0  0  3  0  0  0  0  0  0
  -30.6220  -16.4830   20.8610 C   0  0  0  0  0  2  0  0  0  0  0  0
  -31.2060  -15.1200   20.2880 C   0  0  0  0  0  0  0  0  0  0  0  0
  -30.9190  -12.8630   19.2580 C   0  0  0  0  0  2  0  0  0  0  0  0
  -29.9990  -12.9440   18.0230 C   0  0  0  0  0  2  0  0  0  0  0  0
  -28.5280  -12.7760   18.4430 C   0  0  0  0  0  2  0  0  0  0  0  0
  -28.1480  -13.6750   19.6500 C   0  0  0  0  0  3  0  0  0  0  0  0
  -29.1990  -13.6240   20.7860 C   0  0  0  0  0  2  0  0  0  0  0  0
  -30.5180  -13.9280   20.2080 N   0  0  0  0  0  0  0  0  0  0  0  0
  -32.3390  -15.1900   19.8120 O   0  0  0  0  0  0  0  0  0  0  0  0
  -25.7440  -14.2580   20.3490 C   0  0  0  0  0  0  0  0  0  0  0  0
  -24.6770  -13.4800   20.7090 C   0  0  0  0  0  0  0  0  0  0  0  0
  -25.1410  -12.1310   20.6850 C   0  0  0  0  0  0  0  0  0  0  0  0
  -26.7960  -13.3800   20.1280 N   0  0  0  0  0  0  0  0  0  0  0  0
  -26.4380  -12.0960   20.3880 N   0  0  0  0  0  0  0  0  0  0  0  0
  -24.4120  -10.8700   20.8770 C   0  0  0  0  0  0  0  0  0  0  0  0
  -24.7850   -9.9520   21.8820 C   0  0  0  0  0  3  0  0  0  0  0  0
  -24.0610   -8.7530   22.0620 C   0  0  0  0  0  3  0  0  0  0  0  0
  -22.9490   -8.4650   21.2360 C   0  0  0  0  0  0  0  0  0  0  0  0
  -22.5960   -9.3720   20.2210 C   0  0  0  0  0  3  0  0  0  0  0  0
  -23.3190  -10.5620   20.0410 C   0  0  0  0  0  3  0  0  0  0  0  0
  -22.2030   -7.3140   21.3190 O   0  0  0  0  0  0  0  0  0  0  0  0
  -21.9980   -6.6730   22.5140 C   0  0  0  0  0  0  0  0  0  0  0  0
  -21.3960   -7.3230   23.6140 C   0  0  0  0  0  3  0  0  0  0  0  0
  -21.1400   -6.6060   24.8010 C   0  0  0  0  0  3  0  0  0  0  0  0
  -21.4770   -5.2420   24.8870 C   0  0  0  0  0  0  0  0  0  0  0  0
  -22.0680   -4.5910   23.7890 C   0  0  0  0  0  3  0  0  0  0  0  0
  -22.3260   -5.3060   22.6060 C   0  0  0  0  0  0  0  0  0  0  0  0
  -22.8790   -4.6710   21.5450 F   0  0  0  0  0  0  0  0  0  0  0  0
  -21.2240   -4.5510   26.0230 F   0  0  0  0  0  0  0  0  0  0  0  0
  -23.2780  -13.9600   20.9700 C   0  0  0  0  0  0  0  0  0  0  0  0
  -22.5490  -13.2720   21.8420 N   0  0  0  0  0  0  0  0  0  0  0  0
  -22.8390  -14.9770   20.4350 O   0  0  0  0  0  0  0  0  0  0  0  0
  -22.9190  -12.4510   22.2970 H   0  0  0  0  0  0  0  0  0  0  0  0
  -21.6080  -13.5740   22.0570 H   0  0  0  0  0  0  0  0  0  0  0  0
  -25.9060  -15.6260   20.1680 N   0  0  0  0  0  0  0  0  0  0  0  0
  -25.1280  -16.2690   20.2630 H   0  0  0  0  0  0  0  0  0  0  0  0
  -26.7550  -16.0720   19.8440 H   0  0  0  0  0  0  0  0  0  0  0  0
  -31.7540  -20.8960   19.1740 C   0  0  0  0  0  2  0  0  0  0  0  0
  -31.5940  -21.9590   18.0500 C   0  0  0  0  0  2  0  0  0  0  0  0
  -34.1080  -22.3990   17.8810 C   0  0  0  0  0  1  0  0  0  0  0  0
  -32.7110  -23.0140   17.9660 C   0  0  0  0  0  2  0  0  0  0  0  0
  1  2  2  0
  1  3  1  0
  4  3  1  0
  5  6  1  0
  7  5  1  0
  7  1  1  0
  8  9  1  0
  8  7  1  0
  8 10  1  0
  9  4  1  0
 10  6  1  0
 11 12  1  0
 11  9  1  0
 12 14  1  0
 13 24  2  0
 13 39  1  0
 14 19  1  0
 15 23  1  0
 15 25  1  0
 16 22  1  0
 16 18  1  0
 17 23  1  0
 18 17  1  0
 19 18  2  0
 20 21  1  0
 20 14  2  0
 21 16  2  0
 22 15  1  0
 23 13  1  0
 25 27  2  0
 26 25  1  0
 26 30  1  0
 28 26  1  0
 29 38  2  0
 29 34  1  0
 30 34  1  0
 31 30  1  0
 32 33  1  0
 32 31  1  0
 33 29  1  0
 34 35  2  0
 35 36  1  0
 37 36  2  0
 38 37  1  0
 39 40  1  0
 39 49  1  0
 40 43  1  0
 41 45  1  0
 41 40  1  0
 42 41  2  0
 44 45  1  0
 45 47  1  0
 47 48  1  0
 47 46  1  0
 49 52  1  1
 49 50  1  0
 51 49  1  0
 53 54  1  0
 53 10  1  0
 54 55  1  0
 54 56  1  0
 57 58  1  0
 58 54  1  0
 58 59  1  0
 60 59  1  0
 61 66  1  0
 62 63  1  0
 62 61  1  0
 63 64  1  0
 64 71  1  0
 64 65  1  0
 66 60  1  0
 66 65  1  0
 67 60  2  0
 68 69  2  0
 69 88  1  0
 70 69  1  0
 70 73  1  0
 71 68  1  0
 71 72  1  0
 72 70  2  0
 73 74  1  0
 74 75  2  0
 76 79  1  0
 76 75  1  0
 77 76  2  0
 78 77  1  0
 78 73  2  0
 79 80  1  0
 80 85  2  0
 80 81  1  0
 81 82  2  0
 82 83  1  0
 83 87  1  0
 84 83  2  0
 85 84  1  0
 86 85  1  0
 88 89  1  0
 89 92  1  0
 89 91  1  0
 90 88  2  0
 93 94  1  0
 93 68  1  0
 95 93  1  0
 96 53  1  0
 97 96  1  0
 98 99  1  0
 99 97  1  0
M  ISO  4  11 101  12 101  59 100  60 100
M  END
>  <TORSDO>  (73) 
F 24

>  <SCORE>  (73) 
-11.083

>  <name>  (73) 
72

>  <ligand_id>  (73) 
72

>  <original_smiles>  (73) 
[H]C([H])=C1C([H])([H])C([H])([H])C([H])(C([H])([H])Oc2c([H])c([H])c3c(c2[H])C([H])([H])N(C(=O)C([H])(N([H])C(=O)C([H])(N([H])C([H])([H])[H])C([H])([H])[H])C(C([H])([H])[H])(C([H])([H])[H])C([H])([H])[H])C([H])(C(=O)N([H])C2([H])c4c([H])c([H])c([H])c([H])c4C([H])([H])C([H])([H])C2([H])[H])C3([H])[H])C2([H])C1([H])C([H])([H])C([H])([H])C2([H])C([H])(C([H])([H])C([H])([H])C([H])([H])C([H])([H])[H])[N+]([H])([H])C([H])(C([H])([H])[H])C([H])([H])C(=O)N1C([H])([H])C([H])([H])C([H])([H])C([H])(n2nc(-c3c([H])c([H])c(Oc4c([H])c([H])c(F)c([H])c4F)c([H])c3[H])c(C(=O)N([H])[H])c2N([H])[H])C1([H])[H]

>  <smiles>  (73) 
[H]C([H])=C1C([H])([H])C([H])([H])C([H])(C([H])([H])Oc2c([H])c([H])c3c(c2[H])C([H])([H])N(C(=O)C([H])(N([H])C(=O)C([H])(N([H])C([H])([H])[H])C([H])([H])[H])C(C([H])([H])[H])(C([H])([H])[H])C([H])([H])[H])C([H])(C(=O)N([H])C2([H])c4c([H])c([H])c([H])c([H])c4C([H])([H])C([H])([H])C2([H])[H])C3([H])[H])C2([H])C1([H])C([H])([H])C([H])([H])C2([H])C([H])(C([H])([H])C([H])([H])C([H])([H])C([H])([H])[H])[N+]([H])([H])C([H])(C([H])([H])[H])C([H])([H])C(=O)N1C([H])([H])C([H])([H])C([H])([H])C([H])(n2nc(-c3c([H])c([H])c(Oc4c([H])c([H])c(F)c([H])c4F)c([H])c3[H])c(C(=O)N([H])[H])c2N([H])[H])C1([H])[H]

$$$$
73:0:0
     RDKit          3D

 97106  0  0  1  0  0  0  0  0999 V2000
  -33.2200  -21.0110   21.9940 C   0  0  0  0  0  2  0  0  0  0  0  0
  -33.4410  -19.6510   21.3150 C   0  0  0  0  0  2  0  0  0  0  0  0
  -30.1700  -18.9240   17.7560 C   0  0  0  0  0  2  0  0  0  0  0  0
  -31.7510  -21.4590   21.9050 C   0  0  0  0  0  2  0  0  0  0  0  0
  -32.8970  -19.6380   19.8730 C   0  0  0  0  0  2  0  0  0  0  0  0
  -30.9490  -20.1470   18.2770 C   0  0  0  0  0  2  0  0  0  0  0  0
  -30.6640  -17.6140   18.3850 C   0  0  0  0  0  2  0  0  0  0  0  0
  -30.4880  -18.9880   20.4810 C   0  0  0  0  0  2  0  0  0  0  0  0
  -31.2230  -21.4510   20.4520 C   0  0  0  0  0  3  0  0  0  0  0  0
  -31.3940  -20.0460   19.7720 C   0  0  1  0  0  0  0  0  0  0  0  0
  -30.5440  -17.6230   19.8720 N   0  0  1  0  0  4  0  0  0  0  0  0
  -31.4170  -17.2200   20.1820 H   0  0  0  0  0  0  0  0  0  0  0  0
  -31.8970  -22.5850   19.6730 C   0  0  0  0  0  3  0  0  0  0  0  0
  -31.3450  -23.7300   19.2230 C   0  0  0  0  0  0  0  0  0  0  0  0
  -32.1810  -24.7730   18.5060 C   0  0  0  0  0  1  0  0  0  0  0  0
  -29.8870  -24.1160   19.3970 C   0  0  0  0  0  2  0  0  0  0  0  0
  -29.6460  -24.7930   20.7550 C   0  0  0  0  0  2  0  0  0  0  0  0
  -28.3010  -25.5200   20.8350 C   0  0  0  0  0  2  0  0  0  0  0  0
  -28.3960  -26.7780   20.1700 O   0  0  0  0  0  0  0  0  0  0  0  0
  -24.5900  -31.9290   23.2490 C   0  0  0  0  0  0  0  0  0  0  0  0
  -27.2280  -27.4980   20.1800 C   0  0  0  0  0  0  0  0  0  0  0  0
  -23.3780  -30.5170   21.6190 C   0  0  0  0  0  3  0  0  0  0  0  0
  -24.8280  -28.9770   20.1990 C   0  0  0  0  0  0  0  0  0  0  0  0
  -25.9010  -30.8880   21.4080 C   0  0  0  0  0  2  0  0  0  0  0  0
  -25.9870  -29.5160   20.7730 C   0  0  0  0  0  0  0  0  0  0  0  0
  -27.1940  -28.7840   20.7570 C   0  0  0  0  0  3  0  0  0  0  0  0
  -26.0550  -26.9660   19.6020 C   0  0  0  0  0  3  0  0  0  0  0  0
  -24.8560  -27.7000   19.6110 C   0  0  0  0  0  3  0  0  0  0  0  0
  -23.5830  -29.8310   20.2420 C   0  0  0  0  0  2  0  0  0  0  0  0
  -24.6420  -31.1260   22.1500 N   0  0  0  0  0  0  0  0  0  0  0  0
  -23.5100  -32.2030   23.7920 O   0  0  0  0  0  0  0  0  0  0  0  0
  -22.7320  -29.5000   22.5860 C   0  0  0  0  0  0  0  0  0  0  0  0
  -21.4070  -29.3190   22.4660 N   0  0  0  0  0  0  0  0  0  0  0  0
  -23.4200  -28.8760   23.3990 O   0  0  0  0  0  0  0  0  0  0  0  0
  -20.9160  -29.8760   21.7810 H   0  0  0  0  0  0  0  0  0  0  0  0
  -18.0330  -28.1370   22.9790 C   0  0  0  0  0  0  0  0  0  0  0  0
  -20.5920  -28.3870   23.2420 C   0  0  0  0  0  3  0  0  0  0  0  0
  -20.6880  -26.9540   22.6720 C   0  0  0  0  0  2  0  0  0  0  0  0
  -19.5820  -26.6310   21.6620 C   0  0  0  0  0  2  0  0  0  0  0  0
  -18.2030  -26.7840   22.3100 C   0  0  0  0  0  2  0  0  0  0  0  0
  -19.1560  -28.8960   23.4030 C   0  0  0  0  0  0  0  0  0  0  0  0
  -18.9440  -30.1640   23.9880 C   0  0  0  0  0  3  0  0  0  0  0  0
  -17.6410  -30.6720   24.1530 C   0  0  0  0  0  3  0  0  0  0  0  0
  -16.5330  -29.9090   23.7480 C   0  0  0  0  0  3  0  0  0  0  0  0
  -16.7300  -28.6450   23.1670 C   0  0  0  0  0  3  0  0  0  0  0  0
  -25.8770  -32.5640   23.8610 C   0  0  0  0  0  3  0  0  0  0  0  0
  -25.5710  -33.9630   24.1850 N   0  0  0  0  0  0  0  0  0  0  0  0
  -25.9080  -35.0120   23.4230 C   0  0  0  0  0  0  0  0  0  0  0  0
  -26.5820  -34.9020   22.3940 O   0  0  0  0  0  0  0  0  0  0  0  0
  -24.9710  -34.1220   24.9820 H   0  0  0  0  0  0  0  0  0  0  0  0
  -24.1860  -36.8040   23.0500 C   0  0  0  0  0  1  0  0  0  0  0  0
  -25.4200  -36.4010   23.8730 C   0  0  0  0  0  3  0  0  0  0  0  0
  -27.5530  -37.2800   24.7120 C   0  0  0  0  0  1  0  0  0  0  0  0
  -26.4550  -37.4520   23.7640 N   0  0  0  0  0  0  0  0  0  0  0  0
  -26.0520  -38.3730   23.9110 H   0  0  0  0  0  0  0  0  0  0  0  0
  -26.4050  -31.7950   25.1340 C   0  0  1  0  0  0  0  0  0  0  0  0
  -25.3210  -31.5590   26.2100 C   0  0  0  0  0  1  0  0  0  0  0  0
  -26.9860  -30.4190   24.7380 C   0  0  0  0  0  1  0  0  0  0  0  0
  -27.5590  -32.5930   25.7860 C   0  0  0  0  0  1  0  0  0  0  0  0
  -29.4860  -16.7150   20.4110 C   0  0  0  0  0  2  0  0  0  0  0  0
  -30.0370  -15.6150   21.3460 C   0  0  0  0  0  2  0  0  0  0  0  0
  -30.6640  -14.4510   20.5580 C   0  0  0  0  0  0  0  0  0  0  0  0
  -30.3740  -12.3360   19.3270 C   0  0  0  0  0  2  0  0  0  0  0  0
  -29.4310  -12.5820   18.1290 C   0  0  0  0  0  2  0  0  0  0  0  0
  -27.9510  -12.4400   18.5450 C   0  0  0  0  0  2  0  0  0  0  0  0
  -27.6160  -13.2340   19.8360 C   0  0  0  0  0  3  0  0  0  0  0  0
  -28.6670  -12.9440   20.9290 C   0  0  0  0  0  2  0  0  0  0  0  0
  -29.9970  -13.2770   20.3910 N   0  0  0  0  0  0  0  0  0  0  0  0
  -31.7450  -14.6830   20.0090 O   0  0  0  0  0  0  0  0  0  0  0  0
  -25.2040  -13.8380   20.5140 C   0  0  0  0  0  0  0  0  0  0  0  0
  -24.1390  -13.0630   20.8810 C   0  0  0  0  0  0  0  0  0  0  0  0
  -24.6080  -11.7130   20.8620 C   0  0  0  0  0  0  0  0  0  0  0  0
  -26.2570  -12.9610   20.2990 N   0  0  0  0  0  0  0  0  0  0  0  0
  -25.9000  -11.6780   20.5610 N   0  0  0  0  0  0  0  0  0  0  0  0
  -23.8890  -10.4480   21.0570 C   0  0  0  0  0  0  0  0  0  0  0  0
  -24.3330   -9.4820   21.9850 C   0  0  0  0  0  3  0  0  0  0  0  0
  -23.6150   -8.2800   22.1660 C   0  0  0  0  0  3  0  0  0  0  0  0
  -22.4400   -8.0360   21.4170 C   0  0  0  0  0  0  0  0  0  0  0  0
  -22.0170   -8.9910   20.4750 C   0  0  0  0  0  3  0  0  0  0  0  0
  -22.7360  -10.1840   20.2940 C   0  0  0  0  0  3  0  0  0  0  0  0
  -21.6920   -6.8880   21.5090 O   0  0  0  0  0  0  0  0  0  0  0  0
  -21.6650   -6.1350   22.6560 C   0  0  0  0  0  0  0  0  0  0  0  0
  -21.2700   -6.6810   23.8970 C   0  0  0  0  0  3  0  0  0  0  0  0
  -21.1900   -5.8550   25.0350 C   0  0  0  0  0  3  0  0  0  0  0  0
  -21.4960   -4.4850   24.9350 C   0  0  0  0  0  0  0  0  0  0  0  0
  -21.8860   -3.9380   23.6990 C   0  0  0  0  0  3  0  0  0  0  0  0
  -21.9670   -4.7620   22.5630 C   0  0  0  0  0  0  0  0  0  0  0  0
  -22.3230   -4.2270   21.3690 F   0  0  0  0  0  0  0  0  0  0  0  0
  -21.4130   -3.6890   26.0260 F   0  0  0  0  0  0  0  0  0  0  0  0
  -22.7360  -13.5320   21.1420 C   0  0  0  0  0  0  0  0  0  0  0  0
  -22.0100  -12.8350   22.0090 N   0  0  0  0  0  0  0  0  0  0  0  0
  -22.2930  -14.5500   20.6140 O   0  0  0  0  0  0  0  0  0  0  0  0
  -22.3830  -12.0110   22.4560 H   0  0  0  0  0  0  0  0  0  0  0  0
  -21.0670  -13.1270   22.2230 H   0  0  0  0  0  0  0  0  0  0  0  0
  -25.3640  -15.2080   20.3260 N   0  0  0  0  0  0  0  0  0  0  0  0
  -24.5920  -15.8590   20.4160 H   0  0  0  0  0  0  0  0  0  0  0  0
  -26.2080  -15.6450   19.9820 H   0  0  0  0  0  0  0  0  0  0  0  0
  2  1  1  0
  3  6  1  0
  3  7  1  0
  4  1  1  0
  5  2  1  0
  7 11  1  0
  9 13  1  0
  9  4  1  0
 10  6  1  6
 10  5  1  0
 10  9  1  0
 10  8  1  0
 11 12  1  1
 11 60  1  0
 11  8  1  0
 14 16  1  0
 14 13  2  0
 15 14  1  0
 16 17  1  0
 17 18  1  0
 19 21  1  0
 19 18  1  0
 20 31  2  0
 21 26  1  0
 22 30  1  0
 22 32  1  0
 23 29  1  0
 23 25  1  0
 24 30  1  0
 25 24  1  0
 26 25  2  0
 27 28  1  0
 27 21  2  0
 28 23  2  0
 29 22  1  0
 30 20  1  0
 32 34  2  0
 33 32  1  0
 35 33  1  0
 36 45  2  0
 36 41  1  0
 37 33  1  0
 37 41  1  0
 38 37  1  0
 39 40  1  0
 39 38  1  0
 40 36  1  0
 41 42  2  0
 42 43  1  0
 44 43  2  0
 45 44  1  0
 46 20  1  0
 46 47  1  0
 46 56  1  0
 47 50  1  0
 48 52  1  0
 48 47  1  0
 49 48  2  0
 52 51  1  0
 54 52  1  0
 54 55  1  0
 54 53  1  0
 56 59  1  1
 56 57  1  0
 58 56  1  0
 60 61  1  0
 62 61  1  0
 63 68  1  0
 64 65  1  0
 64 63  1  0
 66 65  1  0
 66 73  1  0
 66 67  1  0
 68 62  1  0
 68 67  1  0
 69 62  2  0
 70 71  2  0
 71 90  1  0
 72 71  1  0
 72 75  1  0
 73 70  1  0
 73 74  1  0
 74 72  2  0
 75 76  1  0
 76 77  2  0
 78 81  1  0
 78 77  1  0
 79 78  2  0
 80 79  1  0
 80 75  2  0
 81 82  1  0
 82 83  1  0
 83 84  2  0
 85 84  1  0
 85 89  1  0
 86 85  2  0
 87 82  2  0
 87 86  1  0
 88 87  1  0
 90 91  1  0
 91 94  1  0
 91 93  1  0
 92 90  2  0
 95 96  1  0
 95 70  1  0
 97 95  1  0
M  ISO  4  18 101  19 101  61 100  62 100
M  END
>  <TORSDO>  (74) 
F 22

>  <SCORE>  (74) 
-13.403

>  <name>  (74) 
73

>  <ligand_id>  (74) 
73

>  <original_smiles>  (74) 
[H]C(=C(C([H])([H])[H])C([H])([H])C([H])([H])C([H])([H])Oc1c([H])c([H])c2c(c1[H])C([H])([H])N(C(=O)C([H])(N([H])C(=O)C([H])(N([H])C([H])([H])[H])C([H])([H])[H])C(C([H])([H])[H])(C([H])([H])[H])C([H])([H])[H])C([H])(C(=O)N([H])C1([H])c3c([H])c([H])c([H])c([H])c3C([H])([H])C([H])([H])C1([H])[H])C2([H])[H])C1([H])C([H])([H])C([H])([H])C([H])([H])C([H])([H])C12C([H])([H])C([H])([H])C([H])([H])[N+]([H])(C([H])([H])C([H])([H])C(=O)N1C([H])([H])C([H])([H])C([H])([H])C([H])(n3nc(-c4c([H])c([H])c(Oc5c([H])c([H])c(F)c([H])c5F)c([H])c4[H])c(C(=O)N([H])[H])c3N([H])[H])C1([H])[H])C2([H])[H]

>  <smiles>  (74) 
[H]C(=C(C([H])([H])[H])C([H])([H])C([H])([H])C([H])([H])Oc1c([H])c([H])c2c(c1[H])C([H])([H])N(C(=O)C([H])(N([H])C(=O)C([H])(N([H])C([H])([H])[H])C([H])([H])[H])C(C([H])([H])[H])(C([H])([H])[H])C([H])([H])[H])C([H])(C(=O)N([H])C1([H])c3c([H])c([H])c([H])c([H])c3C([H])([H])C([H])([H])C1([H])[H])C2([H])[H])C1([H])C([H])([H])C([H])([H])C([H])([H])C([H])([H])C12C([H])([H])C([H])([H])C([H])([H])[N+]([H])(C([H])([H])C([H])([H])C(=O)N1C([H])([H])C([H])([H])C([H])([H])C([H])(n3nc(-c4c([H])c([H])c(Oc5c([H])c([H])c(F)c([H])c5F)c([H])c4[H])c(C(=O)N([H])[H])c3N([H])[H])C1([H])[H])C2([H])[H]

$$$$
74:0:0
     RDKit          3D

 98108  0  0  1  0  0  0  0  0999 V2000
  -32.0790  -21.3150   21.2740 C   0  0  0  0  0  2  0  0  0  0  0  0
  -31.9350  -22.0820   20.1780 C   0  0  0  0  0  2  0  0  0  0  0  0
  -30.4490  -22.6070   22.5740 C   0  0  0  0  0  2  0  0  0  0  0  0
  -29.3820  -20.4700   19.0510 C   0  0  0  0  0  2  0  0  0  0  0  0
  -30.8220  -21.1660   22.1170 C   0  0  0  0  0  3  0  0  0  0  0  0
  -30.5770  -22.7670   20.0280 C   0  0  0  0  0  3  0  0  0  0  0  0
  -29.7180  -20.6560   21.1570 C   0  0  0  0  0  3  0  0  0  0  0  0
  -30.4190  -23.5940   21.3530 C   0  0  0  0  0  3  0  0  0  0  0  0
  -30.0600  -19.5470   20.1080 C   0  0  0  0  0  3  0  0  0  0  0  0
  -29.4250  -21.7020   20.0120 C   0  0  2  0  0  0  0  0  0  0  0  0
  -31.4560  -24.7230   21.4960 C   0  0  0  0  0  1  0  0  0  0  0  0
  -28.0140  -22.3590   20.1650 C   0  0  0  0  0  3  0  0  0  0  0  0
  -27.4280  -23.5560   19.8180 C   0  0  0  0  0  0  0  0  0  0  0  0
  -25.9830  -23.7550   20.2560 C   0  0  0  0  0  1  0  0  0  0  0  0
  -28.0060  -24.7470   18.9890 C   0  0  0  0  0  2  0  0  0  0  0  0
  -28.0180  -26.0830   19.5980 O   0  0  0  0  0  0  0  0  0  0  0  0
  -24.5570  -31.3140   23.0270 C   0  0  0  0  0  0  0  0  0  0  0  0
  -26.9210  -26.9440   19.5650 C   0  0  0  0  0  0  0  0  0  0  0  0
  -23.2810  -30.1350   21.2740 C   0  0  0  0  0  3  0  0  0  0  0  0
  -24.6420  -28.6480   19.7040 C   0  0  0  0  0  0  0  0  0  0  0  0
  -25.8290  -30.3360   21.1140 C   0  0  0  0  0  2  0  0  0  0  0  0
  -25.8300  -29.0240   20.3410 C   0  0  0  0  0  0  0  0  0  0  0  0
  -26.9700  -28.1810   20.2690 C   0  0  0  0  0  3  0  0  0  0  0  0
  -25.7200  -26.6200   18.8920 C   0  0  0  0  0  3  0  0  0  0  0  0
  -24.5870  -27.4480   18.9740 C   0  0  0  0  0  3  0  0  0  0  0  0
  -23.4580  -29.5790   19.8370 C   0  0  0  0  0  2  0  0  0  0  0  0
  -24.5750  -30.6070   21.8610 N   0  0  0  0  0  0  0  0  0  0  0  0
  -23.4920  -31.6020   23.5910 O   0  0  0  0  0  0  0  0  0  0  0  0
  -22.5650  -29.0710   22.1400 C   0  0  0  0  0  0  0  0  0  0  0  0
  -21.2250  -29.0240   22.0490 N   0  0  0  0  0  0  0  0  0  0  0  0
  -23.2110  -28.3010   22.8560 O   0  0  0  0  0  0  0  0  0  0  0  0
  -20.7700  -29.6910   21.4420 H   0  0  0  0  0  0  0  0  0  0  0  0
  -17.7680  -28.1290   22.6070 C   0  0  0  0  0  0  0  0  0  0  0  0
  -20.3500  -28.0810   22.7420 C   0  0  0  0  0  3  0  0  0  0  0  0
  -20.2660  -26.7390   21.9810 C   0  0  0  0  0  2  0  0  0  0  0  0
  -19.0840  -26.6730   21.0080 C   0  0  0  0  0  2  0  0  0  0  0  0
  -17.7620  -26.8720   21.7550 C   0  0  0  0  0  2  0  0  0  0  0  0
  -18.9870  -28.7050   23.0590 C   0  0  0  0  0  0  0  0  0  0  0  0
  -18.9420  -29.8930   23.8210 C   0  0  0  0  0  3  0  0  0  0  0  0
  -17.7110  -30.5000   24.1370 C   0  0  0  0  0  3  0  0  0  0  0  0
  -16.5080  -29.9170   23.7000 C   0  0  0  0  0  3  0  0  0  0  0  0
  -16.5380  -28.7350   22.9390 C   0  0  0  0  0  3  0  0  0  0  0  0
  -25.8760  -31.8120   23.6960 C   0  0  0  0  0  3  0  0  0  0  0  0
  -25.6490  -33.1920   24.1460 N   0  0  0  0  0  0  0  0  0  0  0  0
  -26.0660  -34.2830   23.4900 C   0  0  0  0  0  0  0  0  0  0  0  0
  -26.7500  -34.2270   22.4650 O   0  0  0  0  0  0  0  0  0  0  0  0
  -25.0340  -33.3140   24.9370 H   0  0  0  0  0  0  0  0  0  0  0  0
  -24.4610  -36.2070   23.2740 C   0  0  0  0  0  1  0  0  0  0  0  0
  -25.6570  -35.6530   24.0630 C   0  0  0  0  0  3  0  0  0  0  0  0
  -27.8220  -36.3240   25.0070 C   0  0  0  0  0  1  0  0  0  0  0  0
  -26.7570  -36.6420   24.0590 N   0  0  0  0  0  0  0  0  0  0  0  0
  -26.4090  -37.5730   24.2750 H   0  0  0  0  0  0  0  0  0  0  0  0
  -26.3400  -30.9060   24.9020 C   0  0  1  0  0  0  0  0  0  0  0  0
  -25.2330  -30.6610   25.9550 C   0  0  0  0  0  1  0  0  0  0  0  0
  -26.8240  -29.5280   24.3970 C   0  0  0  0  0  1  0  0  0  0  0  0
  -27.5430  -31.5660   25.6180 C   0  0  0  0  0  1  0  0  0  0  0  0
  -28.1510  -17.8990   19.9860 C   0  0  0  0  0  1  0  0  0  0  0  0
  -29.5470  -18.1470   20.4190 N   0  0  1  0  0  4  0  0  0  0  0  0
  -29.5160  -18.1270   21.4280 H   0  0  0  0  0  0  0  0  0  0  0  0
  -30.4940  -17.0130   20.0540 C   0  0  0  0  0  2  0  0  0  0  0  0
  -30.9920  -15.8370   22.2910 C   0  0  0  0  0  1  0  0  0  0  0  0
  -30.3760  -15.6620   20.8890 C   0  0  0  0  0  3  0  0  0  0  0  0
  -31.0290  -14.3930   20.2100 C   0  0  0  0  0  0  0  0  0  0  0  0
  -30.6820  -12.2200   19.0520 C   0  0  0  0  0  2  0  0  0  0  0  0
  -29.6900  -12.4240   17.8870 C   0  0  0  0  0  2  0  0  0  0  0  0
  -28.2310  -12.3030   18.3750 C   0  0  0  0  0  2  0  0  0  0  0  0
  -27.9580  -13.1370   19.6550 C   0  0  0  0  0  3  0  0  0  0  0  0
  -29.0560  -12.8970   20.7140 C   0  0  0  0  0  2  0  0  0  0  0  0
  -30.3520  -13.2100   20.0950 N   0  0  0  0  0  0  0  0  0  0  0  0
  -32.1460  -14.5280   19.7010 O   0  0  0  0  0  0  0  0  0  0  0  0
  -25.6160  -13.7970   20.4900 C   0  0  0  0  0  0  0  0  0  0  0  0
  -24.5430  -13.0480   20.8900 C   0  0  0  0  0  0  0  0  0  0  0  0
  -24.9600  -11.6830   20.8040 C   0  0  0  0  0  0  0  0  0  0  0  0
  -26.6220  -12.8910   20.1880 N   0  0  0  0  0  0  0  0  0  0  0  0
  -26.2330  -11.6130   20.4350 N   0  0  0  0  0  0  0  0  0  0  0  0
  -24.2020  -10.4400   20.9890 C   0  0  0  0  0  0  0  0  0  0  0  0
  -24.6210   -9.4490   21.9050 C   0  0  0  0  0  3  0  0  0  0  0  0
  -23.8640   -8.2710   22.0800 C   0  0  0  0  0  3  0  0  0  0  0  0
  -22.6740   -8.0740   21.3390 C   0  0  0  0  0  0  0  0  0  0  0  0
  -22.2750   -9.0540   20.4120 C   0  0  0  0  0  3  0  0  0  0  0  0
  -23.0320  -10.2230   20.2340 C   0  0  0  0  0  3  0  0  0  0  0  0
  -21.8890   -6.9500   21.4250 O   0  0  0  0  0  0  0  0  0  0  0  0
  -21.8020   -6.2210   22.5850 C   0  0  0  0  0  0  0  0  0  0  0  0
  -21.3560   -6.7980   23.7950 C   0  0  0  0  0  3  0  0  0  0  0  0
  -21.2140   -5.9960   24.9460 C   0  0  0  0  0  3  0  0  0  0  0  0
  -21.5080   -4.6190   24.8880 C   0  0  0  0  0  0  0  0  0  0  0  0
  -21.9470   -4.0440   23.6810 C   0  0  0  0  0  3  0  0  0  0  0  0
  -22.0910   -4.8430   22.5330 C   0  0  0  0  0  0  0  0  0  0  0  0
  -22.4940   -4.2790   21.3690 F   0  0  0  0  0  0  0  0  0  0  0  0
  -21.3650   -3.8470   25.9900 F   0  0  0  0  0  0  0  0  0  0  0  0
  -23.1750  -13.5610   21.2350 C   0  0  0  0  0  0  0  0  0  0  0  0
  -22.4660  -12.8720   22.1240 N   0  0  0  0  0  0  0  0  0  0  0  0
  -22.7450  -14.6080   20.7520 O   0  0  0  0  0  0  0  0  0  0  0  0
  -22.8250  -12.0240   22.5360 H   0  0  0  0  0  0  0  0  0  0  0  0
  -21.5510  -13.1990   22.3970 H   0  0  0  0  0  0  0  0  0  0  0  0
  -25.8140  -15.1660   20.3320 N   0  0  0  0  0  0  0  0  0  0  0  0
  -25.0530  -15.8250   20.4490 H   0  0  0  0  0  0  0  0  0  0  0  0
  -26.6170  -15.5620   19.8630 H   0  0  0  0  0  0  0  0  0  0  0  0
  2  1  1  0
  4 10  1  0
  4  9  1  0
  5  1  1  0
  5  3  1  0
  6  2  1  0
  6  8  1  0
  7  5  1  0
  8 11  1  0
  8  3  1  0
  9 58  1  0
  9  7  1  0
 10  6  1  0
 10 12  1  1
 10  7  1  0
 13 12  2  0
 13 14  1  0
 15 16  1  0
 15 13  1  0
 17 28  2  0
 17 43  1  0
 18 16  1  0
 18 23  1  0
 19 27  1  0
 19 29  1  0
 20 26  1  0
 20 22  1  0
 21 27  1  0
 22 21  1  0
 23 22  2  0
 24 25  1  0
 24 18  2  0
 25 20  2  0
 26 19  1  0
 27 17  1  0
 29 31  2  0
 30 29  1  0
 30 34  1  0
 32 30  1  0
 33 42  2  0
 33 38  1  0
 34 38  1  0
 35 34  1  0
 36 37  1  0
 36 35  1  0
 37 33  1  0
 38 39  2  0
 39 40  1  0
 41 40  2  0
 42 41  1  0
 43 44  1  0
 43 53  1  0
 44 47  1  0
 45 49  1  0
 45 44  1  0
 46 45  2  0
 48 49  1  0
 51 49  1  0
 51 52  1  0
 51 50  1  0
 53 56  1  1
 53 54  1  0
 55 53  1  0
 57 58  1  0
 58 59  1  1
 60 58  1  0
 60 62  1  0
 62 61  1  0
 63 62  1  0
 64 69  1  0
 65 66  1  0
 65 64  1  0
 66 67  1  0
 67 74  1  0
 67 68  1  0
 69 63  1  0
 69 68  1  0
 70 63  2  0
 71 72  2  0
 72 91  1  0
 73 72  1  0
 73 76  1  0
 74 75  1  0
 74 71  1  0
 75 73  2  0
 76 77  1  0
 77 78  2  0
 79 82  1  0
 79 78  1  0
 80 79  2  0
 81 80  1  0
 81 76  2  0
 82 83  1  0
 83 84  1  0
 84 85  2  0
 86 85  1  0
 86 90  1  0
 87 86  2  0
 88 83  2  0
 88 87  1  0
 89 88  1  0
 91 92  1  0
 92 95  1  0
 92 94  1  0
 93 91  2  0
 96 97  1  0
 96 71  1  0
 98 96  1  0
M  ISO  4  15 101  16 101  62 100  63 100
M  END
>  <TORSDO>  (75) 
F 21

>  <SCORE>  (75) 
-12.440

>  <name>  (75) 
74

>  <ligand_id>  (75) 
74

>  <original_smiles>  (75) 
[H]C1=C([H])C2([H])C([H])(C([H])([H])[H])C([H])([H])C1([H])C1([H])C2(C([H])=C(C([H])([H])[H])C([H])([H])Oc2c([H])c([H])c3c(c2[H])C([H])([H])N(C(=O)C([H])(N([H])C(=O)C([H])(N([H])C([H])([H])[H])C([H])([H])[H])C(C([H])([H])[H])(C([H])([H])[H])C([H])([H])[H])C([H])(C(=O)N([H])C2([H])c4c([H])c([H])c([H])c([H])c4C([H])([H])C([H])([H])C2([H])[H])C3([H])[H])C([H])([H])C1([H])[N+]([H])(C([H])([H])[H])C([H])([H])C([H])(C(=O)N1C([H])([H])C([H])([H])C([H])([H])C([H])(n2nc(-c3c([H])c([H])c(Oc4c([H])c([H])c(F)c([H])c4F)c([H])c3[H])c(C(=O)N([H])[H])c2N([H])[H])C1([H])[H])C([H])([H])[H]

>  <smiles>  (75) 
[H]C1=C([H])C2([H])C([H])(C([H])([H])[H])C([H])([H])C1([H])C1([H])C2(C([H])=C(C([H])([H])[H])C([H])([H])Oc2c([H])c([H])c3c(c2[H])C([H])([H])N(C(=O)C([H])(N([H])C(=O)C([H])(N([H])C([H])([H])[H])C([H])([H])[H])C(C([H])([H])[H])(C([H])([H])[H])C([H])([H])[H])C([H])(C(=O)N([H])C2([H])c4c([H])c([H])c([H])c([H])c4C([H])([H])C([H])([H])C2([H])[H])C3([H])[H])C([H])([H])C1([H])[N+]([H])(C([H])([H])[H])C([H])([H])C([H])(C(=O)N1C([H])([H])C([H])([H])C([H])([H])C([H])(n2nc(-c3c([H])c([H])c(Oc4c([H])c([H])c(F)c([H])c4F)c([H])c3[H])c(C(=O)N([H])[H])c2N([H])[H])C1([H])[H])C([H])([H])[H]

$$$$
75:0:0
     RDKit          3D

 89 97  0  0  1  0  0  0  0  0999 V2000
  -29.7090  -20.5860   20.3070 C   0  0  0  0  0  3  0  0  0  0  0  0
  -29.2180  -19.1060   20.5320 N   0  0  0  0  0  4  0  0  0  0  0  0
  -28.8360  -19.0800   21.4650 H   0  0  0  0  0  0  0  0  0  0  0  0
  -28.4410  -18.9590   19.9080 H   0  0  0  0  0  0  0  0  0  0  0  0
  -30.1580  -17.8440   20.3930 C   0  0  0  0  0  3  0  0  0  0  0  0
  -29.6510  -16.2930   20.7480 C   0  0  0  0  0  3  0  0  0  0  0  0
  -30.4850  -14.9150   20.4100 C   0  0  0  0  0  0  0  0  0  0  0  0
  -30.3520  -12.6010   19.3970 C   0  0  0  0  0  2  0  0  0  0  0  0
  -29.4180  -12.6390   18.1640 C   0  0  0  0  0  2  0  0  0  0  0  0
  -27.9480  -12.4390   18.5830 C   0  0  0  0  0  2  0  0  0  0  0  0
  -27.5550  -13.3300   19.7900 C   0  0  0  0  0  3  0  0  0  0  0  0
  -28.6060  -13.2710   20.9180 C   0  0  0  0  0  2  0  0  0  0  0  0
  -29.9020  -13.6560   20.3440 N   0  0  0  0  0  0  0  0  0  0  0  0
  -31.6710  -15.0060   20.0740 O   0  0  0  0  0  0  0  0  0  0  0  0
  -25.1650  -13.9140   20.5060 C   0  0  0  0  0  0  0  0  0  0  0  0
  -24.0980  -13.1400   20.8690 C   0  0  0  0  0  0  0  0  0  0  0  0
  -24.5630  -11.7900   20.8470 C   0  0  0  0  0  0  0  0  0  0  0  0
  -26.2110  -13.0360   20.2770 N   0  0  0  0  0  0  0  0  0  0  0  0
  -25.8570  -11.7540   20.5470 N   0  0  0  0  0  0  0  0  0  0  0  0
  -23.8360  -10.5280   21.0340 C   0  0  0  0  0  0  0  0  0  0  0  0
  -24.2580   -9.5640   21.9760 C   0  0  0  0  0  3  0  0  0  0  0  0
  -23.5310   -8.3670   22.1500 C   0  0  0  0  0  3  0  0  0  0  0  0
  -22.3660   -8.1260   21.3830 C   0  0  0  0  0  0  0  0  0  0  0  0
  -21.9630   -9.0780   20.4310 C   0  0  0  0  0  3  0  0  0  0  0  0
  -22.6910  -10.2660   20.2550 C   0  0  0  0  0  3  0  0  0  0  0  0
  -21.6100   -6.9810   21.4670 O   0  0  0  0  0  0  0  0  0  0  0  0
  -21.5460   -6.2440   22.6220 C   0  0  0  0  0  0  0  0  0  0  0  0
  -21.0870   -6.8000   23.8360 C   0  0  0  0  0  3  0  0  0  0  0  0
  -20.9720   -5.9890   24.9830 C   0  0  0  0  0  3  0  0  0  0  0  0
  -21.3040   -4.6230   24.9170 C   0  0  0  0  0  0  0  0  0  0  0  0
  -21.7570   -4.0660   23.7070 C   0  0  0  0  0  3  0  0  0  0  0  0
  -21.8740   -4.8750   22.5620 C   0  0  0  0  0  0  0  0  0  0  0  0
  -22.2900   -4.3280   21.3940 F   0  0  0  0  0  0  0  0  0  0  0  0
  -21.1860   -3.8410   26.0150 F   0  0  0  0  0  0  0  0  0  0  0  0
  -22.6970  -13.6170   21.1260 C   0  0  0  0  0  0  0  0  0  0  0  0
  -21.9620  -12.9240   21.9880 N   0  0  0  0  0  0  0  0  0  0  0  0
  -22.2650  -14.6400   20.5970 O   0  0  0  0  0  0  0  0  0  0  0  0
  -22.3240  -12.0960   22.4370 H   0  0  0  0  0  0  0  0  0  0  0  0
  -21.0210  -13.2260   22.2020 H   0  0  0  0  0  0  0  0  0  0  0  0
  -25.3300  -15.2850   20.3270 N   0  0  0  0  0  0  0  0  0  0  0  0
  -24.5620  -15.9400   20.4260 H   0  0  0  0  0  0  0  0  0  0  0  0
  -26.1800  -15.7190   19.9910 H   0  0  0  0  0  0  0  0  0  0  0  0
  -31.5530  -21.7010   18.7680 C   0  0  0  0  0  2  0  0  0  0  0  0
  -31.9370  -20.2500   18.9020 C   0  0  0  0  0  2  0  0  0  0  0  0
  -30.4820  -20.6580   18.9950 C   0  0  0  0  0  3  0  0  0  0  0  0
  -28.6380  -21.8730   20.3660 C   0  0  0  0  0  2  0  0  0  0  0  0
  -29.0530  -23.4960   20.3350 C   0  0  0  0  0  3  0  0  0  0  0  0
  -27.9620  -24.7460   20.2070 C   0  0  0  0  0  3  0  0  0  0  0  0
  -28.2530  -26.2590   20.2720 O   0  0  0  0  0  0  0  0  0  0  0  0
  -24.6340  -31.9090   23.2590 C   0  0  0  0  0  0  0  0  0  0  0  0
  -27.1840  -27.2170   20.2180 C   0  0  0  0  0  0  0  0  0  0  0  0
  -23.4200  -30.5210   21.6230 C   0  0  0  0  0  3  0  0  0  0  0  0
  -24.8560  -28.9450   20.1970 C   0  0  0  0  0  0  0  0  0  0  0  0
  -25.9730  -30.7850   21.4450 C   0  0  0  0  0  2  0  0  0  0  0  0
  -26.0390  -29.3950   20.7960 C   0  0  0  0  0  0  0  0  0  0  0  0
  -27.2050  -28.5470   20.7900 C   0  0  0  0  0  3  0  0  0  0  0  0
  -25.9730  -26.8580   19.5850 C   0  0  0  0  0  3  0  0  0  0  0  0
  -24.8330  -27.6880   19.5770 C   0  0  0  0  0  3  0  0  0  0  0  0
  -23.6320  -29.8430   20.2440 C   0  0  0  0  0  2  0  0  0  0  0  0
  -24.6970  -31.0920   22.1650 N   0  0  0  0  0  0  0  0  0  0  0  0
  -23.5510  -32.1980   23.7910 O   0  0  0  0  0  0  0  0  0  0  0  0
  -22.7420  -29.5140   22.5860 C   0  0  0  0  0  0  0  0  0  0  0  0
  -21.4140  -29.3440   22.4570 N   0  0  0  0  0  0  0  0  0  0  0  0
  -23.4110  -28.8880   23.4120 O   0  0  0  0  0  0  0  0  0  0  0  0
  -20.9310  -29.9010   21.7650 H   0  0  0  0  0  0  0  0  0  0  0  0
  -18.0300  -28.1530   22.9510 C   0  0  0  0  0  0  0  0  0  0  0  0
  -20.5880  -28.4120   23.2290 C   0  0  0  0  0  3  0  0  0  0  0  0
  -20.6900  -26.9770   22.6620 C   0  0  0  0  0  2  0  0  0  0  0  0
  -19.5920  -26.6500   21.6450 C   0  0  0  0  0  2  0  0  0  0  0  0
  -18.2080  -26.8000   22.2820 C   0  0  0  0  0  2  0  0  0  0  0  0
  -19.1470  -28.9170   23.3810 C   0  0  0  0  0  0  0  0  0  0  0  0
  -18.9270  -30.1810   23.9680 C   0  0  0  0  0  3  0  0  0  0  0  0
  -17.6220  -30.6840   24.1260 C   0  0  0  0  0  3  0  0  0  0  0  0
  -16.5190  -29.9180   23.7110 C   0  0  0  0  0  3  0  0  0  0  0  0
  -16.7230  -28.6540   23.1300 C   0  0  0  0  0  3  0  0  0  0  0  0
  -25.9180  -32.5350   23.8820 C   0  0  0  0  0  3  0  0  0  0  0  0
  -25.6170  -33.9370   24.2110 N   0  0  0  0  0  0  0  0  0  0  0  0
  -25.9410  -34.9890   23.4470 C   0  0  0  0  0  0  0  0  0  0  0  0
  -26.5940  -34.8810   22.4060 O   0  0  0  0  0  0  0  0  0  0  0  0
  -25.0340  -34.0950   25.0200 H   0  0  0  0  0  0  0  0  0  0  0  0
  -24.2090  -36.7880   23.1280 C   0  0  0  0  0  1  0  0  0  0  0  0
  -25.4680  -36.3810   23.9110 C   0  0  0  0  0  3  0  0  0  0  0  0
  -27.6220  -37.2670   24.6890 C   0  0  0  0  0  1  0  0  0  0  0  0
  -26.5000  -37.4320   23.7690 N   0  0  0  0  0  0  0  0  0  0  0  0
  -26.0990  -38.3530   23.9200 H   0  0  0  0  0  0  0  0  0  0  0  0
  -26.4260  -31.7660   25.1620 C   0  0  1  0  0  0  0  0  0  0  0  0
  -25.3280  -31.5390   26.2290 C   0  0  0  0  0  1  0  0  0  0  0  0
  -26.9990  -30.3820   24.7780 C   0  0  0  0  0  1  0  0  0  0  0  0
  -27.5820  -32.5510   25.8230 C   0  0  0  0  0  1  0  0  0  0  0  0
  1 46  1  0
  1  2  1  0
  2  3  1  0
  4  2  1  0
  5  2  1  0
  5  6  2  0
  7  6  1  0
  8 13  1  0
  9 10  1  0
  9  8  1  0
 11 10  1  0
 11 18  1  0
 11 12  1  0
 13  7  1  0
 13 12  1  0
 14  7  2  0
 15 16  2  0
 16 35  1  0
 17 16  1  0
 17 20  1  0
 18 15  1  0
 18 19  1  0
 19 17  2  0
 20 21  1  0
 21 22  2  0
 23 26  1  0
 23 22  1  0
 24 23  2  0
 25 24  1  0
 25 20  2  0
 26 27  1  0
 27 28  1  0
 28 29  2  0
 30 29  1  0
 30 34  1  0
 31 30  2  0
 32 27  2  0
 32 31  1  0
 33 32  1  0
 35 36  1  0
 36 39  1  0
 36 38  1  0
 37 35  2  0
 40 41  1  0
 40 15  1  0
 42 40  1  0
 43 44  1  0
 43 45  1  0
 44 45  1  0
 45  1  1  0
 47 46  1  0
 48 49  1  0
 48 47  2  0
 50 61  2  0
 51 49  1  0
 51 56  1  0
 52 60  1  0
 52 62  1  0
 53 59  1  0
 53 55  1  0
 54 60  1  0
 55 54  1  0
 56 55  2  0
 57 51  2  0
 58 57  1  0
 58 53  2  0
 59 52  1  0
 60 50  1  0
 62 64  2  0
 63 62  1  0
 65 63  1  0
 66 75  2  0
 66 71  1  0
 67 63  1  0
 67 71  1  0
 68 67  1  0
 69 70  1  0
 69 68  1  0
 70 66  1  0
 71 72  2  0
 72 73  1  0
 74 73  2  0
 75 74  1  0
 76 50  1  0
 76 77  1  0
 76 86  1  0
 77 80  1  0
 78 82  1  0
 78 77  1  0
 79 78  2  0
 82 81  1  0
 84 82  1  0
 84 85  1  0
 84 83  1  0
 86 89  1  1
 86 87  1  0
 88 86  1  0
M  ISO  4   6 100   7 100  48 101  49 101
M  END
>  <TORSDO>  (76) 
F 23

>  <SCORE>  (76) 
-12.681

>  <name>  (76) 
75

>  <ligand_id>  (76) 
75

>  <original_smiles>  (76) 
[H]c1c([H])c([H])c2c(c1[H])C([H])([H])C([H])([H])C([H])([H])C2([H])N([H])C(=O)C1([H])N(C(=O)C([H])(N([H])C(=O)C([H])(N([H])C([H])([H])[H])C([H])([H])[H])C(C([H])([H])[H])(C([H])([H])[H])C([H])([H])[H])C([H])([H])c2c([H])c(OC([H])([H])C([H])([H])C([H])([H])C([H])(C3([H])C([H])([H])C3([H])[H])[N+]([H])([H])C([H])([H])C([H])([H])C(=O)N3C([H])([H])C([H])([H])C([H])([H])C([H])(n4nc(-c5c([H])c([H])c(Oc6c([H])c([H])c(F)c([H])c6F)c([H])c5[H])c(C(=O)N([H])[H])c4N([H])[H])C3([H])[H])c([H])c([H])c2C1([H])[H]

>  <smiles>  (76) 
[H]c1c([H])c([H])c2c(c1[H])C([H])([H])C([H])([H])C([H])([H])C2([H])N([H])C(=O)C1([H])N(C(=O)C([H])(N([H])C(=O)C([H])(N([H])C([H])([H])[H])C([H])([H])[H])C(C([H])([H])[H])(C([H])([H])[H])C([H])([H])[H])C([H])([H])c2c([H])c(OC([H])([H])C([H])([H])C([H])([H])C([H])(C3([H])C([H])([H])C3([H])[H])[N+]([H])([H])C([H])([H])C([H])([H])C(=O)N3C([H])([H])C([H])([H])C([H])([H])C([H])(n4nc(-c5c([H])c([H])c(Oc6c([H])c([H])c(F)c([H])c6F)c([H])c5[H])c(C(=O)N([H])[H])c4N([H])[H])C3([H])[H])c([H])c([H])c2C1([H])[H]

$$$$
76:0:0
     RDKit          3D

 95104  0  0  1  0  0  0  0  0999 V2000
  -30.2790  -18.1530   24.8440 C   0  0  0  0  0  2  0  0  0  0  0  0
  -30.2240  -19.6750   24.5920 C   0  0  0  0  0  2  0  0  0  0  0  0
  -31.1820  -17.4170   23.8290 C   0  0  0  0  0  2  0  0  0  0  0  0
  -29.8580  -20.0060   23.1330 C   0  0  0  0  0  2  0  0  0  0  0  0
  -31.4000  -18.2160   20.0970 C   0  0  0  0  0  2  0  0  0  0  0  0
  -30.7380  -17.7590   22.4000 C   0  0  0  0  0  3  0  0  0  0  0  0
  -30.8170  -19.2660   22.1780 C   0  0  0  0  0  3  0  0  0  0  0  0
  -31.5560  -17.1720   21.2420 C   0  0  0  0  0  3  0  0  0  0  0  0
  -30.6600  -19.4690   20.6570 C   0  0  2  0  0  0  0  0  0  0  0  0
  -29.1690  -19.4300   20.2410 C   0  0  0  0  0  1  0  0  0  0  0  0
  -31.6170  -14.9330   20.0830 C   0  0  0  0  0  0  0  0  0  0  0  0
  -31.1940  -12.8340   18.8500 C   0  0  0  0  0  2  0  0  0  0  0  0
  -30.2480  -13.1090   17.6640 C   0  0  0  0  0  2  0  0  0  0  0  0
  -28.7710  -13.0480   18.1100 C   0  0  0  0  0  2  0  0  0  0  0  0
  -28.4990  -13.8810   19.3900 C   0  0  0  0  0  3  0  0  0  0  0  0
  -29.5450  -13.5550   20.4780 C   0  0  0  0  0  2  0  0  0  0  0  0
  -30.8820  -13.8030   19.9090 N   0  0  0  0  0  0  0  0  0  0  0  0
  -32.6940  -15.1370   19.5140 O   0  0  0  0  0  0  0  0  0  0  0  0
  -31.0450  -15.8440   20.8860 N   0  0  0  0  0  0  0  0  0  0  0  0
  -30.1720  -15.5690   21.3070 H   0  0  0  0  0  0  0  0  0  0  0  0
  -26.1370  -14.6210   20.1000 C   0  0  0  0  0  0  0  0  0  0  0  0
  -25.0370  -13.9100   20.4950 C   0  0  0  0  0  0  0  0  0  0  0  0
  -25.4320  -12.5370   20.4880 C   0  0  0  0  0  0  0  0  0  0  0  0
  -27.1370  -13.6850   19.8790 N   0  0  0  0  0  0  0  0  0  0  0  0
  -26.7140  -12.4280   20.1680 N   0  0  0  0  0  0  0  0  0  0  0  0
  -24.6490  -11.3160   20.7140 C   0  0  0  0  0  0  0  0  0  0  0  0
  -25.0430  -10.3520   21.6680 C   0  0  0  0  0  3  0  0  0  0  0  0
  -24.2640   -9.1950   21.8800 C   0  0  0  0  0  3  0  0  0  0  0  0
  -23.0760   -8.9930   21.1360 C   0  0  0  0  0  0  0  0  0  0  0  0
  -22.7000   -9.9450   20.1730 C   0  0  0  0  0  3  0  0  0  0  0  0
  -23.4800  -11.0930   19.9590 C   0  0  0  0  0  3  0  0  0  0  0  0
  -22.2700   -7.8850   21.2570 O   0  0  0  0  0  0  0  0  0  0  0  0
  -22.0910   -7.2520   22.4610 C   0  0  0  0  0  0  0  0  0  0  0  0
  -21.6250   -7.9430   23.6020 C   0  0  0  0  0  3  0  0  0  0  0  0
  -21.3820   -7.2410   24.7990 C   0  0  0  0  0  3  0  0  0  0  0  0
  -21.5990   -5.8510   24.8590 C   0  0  0  0  0  0  0  0  0  0  0  0
  -22.0580   -5.1610   23.7230 C   0  0  0  0  0  3  0  0  0  0  0  0
  -22.3000   -5.8600   22.5270 C   0  0  0  0  0  0  0  0  0  0  0  0
  -22.7220   -5.1870   21.4290 F   0  0  0  0  0  0  0  0  0  0  0  0
  -21.3590   -5.1760   26.0080 F   0  0  0  0  0  0  0  0  0  0  0  0
  -23.6670  -14.4610   20.7730 C   0  0  0  0  0  0  0  0  0  0  0  0
  -22.9460  -13.8640   21.7160 N   0  0  0  0  0  0  0  0  0  0  0  0
  -23.2500  -15.4560   20.1840 O   0  0  0  0  0  0  0  0  0  0  0  0
  -23.2970  -13.0610   22.2140 H   0  0  0  0  0  0  0  0  0  0  0  0
  -22.0280  -14.2200   21.9450 H   0  0  0  0  0  0  0  0  0  0  0  0
  -26.3660  -15.9790   19.8960 N   0  0  0  0  0  0  0  0  0  0  0  0
  -25.6390  -16.6740   20.0140 H   0  0  0  0  0  0  0  0  0  0  0  0
  -27.2360  -16.3690   19.5590 H   0  0  0  0  0  0  0  0  0  0  0  0
  -31.3340  -20.8200   20.2520 C   0  0  0  0  0  2  0  0  0  0  0  0
  -30.6990  -21.6010   19.0830 C   0  0  0  0  0  2  0  0  0  0  0  0
  -31.0380  -23.0830   19.1200 C   0  0  0  0  0  3  0  0  0  0  0  0
  -30.2190  -24.0560   19.5680 C   0  0  0  0  0  3  0  0  0  0  0  0
  -30.5640  -25.5390   19.5660 C   0  0  0  0  0  2  0  0  0  0  0  0
  -29.3670  -26.4540   19.2270 C   0  0  0  0  0  2  0  0  0  0  0  0
  -28.8310  -27.0290   20.4240 O   0  0  0  0  0  0  0  0  0  0  0  0
  -24.5570  -31.7660   23.5770 C   0  0  0  0  0  0  0  0  0  0  0  0
  -27.6000  -27.6530   20.3860 C   0  0  0  0  0  0  0  0  0  0  0  0
  -23.5010  -30.3540   21.8430 C   0  0  0  0  0  3  0  0  0  0  0  0
  -25.0980  -28.9810   20.4050 C   0  0  0  0  0  0  0  0  0  0  0  0
  -26.0020  -30.8850   21.7480 C   0  0  0  0  0  2  0  0  0  0  0  0
  -26.1980  -29.5540   21.0530 C   0  0  0  0  0  0  0  0  0  0  0  0
  -27.4460  -28.8900   21.0530 C   0  0  0  0  0  3  0  0  0  0  0  0
  -26.4720  -27.0810   19.7530 C   0  0  0  0  0  3  0  0  0  0  0  0
  -25.2270  -27.7390   19.7590 C   0  0  0  0  0  3  0  0  0  0  0  0
  -23.7970  -29.7510   20.4450 C   0  0  0  0  0  2  0  0  0  0  0  0
  -24.7020  -31.0150   22.4480 N   0  0  0  0  0  0  0  0  0  0  0  0
  -23.4430  -31.9420   24.0910 O   0  0  0  0  0  0  0  0  0  0  0  0
  -22.8950  -29.2500   22.7390 C   0  0  0  0  0  0  0  0  0  0  0  0
  -21.6290  -28.8910   22.4710 N   0  0  0  0  0  0  0  0  0  0  0  0
  -23.5640  -28.7220   23.6300 O   0  0  0  0  0  0  0  0  0  0  0  0
  -21.1450  -29.3770   21.7290 H   0  0  0  0  0  0  0  0  0  0  0  0
  -18.4740  -27.1290   22.4980 C   0  0  0  0  0  0  0  0  0  0  0  0
  -20.8670  -27.8510   23.1610 C   0  0  0  0  0  3  0  0  0  0  0  0
  -21.3090  -26.4410   22.7030 C   0  0  0  0  0  2  0  0  0  0  0  0
  -20.4670  -25.8900   21.5470 C   0  0  0  0  0  2  0  0  0  0  0  0
  -18.9910  -25.8090   21.9500 C   0  0  0  0  0  2  0  0  0  0  0  0
  -19.3570  -28.0940   23.0520 C   0  0  0  0  0  0  0  0  0  0  0  0
  -18.8290  -29.3180   23.5150 C   0  0  0  0  0  3  0  0  0  0  0  0
  -17.4490  -29.5840   23.4370 C   0  0  0  0  0  3  0  0  0  0  0  0
  -16.5780  -28.6190   22.9010 C   0  0  0  0  0  3  0  0  0  0  0  0
  -17.0910  -27.3950   22.4370 C   0  0  0  0  0  3  0  0  0  0  0  0
  -25.7770  -32.4570   24.2620 C   0  0  0  0  0  3  0  0  0  0  0  0
  -25.4520  -33.8820   24.4110 N   0  0  0  0  0  0  0  0  0  0  0  0
  -25.8850  -34.8490   23.5920 C   0  0  0  0  0  0  0  0  0  0  0  0
  -26.6690  -34.6380   22.6630 O   0  0  0  0  0  0  0  0  0  0  0  0
  -24.7710  -34.1190   25.1160 H   0  0  0  0  0  0  0  0  0  0  0  0
  -24.2340  -36.5950   22.8550 C   0  0  0  0  0  1  0  0  0  0  0  0
  -25.3660  -36.2780   23.8430 C   0  0  0  0  0  3  0  0  0  0  0  0
  -27.4120  -37.2290   24.8130 C   0  0  0  0  0  1  0  0  0  0  0  0
  -26.4200  -37.3110   23.7450 N   0  0  0  0  0  0  0  0  0  0  0  0
  -26.0130  -38.2430   23.7610 H   0  0  0  0  0  0  0  0  0  0  0  0
  -26.1480  -31.8230   25.6590 C   0  0  1  0  0  0  0  0  0  0  0  0
  -24.9520  -31.7220   26.6340 C   0  0  0  0  0  1  0  0  0  0  0  0
  -26.7290  -30.4010   25.4750 C   0  0  0  0  0  1  0  0  0  0  0  0
  -27.2510  -32.6660   26.3400 C   0  0  0  0  0  1  0  0  0  0  0  0
  2  1  1  0
  3  1  1  0
  4  2  1  0
  5  9  1  0
  5  8  1  0
  6  3  1  0
  7  6  1  0
  7  4  1  0
  8 19  1  0
  8  6  1  0
  9 10  1  1
  9  7  1  0
 11 19  1  0
 12 17  1  0
 13 14  1  0
 13 12  1  0
 15 14  1  0
 15 24  1  0
 15 16  1  0
 17 11  1  0
 17 16  1  0
 18 11  2  0
 19 20  1  0
 21 22  2  0
 22 41  1  0
 23 22  1  0
 23 26  1  0
 24 21  1  0
 24 25  1  0
 25 23  2  0
 26 27  1  0
 27 28  2  0
 29 32  1  0
 29 28  1  0
 30 29  2  0
 31 30  1  0
 31 26  2  0
 32 33  1  0
 33 38  2  0
 33 34  1  0
 34 35  2  0
 35 36  1  0
 36 40  1  0
 37 36  2  0
 38 37  1  0
 39 38  1  0
 41 42  1  0
 42 45  1  0
 42 44  1  0
 43 41  2  0
 46 47  1  0
 46 21  1  0
 48 46  1  0
 49  9  1  0
 50 51  1  0
 50 49  1  0
 51 52  2  0
 53 52  1  0
 54 53  1  0
 54 55  1  0
 56 67  2  0
 57 55  1  0
 57 62  1  0
 58 66  1  0
 58 68  1  0
 59 65  1  0
 59 61  1  0
 60 66  1  0
 61 62  2  0
 61 60  1  0
 63 64  1  0
 63 57  2  0
 64 59  2  0
 65 58  1  0
 66 56  1  0
 68 70  2  0
 69 68  1  0
 71 69  1  0
 72 77  1  0
 73 69  1  0
 74 73  1  0
 75 76  1  0
 75 74  1  0
 76 72  1  0
 77 73  1  0
 77 78  2  0
 79 78  1  0
 80 79  2  0
 81 72  2  0
 81 80  1  0
 82 56  1  0
 82 83  1  0
 82 92  1  0
 83 86  1  0
 84 88  1  0
 84 83  1  0
 85 84  2  0
 88 87  1  0
 90 91  1  0
 90 88  1  0
 90 89  1  0
 92 95  1  1
 92 93  1  0
 94 92  1  0
M  ISO  4  11 100  19 100  54 101  55 101
M  END
>  <TORSDO>  (77) 
F 21

>  <SCORE>  (77) 
-6.735

>  <name>  (77) 
76

>  <ligand_id>  (77) 
76

>  <original_smiles>  (77) 
[H]C(=C([H])C([H])([H])C([H])([H])C1(C([H])([H])[H])C([H])([H])C([H])(N([H])C(=O)N2C([H])([H])C([H])([H])C([H])([H])C([H])(n3nc(-c4c([H])c([H])c(Oc5c([H])c([H])c(F)c([H])c5F)c([H])c4[H])c(C(=O)N([H])[H])c3N([H])[H])C2([H])[H])C2([H])C([H])([H])C([H])([H])C([H])([H])C([H])([H])C21[H])C([H])([H])C([H])([H])Oc1c([H])c([H])c2c(c1[H])C([H])([H])N(C(=O)C([H])(N([H])C(=O)C([H])(N([H])C([H])([H])[H])C([H])([H])[H])C(C([H])([H])[H])(C([H])([H])[H])C([H])([H])[H])C([H])(C(=O)N([H])C1([H])c3c([H])c([H])c([H])c([H])c3C([H])([H])C([H])([H])C1([H])[H])C2([H])[H]

>  <smiles>  (77) 
[H]C(=C([H])C([H])([H])C([H])([H])C1(C([H])([H])[H])C([H])([H])C([H])(N([H])C(=O)N2C([H])([H])C([H])([H])C([H])([H])C([H])(n3nc(-c4c([H])c([H])c(Oc5c([H])c([H])c(F)c([H])c5F)c([H])c4[H])c(C(=O)N([H])[H])c3N([H])[H])C2([H])[H])C2([H])C([H])([H])C([H])([H])C([H])([H])C([H])([H])C21[H])C([H])([H])C([H])([H])Oc1c([H])c([H])c2c(c1[H])C([H])([H])N(C(=O)C([H])(N([H])C(=O)C([H])(N([H])C([H])([H])[H])C([H])([H])[H])C(C([H])([H])[H])(C([H])([H])[H])C([H])([H])[H])C([H])(C(=O)N([H])C1([H])c3c([H])c([H])c([H])c([H])c3C([H])([H])C([H])([H])C1([H])[H])C2([H])[H]

$$$$
77:0:0
     RDKit          3D

 98106  0  0  1  0  0  0  0  0999 V2000
  -29.4600  -20.4250   16.2250 C   0  0  0  0  0  1  0  0  0  0  0  0
  -29.0660  -20.0390   17.6700 C   0  0  0  0  0  3  0  0  0  0  0  0
  -30.5400  -17.9160   17.6280 C   0  0  0  0  0  2  0  0  0  0  0  0
  -31.3920  -17.1960   18.6600 C   0  0  0  0  0  2  0  0  0  0  0  0
  -29.8350  -18.6980   19.7780 C   0  0  0  0  0  2  0  0  0  0  0  0
  -30.1640  -19.1950   18.3520 C   0  0  0  0  0  3  0  0  0  0  0  0
  -30.7780  -17.4940   20.0740 C   0  0  2  0  0  0  0  0  0  0  0  0
  -31.3850  -18.0300   22.5660 C   0  0  0  0  0  1  0  0  0  0  0  0
  -31.9060  -17.8840   21.1170 C   0  0  0  0  0  3  0  0  0  0  0  0
  -34.0520  -19.1760   21.2010 C   0  0  0  0  0  1  0  0  0  0  0  0
  -32.6600  -19.0960   20.7080 N   0  0  0  0  0  4  0  0  0  0  0  0
  -32.7190  -19.1010   19.7020 H   0  0  0  0  0  0  0  0  0  0  0  0
  -32.1670  -19.9250   20.9990 H   0  0  0  0  0  0  0  0  0  0  0  0
  -29.9110  -16.2640   20.5670 C   0  0  0  0  0  2  0  0  0  0  0  0
  -30.6280  -14.9040   20.4800 C   0  0  0  0  0  0  0  0  0  0  0  0
  -30.3330  -12.7390   19.4130 C   0  0  0  0  0  2  0  0  0  0  0  0
  -29.4230  -12.9320   18.1860 C   0  0  0  0  0  2  0  0  0  0  0  0
  -27.9500  -12.7380   18.5910 C   0  0  0  0  0  2  0  0  0  0  0  0
  -27.5520  -13.5790   19.8350 C   0  0  0  0  0  3  0  0  0  0  0  0
  -28.6030  -13.4840   20.9630 C   0  0  0  0  0  2  0  0  0  0  0  0
  -29.9340  -13.7450   20.4040 N   0  0  0  0  0  0  0  0  0  0  0  0
  -31.8260  -14.9360   20.2160 O   0  0  0  0  0  0  0  0  0  0  0  0
  -25.1300  -14.0480   20.5500 C   0  0  0  0  0  0  0  0  0  0  0  0
  -24.1000  -13.2150   20.8990 C   0  0  0  0  0  0  0  0  0  0  0  0
  -24.6310  -11.8900   20.8570 C   0  0  0  0  0  0  0  0  0  0  0  0
  -26.2190  -13.2240   20.3130 N   0  0  0  0  0  0  0  0  0  0  0  0
  -25.9240  -11.9220   20.5590 N   0  0  0  0  0  0  0  0  0  0  0  0
  -23.9690  -10.5900   21.0260 C   0  0  0  0  0  0  0  0  0  0  0  0
  -24.4060   -9.6570   21.9930 C   0  0  0  0  0  3  0  0  0  0  0  0
  -23.7400   -8.4220   22.1480 C   0  0  0  0  0  3  0  0  0  0  0  0
  -22.6250   -8.1090   21.3350 C   0  0  0  0  0  0  0  0  0  0  0  0
  -22.2100   -9.0310   20.3580 C   0  0  0  0  0  3  0  0  0  0  0  0
  -22.8760  -10.2570   20.2020 C   0  0  0  0  0  3  0  0  0  0  0  0
  -21.9330   -6.9240   21.3960 O   0  0  0  0  0  0  0  0  0  0  0  0
  -21.8080   -6.2240   22.5690 C   0  0  0  0  0  0  0  0  0  0  0  0
  -21.1670   -6.7760   23.7010 C   0  0  0  0  0  3  0  0  0  0  0  0
  -20.9990   -5.9980   24.8630 C   0  0  0  0  0  3  0  0  0  0  0  0
  -21.4590   -4.6680   24.8940 C   0  0  0  0  0  0  0  0  0  0  0  0
  -22.0920   -4.1160   23.7670 C   0  0  0  0  0  3  0  0  0  0  0  0
  -22.2630   -4.8910   22.6060 C   0  0  0  0  0  0  0  0  0  0  0  0
  -22.8550   -4.3470   21.5160 F   0  0  0  0  0  0  0  0  0  0  0  0
  -21.2900   -3.9180   26.0090 F   0  0  0  0  0  0  0  0  0  0  0  0
  -22.6790  -13.6170   21.1660 C   0  0  0  0  0  0  0  0  0  0  0  0
  -21.9790  -12.8690   22.0100 N   0  0  0  0  0  0  0  0  0  0  0  0
  -22.1950  -14.6300   20.6610 O   0  0  0  0  0  0  0  0  0  0  0  0
  -22.3830  -12.0490   22.4390 H   0  0  0  0  0  0  0  0  0  0  0  0
  -21.0260  -13.1210   22.2320 H   0  0  0  0  0  0  0  0  0  0  0  0
  -25.2270  -15.4260   20.3920 N   0  0  0  0  0  0  0  0  0  0  0  0
  -24.4290  -16.0430   20.5050 H   0  0  0  0  0  0  0  0  0  0  0  0
  -26.0630  -15.9130   20.0930 H   0  0  0  0  0  0  0  0  0  0  0  0
  -28.8450  -21.2140   18.5360 N   0  0  0  0  0  4  0  0  0  0  0  0
  -28.3880  -20.8960   19.3750 H   0  0  0  0  0  0  0  0  0  0  0  0
  -29.7440  -21.5840   18.8030 H   0  0  0  0  0  0  0  0  0  0  0  0
  -28.0680  -22.3410   18.0030 C   0  0  0  0  0  2  0  0  0  0  0  0
  -27.8510  -23.3470   19.1330 C   0  0  0  0  0  2  0  0  0  0  0  0
  -27.7010  -24.7790   18.6380 C   0  0  0  0  0  2  0  0  0  0  0  0
  -27.6410  -25.7330   19.8290 C   0  0  0  0  0  2  0  0  0  0  0  0
  -27.6460  -27.0690   19.3730 O   0  0  0  0  0  0  0  0  0  0  0  0
  -24.5480  -31.9340   23.4530 C   0  0  0  0  0  0  0  0  0  0  0  0
  -26.5030  -27.7880   19.6010 C   0  0  0  0  0  0  0  0  0  0  0  0
  -23.0570  -30.8030   21.8310 C   0  0  0  0  0  3  0  0  0  0  0  0
  -24.2210  -29.3660   20.0800 C   0  0  0  0  0  0  0  0  0  0  0  0
  -25.5540  -31.0600   21.3530 C   0  0  0  0  0  2  0  0  0  0  0  0
  -25.4700  -29.7750   20.5620 C   0  0  0  0  0  0  0  0  0  0  0  0
  -26.6160  -28.9970   20.3120 C   0  0  0  0  0  3  0  0  0  0  0  0
  -25.2360  -27.3730   19.1320 C   0  0  0  0  0  3  0  0  0  0  0  0
  -24.0950  -28.1630   19.3660 C   0  0  0  0  0  3  0  0  0  0  0  0
  -23.0500  -30.2750   20.3720 C   0  0  0  0  0  2  0  0  0  0  0  0
  -24.4120  -31.2690   22.2710 N   0  0  0  0  0  0  0  0  0  0  0  0
  -23.5610  -32.2010   24.1510 O   0  0  0  0  0  0  0  0  0  0  0  0
  -22.4570  -29.7150   22.7470 C   0  0  0  0  0  0  0  0  0  0  0  0
  -21.1410  -29.4870   22.6160 N   0  0  0  0  0  0  0  0  0  0  0  0
  -23.1700  -29.0800   23.5290 O   0  0  0  0  0  0  0  0  0  0  0  0
  -20.6260  -30.0550   21.9560 H   0  0  0  0  0  0  0  0  0  0  0  0
  -17.8710  -27.9770   22.8900 C   0  0  0  0  0  0  0  0  0  0  0  0
  -20.3640  -28.4850   23.3450 C   0  0  0  0  0  3  0  0  0  0  0  0
  -20.6480  -27.0630   22.8090 C   0  0  0  0  0  2  0  0  0  0  0  0
  -19.6610  -26.6190   21.7250 C   0  0  0  0  0  2  0  0  0  0  0  0
  -18.2260  -26.6410   22.2590 C   0  0  0  0  0  2  0  0  0  0  0  0
  -18.8760  -28.8510   23.3840 C   0  0  0  0  0  0  0  0  0  0  0  0
  -18.4940  -30.0980   23.9240 C   0  0  0  0  0  3  0  0  0  0  0  0
  -17.1380  -30.4740   23.9790 C   0  0  0  0  0  3  0  0  0  0  0  0
  -16.1470  -29.5980   23.5040 C   0  0  0  0  0  3  0  0  0  0  0  0
  -16.5140  -28.3520   22.9660 C   0  0  0  0  0  3  0  0  0  0  0  0
  -25.9400  -32.4110   23.9710 C   0  0  0  0  0  3  0  0  0  0  0  0
  -26.5140  -31.5110   25.1340 C   0  0  1  0  0  0  0  0  0  0  0  0
  -25.5170  -31.2820   26.2930 C   0  0  0  0  0  1  0  0  0  0  0  0
  -26.9360  -30.1260   24.5910 C   0  0  0  0  0  1  0  0  0  0  0  0
  -27.7900  -32.1630   25.7180 C   0  0  0  0  0  1  0  0  0  0  0  0
  -25.7930  -33.8030   24.4130 N   0  0  0  0  0  0  0  0  0  0  0  0
  -26.1670  -34.8710   23.6960 C   0  0  0  0  0  0  0  0  0  0  0  0
  -26.7450  -34.7800   22.6100 O   0  0  0  0  0  0  0  0  0  0  0  0
  -25.2800  -33.9550   25.2690 H   0  0  0  0  0  0  0  0  0  0  0  0
  -24.6100  -36.8430   23.5730 C   0  0  0  0  0  1  0  0  0  0  0  0
  -25.8470  -36.2610   24.2770 C   0  0  0  0  0  3  0  0  0  0  0  0
  -28.0960  -36.8740   25.0460 C   0  0  0  0  0  1  0  0  0  0  0  0
  -26.9730  -37.2150   24.1770 N   0  0  0  0  0  0  0  0  0  0  0  0
  -26.6670  -38.1560   24.4100 H   0  0  0  0  0  0  0  0  0  0  0  0
  2  1  1  0
  2 51  1  0
  3  6  1  0
  3  4  1  0
  4  7  1  0
  5  7  1  0
  6  2  1  0
  6  5  1  0
  7 14  1  1
  7  9  1  0
  9  8  1  0
 11 13  1  0
 11  9  1  0
 11 10  1  0
 12 11  1  0
 15 14  1  0
 16 21  1  0
 17 18  1  0
 17 16  1  0
 19 18  1  0
 19 26  1  0
 19 20  1  0
 21 15  1  0
 21 20  1  0
 22 15  2  0
 23 24  2  0
 24 43  1  0
 25 24  1  0
 25 28  1  0
 26 23  1  0
 26 27  1  0
 27 25  2  0
 28 29  1  0
 29 30  2  0
 31 34  1  0
 31 30  1  0
 32 31  2  0
 33 32  1  0
 33 28  2  0
 34 35  1  0
 35 40  2  0
 35 36  1  0
 36 37  2  0
 37 38  1  0
 38 42  1  0
 39 38  2  0
 40 39  1  0
 41 40  1  0
 43 44  1  0
 44 47  1  0
 44 46  1  0
 45 43  2  0
 48 49  1  0
 48 23  1  0
 50 48  1  0
 51 53  1  0
 51 52  1  0
 54 51  1  0
 54 55  1  0
 56 55  1  0
 56 57  1  0
 58 60  1  0
 58 57  1  0
 59 70  2  0
 60 65  1  0
 61 69  1  0
 61 71  1  0
 62 68  1  0
 62 64  1  0
 63 69  1  0
 64 63  1  0
 65 64  2  0
 66 67  1  0
 66 60  2  0
 67 62  2  0
 68 61  1  0
 69 59  1  0
 71 73  2  0
 72 71  1  0
 74 72  1  0
 75 84  2  0
 75 80  1  0
 76 72  1  0
 76 80  1  0
 77 76  1  0
 78 79  1  0
 78 77  1  0
 79 75  1  0
 80 81  2  0
 81 82  1  0
 83 82  2  0
 84 83  1  0
 85 59  1  0
 85 90  1  0
 85 86  1  0
 86 89  1  1
 86 87  1  0
 88 86  1  0
 90 93  1  0
 91 95  1  0
 91 90  1  0
 92 91  2  0
 95 94  1  0
 97 95  1  0
 97 98  1  0
 97 96  1  0
M  ISO  4  14 100  15 100  57 101  58 101
M  END
>  <TORSDO>  (78) 
F 25

>  <SCORE>  (78) 
-11.439

>  <name>  (78) 
77

>  <ligand_id>  (78) 
77

>  <original_smiles>  (78) 
[H]c1c([H])c([H])c2c(c1[H])C([H])([H])C([H])([H])C([H])([H])C2([H])N([H])C(=O)C1([H])N(C(=O)C([H])(N([H])C(=O)C([H])(N([H])C([H])([H])[H])C([H])([H])[H])C(C([H])([H])[H])(C([H])([H])[H])C([H])([H])[H])C([H])([H])c2c([H])c(OC([H])([H])C([H])([H])C([H])([H])C([H])([H])[N+]([H])([H])C([H])(C([H])([H])[H])C3([H])C([H])([H])C([H])([H])C(C([H])([H])C(=O)N4C([H])([H])C([H])([H])C([H])([H])C([H])(n5nc(-c6c([H])c([H])c(Oc7c([H])c([H])c(F)c([H])c7F)c([H])c6[H])c(C(=O)N([H])[H])c5N([H])[H])C4([H])[H])(C([H])(C([H])([H])[H])[N+]([H])([H])C([H])([H])[H])C3([H])[H])c([H])c([H])c2C1([H])[H]

>  <smiles>  (78) 
[H]c1c([H])c([H])c2c(c1[H])C([H])([H])C([H])([H])C([H])([H])C2([H])N([H])C(=O)C1([H])N(C(=O)C([H])(N([H])C(=O)C([H])(N([H])C([H])([H])[H])C([H])([H])[H])C(C([H])([H])[H])(C([H])([H])[H])C([H])([H])[H])C([H])([H])c2c([H])c(OC([H])([H])C([H])([H])C([H])([H])C([H])([H])[N+]([H])([H])C([H])(C([H])([H])[H])C3([H])C([H])([H])C([H])([H])C(C([H])([H])C(=O)N4C([H])([H])C([H])([H])C([H])([H])C([H])(n5nc(-c6c([H])c([H])c(Oc7c([H])c([H])c(F)c([H])c7F)c([H])c6[H])c(C(=O)N([H])[H])c5N([H])[H])C4([H])[H])(C([H])(C([H])([H])[H])[N+]([H])([H])C([H])([H])[H])C3([H])[H])c([H])c([H])c2C1([H])[H]

$$$$
78:0:0
     RDKit          3D

 89 97  0  0  1  0  0  0  0  0999 V2000
  -28.9380  -22.4710   19.9880 N   0  0  0  0  0  4  0  0  0  0  0  0
  -27.9680  -22.3020   19.7680 H   0  0  0  0  0  0  0  0  0  0  0  0
  -29.4380  -22.4500   19.1120 H   0  0  0  0  0  0  0  0  0  0  0  0
  -29.4010  -21.2850   20.8220 C   0  0  0  0  0  2  0  0  0  0  0  0
  -31.1500  -17.9950   19.6740 C   0  0  0  0  0  2  0  0  0  0  0  0
  -30.8260  -19.5010   19.4310 C   0  0  0  0  0  2  0  0  0  0  0  0
  -29.2470  -18.5480   20.9700 C   0  0  0  0  0  2  0  0  0  0  0  0
  -29.8730  -17.3240   20.2030 C   0  0  0  0  0  3  0  0  0  0  0  0
  -29.4750  -19.8450   20.1070 C   0  0  0  0  0  3  0  0  0  0  0  0
  -30.0130  -15.9320   20.9940 C   0  0  0  0  0  2  0  0  0  0  0  0
  -30.6490  -14.6470   20.3070 C   0  0  0  0  0  0  0  0  0  0  0  0
  -30.3700  -12.4330   19.1870 C   0  0  0  0  0  2  0  0  0  0  0  0
  -29.4050  -12.5980   17.9910 C   0  0  0  0  0  2  0  0  0  0  0  0
  -27.9390  -12.4560   18.4440 C   0  0  0  0  0  2  0  0  0  0  0  0
  -27.6220  -13.2990   19.7090 C   0  0  0  0  0  3  0  0  0  0  0  0
  -28.6980  -13.0950   20.7970 C   0  0  0  0  0  2  0  0  0  0  0  0
  -29.9980  -13.4400   20.2060 N   0  0  0  0  0  0  0  0  0  0  0  0
  -31.7720  -14.7740   19.8090 O   0  0  0  0  0  0  0  0  0  0  0  0
  -25.2420  -13.9220   20.4540 C   0  0  0  0  0  0  0  0  0  0  0  0
  -24.1730  -13.1600   20.8400 C   0  0  0  0  0  0  0  0  0  0  0  0
  -24.6220  -11.8040   20.8090 C   0  0  0  0  0  0  0  0  0  0  0  0
  -26.2760  -13.0310   20.2110 N   0  0  0  0  0  0  0  0  0  0  0  0
  -25.9070  -11.7520   20.4820 N   0  0  0  0  0  0  0  0  0  0  0  0
  -23.8850  -10.5500   21.0130 C   0  0  0  0  0  0  0  0  0  0  0  0
  -24.3280   -9.5740   21.9320 C   0  0  0  0  0  3  0  0  0  0  0  0
  -23.5930   -8.3850   22.1250 C   0  0  0  0  0  3  0  0  0  0  0  0
  -22.3990   -8.1630   21.3990 C   0  0  0  0  0  0  0  0  0  0  0  0
  -21.9730   -9.1280   20.4690 C   0  0  0  0  0  3  0  0  0  0  0  0
  -22.7100  -10.3090   20.2730 C   0  0  0  0  0  3  0  0  0  0  0  0
  -21.6320   -7.0270   21.5020 O   0  0  0  0  0  0  0  0  0  0  0  0
  -21.6120   -6.2750   22.6490 C   0  0  0  0  0  0  0  0  0  0  0  0
  -21.2430   -6.8250   23.8960 C   0  0  0  0  0  3  0  0  0  0  0  0
  -21.1690   -6.0000   25.0360 C   0  0  0  0  0  3  0  0  0  0  0  0
  -21.4530   -4.6260   24.9310 C   0  0  0  0  0  0  0  0  0  0  0  0
  -21.8150   -4.0740   23.6890 C   0  0  0  0  0  3  0  0  0  0  0  0
  -21.8910   -4.8970   22.5510 C   0  0  0  0  0  0  0  0  0  0  0  0
  -22.2200   -4.3560   21.3530 F   0  0  0  0  0  0  0  0  0  0  0  0
  -21.3740   -3.8310   26.0240 F   0  0  0  0  0  0  0  0  0  0  0  0
  -22.7850  -13.6530   21.1320 C   0  0  0  0  0  0  0  0  0  0  0  0
  -22.0630  -12.9680   22.0130 N   0  0  0  0  0  0  0  0  0  0  0  0
  -22.3490  -14.6800   20.6130 O   0  0  0  0  0  0  0  0  0  0  0  0
  -22.4290  -12.1370   22.4530 H   0  0  0  0  0  0  0  0  0  0  0  0
  -21.1320  -13.2790   22.2500 H   0  0  0  0  0  0  0  0  0  0  0  0
  -25.4190  -15.2900   20.2700 N   0  0  0  0  0  0  0  0  0  0  0  0
  -24.6630  -15.9550   20.3910 H   0  0  0  0  0  0  0  0  0  0  0  0
  -26.2760  -15.7190   19.9450 H   0  0  0  0  0  0  0  0  0  0  0  0
  -29.0630  -23.8830   20.5640 C   0  0  0  0  0  3  0  0  0  0  0  0
  -28.1280  -25.0020   19.9110 C   0  0  0  0  0  3  0  0  0  0  0  0
  -28.2940  -26.4430   20.2560 O   0  0  0  0  0  0  0  0  0  0  0  0
  -24.5930  -31.8680   23.2600 C   0  0  0  0  0  0  0  0  0  0  0  0
  -27.1800  -27.3010   20.1840 C   0  0  0  0  0  0  0  0  0  0  0  0
  -23.3780  -30.4720   21.6270 C   0  0  0  0  0  3  0  0  0  0  0  0
  -24.8180  -28.9250   20.1890 C   0  0  0  0  0  0  0  0  0  0  0  0
  -25.9170  -30.7830   21.4330 C   0  0  0  0  0  2  0  0  0  0  0  0
  -25.9900  -29.4060   20.7840 C   0  0  0  0  0  0  0  0  0  0  0  0
  -27.1710  -28.6040   20.7780 C   0  0  0  0  0  3  0  0  0  0  0  0
  -25.9860  -26.8910   19.5420 C   0  0  0  0  0  3  0  0  0  0  0  0
  -24.8180  -27.6730   19.5590 C   0  0  0  0  0  3  0  0  0  0  0  0
  -23.5830  -29.8000   20.2450 C   0  0  0  0  0  2  0  0  0  0  0  0
  -24.6480  -31.0590   22.1620 N   0  0  0  0  0  0  0  0  0  0  0  0
  -23.5130  -32.1470   23.8010 O   0  0  0  0  0  0  0  0  0  0  0  0
  -22.7200  -29.4540   22.5900 C   0  0  0  0  0  0  0  0  0  0  0  0
  -21.3940  -29.2730   22.4660 N   0  0  0  0  0  0  0  0  0  0  0  0
  -23.4020  -28.8300   23.4090 O   0  0  0  0  0  0  0  0  0  0  0  0
  -20.9040  -29.8270   21.7780 H   0  0  0  0  0  0  0  0  0  0  0  0
  -18.0220  -28.0650   22.9660 C   0  0  0  0  0  0  0  0  0  0  0  0
  -20.5780  -28.3370   23.2410 C   0  0  0  0  0  3  0  0  0  0  0  0
  -20.6870  -26.9020   22.6760 C   0  0  0  0  0  2  0  0  0  0  0  0
  -19.5900  -26.5670   21.6610 C   0  0  0  0  0  2  0  0  0  0  0  0
  -18.2060  -26.7110   22.3010 C   0  0  0  0  0  2  0  0  0  0  0  0
  -19.1360  -28.8340   23.3940 C   0  0  0  0  0  0  0  0  0  0  0  0
  -18.9090  -30.1010   23.9770 C   0  0  0  0  0  3  0  0  0  0  0  0
  -17.6010  -30.5970   24.1350 C   0  0  0  0  0  3  0  0  0  0  0  0
  -16.5010  -29.8240   23.7240 C   0  0  0  0  0  3  0  0  0  0  0  0
  -16.7120  -28.5590   23.1450 C   0  0  0  0  0  3  0  0  0  0  0  0
  -25.8810  -32.4990   23.8740 C   0  0  0  0  0  3  0  0  0  0  0  0
  -25.5760  -33.8980   24.2030 N   0  0  0  0  0  0  0  0  0  0  0  0
  -25.9000  -34.9480   23.4370 C   0  0  0  0  0  0  0  0  0  0  0  0
  -26.5580  -34.8420   22.3990 O   0  0  0  0  0  0  0  0  0  0  0  0
  -24.9900  -34.0550   25.0100 H   0  0  0  0  0  0  0  0  0  0  0  0
  -24.1650  -36.7390   23.1050 C   0  0  0  0  0  1  0  0  0  0  0  0
  -25.4200  -36.3390   23.8970 C   0  0  0  0  0  3  0  0  0  0  0  0
  -27.5680  -37.2270   24.6880 C   0  0  0  0  0  1  0  0  0  0  0  0
  -26.4490  -37.3920   23.7630 N   0  0  0  0  0  0  0  0  0  0  0  0
  -26.0450  -38.3120   23.9140 H   0  0  0  0  0  0  0  0  0  0  0  0
  -26.4010  -31.7290   25.1500 C   0  0  1  0  0  0  0  0  0  0  0  0
  -25.3130  -31.4980   26.2240 C   0  0  0  0  0  1  0  0  0  0  0  0
  -26.9780  -30.3480   24.7600 C   0  0  0  0  0  1  0  0  0  0  0  0
  -27.5570  -32.5210   25.8030 C   0  0  0  0  0  1  0  0  0  0  0  0
  1 47  1  0
  1  4  1  0
  2  1  1  0
  3  1  1  0
  5  8  1  0
  6  5  1  0
  6  9  1  0
  8  7  1  0
  8 10  1  0
  9  4  1  0
  9  7  1  0
 11 10  1  0
 12 17  1  0
 13 14  1  0
 13 12  1  0
 15 14  1  0
 15 22  1  0
 15 16  1  0
 17 11  1  0
 17 16  1  0
 18 11  2  0
 19 20  2  0
 20 39  1  0
 21 20  1  0
 21 24  1  0
 22 19  1  0
 22 23  1  0
 23 21  2  0
 24 25  1  0
 25 26  2  0
 27 30  1  0
 27 26  1  0
 28 27  2  0
 29 28  1  0
 29 24  2  0
 30 31  1  0
 31 32  1  0
 32 33  2  0
 34 33  1  0
 34 38  1  0
 35 34  2  0
 36 31  2  0
 36 35  1  0
 37 36  1  0
 39 40  1  0
 40 43  1  0
 40 42  1  0
 41 39  2  0
 44 45  1  0
 44 19  1  0
 46 44  1  0
 48 49  1  0
 48 47  2  0
 50 61  2  0
 51 49  1  0
 51 56  1  0
 52 60  1  0
 52 62  1  0
 53 59  1  0
 53 55  1  0
 54 60  1  0
 55 54  1  0
 56 55  2  0
 57 58  1  0
 57 51  2  0
 58 53  2  0
 59 52  1  0
 60 50  1  0
 62 64  2  0
 63 62  1  0
 65 63  1  0
 66 75  2  0
 66 71  1  0
 67 63  1  0
 67 71  1  0
 68 67  1  0
 69 70  1  0
 69 68  1  0
 70 66  1  0
 71 72  2  0
 72 73  1  0
 74 73  2  0
 75 74  1  0
 76 50  1  0
 76 77  1  0
 76 86  1  0
 77 80  1  0
 78 82  1  0
 78 77  1  0
 79 78  2  0
 82 81  1  0
 84 82  1  0
 84 85  1  0
 84 83  1  0
 86 89  1  1
 86 87  1  0
 88 86  1  0
M  ISO  4  10 100  11 100  48 101  49 101
M  END
>  <TORSDO>  (79) 
F 21

>  <SCORE>  (79) 
-13.225

>  <name>  (79) 
78

>  <ligand_id>  (79) 
78

>  <original_smiles>  (79) 
[H]c1c([H])c([H])c2c(c1[H])C([H])([H])C([H])([H])C([H])([H])C2([H])N([H])C(=O)C1([H])N(C(=O)C([H])(N([H])C(=O)C([H])(N([H])C([H])([H])[H])C([H])([H])[H])C(C([H])([H])[H])(C([H])([H])[H])C([H])([H])[H])C([H])([H])c2c([H])c(OC([H])([H])C([H])([H])[N+]([H])([H])C([H])([H])C3([H])C([H])([H])C([H])([H])C([H])(C([H])([H])C(=O)N4C([H])([H])C([H])([H])C([H])([H])C([H])(n5nc(-c6c([H])c([H])c(Oc7c([H])c([H])c(F)c([H])c7F)c([H])c6[H])c(C(=O)N([H])[H])c5N([H])[H])C4([H])[H])C3([H])[H])c([H])c([H])c2C1([H])[H]

>  <smiles>  (79) 
[H]c1c([H])c([H])c2c(c1[H])C([H])([H])C([H])([H])C([H])([H])C2([H])N([H])C(=O)C1([H])N(C(=O)C([H])(N([H])C(=O)C([H])(N([H])C([H])([H])[H])C([H])([H])[H])C(C([H])([H])[H])(C([H])([H])[H])C([H])([H])[H])C([H])([H])c2c([H])c(OC([H])([H])C([H])([H])[N+]([H])([H])C([H])([H])C3([H])C([H])([H])C([H])([H])C([H])(C([H])([H])C(=O)N4C([H])([H])C([H])([H])C([H])([H])C([H])(n5nc(-c6c([H])c([H])c(Oc7c([H])c([H])c(F)c([H])c7F)c([H])c6[H])c(C(=O)N([H])[H])c5N([H])[H])C4([H])[H])C3([H])[H])c([H])c([H])c2C1([H])[H]

$$$$
79:0:0
     RDKit          3D

 88 96  0  0  1  0  0  0  0  0999 V2000
  -28.6600  -22.0060   20.2620 N   0  0  0  0  0  4  0  0  0  0  0  0
  -28.3720  -21.8860   19.3040 H   0  0  0  0  0  0  0  0  0  0  0  0
  -27.8340  -21.8420   20.8180 H   0  0  0  0  0  0  0  0  0  0  0  0
  -30.2270  -20.9960   21.9850 C   0  0  0  0  0  1  0  0  0  0  0  0
  -29.6560  -20.8250   20.5680 C   0  0  0  0  0  3  0  0  0  0  0  0
  -29.5760  -18.4790   19.1490 C   0  0  0  0  0  2  0  0  0  0  0  0
  -30.1060  -17.8500   20.4200 C   0  0  0  0  0  3  0  0  0  0  0  0
  -29.2130  -19.2430   20.4050 C   0  0  0  0  0  3  0  0  0  0  0  0
  -29.7100  -16.2900   20.7810 C   0  0  0  0  0  2  0  0  0  0  0  0
  -30.5430  -14.9320   20.3740 C   0  0  0  0  0  0  0  0  0  0  0  0
  -30.4170  -12.6120   19.3690 C   0  0  0  0  0  2  0  0  0  0  0  0
  -29.4740  -12.6420   18.1420 C   0  0  0  0  0  2  0  0  0  0  0  0
  -28.0060  -12.4430   18.5700 C   0  0  0  0  0  2  0  0  0  0  0  0
  -27.6210  -13.3380   19.7760 C   0  0  0  0  0  3  0  0  0  0  0  0
  -28.6790  -13.2810   20.8990 C   0  0  0  0  0  2  0  0  0  0  0  0
  -29.9690  -13.6690   20.3150 N   0  0  0  0  0  0  0  0  0  0  0  0
  -31.7190  -15.0390   20.0050 O   0  0  0  0  0  0  0  0  0  0  0  0
  -25.2380  -13.9270   20.5160 C   0  0  0  0  0  0  0  0  0  0  0  0
  -24.1710  -13.1540   20.8830 C   0  0  0  0  0  0  0  0  0  0  0  0
  -24.6330  -11.8020   20.8490 C   0  0  0  0  0  0  0  0  0  0  0  0
  -26.2790  -13.0470   20.2720 N   0  0  0  0  0  0  0  0  0  0  0  0
  -25.9240  -11.7630   20.5380 N   0  0  0  0  0  0  0  0  0  0  0  0
  -23.9040  -10.5410   21.0370 C   0  0  0  0  0  0  0  0  0  0  0  0
  -24.3290   -9.5740   21.9740 C   0  0  0  0  0  3  0  0  0  0  0  0
  -23.6000   -8.3780   22.1490 C   0  0  0  0  0  3  0  0  0  0  0  0
  -22.4320   -8.1400   21.3870 C   0  0  0  0  0  0  0  0  0  0  0  0
  -22.0250   -9.0960   20.4400 C   0  0  0  0  0  3  0  0  0  0  0  0
  -22.7550  -10.2840   20.2630 C   0  0  0  0  0  3  0  0  0  0  0  0
  -21.6750   -6.9970   21.4720 O   0  0  0  0  0  0  0  0  0  0  0  0
  -21.6050   -6.2640   22.6290 C   0  0  0  0  0  0  0  0  0  0  0  0
  -21.1430   -6.8230   23.8400 C   0  0  0  0  0  3  0  0  0  0  0  0
  -21.0220   -6.0150   24.9880 C   0  0  0  0  0  3  0  0  0  0  0  0
  -21.3550   -4.6490   24.9260 C   0  0  0  0  0  0  0  0  0  0  0  0
  -21.8110   -4.0890   23.7200 C   0  0  0  0  0  3  0  0  0  0  0  0
  -21.9330   -4.8940   22.5740 C   0  0  0  0  0  0  0  0  0  0  0  0
  -22.3530   -4.3440   21.4100 F   0  0  0  0  0  0  0  0  0  0  0  0
  -21.2320   -3.8700   26.0270 F   0  0  0  0  0  0  0  0  0  0  0  0
  -22.7760  -13.6320   21.1560 C   0  0  0  0  0  0  0  0  0  0  0  0
  -22.0460  -12.9340   22.0190 N   0  0  0  0  0  0  0  0  0  0  0  0
  -22.3410  -14.6620   20.6400 O   0  0  0  0  0  0  0  0  0  0  0  0
  -22.4110  -12.1030   22.4590 H   0  0  0  0  0  0  0  0  0  0  0  0
  -21.1090  -13.2380   22.2450 H   0  0  0  0  0  0  0  0  0  0  0  0
  -25.4040  -15.2980   20.3430 N   0  0  0  0  0  0  0  0  0  0  0  0
  -24.6360  -15.9520   20.4590 H   0  0  0  0  0  0  0  0  0  0  0  0
  -26.2560  -15.7410   20.0240 H   0  0  0  0  0  0  0  0  0  0  0  0
  -29.0460  -23.5280   20.4420 C   0  0  0  0  0  3  0  0  0  0  0  0
  -27.9920  -24.7640   20.0790 C   0  0  0  0  0  3  0  0  0  0  0  0
  -28.2520  -26.2760   20.2560 O   0  0  0  0  0  0  0  0  0  0  0  0
  -24.6030  -31.8990   23.2230 C   0  0  0  0  0  0  0  0  0  0  0  0
  -27.1810  -27.2260   20.1830 C   0  0  0  0  0  0  0  0  0  0  0  0
  -23.3960  -30.5030   21.5870 C   0  0  0  0  0  3  0  0  0  0  0  0
  -24.8430  -28.9380   20.1570 C   0  0  0  0  0  0  0  0  0  0  0  0
  -25.9470  -30.7830   21.4120 C   0  0  0  0  0  2  0  0  0  0  0  0
  -26.0210  -29.3950   20.7600 C   0  0  0  0  0  0  0  0  0  0  0  0
  -27.1920  -28.5550   20.7570 C   0  0  0  0  0  3  0  0  0  0  0  0
  -25.9750  -26.8600   19.5410 C   0  0  0  0  0  3  0  0  0  0  0  0
  -24.8300  -27.6820   19.5340 C   0  0  0  0  0  3  0  0  0  0  0  0
  -23.6130  -29.8280   20.2070 C   0  0  0  0  0  2  0  0  0  0  0  0
  -24.6680  -31.0820   22.1290 N   0  0  0  0  0  0  0  0  0  0  0  0
  -23.5190  -32.1830   23.7550 O   0  0  0  0  0  0  0  0  0  0  0  0
  -22.7250  -29.4920   22.5510 C   0  0  0  0  0  0  0  0  0  0  0  0
  -21.3980  -29.3190   22.4260 N   0  0  0  0  0  0  0  0  0  0  0  0
  -23.4000  -28.8670   23.3720 O   0  0  0  0  0  0  0  0  0  0  0  0
  -20.9110  -29.8760   21.7380 H   0  0  0  0  0  0  0  0  0  0  0  0
  -18.0160  -28.1300   22.9420 C   0  0  0  0  0  0  0  0  0  0  0  0
  -20.5770  -28.3830   23.2000 C   0  0  0  0  0  3  0  0  0  0  0  0
  -20.6720  -26.9510   22.6230 C   0  0  0  0  0  2  0  0  0  0  0  0
  -19.5650  -26.6330   21.6130 C   0  0  0  0  0  2  0  0  0  0  0  0
  -18.1860  -26.7800   22.2640 C   0  0  0  0  0  2  0  0  0  0  0  0
  -19.1390  -28.8880   23.3680 C   0  0  0  0  0  0  0  0  0  0  0  0
  -18.9250  -30.1500   23.9630 C   0  0  0  0  0  3  0  0  0  0  0  0
  -17.6230  -30.6520   24.1410 C   0  0  0  0  0  3  0  0  0  0  0  0
  -16.5150  -29.8900   23.7320 C   0  0  0  0  0  3  0  0  0  0  0  0
  -16.7130  -28.6310   23.1370 C   0  0  0  0  0  3  0  0  0  0  0  0
  -25.8840  -32.5330   23.8450 C   0  0  0  0  0  3  0  0  0  0  0  0
  -25.5750  -33.9330   24.1750 N   0  0  0  0  0  0  0  0  0  0  0  0
  -25.9010  -34.9870   23.4150 C   0  0  0  0  0  0  0  0  0  0  0  0
  -26.5630  -34.8830   22.3790 O   0  0  0  0  0  0  0  0  0  0  0  0
  -24.9870  -34.0860   24.9800 H   0  0  0  0  0  0  0  0  0  0  0  0
  -24.1760  -36.7870   23.0740 C   0  0  0  0  0  1  0  0  0  0  0  0
  -25.4190  -36.3760   23.8790 C   0  0  0  0  0  3  0  0  0  0  0  0
  -27.5540  -37.2590   24.7070 C   0  0  0  0  0  1  0  0  0  0  0  0
  -26.4520  -37.4270   23.7640 N   0  0  0  0  0  0  0  0  0  0  0  0
  -26.0480  -38.3480   23.9120 H   0  0  0  0  0  0  0  0  0  0  0  0
  -26.3970  -31.7670   25.1260 C   0  0  1  0  0  0  0  0  0  0  0  0
  -25.3020  -31.5340   26.1930 C   0  0  0  0  0  1  0  0  0  0  0  0
  -26.9840  -30.3880   24.7450 C   0  0  0  0  0  1  0  0  0  0  0  0
  -27.5460  -32.5660   25.7880 C   0  0  0  0  0  1  0  0  0  0  0  0
  1 46  1  0
  1  5  1  0
  1  3  1  0
  2  1  1  0
  5  4  1  0
  6  8  1  0
  6  7  1  0
  7  9  1  0
  8  7  1  0
  8  5  1  0
 10  9  1  0
 11 16  1  0
 12 13  1  0
 12 11  1  0
 14 13  1  0
 14 21  1  0
 14 15  1  0
 16 10  1  0
 16 15  1  0
 17 10  2  0
 18 19  2  0
 19 38  1  0
 20 19  1  0
 20 23  1  0
 21 18  1  0
 21 22  1  0
 22 20  2  0
 23 24  1  0
 24 25  2  0
 26 29  1  0
 26 25  1  0
 27 26  2  0
 28 27  1  0
 28 23  2  0
 29 30  1  0
 30 31  1  0
 31 32  2  0
 33 32  1  0
 33 37  1  0
 34 33  2  0
 35 30  2  0
 35 34  1  0
 36 35  1  0
 38 39  1  0
 39 42  1  0
 39 41  1  0
 40 38  2  0
 43 44  1  0
 43 18  1  0
 45 43  1  0
 47 48  1  0
 47 46  2  0
 49 60  2  0
 50 48  1  0
 50 55  1  0
 51 59  1  0
 51 61  1  0
 52 58  1  0
 52 54  1  0
 53 59  1  0
 54 53  1  0
 55 54  2  0
 56 50  2  0
 57 56  1  0
 57 52  2  0
 58 51  1  0
 59 49  1  0
 61 63  2  0
 62 61  1  0
 64 62  1  0
 65 74  2  0
 65 70  1  0
 66 62  1  0
 66 70  1  0
 67 66  1  0
 68 69  1  0
 68 67  1  0
 69 65  1  0
 70 71  2  0
 71 72  1  0
 73 72  2  0
 74 73  1  0
 75 49  1  0
 75 76  1  0
 75 85  1  0
 76 79  1  0
 77 81  1  0
 77 76  1  0
 78 77  2  0
 81 80  1  0
 83 81  1  0
 83 84  1  0
 83 82  1  0
 85 88  1  1
 85 86  1  0
 87 85  1  0
M  ISO  4   9 100  10 100  47 101  48 101
M  END
>  <TORSDO>  (80) 
F 21

>  <SCORE>  (80) 
-13.400

>  <name>  (80) 
79

>  <ligand_id>  (80) 
79

>  <original_smiles>  (80) 
[H]c1c([H])c([H])c2c(c1[H])C([H])([H])C([H])([H])C([H])([H])C2([H])N([H])C(=O)C1([H])N(C(=O)C([H])(N([H])C(=O)C([H])(N([H])C([H])([H])[H])C([H])([H])[H])C(C([H])([H])[H])(C([H])([H])[H])C([H])([H])[H])C([H])([H])c2c([H])c(OC([H])([H])C([H])([H])[N+]([H])([H])C([H])(C([H])([H])[H])C3([H])C([H])([H])C3([H])C([H])([H])C(=O)N3C([H])([H])C([H])([H])C([H])([H])C([H])(n4nc(-c5c([H])c([H])c(Oc6c([H])c([H])c(F)c([H])c6F)c([H])c5[H])c(C(=O)N([H])[H])c4N([H])[H])C3([H])[H])c([H])c([H])c2C1([H])[H]

>  <smiles>  (80) 
[H]c1c([H])c([H])c2c(c1[H])C([H])([H])C([H])([H])C([H])([H])C2([H])N([H])C(=O)C1([H])N(C(=O)C([H])(N([H])C(=O)C([H])(N([H])C([H])([H])[H])C([H])([H])[H])C(C([H])([H])[H])(C([H])([H])[H])C([H])([H])[H])C([H])([H])c2c([H])c(OC([H])([H])C([H])([H])[N+]([H])([H])C([H])(C([H])([H])[H])C3([H])C([H])([H])C3([H])C([H])([H])C(=O)N3C([H])([H])C([H])([H])C([H])([H])C([H])(n4nc(-c5c([H])c([H])c(Oc6c([H])c([H])c(F)c([H])c6F)c([H])c5[H])c(C(=O)N([H])[H])c4N([H])[H])C3([H])[H])c([H])c([H])c2C1([H])[H]

$$$$
80:0:0
     RDKit          3D

 99 98  0  0  1  0  0  0  0  0999 V2000
  -17.0960  -29.9860   20.8940 C   0  0  0  0  0 15  0  0  0  0  0  0
  -16.4310  -30.6760   23.0590 C   0  0  0  0  0 15  0  0  0  0  0  0
  -18.7080  -28.4560   20.3730 C   0  0  0  0  0 15  0  0  0  0  0  0
  -18.7880  -27.6320   24.5250 C   0  0  0  0  0 15  0  0  0  0  0  0
  -21.4360  -26.7050   20.8010 C   0  0  0  0  0  3  0  0  0  0  0  0
  -20.7730  -24.9560   21.1240 C   0  0  0  0  0  2  0  0  0  0  0  0
  -17.3730  -29.4510   24.8590 C   0  0  0  0  0  1  0  0  0  0  0  0
  -22.7300  -25.6110   20.9380 C   0  0  0  0  0  3  0  0  0  0  0  0
  -19.9330  -26.8750   21.5410 C   0  0  0  0  0  1  0  0  0  0  0  0
  -16.2440  -29.0990   25.8410 C   0  0  0  0  0  1  0  0  0  0  0  0
  -22.3920  -24.1330   21.0310 N   0  0  0  0  0  2  0  0  0  0  0  0
  -23.9360  -26.1220   21.8370 C   0  0  0  0  0  2  0  0  0  0  0  0
  -23.7650  -27.5220   22.3690 N   0  0  0  0  0  4  0  0  0  0  0  0
  -23.7780  -27.3590   23.3660 H   0  0  0  0  0  0  0  0  0  0  0  0
  -22.8210  -27.8390   22.1830 H   0  0  0  0  0  0  0  0  0  0  0  0
  -24.7060  -28.7450   22.2410 C   0  0  0  0  0  1  0  0  0  0  0  0
  -25.4380  -30.5440   19.9830 C   0  0  0  0  0  1  0  0  0  0  0  0
  -26.6280  -29.9440   18.7330 C   0  0  0  0  0  2  0  0  0  0  0  0
  -27.7000  -28.6970   18.8320 O   0  0  0  0  0  0  0  0  0  0  0  0
  -24.7720  -31.9960   23.2520 C   0  0  0  0  0  0  0  0  0  0  0  0
  -27.5610  -27.5330   19.5500 C   0  0  0  0  0  3  0  0  0  0  0  0
  -23.4260  -30.5960   21.4700 C   0  0  0  0  0  3  0  0  0  0  0  0
  -25.1090  -28.2550   20.0270 C   0  0  0  0  0  0  0  0  0  0  0  0
  -26.4930  -30.2710   22.0090 C   0  0  0  0  0  3  0  0  0  0  0  0
  -26.5220  -28.7370   20.9040 C   0  0  0  0  0  0  0  0  0  0  0  0
  -27.6520  -28.0490   20.8040 C   0  0  0  0  0  2  0  0  0  0  0  0
  -26.4790  -26.7260   19.1050 C   0  0  0  0  0  2  0  0  0  0  0  0
  -25.1810  -27.2050   19.1860 C   0  0  0  0  0  2  0  0  0  0  0  0
  -23.5320  -29.2240   20.1580 C   0  0  0  0  0  3  0  0  0  0  0  0
  -24.9140  -31.1140   22.2460 N   0  0  0  0  0  0  0  0  0  0  0  0
  -23.6700  -32.4140   23.6360 O   0  0  0  0  0  0  0  0  0  0  0  0
  -22.4830  -30.0460   22.6400 C   0  0  0  0  0  0  0  0  0  0  0  0
  -21.5680  -29.1820   22.3160 N   0  0  0  0  0  0  0  0  0  0  0  0
  -22.9240  -29.8070   23.7680 O   0  0  0  0  0  0  0  0  0  0  0  0
  -21.1040  -29.3370   21.4300 H   0  0  0  0  0  0  0  0  0  0  0  0
  -17.9560  -27.5070   22.4360 C   0  0  1  0  0  0  0  0  0  0  0  0
  -20.8350  -28.3350   23.2780 C   0  0  0  0  0  3  0  0  0  0  0  0
  -20.9900  -26.6540   23.6680 C   0  0  0  0  0  2  0  0  0  0  0  0
  -19.6460  -25.5360   23.4930 C   0  0  0  0  0  3  0  0  0  0  0  0
  -18.1340  -25.9190   22.7920 C   0  0  0  0  0  3  0  0  0  0  0  0
  -19.4100  -28.7980   22.7310 C   0  0  1  0  0  0  0  0  0  0  0  0
  -19.4340  -30.0490   23.4290 C   0  0  0  0  0  2  0  0  0  0  0  0
  -18.4700  -29.6810   22.7380 C   0  0  0  0  0  3  0  0  0  0  0  0
  -17.1310  -28.5190   22.7800 C   0  0  0  0  0  3  0  0  0  0  0  0
  -16.6960  -27.6310   22.0160 C   0  0  0  0  0  2  0  0  0  0  0  0
  -26.0380  -32.5210   23.9360 C   0  0  0  0  0  3  0  0  0  0  0  0
  -26.4740  -31.7310   25.2350 C   0  0  1  0  0  0  0  0  0  0  0  0
  -25.3190  -31.4920   26.2280 C   0  0  0  0  0  1  0  0  0  0  0  0
  -27.1260  -30.3520   25.0400 C   0  0  0  0  0  1  0  0  0  0  0  0
  -27.5940  -32.5500   25.9100 C   0  0  0  0  0  1  0  0  0  0  0  0
  -25.7050  -33.9060   24.2860 N   0  0  0  0  0  0  0  0  0  0  0  0
  -25.9360  -34.9680   23.5120 C   0  0  0  0  0  0  0  0  0  0  0  0
  -26.5550  -34.8960   22.4480 O   0  0  0  0  0  0  0  0  0  0  0  0
  -25.1390  -34.0380   25.1110 H   0  0  0  0  0  0  0  0  0  0  0  0
  -24.1580  -36.7340   23.2500 C   0  0  0  0  0  1  0  0  0  0  0  0
  -25.4200  -36.3250   24.0240 C   0  0  0  0  0  3  0  0  0  0  0  0
  -27.5610  -37.1950   24.8460 C   0  0  0  0  0  1  0  0  0  0  0  0
  -26.4330  -37.3960   23.9400 N   0  0  0  0  0  0  0  0  0  0  0  0
  -26.0170  -38.3010   24.1440 H   0  0  0  0  0  0  0  0  0  0  0  0
  -23.7120  -22.6960   21.1870 C   0  0  0  0  0 15  0  0  0  0  0  0
  -24.7630  -20.7750   20.7370 C   0  0  0  0  0 15  0  0  0  0  0  0
  -26.5400  -19.4160   20.8250 C   0  0  0  0  0 15  0  0  0  0  0  0
  -27.5210  -17.4200   20.5790 C   0  0  0  0  0 15  0  0  0  0  0  0
  -29.1260  -16.0260   20.4480 C   0  0  0  0  0  2  0  0  0  0  0  0
  -30.1940  -13.5250   19.6490 C   0  0  0  0  0  2  0  0  0  0  0  0
  -29.5090  -12.8090   18.4250 C   0  0  0  0  0  2  0  0  0  0  0  0
  -28.1190  -12.2700   18.8000 C   0  0  0  0  0  2  0  0  0  0  0  0
  -27.4600  -13.2490   19.7850 C   0  0  0  0  0  3  0  0  0  0  0  0
  -28.3180  -13.5930   20.9900 C   0  0  0  0  0  2  0  0  0  0  0  0
  -29.2420  -14.5260   20.4030 N   0  0  0  0  0  0  0  0  0  0  0  0
  -30.3730  -16.2440   20.2580 O   0  0  0  0  0  1  0  0  0  0  0  0
  -25.1610  -13.7920   20.5470 C   0  0  0  0  0  0  0  0  0  0  0  0
  -24.1170  -13.0170   20.9300 C   0  0  0  0  0  0  0  0  0  0  0  0
  -24.5910  -11.6700   20.8820 C   0  0  0  0  0  0  0  0  0  0  0  0
  -26.1720  -12.9050   20.2590 N   0  0  0  0  0  0  0  0  0  0  0  0
  -25.8700  -11.6260   20.5480 N   0  0  0  0  0  0  0  0  0  0  0  0
  -23.8780  -10.4130   21.0520 C   0  0  0  0  0  0  0  0  0  0  0  0
  -24.3470   -9.4090   21.9240 C   0  0  0  0  0  3  0  0  0  0  0  0
  -23.6210   -8.2110   22.0770 C   0  0  0  0  0  3  0  0  0  0  0  0
  -22.4180   -8.0160   21.3560 C   0  0  0  0  0  0  0  0  0  0  0  0
  -21.9770   -9.0100   20.4650 C   0  0  0  0  0  3  0  0  0  0  0  0
  -22.7030  -10.1990   20.3090 C   0  0  0  0  0  3  0  0  0  0  0  0
  -21.6570   -6.8770   21.4240 O   0  0  0  0  0  0  0  0  0  0  0  0
  -21.6810   -6.0670   22.5290 C   0  0  0  0  0  0  0  0  0  0  0  0
  -21.3980   -6.5610   23.8220 C   0  0  0  0  0  3  0  0  0  0  0  0
  -21.3640   -5.6770   24.9190 C   0  0  0  0  0  3  0  0  0  0  0  0
  -21.6040   -4.3030   24.7250 C   0  0  0  0  0  0  0  0  0  0  0  0
  -21.8830   -3.8120   23.4370 C   0  0  0  0  0  3  0  0  0  0  0  0
  -21.9180   -4.6920   22.3420 C   0  0  0  0  0  0  0  0  0  0  0  0
  -22.1660   -4.2120   21.1000 F   0  0  0  0  0  0  0  0  0  0  0  0
  -21.5640   -3.4520   25.7760 F   0  0  0  0  0  0  0  0  0  0  0  0
  -22.7300  -13.5050   21.2030 C   0  0  0  0  0  0  0  0  0  0  0  0
  -22.0030  -12.8080   22.0640 N   0  0  0  0  0  0  0  0  0  0  0  0
  -22.3080  -14.5410   20.6900 O   0  0  0  0  0  0  0  0  0  0  0  0
  -22.3700  -11.9750   22.4990 H   0  0  0  0  0  0  0  0  0  0  0  0
  -21.0670  -13.1140   22.2940 H   0  0  0  0  0  0  0  0  0  0  0  0
  -25.3180  -15.1620   20.3850 N   0  0  0  0  0  0  0  0  0  0  0  0
  -24.5420  -15.8020   20.5150 H   0  0  0  0  0  0  0  0  0  0  0  0
  -26.1230  -15.5980   19.9580 H   0  0  0  0  0  0  0  0  0  0  0  0
  5  8  1  0
  5  6  1  0
  5  9  1  0
  7 10  1  0
  8 11  1  0
  8 12  1  0
 11  6  1  0
 12 13  1  0
 13 14  1  0
 15 13  1  0
 16 13  1  0
 18 19  1  0
 18 17  1  0
 20 31  2  0
 21 19  1  0
 21 26  1  0
 22 30  1  0
 22 32  1  0
 23 29  2  0
 23 25  1  0
 24 30  1  0
 25 24  2  0
 26 25  1  0
 27 28  1  0
 27 21  1  0
 28 23  1  0
 29 22  1  0
 30 20  1  0
 32 34  2  0
 33 32  1  0
 35 33  1  0
 36 45  1  6
 36 41  1  0
 36 44  1  0
 36 40  1  0
 37 33  1  0
 37 38  1  0
 39 38  1  0
 40 39  2  0
 41 43  1  0
 41 37  1  0
 41 42  1  6
 43 44  1  0
 43 42  1  0
 44 45  1  0
 46 20  1  0
 46 51  1  0
 46 47  1  0
 47 50  1  1
 47 48  1  0
 49 47  1  0
 51 54  1  0
 52 56  1  0
 52 51  1  0
 53 52  2  0
 56 55  1  0
 58 56  1  0
 58 59  1  0
 58 57  1  0
 65 70  1  0
 66 67  1  0
 66 65  1  0
 68 67  1  0
 68 75  1  0
 68 69  1  0
 70 64  1  0
 70 69  1  0
 71 64  1  0
 72 73  2  0
 73 92  1  0
 74 73  1  0
 74 77  1  0
 75 72  1  0
 75 76  1  0
 76 74  2  0
 77 78  1  0
 78 79  2  0
 80 83  1  0
 80 79  1  0
 81 80  2  0
 82 81  1  0
 82 77  2  0
 83 84  1  0
 84 85  1  0
 85 86  2  0
 87 86  1  0
 87 91  1  0
 88 87  2  0
 89 84  2  0
 89 88  1  0
 90 89  1  0
 92 93  1  0
 93 96  1  0
 93 95  1  0
 94 92  2  0
 97 98  1  0
 97 72  1  0
 99 97  1  0
M  ISO  4  18 101  19 101  63 100  64 100
M  END
>  <TORSDO>  (81) 
F 25

>  <SCORE>  (81) 
12.878

>  <name>  (81) 
80

>  <ligand_id>  (81) 
80

>  <original_smiles>  (81) 
[H]c1c([H])c([H])c2c(c1[H])C([H])([H])C([H])([H])C([H])([H])C2([H])N([H])C(=O)C1([H])N(C(=O)C([H])(N([H])C(=O)C([H])(N([H])C([H])([H])[H])C([H])([H])[H])C(C([H])([H])[H])(C([H])([H])[H])C([H])([H])[H])C([H])([H])c2c([H])c(OC([H])([H])C([H])([H])C([H])([H])[N+]([H])([H])C([H])([H])C3([H])N(C([H])([H])C([H])([H])C([H])([H])C([H])([H])C(=O)N4C([H])([H])C([H])([H])C([H])([H])C([H])(n5nc(-c6c([H])c([H])c(Oc7c([H])c([H])c(F)c([H])c7F)c([H])c6[H])c(C(=O)N([H])[H])c5N([H])[H])C4([H])[H])C([H])([H])C4(C([H])([H])C([H])([H])C([H])([H])C([H])(C([H])([H])[H])C4([H])[H])C3([H])[H])c([H])c([H])c2C1([H])[H]

>  <smiles>  (81) 
[H]c1c([H])c([H])c2c(c1[H])C([H])([H])C([H])([H])C([H])([H])C2([H])N([H])C(=O)C1([H])N(C(=O)C([H])(N([H])C(=O)C([H])(N([H])C([H])([H])[H])C([H])([H])[H])C(C([H])([H])[H])(C([H])([H])[H])C([H])([H])[H])C([H])([H])c2c([H])c(OC([H])([H])C([H])([H])C([H])([H])[N+]([H])([H])C([H])([H])C3([H])N(C([H])([H])C([H])([H])C([H])([H])C([H])([H])C(=O)N4C([H])([H])C([H])([H])C([H])([H])C([H])(n5nc(-c6c([H])c([H])c(Oc7c([H])c([H])c(F)c([H])c7F)c([H])c6[H])c(C(=O)N([H])[H])c5N([H])[H])C4([H])[H])C([H])([H])C4(C([H])([H])C([H])([H])C([H])([H])C([H])(C([H])([H])[H])C4([H])[H])C3([H])[H])c([H])c([H])c2C1([H])[H]

$$$$
81:0:0
     RDKit          3D

 87 93  0  0  1  0  0  0  0  0999 V2000
  -29.0100  -18.8080   18.0550 C   0  0  0  0  0  2  0  0  0  0  0  0
  -30.2490  -19.6850   18.2080 C   0  0  0  0  0  2  0  0  0  0  0  0
  -28.5960  -18.6330   19.5260 C   0  0  0  0  0  3  0  0  0  0  0  0
  -30.2730  -19.8350   19.7340 C   0  0  0  0  0  3  0  0  0  0  0  0
  -28.1060  -20.1760   20.0500 C   0  0  0  0  0  3  0  0  0  0  0  0
  -29.2040  -21.3970   20.1060 C   0  0  0  0  0  2  0  0  0  0  0  0
  -29.9370  -17.9890   20.1720 C   0  0  0  0  0  3  0  0  0  0  0  0
  -26.8240  -20.6270   19.3320 C   0  0  0  0  0  1  0  0  0  0  0  0
  -29.8170  -17.9630   21.7030 C   0  0  0  0  0  1  0  0  0  0  0  0
  -30.6170  -16.1200   19.8270 C   0  0  0  0  0  2  0  0  0  0  0  0
  -30.7290  -13.4660   19.0510 C   0  0  0  0  0  2  0  0  0  0  0  0
  -29.8010  -12.9460   17.9010 C   0  0  0  0  0  2  0  0  0  0  0  0
  -28.4170  -12.5510   18.4310 C   0  0  0  0  0  2  0  0  0  0  0  0
  -27.9380  -13.5760   19.4770 C   0  0  0  0  0  3  0  0  0  0  0  0
  -29.0080  -13.9930   20.5220 C   0  0  0  0  0  2  0  0  0  0  0  0
  -30.1280  -14.6890   19.8160 N   0  0  0  0  0  0  0  0  0  0  0  0
  -31.8240  -15.9580   19.5250 O   0  0  0  0  0  1  0  0  0  0  0  0
  -25.6560  -14.1270   20.4190 C   0  0  0  0  0  0  0  0  0  0  0  0
  -24.5950  -13.3670   20.8200 C   0  0  0  0  0  0  0  0  0  0  0  0
  -25.0170  -12.0060   20.7060 C   0  0  0  0  0  0  0  0  0  0  0  0
  -26.6520  -13.2370   20.0730 N   0  0  0  0  0  0  0  0  0  0  0  0
  -26.2870  -11.9470   20.3080 N   0  0  0  0  0  0  0  0  0  0  0  0
  -24.2530  -10.7620   20.8940 C   0  0  0  0  0  0  0  0  0  0  0  0
  -24.6510   -9.7810   21.8280 C   0  0  0  0  0  3  0  0  0  0  0  0
  -23.8840   -8.6090   22.0100 C   0  0  0  0  0  3  0  0  0  0  0  0
  -22.7040   -8.4090   21.2560 C   0  0  0  0  0  0  0  0  0  0  0  0
  -22.3220   -9.3780   20.3110 C   0  0  0  0  0  3  0  0  0  0  0  0
  -23.0900  -10.5410   20.1280 C   0  0  0  0  0  3  0  0  0  0  0  0
  -21.9100   -7.2900   21.3450 O   0  0  0  0  0  0  0  0  0  0  0  0
  -21.7450   -6.6170   22.5280 C   0  0  0  0  0  0  0  0  0  0  0  0
  -21.1910   -7.2380   23.6690 C   0  0  0  0  0  3  0  0  0  0  0  0
  -20.9740   -6.4890   24.8440 C   0  0  0  0  0  3  0  0  0  0  0  0
  -21.3010   -5.1210   24.8780 C   0  0  0  0  0  0  0  0  0  0  0  0
  -21.8490   -4.4990   23.7420 C   0  0  0  0  0  3  0  0  0  0  0  0
  -22.0670   -5.2440   22.5700 C   0  0  0  0  0  0  0  0  0  0  0  0
  -22.5730   -4.6350   21.4700 F   0  0  0  0  0  0  0  0  0  0  0  0
  -21.0870   -4.4000   26.0030 F   0  0  0  0  0  0  0  0  0  0  0  0
  -23.2360  -13.8800   21.1890 C   0  0  0  0  0  0  0  0  0  0  0  0
  -22.5480  -13.1960   22.0950 N   0  0  0  0  0  0  0  0  0  0  0  0
  -22.7980  -14.9260   20.7100 O   0  0  0  0  0  0  0  0  0  0  0  0
  -22.9180  -12.3510   22.5040 H   0  0  0  0  0  0  0  0  0  0  0  0
  -21.6370  -13.5230   22.3850 H   0  0  0  0  0  0  0  0  0  0  0  0
  -25.8520  -15.4990   20.2860 N   0  0  0  0  0  0  0  0  0  0  0  0
  -25.1180  -16.1700   20.4820 H   0  0  0  0  0  0  0  0  0  0  0  0
  -26.6980  -15.9280   19.9360 H   0  0  0  0  0  0  0  0  0  0  0  0
  -28.6680  -23.3990   19.6700 C   0  0  0  0  0 15  0  0  0  0  0  0
  -28.5880  -25.2540   20.0360 O   0  0  0  0  0  1  0  0  0  0  0  0
  -24.7400  -31.5990   23.0090 C   0  0  0  0  0  0  0  0  0  0  0  0
  -27.5990  -26.5430   19.9520 C   0  0  0  0  0  0  0  0  0  0  0  0
  -23.6870  -30.2070   21.2810 C   0  0  0  0  0  3  0  0  0  0  0  0
  -25.2610  -28.6310   19.8770 C   0  0  0  0  0  0  0  0  0  0  0  0
  -26.2690  -30.3950   21.2910 C   0  0  0  0  0  2  0  0  0  0  0  0
  -26.4200  -28.9670   20.5850 C   0  0  0  0  0  0  0  0  0  0  0  0
  -27.5560  -27.9570   20.5880 C   0  0  0  0  0  3  0  0  0  0  0  0
  -26.3950  -26.4850   19.1830 C   0  0  0  0  0  3  0  0  0  0  0  0
  -25.3030  -27.4230   19.1530 C   0  0  0  0  0  3  0  0  0  0  0  0
  -24.0200  -29.5550   19.9040 C   0  0  0  0  0  2  0  0  0  0  0  0
  -24.9220  -30.7720   21.9150 N   0  0  0  0  0  0  0  0  0  0  0  0
  -23.6120  -31.8420   23.4750 O   0  0  0  0  0  0  0  0  0  0  0  0
  -22.9560  -29.1840   22.1960 C   0  0  0  0  0  0  0  0  0  0  0  0
  -21.6220  -29.0380   22.0620 N   0  0  0  0  0  0  0  0  0  0  0  0
  -23.6050  -28.5170   23.0030 O   0  0  0  0  0  0  0  0  0  0  0  0
  -21.1430  -29.6280   21.3960 H   0  0  0  0  0  0  0  0  0  0  0  0
  -18.2270  -27.8280   22.5730 C   0  0  0  0  0  0  0  0  0  0  0  0
  -20.7980  -28.0500   22.7740 C   0  0  0  0  0  3  0  0  0  0  0  0
  -20.8610  -26.6710   22.0760 C   0  0  0  0  0  2  0  0  0  0  0  0
  -19.7260  -26.4520   21.0700 C   0  0  0  0  0  2  0  0  0  0  0  0
  -18.3660  -26.5490   21.7660 C   0  0  0  0  0  2  0  0  0  0  0  0
  -19.3670  -28.5430   23.0310 C   0  0  0  0  0  0  0  0  0  0  0  0
  -19.1760  -29.7400   23.7540 C   0  0  0  0  0  3  0  0  0  0  0  0
  -17.8800  -30.2260   24.0150 C   0  0  0  0  0  3  0  0  0  0  0  0
  -16.7570  -29.5110   23.5680 C   0  0  0  0  0  3  0  0  0  0  0  0
  -16.9310  -28.3120   22.8530 C   0  0  0  0  0  3  0  0  0  0  0  0
  -25.9360  -32.2900   23.7320 C   0  0  0  0  0  3  0  0  0  0  0  0
  -25.5460  -33.6770   24.0650 N   0  0  0  0  0  0  0  0  0  0  0  0
  -25.8480  -34.7650   23.3420 C   0  0  0  0  0  0  0  0  0  0  0  0
  -26.5350  -34.7090   22.3210 O   0  0  0  0  0  0  0  0  0  0  0  0
  -24.9320  -33.7900   24.8580 H   0  0  0  0  0  0  0  0  0  0  0  0
  -24.0320  -36.4920   23.0470 C   0  0  0  0  0  1  0  0  0  0  0  0
  -25.3080  -36.1310   23.8240 C   0  0  0  0  0  3  0  0  0  0  0  0
  -27.4050  -37.1290   24.6310 C   0  0  0  0  0  1  0  0  0  0  0  0
  -26.2880  -37.2350   23.6970 N   0  0  0  0  0  0  0  0  0  0  0  0
  -25.8370  -38.1340   23.8430 H   0  0  0  0  0  0  0  0  0  0  0  0
  -26.3780  -31.5380   25.0490 C   0  0  1  0  0  0  0  0  0  0  0  0
  -25.2190  -31.2800   26.0420 C   0  0  0  0  0  1  0  0  0  0  0  0
  -27.0200  -30.1730   24.7240 C   0  0  0  0  0  1  0  0  0  0  0  0
  -27.4620  -32.3630   25.7840 C   0  0  0  0  0  1  0  0  0  0  0  0
  1  2  1  0
  3  1  1  0
  3  5  1  0
  3  7  1  0
  4  2  1  0
  4  6  1  0
  4  7  1  0
  5  8  1  0
  5  6  1  0
  7  9  1  0
 11 16  1  0
 12 13  1  0
 12 11  1  0
 14 13  1  0
 14 21  1  0
 14 15  1  0
 16 10  1  0
 16 15  1  0
 17 10  1  0
 18 19  2  0
 19 38  1  0
 20 19  1  0
 20 23  1  0
 21 22  1  0
 21 18  1  0
 22 20  2  0
 23 24  1  0
 24 25  2  0
 26 29  1  0
 26 25  1  0
 27 26  2  0
 28 27  1  0
 28 23  2  0
 29 30  1  0
 30 35  2  0
 30 31  1  0
 31 32  2  0
 32 33  1  0
 33 37  1  0
 34 33  2  0
 35 34  1  0
 36 35  1  0
 38 39  1  0
 39 42  1  0
 39 41  1  0
 40 38  2  0
 43 18  1  0
 43 44  1  0
 45 43  1  0
 48 59  2  0
 49 47  1  0
 49 54  1  0
 50 58  1  0
 50 60  1  0
 51 57  1  0
 51 53  1  0
 52 58  1  0
 53 54  2  0
 53 52  1  0
 55 49  2  0
 56 55  1  0
 56 51  2  0
 57 50  1  0
 58 48  1  0
 60 62  2  0
 61 60  1  0
 63 61  1  0
 64 73  2  0
 64 69  1  0
 65 61  1  0
 65 69  1  0
 66 65  1  0
 67 68  1  0
 67 66  1  0
 68 64  1  0
 69 70  2  0
 70 71  1  0
 72 71  2  0
 73 72  1  0
 74 48  1  0
 74 75  1  0
 74 84  1  0
 75 78  1  0
 76 80  1  0
 76 75  1  0
 77 76  2  0
 80 79  1  0
 82 80  1  0
 82 83  1  0
 82 81  1  0
 84 87  1  1
 84 85  1  0
 86 84  1  0
M  ISO  4   7 100  10 100  46 101  47 101
M  END
>  <TORSDO>  (82) 
F 17

>  <SCORE>  (82) 
-15.216

>  <name>  (82) 
81

>  <ligand_id>  (82) 
81

>  <original_smiles>  (82) 
[H]c1c([H])c([H])c2c(c1[H])C([H])([H])C([H])([H])C([H])([H])C2([H])N([H])C(=O)C1([H])N(C(=O)C([H])(N([H])C(=O)C([H])(N([H])C([H])([H])[H])C([H])([H])[H])C(C([H])([H])[H])(C([H])([H])[H])C([H])([H])[H])C([H])([H])c2c([H])c(OC([H])([H])C3([H])C([H])(C([H])([H])[H])C4([H])C([H])([H])C([H])([H])C3([H])C4(C(=O)N3C([H])([H])C([H])([H])C([H])([H])C([H])(n4nc(-c5c([H])c([H])c(Oc6c([H])c([H])c(F)c([H])c6F)c([H])c5[H])c(C(=O)N([H])[H])c4N([H])[H])C3([H])[H])C([H])([H])[H])c([H])c([H])c2C1([H])[H]

>  <smiles>  (82) 
[H]c1c([H])c([H])c2c(c1[H])C([H])([H])C([H])([H])C([H])([H])C2([H])N([H])C(=O)C1([H])N(C(=O)C([H])(N([H])C(=O)C([H])(N([H])C([H])([H])[H])C([H])([H])[H])C(C([H])([H])[H])(C([H])([H])[H])C([H])([H])[H])C([H])([H])c2c([H])c(OC([H])([H])C3([H])C([H])(C([H])([H])[H])C4([H])C([H])([H])C([H])([H])C3([H])C4(C(=O)N3C([H])([H])C([H])([H])C([H])([H])C([H])(n4nc(-c5c([H])c([H])c(Oc6c([H])c([H])c(F)c([H])c6F)c([H])c5[H])c(C(=O)N([H])[H])c4N([H])[H])C3([H])[H])C([H])([H])[H])c([H])c([H])c2C1([H])[H]

$$$$
82:0:0
     RDKit          3D

 95103  0  0  1  0  0  0  0  0999 V2000
  -30.0570  -21.4940   22.2460 C   0  0  0  0  0  2  0  0  0  0  0  0
  -29.6240  -20.0760   22.6760 C   0  0  0  0  0  2  0  0  0  0  0  0
  -30.6220  -18.9610   22.2860 C   0  0  0  0  0  2  0  0  0  0  0  0
  -30.5700  -18.4460   18.4960 C   0  0  0  0  0  2  0  0  0  0  0  0
  -30.5270  -19.3210   19.7420 C   0  0  0  0  0  2  0  0  0  0  0  0
  -31.1090  -17.0780   18.9530 C   0  0  0  0  0  3  0  0  0  0  0  0
  -30.3400  -18.3400   20.8990 C   0  0  0  0  0  3  0  0  0  0  0  0
  -31.2360  -17.1410   20.5110 C   0  0  0  0  0  3  0  0  0  0  0  0
  -33.6050  -16.6710   18.5680 C   0  0  0  0  0  2  0  0  0  0  0  0
  -32.3350  -16.6780   18.1250 C   0  0  0  0  0  0  0  0  0  0  0  0
  -32.0220  -16.2870   16.6920 C   0  0  0  0  0  1  0  0  0  0  0  0
  -30.8160  -15.8310   21.2460 C   0  0  0  0  0  2  0  0  0  0  0  0
  -31.4840  -14.5450   20.7070 C   0  0  0  0  0  0  0  0  0  0  0  0
  -31.1360  -12.3980   19.5490 C   0  0  0  0  0  2  0  0  0  0  0  0
  -30.2750  -12.6520   18.2950 C   0  0  0  0  0  2  0  0  0  0  0  0
  -28.7700  -12.6190   18.6360 C   0  0  0  0  0  2  0  0  0  0  0  0
  -28.4160  -13.4770   19.8810 C   0  0  0  0  0  3  0  0  0  0  0  0
  -29.3930  -13.1820   21.0400 C   0  0  0  0  0  2  0  0  0  0  0  0
  -30.7610  -13.4050   20.5500 N   0  0  0  0  0  0  0  0  0  0  0  0
  -32.6560  -14.6280   20.3350 O   0  0  0  0  0  0  0  0  0  0  0  0
  -26.0280  -14.2450   20.4580 C   0  0  0  0  0  0  0  0  0  0  0  0
  -24.8910  -13.5430   20.7620 C   0  0  0  0  0  0  0  0  0  0  0  0
  -25.2630  -12.1640   20.7480 C   0  0  0  0  0  0  0  0  0  0  0  0
  -27.0240  -13.2960   20.2820 N   0  0  0  0  0  0  0  0  0  0  0  0
  -26.5640  -12.0400   20.5120 N   0  0  0  0  0  0  0  0  0  0  0  0
  -24.4480  -10.9510   20.8890 C   0  0  0  0  0  0  0  0  0  0  0  0
  -24.7980   -9.9280   21.7980 C   0  0  0  0  0  3  0  0  0  0  0  0
  -23.9890   -8.7780   21.9300 C   0  0  0  0  0  3  0  0  0  0  0  0
  -22.8150   -8.6450   21.1510 C   0  0  0  0  0  0  0  0  0  0  0  0
  -22.4830   -9.6560   20.2310 C   0  0  0  0  0  3  0  0  0  0  0  0
  -23.2920  -10.7960   20.0980 C   0  0  0  0  0  3  0  0  0  0  0  0
  -21.9830   -7.5540   21.1920 O   0  0  0  0  0  0  0  0  0  0  0  0
  -21.8790   -6.7690   22.3130 C   0  0  0  0  0  0  0  0  0  0  0  0
  -21.5200   -7.3060   23.5680 C   0  0  0  0  0  3  0  0  0  0  0  0
  -21.3580   -6.4530   24.6780 C   0  0  0  0  0  3  0  0  0  0  0  0
  -21.5450   -5.0660   24.5340 C   0  0  0  0  0  0  0  0  0  0  0  0
  -21.8980   -4.5280   23.2830 C   0  0  0  0  0  3  0  0  0  0  0  0
  -22.0610   -5.3770   22.1750 C   0  0  0  0  0  0  0  0  0  0  0  0
  -22.3800   -4.8530   20.9680 F   0  0  0  0  0  0  0  0  0  0  0  0
  -21.3820   -4.2450   25.5980 F   0  0  0  0  0  0  0  0  0  0  0  0
  -23.5140  -14.1090   20.9590 C   0  0  0  0  0  0  0  0  0  0  0  0
  -22.7020  -13.4670   21.7910 N   0  0  0  0  0  0  0  0  0  0  0  0
  -23.1670  -15.1540   20.4100 O   0  0  0  0  0  0  0  0  0  0  0  0
  -22.9940  -12.6210   22.2580 H   0  0  0  0  0  0  0  0  0  0  0  0
  -21.7750  -13.8280   21.9650 H   0  0  0  0  0  0  0  0  0  0  0  0
  -26.2920  -15.6010   20.2980 N   0  0  0  0  0  0  0  0  0  0  0  0
  -25.5680  -16.3070   20.3710 H   0  0  0  0  0  0  0  0  0  0  0  0
  -27.1920  -15.9820   20.0350 H   0  0  0  0  0  0  0  0  0  0  0  0
  -28.9030  -22.5180   22.2710 C   0  0  0  0  0  2  0  0  0  0  0  0
  -29.3760  -23.8960   22.0030 N   0  0  0  0  0  4  0  0  0  0  0  0
  -30.1460  -23.8420   21.3540 H   0  0  0  0  0  0  0  0  0  0  0  0
  -29.7370  -24.2830   22.8620 H   0  0  0  0  0  0  0  0  0  0  0  0
  -28.3490  -24.8030   21.4280 C   0  0  0  0  0  2  0  0  0  0  0  0
  -28.8760  -26.2360   21.2010 C   0  0  0  0  0  2  0  0  0  0  0  0
  -28.3220  -26.7720   20.0020 O   0  0  0  0  0  0  0  0  0  0  0  0
  -24.5530  -31.9230   23.2180 C   0  0  0  0  0  0  0  0  0  0  0  0
  -27.1610  -27.4910   20.1190 C   0  0  0  0  0  0  0  0  0  0  0  0
  -23.3270  -30.5290   21.5800 C   0  0  0  0  0  3  0  0  0  0  0  0
  -24.7660  -28.9830   20.1500 C   0  0  0  0  0  0  0  0  0  0  0  0
  -25.8500  -30.8800   21.3660 C   0  0  0  0  0  2  0  0  0  0  0  0
  -25.9260  -29.5060   20.7380 C   0  0  0  0  0  0  0  0  0  0  0  0
  -27.1270  -28.7640   20.7310 C   0  0  0  0  0  3  0  0  0  0  0  0
  -25.9920  -26.9780   19.5240 C   0  0  0  0  0  3  0  0  0  0  0  0
  -24.7900  -27.7130   19.5450 C   0  0  0  0  0  3  0  0  0  0  0  0
  -23.5260  -29.8460   20.1990 C   0  0  0  0  0  2  0  0  0  0  0  0
  -24.5950  -31.1260   22.1130 N   0  0  0  0  0  0  0  0  0  0  0  0
  -23.4770  -32.2000   23.7670 O   0  0  0  0  0  0  0  0  0  0  0  0
  -22.6770  -29.5090   22.5420 C   0  0  0  0  0  0  0  0  0  0  0  0
  -21.3490  -29.3460   22.4300 N   0  0  0  0  0  0  0  0  0  0  0  0
  -23.3640  -28.8700   23.3430 O   0  0  0  0  0  0  0  0  0  0  0  0
  -20.8600  -29.9130   21.7520 H   0  0  0  0  0  0  0  0  0  0  0  0
  -17.9660  -28.1900   22.9510 C   0  0  0  0  0  0  0  0  0  0  0  0
  -20.5290  -28.4130   23.2010 C   0  0  0  0  0  3  0  0  0  0  0  0
  -20.6090  -26.9850   22.6140 C   0  0  0  0  0  2  0  0  0  0  0  0
  -19.4930  -26.6820   21.6080 C   0  0  0  0  0  2  0  0  0  0  0  0
  -18.1200  -26.8410   22.2660 C   0  0  0  0  0  2  0  0  0  0  0  0
  -19.0980  -28.9350   23.3750 C   0  0  0  0  0  0  0  0  0  0  0  0
  -18.9020  -30.1990   23.9730 C   0  0  0  0  0  3  0  0  0  0  0  0
  -17.6060  -30.7170   24.1510 C   0  0  0  0  0  3  0  0  0  0  0  0
  -16.4880  -29.9680   23.7440 C   0  0  0  0  0  3  0  0  0  0  0  0
  -16.6690  -28.7060   23.1510 C   0  0  0  0  0  3  0  0  0  0  0  0
  -25.8490  -32.5420   23.8310 C   0  0  0  0  0  3  0  0  0  0  0  0
  -26.3780  -31.7550   25.0920 C   0  0  1  0  0  0  0  0  0  0  0  0
  -25.2980  -31.5100   26.1710 C   0  0  0  0  0  1  0  0  0  0  0  0
  -26.9480  -30.3790   24.6730 C   0  0  0  0  0  1  0  0  0  0  0  0
  -27.5420  -32.5360   25.7460 C   0  0  0  0  0  1  0  0  0  0  0  0
  -25.5490  -33.9380   24.1770 N   0  0  0  0  0  0  0  0  0  0  0  0
  -25.8850  -34.9940   23.4250 C   0  0  0  0  0  0  0  0  0  0  0  0
  -26.5500  -34.8980   22.3900 O   0  0  0  0  0  0  0  0  0  0  0  0
  -24.9630  -34.0880   24.9830 H   0  0  0  0  0  0  0  0  0  0  0  0
  -24.1610  -36.7940   23.0940 C   0  0  0  0  0  1  0  0  0  0  0  0
  -25.4050  -36.3810   23.8950 C   0  0  0  0  0  3  0  0  0  0  0  0
  -27.5510  -37.2490   24.7140 C   0  0  0  0  0  1  0  0  0  0  0  0
  -26.4420  -37.4310   23.7820 N   0  0  0  0  0  0  0  0  0  0  0  0
  -26.0410  -38.3510   23.9450 H   0  0  0  0  0  0  0  0  0  0  0  0
  1 49  1  0
  1  2  1  0
  3  2  1  0
  4  6  1  0
  4  5  1  0
  5  7  1  0
  6 10  1  0
  6  8  1  0
  7  3  1  0
  8  7  1  0
  8 12  1  0
 10  9  2  0
 11 10  1  0
 13 12  1  0
 14 19  1  0
 15 16  1  0
 15 14  1  0
 17 16  1  0
 17 24  1  0
 17 18  1  0
 19 13  1  0
 19 18  1  0
 20 13  2  0
 21 22  2  0
 22 41  1  0
 23 22  1  0
 23 26  1  0
 24 21  1  0
 24 25  1  0
 25 23  2  0
 26 27  1  0
 27 28  2  0
 29 32  1  0
 29 28  1  0
 30 29  2  0
 31 30  1  0
 31 26  2  0
 32 33  1  0
 33 34  1  0
 34 35  2  0
 36 35  1  0
 36 40  1  0
 37 36  2  0
 38 33  2  0
 38 37  1  0
 39 38  1  0
 41 42  1  0
 42 45  1  0
 42 44  1  0
 43 41  2  0
 46 47  1  0
 46 21  1  0
 48 46  1  0
 50 49  1  0
 50 52  1  0
 51 50  1  0
 53 50  1  0
 54 53  1  0
 55 57  1  0
 55 54  1  0
 56 67  2  0
 57 62  1  0
 58 66  1  0
 58 68  1  0
 59 65  1  0
 59 61  1  0
 60 66  1  0
 61 60  1  0
 62 61  2  0
 63 64  1  0
 63 57  2  0
 64 59  2  0
 65 58  1  0
 66 56  1  0
 68 70  2  0
 69 68  1  0
 71 69  1  0
 72 81  2  0
 72 77  1  0
 73 69  1  0
 73 77  1  0
 74 73  1  0
 75 76  1  0
 75 74  1  0
 76 72  1  0
 77 78  2  0
 78 79  1  0
 80 79  2  0
 81 80  1  0
 82 56  1  0
 82 87  1  0
 82 83  1  0
 83 86  1  1
 83 84  1  0
 85 83  1  0
 87 90  1  0
 88 92  1  0
 88 87  1  0
 89 88  2  0
 92 91  1  0
 94 92  1  0
 94 95  1  0
 94 93  1  0
M  ISO  4  12 100  13 100  54 101  55 101
M  END
>  <TORSDO>  (83) 
F 25

>  <SCORE>  (83) 
-10.723

>  <name>  (83) 
82

>  <ligand_id>  (83) 
82

>  <original_smiles>  (83) 
[H]C([H])=C(C([H])([H])[H])C1([H])C([H])([H])C([H])([H])C([H])(C([H])([H])C([H])([H])C([H])([H])C([H])([H])[N+]([H])([H])C([H])([H])C([H])([H])Oc2c([H])c([H])c3c(c2[H])C([H])([H])N(C(=O)C([H])(N([H])C(=O)C([H])(N([H])C([H])([H])[H])C([H])([H])[H])C(C([H])([H])[H])(C([H])([H])[H])C([H])([H])[H])C([H])(C(=O)N([H])C2([H])c4c([H])c([H])c([H])c([H])c4C([H])([H])C([H])([H])C2([H])[H])C3([H])[H])C1([H])C([H])([H])C(=O)N1C([H])([H])C([H])([H])C([H])([H])C([H])(n2nc(-c3c([H])c([H])c(Oc4c([H])c([H])c(F)c([H])c4F)c([H])c3[H])c(C(=O)N([H])[H])c2N([H])[H])C1([H])[H]

>  <smiles>  (83) 
[H]C([H])=C(C([H])([H])[H])C1([H])C([H])([H])C([H])([H])C([H])(C([H])([H])C([H])([H])C([H])([H])C([H])([H])[N+]([H])([H])C([H])([H])C([H])([H])Oc2c([H])c([H])c3c(c2[H])C([H])([H])N(C(=O)C([H])(N([H])C(=O)C([H])(N([H])C([H])([H])[H])C([H])([H])[H])C(C([H])([H])[H])(C([H])([H])[H])C([H])([H])[H])C([H])(C(=O)N([H])C2([H])c4c([H])c([H])c([H])c([H])c4C([H])([H])C([H])([H])C2([H])[H])C3([H])[H])C1([H])C([H])([H])C(=O)N1C([H])([H])C([H])([H])C([H])([H])C([H])(n2nc(-c3c([H])c([H])c(Oc4c([H])c([H])c(F)c([H])c4F)c([H])c3[H])c(C(=O)N([H])[H])c2N([H])[H])C1([H])[H]

$$$$
83:0:0
     RDKit          3D

 90 98  0  0  1  0  0  0  0  0999 V2000
  -28.6700  -21.9140   18.8600 C   0  0  0  0  0  2  0  0  0  0  0  0
  -28.8030  -23.4590   18.9790 C   0  0  0  0  0  2  0  0  0  0  0  0
  -28.7210  -22.6000   21.1650 C   0  0  0  0  0  2  0  0  0  0  0  0
  -28.5900  -21.2940   20.2840 C   0  0  0  0  0  3  0  0  0  0  0  0
  -28.1990  -23.8390   20.3300 C   0  0  0  0  0  3  0  0  0  0  0  0
  -29.5920  -20.0350   20.5120 C   0  0  0  0  0  2  0  0  0  0  0  0
  -29.0790  -18.5870   20.6570 N   0  0  1  0  0  4  0  0  0  0  0  0
  -28.8270  -18.5520   21.6360 H   0  0  0  0  0  0  0  0  0  0  0  0
  -27.9010  -18.2490   18.4190 C   0  0  0  0  0  1  0  0  0  0  0  0
  -27.7940  -18.3000   19.9530 C   0  0  0  0  0  2  0  0  0  0  0  0
  -30.1250  -17.4640   20.4880 C   0  0  0  0  0  3  0  0  0  0  0  0
  -29.7790  -15.9790   21.0200 C   0  0  0  0  0  3  0  0  0  0  0  0
  -30.5770  -14.7040   20.4820 C   0  0  0  0  0  0  0  0  0  0  0  0
  -30.3980  -12.4590   19.3890 C   0  0  0  0  0  2  0  0  0  0  0  0
  -29.4670  -12.5680   18.1590 C   0  0  0  0  0  2  0  0  0  0  0  0
  -27.9900  -12.4150   18.5710 C   0  0  0  0  0  2  0  0  0  0  0  0
  -27.6160  -13.2880   19.7970 C   0  0  0  0  0  3  0  0  0  0  0  0
  -28.6570  -13.1290   20.9260 C   0  0  0  0  0  2  0  0  0  0  0  0
  -29.9720  -13.4770   20.3730 N   0  0  0  0  0  0  0  0  0  0  0  0
  -31.7310  -14.8560   20.0680 O   0  0  0  0  0  0  0  0  0  0  0  0
  -25.2160  -13.9040   20.4800 C   0  0  0  0  0  0  0  0  0  0  0  0
  -24.1440  -13.1390   20.8520 C   0  0  0  0  0  0  0  0  0  0  0  0
  -24.6040  -11.7870   20.8410 C   0  0  0  0  0  0  0  0  0  0  0  0
  -26.2610  -13.0180   20.2670 N   0  0  0  0  0  0  0  0  0  0  0  0
  -25.8970  -11.7410   20.5470 N   0  0  0  0  0  0  0  0  0  0  0  0
  -23.8710  -10.5270   21.0350 C   0  0  0  0  0  0  0  0  0  0  0  0
  -24.2950   -9.5600   21.9720 C   0  0  0  0  0  3  0  0  0  0  0  0
  -23.5620   -8.3680   22.1510 C   0  0  0  0  0  3  0  0  0  0  0  0
  -22.3930   -8.1330   21.3890 C   0  0  0  0  0  0  0  0  0  0  0  0
  -21.9900   -9.0870   20.4370 C   0  0  0  0  0  3  0  0  0  0  0  0
  -22.7240  -10.2710   20.2580 C   0  0  0  0  0  3  0  0  0  0  0  0
  -21.6330   -6.9920   21.4790 O   0  0  0  0  0  0  0  0  0  0  0  0
  -21.5820   -6.2480   22.6310 C   0  0  0  0  0  0  0  0  0  0  0  0
  -21.1670   -6.8090   23.8600 C   0  0  0  0  0  3  0  0  0  0  0  0
  -21.0630   -5.9940   25.0060 C   0  0  0  0  0  3  0  0  0  0  0  0
  -21.3660   -4.6210   24.9230 C   0  0  0  0  0  0  0  0  0  0  0  0
  -21.7750   -4.0620   23.7010 C   0  0  0  0  0  3  0  0  0  0  0  0
  -21.8810   -4.8730   22.5580 C   0  0  0  0  0  0  0  0  0  0  0  0
  -22.2570   -4.3250   21.3760 F   0  0  0  0  0  0  0  0  0  0  0  0
  -21.2580   -3.8360   26.0200 F   0  0  0  0  0  0  0  0  0  0  0  0
  -22.7440  -13.6230   21.0990 C   0  0  0  0  0  0  0  0  0  0  0  0
  -21.9990  -12.9340   21.9580 N   0  0  0  0  0  0  0  0  0  0  0  0
  -22.3160  -14.6430   20.5620 O   0  0  0  0  0  0  0  0  0  0  0  0
  -22.3520  -12.1060   22.4140 H   0  0  0  0  0  0  0  0  0  0  0  0
  -21.0570  -13.2390   22.1590 H   0  0  0  0  0  0  0  0  0  0  0  0
  -25.3800  -15.2700   20.2780 N   0  0  0  0  0  0  0  0  0  0  0  0
  -24.5790  -15.8930   20.2850 H   0  0  0  0  0  0  0  0  0  0  0  0
  -26.1810  -15.6570   19.7990 H   0  0  0  0  0  0  0  0  0  0  0  0
  -28.5130  -25.3040   20.8980 C   0  0  0  0  0  2  0  0  0  0  0  0
  -28.3770  -26.5420   20.1070 O   0  0  0  0  0  0  0  0  0  0  0  0
  -24.5960  -31.8600   23.2440 C   0  0  0  0  0  0  0  0  0  0  0  0
  -27.2280  -27.3300   20.1910 C   0  0  0  0  0  0  0  0  0  0  0  0
  -23.3920  -30.4600   21.6010 C   0  0  0  0  0  3  0  0  0  0  0  0
  -24.8470  -28.9050   20.1790 C   0  0  0  0  0  0  0  0  0  0  0  0
  -25.9200  -30.7980   21.4030 C   0  0  0  0  0  2  0  0  0  0  0  0
  -26.0100  -29.4130   20.7730 C   0  0  0  0  0  0  0  0  0  0  0  0
  -27.2070  -28.6370   20.7680 C   0  0  0  0  0  3  0  0  0  0  0  0
  -26.0500  -26.8640   19.5800 C   0  0  0  0  0  3  0  0  0  0  0  0
  -24.8690  -27.6360   19.5710 C   0  0  0  0  0  3  0  0  0  0  0  0
  -23.6030  -29.7680   20.2260 C   0  0  0  0  0  2  0  0  0  0  0  0
  -24.6560  -31.0560   22.1420 N   0  0  0  0  0  0  0  0  0  0  0  0
  -23.5140  -32.1330   23.7830 O   0  0  0  0  0  0  0  0  0  0  0  0
  -22.7290  -29.4470   22.5630 C   0  0  0  0  0  0  0  0  0  0  0  0
  -21.4030  -29.2710   22.4340 N   0  0  0  0  0  0  0  0  0  0  0  0
  -23.4060  -28.8190   23.3820 O   0  0  0  0  0  0  0  0  0  0  0  0
  -20.9150  -29.8310   21.7480 H   0  0  0  0  0  0  0  0  0  0  0  0
  -18.0280  -28.0620   22.9130 C   0  0  0  0  0  0  0  0  0  0  0  0
  -20.5830  -28.3300   23.1970 C   0  0  0  0  0  3  0  0  0  0  0  0
  -20.6940  -26.9000   22.6190 C   0  0  0  0  0  2  0  0  0  0  0  0
  -19.5980  -26.5730   21.5990 C   0  0  0  0  0  2  0  0  0  0  0  0
  -18.2130  -26.7130   22.2360 C   0  0  0  0  0  2  0  0  0  0  0  0
  -19.1410  -28.8270   23.3510 C   0  0  0  0  0  0  0  0  0  0  0  0
  -18.9160  -30.0880   23.9430 C   0  0  0  0  0  3  0  0  0  0  0  0
  -17.6100  -30.5870   24.1020 C   0  0  0  0  0  3  0  0  0  0  0  0
  -16.5100  -29.8190   23.6830 C   0  0  0  0  0  3  0  0  0  0  0  0
  -16.7190  -28.5570   23.0960 C   0  0  0  0  0  3  0  0  0  0  0  0
  -25.8800  -32.4900   23.8690 C   0  0  0  0  0  3  0  0  0  0  0  0
  -25.5710  -33.8870   24.2050 N   0  0  0  0  0  0  0  0  0  0  0  0
  -25.9070  -34.9430   23.4530 C   0  0  0  0  0  0  0  0  0  0  0  0
  -26.5800  -34.8430   22.4230 O   0  0  0  0  0  0  0  0  0  0  0  0
  -24.9790  -34.0370   25.0080 H   0  0  0  0  0  0  0  0  0  0  0  0
  -24.1890  -36.7450   23.0970 C   0  0  0  0  0  1  0  0  0  0  0  0
  -25.4220  -36.3310   23.9140 C   0  0  0  0  0  3  0  0  0  0  0  0
  -27.5510  -37.2060   24.7680 C   0  0  0  0  0  1  0  0  0  0  0  0
  -26.4600  -37.3800   23.8140 N   0  0  0  0  0  0  0  0  0  0  0  0
  -26.0550  -38.3000   23.9610 H   0  0  0  0  0  0  0  0  0  0  0  0
  -26.3960  -31.7140   25.1440 C   0  0  1  0  0  0  0  0  0  0  0  0
  -25.3020  -31.4680   26.2080 C   0  0  0  0  0  1  0  0  0  0  0  0
  -26.9830  -30.3400   24.7410 C   0  0  0  0  0  1  0  0  0  0  0  0
  -27.5410  -32.5080   25.8140 C   0  0  0  0  0  1  0  0  0  0  0  0
  1  2  1  0
  1  4  1  0
  2  5  1  0
  4  6  1  0
  4  3  1  0
  5 49  1  0
  5  3  1  0
  6  7  1  0
  7  8  1  1
  9 10  1  0
 10  7  1  0
 11  7  1  0
 11 12  2  0
 13 12  1  0
 14 19  1  0
 15 16  1  0
 15 14  1  0
 17 16  1  0
 17 24  1  0
 17 18  1  0
 19 13  1  0
 19 18  1  0
 20 13  2  0
 21 22  2  0
 22 41  1  0
 23 22  1  0
 23 26  1  0
 24 21  1  0
 24 25  1  0
 25 23  2  0
 26 27  1  0
 27 28  2  0
 29 32  1  0
 29 28  1  0
 30 29  2  0
 31 30  1  0
 31 26  2  0
 32 33  1  0
 33 34  1  0
 34 35  2  0
 36 35  1  0
 36 40  1  0
 37 36  2  0
 38 33  2  0
 38 37  1  0
 39 38  1  0
 41 42  1  0
 42 45  1  0
 42 44  1  0
 43 41  2  0
 46 47  1  0
 46 21  1  0
 48 46  1  0
 50 52  1  0
 50 49  1  0
 51 62  2  0
 52 57  1  0
 53 61  1  0
 53 63  1  0
 54 60  1  0
 54 56  1  0
 55 61  1  0
 56 55  1  0
 57 56  2  0
 58 52  2  0
 59 58  1  0
 59 54  2  0
 60 53  1  0
 61 51  1  0
 63 65  2  0
 64 63  1  0
 66 64  1  0
 67 76  2  0
 67 72  1  0
 68 64  1  0
 68 72  1  0
 69 68  1  0
 70 71  1  0
 70 69  1  0
 71 67  1  0
 72 73  2  0
 73 74  1  0
 75 74  2  0
 76 75  1  0
 77 51  1  0
 77 78  1  0
 77 87  1  0
 78 81  1  0
 79 83  1  0
 79 78  1  0
 80 79  2  0
 83 82  1  0
 85 83  1  0
 85 86  1  0
 85 84  1  0
 87 90  1  1
 87 88  1  0
 89 87  1  0
M  ISO  4  12 100  13 100  49 101  50 101
M  END
>  <TORSDO>  (84) 
F 22

>  <SCORE>  (84) 
-13.437

>  <name>  (84) 
83

>  <ligand_id>  (84) 
83

>  <original_smiles>  (84) 
[H]c1c([H])c([H])c2c(c1[H])C([H])([H])C([H])([H])C([H])([H])C2([H])N([H])C(=O)C1([H])N(C(=O)C([H])(N([H])C(=O)C([H])(N([H])C([H])([H])[H])C([H])([H])[H])C(C([H])([H])[H])(C([H])([H])[H])C([H])([H])[H])C([H])([H])c2c([H])c(OC([H])([H])C3([H])C([H])([H])C([H])([H])C([H])(C([H])([H])[N+]([H])(C([H])([H])C([H])([H])[H])C([H])([H])C([H])([H])C(=O)N4C([H])([H])C([H])([H])C([H])([H])C([H])(n5nc(-c6c([H])c([H])c(Oc7c([H])c([H])c(F)c([H])c7F)c([H])c6[H])c(C(=O)N([H])[H])c5N([H])[H])C4([H])[H])C3([H])[H])c([H])c([H])c2C1([H])[H]

>  <smiles>  (84) 
[H]c1c([H])c([H])c2c(c1[H])C([H])([H])C([H])([H])C([H])([H])C2([H])N([H])C(=O)C1([H])N(C(=O)C([H])(N([H])C(=O)C([H])(N([H])C([H])([H])[H])C([H])([H])[H])C(C([H])([H])[H])(C([H])([H])[H])C([H])([H])[H])C([H])([H])c2c([H])c(OC([H])([H])C3([H])C([H])([H])C([H])([H])C([H])(C([H])([H])[N+]([H])(C([H])([H])C([H])([H])[H])C([H])([H])C([H])([H])C(=O)N4C([H])([H])C([H])([H])C([H])([H])C([H])(n5nc(-c6c([H])c([H])c(Oc7c([H])c([H])c(F)c([H])c7F)c([H])c6[H])c(C(=O)N([H])[H])c5N([H])[H])C4([H])[H])C3([H])[H])c([H])c([H])c2C1([H])[H]

$$$$
84:0:0
     RDKit          3D

 91 99  0  0  1  0  0  0  0  0999 V2000
  -29.9750  -21.2630   22.4570 C   0  0  0  0  0  2  0  0  0  0  0  0
  -31.6000  -18.3980   20.4720 C   0  0  0  0  0  2  0  0  0  0  0  0
  -31.8320  -17.9080   22.9050 C   0  0  0  0  0  2  0  0  0  0  0  0
  -30.6140  -19.5390   20.8000 C   0  0  0  0  0  2  0  0  0  0  0  0
  -30.8540  -19.0820   23.2080 C   0  0  0  0  0  2  0  0  0  0  0  0
  -31.5550  -17.2670   21.5250 C   0  0  0  0  0  3  0  0  0  0  0  0
  -30.8810  -20.1240   22.1400 N   0  0  2  0  0  4  0  0  0  0  0  0
  -31.8200  -20.4940   22.1240 H   0  0  0  0  0  0  0  0  0  0  0  0
  -29.7410  -15.4540   20.9640 C   0  0  0  0  0  3  0  0  0  0  0  0
  -30.2000  -16.5730   21.5450 C   0  0  0  0  0  3  0  0  0  0  0  0
  -30.4720  -14.5290   20.1000 C   0  0  0  0  0  0  0  0  0  0  0  0
  -30.2770  -12.3510   18.9440 C   0  0  0  0  0  2  0  0  0  0  0  0
  -29.2150  -12.3950   17.8240 C   0  0  0  0  0  2  0  0  0  0  0  0
  -27.7680  -12.2360   18.3350 C   0  0  0  0  0  2  0  0  0  0  0  0
  -27.4850  -13.1010   19.5930 C   0  0  0  0  0  3  0  0  0  0  0  0
  -28.6140  -12.8710   20.6170 C   0  0  0  0  0  2  0  0  0  0  0  0
  -29.8790  -13.3070   19.9880 N   0  0  0  0  0  0  0  0  0  0  0  0
  -31.4880  -14.8260   19.4660 O   0  0  0  0  0  0  0  0  0  0  0  0
  -25.1300  -13.6790   20.4680 C   0  0  0  0  0  0  0  0  0  0  0  0
  -24.1010  -12.8830   20.9010 C   0  0  0  0  0  0  0  0  0  0  0  0
  -24.5810  -11.5390   20.8230 C   0  0  0  0  0  0  0  0  0  0  0  0
  -26.1720  -12.8130   20.1630 N   0  0  0  0  0  0  0  0  0  0  0  0
  -25.8460  -11.5260   20.4310 N   0  0  0  0  0  0  0  0  0  0  0  0
  -23.8950  -10.2630   21.0420 C   0  0  0  0  0  0  0  0  0  0  0  0
  -24.3440   -9.3450   22.0180 C   0  0  0  0  0  3  0  0  0  0  0  0
  -23.6570   -8.1310   22.2260 C   0  0  0  0  0  3  0  0  0  0  0  0
  -22.5070   -7.8280   21.4600 C   0  0  0  0  0  0  0  0  0  0  0  0
  -22.0740   -8.7320   20.4770 C   0  0  0  0  0  3  0  0  0  0  0  0
  -22.7670   -9.9380   20.2610 C   0  0  0  0  0  3  0  0  0  0  0  0
  -21.7920   -6.6610   21.5800 O   0  0  0  0  0  0  0  0  0  0  0  0
  -21.6790   -6.0080   22.7810 C   0  0  0  0  0  0  0  0  0  0  0  0
  -21.1130   -6.6260   23.9160 C   0  0  0  0  0  3  0  0  0  0  0  0
  -20.9300   -5.8870   25.1040 C   0  0  0  0  0  3  0  0  0  0  0  0
  -21.3280   -4.5370   25.1590 C   0  0  0  0  0  0  0  0  0  0  0  0
  -21.9060   -3.9240   24.0340 C   0  0  0  0  0  3  0  0  0  0  0  0
  -22.0700   -4.6560   22.8450 C   0  0  0  0  0  0  0  0  0  0  0  0
  -22.5950   -4.0480   21.7510 F   0  0  0  0  0  0  0  0  0  0  0  0
  -21.1560   -3.8250   26.3000 F   0  0  0  0  0  0  0  0  0  0  0  0
  -22.7170  -13.3280   21.2770 C   0  0  0  0  0  0  0  0  0  0  0  0
  -22.0570  -12.6110   22.1850 N   0  0  0  0  0  0  0  0  0  0  0  0
  -22.2260  -14.3490   20.7970 O   0  0  0  0  0  0  0  0  0  0  0  0
  -22.4450  -11.7690   22.5870 H   0  0  0  0  0  0  0  0  0  0  0  0
  -21.1390  -12.9070   22.4840 H   0  0  0  0  0  0  0  0  0  0  0  0
  -25.2700  -15.0480   20.2890 N   0  0  0  0  0  0  0  0  0  0  0  0
  -24.5090  -15.7130   20.3980 H   0  0  0  0  0  0  0  0  0  0  0  0
  -26.1380  -15.4860   19.9990 H   0  0  0  0  0  0  0  0  0  0  0  0
  -30.2300  -22.5350   21.6060 C   0  0  0  0  0  2  0  0  0  0  0  0
  -28.9230  -23.2950   21.3150 C   0  0  0  0  0  2  0  0  0  0  0  0
  -29.1050  -24.6040   20.5140 C   0  0  0  0  0  2  0  0  0  0  0  0
  -28.0880  -25.6700   20.9590 C   0  0  0  0  0  2  0  0  0  0  0  0
  -28.2410  -26.8600   20.1800 O   0  0  0  0  0  0  0  0  0  0  0  0
  -24.4990  -31.9840   23.3270 C   0  0  0  0  0  0  0  0  0  0  0  0
  -27.1030  -27.6180   20.1600 C   0  0  0  0  0  0  0  0  0  0  0  0
  -23.2730  -30.6030   21.6780 C   0  0  0  0  0  3  0  0  0  0  0  0
  -24.7090  -29.0960   20.2080 C   0  0  0  0  0  0  0  0  0  0  0  0
  -25.7880  -30.9880   21.4410 C   0  0  0  0  0  2  0  0  0  0  0  0
  -25.8710  -29.6270   20.7840 C   0  0  0  0  0  0  0  0  0  0  0  0
  -27.0780  -28.8960   20.7540 C   0  0  0  0  0  3  0  0  0  0  0  0
  -25.9340  -27.1030   19.5620 C   0  0  0  0  0  3  0  0  0  0  0  0
  -24.7340  -27.8350   19.5910 C   0  0  0  0  0  3  0  0  0  0  0  0
  -23.4610  -29.9440   20.2850 C   0  0  0  0  0  2  0  0  0  0  0  0
  -24.5390  -31.2060   22.2070 N   0  0  0  0  0  0  0  0  0  0  0  0
  -23.4270  -32.2410   23.8890 O   0  0  0  0  0  0  0  0  0  0  0  0
  -22.6410  -29.5650   22.6330 C   0  0  0  0  0  0  0  0  0  0  0  0
  -21.3230  -29.3480   22.4930 N   0  0  0  0  0  0  0  0  0  0  0  0
  -23.3330  -28.9580   23.4550 O   0  0  0  0  0  0  0  0  0  0  0  0
  -20.8280  -29.8870   21.7960 H   0  0  0  0  0  0  0  0  0  0  0  0
  -17.9780  -28.0560   22.9400 C   0  0  0  0  0  0  0  0  0  0  0  0
  -20.5230  -28.3920   23.2570 C   0  0  0  0  0  3  0  0  0  0  0  0
  -20.6770  -26.9620   22.6930 C   0  0  0  0  0  2  0  0  0  0  0  0
  -19.6060  -26.6000   21.6620 C   0  0  0  0  0  2  0  0  0  0  0  0
  -18.2070  -26.7100   22.2750 C   0  0  0  0  0  2  0  0  0  0  0  0
  -19.0660  -28.8540   23.3850 C   0  0  0  0  0  0  0  0  0  0  0  0
  -18.8010  -30.1130   23.9630 C   0  0  0  0  0  3  0  0  0  0  0  0
  -17.4800  -30.5790   24.1040 C   0  0  0  0  0  3  0  0  0  0  0  0
  -16.4050  -29.7800   23.6780 C   0  0  0  0  0  3  0  0  0  0  0  0
  -16.6550  -28.5210   23.1020 C   0  0  0  0  0  3  0  0  0  0  0  0
  -25.7950  -32.6080   23.9340 C   0  0  0  0  0  3  0  0  0  0  0  0
  -25.5050  -34.0130   24.2520 N   0  0  0  0  0  0  0  0  0  0  0  0
  -25.8570  -35.0540   23.4870 C   0  0  0  0  0  0  0  0  0  0  0  0
  -26.5380  -34.9360   22.4640 O   0  0  0  0  0  0  0  0  0  0  0  0
  -24.9140  -34.1810   25.0540 H   0  0  0  0  0  0  0  0  0  0  0  0
  -24.1660  -36.8660   23.0750 C   0  0  0  0  0  1  0  0  0  0  0  0
  -25.3780  -36.4510   23.9250 C   0  0  0  0  0  3  0  0  0  0  0  0
  -27.5100  -37.2920   24.8030 C   0  0  0  0  0  1  0  0  0  0  0  0
  -26.4260  -37.4930   23.8460 N   0  0  0  0  0  0  0  0  0  0  0  0
  -26.0270  -38.4130   24.0120 H   0  0  0  0  0  0  0  0  0  0  0  0
  -26.3170  -31.8430   25.2120 C   0  0  1  0  0  0  0  0  0  0  0  0
  -25.2310  -31.6060   26.2850 C   0  0  0  0  0  1  0  0  0  0  0  0
  -26.9000  -30.4630   24.8220 C   0  0  0  0  0  1  0  0  0  0  0  0
  -27.4700  -32.6420   25.8640 C   0  0  0  0  0  1  0  0  0  0  0  0
  2  4  1  0
  2  6  1  0
  3  5  1  0
  4  7  1  0
  6 10  1  0
  6  3  1  0
  7  1  1  0
  7  5  1  0
  7  8  1  6
  9 10  2  0
 11  9  1  0
 12 17  1  0
 13 14  1  0
 13 12  1  0
 15 14  1  0
 15 22  1  0
 15 16  1  0
 17 11  1  0
 17 16  1  0
 18 11  2  0
 19 20  2  0
 20 39  1  0
 21 20  1  0
 21 24  1  0
 22 23  1  0
 22 19  1  0
 23 21  2  0
 24 25  1  0
 25 26  2  0
 27 30  1  0
 27 26  1  0
 28 27  2  0
 29 28  1  0
 29 24  2  0
 30 31  1  0
 31 36  2  0
 31 32  1  0
 32 33  2  0
 33 34  1  0
 34 38  1  0
 35 34  2  0
 36 35  1  0
 37 36  1  0
 39 40  1  0
 40 43  1  0
 40 42  1  0
 41 39  2  0
 44 45  1  0
 44 19  1  0
 46 44  1  0
 47  1  1  0
 48 47  1  0
 49 50  1  0
 49 48  1  0
 51 50  1  0
 52 63  2  0
 53 51  1  0
 53 58  1  0
 54 62  1  0
 54 64  1  0
 55 61  1  0
 55 57  1  0
 56 62  1  0
 57 56  1  0
 58 57  2  0
 59 60  1  0
 59 53  2  0
 60 55  2  0
 61 54  1  0
 62 52  1  0
 64 66  2  0
 65 64  1  0
 67 65  1  0
 68 77  2  0
 68 73  1  0
 69 65  1  0
 69 73  1  0
 70 69  1  0
 71 72  1  0
 71 70  1  0
 72 68  1  0
 73 74  2  0
 74 75  1  0
 76 75  2  0
 77 76  1  0
 78 52  1  0
 78 79  1  0
 78 88  1  0
 79 82  1  0
 80 84  1  0
 80 79  1  0
 81 80  2  0
 84 83  1  0
 86 84  1  0
 86 87  1  0
 86 85  1  0
 88 91  1  1
 88 89  1  0
 90 88  1  0
M  ISO  4   9 100  11 100  50 101  51 101
M  END
>  <TORSDO>  (85) 
F 22

>  <SCORE>  (85) 
-11.634

>  <name>  (85) 
84

>  <ligand_id>  (85) 
84

>  <original_smiles>  (85) 
[H]C(C(=O)N1C([H])([H])C([H])([H])C([H])([H])C([H])(n2nc(-c3c([H])c([H])c(Oc4c([H])c([H])c(F)c([H])c4F)c([H])c3[H])c(C(=O)N([H])[H])c2N([H])[H])C1([H])[H])=C([H])C1([H])C([H])([H])C([H])([H])[N+]([H])(C([H])([H])C([H])([H])C([H])([H])C([H])([H])C([H])([H])Oc2c([H])c([H])c3c(c2[H])C([H])([H])N(C(=O)C([H])(N([H])C(=O)C([H])(N([H])C([H])([H])[H])C([H])([H])[H])C(C([H])([H])[H])(C([H])([H])[H])C([H])([H])[H])C([H])(C(=O)N([H])C2([H])c4c([H])c([H])c([H])c([H])c4C([H])([H])C([H])([H])C2([H])[H])C3([H])[H])C([H])([H])C1([H])[H]

>  <smiles>  (85) 
[H]C(C(=O)N1C([H])([H])C([H])([H])C([H])([H])C([H])(n2nc(-c3c([H])c([H])c(Oc4c([H])c([H])c(F)c([H])c4F)c([H])c3[H])c(C(=O)N([H])[H])c2N([H])[H])C1([H])[H])=C([H])C1([H])C([H])([H])C([H])([H])[N+]([H])(C([H])([H])C([H])([H])C([H])([H])C([H])([H])C([H])([H])Oc2c([H])c([H])c3c(c2[H])C([H])([H])N(C(=O)C([H])(N([H])C(=O)C([H])(N([H])C([H])([H])[H])C([H])([H])[H])C(C([H])([H])[H])(C([H])([H])[H])C([H])([H])[H])C([H])(C(=O)N([H])C2([H])c4c([H])c([H])c([H])c([H])c4C([H])([H])C([H])([H])C2([H])[H])C3([H])[H])C([H])([H])C1([H])[H]

$$$$
85:0:0
     RDKit          3D

 95104  0  0  1  0  0  0  0  0999 V2000
  -31.1310  -19.5330   20.7420 C   0  0  0  0  0  0  0  0  0  0  0  0
  -30.2100  -21.0310   23.4950 C   0  0  0  0  0  2  0  0  0  0  0  0
  -30.2410  -22.4380   24.1100 C   0  0  0  0  0  2  0  0  0  0  0  0
  -30.7710  -23.1640   21.0810 C   0  0  0  0  0  2  0  0  0  0  0  0
  -31.2360  -21.9420   20.3020 C   0  0  0  0  0  2  0  0  0  0  0  0
  -29.5150  -22.6990   21.8240 C   0  0  0  0  0  3  0  0  0  0  0  0
  -29.7370  -21.1950   22.0330 C   0  0  0  0  0  3  0  0  0  0  0  0
  -29.3050  -23.2830   23.2350 C   0  0  0  0  0  3  0  0  0  0  0  0
  -30.7330  -20.7870   21.0390 N   0  0  0  0  0  0  0  0  0  0  0  0
  -32.0140  -19.3320   19.9000 O   0  0  0  0  0  0  0  0  0  0  0  0
  -29.5480  -24.7430   23.3430 N   0  0  0  0  0  4  0  0  0  0  0  0
  -30.5230  -24.9270   23.1710 H   0  0  0  0  0  0  0  0  0  0  0  0
  -29.3630  -25.0180   24.2960 H   0  0  0  0  0  0  0  0  0  0  0  0
  -28.7170  -25.5930   22.4480 C   0  0  0  0  0  2  0  0  0  0  0  0
  -29.5620  -26.6180   21.6590 C   0  0  0  0  0  2  0  0  0  0  0  0
  -29.0050  -26.8420   20.3620 O   0  0  0  0  0  0  0  0  0  0  0  0
  -24.8170  -31.7930   23.2930 C   0  0  0  0  0  0  0  0  0  0  0  0
  -27.8210  -27.5330   20.3360 C   0  0  0  0  0  0  0  0  0  0  0  0
  -23.7540  -30.3390   21.5900 C   0  0  0  0  0  3  0  0  0  0  0  0
  -25.3490  -28.8850   20.2290 C   0  0  0  0  0  0  0  0  0  0  0  0
  -26.2590  -30.8350   21.5080 C   0  0  0  0  0  2  0  0  0  0  0  0
  -26.4420  -29.4730   20.8780 C   0  0  0  0  0  0  0  0  0  0  0  0
  -27.6810  -28.8030   20.9350 C   0  0  0  0  0  3  0  0  0  0  0  0
  -26.7210  -26.9560   19.6700 C   0  0  0  0  0  3  0  0  0  0  0  0
  -25.4800  -27.6230   19.6230 C   0  0  0  0  0  3  0  0  0  0  0  0
  -24.0590  -29.6740   20.2190 C   0  0  0  0  0  2  0  0  0  0  0  0
  -24.9570  -31.0050   22.1890 N   0  0  0  0  0  0  0  0  0  0  0  0
  -23.7010  -32.0090   23.7860 O   0  0  0  0  0  0  0  0  0  0  0  0
  -23.1160  -29.2830   22.5200 C   0  0  0  0  0  0  0  0  0  0  0  0
  -21.8070  -29.0480   22.3430 N   0  0  0  0  0  0  0  0  0  0  0  0
  -23.7980  -28.6800   23.3530 O   0  0  0  0  0  0  0  0  0  0  0  0
  -21.3190  -29.5910   21.6440 H   0  0  0  0  0  0  0  0  0  0  0  0
  -18.4680  -27.7170   22.7080 C   0  0  0  0  0  0  0  0  0  0  0  0
  -21.0010  -28.0720   23.0760 C   0  0  0  0  0  3  0  0  0  0  0  0
  -21.1820  -26.6510   22.4920 C   0  0  0  0  0  2  0  0  0  0  0  0
  -20.1300  -26.2970   21.4340 C   0  0  0  0  0  2  0  0  0  0  0  0
  -18.7210  -26.3820   22.0270 C   0  0  0  0  0  2  0  0  0  0  0  0
  -19.5390  -28.5160   23.1850 C   0  0  0  0  0  0  0  0  0  0  0  0
  -19.2510  -29.7650   23.7790 C   0  0  0  0  0  3  0  0  0  0  0  0
  -17.9210  -30.2140   23.8980 C   0  0  0  0  0  3  0  0  0  0  0  0
  -16.8650  -29.4130   23.4330 C   0  0  0  0  0  3  0  0  0  0  0  0
  -17.1390  -28.1640   22.8460 C   0  0  0  0  0  3  0  0  0  0  0  0
  -26.0440  -32.4800   23.9720 C   0  0  0  0  0  3  0  0  0  0  0  0
  -25.6520  -33.8570   24.2970 N   0  0  0  0  0  0  0  0  0  0  0  0
  -25.9590  -34.9290   23.5540 C   0  0  0  0  0  0  0  0  0  0  0  0
  -26.6750  -34.8670   22.5500 O   0  0  0  0  0  0  0  0  0  0  0  0
  -25.0160  -33.9770   25.0710 H   0  0  0  0  0  0  0  0  0  0  0  0
  -24.1550  -36.6300   23.1380 C   0  0  0  0  0  1  0  0  0  0  0  0
  -25.3830  -36.2880   23.9960 C   0  0  0  0  0  3  0  0  0  0  0  0
  -27.4360  -37.2750   24.9120 C   0  0  0  0  0  1  0  0  0  0  0  0
  -26.3630  -37.3930   23.9260 N   0  0  0  0  0  0  0  0  0  0  0  0
  -25.9070  -38.2910   24.0620 H   0  0  0  0  0  0  0  0  0  0  0  0
  -26.5470  -31.7200   25.2610 C   0  0  1  0  0  0  0  0  0  0  0  0
  -25.4250  -31.4170   26.2810 C   0  0  0  0  0  1  0  0  0  0  0  0
  -27.2130  -30.3780   24.8800 C   0  0  0  0  0  1  0  0  0  0  0  0
  -27.6300  -32.5630   25.9750 C   0  0  0  0  0  1  0  0  0  0  0  0
  -30.4610  -18.3330   21.4390 C   0  0  0  0  0  2  0  0  0  0  0  0
  -30.9440  -17.0080   20.8210 C   0  0  0  0  0  2  0  0  0  0  0  0
  -30.3140  -15.7030   21.3510 C   0  0  0  0  0  2  0  0  0  0  0  0
  -30.9480  -14.4860   20.6460 C   0  0  0  0  0  0  0  0  0  0  0  0
  -30.6290  -12.3440   19.4800 C   0  0  0  0  0  2  0  0  0  0  0  0
  -29.7330  -12.5780   18.2480 C   0  0  0  0  0  2  0  0  0  0  0  0
  -28.2440  -12.4700   18.6320 C   0  0  0  0  0  2  0  0  0  0  0  0
  -27.8880  -13.3170   19.8830 C   0  0  0  0  0  3  0  0  0  0  0  0
  -28.9030  -13.0800   21.0240 C   0  0  0  0  0  2  0  0  0  0  0  0
  -30.2490  -13.3350   20.4960 N   0  0  0  0  0  0  0  0  0  0  0  0
  -32.0650  -14.6350   20.1390 O   0  0  0  0  0  0  0  0  0  0  0  0
  -25.4770  -13.9610   20.5180 C   0  0  0  0  0  0  0  0  0  0  0  0
  -24.3880  -13.2060   20.8570 C   0  0  0  0  0  0  0  0  0  0  0  0
  -24.8300  -11.8480   20.8450 C   0  0  0  0  0  0  0  0  0  0  0  0
  -26.5160  -13.0640   20.3220 N   0  0  0  0  0  0  0  0  0  0  0  0
  -26.1280  -11.7880   20.5730 N   0  0  0  0  0  0  0  0  0  0  0  0
  -24.0810  -10.5960   21.0200 C   0  0  0  0  0  0  0  0  0  0  0  0
  -24.4830   -9.6210   21.9610 C   0  0  0  0  0  3  0  0  0  0  0  0
  -23.7370   -8.4340   22.1250 C   0  0  0  0  0  3  0  0  0  0  0  0
  -22.5760   -8.2140   21.3470 C   0  0  0  0  0  0  0  0  0  0  0  0
  -22.1930   -9.1770   20.3960 C   0  0  0  0  0  3  0  0  0  0  0  0
  -22.9400  -10.3550   20.2320 C   0  0  0  0  0  3  0  0  0  0  0  0
  -21.8040   -7.0790   21.4190 O   0  0  0  0  0  0  0  0  0  0  0  0
  -21.7370   -6.3250   22.5630 C   0  0  0  0  0  0  0  0  0  0  0  0
  -21.3100   -6.8740   23.7910 C   0  0  0  0  0  3  0  0  0  0  0  0
  -21.1900   -6.0470   24.9270 C   0  0  0  0  0  3  0  0  0  0  0  0
  -21.4850   -4.6730   24.8350 C   0  0  0  0  0  0  0  0  0  0  0  0
  -21.9060   -4.1260   23.6100 C   0  0  0  0  0  3  0  0  0  0  0  0
  -22.0280   -4.9490   22.4770 C   0  0  0  0  0  0  0  0  0  0  0  0
  -22.4120   -4.4110   21.2940 F   0  0  0  0  0  0  0  0  0  0  0  0
  -21.3620   -3.8780   25.9220 F   0  0  0  0  0  0  0  0  0  0  0  0
  -22.9900  -13.7030   21.0900 C   0  0  0  0  0  0  0  0  0  0  0  0
  -22.2330  -13.0270   21.9460 N   0  0  0  0  0  0  0  0  0  0  0  0
  -22.5780  -14.7280   20.5480 O   0  0  0  0  0  0  0  0  0  0  0  0
  -22.5780  -12.1970   22.4070 H   0  0  0  0  0  0  0  0  0  0  0  0
  -21.2940  -13.3410   22.1440 H   0  0  0  0  0  0  0  0  0  0  0  0
  -25.6680  -15.3280   20.3380 N   0  0  0  0  0  0  0  0  0  0  0  0
  -24.9100  -15.9960   20.4220 H   0  0  0  0  0  0  0  0  0  0  0  0
  -26.5400  -15.7520   20.0500 H   0  0  0  0  0  0  0  0  0  0  0  0
  1  9  1  0
  1 57  1  0
  2  3  1  0
  5  9  1  0
  5  4  1  0
  6  4  1  0
  6  7  1  0
  6  8  1  0
  7  2  1  0
  8 11  1  0
  8  3  1  0
  9  7  1  0
 10  1  2  0
 11 13  1  0
 12 11  1  0
 14 11  1  0
 15 14  1  0
 16 15  1  0
 17 28  2  0
 18 16  1  0
 18 23  1  0
 19 27  1  0
 19 29  1  0
 20 22  1  0
 21 27  1  0
 22 23  2  0
 22 21  1  0
 24 18  2  0
 25 24  1  0
 25 20  2  0
 26 20  1  0
 26 19  1  0
 27 17  1  0
 29 31  2  0
 30 29  1  0
 32 30  1  0
 33 42  2  0
 33 38  1  0
 34 30  1  0
 34 38  1  0
 35 34  1  0
 36 37  1  0
 36 35  1  0
 37 33  1  0
 38 39  2  0
 39 40  1  0
 41 40  2  0
 42 41  1  0
 43 17  1  0
 43 44  1  0
 43 53  1  0
 44 47  1  0
 45 49  1  0
 45 44  1  0
 46 45  2  0
 49 48  1  0
 51 49  1  0
 51 52  1  0
 51 50  1  0
 53 56  1  1
 53 54  1  0
 55 53  1  0
 58 59  1  0
 58 57  1  0
 60 59  1  0
 61 66  1  0
 62 63  1  0
 62 61  1  0
 64 63  1  0
 64 71  1  0
 64 65  1  0
 66 60  1  0
 66 65  1  0
 67 60  2  0
 68 69  2  0
 69 88  1  0
 70 69  1  0
 70 73  1  0
 71 68  1  0
 71 72  1  0
 72 70  2  0
 73 74  1  0
 74 75  2  0
 76 79  1  0
 76 75  1  0
 77 76  2  0
 78 77  1  0
 78 73  2  0
 79 80  1  0
 80 81  1  0
 81 82  2  0
 83 82  1  0
 83 87  1  0
 84 83  2  0
 85 80  2  0
 85 84  1  0
 86 85  1  0
 88 89  1  0
 89 92  1  0
 89 91  1  0
 90 88  2  0
 93 94  1  0
 93 68  1  0
 95 93  1  0
M  ISO  4  15 101  16 101  59 100  60 100
M  END
>  <TORSDO>  (86) 
F 22

>  <SCORE>  (86) 
-13.168

>  <name>  (86) 
85

>  <ligand_id>  (86) 
85

>  <original_smiles>  (86) 
[H]c1c([H])c([H])c2c(c1[H])C([H])([H])C([H])([H])C([H])([H])C2([H])N([H])C(=O)C1([H])N(C(=O)C([H])(N([H])C(=O)C([H])(N([H])C([H])([H])[H])C([H])([H])[H])C(C([H])([H])[H])(C([H])([H])[H])C([H])([H])[H])C([H])([H])c2c([H])c(OC([H])([H])C([H])([H])[N+]([H])([H])C3([H])C([H])([H])C([H])([H])C4([H])N(C(=O)C([H])([H])C([H])([H])C([H])([H])C(=O)N5C([H])([H])C([H])([H])C([H])([H])C([H])(n6nc(-c7c([H])c([H])c(Oc8c([H])c([H])c(F)c([H])c8F)c([H])c7[H])c(C(=O)N([H])[H])c6N([H])[H])C5([H])[H])C([H])([H])C([H])([H])C43[H])c([H])c([H])c2C1([H])[H]

>  <smiles>  (86) 
[H]c1c([H])c([H])c2c(c1[H])C([H])([H])C([H])([H])C([H])([H])C2([H])N([H])C(=O)C1([H])N(C(=O)C([H])(N([H])C(=O)C([H])(N([H])C([H])([H])[H])C([H])([H])[H])C(C([H])([H])[H])(C([H])([H])[H])C([H])([H])[H])C([H])([H])c2c([H])c(OC([H])([H])C([H])([H])[N+]([H])([H])C3([H])C([H])([H])C([H])([H])C4([H])N(C(=O)C([H])([H])C([H])([H])C([H])([H])C(=O)N5C([H])([H])C([H])([H])C([H])([H])C([H])(n6nc(-c7c([H])c([H])c(Oc8c([H])c([H])c(F)c([H])c8F)c([H])c7[H])c(C(=O)N([H])[H])c6N([H])[H])C5([H])[H])C([H])([H])C([H])([H])C43[H])c([H])c([H])c2C1([H])[H]

$$$$
86:0:0
     RDKit          3D

 95104  0  0  1  0  0  0  0  0999 V2000
  -26.4420  -21.1740   18.3170 C   0  0  0  0  0  2  0  0  0  0  0  0
  -27.0900  -19.9710   19.0310 C   0  0  0  0  0  2  0  0  0  0  0  0
  -29.1990  -21.2680   19.1910 C   0  0  0  0  0  2  0  0  0  0  0  0
  -27.6030  -21.7330   17.4540 C   0  0  0  0  0  3  0  0  0  0  0  0
  -28.6280  -22.4470   18.3610 C   0  0  0  0  0  3  0  0  0  0  0  0
  -28.5490  -20.0180   18.5220 C   0  0  2  0  0  0  0  0  0  0  0  0
  -28.3720  -20.4580   17.0400 C   0  0  2  0  0  0  0  0  0  0  0  0
  -29.7040  -20.6980   16.2740 C   0  0  0  0  0  1  0  0  0  0  0  0
  -27.5460  -19.5070   16.1290 C   0  0  0  0  0  1  0  0  0  0  0  0
  -28.0780  -23.5820   19.1410 N   0  0  0  0  0  4  0  0  0  0  0  0
  -27.5150  -23.2420   19.9040 H   0  0  0  0  0  0  0  0  0  0  0  0
  -27.4640  -24.0860   18.5200 H   0  0  0  0  0  0  0  0  0  0  0  0
  -29.0930  -24.5440   19.6440 C   0  0  0  0  0  2  0  0  0  0  0  0
  -28.7900  -25.9980   19.2240 C   0  0  0  0  0  2  0  0  0  0  0  0
  -28.3870  -26.7800   20.3480 O   0  0  0  0  0  0  0  0  0  0  0  0
  -24.5210  -31.9470   23.2920 C   0  0  0  0  0  0  0  0  0  0  0  0
  -27.1980  -27.4690   20.2980 C   0  0  0  0  0  0  0  0  0  0  0  0
  -23.3300  -30.5260   21.6530 C   0  0  0  0  0  3  0  0  0  0  0  0
  -24.7960  -28.9590   20.2720 C   0  0  0  0  0  0  0  0  0  0  0  0
  -25.8560  -30.8740   21.4850 C   0  0  0  0  0  2  0  0  0  0  0  0
  -25.9430  -29.4920   20.8720 C   0  0  0  0  0  0  0  0  0  0  0  0
  -27.1410  -28.7470   20.8940 C   0  0  0  0  0  3  0  0  0  0  0  0
  -26.0260  -26.9360   19.7110 C   0  0  0  0  0  3  0  0  0  0  0  0
  -24.8290  -27.6770   19.6970 C   0  0  0  0  0  3  0  0  0  0  0  0
  -23.5540  -29.8210   20.2870 C   0  0  0  0  0  2  0  0  0  0  0  0
  -24.5850  -31.1310   22.2020 N   0  0  0  0  0  0  0  0  0  0  0  0
  -23.4330  -32.2320   23.8130 O   0  0  0  0  0  0  0  0  0  0  0  0
  -22.6610  -29.5230   22.6200 C   0  0  0  0  0  0  0  0  0  0  0  0
  -21.3360  -29.3520   22.4820 N   0  0  0  0  0  0  0  0  0  0  0  0
  -23.3300  -28.9000   23.4480 O   0  0  0  0  0  0  0  0  0  0  0  0
  -20.8570  -29.9080   21.7870 H   0  0  0  0  0  0  0  0  0  0  0  0
  -17.9420  -28.2200   22.9770 C   0  0  0  0  0  0  0  0  0  0  0  0
  -20.5020  -28.4320   23.2540 C   0  0  0  0  0  3  0  0  0  0  0  0
  -20.5800  -26.9970   22.6840 C   0  0  0  0  0  2  0  0  0  0  0  0
  -19.4750  -26.6900   21.6670 C   0  0  0  0  0  2  0  0  0  0  0  0
  -18.0940  -26.8640   22.3070 C   0  0  0  0  0  2  0  0  0  0  0  0
  -19.0730  -28.9630   23.4070 C   0  0  0  0  0  0  0  0  0  0  0  0
  -18.8770  -30.2340   23.9900 C   0  0  0  0  0  3  0  0  0  0  0  0
  -17.5820  -30.7610   24.1490 C   0  0  0  0  0  3  0  0  0  0  0  0
  -16.4640  -30.0150   23.7360 C   0  0  0  0  0  3  0  0  0  0  0  0
  -16.6450  -28.7460   23.1570 C   0  0  0  0  0  3  0  0  0  0  0  0
  -25.8030  -32.5790   23.9200 C   0  0  0  0  0  3  0  0  0  0  0  0
  -25.5030  -33.9850   24.2160 N   0  0  0  0  0  0  0  0  0  0  0  0
  -25.8680  -35.0190   23.4460 C   0  0  0  0  0  0  0  0  0  0  0  0
  -26.5630  -34.8880   22.4360 O   0  0  0  0  0  0  0  0  0  0  0  0
  -24.8890  -34.1630   24.9980 H   0  0  0  0  0  0  0  0  0  0  0  0
  -24.1790  -36.8280   22.9990 C   0  0  0  0  0  1  0  0  0  0  0  0
  -25.3820  -36.4210   23.8630 C   0  0  0  0  0  3  0  0  0  0  0  0
  -27.4980  -37.2870   24.7610 C   0  0  0  0  0  1  0  0  0  0  0  0
  -26.4330  -37.4570   23.7750 N   0  0  0  0  0  0  0  0  0  0  0  0
  -26.0350  -38.3840   23.8980 H   0  0  0  0  0  0  0  0  0  0  0  0
  -26.2970  -31.8270   25.2160 C   0  0  1  0  0  0  0  0  0  0  0  0
  -25.1880  -31.6110   26.2710 C   0  0  0  0  0  1  0  0  0  0  0  0
  -26.8800  -30.4410   24.8520 C   0  0  0  0  0  1  0  0  0  0  0  0
  -27.4420  -32.6260   25.8810 C   0  0  0  0  0  1  0  0  0  0  0  0
  -29.3340  -18.6980   18.6920 C   0  0  0  0  0  2  0  0  0  0  0  0
  -29.3550  -18.0610   20.0960 C   0  0  0  0  0  2  0  0  0  0  0  0
  -30.2150  -16.7840   20.0660 C   0  0  0  0  0  2  0  0  0  0  0  0
  -30.1620  -15.8700   21.3120 C   0  0  0  0  0  2  0  0  0  0  0  0
  -30.9360  -14.5710   21.0120 C   0  0  0  0  0  0  0  0  0  0  0  0
  -30.7240  -12.4030   19.8810 C   0  0  0  0  0  2  0  0  0  0  0  0
  -29.8820  -12.6300   18.6080 C   0  0  0  0  0  2  0  0  0  0  0  0
  -28.3770  -12.5060   18.9180 C   0  0  0  0  0  2  0  0  0  0  0  0
  -27.9480  -13.3440   20.1500 C   0  0  0  0  0  3  0  0  0  0  0  0
  -28.9120  -13.1100   21.3340 C   0  0  0  0  0  2  0  0  0  0  0  0
  -30.2800  -13.3880   20.8770 N   0  0  0  0  0  0  0  0  0  0  0  0
  -32.1220  -14.7010   20.6990 O   0  0  0  0  0  0  0  0  0  0  0  0
  -25.4920  -13.9540   20.6350 C   0  0  0  0  0  0  0  0  0  0  0  0
  -24.4000  -13.1830   20.9320 C   0  0  0  0  0  0  0  0  0  0  0  0
  -24.8700  -11.8340   20.9780 C   0  0  0  0  0  0  0  0  0  0  0  0
  -26.5590  -13.0750   20.5200 N   0  0  0  0  0  0  0  0  0  0  0  0
  -26.1820  -11.7970   20.7810 N   0  0  0  0  0  0  0  0  0  0  0  0
  -24.1390  -10.5720   21.1430 C   0  0  0  0  0  0  0  0  0  0  0  0
  -24.5190   -9.6170   22.1120 C   0  0  0  0  0  3  0  0  0  0  0  0
  -23.7870   -8.4190   22.2620 C   0  0  0  0  0  3  0  0  0  0  0  0
  -22.6620   -8.1680   21.4400 C   0  0  0  0  0  0  0  0  0  0  0  0
  -22.3030   -9.1110   20.4610 C   0  0  0  0  0  3  0  0  0  0  0  0
  -23.0350  -10.3010   20.3100 C   0  0  0  0  0  3  0  0  0  0  0  0
  -21.9060   -7.0210   21.4960 O   0  0  0  0  0  0  0  0  0  0  0  0
  -21.8110   -6.2770   22.6450 C   0  0  0  0  0  0  0  0  0  0  0  0
  -21.3280   -6.8310   23.8510 C   0  0  0  0  0  3  0  0  0  0  0  0
  -21.1820   -6.0150   24.9910 C   0  0  0  0  0  3  0  0  0  0  0  0
  -21.5080   -4.6470   24.9250 C   0  0  0  0  0  0  0  0  0  0  0  0
  -21.9820   -4.0920   23.7230 C   0  0  0  0  0  3  0  0  0  0  0  0
  -22.1310   -4.9070   22.5860 C   0  0  0  0  0  0  0  0  0  0  0  0
  -22.5710   -4.3630   21.4250 F   0  0  0  0  0  0  0  0  0  0  0  0
  -21.3600   -3.8620   26.0170 F   0  0  0  0  0  0  0  0  0  0  0  0
  -22.9830  -13.6560   21.0730 C   0  0  0  0  0  0  0  0  0  0  0  0
  -22.1920  -12.9780   21.8980 N   0  0  0  0  0  0  0  0  0  0  0  0
  -22.5820  -14.6600   20.4870 O   0  0  0  0  0  0  0  0  0  0  0  0
  -22.5290  -12.1650   22.3920 H   0  0  0  0  0  0  0  0  0  0  0  0
  -21.2390  -13.2760   22.0420 H   0  0  0  0  0  0  0  0  0  0  0  0
  -25.6660  -15.3210   20.4370 N   0  0  0  0  0  0  0  0  0  0  0  0
  -24.8890  -15.9730   20.4590 H   0  0  0  0  0  0  0  0  0  0  0  0
  -26.5410  -15.7560   20.1790 H   0  0  0  0  0  0  0  0  0  0  0  0
  1  2  1  0
  4  1  1  0
  4  5  1  0
  5 10  1  0
  5  3  1  0
  6 56  1  6
  6  2  1  0
  6  3  1  0
  7  4  1  0
  7  6  1  0
  7  8  1  6
  9  7  1  0
 10 13  1  0
 10 11  1  0
 12 10  1  0
 14 13  1  0
 14 15  1  0
 16 27  2  0
 17 15  1  0
 17 22  1  0
 18 26  1  0
 18 28  1  0
 19 25  1  0
 19 21  1  0
 20 26  1  0
 21 22  2  0
 21 20  1  0
 23 17  2  0
 24 23  1  0
 24 19  2  0
 25 18  1  0
 26 16  1  0
 28 30  2  0
 29 28  1  0
 31 29  1  0
 32 41  2  0
 32 37  1  0
 33 29  1  0
 33 37  1  0
 34 33  1  0
 35 36  1  0
 35 34  1  0
 36 32  1  0
 37 38  2  0
 38 39  1  0
 40 39  2  0
 41 40  1  0
 42 16  1  0
 42 43  1  0
 42 52  1  0
 43 46  1  0
 44 48  1  0
 44 43  1  0
 45 44  2  0
 48 47  1  0
 50 48  1  0
 50 51  1  0
 50 49  1  0
 52 55  1  1
 52 53  1  0
 54 52  1  0
 56 57  1  0
 58 57  1  0
 58 59  1  0
 60 59  1  0
 61 66  1  0
 62 63  1  0
 62 61  1  0
 64 63  1  0
 64 71  1  0
 64 65  1  0
 66 60  1  0
 66 65  1  0
 67 60  2  0
 68 69  2  0
 69 70  1  0
 69 88  1  0
 70 73  1  0
 71 68  1  0
 71 72  1  0
 72 70  2  0
 73 74  1  0
 74 75  2  0
 76 79  1  0
 76 75  1  0
 77 76  2  0
 78 77  1  0
 78 73  2  0
 79 80  1  0
 80 81  1  0
 81 82  2  0
 83 82  1  0
 83 87  1  0
 84 83  2  0
 85 80  2  0
 85 84  1  0
 86 85  1  0
 88 89  1  0
 89 92  1  0
 89 91  1  0
 90 88  2  0
 93 94  1  0
 93 68  1  0
 95 93  1  0
M  ISO  4  14 101  15 101  59 100  60 100
M  END
>  <TORSDO>  (87) 
F 23

>  <SCORE>  (87) 
-12.414

>  <name>  (87) 
86

>  <ligand_id>  (87) 
86

>  <original_smiles>  (87) 
[H]c1c([H])c([H])c2c(c1[H])C([H])([H])C([H])([H])C([H])([H])C2([H])N([H])C(=O)C1([H])N(C(=O)C([H])(N([H])C(=O)C([H])(N([H])C([H])([H])[H])C([H])([H])[H])C(C([H])([H])[H])(C([H])([H])[H])C([H])([H])[H])C([H])([H])c2c([H])c(OC([H])([H])C([H])([H])[N+]([H])([H])C3([H])C([H])([H])C4(C([H])([H])C([H])([H])C([H])([H])C([H])([H])C(=O)N5C([H])([H])C([H])([H])C([H])([H])C([H])(n6nc(-c7c([H])c([H])c(Oc8c([H])c([H])c(F)c([H])c8F)c([H])c7[H])c(C(=O)N([H])[H])c6N([H])[H])C5([H])[H])C([H])([H])C([H])([H])C3([H])C4(C([H])([H])[H])C([H])([H])[H])c([H])c([H])c2C1([H])[H]

>  <smiles>  (87) 
[H]c1c([H])c([H])c2c(c1[H])C([H])([H])C([H])([H])C([H])([H])C2([H])N([H])C(=O)C1([H])N(C(=O)C([H])(N([H])C(=O)C([H])(N([H])C([H])([H])[H])C([H])([H])[H])C(C([H])([H])[H])(C([H])([H])[H])C([H])([H])[H])C([H])([H])c2c([H])c(OC([H])([H])C([H])([H])[N+]([H])([H])C3([H])C([H])([H])C4(C([H])([H])C([H])([H])C([H])([H])C([H])([H])C(=O)N5C([H])([H])C([H])([H])C([H])([H])C([H])(n6nc(-c7c([H])c([H])c(Oc8c([H])c([H])c(F)c([H])c8F)c([H])c7[H])c(C(=O)N([H])[H])c6N([H])[H])C5([H])[H])C([H])([H])C([H])([H])C3([H])C4(C([H])([H])[H])C([H])([H])[H])c([H])c([H])c2C1([H])[H]

$$$$
87:0:0
     RDKit          3D

 84 93  0  0  1  0  0  0  0  0999 V2000
  -28.8880  -22.7630   20.6160 C   0  0  0  0  0  3  0  0  0  0  0  0
  -30.2450  -19.9480   20.5220 C   0  0  0  0  0  3  0  0  0  0  0  0
  -28.3150  -19.6380   20.3230 C   0  0  0  0  0  3  0  0  0  0  0  0
  -29.5280  -18.5330   20.0850 C   0  0  0  0  0  3  0  0  0  0  0  0
  -29.1060  -21.0530   20.0410 C   0  0  0  0  0  3  0  0  0  0  0  0
  -29.6330  -16.8240   20.6940 C   0  0  0  0  0  2  0  0  0  0  0  0
  -30.4220  -15.3050   20.2710 C   0  0  0  0  0  0  0  0  0  0  0  0
  -30.4170  -12.8530   19.3830 C   0  0  0  0  0  2  0  0  0  0  0  0
  -29.4950  -12.6830   18.1470 C   0  0  0  0  0  2  0  0  0  0  0  0
  -28.0410  -12.4180   18.5770 C   0  0  0  0  0  2  0  0  0  0  0  0
  -27.5990  -13.3670   19.7180 C   0  0  0  0  0  3  0  0  0  0  0  0
  -28.6460  -13.4800   20.8470 C   0  0  0  0  0  2  0  0  0  0  0  0
  -29.8910  -13.9800   20.2410 N   0  0  0  0  0  0  0  0  0  0  0  0
  -31.6140  -15.3230   19.9300 O   0  0  0  0  0  0  0  0  0  0  0  0
  -25.2260  -13.9290   20.4630 C   0  0  0  0  0  0  0  0  0  0  0  0
  -24.1620  -13.1540   20.8320 C   0  0  0  0  0  0  0  0  0  0  0  0
  -24.6280  -11.8040   20.8080 C   0  0  0  0  0  0  0  0  0  0  0  0
  -26.2680  -13.0530   20.2230 N   0  0  0  0  0  0  0  0  0  0  0  0
  -25.9200  -11.7680   20.4980 N   0  0  0  0  0  0  0  0  0  0  0  0
  -23.8980  -10.5430   21.0010 C   0  0  0  0  0  0  0  0  0  0  0  0
  -24.3280   -9.5740   21.9360 C   0  0  0  0  0  3  0  0  0  0  0  0
  -23.5970   -8.3810   22.1180 C   0  0  0  0  0  3  0  0  0  0  0  0
  -22.4200   -8.1470   21.3660 C   0  0  0  0  0  0  0  0  0  0  0  0
  -22.0090   -9.1030   20.4210 C   0  0  0  0  0  3  0  0  0  0  0  0
  -22.7420  -10.2880   20.2370 C   0  0  0  0  0  3  0  0  0  0  0  0
  -21.6610   -7.0050   21.4580 O   0  0  0  0  0  0  0  0  0  0  0  0
  -21.6130   -6.2620   22.6110 C   0  0  0  0  0  0  0  0  0  0  0  0
  -21.1990   -6.8200   23.8400 C   0  0  0  0  0  3  0  0  0  0  0  0
  -21.0980   -6.0040   24.9840 C   0  0  0  0  0  3  0  0  0  0  0  0
  -21.4010   -4.6320   24.9000 C   0  0  0  0  0  0  0  0  0  0  0  0
  -21.8090   -4.0740   23.6760 C   0  0  0  0  0  3  0  0  0  0  0  0
  -21.9110   -4.8870   22.5340 C   0  0  0  0  0  0  0  0  0  0  0  0
  -22.2830   -4.3400   21.3520 F   0  0  0  0  0  0  0  0  0  0  0  0
  -21.2980   -3.8460   25.9990 F   0  0  0  0  0  0  0  0  0  0  0  0
  -22.7640  -13.6340   21.0950 C   0  0  0  0  0  0  0  0  0  0  0  0
  -22.0330  -12.9440   21.9610 N   0  0  0  0  0  0  0  0  0  0  0  0
  -22.3310  -14.6570   20.5660 O   0  0  0  0  0  0  0  0  0  0  0  0
  -22.3970  -12.1180   22.4120 H   0  0  0  0  0  0  0  0  0  0  0  0
  -21.0940  -13.2460   22.1810 H   0  0  0  0  0  0  0  0  0  0  0  0
  -25.3890  -15.3000   20.2830 N   0  0  0  0  0  0  0  0  0  0  0  0
  -24.6240  -15.9550   20.3940 H   0  0  0  0  0  0  0  0  0  0  0  0
  -26.2400  -15.7380   19.9550 H   0  0  0  0  0  0  0  0  0  0  0  0
  -28.0860  -24.2580   19.9950 C   0  0  0  0  0  3  0  0  0  0  0  0
  -28.2140  -25.8750   20.3270 O   0  0  0  0  0  0  0  0  0  0  0  0
  -24.6360  -31.8540   23.2080 C   0  0  0  0  0  0  0  0  0  0  0  0
  -27.2000  -26.9640   20.2200 C   0  0  0  0  0  0  0  0  0  0  0  0
  -23.4450  -30.4500   21.5720 C   0  0  0  0  0  3  0  0  0  0  0  0
  -24.8970  -28.8390   20.1580 C   0  0  0  0  0  0  0  0  0  0  0  0
  -26.0100  -30.6620   21.4300 C   0  0  0  0  0  2  0  0  0  0  0  0
  -26.0820  -29.2490   20.7810 C   0  0  0  0  0  0  0  0  0  0  0  0
  -27.2250  -28.3320   20.7890 C   0  0  0  0  0  3  0  0  0  0  0  0
  -25.9880  -26.7070   19.5400 C   0  0  0  0  0  3  0  0  0  0  0  0
  -24.8760  -27.5890   19.5160 C   0  0  0  0  0  3  0  0  0  0  0  0
  -23.6770  -29.7590   20.2000 C   0  0  0  0  0  2  0  0  0  0  0  0
  -24.7180  -31.0160   22.1230 N   0  0  0  0  0  0  0  0  0  0  0  0
  -23.5460  -32.1460   23.7250 O   0  0  0  0  0  0  0  0  0  0  0  0
  -22.7480  -29.4600   22.5420 C   0  0  0  0  0  0  0  0  0  0  0  0
  -21.4170  -29.3030   22.4220 N   0  0  0  0  0  0  0  0  0  0  0  0
  -23.4130  -28.8330   23.3710 O   0  0  0  0  0  0  0  0  0  0  0  0
  -20.9340  -29.8590   21.7310 H   0  0  0  0  0  0  0  0  0  0  0  0
  -18.0300  -28.1120   22.9440 C   0  0  0  0  0  0  0  0  0  0  0  0
  -20.5920  -28.3700   23.1980 C   0  0  0  0  0  3  0  0  0  0  0  0
  -20.6860  -26.9360   22.6270 C   0  0  0  0  0  2  0  0  0  0  0  0
  -19.5800  -26.6160   21.6150 C   0  0  0  0  0  2  0  0  0  0  0  0
  -18.2000  -26.7630   22.2650 C   0  0  0  0  0  2  0  0  0  0  0  0
  -19.1520  -28.8730   23.3670 C   0  0  0  0  0  0  0  0  0  0  0  0
  -18.9350  -30.1330   23.9660 C   0  0  0  0  0  3  0  0  0  0  0  0
  -17.6310  -30.6340   24.1420 C   0  0  0  0  0  3  0  0  0  0  0  0
  -16.5250  -29.8700   23.7320 C   0  0  0  0  0  3  0  0  0  0  0  0
  -16.7240  -28.6110   23.1390 C   0  0  0  0  0  3  0  0  0  0  0  0
  -25.9060  -32.4990   23.8400 C   0  0  0  0  0  3  0  0  0  0  0  0
  -26.4110  -31.7390   25.1290 C   0  0  1  0  0  0  0  0  0  0  0  0
  -25.3090  -31.5140   26.1920 C   0  0  0  0  0  1  0  0  0  0  0  0
  -26.9940  -30.3560   24.7620 C   0  0  0  0  0  1  0  0  0  0  0  0
  -27.5580  -32.5360   25.7930 C   0  0  0  0  0  1  0  0  0  0  0  0
  -25.5860  -33.9000   24.1720 N   0  0  0  0  0  0  0  0  0  0  0  0
  -25.9160  -34.9610   23.4250 C   0  0  0  0  0  0  0  0  0  0  0  0
  -26.5850  -34.8650   22.3920 O   0  0  0  0  0  0  0  0  0  0  0  0
  -24.9910  -34.0470   24.9740 H   0  0  0  0  0  0  0  0  0  0  0  0
  -24.1840  -36.7610   23.0970 C   0  0  0  0  0  1  0  0  0  0  0  0
  -25.4330  -36.3490   23.8950 C   0  0  0  0  0  3  0  0  0  0  0  0
  -27.5720  -37.2350   24.7120 C   0  0  0  0  0  1  0  0  0  0  0  0
  -26.4620  -37.4040   23.7780 N   0  0  0  0  0  0  0  0  0  0  0  0
  -26.0560  -38.3230   23.9310 H   0  0  0  0  0  0  0  0  0  0  0  0
  3  2  1  0
  4  3  1  0
  4  2  1  0
  4  6  1  0
  5  3  1  0
  5  2  1  0
  5  1  1  0
  7  6  1  0
  8 13  1  0
  9 10  1  0
  9  8  1  0
 10 11  1  0
 11 18  1  0
 11 12  1  0
 13  7  1  0
 13 12  1  0
 14  7  2  0
 15 16  2  0
 16 35  1  0
 17 16  1  0
 17 20  1  0
 18 15  1  0
 18 19  1  0
 19 17  2  0
 20 21  1  0
 21 22  2  0
 23 26  1  0
 23 22  1  0
 24 23  2  0
 25 24  1  0
 25 20  2  0
 26 27  1  0
 27 28  1  0
 28 29  2  0
 30 29  1  0
 30 34  1  0
 31 30  2  0
 32 27  2  0
 32 31  1  0
 33 32  1  0
 35 36  1  0
 36 39  1  0
 36 38  1  0
 37 35  2  0
 40 41  1  0
 40 15  1  0
 42 40  1  0
 43 44  1  0
 43  1  2  0
 45 56  2  0
 45 71  1  0
 46 44  1  0
 46 51  1  0
 47 55  1  0
 47 57  1  0
 48 54  1  0
 48 50  1  0
 49 55  1  0
 50 51  2  0
 50 49  1  0
 52 46  2  0
 53 52  1  0
 53 48  2  0
 54 47  1  0
 55 45  1  0
 57 59  2  0
 58 57  1  0
 58 62  1  0
 60 58  1  0
 61 70  2  0
 61 66  1  0
 62 66  1  0
 63 62  1  0
 64 65  1  0
 64 63  1  0
 65 61  1  0
 66 67  2  0
 67 68  1  0
 69 68  2  0
 70 69  1  0
 71 76  1  0
 71 72  1  0
 72 75  1  1
 72 73  1  0
 74 72  1  0
 76 79  1  0
 77 81  1  0
 77 76  1  0
 78 77  2  0
 80 81  1  0
 83 81  1  0
 83 84  1  0
 83 82  1  0
M  ISO  4   6 100   7 100  43 101  44 101
M  END
>  <TORSDO>  (88) 
F 19

>  <SCORE>  (88) 
-16.533

>  <name>  (88) 
87

>  <ligand_id>  (88) 
87

>  <original_smiles>  (88) 
[H]c1c([H])c([H])c2c(c1[H])C([H])([H])C([H])([H])C([H])([H])C2([H])N([H])C(=O)C1([H])N(C(=O)C([H])(N([H])C(=O)C([H])(N([H])C([H])([H])[H])C([H])([H])[H])C(C([H])([H])[H])(C([H])([H])[H])C([H])([H])[H])C([H])([H])c2c([H])c(OC([H])([H])C([H])([H])C3([H])C([H])([H])C([H])(C([H])([H])C(=O)N4C([H])([H])C([H])([H])C([H])([H])C([H])(n5nc(-c6c([H])c([H])c(Oc7c([H])c([H])c(F)c([H])c7F)c([H])c6[H])c(C(=O)N([H])[H])c5N([H])[H])C4([H])[H])C3([H])[H])c([H])c([H])c2C1([H])[H]

>  <smiles>  (88) 
[H]c1c([H])c([H])c2c(c1[H])C([H])([H])C([H])([H])C([H])([H])C2([H])N([H])C(=O)C1([H])N(C(=O)C([H])(N([H])C(=O)C([H])(N([H])C([H])([H])[H])C([H])([H])[H])C(C([H])([H])[H])(C([H])([H])[H])C([H])([H])[H])C([H])([H])c2c([H])c(OC([H])([H])C([H])([H])C3([H])C([H])([H])C([H])(C([H])([H])C(=O)N4C([H])([H])C([H])([H])C([H])([H])C([H])(n5nc(-c6c([H])c([H])c(Oc7c([H])c([H])c(F)c([H])c7F)c([H])c6[H])c(C(=O)N([H])[H])c5N([H])[H])C4([H])[H])C3([H])[H])c([H])c([H])c2C1([H])[H]

$$$$
88:0:0
     RDKit          3D

 94103  0  0  1  0  0  0  0  0999 V2000
  -31.0220  -18.9140   18.8110 C   0  0  0  0  0  2  0  0  0  0  0  0
  -31.1280  -17.7980   19.8640 C   0  0  0  0  0  2  0  0  0  0  0  0
  -28.7240  -17.8710   20.3650 C   0  0  0  0  0  2  0  0  0  0  0  0
  -27.6090  -20.1560   20.0530 C   0  0  0  0  0  2  0  0  0  0  0  0
  -29.8130  -20.9700   19.8050 C   0  0  0  0  0  2  0  0  0  0  0  0
  -28.4530  -19.0400   19.3830 C   0  0  0  0  0  3  0  0  0  0  0  0
  -29.7230  -19.7690   18.8520 C   0  0  2  0  0  0  0  0  0  0  0  0
  -29.8630  -16.9150   19.9380 C   0  0  1  0  0  0  0  0  0  0  0  0
  -29.4700  -20.2830   17.4120 C   0  0  0  0  0  1  0  0  0  0  0  0
  -29.5350  -16.3020   18.5460 C   0  0  0  0  0  1  0  0  0  0  0  0
  -28.4120  -21.3970   19.9840 N   0  0  2  0  0  4  0  0  0  0  0  0
  -28.1420  -21.8360   19.1160 H   0  0  0  0  0  0  0  0  0  0  0  0
  -30.0190  -15.7990   21.0370 C   0  0  0  0  0  2  0  0  0  0  0  0
  -30.8220  -14.5320   20.6330 C   0  0  0  0  0  0  0  0  0  0  0  0
  -30.5870  -12.3860   19.4570 C   0  0  0  0  0  2  0  0  0  0  0  0
  -29.6680  -12.6180   18.2370 C   0  0  0  0  0  2  0  0  0  0  0  0
  -28.1780  -12.5000   18.6230 C   0  0  0  0  0  2  0  0  0  0  0  0
  -27.8160  -13.2900   19.9090 C   0  0  0  0  0  3  0  0  0  0  0  0
  -28.8480  -13.0140   21.0220 C   0  0  0  0  0  2  0  0  0  0  0  0
  -30.1830  -13.3380   20.5010 N   0  0  0  0  0  0  0  0  0  0  0  0
  -31.9930  -14.6860   20.2770 O   0  0  0  0  0  0  0  0  0  0  0  0
  -25.3910  -13.8960   20.5170 C   0  0  0  0  0  0  0  0  0  0  0  0
  -24.3150  -13.1230   20.8590 C   0  0  0  0  0  0  0  0  0  0  0  0
  -24.7870  -11.7750   20.8640 C   0  0  0  0  0  0  0  0  0  0  0  0
  -26.4500  -13.0180   20.3430 N   0  0  0  0  0  0  0  0  0  0  0  0
  -26.0860  -11.7380   20.6060 N   0  0  0  0  0  0  0  0  0  0  0  0
  -24.0640  -10.5100   21.0440 C   0  0  0  0  0  0  0  0  0  0  0  0
  -24.4740   -9.5590   22.0030 C   0  0  0  0  0  3  0  0  0  0  0  0
  -23.7540   -8.3570   22.1710 C   0  0  0  0  0  3  0  0  0  0  0  0
  -22.6100   -8.0990   21.3780 C   0  0  0  0  0  0  0  0  0  0  0  0
  -22.2220   -9.0400   20.4070 C   0  0  0  0  0  3  0  0  0  0  0  0
  -22.9420  -10.2330   20.2390 C   0  0  0  0  0  3  0  0  0  0  0  0
  -21.8640   -6.9470   21.4510 O   0  0  0  0  0  0  0  0  0  0  0  0
  -21.7780   -6.2210   22.6120 C   0  0  0  0  0  0  0  0  0  0  0  0
  -21.2980   -6.7880   23.8120 C   0  0  0  0  0  3  0  0  0  0  0  0
  -21.1610   -5.9870   24.9630 C   0  0  0  0  0  3  0  0  0  0  0  0
  -21.4930   -4.6200   24.9140 C   0  0  0  0  0  0  0  0  0  0  0  0
  -21.9650   -4.0520   23.7170 C   0  0  0  0  0  3  0  0  0  0  0  0
  -22.1050   -4.8500   22.5690 C   0  0  0  0  0  0  0  0  0  0  0  0
  -22.5400   -4.2940   21.4130 F   0  0  0  0  0  0  0  0  0  0  0  0
  -21.3530   -3.8490   26.0160 F   0  0  0  0  0  0  0  0  0  0  0  0
  -22.9060  -13.5950   21.0760 C   0  0  0  0  0  0  0  0  0  0  0  0
  -22.1520  -12.9030   21.9240 N   0  0  0  0  0  0  0  0  0  0  0  0
  -22.4800  -14.6110   20.5280 O   0  0  0  0  0  0  0  0  0  0  0  0
  -22.5060  -12.0820   22.3910 H   0  0  0  0  0  0  0  0  0  0  0  0
  -21.2060  -13.2040   22.1100 H   0  0  0  0  0  0  0  0  0  0  0  0
  -25.5490  -15.2650   20.3200 N   0  0  0  0  0  0  0  0  0  0  0  0
  -24.7700  -15.9120   20.3720 H   0  0  0  0  0  0  0  0  0  0  0  0
  -26.4060  -15.7000   20.0040 H   0  0  0  0  0  0  0  0  0  0  0  0
  -28.1640  -22.3860   21.0630 C   0  0  0  0  0  2  0  0  0  0  0  0
  -28.7710  -23.7710   20.7410 C   0  0  0  0  0  2  0  0  0  0  0  0
  -28.3760  -24.8630   21.7540 C   0  0  0  0  0  2  0  0  0  0  0  0
  -29.0230  -26.2310   21.4590 C   0  0  0  0  0  2  0  0  0  0  0  0
  -28.5940  -26.7370   20.1970 O   0  0  0  0  0  0  0  0  0  0  0  0
  -24.6420  -31.8380   23.2340 C   0  0  0  0  0  0  0  0  0  0  0  0
  -27.4240  -27.4520   20.2240 C   0  0  0  0  0  0  0  0  0  0  0  0
  -23.4930  -30.4130   21.5690 C   0  0  0  0  0  3  0  0  0  0  0  0
  -25.0010  -28.8940   20.1820 C   0  0  0  0  0  0  0  0  0  0  0  0
  -26.0110  -30.8170   21.4220 C   0  0  0  0  0  2  0  0  0  0  0  0
  -26.1330  -29.4440   20.7990 C   0  0  0  0  0  0  0  0  0  0  0  0
  -27.3470  -28.7260   20.8280 C   0  0  0  0  0  3  0  0  0  0  0  0
  -26.2860  -26.9120   19.5950 C   0  0  0  0  0  3  0  0  0  0  0  0
  -25.0700  -27.6240   19.5800 C   0  0  0  0  0  3  0  0  0  0  0  0
  -23.7430  -29.7310   20.1960 C   0  0  0  0  0  2  0  0  0  0  0  0
  -24.7310  -31.0380   22.1340 N   0  0  0  0  0  0  0  0  0  0  0  0
  -23.5460  -32.0940   23.7510 O   0  0  0  0  0  0  0  0  0  0  0  0
  -22.8390  -29.3840   22.5190 C   0  0  0  0  0  0  0  0  0  0  0  0
  -21.5180  -29.1900   22.3710 N   0  0  0  0  0  0  0  0  0  0  0  0
  -23.5170  -28.7640   23.3420 O   0  0  0  0  0  0  0  0  0  0  0  0
  -21.0340  -29.7440   21.6790 H   0  0  0  0  0  0  0  0  0  0  0  0
  -18.1440  -27.9780   22.8200 C   0  0  0  0  0  0  0  0  0  0  0  0
  -20.6980  -28.2440   23.1260 C   0  0  0  0  0  3  0  0  0  0  0  0
  -20.8140  -26.8170   22.5410 C   0  0  0  0  0  2  0  0  0  0  0  0
  -19.7260  -26.4960   21.5120 C   0  0  0  0  0  2  0  0  0  0  0  0
  -18.3350  -26.6320   22.1400 C   0  0  0  0  0  2  0  0  0  0  0  0
  -19.2550  -28.7420   23.2680 C   0  0  0  0  0  0  0  0  0  0  0  0
  -19.0240  -30.0020   23.8630 C   0  0  0  0  0  3  0  0  0  0  0  0
  -17.7160  -30.4970   24.0140 C   0  0  0  0  0  3  0  0  0  0  0  0
  -16.6200  -29.7300   23.5820 C   0  0  0  0  0  3  0  0  0  0  0  0
  -16.8360  -28.4720   22.9910 C   0  0  0  0  0  3  0  0  0  0  0  0
  -25.9060  -32.4890   23.8790 C   0  0  0  0  0  3  0  0  0  0  0  0
  -25.5730  -33.8840   24.1930 N   0  0  0  0  0  0  0  0  0  0  0  0
  -25.9130  -34.9350   23.4340 C   0  0  0  0  0  0  0  0  0  0  0  0
  -26.6100  -34.8330   22.4210 O   0  0  0  0  0  0  0  0  0  0  0  0
  -24.9580  -34.0370   24.9780 H   0  0  0  0  0  0  0  0  0  0  0  0
  -24.1750  -36.7040   23.0170 C   0  0  0  0  0  1  0  0  0  0  0  0
  -25.3970  -36.3200   23.8680 C   0  0  0  0  0  3  0  0  0  0  0  0
  -27.4960  -37.2340   24.7550 C   0  0  0  0  0  1  0  0  0  0  0  0
  -26.4210  -37.3840   23.7790 N   0  0  0  0  0  0  0  0  0  0  0  0
  -26.0020  -38.3010   23.9060 H   0  0  0  0  0  0  0  0  0  0  0  0
  -26.4080  -31.7290   25.1680 C   0  0  1  0  0  0  0  0  0  0  0  0
  -25.2960  -31.4800   26.2150 C   0  0  0  0  0  1  0  0  0  0  0  0
  -27.0150  -30.3580   24.7890 C   0  0  0  0  0  1  0  0  0  0  0  0
  -27.5360  -32.5390   25.8490 C   0  0  0  0  0  1  0  0  0  0  0  0
  1  7  1  0
  1  2  1  0
  2  8  1  0
  5 11  1  0
  6  4  1  0
  6  3  1  0
  7  9  1  6
  7  6  1  0
  7  5  1  0
  8 10  1  6
  8  3  1  0
  8 13  1  0
 11  4  1  0
 11 50  1  0
 11 12  1  6
 14 13  1  0
 15 20  1  0
 16 17  1  0
 16 15  1  0
 18 17  1  0
 18 25  1  0
 18 19  1  0
 20 14  1  0
 20 19  1  0
 21 14  2  0
 22 23  2  0
 23 24  1  0
 23 42  1  0
 24 27  1  0
 25 22  1  0
 25 26  1  0
 26 24  2  0
 27 28  1  0
 28 29  2  0
 30 33  1  0
 30 29  1  0
 31 30  2  0
 32 31  1  0
 32 27  2  0
 33 34  1  0
 34 35  1  0
 35 36  2  0
 37 36  1  0
 37 41  1  0
 38 37  2  0
 39 34  2  0
 39 38  1  0
 40 39  1  0
 42 43  1  0
 43 46  1  0
 43 45  1  0
 44 42  2  0
 47 48  1  0
 47 22  1  0
 49 47  1  0
 51 50  1  0
 51 52  1  0
 53 52  1  0
 54 56  1  0
 54 53  1  0
 55 66  2  0
 56 61  1  0
 57 65  1  0
 57 67  1  0
 58 64  1  0
 58 60  1  0
 59 65  1  0
 60 61  2  0
 60 59  1  0
 62 56  2  0
 63 62  1  0
 63 58  2  0
 64 57  1  0
 65 55  1  0
 67 69  2  0
 68 67  1  0
 70 68  1  0
 71 80  2  0
 71 76  1  0
 72 68  1  0
 72 76  1  0
 73 72  1  0
 74 75  1  0
 74 73  1  0
 75 71  1  0
 76 77  2  0
 77 78  1  0
 79 78  2  0
 80 79  1  0
 81 55  1  0
 81 82  1  0
 81 91  1  0
 82 85  1  0
 83 87  1  0
 83 82  1  0
 84 83  2  0
 87 86  1  0
 89 87  1  0
 89 90  1  0
 89 88  1  0
 91 94  1  1
 91 92  1  0
 93 91  1  0
M  ISO  4  13 100  14 100  53 101  54 101
M  END
>  <TORSDO>  (89) 
F 21

>  <SCORE>  (89) 
-13.346

>  <name>  (89) 
88

>  <ligand_id>  (89) 
88

>  <original_smiles>  (89) 
[H]c1c([H])c([H])c2c(c1[H])C([H])([H])C([H])([H])C([H])([H])C2([H])N([H])C(=O)C1([H])N(C(=O)C([H])(N([H])C(=O)C([H])(N([H])C([H])([H])[H])C([H])([H])[H])C(C([H])([H])[H])(C([H])([H])[H])C([H])([H])[H])C([H])([H])c2c([H])c(OC([H])([H])C([H])([H])C([H])([H])C([H])([H])[N+]3([H])C([H])([H])C4([H])C([H])([H])C(C([H])([H])[H])(C([H])([H])C(=O)N5C([H])([H])C([H])([H])C([H])([H])C([H])(n6nc(-c7c([H])c([H])c(Oc8c([H])c([H])c(F)c([H])c8F)c([H])c7[H])c(C(=O)N([H])[H])c6N([H])[H])C5([H])[H])C([H])([H])C([H])([H])C4(C([H])([H])[H])C3([H])[H])c([H])c([H])c2C1([H])[H]

>  <smiles>  (89) 
[H]c1c([H])c([H])c2c(c1[H])C([H])([H])C([H])([H])C([H])([H])C2([H])N([H])C(=O)C1([H])N(C(=O)C([H])(N([H])C(=O)C([H])(N([H])C([H])([H])[H])C([H])([H])[H])C(C([H])([H])[H])(C([H])([H])[H])C([H])([H])[H])C([H])([H])c2c([H])c(OC([H])([H])C([H])([H])C([H])([H])C([H])([H])[N+]3([H])C([H])([H])C4([H])C([H])([H])C(C([H])([H])[H])(C([H])([H])C(=O)N5C([H])([H])C([H])([H])C([H])([H])C([H])(n6nc(-c7c([H])c([H])c(Oc8c([H])c([H])c(F)c([H])c8F)c([H])c7[H])c(C(=O)N([H])[H])c6N([H])[H])C5([H])[H])C([H])([H])C([H])([H])C4(C([H])([H])[H])C3([H])[H])c([H])c([H])c2C1([H])[H]

$$$$
89:0:0
     RDKit          3D

 92101  0  0  1  0  0  0  0  0999 V2000
  -29.6170  -21.4440   20.1410 N   0  0  0  0  0  4  0  0  0  0  0  0
  -28.9640  -21.1610   19.4280 H   0  0  0  0  0  0  0  0  0  0  0  0
  -30.4540  -21.7410   19.6640 H   0  0  0  0  0  0  0  0  0  0  0  0
  -28.9720  -16.7940   20.2070 C   0  0  0  0  0  2  0  0  0  0  0  0
  -29.5700  -17.9940   19.4220 C   0  0  0  0  0  2  0  0  0  0  0  0
  -31.9510  -19.2140   22.1340 C   0  0  0  0  0  2  0  0  0  0  0  0
  -31.1500  -20.5140   21.9150 C   0  0  0  0  0  2  0  0  0  0  0  0
  -30.8300  -16.9260   21.8860 C   0  0  0  0  0  2  0  0  0  0  0  0
  -29.9320  -15.9330   21.0880 C   0  0  0  0  0  3  0  0  0  0  0  0
  -31.4450  -18.1560   21.1370 C   0  0  0  0  0  3  0  0  0  0  0  0
  -30.5140  -18.9570   20.1890 C   0  0  0  0  0  3  0  0  0  0  0  0
  -29.9660  -20.2180   20.9690 C   0  0  0  0  0  3  0  0  0  0  0  0
  -30.6250  -14.6640   20.4250 C   0  0  0  0  0  0  0  0  0  0  0  0
  -30.3950  -12.4450   19.3080 C   0  0  0  0  0  2  0  0  0  0  0  0
  -29.4410  -12.5730   18.1000 C   0  0  0  0  0  2  0  0  0  0  0  0
  -27.9710  -12.3930   18.5330 C   0  0  0  0  0  2  0  0  0  0  0  0
  -27.6160  -13.2440   19.7780 C   0  0  0  0  0  3  0  0  0  0  0  0
  -28.6820  -13.0830   20.8840 C   0  0  0  0  0  2  0  0  0  0  0  0
  -29.9910  -13.4500   20.3160 N   0  0  0  0  0  0  0  0  0  0  0  0
  -31.7530  -14.8150   19.9460 O   0  0  0  0  0  0  0  0  0  0  0  0
  -25.2280  -13.8550   20.5060 C   0  0  0  0  0  0  0  0  0  0  0  0
  -24.1610  -13.0830   20.8800 C   0  0  0  0  0  0  0  0  0  0  0  0
  -24.6230  -11.7310   20.8480 C   0  0  0  0  0  0  0  0  0  0  0  0
  -26.2690  -12.9710   20.2680 N   0  0  0  0  0  0  0  0  0  0  0  0
  -25.9120  -11.6900   20.5350 N   0  0  0  0  0  0  0  0  0  0  0  0
  -23.9000  -10.4690   21.0420 C   0  0  0  0  0  0  0  0  0  0  0  0
  -24.3410   -9.5020   21.9730 C   0  0  0  0  0  3  0  0  0  0  0  0
  -23.6190   -8.3040   22.1540 C   0  0  0  0  0  3  0  0  0  0  0  0
  -22.4420   -8.0640   21.4030 C   0  0  0  0  0  0  0  0  0  0  0  0
  -22.0220   -9.0190   20.4610 C   0  0  0  0  0  3  0  0  0  0  0  0
  -22.7450  -10.2100   20.2780 C   0  0  0  0  0  3  0  0  0  0  0  0
  -21.6910   -6.9160   21.4940 O   0  0  0  0  0  0  0  0  0  0  0  0
  -21.6530   -6.1720   22.6450 C   0  0  0  0  0  0  0  0  0  0  0  0
  -21.2280   -6.7200   23.8750 C   0  0  0  0  0  3  0  0  0  0  0  0
  -21.1370   -5.9010   25.0180 C   0  0  0  0  0  3  0  0  0  0  0  0
  -21.4610   -4.5330   24.9320 C   0  0  0  0  0  0  0  0  0  0  0  0
  -21.8790   -3.9840   23.7070 C   0  0  0  0  0  3  0  0  0  0  0  0
  -21.9710   -4.8010   22.5660 C   0  0  0  0  0  0  0  0  0  0  0  0
  -22.3540   -4.2620   21.3830 F   0  0  0  0  0  0  0  0  0  0  0  0
  -21.3660   -3.7440   26.0270 F   0  0  0  0  0  0  0  0  0  0  0  0
  -22.7650  -13.5600   21.1580 C   0  0  0  0  0  0  0  0  0  0  0  0
  -22.0390  -12.8590   22.0220 N   0  0  0  0  0  0  0  0  0  0  0  0
  -22.3250  -14.5870   20.6440 O   0  0  0  0  0  0  0  0  0  0  0  0
  -22.4060  -12.0270   22.4580 H   0  0  0  0  0  0  0  0  0  0  0  0
  -21.1010  -13.1600   22.2500 H   0  0  0  0  0  0  0  0  0  0  0  0
  -25.3930  -15.2250   20.3280 N   0  0  0  0  0  0  0  0  0  0  0  0
  -24.6290  -15.8830   20.4470 H   0  0  0  0  0  0  0  0  0  0  0  0
  -26.2480  -15.6640   20.0100 H   0  0  0  0  0  0  0  0  0  0  0  0
  -29.0220  -22.6410   20.8560 C   0  0  0  0  0  2  0  0  0  0  0  0
  -29.0030  -24.0260   20.0700 C   0  0  0  0  0  3  0  0  0  0  0  0
  -28.2380  -25.2260   20.7680 C   0  0  0  0  0  3  0  0  0  0  0  0
  -28.3770  -26.5770   20.2010 O   0  0  0  0  0  0  0  0  0  0  0  0
  -24.5880  -31.9020   23.2260 C   0  0  0  0  0  0  0  0  0  0  0  0
  -27.2390  -27.3840   20.1910 C   0  0  0  0  0  0  0  0  0  0  0  0
  -23.3920  -30.4940   21.5850 C   0  0  0  0  0  3  0  0  0  0  0  0
  -24.8540  -28.9470   20.1680 C   0  0  0  0  0  0  0  0  0  0  0  0
  -25.9260  -30.8360   21.3980 C   0  0  0  0  0  2  0  0  0  0  0  0
  -26.0160  -29.4580   20.7620 C   0  0  0  0  0  0  0  0  0  0  0  0
  -27.2140  -28.6880   20.7600 C   0  0  0  0  0  3  0  0  0  0  0  0
  -26.0590  -26.9120   19.5760 C   0  0  0  0  0  3  0  0  0  0  0  0
  -24.8760  -27.6760   19.5670 C   0  0  0  0  0  3  0  0  0  0  0  0
  -23.6110  -29.8120   20.2080 C   0  0  0  0  0  2  0  0  0  0  0  0
  -24.6550  -31.0940   22.1280 N   0  0  0  0  0  0  0  0  0  0  0  0
  -23.5050  -32.1740   23.7610 O   0  0  0  0  0  0  0  0  0  0  0  0
  -22.7340  -29.4770   22.5460 C   0  0  0  0  0  0  0  0  0  0  0  0
  -21.4080  -29.3000   22.4210 N   0  0  0  0  0  0  0  0  0  0  0  0
  -23.4140  -28.8490   23.3610 O   0  0  0  0  0  0  0  0  0  0  0  0
  -20.9180  -29.8590   21.7360 H   0  0  0  0  0  0  0  0  0  0  0  0
  -18.0280  -28.1200   22.9330 C   0  0  0  0  0  0  0  0  0  0  0  0
  -20.5890  -28.3630   23.1920 C   0  0  0  0  0  3  0  0  0  0  0  0
  -20.6800  -26.9340   22.6090 C   0  0  0  0  0  2  0  0  0  0  0  0
  -19.5720  -26.6220   21.5990 C   0  0  0  0  0  2  0  0  0  0  0  0
  -18.1940  -26.7730   22.2510 C   0  0  0  0  0  2  0  0  0  0  0  0
  -19.1530  -28.8750   23.3600 C   0  0  0  0  0  0  0  0  0  0  0  0
  -18.9450  -30.1370   23.9570 C   0  0  0  0  0  3  0  0  0  0  0  0
  -17.6440  -30.6450   24.1310 C   0  0  0  0  0  3  0  0  0  0  0  0
  -16.5340  -29.8880   23.7210 C   0  0  0  0  0  3  0  0  0  0  0  0
  -16.7260  -28.6280   23.1270 C   0  0  0  0  0  3  0  0  0  0  0  0
  -25.8690  -32.5380   23.8490 C   0  0  0  0  0  3  0  0  0  0  0  0
  -26.3860  -31.7700   25.1270 C   0  0  1  0  0  0  0  0  0  0  0  0
  -25.2920  -31.5310   26.1920 C   0  0  0  0  0  1  0  0  0  0  0  0
  -26.9740  -30.3940   24.7350 C   0  0  0  0  0  1  0  0  0  0  0  0
  -27.5330  -32.5680   25.7910 C   0  0  0  0  0  1  0  0  0  0  0  0
  -25.5570  -33.9360   24.1770 N   0  0  0  0  0  0  0  0  0  0  0  0
  -25.8920  -34.9900   23.4190 C   0  0  0  0  0  0  0  0  0  0  0  0
  -26.5680  -34.8860   22.3920 O   0  0  0  0  0  0  0  0  0  0  0  0
  -24.9590  -34.0910   24.9750 H   0  0  0  0  0  0  0  0  0  0  0  0
  -24.1700  -36.7820   23.0450 C   0  0  0  0  0  1  0  0  0  0  0  0
  -25.4000  -36.3770   23.8720 C   0  0  0  0  0  3  0  0  0  0  0  0
  -27.5250  -37.2600   24.7290 C   0  0  0  0  0  1  0  0  0  0  0  0
  -26.4350  -37.4300   23.7720 N   0  0  0  0  0  0  0  0  0  0  0  0
  -26.0270  -38.3490   23.9150 H   0  0  0  0  0  0  0  0  0  0  0  0
  1 49  1  0
  2  1  1  0
  3  1  1  0
  4  9  1  0
  5  4  1  0
  7  6  1  0
  9 13  1  0
  9  8  1  0
 10  8  1  0
 10  6  1  0
 11  5  1  0
 11 12  1  0
 11 10  1  0
 12  1  1  0
 12  7  1  0
 14 19  1  0
 15 16  1  0
 15 14  1  0
 17 16  1  0
 17 24  1  0
 17 18  1  0
 19 13  1  0
 19 18  1  0
 20 13  2  0
 21 22  2  0
 22 41  1  0
 23 22  1  0
 23 26  1  0
 24 21  1  0
 24 25  1  0
 25 23  2  0
 26 27  1  0
 27 28  2  0
 29 32  1  0
 29 28  1  0
 30 29  2  0
 31 30  1  0
 31 26  2  0
 32 33  1  0
 33 34  1  0
 34 35  2  0
 36 35  1  0
 36 40  1  0
 37 36  2  0
 38 33  2  0
 38 37  1  0
 39 38  1  0
 41 42  1  0
 42 45  1  0
 42 44  1  0
 43 41  2  0
 46 47  1  0
 46 21  1  0
 48 46  1  0
 50 51  2  0
 50 49  1  0
 52 51  1  0
 53 64  2  0
 54 52  1  0
 54 59  1  0
 55 63  1  0
 55 65  1  0
 56 62  1  0
 56 58  1  0
 57 63  1  0
 58 57  1  0
 59 58  2  0
 60 54  2  0
 61 60  1  0
 61 56  2  0
 62 55  1  0
 63 53  1  0
 65 67  2  0
 66 65  1  0
 68 66  1  0
 69 78  2  0
 69 74  1  0
 70 66  1  0
 70 74  1  0
 71 70  1  0
 72 73  1  0
 72 71  1  0
 73 69  1  0
 74 75  2  0
 75 76  1  0
 77 76  2  0
 78 77  1  0
 79 53  1  0
 79 84  1  0
 79 80  1  0
 80 83  1  1
 80 81  1  0
 82 80  1  0
 84 87  1  0
 85 89  1  0
 85 84  1  0
 86 85  2  0
 89 88  1  0
 91 89  1  0
 91 92  1  0
 91 90  1  0
M  ISO  4   9 100  13 100  51 101  52 101
M  END
>  <TORSDO>  (90) 
F 20

>  <SCORE>  (90) 
-14.254

>  <name>  (90) 
89

>  <ligand_id>  (90) 
89

>  <original_smiles>  (90) 
[H]c1c([H])c([H])c2c(c1[H])C([H])([H])C([H])([H])C([H])([H])C2([H])N([H])C(=O)C1([H])N(C(=O)C([H])(N([H])C(=O)C([H])(N([H])C([H])([H])[H])C([H])([H])[H])C(C([H])([H])[H])(C([H])([H])[H])C([H])([H])[H])C([H])([H])c2c([H])c(OC([H])([H])C([H])([H])C([H])([H])[N+]([H])([H])C3([H])C([H])([H])C([H])([H])C4([H])C([H])([H])C([H])(C(=O)N5C([H])([H])C([H])([H])C([H])([H])C([H])(n6nc(-c7c([H])c([H])c(Oc8c([H])c([H])c(F)c([H])c8F)c([H])c7[H])c(C(=O)N([H])[H])c6N([H])[H])C5([H])[H])C([H])([H])C([H])([H])C43[H])c([H])c([H])c2C1([H])[H]

>  <smiles>  (90) 
[H]c1c([H])c([H])c2c(c1[H])C([H])([H])C([H])([H])C([H])([H])C2([H])N([H])C(=O)C1([H])N(C(=O)C([H])(N([H])C(=O)C([H])(N([H])C([H])([H])[H])C([H])([H])[H])C(C([H])([H])[H])(C([H])([H])[H])C([H])([H])[H])C([H])([H])c2c([H])c(OC([H])([H])C([H])([H])C([H])([H])[N+]([H])([H])C3([H])C([H])([H])C([H])([H])C4([H])C([H])([H])C([H])(C(=O)N5C([H])([H])C([H])([H])C([H])([H])C([H])(n6nc(-c7c([H])c([H])c(Oc8c([H])c([H])c(F)c([H])c8F)c([H])c7[H])c(C(=O)N([H])[H])c6N([H])[H])C5([H])[H])C([H])([H])C([H])([H])C43[H])c([H])c([H])c2C1([H])[H]

$$$$
90:0:0
     RDKit          3D

 88 97  0  0  1  0  0  0  0  0999 V2000
  -30.1470  -23.4340   19.3170 C   0  0  0  0  0  2  0  0  0  0  0  0
  -29.1380  -23.9200   20.3360 C   0  0  0  0  0  3  0  0  0  0  0  0
  -29.0440  -22.4820   19.7140 C   0  0  0  0  0  3  0  0  0  0  0  0
  -29.4280  -20.0690   19.9960 C   0  0  0  0  0  0  0  0  0  0  0  0
  -28.6610  -19.7720   18.7150 C   0  0  0  0  0  1  0  0  0  0  0  0
  -29.5900  -21.2880   20.4440 N   0  0  0  0  0  0  0  0  0  0  0  0
  -31.3410  -18.2490   20.5210 C   0  0  0  0  0  2  0  0  0  0  0  0
  -29.9370  -18.7700   20.7420 C   0  0  0  0  0  3  0  0  0  0  0  0
  -30.1960  -17.3200   20.1720 C   0  0  0  0  0  3  0  0  0  0  0  0
  -29.9470  -15.9720   20.9510 C   0  0  0  0  0  2  0  0  0  0  0  0
  -30.6570  -14.6490   20.4410 C   0  0  0  0  0  0  0  0  0  0  0  0
  -30.4070  -12.4120   19.3770 C   0  0  0  0  0  2  0  0  0  0  0  0
  -29.4860  -12.5580   18.1440 C   0  0  0  0  0  2  0  0  0  0  0  0
  -28.0080  -12.4070   18.5560 C   0  0  0  0  0  2  0  0  0  0  0  0
  -27.6390  -13.2760   19.7880 C   0  0  0  0  0  3  0  0  0  0  0  0
  -28.6850  -13.1300   20.9170 C   0  0  0  0  0  2  0  0  0  0  0  0
  -30.0060  -13.4430   20.3560 N   0  0  0  0  0  0  0  0  0  0  0  0
  -31.8090  -14.7580   20.0140 O   0  0  0  0  0  0  0  0  0  0  0  0
  -25.2330  -13.8820   20.4550 C   0  0  0  0  0  0  0  0  0  0  0  0
  -24.1590  -13.1140   20.8150 C   0  0  0  0  0  0  0  0  0  0  0  0
  -24.6200  -11.7620   20.8110 C   0  0  0  0  0  0  0  0  0  0  0  0
  -26.2830  -12.9990   20.2540 N   0  0  0  0  0  0  0  0  0  0  0  0
  -25.9170  -11.7190   20.5280 N   0  0  0  0  0  0  0  0  0  0  0  0
  -23.8890  -10.5040   21.0080 C   0  0  0  0  0  0  0  0  0  0  0  0
  -24.3170   -9.5390   21.9470 C   0  0  0  0  0  3  0  0  0  0  0  0
  -23.5860   -8.3460   22.1310 C   0  0  0  0  0  3  0  0  0  0  0  0
  -22.4130   -8.1080   21.3760 C   0  0  0  0  0  0  0  0  0  0  0  0
  -22.0030   -9.0600   20.4270 C   0  0  0  0  0  3  0  0  0  0  0  0
  -22.7350  -10.2460   20.2400 C   0  0  0  0  0  3  0  0  0  0  0  0
  -21.6540   -6.9660   21.4700 O   0  0  0  0  0  0  0  0  0  0  0  0
  -21.6150   -6.2190   22.6210 C   0  0  0  0  0  0  0  0  0  0  0  0
  -21.2210   -6.7760   23.8570 C   0  0  0  0  0  3  0  0  0  0  0  0
  -21.1280   -5.9570   24.9990 C   0  0  0  0  0  3  0  0  0  0  0  0
  -21.4180   -4.5820   24.9070 C   0  0  0  0  0  0  0  0  0  0  0  0
  -21.8070   -4.0260   23.6760 C   0  0  0  0  0  3  0  0  0  0  0  0
  -21.9020   -4.8420   22.5350 C   0  0  0  0  0  0  0  0  0  0  0  0
  -22.2550   -4.2970   21.3470 F   0  0  0  0  0  0  0  0  0  0  0  0
  -21.3220   -3.7940   26.0030 F   0  0  0  0  0  0  0  0  0  0  0  0
  -22.7570  -13.5950   21.0560 C   0  0  0  0  0  0  0  0  0  0  0  0
  -22.0170  -12.9130   21.9230 N   0  0  0  0  0  0  0  0  0  0  0  0
  -22.3280  -14.6130   20.5130 O   0  0  0  0  0  0  0  0  0  0  0  0
  -22.3750  -12.0860   22.3790 H   0  0  0  0  0  0  0  0  0  0  0  0
  -21.0790  -13.2200   22.1360 H   0  0  0  0  0  0  0  0  0  0  0  0
  -25.4000  -15.2500   20.2590 N   0  0  0  0  0  0  0  0  0  0  0  0
  -24.6310  -15.9050   20.3470 H   0  0  0  0  0  0  0  0  0  0  0  0
  -26.2570  -15.6870   19.9430 H   0  0  0  0  0  0  0  0  0  0  0  0
  -28.0920  -25.0290   19.9530 C   0  0  0  0  0  2  0  0  0  0  0  0
  -28.3130  -26.4710   20.1970 O   0  0  0  0  0  0  0  0  0  0  0  0
  -24.5940  -31.8630   23.2070 C   0  0  0  0  0  0  0  0  0  0  0  0
  -27.1900  -27.3160   20.1350 C   0  0  0  0  0  0  0  0  0  0  0  0
  -23.3790  -30.4660   21.5760 C   0  0  0  0  0  3  0  0  0  0  0  0
  -24.8180  -28.9210   20.1380 C   0  0  0  0  0  0  0  0  0  0  0  0
  -25.9170  -30.7870   21.3770 C   0  0  0  0  0  2  0  0  0  0  0  0
  -25.9920  -29.4120   20.7240 C   0  0  0  0  0  0  0  0  0  0  0  0
  -27.1790  -28.6220   20.7120 C   0  0  0  0  0  3  0  0  0  0  0  0
  -25.9900  -26.8800   19.5210 C   0  0  0  0  0  3  0  0  0  0  0  0
  -24.8200  -27.6590   19.5300 C   0  0  0  0  0  3  0  0  0  0  0  0
  -23.5810  -29.7920   20.1960 C   0  0  0  0  0  2  0  0  0  0  0  0
  -24.6480  -31.0540   22.1110 N   0  0  0  0  0  0  0  0  0  0  0  0
  -23.5130  -32.1390   23.7490 O   0  0  0  0  0  0  0  0  0  0  0  0
  -22.7230  -29.4460   22.5380 C   0  0  0  0  0  0  0  0  0  0  0  0
  -21.3970  -29.2690   22.4220 N   0  0  0  0  0  0  0  0  0  0  0  0
  -23.4090  -28.8170   23.3490 O   0  0  0  0  0  0  0  0  0  0  0  0
  -20.9040  -29.8280   21.7380 H   0  0  0  0  0  0  0  0  0  0  0  0
  -18.0210  -28.0740   22.9320 C   0  0  0  0  0  0  0  0  0  0  0  0
  -20.5810  -28.3340   23.1960 C   0  0  0  0  0  3  0  0  0  0  0  0
  -20.6810  -26.9000   22.6230 C   0  0  0  0  0  2  0  0  0  0  0  0
  -19.5750  -26.5730   21.6150 C   0  0  0  0  0  2  0  0  0  0  0  0
  -18.1950  -26.7230   22.2610 C   0  0  0  0  0  2  0  0  0  0  0  0
  -19.1420  -28.8370   23.3570 C   0  0  0  0  0  0  0  0  0  0  0  0
  -18.9260  -30.1000   23.9480 C   0  0  0  0  0  3  0  0  0  0  0  0
  -17.6230  -30.6040   24.1150 C   0  0  0  0  0  3  0  0  0  0  0  0
  -16.5160  -29.8380   23.7090 C   0  0  0  0  0  3  0  0  0  0  0  0
  -16.7170  -28.5760   23.1230 C   0  0  0  0  0  3  0  0  0  0  0  0
  -25.8810  -32.4950   23.8200 C   0  0  0  0  0  3  0  0  0  0  0  0
  -26.4110  -31.7140   25.0860 C   0  0  1  0  0  0  0  0  0  0  0  0
  -25.3270  -31.4680   26.1640 C   0  0  0  0  0  1  0  0  0  0  0  0
  -26.9920  -30.3410   24.6770 C   0  0  0  0  0  1  0  0  0  0  0  0
  -27.5680  -32.5060   25.7400 C   0  0  0  0  0  1  0  0  0  0  0  0
  -25.5710  -33.8880   24.1660 N   0  0  0  0  0  0  0  0  0  0  0  0
  -25.8870  -34.9490   23.4100 C   0  0  0  0  0  0  0  0  0  0  0  0
  -26.5380  -34.8560   22.3660 O   0  0  0  0  0  0  0  0  0  0  0  0
  -24.9950  -34.0330   24.9820 H   0  0  0  0  0  0  0  0  0  0  0  0
  -24.1390  -36.7290   23.0990 C   0  0  0  0  0  1  0  0  0  0  0  0
  -25.3990  -36.3320   23.8850 C   0  0  0  0  0  3  0  0  0  0  0  0
  -27.5480  -37.2220   24.6720 C   0  0  0  0  0  1  0  0  0  0  0  0
  -26.4240  -37.3900   23.7550 N   0  0  0  0  0  0  0  0  0  0  0  0
  -26.0200  -38.3090   23.9150 H   0  0  0  0  0  0  0  0  0  0  0  0
  1  3  1  0
  1  2  1  0
  2 47  1  0
  3  2  1  0
  3  6  1  0
  4  6  2  0
  5  4  1  0
  7  8  1  0
  8  4  1  0
  9  7  1  0
  9  8  1  0
  9 10  1  0
 11 10  1  0
 12 17  1  0
 13 14  1  0
 13 12  1  0
 15 14  1  0
 15 22  1  0
 15 16  1  0
 17 11  1  0
 17 16  1  0
 18 11  2  0
 19 20  2  0
 20 39  1  0
 21 20  1  0
 21 24  1  0
 22 19  1  0
 22 23  1  0
 23 21  2  0
 24 25  1  0
 25 26  2  0
 27 30  1  0
 27 26  1  0
 28 27  2  0
 29 28  1  0
 29 24  2  0
 30 31  1  0
 31 32  1  0
 32 33  2  0
 34 33  1  0
 34 38  1  0
 35 34  2  0
 36 31  2  0
 36 35  1  0
 37 36  1  0
 39 40  1  0
 40 43  1  0
 40 42  1  0
 41 39  2  0
 44 45  1  0
 44 19  1  0
 46 44  1  0
 47 48  1  0
 49 60  2  0
 50 48  1  0
 50 55  1  0
 51 59  1  0
 51 61  1  0
 52 58  1  0
 52 54  1  0
 53 59  1  0
 54 53  1  0
 55 54  2  0
 56 57  1  0
 56 50  2  0
 57 52  2  0
 58 51  1  0
 59 49  1  0
 61 63  2  0
 62 61  1  0
 64 62  1  0
 65 74  2  0
 65 70  1  0
 66 62  1  0
 66 70  1  0
 67 66  1  0
 68 69  1  0
 68 67  1  0
 69 65  1  0
 70 71  2  0
 71 72  1  0
 73 72  2  0
 74 73  1  0
 75 49  1  0
 75 80  1  0
 75 76  1  0
 76 79  1  1
 76 77  1  0
 78 76  1  0
 80 83  1  0
 81 85  1  0
 81 80  1  0
 82 81  2  0
 85 84  1  0
 87 85  1  0
 87 88  1  0
 87 86  1  0
M  ISO  4  10 100  11 100  47 101  48 101
M  END
>  <TORSDO>  (91) 
F 20

>  <SCORE>  (91) 
-13.743

>  <name>  (91) 
90

>  <ligand_id>  (91) 
90

>  <original_smiles>  (91) 
[H]c1c([H])c([H])c2c(c1[H])C([H])([H])C([H])([H])C([H])([H])C2([H])N([H])C(=O)C1([H])N(C(=O)C([H])(N([H])C(=O)C([H])(N([H])C([H])([H])[H])C([H])([H])[H])C(C([H])([H])[H])(C([H])([H])[H])C([H])([H])[H])C([H])([H])c2c([H])c(OC([H])([H])C3([H])C([H])([H])C3([H])N=C(C([H])([H])[H])C3([H])C([H])([H])C3([H])C([H])([H])C(=O)N3C([H])([H])C([H])([H])C([H])([H])C([H])(n4nc(-c5c([H])c([H])c(Oc6c([H])c([H])c(F)c([H])c6F)c([H])c5[H])c(C(=O)N([H])[H])c4N([H])[H])C3([H])[H])c([H])c([H])c2C1([H])[H]

>  <smiles>  (91) 
[H]c1c([H])c([H])c2c(c1[H])C([H])([H])C([H])([H])C([H])([H])C2([H])N([H])C(=O)C1([H])N(C(=O)C([H])(N([H])C(=O)C([H])(N([H])C([H])([H])[H])C([H])([H])[H])C(C([H])([H])[H])(C([H])([H])[H])C([H])([H])[H])C([H])([H])c2c([H])c(OC([H])([H])C3([H])C([H])([H])C3([H])N=C(C([H])([H])[H])C3([H])C([H])([H])C3([H])C([H])([H])C(=O)N3C([H])([H])C([H])([H])C([H])([H])C([H])(n4nc(-c5c([H])c([H])c(Oc6c([H])c([H])c(F)c([H])c6F)c([H])c5[H])c(C(=O)N([H])[H])c4N([H])[H])C3([H])[H])c([H])c([H])c2C1([H])[H]

$$$$
91:0:0
     RDKit          3D

 95103  0  0  1  0  0  0  0  0999 V2000
  -27.2720  -19.4790   19.0220 C   0  0  0  0  0  2  0  0  0  0  0  0
  -28.0580  -18.1870   18.8260 C   0  0  0  0  0  2  0  0  0  0  0  0
  -28.0570  -20.6240   18.3740 C   0  0  0  0  0  3  0  0  0  0  0  0
  -29.1710  -18.4820   17.8010 C   0  0  0  0  0  3  0  0  0  0  0  0
  -28.9930  -19.9580   17.3480 C   0  0  0  0  0  3  0  0  0  0  0  0
  -28.3600  -20.0220   15.9500 C   0  0  0  0  0  1  0  0  0  0  0  0
  -30.9030  -16.6260   18.0910 C   0  0  0  0  0  1  0  0  0  0  0  0
  -30.5960  -18.1260   18.2930 C   0  0  0  0  0  3  0  0  0  0  0  0
  -30.8080  -18.6670   19.6640 N   0  0  0  0  0  4  0  0  0  0  0  0
  -31.3290  -19.5230   19.5550 H   0  0  0  0  0  0  0  0  0  0  0  0
  -29.9040  -18.9330   20.0180 H   0  0  0  0  0  0  0  0  0  0  0  0
  -31.5150  -17.8690   20.6970 C   0  0  0  0  0  2  0  0  0  0  0  0
  -30.5970  -17.2800   21.8050 C   0  0  0  0  0  2  0  0  0  0  0  0
  -29.8300  -15.9520   21.5550 C   0  0  0  0  0  2  0  0  0  0  0  0
  -30.6760  -14.7220   21.1520 C   0  0  0  0  0  0  0  0  0  0  0  0
  -30.5330  -12.5800   19.9520 C   0  0  0  0  0  2  0  0  0  0  0  0
  -29.6890  -12.8050   18.6790 C   0  0  0  0  0  2  0  0  0  0  0  0
  -28.1920  -12.5920   18.9800 C   0  0  0  0  0  2  0  0  0  0  0  0
  -27.7180  -13.4260   20.2060 C   0  0  0  0  0  3  0  0  0  0  0  0
  -28.6810  -13.2290   21.4030 C   0  0  0  0  0  2  0  0  0  0  0  0
  -30.0520  -13.5310   20.9650 N   0  0  0  0  0  0  0  0  0  0  0  0
  -31.8560  -14.8900   20.8320 O   0  0  0  0  0  0  0  0  0  0  0  0
  -25.2580  -13.9810   20.7290 C   0  0  0  0  0  0  0  0  0  0  0  0
  -24.1790  -13.1850   21.0040 C   0  0  0  0  0  0  0  0  0  0  0  0
  -24.6710  -11.8420   21.0040 C   0  0  0  0  0  0  0  0  0  0  0  0
  -26.3370  -13.1240   20.5730 N   0  0  0  0  0  0  0  0  0  0  0  0
  -25.9810  -11.8320   20.7940 N   0  0  0  0  0  0  0  0  0  0  0  0
  -23.9610  -10.5640   21.1300 C   0  0  0  0  0  0  0  0  0  0  0  0
  -24.3510   -9.5860   22.0730 C   0  0  0  0  0  3  0  0  0  0  0  0
  -23.6430   -8.3720   22.1810 C   0  0  0  0  0  3  0  0  0  0  0  0
  -22.5280   -8.1210   21.3460 C   0  0  0  0  0  0  0  0  0  0  0  0
  -22.1550   -9.0890   20.3950 C   0  0  0  0  0  3  0  0  0  0  0  0
  -22.8660  -10.2950   20.2870 C   0  0  0  0  0  3  0  0  0  0  0  0
  -21.8060   -6.9530   21.3590 O   0  0  0  0  0  0  0  0  0  0  0  0
  -21.7090   -6.1780   22.4890 C   0  0  0  0  0  0  0  0  0  0  0  0
  -21.2150   -6.6970   23.7070 C   0  0  0  0  0  3  0  0  0  0  0  0
  -21.0710   -5.8530   24.8260 C   0  0  0  0  0  3  0  0  0  0  0  0
  -21.4120   -4.4900   24.7260 C   0  0  0  0  0  0  0  0  0  0  0  0
  -21.8960   -3.9690   23.5130 C   0  0  0  0  0  3  0  0  0  0  0  0
  -22.0370   -4.8110   22.3960 C   0  0  0  0  0  0  0  0  0  0  0  0
  -22.4860   -4.3050   21.2210 F   0  0  0  0  0  0  0  0  0  0  0  0
  -21.2620   -3.6730   25.7940 F   0  0  0  0  0  0  0  0  0  0  0  0
  -22.7520  -13.6280   21.1620 C   0  0  0  0  0  0  0  0  0  0  0  0
  -21.9630  -12.9180   21.9590 N   0  0  0  0  0  0  0  0  0  0  0  0
  -22.3380  -14.6430   20.5980 O   0  0  0  0  0  0  0  0  0  0  0  0
  -22.2910  -12.0940   22.4440 H   0  0  0  0  0  0  0  0  0  0  0  0
  -21.0030  -13.2050   22.0960 H   0  0  0  0  0  0  0  0  0  0  0  0
  -25.4080  -15.3580   20.5830 N   0  0  0  0  0  0  0  0  0  0  0  0
  -24.6260  -15.9960   20.6750 H   0  0  0  0  0  0  0  0  0  0  0  0
  -26.2820  -15.8230   20.3740 H   0  0  0  0  0  0  0  0  0  0  0  0
  -28.7450  -21.6380   19.3360 C   0  0  0  0  0  2  0  0  0  0  0  0
  -28.5940  -23.0820   18.8150 C   0  0  0  0  0  2  0  0  0  0  0  0
  -29.1470  -24.2560   19.6770 C   0  0  0  0  0  2  0  0  0  0  0  0
  -28.1110  -25.3800   19.6240 C   0  0  0  0  0  2  0  0  0  0  0  0
  -28.3430  -26.7050   20.1510 O   0  0  0  0  0  0  0  0  0  0  0  0
  -24.5840  -31.9800   23.2640 C   0  0  0  0  0  0  0  0  0  0  0  0
  -27.1940  -27.4970   20.1620 C   0  0  0  0  0  0  0  0  0  0  0  0
  -23.3760  -30.5720   21.6450 C   0  0  0  0  0  3  0  0  0  0  0  0
  -24.8160  -29.0490   20.2140 C   0  0  0  0  0  0  0  0  0  0  0  0
  -25.9130  -30.9140   21.4420 C   0  0  0  0  0  2  0  0  0  0  0  0
  -25.9880  -29.5440   20.7970 C   0  0  0  0  0  0  0  0  0  0  0  0
  -27.1840  -28.7760   20.7750 C   0  0  0  0  0  3  0  0  0  0  0  0
  -25.9830  -27.0500   19.5660 C   0  0  0  0  0  3  0  0  0  0  0  0
  -24.8080  -27.7990   19.5980 C   0  0  0  0  0  3  0  0  0  0  0  0
  -23.5770  -29.9040   20.2650 C   0  0  0  0  0  2  0  0  0  0  0  0
  -24.6450  -31.1680   22.1720 N   0  0  0  0  0  0  0  0  0  0  0  0
  -23.5050  -32.2570   23.8010 O   0  0  0  0  0  0  0  0  0  0  0  0
  -22.7320  -29.5440   22.6040 C   0  0  0  0  0  0  0  0  0  0  0  0
  -21.4080  -29.3490   22.4730 N   0  0  0  0  0  0  0  0  0  0  0  0
  -23.4180  -28.9310   23.4260 O   0  0  0  0  0  0  0  0  0  0  0  0
  -20.9150  -29.8960   21.7810 H   0  0  0  0  0  0  0  0  0  0  0  0
  -18.0370  -28.1450   22.9660 C   0  0  0  0  0  0  0  0  0  0  0  0
  -20.5930  -28.4160   23.2510 C   0  0  0  0  0  3  0  0  0  0  0  0
  -20.7040  -26.9780   22.6930 C   0  0  0  0  0  2  0  0  0  0  0  0
  -19.6090  -26.6400   21.6760 C   0  0  0  0  0  2  0  0  0  0  0  0
  -18.2230  -26.7870   22.3110 C   0  0  0  0  0  2  0  0  0  0  0  0
  -19.1500  -28.9160   23.3930 C   0  0  0  0  0  0  0  0  0  0  0  0
  -18.9210  -30.1890   23.9620 C   0  0  0  0  0  3  0  0  0  0  0  0
  -17.6140  -30.6880   24.1090 C   0  0  0  0  0  3  0  0  0  0  0  0
  -16.5150  -29.9120   23.7030 C   0  0  0  0  0  3  0  0  0  0  0  0
  -16.7290  -28.6420   23.1360 C   0  0  0  0  0  3  0  0  0  0  0  0
  -25.8710  -32.6160   23.8750 C   0  0  0  0  0  3  0  0  0  0  0  0
  -26.3950  -31.8480   25.1500 C   0  0  1  0  0  0  0  0  0  0  0  0
  -25.3070  -31.6040   26.2210 C   0  0  0  0  0  1  0  0  0  0  0  0
  -26.9800  -30.4700   24.7560 C   0  0  0  0  0  1  0  0  0  0  0  0
  -27.5470  -32.6460   25.8010 C   0  0  0  0  0  1  0  0  0  0  0  0
  -25.5580  -34.0130   24.1970 N   0  0  0  0  0  0  0  0  0  0  0  0
  -25.9050  -35.0620   23.4390 C   0  0  0  0  0  0  0  0  0  0  0  0
  -26.5910  -34.9540   22.4190 O   0  0  0  0  0  0  0  0  0  0  0  0
  -24.9370  -34.1720   24.9770 H   0  0  0  0  0  0  0  0  0  0  0  0
  -24.1860  -36.8520   23.0450 C   0  0  0  0  0  1  0  0  0  0  0  0
  -25.4090  -36.4510   23.8830 C   0  0  0  0  0  3  0  0  0  0  0  0
  -27.5320  -37.3260   24.7520 C   0  0  0  0  0  1  0  0  0  0  0  0
  -26.4470  -37.5020   23.7900 N   0  0  0  0  0  0  0  0  0  0  0  0
  -26.0420  -38.4230   23.9360 H   0  0  0  0  0  0  0  0  0  0  0  0
  2  1  1  0
  3  1  1  0
  3 51  1  0
  4  8  1  0
  4  2  1  0
  5  6  1  0
  5  4  1  0
  5  3  1  0
  8  7  1  0
  8  9  1  0
  9 11  1  0
  9 12  1  0
 10  9  1  0
 12 13  1  0
 14 13  1  0
 15 14  1  0
 16 21  1  0
 17 18  1  0
 17 16  1  0
 19 18  1  0
 19 26  1  0
 19 20  1  0
 21 15  1  0
 21 20  1  0
 22 15  2  0
 23 24  2  0
 24 25  1  0
 24 43  1  0
 25 28  1  0
 26 23  1  0
 26 27  1  0
 27 25  2  0
 28 29  1  0
 29 30  2  0
 31 34  1  0
 31 30  1  0
 32 31  2  0
 33 32  1  0
 33 28  2  0
 34 35  1  0
 35 36  1  0
 36 37  2  0
 38 37  1  0
 38 42  1  0
 39 38  2  0
 40 35  2  0
 40 39  1  0
 41 40  1  0
 43 44  1  0
 44 47  1  0
 44 46  1  0
 45 43  2  0
 48 49  1  0
 48 23  1  0
 50 48  1  0
 52 51  1  0
 52 53  1  0
 54 53  1  0
 54 55  1  0
 55 57  1  0
 56 67  2  0
 57 62  1  0
 58 66  1  0
 58 68  1  0
 59 65  1  0
 59 61  1  0
 60 66  1  0
 61 60  1  0
 62 61  2  0
 63 64  1  0
 63 57  2  0
 64 59  2  0
 65 58  1  0
 66 56  1  0
 68 70  2  0
 69 68  1  0
 71 69  1  0
 72 81  2  0
 72 77  1  0
 73 69  1  0
 73 77  1  0
 74 73  1  0
 75 76  1  0
 75 74  1  0
 76 72  1  0
 77 78  2  0
 78 79  1  0
 80 79  2  0
 81 80  1  0
 82 56  1  0
 82 87  1  0
 82 83  1  0
 83 86  1  1
 83 84  1  0
 85 83  1  0
 87 90  1  0
 88 92  1  0
 88 87  1  0
 89 88  2  0
 92 91  1  0
 94 92  1  0
 94 95  1  0
 94 93  1  0
M  ISO  4  14 100  15 100  54 101  55 101
M  END
>  <TORSDO>  (92) 
F 25

>  <SCORE>  (92) 
-11.920

>  <name>  (92) 
91

>  <ligand_id>  (92) 
91

>  <original_smiles>  (92) 
[H]c1c([H])c([H])c2c(c1[H])C([H])([H])C([H])([H])C([H])([H])C2([H])N([H])C(=O)C1([H])N(C(=O)C([H])(N([H])C(=O)C([H])(N([H])C([H])([H])[H])C([H])([H])[H])C(C([H])([H])[H])(C([H])([H])[H])C([H])([H])[H])C([H])([H])c2c([H])c(OC([H])([H])C([H])([H])C([H])([H])C([H])([H])C3([H])C([H])([H])C([H])([H])C([H])(C([H])(C([H])([H])[H])[N+]([H])([H])C([H])([H])C([H])([H])C([H])([H])C(=O)N4C([H])([H])C([H])([H])C([H])([H])C([H])(n5nc(-c6c([H])c([H])c(Oc7c([H])c([H])c(F)c([H])c7F)c([H])c6[H])c(C(=O)N([H])[H])c5N([H])[H])C4([H])[H])C3([H])C([H])([H])[H])c([H])c([H])c2C1([H])[H]

>  <smiles>  (92) 
[H]c1c([H])c([H])c2c(c1[H])C([H])([H])C([H])([H])C([H])([H])C2([H])N([H])C(=O)C1([H])N(C(=O)C([H])(N([H])C(=O)C([H])(N([H])C([H])([H])[H])C([H])([H])[H])C(C([H])([H])[H])(C([H])([H])[H])C([H])([H])[H])C([H])([H])c2c([H])c(OC([H])([H])C([H])([H])C([H])([H])C([H])([H])C3([H])C([H])([H])C([H])([H])C([H])(C([H])(C([H])([H])[H])[N+]([H])([H])C([H])([H])C([H])([H])C([H])([H])C(=O)N4C([H])([H])C([H])([H])C([H])([H])C([H])(n5nc(-c6c([H])c([H])c(Oc7c([H])c([H])c(F)c([H])c7F)c([H])c6[H])c(C(=O)N([H])[H])c5N([H])[H])C4([H])[H])C3([H])C([H])([H])[H])c([H])c([H])c2C1([H])[H]

$$$$
92:0:0
     RDKit          3D

 93102  0  0  1  0  0  0  0  0999 V2000
  -29.6310  -20.5060   20.3340 N   0  0  0  0  0  4  0  0  0  0  0  0
  -30.4910  -20.3680   20.8400 H   0  0  0  0  0  0  0  0  0  0  0  0
  -29.8830  -20.6810   19.3750 H   0  0  0  0  0  0  0  0  0  0  0  0
  -27.6310  -19.3350   19.4440 C   0  0  0  0  0  1  0  0  0  0  0  0
  -28.8470  -19.2330   20.3990 C   0  0  0  0  0  3  0  0  0  0  0  0
  -30.6160  -17.7250   22.6350 C   0  0  0  0  0  2  0  0  0  0  0  0
  -31.8040  -17.4630   21.7360 C   0  0  0  0  0  2  0  0  0  0  0  0
  -29.7340  -15.8900   20.8590 C   0  0  0  0  0  3  0  0  0  0  0  0
  -29.0600  -16.6340   19.6670 C   0  0  0  0  0  3  0  0  0  0  0  0
  -29.7280  -17.9730   20.0670 C   0  0  0  0  0  3  0  0  0  0  0  0
  -30.3990  -17.2230   21.2240 C   0  0  1  0  0  0  0  0  0  0  0  0
  -29.2120  -16.2080   18.2030 C   0  0  0  0  0  1  0  0  0  0  0  0
  -30.5940  -14.6220   20.4950 C   0  0  0  0  0  0  0  0  0  0  0  0
  -30.4080  -12.3960   19.4380 C   0  0  0  0  0  2  0  0  0  0  0  0
  -29.4800  -12.5430   18.2100 C   0  0  0  0  0  2  0  0  0  0  0  0
  -27.9920  -12.4290   18.6100 C   0  0  0  0  0  2  0  0  0  0  0  0
  -27.6270  -13.2720   19.8620 C   0  0  0  0  0  3  0  0  0  0  0  0
  -28.6690  -13.0660   20.9810 C   0  0  0  0  0  2  0  0  0  0  0  0
  -29.9930  -13.3980   20.4340 N   0  0  0  0  0  0  0  0  0  0  0  0
  -31.7580  -14.7840   20.1130 O   0  0  0  0  0  0  0  0  0  0  0  0
  -25.2210  -13.8910   20.5340 C   0  0  0  0  0  0  0  0  0  0  0  0
  -24.1470  -13.1230   20.8920 C   0  0  0  0  0  0  0  0  0  0  0  0
  -24.6050  -11.7710   20.8710 C   0  0  0  0  0  0  0  0  0  0  0  0
  -26.2680  -13.0060   20.3220 N   0  0  0  0  0  0  0  0  0  0  0  0
  -25.9000  -11.7260   20.5820 N   0  0  0  0  0  0  0  0  0  0  0  0
  -23.8750  -10.5110   21.0530 C   0  0  0  0  0  0  0  0  0  0  0  0
  -24.2900   -9.5490   21.9990 C   0  0  0  0  0  3  0  0  0  0  0  0
  -23.5620   -8.3510   22.1690 C   0  0  0  0  0  3  0  0  0  0  0  0
  -22.4050   -8.1090   21.3910 C   0  0  0  0  0  0  0  0  0  0  0  0
  -22.0100   -9.0600   20.4340 C   0  0  0  0  0  3  0  0  0  0  0  0
  -22.7390  -10.2480   20.2620 C   0  0  0  0  0  3  0  0  0  0  0  0
  -21.6500   -6.9640   21.4690 O   0  0  0  0  0  0  0  0  0  0  0  0
  -21.5770   -6.2270   22.6240 C   0  0  0  0  0  0  0  0  0  0  0  0
  -21.1150   -6.7850   23.8370 C   0  0  0  0  0  3  0  0  0  0  0  0
  -20.9910   -5.9740   24.9820 C   0  0  0  0  0  3  0  0  0  0  0  0
  -21.3190   -4.6070   24.9170 C   0  0  0  0  0  0  0  0  0  0  0  0
  -21.7750   -4.0490   23.7090 C   0  0  0  0  0  3  0  0  0  0  0  0
  -21.9010   -4.8570   22.5650 C   0  0  0  0  0  0  0  0  0  0  0  0
  -22.3210   -4.3100   21.3990 F   0  0  0  0  0  0  0  0  0  0  0  0
  -21.1920   -3.8260   26.0140 F   0  0  0  0  0  0  0  0  0  0  0  0
  -22.7470  -13.6040   21.1440 C   0  0  0  0  0  0  0  0  0  0  0  0
  -22.0020  -12.9040   21.9940 N   0  0  0  0  0  0  0  0  0  0  0  0
  -22.3210  -14.6350   20.6260 O   0  0  0  0  0  0  0  0  0  0  0  0
  -22.3580  -12.0680   22.4330 H   0  0  0  0  0  0  0  0  0  0  0  0
  -21.0630  -13.2080   22.2070 H   0  0  0  0  0  0  0  0  0  0  0  0
  -25.3920  -15.2600   20.3530 N   0  0  0  0  0  0  0  0  0  0  0  0
  -24.6260  -15.9190   20.4460 H   0  0  0  0  0  0  0  0  0  0  0  0
  -26.2480  -15.6880   20.0290 H   0  0  0  0  0  0  0  0  0  0  0  0
  -28.9870  -21.7380   20.8950 C   0  0  0  0  0  2  0  0  0  0  0  0
  -29.0340  -22.9660   19.9330 C   0  0  0  0  0  2  0  0  0  0  0  0
  -28.4790  -24.3000   20.5210 C   0  0  0  0  0  2  0  0  0  0  0  0
  -28.6160  -25.5210   19.5690 C   0  0  0  0  0  2  0  0  0  0  0  0
  -28.4290  -26.7970   20.2140 O   0  0  0  0  0  0  0  0  0  0  0  0
  -24.5510  -31.9340   23.2550 C   0  0  0  0  0  0  0  0  0  0  0  0
  -27.2220  -27.4760   20.1880 C   0  0  0  0  0  0  0  0  0  0  0  0
  -23.3540  -30.5260   21.6120 C   0  0  0  0  0  3  0  0  0  0  0  0
  -24.8150  -28.9830   20.1960 C   0  0  0  0  0  0  0  0  0  0  0  0
  -25.8790  -30.8860   21.4220 C   0  0  0  0  0  2  0  0  0  0  0  0
  -25.9690  -29.5100   20.7860 C   0  0  0  0  0  0  0  0  0  0  0  0
  -27.1690  -28.7620   20.7800 C   0  0  0  0  0  3  0  0  0  0  0  0
  -26.0400  -26.9590   19.6070 C   0  0  0  0  0  3  0  0  0  0  0  0
  -24.8450  -27.7060   19.6070 C   0  0  0  0  0  3  0  0  0  0  0  0
  -23.5690  -29.8400   20.2350 C   0  0  0  0  0  2  0  0  0  0  0  0
  -24.6130  -31.1310   22.1550 N   0  0  0  0  0  0  0  0  0  0  0  0
  -23.4680  -32.2040   23.7930 O   0  0  0  0  0  0  0  0  0  0  0  0
  -22.7010  -29.5060   22.5740 C   0  0  0  0  0  0  0  0  0  0  0  0
  -21.3770  -29.3230   22.4450 N   0  0  0  0  0  0  0  0  0  0  0  0
  -23.3830  -28.8820   23.3910 O   0  0  0  0  0  0  0  0  0  0  0  0
  -20.8870  -29.8790   21.7580 H   0  0  0  0  0  0  0  0  0  0  0  0
  -18.0000  -28.1420   22.9520 C   0  0  0  0  0  0  0  0  0  0  0  0
  -20.5600  -28.3850   23.2140 C   0  0  0  0  0  3  0  0  0  0  0  0
  -20.6530  -26.9560   22.6280 C   0  0  0  0  0  2  0  0  0  0  0  0
  -19.5450  -26.6460   21.6170 C   0  0  0  0  0  2  0  0  0  0  0  0
  -18.1670  -26.7950   22.2680 C   0  0  0  0  0  2  0  0  0  0  0  0
  -19.1250  -28.8950   23.3820 C   0  0  0  0  0  0  0  0  0  0  0  0
  -18.9160  -30.1570   23.9800 C   0  0  0  0  0  3  0  0  0  0  0  0
  -17.6150  -30.6650   24.1520 C   0  0  0  0  0  3  0  0  0  0  0  0
  -16.5040  -29.9080   23.7390 C   0  0  0  0  0  3  0  0  0  0  0  0
  -16.6980  -28.6480   23.1450 C   0  0  0  0  0  3  0  0  0  0  0  0
  -25.8340  -32.5690   23.8780 C   0  0  0  0  0  3  0  0  0  0  0  0
  -25.5270  -33.9720   24.1890 N   0  0  0  0  0  0  0  0  0  0  0  0
  -25.8810  -35.0150   23.4260 C   0  0  0  0  0  0  0  0  0  0  0  0
  -26.5710  -34.8980   22.4090 O   0  0  0  0  0  0  0  0  0  0  0  0
  -24.9170  -34.1380   24.9750 H   0  0  0  0  0  0  0  0  0  0  0  0
  -24.1840  -36.8210   23.0050 C   0  0  0  0  0  1  0  0  0  0  0  0
  -25.3930  -36.4100   23.8600 C   0  0  0  0  0  3  0  0  0  0  0  0
  -27.5050  -37.2800   24.7590 C   0  0  0  0  0  1  0  0  0  0  0  0
  -26.4390  -37.4520   23.7760 N   0  0  0  0  0  0  0  0  0  0  0  0
  -26.0370  -38.3770   23.9040 H   0  0  0  0  0  0  0  0  0  0  0  0
  -26.3410  -31.8110   25.1660 C   0  0  1  0  0  0  0  0  0  0  0  0
  -25.2410  -31.5850   26.2280 C   0  0  0  0  0  1  0  0  0  0  0  0
  -26.9260  -30.4300   24.7900 C   0  0  0  0  0  1  0  0  0  0  0  0
  -27.4870  -32.6110   25.8280 C   0  0  0  0  0  1  0  0  0  0  0  0
  1  5  1  0
  1  2  1  0
  1 49  1  0
  3  1  1  0
  5  4  1  0
  7  6  1  0
  8 13  1  0
  8 11  1  0
  9 12  1  0
  9 10  1  0
  9  8  1  0
 10  5  1  0
 10 11  1  0
 11  7  1  6
 11  6  1  0
 14 19  1  0
 15 16  1  0
 15 14  1  0
 17 16  1  0
 17 24  1  0
 17 18  1  0
 19 13  1  0
 19 18  1  0
 20 13  2  0
 21 22  2  0
 22 41  1  0
 23 22  1  0
 23 26  1  0
 24 21  1  0
 24 25  1  0
 25 23  2  0
 26 27  1  0
 27 28  2  0
 29 32  1  0
 29 28  1  0
 30 29  2  0
 31 30  1  0
 31 26  2  0
 32 33  1  0
 33 34  1  0
 34 35  2  0
 36 35  1  0
 36 40  1  0
 37 36  2  0
 38 33  2  0
 38 37  1  0
 39 38  1  0
 41 42  1  0
 42 45  1  0
 42 44  1  0
 43 41  2  0
 46 47  1  0
 46 21  1  0
 48 46  1  0
 50 51  1  0
 50 49  1  0
 52 53  1  0
 52 51  1  0
 54 65  2  0
 55 53  1  0
 55 60  1  0
 56 64  1  0
 56 66  1  0
 57 63  1  0
 57 59  1  0
 58 64  1  0
 59 58  1  0
 60 59  2  0
 61 55  2  0
 62 61  1  0
 62 57  2  0
 63 56  1  0
 64 54  1  0
 66 68  2  0
 67 66  1  0
 69 67  1  0
 70 79  2  0
 70 75  1  0
 71 67  1  0
 71 75  1  0
 72 71  1  0
 73 74  1  0
 73 72  1  0
 74 70  1  0
 75 76  2  0
 76 77  1  0
 78 77  2  0
 79 78  1  0
 80 54  1  0
 80 81  1  0
 80 90  1  0
 81 84  1  0
 82 86  1  0
 82 81  1  0
 83 82  2  0
 86 85  1  0
 88 86  1  0
 88 89  1  0
 88 87  1  0
 90 93  1  1
 90 91  1  0
 92 90  1  0
M  ISO  4   8 100  13 100  52 101  53 101
M  END
>  <TORSDO>  (93) 
F 22

>  <SCORE>  (93) 
-12.167

>  <name>  (93) 
92

>  <ligand_id>  (93) 
92

>  <original_smiles>  (93) 
[H]c1c([H])c([H])c2c(c1[H])C([H])([H])C([H])([H])C([H])([H])C2([H])N([H])C(=O)C1([H])N(C(=O)C([H])(N([H])C(=O)C([H])(N([H])C([H])([H])[H])C([H])([H])[H])C(C([H])([H])[H])(C([H])([H])[H])C([H])([H])[H])C([H])([H])c2c([H])c(OC([H])([H])C([H])([H])C([H])([H])C([H])([H])[N+]([H])([H])C([H])(C([H])([H])[H])C3([H])C([H])(C([H])([H])[H])C([H])(C(=O)N4C([H])([H])C([H])([H])C([H])([H])C([H])(n5nc(-c6c([H])c([H])c(Oc7c([H])c([H])c(F)c([H])c7F)c([H])c6[H])c(C(=O)N([H])[H])c5N([H])[H])C4([H])[H])C34C([H])([H])C4([H])[H])c([H])c([H])c2C1([H])[H]

>  <smiles>  (93) 
[H]c1c([H])c([H])c2c(c1[H])C([H])([H])C([H])([H])C([H])([H])C2([H])N([H])C(=O)C1([H])N(C(=O)C([H])(N([H])C(=O)C([H])(N([H])C([H])([H])[H])C([H])([H])[H])C(C([H])([H])[H])(C([H])([H])[H])C([H])([H])[H])C([H])([H])c2c([H])c(OC([H])([H])C([H])([H])C([H])([H])C([H])([H])[N+]([H])([H])C([H])(C([H])([H])[H])C3([H])C([H])(C([H])([H])[H])C([H])(C(=O)N4C([H])([H])C([H])([H])C([H])([H])C([H])(n5nc(-c6c([H])c([H])c(Oc7c([H])c([H])c(F)c([H])c7F)c([H])c6[H])c(C(=O)N([H])[H])c5N([H])[H])C4([H])[H])C34C([H])([H])C4([H])[H])c([H])c([H])c2C1([H])[H]

$$$$
93:0:0
     RDKit          3D

 91 99  0  0  1  0  0  0  0  0999 V2000
  -28.4820  -22.4350   19.4460 C   0  0  0  0  0  0  0  0  0  0  0  0
  -28.1950  -22.2810   18.1410 C   0  0  0  0  0  2  0  0  0  0  0  0
  -29.2950  -23.5400   21.3920 C   0  0  0  0  0  2  0  0  0  0  0  0
  -28.2940  -23.7670   20.2460 C   0  0  0  0  0  3  0  0  0  0  0  0
  -29.2370  -21.3490   20.2650 C   0  0  0  0  0  3  0  0  0  0  0  0
  -29.3030  -22.0030   21.6640 C   0  0  0  0  0  3  0  0  0  0  0  0
  -30.5100  -21.5230   22.4860 C   0  0  0  0  0  1  0  0  0  0  0  0
  -28.7330  -19.9040   20.2050 N   0  0  0  0  0  4  0  0  0  0  0  0
  -28.5960  -19.7020   19.2310 H   0  0  0  0  0  0  0  0  0  0  0  0
  -27.8260  -19.8620   20.6390 H   0  0  0  0  0  0  0  0  0  0  0  0
  -29.5910  -18.7690   20.7750 C   0  0  0  0  0  2  0  0  0  0  0  0
  -29.4290  -17.2830   20.1620 C   0  0  0  0  0  2  0  0  0  0  0  0
  -29.7850  -15.9850   21.0550 C   0  0  0  0  0  2  0  0  0  0  0  0
  -30.5350  -14.7090   20.4350 C   0  0  0  0  0  0  0  0  0  0  0  0
  -30.3900  -12.4700   19.3360 C   0  0  0  0  0  2  0  0  0  0  0  0
  -29.4490  -12.5780   18.1140 C   0  0  0  0  0  2  0  0  0  0  0  0
  -27.9710  -12.4210   18.5240 C   0  0  0  0  0  2  0  0  0  0  0  0
  -27.6050  -13.2750   19.7660 C   0  0  0  0  0  3  0  0  0  0  0  0
  -28.6470  -13.0800   20.8840 C   0  0  0  0  0  2  0  0  0  0  0  0
  -29.9510  -13.4690   20.3350 N   0  0  0  0  0  0  0  0  0  0  0  0
  -31.6780  -14.8710   19.9900 O   0  0  0  0  0  0  0  0  0  0  0  0
  -25.2110  -13.8950   20.4550 C   0  0  0  0  0  0  0  0  0  0  0  0
  -24.1380  -13.1320   20.8210 C   0  0  0  0  0  0  0  0  0  0  0  0
  -24.5920  -11.7770   20.8080 C   0  0  0  0  0  0  0  0  0  0  0  0
  -26.2500  -13.0060   20.2370 N   0  0  0  0  0  0  0  0  0  0  0  0
  -25.8830  -11.7280   20.5080 N   0  0  0  0  0  0  0  0  0  0  0  0
  -23.8570  -10.5210   21.0030 C   0  0  0  0  0  0  0  0  0  0  0  0
  -24.2810   -9.5530   21.9430 C   0  0  0  0  0  3  0  0  0  0  0  0
  -23.5470   -8.3620   22.1250 C   0  0  0  0  0  3  0  0  0  0  0  0
  -22.3740   -8.1290   21.3690 C   0  0  0  0  0  0  0  0  0  0  0  0
  -21.9700   -9.0820   20.4180 C   0  0  0  0  0  3  0  0  0  0  0  0
  -22.7040  -10.2660   20.2330 C   0  0  0  0  0  3  0  0  0  0  0  0
  -21.6120   -6.9890   21.4610 O   0  0  0  0  0  0  0  0  0  0  0  0
  -21.5640   -6.2480   22.6150 C   0  0  0  0  0  0  0  0  0  0  0  0
  -21.1540   -6.8080   23.8440 C   0  0  0  0  0  3  0  0  0  0  0  0
  -21.0510   -5.9940   24.9900 C   0  0  0  0  0  3  0  0  0  0  0  0
  -21.3490   -4.6200   24.9050 C   0  0  0  0  0  0  0  0  0  0  0  0
  -21.7540   -4.0600   23.6820 C   0  0  0  0  0  3  0  0  0  0  0  0
  -21.8580   -4.8720   22.5390 C   0  0  0  0  0  0  0  0  0  0  0  0
  -22.2250   -4.3240   21.3560 F   0  0  0  0  0  0  0  0  0  0  0  0
  -21.2440   -3.8350   26.0030 F   0  0  0  0  0  0  0  0  0  0  0  0
  -22.7390  -13.6160   21.0800 C   0  0  0  0  0  0  0  0  0  0  0  0
  -22.0070  -12.9290   21.9470 N   0  0  0  0  0  0  0  0  0  0  0  0
  -22.3090  -14.6400   20.5470 O   0  0  0  0  0  0  0  0  0  0  0  0
  -22.3680  -12.1000   22.3960 H   0  0  0  0  0  0  0  0  0  0  0  0
  -21.0670  -13.2320   22.1660 H   0  0  0  0  0  0  0  0  0  0  0  0
  -25.3870  -15.2650   20.2690 N   0  0  0  0  0  0  0  0  0  0  0  0
  -24.6320  -15.9330   20.3750 H   0  0  0  0  0  0  0  0  0  0  0  0
  -26.2480  -15.6860   19.9470 H   0  0  0  0  0  0  0  0  0  0  0  0
  -28.4280  -25.1680   19.4640 C   0  0  0  0  0  2  0  0  0  0  0  0
  -28.3380  -26.4800   20.1610 O   0  0  0  0  0  0  0  0  0  0  0  0
  -24.6080  -31.8760   23.2240 C   0  0  0  0  0  0  0  0  0  0  0  0
  -27.1970  -27.3030   20.1260 C   0  0  0  0  0  0  0  0  0  0  0  0
  -23.3960  -30.4770   21.5930 C   0  0  0  0  0  3  0  0  0  0  0  0
  -24.8340  -28.9230   20.1580 C   0  0  0  0  0  0  0  0  0  0  0  0
  -25.9350  -30.7900   21.3920 C   0  0  0  0  0  2  0  0  0  0  0  0
  -26.0090  -29.4090   20.7430 C   0  0  0  0  0  0  0  0  0  0  0  0
  -27.1900  -28.6090   20.7230 C   0  0  0  0  0  3  0  0  0  0  0  0
  -25.9890  -26.8640   19.5420 C   0  0  0  0  0  3  0  0  0  0  0  0
  -24.8250  -27.6560   19.5550 C   0  0  0  0  0  3  0  0  0  0  0  0
  -23.5960  -29.7940   20.2170 C   0  0  0  0  0  2  0  0  0  0  0  0
  -24.6680  -31.0640   22.1270 N   0  0  0  0  0  0  0  0  0  0  0  0
  -23.5270  -32.1540   23.7610 O   0  0  0  0  0  0  0  0  0  0  0  0
  -22.7390  -29.4610   22.5570 C   0  0  0  0  0  0  0  0  0  0  0  0
  -21.4120  -29.2840   22.4330 N   0  0  0  0  0  0  0  0  0  0  0  0
  -23.4230  -28.8330   23.3680 O   0  0  0  0  0  0  0  0  0  0  0  0
  -20.9190  -29.8460   21.7520 H   0  0  0  0  0  0  0  0  0  0  0  0
  -18.0370  -28.0890   22.9380 C   0  0  0  0  0  0  0  0  0  0  0  0
  -20.5950  -28.3440   23.2040 C   0  0  0  0  0  3  0  0  0  0  0  0
  -20.6940  -26.9130   22.6260 C   0  0  0  0  0  2  0  0  0  0  0  0
  -19.5890  -26.5940   21.6130 C   0  0  0  0  0  2  0  0  0  0  0  0
  -18.2100  -26.7400   22.2620 C   0  0  0  0  0  2  0  0  0  0  0  0
  -19.1570  -28.8490   23.3660 C   0  0  0  0  0  0  0  0  0  0  0  0
  -18.9420  -30.1120   23.9580 C   0  0  0  0  0  3  0  0  0  0  0  0
  -17.6390  -30.6170   24.1230 C   0  0  0  0  0  3  0  0  0  0  0  0
  -16.5320  -29.8530   23.7140 C   0  0  0  0  0  3  0  0  0  0  0  0
  -16.7310  -28.5900   23.1280 C   0  0  0  0  0  3  0  0  0  0  0  0
  -25.8930  -32.5080   23.8430 C   0  0  0  0  0  3  0  0  0  0  0  0
  -25.5800  -33.9050   24.1750 N   0  0  0  0  0  0  0  0  0  0  0  0
  -25.9160  -34.9610   23.4220 C   0  0  0  0  0  0  0  0  0  0  0  0
  -26.5880  -34.8620   22.3920 O   0  0  0  0  0  0  0  0  0  0  0  0
  -24.9650  -34.0540   24.9610 H   0  0  0  0  0  0  0  0  0  0  0  0
  -24.1840  -36.7560   23.0830 C   0  0  0  0  0  1  0  0  0  0  0  0
  -25.4290  -36.3470   23.8860 C   0  0  0  0  0  3  0  0  0  0  0  0
  -27.5690  -37.2240   24.7150 C   0  0  0  0  0  1  0  0  0  0  0  0
  -26.4620  -37.4020   23.7780 N   0  0  0  0  0  0  0  0  0  0  0  0
  -26.0560  -38.3210   23.9390 H   0  0  0  0  0  0  0  0  0  0  0  0
  -26.4130  -31.7380   25.1190 C   0  0  1  0  0  0  0  0  0  0  0  0
  -25.3210  -31.4970   26.1870 C   0  0  0  0  0  1  0  0  0  0  0  0
  -26.9970  -30.3620   24.7260 C   0  0  0  0  0  1  0  0  0  0  0  0
  -27.5630  -32.5340   25.7790 C   0  0  0  0  0  1  0  0  0  0  0  0
  1  4  1  0
  1  5  1  0
  2  1  2  0
  3  6  1  0
  4 50  1  0
  4  3  1  0
  5  8  1  0
  5  6  1  0
  6  7  1  0
  8 10  1  0
  8 11  1  0
  9  8  1  0
 12 11  1  0
 12 13  1  0
 14 13  1  0
 15 20  1  0
 16 17  1  0
 16 15  1  0
 18 17  1  0
 18 25  1  0
 18 19  1  0
 20 14  1  0
 20 19  1  0
 21 14  2  0
 22 23  2  0
 23 42  1  0
 24 23  1  0
 24 27  1  0
 25 22  1  0
 25 26  1  0
 26 24  2  0
 27 28  1  0
 28 29  2  0
 30 33  1  0
 30 29  1  0
 31 30  2  0
 32 31  1  0
 32 27  2  0
 33 34  1  0
 34 35  1  0
 35 36  2  0
 37 36  1  0
 37 41  1  0
 38 37  2  0
 39 34  2  0
 39 38  1  0
 40 39  1  0
 42 43  1  0
 43 46  1  0
 43 45  1  0
 44 42  2  0
 47 48  1  0
 47 22  1  0
 49 47  1  0
 50 51  1  0
 52 63  2  0
 53 51  1  0
 53 58  1  0
 54 62  1  0
 54 64  1  0
 55 61  1  0
 55 57  1  0
 56 62  1  0
 57 56  1  0
 58 57  2  0
 59 60  1  0
 59 53  2  0
 60 55  2  0
 61 54  1  0
 62 52  1  0
 64 66  2  0
 65 64  1  0
 67 65  1  0
 68 77  2  0
 68 73  1  0
 69 65  1  0
 69 73  1  0
 70 69  1  0
 71 72  1  0
 71 70  1  0
 72 68  1  0
 73 74  2  0
 74 75  1  0
 76 75  2  0
 77 76  1  0
 78 52  1  0
 78 79  1  0
 78 88  1  0
 79 82  1  0
 80 84  1  0
 80 79  1  0
 81 80  2  0
 84 83  1  0
 86 84  1  0
 86 87  1  0
 86 85  1  0
 88 91  1  1
 88 89  1  0
 90 88  1  0
M  ISO  4  13 100  14 100  50 101  51 101
M  END
>  <TORSDO>  (94) 
F 21

>  <SCORE>  (94) 
-13.589

>  <name>  (94) 
93

>  <ligand_id>  (94) 
93

>  <original_smiles>  (94) 
[H]C([H])=C1C([H])(C([H])([H])Oc2c([H])c([H])c3c(c2[H])C([H])([H])N(C(=O)C([H])(N([H])C(=O)C([H])(N([H])C([H])([H])[H])C([H])([H])[H])C(C([H])([H])[H])(C([H])([H])[H])C([H])([H])[H])C([H])(C(=O)N([H])C2([H])c4c([H])c([H])c([H])c([H])c4C([H])([H])C([H])([H])C2([H])[H])C3([H])[H])C([H])([H])C([H])(C([H])([H])[H])C1([H])[N+]([H])([H])C([H])([H])C([H])([H])C([H])([H])C(=O)N1C([H])([H])C([H])([H])C([H])([H])C([H])(n2nc(-c3c([H])c([H])c(Oc4c([H])c([H])c(F)c([H])c4F)c([H])c3[H])c(C(=O)N([H])[H])c2N([H])[H])C1([H])[H]

>  <smiles>  (94) 
[H]C([H])=C1C([H])(C([H])([H])Oc2c([H])c([H])c3c(c2[H])C([H])([H])N(C(=O)C([H])(N([H])C(=O)C([H])(N([H])C([H])([H])[H])C([H])([H])[H])C(C([H])([H])[H])(C([H])([H])[H])C([H])([H])[H])C([H])(C(=O)N([H])C2([H])c4c([H])c([H])c([H])c([H])c4C([H])([H])C([H])([H])C2([H])[H])C3([H])[H])C([H])([H])C([H])(C([H])([H])[H])C1([H])[N+]([H])([H])C([H])([H])C([H])([H])C([H])([H])C(=O)N1C([H])([H])C([H])([H])C([H])([H])C([H])(n2nc(-c3c([H])c([H])c(Oc4c([H])c([H])c(F)c([H])c4F)c([H])c3[H])c(C(=O)N([H])[H])c2N([H])[H])C1([H])[H]

$$$$
94:0:0
     RDKit          3D

 96104  0  0  1  0  0  0  0  0999 V2000
  -34.0390  -19.6760   21.1820 C   0  0  0  0  0  2  0  0  0  0  0  0
  -34.3870  -20.9710   20.3920 C   0  0  0  0  0  2  0  0  0  0  0  0
  -32.1290  -20.4240   19.8920 C   0  0  0  0  0  3  0  0  0  0  0  0
  -32.4920  -19.5580   21.1140 C   0  0  0  0  0  3  0  0  0  0  0  0
  -33.0240  -21.6480   20.1440 C   0  0  0  0  0  3  0  0  0  0  0  0
  -30.6280  -20.7230   19.7810 C   0  0  0  0  0  1  0  0  0  0  0  0
  -31.8830  -18.1940   21.0480 N   0  0  0  0  0  4  0  0  0  0  0  0
  -32.5040  -17.5310   20.6160 H   0  0  0  0  0  0  0  0  0  0  0  0
  -31.0790  -18.3000   20.4480 H   0  0  0  0  0  0  0  0  0  0  0  0
  -31.3470  -17.6590   22.3260 C   0  0  0  0  0  2  0  0  0  0  0  0
  -30.4150  -16.4080   22.2220 C   0  0  0  0  0  2  0  0  0  0  0  0
  -29.4440  -16.2310   21.0070 C   0  0  0  0  0  2  0  0  0  0  0  0
  -29.8310  -15.1220   19.9980 C   0  0  0  0  0  0  0  0  0  0  0  0
  -29.7870  -12.7810   19.1850 C   0  0  0  0  0  2  0  0  0  0  0  0
  -28.8090  -12.5490   18.0180 C   0  0  0  0  0  2  0  0  0  0  0  0
  -27.3980  -12.2220   18.5440 C   0  0  0  0  0  2  0  0  0  0  0  0
  -26.9240  -13.2250   19.6220 C   0  0  0  0  0  3  0  0  0  0  0  0
  -27.9990  -13.5030   20.6890 C   0  0  0  0  0  2  0  0  0  0  0  0
  -29.2660  -13.8770   20.0200 N   0  0  0  0  0  0  0  0  0  0  0  0
  -30.7060  -15.4220   19.1820 O   0  0  0  0  0  0  0  0  0  0  0  0
  -24.5660  -13.5570   20.5950 C   0  0  0  0  0  0  0  0  0  0  0  0
  -23.6240  -12.6640   21.0420 C   0  0  0  0  0  0  0  0  0  0  0  0
  -24.2190  -11.3700   20.9200 C   0  0  0  0  0  0  0  0  0  0  0  0
  -25.6650  -12.7970   20.2300 N   0  0  0  0  0  0  0  0  0  0  0  0
  -25.4670  -11.4760   20.4810 N   0  0  0  0  0  0  0  0  0  0  0  0
  -23.6460  -10.0360   21.1400 C   0  0  0  0  0  0  0  0  0  0  0  0
  -24.1520   -9.1590   22.1260 C   0  0  0  0  0  3  0  0  0  0  0  0
  -23.5640   -7.8940   22.3250 C   0  0  0  0  0  3  0  0  0  0  0  0
  -22.4610   -7.4900   21.5390 C   0  0  0  0  0  0  0  0  0  0  0  0
  -21.9790   -8.3540   20.5430 C   0  0  0  0  0  3  0  0  0  0  0  0
  -22.5690   -9.6120   20.3390 C   0  0  0  0  0  3  0  0  0  0  0  0
  -21.8460   -6.2640   21.6480 O   0  0  0  0  0  0  0  0  0  0  0  0
  -21.7120   -5.6330   22.8600 C   0  0  0  0  0  0  0  0  0  0  0  0
  -21.0230   -6.2320   23.9350 C   0  0  0  0  0  3  0  0  0  0  0  0
  -20.8380   -5.5200   25.1370 C   0  0  0  0  0  3  0  0  0  0  0  0
  -21.3360   -4.2110   25.2660 C   0  0  0  0  0  0  0  0  0  0  0  0
  -22.0170   -3.6080   24.1930 C   0  0  0  0  0  3  0  0  0  0  0  0
  -22.2010   -4.3160   22.9910 C   0  0  0  0  0  0  0  0  0  0  0  0
  -22.8390   -3.7230   21.9540 F   0  0  0  0  0  0  0  0  0  0  0  0
  -21.1550   -3.5220   26.4180 F   0  0  0  0  0  0  0  0  0  0  0  0
  -22.2280  -12.9950   21.4810 C   0  0  0  0  0  0  0  0  0  0  0  0
  -21.6830  -12.2210   22.4100 N   0  0  0  0  0  0  0  0  0  0  0  0
  -21.6300  -13.9700   21.0320 O   0  0  0  0  0  0  0  0  0  0  0  0
  -22.1880  -11.4300   22.7850 H   0  0  0  0  0  0  0  0  0  0  0  0
  -20.7600  -12.4310   22.7580 H   0  0  0  0  0  0  0  0  0  0  0  0
  -24.5740  -14.9380   20.4490 N   0  0  0  0  0  0  0  0  0  0  0  0
  -23.7680  -15.5220   20.6490 H   0  0  0  0  0  0  0  0  0  0  0  0
  -25.3650  -15.4630   20.0870 H   0  0  0  0  0  0  0  0  0  0  0  0
  -32.9940  -22.6970   19.0840 N   0  0  0  0  0  4  0  0  0  0  0  0
  -32.2970  -22.4250   18.4090 H   0  0  0  0  0  0  0  0  0  0  0  0
  -33.8760  -22.7210   18.5910 H   0  0  0  0  0  0  0  0  0  0  0  0
  -32.6650  -24.0710   19.5660 C   0  0  0  0  0  2  0  0  0  0  0  0
  -31.4650  -24.7310   18.8280 C   0  0  0  0  0  2  0  0  0  0  0  0
  -30.9140  -26.0150   19.5100 C   0  0  0  0  0  2  0  0  0  0  0  0
  -29.4370  -26.3660   19.1460 C   0  0  0  0  0  2  0  0  0  0  0  0
  -28.9660  -27.3680   20.0420 O   0  0  0  0  0  0  0  0  0  0  0  0
  -24.6300  -31.8390   23.3590 C   0  0  0  0  0  0  0  0  0  0  0  0
  -27.6860  -27.8940   19.9960 C   0  0  0  0  0  0  0  0  0  0  0  0
  -23.5540  -30.5170   21.5530 C   0  0  0  0  0  3  0  0  0  0  0  0
  -25.1510  -29.1790   20.0570 C   0  0  0  0  0  0  0  0  0  0  0  0
  -26.0490  -31.0410   21.4810 C   0  0  0  0  0  2  0  0  0  0  0  0
  -26.2410  -29.7380   20.7340 C   0  0  0  0  0  0  0  0  0  0  0  0
  -27.4940  -29.0920   20.7140 C   0  0  0  0  0  3  0  0  0  0  0  0
  -26.5840  -27.3350   19.3090 C   0  0  0  0  0  3  0  0  0  0  0  0
  -25.3190  -27.9710   19.3450 C   0  0  0  0  0  3  0  0  0  0  0  0
  -23.8440  -29.9390   20.1350 C   0  0  0  0  0  2  0  0  0  0  0  0
  -24.7560  -31.1450   22.1900 N   0  0  0  0  0  0  0  0  0  0  0  0
  -23.5200  -32.0050   23.8860 O   0  0  0  0  0  0  0  0  0  0  0  0
  -22.9260  -29.3960   22.4090 C   0  0  0  0  0  0  0  0  0  0  0  0
  -21.6140  -29.1770   22.2390 N   0  0  0  0  0  0  0  0  0  0  0  0
  -23.6190  -28.7280   23.1800 O   0  0  0  0  0  0  0  0  0  0  0  0
  -21.1140  -29.7750   21.5970 H   0  0  0  0  0  0  0  0  0  0  0  0
  -18.2830  -27.8070   22.5400 C   0  0  0  0  0  0  0  0  0  0  0  0
  -20.8240  -28.1360   22.8920 C   0  0  0  0  0  3  0  0  0  0  0  0
  -20.9930  -26.7740   22.1800 C   0  0  0  0  0  2  0  0  0  0  0  0
  -19.9240  -26.5090   21.1140 C   0  0  0  0  0  2  0  0  0  0  0  0
  -18.5260  -26.5410   21.7370 C   0  0  0  0  0  2  0  0  0  0  0  0
  -19.3630  -28.5660   23.0670 C   0  0  0  0  0  0  0  0  0  0  0  0
  -19.0860  -29.7580   23.7680 C   0  0  0  0  0  3  0  0  0  0  0  0
  -17.7590  -30.1940   23.9530 C   0  0  0  0  0  3  0  0  0  0  0  0
  -16.6930  -29.4280   23.4490 C   0  0  0  0  0  3  0  0  0  0  0  0
  -16.9550  -28.2350   22.7520 C   0  0  0  0  0  3  0  0  0  0  0  0
  -25.8650  -32.4750   24.0760 C   0  0  0  0  0  3  0  0  0  0  0  0
  -26.3160  -31.6860   25.3660 C   0  0  1  0  0  0  0  0  0  0  0  0
  -25.1670  -31.4190   26.3650 C   0  0  0  0  0  1  0  0  0  0  0  0
  -26.9360  -30.3230   24.9830 C   0  0  0  0  0  1  0  0  0  0  0  0
  -27.4110  -32.4820   26.1140 C   0  0  0  0  0  1  0  0  0  0  0  0
  -25.5170  -33.8610   24.4120 N   0  0  0  0  0  0  0  0  0  0  0  0
  -25.8950  -34.9360   23.7050 C   0  0  0  0  0  0  0  0  0  0  0  0
  -26.6380  -34.8650   22.7230 O   0  0  0  0  0  0  0  0  0  0  0  0
  -24.8790  -33.9950   25.1820 H   0  0  0  0  0  0  0  0  0  0  0  0
  -24.1780  -36.7150   23.2540 C   0  0  0  0  0  1  0  0  0  0  0  0
  -25.3520  -36.3050   24.1550 C   0  0  0  0  0  3  0  0  0  0  0  0
  -27.4010  -37.1890   25.1820 C   0  0  0  0  0  1  0  0  0  0  0  0
  -26.3770  -37.3730   24.1570 N   0  0  0  0  0  0  0  0  0  0  0  0
  -25.9480  -38.2840   24.2960 H   0  0  0  0  0  0  0  0  0  0  0  0
  2  1  1  0
  3  6  1  0
  3  5  1  0
  3  4  1  0
  4  7  1  0
  4  1  1  0
  5 49  1  0
  5  2  1  0
  7 10  1  0
  8  7  1  0
  9  7  1  0
 11 10  1  0
 12 11  1  0
 13 19  1  0
 13 12  1  0
 14 19  1  0
 15 16  1  0
 15 14  1  0
 17 16  1  0
 17 24  1  0
 17 18  1  0
 19 18  1  0
 20 13  2  0
 21 22  2  0
 22 41  1  0
 23 22  1  0
 23 26  1  0
 24 25  1  0
 24 21  1  0
 25 23  2  0
 26 27  1  0
 27 28  2  0
 29 32  1  0
 29 28  1  0
 30 29  2  0
 31 30  1  0
 31 26  2  0
 32 33  1  0
 33 38  2  0
 33 34  1  0
 34 35  2  0
 35 36  1  0
 36 40  1  0
 37 36  2  0
 38 37  1  0
 39 38  1  0
 41 42  1  0
 42 45  1  0
 42 44  1  0
 43 41  2  0
 46 21  1  0
 46 47  1  0
 48 46  1  0
 49 52  1  0
 50 49  1  0
 51 49  1  0
 53 54  1  0
 53 52  1  0
 55 54  1  0
 55 56  1  0
 57 68  2  0
 58 56  1  0
 58 63  1  0
 59 67  1  0
 59 69  1  0
 60 66  1  0
 60 62  1  0
 61 67  1  0
 62 61  1  0
 63 62  2  0
 64 65  1  0
 64 58  2  0
 65 60  2  0
 66 59  1  0
 67 57  1  0
 69 71  2  0
 70 69  1  0
 72 70  1  0
 73 82  2  0
 73 78  1  0
 74 70  1  0
 74 78  1  0
 75 74  1  0
 76 77  1  0
 76 75  1  0
 77 73  1  0
 78 79  2  0
 79 80  1  0
 81 80  2  0
 82 81  1  0
 83 57  1  0
 83 88  1  0
 83 84  1  0
 84 87  1  1
 84 85  1  0
 86 84  1  0
 88 91  1  0
 89 93  1  0
 89 88  1  0
 90 89  2  0
 93 92  1  0
 93 95  1  0
 95 96  1  0
 95 94  1  0
M  ISO  4  12 100  13 100  55 101  56 101
M  END
>  <TORSDO>  (95) 
F 25

>  <SCORE>  (95) 
-10.714

>  <name>  (95) 
94

>  <ligand_id>  (95) 
94

>  <original_smiles>  (95) 
[H]c1c([H])c([H])c2c(c1[H])C([H])([H])C([H])([H])C([H])([H])C2([H])N([H])C(=O)C1([H])N(C(=O)C([H])(N([H])C(=O)C([H])(N([H])C([H])([H])[H])C([H])([H])[H])C(C([H])([H])[H])(C([H])([H])[H])C([H])([H])[H])C([H])([H])c2c([H])c(OC([H])([H])C([H])([H])C([H])([H])C([H])([H])[N+]([H])([H])C3([H])C([H])([H])C([H])([H])C([H])([N+]([H])([H])C([H])([H])C([H])([H])C([H])([H])C(=O)N4C([H])([H])C([H])([H])C([H])([H])C([H])(n5nc(-c6c([H])c([H])c(Oc7c([H])c([H])c(F)c([H])c7F)c([H])c6[H])c(C(=O)N([H])[H])c5N([H])[H])C4([H])[H])C3([H])C([H])([H])[H])c([H])c([H])c2C1([H])[H]

>  <smiles>  (95) 
[H]c1c([H])c([H])c2c(c1[H])C([H])([H])C([H])([H])C([H])([H])C2([H])N([H])C(=O)C1([H])N(C(=O)C([H])(N([H])C(=O)C([H])(N([H])C([H])([H])[H])C([H])([H])[H])C(C([H])([H])[H])(C([H])([H])[H])C([H])([H])[H])C([H])([H])c2c([H])c(OC([H])([H])C([H])([H])C([H])([H])C([H])([H])[N+]([H])([H])C3([H])C([H])([H])C([H])([H])C([H])([N+]([H])([H])C([H])([H])C([H])([H])C([H])([H])C(=O)N4C([H])([H])C([H])([H])C([H])([H])C([H])(n5nc(-c6c([H])c([H])c(Oc7c([H])c([H])c(F)c([H])c7F)c([H])c6[H])c(C(=O)N([H])[H])c5N([H])[H])C4([H])[H])C3([H])C([H])([H])[H])c([H])c([H])c2C1([H])[H]

$$$$
95:0:0
     RDKit          3D

 91 99  0  0  1  0  0  0  0  0999 V2000
  -31.1370  -21.5370   21.5760 C   0  0  0  0  0  0  0  0  0  0  0  0
  -32.5720  -21.8860   21.9690 C   0  0  0  0  0  1  0  0  0  0  0  0
  -30.2330  -22.4230   21.3060 N   0  0  0  0  0  0  0  0  0  0  0  0
  -30.4660  -19.2880   20.3680 C   0  0  0  0  0  0  0  0  0  0  0  0
  -31.1420  -18.3250   19.6930 C   0  0  0  0  0  3  0  0  0  0  0  0
  -28.9910  -19.5330   20.1390 C   0  0  0  0  0  2  0  0  0  0  0  0
  -28.3990  -19.6530   21.5560 C   0  0  0  0  0  2  0  0  0  0  0  0
  -29.5990  -19.7350   22.5270 C   0  0  0  0  0  2  0  0  0  0  0  0
  -30.8450  -20.0010   21.6610 C   0  0  0  0  0  3  0  0  0  0  0  0
  -32.5140  -17.6890   19.9540 C   0  0  0  0  0  2  0  0  0  0  0  0
  -32.3990  -16.4000   20.8240 C   0  0  0  0  0  2  0  0  0  0  0  0
  -33.0170  -15.0990   20.2290 C   0  0  0  0  0  0  0  0  0  0  0  0
  -32.6300  -12.8260   19.3160 C   0  0  0  0  0  2  0  0  0  0  0  0
  -31.7250  -12.9480   18.0730 C   0  0  0  0  0  2  0  0  0  0  0  0
  -30.2290  -12.9660   18.4650 C   0  0  0  0  0  2  0  0  0  0  0  0
  -29.9350  -13.9710   19.6120 C   0  0  0  0  0  3  0  0  0  0  0  0
  -30.9410  -13.7690   20.7670 C   0  0  0  0  0  2  0  0  0  0  0  0
  -32.2960  -13.9400   20.2160 N   0  0  0  0  0  0  0  0  0  0  0  0
  -34.1360  -15.1680   19.7110 O   0  0  0  0  0  0  0  0  0  0  0  0
  -27.6410  -14.8760   20.3460 C   0  0  0  0  0  0  0  0  0  0  0  0
  -26.4750  -14.2500   20.6890 C   0  0  0  0  0  0  0  0  0  0  0  0
  -26.7410  -12.8480   20.5930 C   0  0  0  0  0  0  0  0  0  0  0  0
  -28.5540  -13.8700   20.0750 N   0  0  0  0  0  0  0  0  0  0  0  0
  -28.0120  -12.6410   20.2740 N   0  0  0  0  0  0  0  0  0  0  0  0
  -25.8460  -11.6940   20.7320 C   0  0  0  0  0  0  0  0  0  0  0  0
  -26.0840  -10.6830   21.6880 C   0  0  0  0  0  3  0  0  0  0  0  0
  -25.1990   -9.5920   21.8120 C   0  0  0  0  0  3  0  0  0  0  0  0
  -24.0590   -9.5040   20.9810 C   0  0  0  0  0  0  0  0  0  0  0  0
  -23.8400  -10.4990   20.0120 C   0  0  0  0  0  3  0  0  0  0  0  0
  -24.7250  -11.5830   19.8840 C   0  0  0  0  0  3  0  0  0  0  0  0
  -23.1580   -8.4680   21.0150 O   0  0  0  0  0  0  0  0  0  0  0  0
  -22.7630   -7.8950   22.1990 C   0  0  0  0  0  0  0  0  0  0  0  0
  -22.1430   -8.6470   23.2200 C   0  0  0  0  0  3  0  0  0  0  0  0
  -21.6900   -8.0030   24.3900 C   0  0  0  0  0  3  0  0  0  0  0  0
  -21.8510   -6.6120   24.5350 C   0  0  0  0  0  0  0  0  0  0  0  0
  -22.4630   -5.8620   23.5160 C   0  0  0  0  0  3  0  0  0  0  0  0
  -22.9160   -6.5030   22.3510 C   0  0  0  0  0  0  0  0  0  0  0  0
  -23.4890   -5.7730   21.3630 F   0  0  0  0  0  0  0  0  0  0  0  0
  -21.4100   -5.9920   25.6550 F   0  0  0  0  0  0  0  0  0  0  0  0
  -25.1580  -14.9020   20.9970 C   0  0  0  0  0  0  0  0  0  0  0  0
  -24.3450  -14.2810   21.8430 N   0  0  0  0  0  0  0  0  0  0  0  0
  -24.8670  -15.9990   20.5200 O   0  0  0  0  0  0  0  0  0  0  0  0
  -24.5960  -13.3900   22.2470 H   0  0  0  0  0  0  0  0  0  0  0  0
  -23.4600  -14.7000   22.0850 H   0  0  0  0  0  0  0  0  0  0  0  0
  -28.0070  -16.2150   20.2240 N   0  0  0  0  0  0  0  0  0  0  0  0
  -27.3510  -16.9730   20.3580 H   0  0  0  0  0  0  0  0  0  0  0  0
  -28.9100  -16.5260   19.8970 H   0  0  0  0  0  0  0  0  0  0  0  0
  -30.4300  -23.8660   21.5630 C   0  0  0  0  0  2  0  0  0  0  0  0
  -29.6590  -24.7990   20.5740 C   0  0  0  0  0  2  0  0  0  0  0  0
  -29.6130  -26.2920   21.0440 C   0  0  0  0  0  2  0  0  0  0  0  0
  -29.2390  -27.2270   20.0150 O   0  0  0  0  0  0  0  0  0  0  0  0
  -24.8430  -31.6290   23.5710 C   0  0  0  0  0  0  0  0  0  0  0  0
  -28.0230  -27.8640   20.1280 C   0  0  0  0  0  0  0  0  0  0  0  0
  -23.8530  -30.3870   21.6740 C   0  0  0  0  0  3  0  0  0  0  0  0
  -25.5150  -29.1780   20.1620 C   0  0  0  0  0  0  0  0  0  0  0  0
  -26.3450  -30.9710   21.6890 C   0  0  0  0  0  2  0  0  0  0  0  0
  -26.5890  -29.7020   20.8950 C   0  0  0  0  0  0  0  0  0  0  0  0
  -27.8490  -29.0520   20.8800 C   0  0  0  0  0  3  0  0  0  0  0  0
  -26.9380  -27.3640   19.3850 C   0  0  0  0  0  3  0  0  0  0  0  0
  -25.6860  -28.0060   19.4030 C   0  0  0  0  0  3  0  0  0  0  0  0
  -24.2010  -29.9260   20.2330 C   0  0  0  0  0  2  0  0  0  0  0  0
  -25.0270  -31.0030   22.3740 N   0  0  0  0  0  0  0  0  0  0  0  0
  -23.7140  -31.7330   24.0730 O   0  0  0  0  0  0  0  0  0  0  0  0
  -23.2390  -29.1930   22.4410 C   0  0  0  0  0  0  0  0  0  0  0  0
  -21.9400  -28.9330   22.2130 N   0  0  0  0  0  0  0  0  0  0  0  0
  -23.9320  -28.5070   23.1960 O   0  0  0  0  0  0  0  0  0  0  0  0
  -21.4370  -29.5460   21.5860 H   0  0  0  0  0  0  0  0  0  0  0  0
  -18.6590  -27.4300   22.3400 C   0  0  0  0  0  0  0  0  0  0  0  0
  -21.1680  -27.8360   22.7980 C   0  0  0  0  0  3  0  0  0  0  0  0
  -21.4170  -26.5140   22.0330 C   0  0  0  0  0  2  0  0  0  0  0  0
  -20.3970  -26.2620   20.9170 C   0  0  0  0  0  2  0  0  0  0  0  0
  -18.9800  -26.2110   21.4920 C   0  0  0  0  0  2  0  0  0  0  0  0
  -19.6890  -28.2030   22.9410 C   0  0  0  0  0  0  0  0  0  0  0  0
  -19.3380  -29.3460   23.6910 C   0  0  0  0  0  3  0  0  0  0  0  0
  -17.9900  -29.7190   23.8450 C   0  0  0  0  0  3  0  0  0  0  0  0
  -16.9740  -28.9440   23.2580 C   0  0  0  0  0  3  0  0  0  0  0  0
  -17.3090  -27.7980   22.5140 C   0  0  0  0  0  3  0  0  0  0  0  0
  -26.0330  -32.2640   24.3550 C   0  0  0  0  0  3  0  0  0  0  0  0
  -25.6310  -33.6240   24.7380 N   0  0  0  0  0  0  0  0  0  0  0  0
  -26.0030  -34.7370   24.0930 C   0  0  0  0  0  0  0  0  0  0  0  0
  -26.7890  -34.7300   23.1390 O   0  0  0  0  0  0  0  0  0  0  0  0
  -24.9420  -33.6990   25.4720 H   0  0  0  0  0  0  0  0  0  0  0  0
  -24.2570  -36.5010   23.6630 C   0  0  0  0  0  1  0  0  0  0  0  0
  -25.4120  -36.0740   24.5820 C   0  0  0  0  0  3  0  0  0  0  0  0
  -27.4050  -36.9710   25.7050 C   0  0  0  0  0  1  0  0  0  0  0  0
  -26.4100  -37.1630   24.6530 N   0  0  0  0  0  0  0  0  0  0  0  0
  -25.9530  -38.0570   24.8110 H   0  0  0  0  0  0  0  0  0  0  0  0
  -26.4590  -31.4260   25.6210 C   0  0  1  0  0  0  0  0  0  0  0  0
  -25.2820  -31.0700   26.5610 C   0  0  0  0  0  1  0  0  0  0  0  0
  -27.1450  -30.1060   25.1940 C   0  0  0  0  0  1  0  0  0  0  0  0
  -27.5010  -32.2180   26.4450 C   0  0  0  0  0  1  0  0  0  0  0  0
  1  2  1  0
  3 48  1  0
  3  1  2  0
  4  9  1  0
  5 10  1  0
  5  4  2  0
  6  4  1  0
  6  7  1  0
  7  8  1  0
  9  1  1  0
  9  8  1  0
 10 11  1  0
 12 11  1  0
 13 18  1  0
 14 15  1  0
 14 13  1  0
 16 15  1  0
 16 23  1  0
 16 17  1  0
 18 12  1  0
 18 17  1  0
 19 12  2  0
 20 21  2  0
 21 40  1  0
 22 21  1  0
 22 25  1  0
 23 24  1  0
 23 20  1  0
 24 22  2  0
 25 26  1  0
 26 27  2  0
 28 31  1  0
 28 27  1  0
 29 28  2  0
 30 29  1  0
 30 25  2  0
 31 32  1  0
 32 37  2  0
 32 33  1  0
 33 34  2  0
 34 35  1  0
 35 39  1  0
 36 35  2  0
 37 36  1  0
 38 37  1  0
 40 41  1  0
 41 44  1  0
 41 43  1  0
 42 40  2  0
 45 20  1  0
 45 46  1  0
 47 45  1  0
 49 50  1  0
 49 48  1  0
 51 53  1  0
 51 50  1  0
 52 63  2  0
 53 58  1  0
 54 62  1  0
 54 64  1  0
 55 61  1  0
 55 57  1  0
 56 62  1  0
 57 56  1  0
 58 57  2  0
 59 60  1  0
 59 53  2  0
 60 55  2  0
 61 54  1  0
 62 52  1  0
 64 66  2  0
 65 64  1  0
 67 65  1  0
 68 77  2  0
 68 73  1  0
 69 65  1  0
 69 73  1  0
 70 69  1  0
 71 72  1  0
 71 70  1  0
 72 68  1  0
 73 74  2  0
 74 75  1  0
 76 75  2  0
 77 76  1  0
 78 52  1  0
 78 79  1  0
 78 88  1  0
 79 82  1  0
 80 84  1  0
 80 79  1  0
 81 80  2  0
 84 83  1  0
 84 86  1  0
 86 87  1  0
 86 85  1  0
 88 91  1  1
 88 89  1  0
 90 88  1  0
M  ISO  4  11 100  12 100  50 101  51 101
M  END
>  <TORSDO>  (96) 
F 22

>  <SCORE>  (96) 
-5.730

>  <name>  (96) 
95

>  <ligand_id>  (96) 
95

>  <original_smiles>  (96) 
[H]C(=C1C([H])([H])C([H])([H])C([H])([H])C1([H])C(=NC([H])([H])C([H])([H])C([H])([H])Oc1c([H])c([H])c2c(c1[H])C([H])([H])N(C(=O)C([H])(N([H])C(=O)C([H])(N([H])C([H])([H])[H])C([H])([H])[H])C(C([H])([H])[H])(C([H])([H])[H])C([H])([H])[H])C([H])(C(=O)N([H])C1([H])c3c([H])c([H])c([H])c([H])c3C([H])([H])C([H])([H])C1([H])[H])C2([H])[H])C([H])([H])[H])C([H])([H])C([H])([H])C(=O)N1C([H])([H])C([H])([H])C([H])([H])C([H])(n2nc(-c3c([H])c([H])c(Oc4c([H])c([H])c(F)c([H])c4F)c([H])c3[H])c(C(=O)N([H])[H])c2N([H])[H])C1([H])[H]

>  <smiles>  (96) 
[H]C(=C1C([H])([H])C([H])([H])C([H])([H])C1([H])C(=NC([H])([H])C([H])([H])C([H])([H])Oc1c([H])c([H])c2c(c1[H])C([H])([H])N(C(=O)C([H])(N([H])C(=O)C([H])(N([H])C([H])([H])[H])C([H])([H])[H])C(C([H])([H])[H])(C([H])([H])[H])C([H])([H])[H])C([H])(C(=O)N([H])C1([H])c3c([H])c([H])c([H])c([H])c3C([H])([H])C([H])([H])C1([H])[H])C2([H])[H])C([H])([H])[H])C([H])([H])C([H])([H])C(=O)N1C([H])([H])C([H])([H])C([H])([H])C([H])(n2nc(-c3c([H])c([H])c(Oc4c([H])c([H])c(F)c([H])c4F)c([H])c3[H])c(C(=O)N([H])[H])c2N([H])[H])C1([H])[H]

$$$$
96:0:0
     RDKit          3D

 91 99  0  0  1  0  0  0  0  0999 V2000
  -29.3410  -19.9510   20.4040 C   0  0  0  0  0  0  0  0  0  0  0  0
  -28.9270  -21.2100   20.0040 N   0  0  0  0  0  0  0  0  0  0  0  0
  -29.6120  -19.7040   21.5790 O   0  0  0  0  0  0  0  0  0  0  0  0
  -28.7290  -21.2870   19.0140 H   0  0  0  0  0  0  0  0  0  0  0  0
  -31.6180  -18.7970   18.0840 C   0  0  0  0  0  2  0  0  0  0  0  0
  -30.2260  -19.4350   18.1040 C   0  0  0  0  0  2  0  0  0  0  0  0
  -31.6200  -17.7290   19.1780 C   0  0  0  0  0  2  0  0  0  0  0  0
  -29.4380  -18.8050   19.3010 C   0  0  0  0  0  3  0  0  0  0  0  0
  -30.1520  -17.3280   19.4210 C   0  0  1  0  0  0  0  0  0  0  0  0
  -29.6390  -16.5240   18.1860 C   0  0  0  0  0  1  0  0  0  0  0  0
  -30.0120  -16.2510   20.6380 C   0  0  0  0  0  2  0  0  0  0  0  0
  -30.7650  -14.8260   20.5110 C   0  0  0  0  0  0  0  0  0  0  0  0
  -30.5700  -12.5460   19.5350 C   0  0  0  0  0  2  0  0  0  0  0  0
  -29.6740  -12.6320   18.2790 C   0  0  0  0  0  2  0  0  0  0  0  0
  -28.1890  -12.4870   18.6610 C   0  0  0  0  0  2  0  0  0  0  0  0
  -27.7850  -13.3740   19.8690 C   0  0  0  0  0  3  0  0  0  0  0  0
  -28.8090  -13.2860   21.0180 C   0  0  0  0  0  2  0  0  0  0  0  0
  -30.1280  -13.6070   20.4670 N   0  0  0  0  0  0  0  0  0  0  0  0
  -31.9780  -14.8500   20.2900 O   0  0  0  0  0  0  0  0  0  0  0  0
  -25.3760  -13.9690   20.5200 C   0  0  0  0  0  0  0  0  0  0  0  0
  -24.2990  -13.1950   20.8590 C   0  0  0  0  0  0  0  0  0  0  0  0
  -24.7670  -11.8460   20.8610 C   0  0  0  0  0  0  0  0  0  0  0  0
  -26.4280  -13.0900   20.3240 N   0  0  0  0  0  0  0  0  0  0  0  0
  -26.0670  -11.8080   20.5940 N   0  0  0  0  0  0  0  0  0  0  0  0
  -24.0370  -10.5830   21.0390 C   0  0  0  0  0  0  0  0  0  0  0  0
  -24.4260   -9.6360   22.0110 C   0  0  0  0  0  3  0  0  0  0  0  0
  -23.6960   -8.4380   22.1750 C   0  0  0  0  0  3  0  0  0  0  0  0
  -22.5630   -8.1800   21.3670 C   0  0  0  0  0  0  0  0  0  0  0  0
  -22.1940   -9.1180   20.3850 C   0  0  0  0  0  3  0  0  0  0  0  0
  -22.9240  -10.3060   20.2190 C   0  0  0  0  0  3  0  0  0  0  0  0
  -21.8100   -7.0340   21.4380 O   0  0  0  0  0  0  0  0  0  0  0  0
  -21.6940   -6.3200   22.6030 C   0  0  0  0  0  0  0  0  0  0  0  0
  -21.1750   -6.8980   23.7820 C   0  0  0  0  0  3  0  0  0  0  0  0
  -21.0080   -6.1100   24.9390 C   0  0  0  0  0  3  0  0  0  0  0  0
  -21.3510   -4.7440   24.9150 C   0  0  0  0  0  0  0  0  0  0  0  0
  -21.8630   -4.1660   23.7410 C   0  0  0  0  0  3  0  0  0  0  0  0
  -22.0310   -4.9520   22.5870 C   0  0  0  0  0  0  0  0  0  0  0  0
  -22.5050   -4.3840   21.4520 F   0  0  0  0  0  0  0  0  0  0  0  0
  -21.1840   -3.9840   26.0240 F   0  0  0  0  0  0  0  0  0  0  0  0
  -22.8920  -13.6720   21.0750 C   0  0  0  0  0  0  0  0  0  0  0  0
  -22.1360  -12.9830   21.9230 N   0  0  0  0  0  0  0  0  0  0  0  0
  -22.4690  -14.6900   20.5300 O   0  0  0  0  0  0  0  0  0  0  0  0
  -22.4910  -12.1600   22.3870 H   0  0  0  0  0  0  0  0  0  0  0  0
  -21.1900  -13.2840   22.1100 H   0  0  0  0  0  0  0  0  0  0  0  0
  -25.5440  -15.3380   20.3380 N   0  0  0  0  0  0  0  0  0  0  0  0
  -24.7800  -15.9960   20.4340 H   0  0  0  0  0  0  0  0  0  0  0  0
  -26.4110  -15.7800   20.0560 H   0  0  0  0  0  0  0  0  0  0  0  0
  -28.7300  -22.4910   20.7770 C   0  0  0  0  0  2  0  0  0  0  0  0
  -28.5320  -23.8560   19.9450 C   0  0  0  0  0  3  0  0  0  0  0  0
  -28.1580  -25.1850   20.7560 C   0  0  0  0  0  3  0  0  0  0  0  0
  -28.2710  -26.5260   20.1320 O   0  0  0  0  0  0  0  0  0  0  0  0
  -24.5730  -31.9080   23.2350 C   0  0  0  0  0  0  0  0  0  0  0  0
  -27.1510  -27.3650   20.1470 C   0  0  0  0  0  0  0  0  0  0  0  0
  -23.3530  -30.5190   21.5970 C   0  0  0  0  0  3  0  0  0  0  0  0
  -24.7890  -28.9690   20.1550 C   0  0  0  0  0  0  0  0  0  0  0  0
  -25.8890  -30.8390   21.3910 C   0  0  0  0  0  2  0  0  0  0  0  0
  -25.9610  -29.4600   20.7450 C   0  0  0  0  0  0  0  0  0  0  0  0
  -27.1500  -28.6690   20.7290 C   0  0  0  0  0  3  0  0  0  0  0  0
  -25.9630  -26.9210   19.5330 C   0  0  0  0  0  3  0  0  0  0  0  0
  -24.7910  -27.7060   19.5370 C   0  0  0  0  0  3  0  0  0  0  0  0
  -23.5530  -29.8460   20.2130 C   0  0  0  0  0  2  0  0  0  0  0  0
  -24.6250  -31.1050   22.1320 N   0  0  0  0  0  0  0  0  0  0  0  0
  -23.4940  -32.1840   23.7800 O   0  0  0  0  0  0  0  0  0  0  0  0
  -22.6970  -29.5010   22.5590 C   0  0  0  0  0  0  0  0  0  0  0  0
  -21.3700  -29.3240   22.4380 N   0  0  0  0  0  0  0  0  0  0  0  0
  -23.3780  -28.8760   23.3750 O   0  0  0  0  0  0  0  0  0  0  0  0
  -20.8800  -29.8840   21.7540 H   0  0  0  0  0  0  0  0  0  0  0  0
  -17.9970  -28.1220   22.9480 C   0  0  0  0  0  0  0  0  0  0  0  0
  -20.5550  -28.3840   23.2080 C   0  0  0  0  0  3  0  0  0  0  0  0
  -20.6580  -26.9540   22.6300 C   0  0  0  0  0  2  0  0  0  0  0  0
  -19.5520  -26.6320   21.6190 C   0  0  0  0  0  2  0  0  0  0  0  0
  -18.1730  -26.7740   22.2680 C   0  0  0  0  0  2  0  0  0  0  0  0
  -19.1160  -28.8830   23.3750 C   0  0  0  0  0  0  0  0  0  0  0  0
  -18.9000  -30.1450   23.9730 C   0  0  0  0  0  3  0  0  0  0  0  0
  -17.5940  -30.6440   24.1460 C   0  0  0  0  0  3  0  0  0  0  0  0
  -16.4890  -29.8790   23.7340 C   0  0  0  0  0  3  0  0  0  0  0  0
  -16.6910  -28.6200   23.1400 C   0  0  0  0  0  3  0  0  0  0  0  0
  -25.8610  -32.5360   23.8500 C   0  0  0  0  0  3  0  0  0  0  0  0
  -25.5630  -33.9400   24.1690 N   0  0  0  0  0  0  0  0  0  0  0  0
  -25.9160  -34.9860   23.4090 C   0  0  0  0  0  0  0  0  0  0  0  0
  -26.5970  -34.8700   22.3870 O   0  0  0  0  0  0  0  0  0  0  0  0
  -24.9570  -34.1050   24.9590 H   0  0  0  0  0  0  0  0  0  0  0  0
  -24.2280  -36.8100   23.0140 C   0  0  0  0  0  1  0  0  0  0  0  0
  -25.4420  -36.3840   23.8540 C   0  0  0  0  0  3  0  0  0  0  0  0
  -27.5710  -37.2360   24.7330 C   0  0  0  0  0  1  0  0  0  0  0  0
  -26.4950  -37.4180   23.7620 N   0  0  0  0  0  0  0  0  0  0  0  0
  -26.1030  -38.3470   23.8970 H   0  0  0  0  0  0  0  0  0  0  0  0
  -26.3710  -31.7720   25.1340 C   0  0  1  0  0  0  0  0  0  0  0  0
  -25.2770  -31.5540   26.2040 C   0  0  0  0  0  1  0  0  0  0  0  0
  -26.9430  -30.3870   24.7520 C   0  0  0  0  0  1  0  0  0  0  0  0
  -27.5320  -32.5620   25.7840 C   0  0  0  0  0  1  0  0  0  0  0  0
  1  3  2  0
  2  1  1  0
  2 48  1  0
  4  2  1  0
  5  6  1  0
  5  7  1  0
  6  8  1  0
  7  9  1  0
  8  9  1  0
  8  1  1  0
  9 10  1  6
  9 11  1  0
 12 11  1  0
 13 18  1  0
 14 15  1  0
 14 13  1  0
 16 15  1  0
 16 23  1  0
 16 17  1  0
 18 12  1  0
 18 17  1  0
 19 12  2  0
 20 21  2  0
 21 22  1  0
 21 40  1  0
 22 25  1  0
 23 20  1  0
 23 24  1  0
 24 22  2  0
 25 26  1  0
 26 27  2  0
 28 31  1  0
 28 27  1  0
 29 28  2  0
 30 29  1  0
 30 25  2  0
 31 32  1  0
 32 33  1  0
 33 34  2  0
 35 34  1  0
 35 39  1  0
 36 35  2  0
 37 32  2  0
 37 36  1  0
 38 37  1  0
 40 41  1  0
 41 44  1  0
 41 43  1  0
 42 40  2  0
 45 46  1  0
 45 20  1  0
 47 45  1  0
 49 50  2  0
 49 48  1  0
 51 53  1  0
 51 50  1  0
 52 63  2  0
 53 58  1  0
 54 62  1  0
 54 64  1  0
 55 61  1  0
 55 57  1  0
 56 62  1  0
 57 56  1  0
 58 57  2  0
 59 60  1  0
 59 53  2  0
 60 55  2  0
 61 54  1  0
 62 52  1  0
 64 66  2  0
 65 64  1  0
 67 65  1  0
 68 77  2  0
 68 73  1  0
 69 65  1  0
 69 73  1  0
 70 69  1  0
 71 72  1  0
 71 70  1  0
 72 68  1  0
 73 74  2  0
 74 75  1  0
 76 75  2  0
 77 76  1  0
 78 52  1  0
 78 79  1  0
 78 88  1  0
 79 82  1  0
 80 84  1  0
 80 79  1  0
 81 80  2  0
 84 83  1  0
 86 84  1  0
 86 87  1  0
 86 85  1  0
 88 91  1  1
 88 89  1  0
 90 88  1  0
M  ISO  4  11 100  12 100  50 101  51 101
M  END
>  <TORSDO>  (97) 
F 21

>  <SCORE>  (97) 
-12.719

>  <name>  (97) 
96

>  <ligand_id>  (97) 
96

>  <original_smiles>  (97) 
[H]c1c([H])c([H])c2c(c1[H])C([H])([H])C([H])([H])C([H])([H])C2([H])N([H])C(=O)C1([H])N(C(=O)C([H])(N([H])C(=O)C([H])(N([H])C([H])([H])[H])C([H])([H])[H])C(C([H])([H])[H])(C([H])([H])[H])C([H])([H])[H])C([H])([H])c2c([H])c(OC([H])([H])C([H])([H])C([H])([H])N([H])C(=O)C3([H])C([H])([H])C([H])([H])C([H])([H])C3(C([H])([H])[H])C([H])([H])C(=O)N3C([H])([H])C([H])([H])C([H])([H])C([H])(n4nc(-c5c([H])c([H])c(Oc6c([H])c([H])c(F)c([H])c6F)c([H])c5[H])c(C(=O)N([H])[H])c4N([H])[H])C3([H])[H])c([H])c([H])c2C1([H])[H]

>  <smiles>  (97) 
[H]c1c([H])c([H])c2c(c1[H])C([H])([H])C([H])([H])C([H])([H])C2([H])N([H])C(=O)C1([H])N(C(=O)C([H])(N([H])C(=O)C([H])(N([H])C([H])([H])[H])C([H])([H])[H])C(C([H])([H])[H])(C([H])([H])[H])C([H])([H])[H])C([H])([H])c2c([H])c(OC([H])([H])C([H])([H])C([H])([H])N([H])C(=O)C3([H])C([H])([H])C([H])([H])C([H])([H])C3(C([H])([H])[H])C([H])([H])C(=O)N3C([H])([H])C([H])([H])C([H])([H])C([H])(n4nc(-c5c([H])c([H])c(Oc6c([H])c([H])c(F)c([H])c6F)c([H])c5[H])c(C(=O)N([H])[H])c4N([H])[H])C3([H])[H])c([H])c([H])c2C1([H])[H]

$$$$
