0:0:0
     RDKit          3D

 88 96  0  0  1  0  0  0  0  0999 V2000
  -27.9400  -21.3930   19.2520 C   0  0  0  0  0  1  0  0  0  0  0  0
  -28.7190  -21.8100   20.5060 C   0  0  0  0  0  3  0  0  0  0  0  0
  -30.0220  -19.2770   20.7610 C   0  0  0  0  0  3  0  0  0  0  0  0
  -29.8810  -20.6990   20.8530 C   0  0  0  0  0  0  0  0  0  0  0  0
  -29.5410  -17.0590   19.2560 C   0  0  0  0  0  2  0  0  0  0  0  0
  -29.2410  -17.9410   20.3980 C   0  0  0  0  0  3  0  0  0  0  0  0
  -29.4400  -16.2660   20.5750 C   0  0  0  0  0  3  0  0  0  0  0  0
  -30.4480  -14.9850   20.3990 C   0  0  0  0  0  0  0  0  0  0  0  0
  -30.4150  -12.6470   19.4140 C   0  0  0  0  0  2  0  0  0  0  0  0
  -29.4640  -12.6330   18.1900 C   0  0  0  0  0  2  0  0  0  0  0  0
  -27.9990  -12.4080   18.6210 C   0  0  0  0  0  2  0  0  0  0  0  0
  -27.5990  -13.2890   19.8310 C   0  0  0  0  0  3  0  0  0  0  0  0
  -28.6630  -13.2370   20.9460 C   0  0  0  0  0  2  0  0  0  0  0  0
  -29.9330  -13.6890   20.3600 N   0  0  0  0  0  0  0  0  0  0  0  0
  -31.6440  -15.1140   20.1100 O   0  0  0  0  0  0  0  0  0  0  0  0
  -25.2120  -13.8450   20.5820 C   0  0  0  0  0  0  0  0  0  0  0  0
  -24.1560  -13.0580   20.9480 C   0  0  0  0  0  0  0  0  0  0  0  0
  -24.6320  -11.7110   20.9010 C   0  0  0  0  0  0  0  0  0  0  0  0
  -26.2630  -12.9780   20.3270 N   0  0  0  0  0  0  0  0  0  0  0  0
  -25.9210  -11.6890   20.5840 N   0  0  0  0  0  0  0  0  0  0  0  0
  -23.9180  -10.4390   21.0810 C   0  0  0  0  0  0  0  0  0  0  0  0
  -24.3610   -9.4650   22.0030 C   0  0  0  0  0  3  0  0  0  0  0  0
  -23.6470   -8.2600   22.1710 C   0  0  0  0  0  3  0  0  0  0  0  0
  -22.4730   -8.0200   21.4190 C   0  0  0  0  0  0  0  0  0  0  0  0
  -22.0460   -8.9830   20.4870 C   0  0  0  0  0  3  0  0  0  0  0  0
  -22.7610  -10.1800   20.3180 C   0  0  0  0  0  3  0  0  0  0  0  0
  -21.7310   -6.8670   21.5000 O   0  0  0  0  0  0  0  0  0  0  0  0
  -21.6870   -6.1170   22.6480 C   0  0  0  0  0  0  0  0  0  0  0  0
  -21.2260   -6.6500   23.8710 C   0  0  0  0  0  3  0  0  0  0  0  0
  -21.1360   -5.8250   25.0090 C   0  0  0  0  0  3  0  0  0  0  0  0
  -21.4920   -4.4660   24.9250 C   0  0  0  0  0  0  0  0  0  0  0  0
  -21.9440   -3.9310   23.7060 C   0  0  0  0  0  3  0  0  0  0  0  0
  -22.0390   -4.7540   22.5690 C   0  0  0  0  0  0  0  0  0  0  0  0
  -22.4570   -4.2290   21.3930 F   0  0  0  0  0  0  0  0  0  0  0  0
  -21.3950   -3.6710   26.0150 F   0  0  0  0  0  0  0  0  0  0  0  0
  -22.7550  -13.5170   21.2310 C   0  0  0  0  0  0  0  0  0  0  0  0
  -22.0400  -12.8060   22.0940 N   0  0  0  0  0  0  0  0  0  0  0  0
  -22.3060  -14.5460   20.7240 O   0  0  0  0  0  0  0  0  0  0  0  0
  -22.4210  -11.9760   22.5240 H   0  0  0  0  0  0  0  0  0  0  0  0
  -21.0990  -13.0900   22.3260 H   0  0  0  0  0  0  0  0  0  0  0  0
  -25.3640  -15.2180   20.4160 N   0  0  0  0  0  0  0  0  0  0  0  0
  -24.5940  -15.8660   20.5390 H   0  0  0  0  0  0  0  0  0  0  0  0
  -26.2080  -15.6630   20.0830 H   0  0  0  0  0  0  0  0  0  0  0  0
  -32.2150  -20.7070   22.1140 C   0  0  0  0  0  1  0  0  0  0  0  0
  -31.0600  -21.4840   21.4540 C   0  0  0  0  0  2  0  0  0  0  0  0
  -29.0450  -23.4760   20.4620 C   0  0  0  0  0  3  0  0  0  0  0  0
  -27.9560  -24.7220   20.2130 C   0  0  0  0  0  3  0  0  0  0  0  0
  -28.2400  -26.2420   20.3120 O   0  0  0  0  0  0  0  0  0  0  0  0
  -24.6000  -31.8990   23.2650 C   0  0  0  0  0  0  0  0  0  0  0  0
  -27.1820  -27.2120   20.2340 C   0  0  0  0  0  0  0  0  0  0  0  0
  -23.4050  -30.5170   21.6090 C   0  0  0  0  0  3  0  0  0  0  0  0
  -24.8560  -28.9490   20.1900 C   0  0  0  0  0  0  0  0  0  0  0  0
  -25.9590  -30.7810   21.4610 C   0  0  0  0  0  2  0  0  0  0  0  0
  -26.0330  -29.3950   20.8040 C   0  0  0  0  0  0  0  0  0  0  0  0
  -27.1980  -28.5440   20.8070 C   0  0  0  0  0  3  0  0  0  0  0  0
  -25.9780  -26.8600   19.5840 C   0  0  0  0  0  3  0  0  0  0  0  0
  -24.8410  -27.6940   19.5640 C   0  0  0  0  0  3  0  0  0  0  0  0
  -23.6320  -29.8490   20.2290 C   0  0  0  0  0  2  0  0  0  0  0  0
  -24.6750  -31.0870   22.1670 N   0  0  0  0  0  0  0  0  0  0  0  0
  -23.5120  -32.1850   23.7860 O   0  0  0  0  0  0  0  0  0  0  0  0
  -22.7170  -29.5060   22.5590 C   0  0  0  0  0  0  0  0  0  0  0  0
  -21.3910  -29.3310   22.4110 N   0  0  0  0  0  0  0  0  0  0  0  0
  -23.3760  -28.8810   23.3920 O   0  0  0  0  0  0  0  0  0  0  0  0
  -20.9140  -29.8870   21.7140 H   0  0  0  0  0  0  0  0  0  0  0  0
  -18.0040  -28.1320   22.8620 C   0  0  0  0  0  0  0  0  0  0  0  0
  -20.5590  -28.3930   23.1680 C   0  0  0  0  0  3  0  0  0  0  0  0
  -20.6700  -26.9610   22.5960 C   0  0  0  0  0  2  0  0  0  0  0  0
  -19.5840  -26.6380   21.5640 C   0  0  0  0  0  2  0  0  0  0  0  0
  -18.1910  -26.7830   22.1870 C   0  0  0  0  0  2  0  0  0  0  0  0
  -19.1150  -28.8940   23.3080 C   0  0  0  0  0  0  0  0  0  0  0  0
  -18.8860  -30.1560   23.8980 C   0  0  0  0  0  3  0  0  0  0  0  0
  -17.5780  -30.6560   24.0450 C   0  0  0  0  0  3  0  0  0  0  0  0
  -16.4810  -29.8890   23.6170 C   0  0  0  0  0  3  0  0  0  0  0  0
  -16.6940  -28.6300   23.0300 C   0  0  0  0  0  3  0  0  0  0  0  0
  -25.8780  -32.5240   23.9020 C   0  0  0  0  0  3  0  0  0  0  0  0
  -25.5800  -33.9280   24.2230 N   0  0  0  0  0  0  0  0  0  0  0  0
  -25.9190  -34.9740   23.4570 C   0  0  0  0  0  0  0  0  0  0  0  0
  -26.5850  -34.8570   22.4250 O   0  0  0  0  0  0  0  0  0  0  0  0
  -24.9920  -34.0940   25.0260 H   0  0  0  0  0  0  0  0  0  0  0  0
  -24.2090  -36.7830   23.0950 C   0  0  0  0  0  1  0  0  0  0  0  0
  -25.4470  -36.3710   23.9070 C   0  0  0  0  0  3  0  0  0  0  0  0
  -27.5870  -37.2450   24.7340 C   0  0  0  0  0  1  0  0  0  0  0  0
  -26.4900  -37.4130   23.7850 N   0  0  0  0  0  0  0  0  0  0  0  0
  -26.0920  -38.3380   23.9230 H   0  0  0  0  0  0  0  0  0  0  0  0
  -26.3630  -31.7580   25.1960 C   0  0  1  0  0  0  0  0  0  0  0  0
  -25.2470  -31.5430   26.2450 C   0  0  0  0  0  1  0  0  0  0  0  0
  -26.9370  -30.3700   24.8300 C   0  0  0  0  0  1  0  0  0  0  0  0
  -27.5110  -32.5430   25.8720 C   0  0  0  0  0  1  0  0  0  0  0  0
  2  1  1  0
  2  4  1  0
  3  4  2  0
  4 45  1  0
  5  6  1  0
  5  7  1  0
  6  7  1  0
  6  3  1  0
  7  8  1  0
  9 14  1  0
 10 11  1  0
 10  9  1  0
 12 11  1  0
 12 19  1  0
 12 13  1  0
 14  8  1  0
 14 13  1  0
 15  8  2  0
 16 17  2  0
 17 36  1  0
 18 17  1  0
 18 21  1  0
 19 16  1  0
 19 20  1  0
 20 18  2  0
 21 22  1  0
 22 23  2  0
 24 27  1  0
 24 23  1  0
 25 24  2  0
 26 25  1  0
 26 21  2  0
 27 28  1  0
 28 29  1  0
 29 30  2  0
 31 30  1  0
 31 35  1  0
 32 31  2  0
 33 28  2  0
 33 32  1  0
 34 33  1  0
 36 37  1  0
 37 40  1  0
 37 39  1  0
 38 36  2  0
 41 42  1  0
 41 16  1  0
 43 41  1  0
 45 44  1  0
 46  2  1  0
 47 48  1  0
 47 46  2  0
 49 60  2  0
 50 48  1  0
 50 55  1  0
 51 59  1  0
 51 61  1  0
 52 58  1  0
 52 54  1  0
 53 59  1  0
 54 55  2  0
 54 53  1  0
 56 50  2  0
 57 56  1  0
 57 52  2  0
 58 51  1  0
 59 49  1  0
 61 63  2  0
 62 61  1  0
 64 62  1  0
 65 74  2  0
 65 70  1  0
 66 62  1  0
 66 70  1  0
 67 66  1  0
 68 69  1  0
 68 67  1  0
 69 65  1  0
 70 71  2  0
 71 72  1  0
 73 72  2  0
 74 73  1  0
 75 49  1  0
 75 76  1  0
 75 85  1  0
 76 79  1  0
 77 81  1  0
 77 76  1  0
 78 77  2  0
 81 80  1  0
 83 81  1  0
 83 84  1  0
 83 82  1  0
 85 88  1  1
 85 86  1  0
 87 85  1  0
M  ISO  4   7 100   8 100  47 101  48 101
M  END
>  <TORSDO>  (1) 
F 21

>  <SCORE>  (1) 
-14.224

>  <name>  (1) 
0

>  <ligand_id>  (1) 
0

>  <original_smiles>  (1) 
[H]C(=C(C([H])([H])C([H])([H])[H])C([H])(C([H])([H])[H])C([H])([H])C([H])([H])Oc1c([H])c([H])c2c(c1[H])C([H])([H])N(C(=O)C([H])(N([H])C(=O)C([H])(N([H])C([H])([H])[H])C([H])([H])[H])C(C([H])([H])[H])(C([H])([H])[H])C([H])([H])[H])C([H])(C(=O)N([H])C1([H])c3c([H])c([H])c([H])c([H])c3C([H])([H])C([H])([H])C1([H])[H])C2([H])[H])C1([H])C([H])([H])C1([H])C(=O)N1C([H])([H])C([H])([H])C([H])([H])C([H])(n2nc(-c3c([H])c([H])c(Oc4c([H])c([H])c(F)c([H])c4F)c([H])c3[H])c(C(=O)N([H])[H])c2N([H])[H])C1([H])[H]

>  <smiles>  (1) 
[H]C(=C(C([H])([H])C([H])([H])[H])C([H])(C([H])([H])[H])C([H])([H])C([H])([H])Oc1c([H])c([H])c2c(c1[H])C([H])([H])N(C(=O)C([H])(N([H])C(=O)C([H])(N([H])C([H])([H])[H])C([H])([H])[H])C(C([H])([H])[H])(C([H])([H])[H])C([H])([H])[H])C([H])(C(=O)N([H])C1([H])c3c([H])c([H])c([H])c([H])c3C([H])([H])C([H])([H])C1([H])[H])C2([H])[H])C1([H])C([H])([H])C1([H])C(=O)N1C([H])([H])C([H])([H])C([H])([H])C([H])(n2nc(-c3c([H])c([H])c(Oc4c([H])c([H])c(F)c([H])c4F)c([H])c3[H])c(C(=O)N([H])[H])c2N([H])[H])C1([H])[H]

$$$$
1:0:0
     RDKit          3D

 89 98  0  0  1  0  0  0  0  0999 V2000
  -29.8070  -18.6050   22.1120 C   0  0  0  0  0  2  0  0  0  0  0  0
  -30.8650  -18.7720   21.2930 C   0  0  0  0  0  3  0  0  0  0  0  0
  -28.5830  -18.8200   21.2260 C   0  0  0  0  0  2  0  0  0  0  0  0
  -31.1440  -20.2830   21.0130 C   0  0  0  0  0  2  0  0  0  0  0  0
  -30.4680  -18.1790   19.9510 C   0  0  0  0  0  3  0  0  0  0  0  0
  -29.3040  -19.3230   19.9430 C   0  0  0  0  0  3  0  0  0  0  0  0
  -29.8510  -20.7070   20.3960 N   0  0  2  0  0  4  0  0  0  0  0  0
  -29.2690  -20.8540   21.2080 H   0  0  0  0  0  0  0  0  0  0  0  0
  -30.0780  -16.5190   19.9000 C   0  0  0  0  0  2  0  0  0  0  0  0
  -30.9840  -15.1470   19.7050 C   0  0  0  0  0  0  0  0  0  0  0  0
  -30.8240  -12.7590   18.8720 C   0  0  0  0  0  2  0  0  0  0  0  0
  -29.8040  -12.6920   17.7080 C   0  0  0  0  0  2  0  0  0  0  0  0
  -28.3650  -12.5180   18.2350 C   0  0  0  0  0  2  0  0  0  0  0  0
  -28.0440  -13.5020   19.3860 C   0  0  0  0  0  3  0  0  0  0  0  0
  -29.1660  -13.5140   20.4440 C   0  0  0  0  0  2  0  0  0  0  0  0
  -30.4210  -13.8740   19.7680 N   0  0  0  0  0  0  0  0  0  0  0  0
  -32.1600  -15.2240   19.3310 O   0  0  0  0  0  0  0  0  0  0  0  0
  -25.7730  -14.1670   20.3680 C   0  0  0  0  0  0  0  0  0  0  0  0
  -24.6960  -13.4310   20.7760 C   0  0  0  0  0  0  0  0  0  0  0  0
  -25.0680  -12.0600   20.6140 C   0  0  0  0  0  0  0  0  0  0  0  0
  -26.7340  -13.2490   19.9770 N   0  0  0  0  0  0  0  0  0  0  0  0
  -26.3240  -11.9720   20.1900 N   0  0  0  0  0  0  0  0  0  0  0  0
  -24.2810  -10.8310   20.7760 C   0  0  0  0  0  0  0  0  0  0  0  0
  -24.6860   -9.8030   21.6570 C   0  0  0  0  0  3  0  0  0  0  0  0
  -23.8990   -8.6410   21.8090 C   0  0  0  0  0  3  0  0  0  0  0  0
  -22.6940   -8.4980   21.0810 C   0  0  0  0  0  0  0  0  0  0  0  0
  -22.3090   -9.5140   20.1870 C   0  0  0  0  0  3  0  0  0  0  0  0
  -23.0950  -10.6660   20.0330 C   0  0  0  0  0  3  0  0  0  0  0  0
  -21.8770   -7.3960   21.1480 O   0  0  0  0  0  0  0  0  0  0  0  0
  -21.7330   -6.6770   22.3090 C   0  0  0  0  0  0  0  0  0  0  0  0
  -21.2250   -7.2610   23.4880 C   0  0  0  0  0  3  0  0  0  0  0  0
  -21.0300   -6.4700   24.6390 C   0  0  0  0  0  3  0  0  0  0  0  0
  -21.3330   -5.0970   24.6080 C   0  0  0  0  0  0  0  0  0  0  0  0
  -21.8340   -4.5110   23.4330 C   0  0  0  0  0  3  0  0  0  0  0  0
  -22.0320   -5.3000   22.2860 C   0  0  0  0  0  0  0  0  0  0  0  0
  -22.4980   -4.7260   21.1490 F   0  0  0  0  0  0  0  0  0  0  0  0
  -21.1370   -4.3340   25.7100 F   0  0  0  0  0  0  0  0  0  0  0  0
  -23.3580  -13.9660   21.2020 C   0  0  0  0  0  0  0  0  0  0  0  0
  -22.6740  -13.2630   22.0970 N   0  0  0  0  0  0  0  0  0  0  0  0
  -22.9370  -15.0410   20.7750 O   0  0  0  0  0  0  0  0  0  0  0  0
  -23.0280  -12.3890   22.4580 H   0  0  0  0  0  0  0  0  0  0  0  0
  -21.7830  -13.6020   22.4320 H   0  0  0  0  0  0  0  0  0  0  0  0
  -26.0140  -15.5340   20.2710 N   0  0  0  0  0  0  0  0  0  0  0  0
  -25.3060  -16.2310   20.4770 H   0  0  0  0  0  0  0  0  0  0  0  0
  -26.8610  -15.9290   19.8830 H   0  0  0  0  0  0  0  0  0  0  0  0
  -29.6550  -22.0810   19.6410 C   0  0  0  0  0  2  0  0  0  0  0  0
  -29.5560  -23.5690   20.4180 C   0  0  0  0  0  3  0  0  0  0  0  0
  -28.6590  -24.8810   19.8760 C   0  0  0  0  0  3  0  0  0  0  0  0
  -28.7030  -26.3530   20.3700 O   0  0  0  0  0  0  0  0  0  0  0  0
  -24.5450  -31.7420   23.1760 C   0  0  0  0  0  0  0  0  0  0  0  0
  -27.5910  -27.2570   20.2320 C   0  0  0  0  0  0  0  0  0  0  0  0
  -23.5350  -30.3050   21.4450 C   0  0  0  0  0  3  0  0  0  0  0  0
  -25.1580  -28.8400   20.0910 C   0  0  0  0  0  0  0  0  0  0  0  0
  -26.0700  -30.7260   21.4360 C   0  0  0  0  0  2  0  0  0  0  0  0
  -26.2680  -29.3490   20.7780 C   0  0  0  0  0  0  0  0  0  0  0  0
  -27.4850  -28.5730   20.8320 C   0  0  0  0  0  3  0  0  0  0  0  0
  -26.4550  -26.8490   19.4980 C   0  0  0  0  0  3  0  0  0  0  0  0
  -25.2640  -27.6040   19.4350 C   0  0  0  0  0  3  0  0  0  0  0  0
  -23.8820  -29.6640   20.0730 C   0  0  0  0  0  2  0  0  0  0  0  0
  -24.7330  -30.9480   22.0770 N   0  0  0  0  0  0  0  0  0  0  0  0
  -23.4140  -31.9480   23.6440 O   0  0  0  0  0  0  0  0  0  0  0  0
  -22.8640  -29.2430   22.3520 C   0  0  0  0  0  0  0  0  0  0  0  0
  -21.5420  -29.0540   22.2000 N   0  0  0  0  0  0  0  0  0  0  0  0
  -23.5370  -28.5920   23.1570 O   0  0  0  0  0  0  0  0  0  0  0  0
  -21.0590  -29.6500   21.5420 H   0  0  0  0  0  0  0  0  0  0  0  0
  -18.1740  -27.7690   22.6190 C   0  0  0  0  0  0  0  0  0  0  0  0
  -20.7280  -28.0630   22.9130 C   0  0  0  0  0  3  0  0  0  0  0  0
  -20.8500  -26.6610   22.2740 C   0  0  0  0  0  2  0  0  0  0  0  0
  -19.7620  -26.3670   21.2350 C   0  0  0  0  0  2  0  0  0  0  0  0
  -18.3750  -26.4560   21.8790 C   0  0  0  0  0  2  0  0  0  0  0  0
  -19.2780  -28.5290   23.0930 C   0  0  0  0  0  0  0  0  0  0  0  0
  -19.0350  -29.7490   23.7570 C   0  0  0  0  0  3  0  0  0  0  0  0
  -17.7230  -30.2220   23.9400 C   0  0  0  0  0  3  0  0  0  0  0  0
  -16.6330  -29.4620   23.4770 C   0  0  0  0  0  3  0  0  0  0  0  0
  -16.8600  -28.2360   22.8270 C   0  0  0  0  0  3  0  0  0  0  0  0
  -25.7390  -32.4440   23.8910 C   0  0  0  0  0  3  0  0  0  0  0  0
  -26.1720  -31.7270   25.2280 C   0  0  1  0  0  0  0  0  0  0  0  0
  -25.0050  -31.4750   26.2140 C   0  0  0  0  0  1  0  0  0  0  0  0
  -26.8340  -30.3650   24.9230 C   0  0  0  0  0  1  0  0  0  0  0  0
  -27.2440  -32.5780   25.9500 C   0  0  0  0  0  1  0  0  0  0  0  0
  -25.3450  -33.8370   24.1610 N   0  0  0  0  0  0  0  0  0  0  0  0
  -25.6890  -34.8910   23.4080 C   0  0  0  0  0  0  0  0  0  0  0  0
  -26.4390  -34.7940   22.4340 O   0  0  0  0  0  0  0  0  0  0  0  0
  -24.6910  -33.9770   24.9160 H   0  0  0  0  0  0  0  0  0  0  0  0
  -23.9300  -36.6130   22.8770 C   0  0  0  0  0  1  0  0  0  0  0  0
  -25.1170  -36.2710   23.7930 C   0  0  0  0  0  3  0  0  0  0  0  0
  -27.1340  -37.2690   24.7790 C   0  0  0  0  0  1  0  0  0  0  0  0
  -26.1150  -37.3620   23.7350 N   0  0  0  0  0  0  0  0  0  0  0  0
  -25.6680  -38.2710   23.8080 H   0  0  0  0  0  0  0  0  0  0  0  0
  2  4  1  0
  2  1  1  0
  3  1  1  0
  5  9  1  0
  5  2  1  0
  6  5  1  0
  6  7  1  0
  6  3  1  0
  7  4  1  0
  7  8  1  1
 10 16  1  0
 10  9  1  0
 11 16  1  0
 12 13  1  0
 12 11  1  0
 14 13  1  0
 14 21  1  0
 14 15  1  0
 16 15  1  0
 17 10  2  0
 18 19  2  0
 19 38  1  0
 20 23  1  0
 20 19  1  0
 21 22  1  0
 21 18  1  0
 22 20  2  0
 23 24  1  0
 24 25  2  0
 26 29  1  0
 26 25  1  0
 27 26  2  0
 28 27  1  0
 28 23  2  0
 29 30  1  0
 30 31  1  0
 31 32  2  0
 33 32  1  0
 33 37  1  0
 34 33  2  0
 35 30  2  0
 35 34  1  0
 36 35  1  0
 38 39  1  0
 39 42  1  0
 39 41  1  0
 40 38  2  0
 43 18  1  0
 43 44  1  0
 45 43  1  0
 46  7  1  0
 46 47  1  0
 48 49  1  0
 48 47  2  0
 50 61  2  0
 51 49  1  0
 51 56  1  0
 52 60  1  0
 52 62  1  0
 53 55  1  0
 54 60  1  0
 55 56  2  0
 55 54  1  0
 57 51  2  0
 58 57  1  0
 58 53  2  0
 59 53  1  0
 59 52  1  0
 60 50  1  0
 62 64  2  0
 63 62  1  0
 65 63  1  0
 66 75  2  0
 66 71  1  0
 67 63  1  0
 67 71  1  0
 68 67  1  0
 69 70  1  0
 69 68  1  0
 70 66  1  0
 71 72  2  0
 72 73  1  0
 74 73  2  0
 75 74  1  0
 76 50  1  0
 76 81  1  0
 76 77  1  0
 77 80  1  1
 77 78  1  0
 79 77  1  0
 81 84  1  0
 82 86  1  0
 82 81  1  0
 83 82  2  0
 86 85  1  0
 88 86  1  0
 88 89  1  0
 88 87  1  0
M  ISO  4   9 100  10 100  48 101  49 101
M  END
>  <TORSDO>  (2) 
F 20

>  <SCORE>  (2) 
-12.167

>  <name>  (2) 
1

>  <ligand_id>  (2) 
1

>  <original_smiles>  (2) 
[H]C1=C2C([H])(C([H])([H])C(=O)N3C([H])([H])C([H])([H])C([H])([H])C([H])(n4nc(-c5c([H])c([H])c(Oc6c([H])c([H])c(F)c([H])c6F)c([H])c5[H])c(C(=O)N([H])[H])c4N([H])[H])C3([H])[H])C([H])(C1([H])[H])[N+]([H])(C([H])([H])C([H])([H])C([H])([H])Oc1c([H])c([H])c3c(c1[H])C([H])([H])N(C(=O)C([H])(N([H])C(=O)C([H])(N([H])C([H])([H])[H])C([H])([H])[H])C(C([H])([H])[H])(C([H])([H])[H])C([H])([H])[H])C([H])(C(=O)N([H])C1([H])c4c([H])c([H])c([H])c([H])c4C([H])([H])C([H])([H])C1([H])[H])C3([H])[H])C2([H])[H]

>  <smiles>  (2) 
[H]C1=C2C([H])(C([H])([H])C(=O)N3C([H])([H])C([H])([H])C([H])([H])C([H])(n4nc(-c5c([H])c([H])c(Oc6c([H])c([H])c(F)c([H])c6F)c([H])c5[H])c(C(=O)N([H])[H])c4N([H])[H])C3([H])[H])C([H])(C1([H])[H])[N+]([H])(C([H])([H])C([H])([H])C([H])([H])Oc1c([H])c([H])c3c(c1[H])C([H])([H])N(C(=O)C([H])(N([H])C(=O)C([H])(N([H])C([H])([H])[H])C([H])([H])[H])C(C([H])([H])[H])(C([H])([H])[H])C([H])([H])[H])C([H])(C(=O)N([H])C1([H])c4c([H])c([H])c([H])c([H])c4C([H])([H])C([H])([H])C1([H])[H])C3([H])[H])C2([H])[H]

$$$$
2:0:0
     RDKit          3D

 85 92  0  0  1  0  0  0  0  0999 V2000
  -28.3650  -21.6180   21.9700 C   0  0  0  0  0  2  0  0  0  0  0  0
  -29.8150  -21.9810   21.7160 C   0  0  0  0  0  2  0  0  0  0  0  0
  -28.1720  -19.7230   20.0730 C   0  0  0  0  0  2  0  0  0  0  0  0
  -30.2080  -20.2110   19.7580 C   0  0  0  0  0  2  0  0  0  0  0  0
  -29.5770  -18.5730   20.2300 C   0  0  0  0  0  2  0  0  0  0  0  0
  -27.8650  -21.5370   20.5250 C   0  0  0  0  0  3  0  0  0  0  0  0
  -29.8040  -21.9990   20.1850 C   0  0  0  0  0  3  0  0  0  0  0  0
  -28.4290  -23.1730   19.9190 C   0  0  0  0  0  2  0  0  0  0  0  0
  -30.2000  -16.5630   19.9780 C   0  0  0  0  0  2  0  0  0  0  0  0
  -30.5050  -13.8430   19.2570 C   0  0  0  0  0  2  0  0  0  0  0  0
  -29.6690  -13.1430   18.1220 C   0  0  0  0  0  2  0  0  0  0  0  0
  -28.3260  -12.6260   18.6430 C   0  0  0  0  0  2  0  0  0  0  0  0
  -27.7340  -13.6500   19.6250 C   0  0  0  0  0  3  0  0  0  0  0  0
  -28.7350  -14.2470   20.6660 C   0  0  0  0  0  2  0  0  0  0  0  0
  -29.7890  -15.0680   19.9630 N   0  0  0  0  0  0  0  0  0  0  0  0
  -31.4250  -16.3700   19.7360 O   0  0  0  0  0  1  0  0  0  0  0  0
  -25.4170  -14.0690   20.5310 C   0  0  0  0  0  0  0  0  0  0  0  0
  -24.3900  -13.2570   20.9150 C   0  0  0  0  0  0  0  0  0  0  0  0
  -24.8790  -11.9170   20.8090 C   0  0  0  0  0  0  0  0  0  0  0  0
  -26.4640  -13.2320   20.2060 N   0  0  0  0  0  0  0  0  0  0  0  0
  -26.1590  -11.9230   20.4330 N   0  0  0  0  0  0  0  0  0  0  0  0
  -24.1700  -10.6390   20.9870 C   0  0  0  0  0  0  0  0  0  0  0  0
  -24.6040   -9.6720   21.9230 C   0  0  0  0  0  3  0  0  0  0  0  0
  -23.8860   -8.4680   22.0950 C   0  0  0  0  0  3  0  0  0  0  0  0
  -22.7190   -8.2200   21.3330 C   0  0  0  0  0  0  0  0  0  0  0  0
  -22.3040   -9.1750   20.3880 C   0  0  0  0  0  3  0  0  0  0  0  0
  -23.0220  -10.3710   20.2150 C   0  0  0  0  0  3  0  0  0  0  0  0
  -21.9760   -7.0660   21.4130 O   0  0  0  0  0  0  0  0  0  0  0  0
  -21.8640   -6.3600   22.5830 C   0  0  0  0  0  0  0  0  0  0  0  0
  -21.3030   -6.9300   23.7460 C   0  0  0  0  0  3  0  0  0  0  0  0
  -21.1430   -6.1480   24.9080 C   0  0  0  0  0  3  0  0  0  0  0  0
  -21.5340   -4.7950   24.9060 C   0  0  0  0  0  0  0  0  0  0  0  0
  -22.0890   -4.2250   23.7480 C   0  0  0  0  0  3  0  0  0  0  0  0
  -22.2500   -5.0040   22.5890 C   0  0  0  0  0  0  0  0  0  0  0  0
  -22.7630   -4.4420   21.4680 F   0  0  0  0  0  0  0  0  0  0  0  0
  -21.3750   -4.0420   26.0190 F   0  0  0  0  0  0  0  0  0  0  0  0
  -23.0010  -13.7060   21.2580 C   0  0  0  0  0  0  0  0  0  0  0  0
  -22.3250  -12.9850   22.1430 N   0  0  0  0  0  0  0  0  0  0  0  0
  -22.5270  -14.7350   20.7770 O   0  0  0  0  0  0  0  0  0  0  0  0
  -22.7230  -12.1530   22.5530 H   0  0  0  0  0  0  0  0  0  0  0  0
  -21.3940  -13.2690   22.4170 H   0  0  0  0  0  0  0  0  0  0  0  0
  -25.5450  -15.4480   20.3940 N   0  0  0  0  0  0  0  0  0  0  0  0
  -24.7720  -16.0820   20.5660 H   0  0  0  0  0  0  0  0  0  0  0  0
  -26.3720  -15.9170   20.0480 H   0  0  0  0  0  0  0  0  0  0  0  0
  -28.2220  -25.1320   20.2440 O   0  0  0  0  0  1  0  0  0  0  0  0
  -24.7500  -31.8990   23.2390 C   0  0  0  0  0  0  0  0  0  0  0  0
  -27.2790  -26.5260   20.1820 C   0  0  0  0  0  0  0  0  0  0  0  0
  -23.5760  -30.5000   21.5990 C   0  0  0  0  0  3  0  0  0  0  0  0
  -25.0280  -28.8030   20.1690 C   0  0  0  0  0  0  0  0  0  0  0  0
  -26.1670  -30.5480   21.5010 C   0  0  0  0  0  2  0  0  0  0  0  0
  -26.2320  -29.0800   20.8220 C   0  0  0  0  0  0  0  0  0  0  0  0
  -27.3150  -27.9820   20.7890 C   0  0  0  0  0  3  0  0  0  0  0  0
  -26.0360  -26.5720   19.4630 C   0  0  0  0  0  3  0  0  0  0  0  0
  -24.9930  -27.5810   19.4630 C   0  0  0  0  0  3  0  0  0  0  0  0
  -23.8280  -29.7910   20.2300 C   0  0  0  0  0  2  0  0  0  0  0  0
  -24.8610  -31.0260   22.1650 N   0  0  0  0  0  0  0  0  0  0  0  0
  -23.6510  -32.2000   23.7420 O   0  0  0  0  0  0  0  0  0  0  0  0
  -22.8390  -29.5410   22.5770 C   0  0  0  0  0  0  0  0  0  0  0  0
  -21.5080  -29.3670   22.4400 N   0  0  0  0  0  0  0  0  0  0  0  0
  -23.4870  -28.9450   23.4410 O   0  0  0  0  0  0  0  0  0  0  0  0
  -21.0270  -29.8980   21.7280 H   0  0  0  0  0  0  0  0  0  0  0  0
  -18.1460  -28.0480   22.9310 C   0  0  0  0  0  0  0  0  0  0  0  0
  -20.6950  -28.4120   23.2100 C   0  0  0  0  0  3  0  0  0  0  0  0
  -20.8480  -26.9780   22.6500 C   0  0  0  0  0  2  0  0  0  0  0  0
  -19.7710  -26.6140   21.6240 C   0  0  0  0  0  2  0  0  0  0  0  0
  -18.3780  -26.7070   22.2530 C   0  0  0  0  0  2  0  0  0  0  0  0
  -19.2330  -28.8560   23.3650 C   0  0  0  0  0  0  0  0  0  0  0  0
  -18.9570  -30.1020   23.9660 C   0  0  0  0  0  3  0  0  0  0  0  0
  -17.6300  -30.5460   24.1320 C   0  0  0  0  0  3  0  0  0  0  0  0
  -16.5610  -29.7380   23.7090 C   0  0  0  0  0  3  0  0  0  0  0  0
  -16.8190  -28.4890   23.1160 C   0  0  0  0  0  3  0  0  0  0  0  0
  -25.9950  -32.5750   23.8930 C   0  0  0  0  0  3  0  0  0  0  0  0
  -25.6550  -33.9790   24.2240 N   0  0  0  0  0  0  0  0  0  0  0  0
  -25.9480  -35.0530   23.4750 C   0  0  0  0  0  0  0  0  0  0  0  0
  -26.5760  -34.9650   22.4180 O   0  0  0  0  0  0  0  0  0  0  0  0
  -25.0870  -34.1170   25.0460 H   0  0  0  0  0  0  0  0  0  0  0  0
  -24.1700  -36.8310   23.2570 C   0  0  0  0  0  1  0  0  0  0  0  0
  -25.4740  -36.4400   23.9690 C   0  0  0  0  0  3  0  0  0  0  0  0
  -27.6410  -37.3850   24.6490 C   0  0  0  0  0  1  0  0  0  0  0  0
  -26.4770  -37.5120   23.7750 N   0  0  0  0  0  0  0  0  0  0  0  0
  -26.0620  -38.4270   23.9320 H   0  0  0  0  0  0  0  0  0  0  0  0
  -26.4780  -31.8370   25.2040 C   0  0  1  0  0  0  0  0  0  0  0  0
  -25.3570  -31.6170   26.2490 C   0  0  0  0  0  1  0  0  0  0  0  0
  -27.0800  -30.4530   24.8770 C   0  0  0  0  0  1  0  0  0  0  0  0
  -27.6070  -32.6520   25.8790 C   0  0  0  0  0  1  0  0  0  0  0  0
  2  1  1  0
  3  5  1  0
  3  6  1  0
  4  5  1  0
  6  8  1  0
  6  1  1  0
  7  4  1  0
  7  2  1  0
  8  7  1  0
 10 15  1  0
 11 12  1  0
 11 10  1  0
 13 12  1  0
 13 20  1  0
 13 14  1  0
 15  9  1  0
 15 14  1  0
 16  9  1  0
 17 18  2  0
 18 37  1  0
 19 18  1  0
 19 22  1  0
 20 21  1  0
 20 17  1  0
 21 19  2  0
 22 23  1  0
 23 24  2  0
 25 28  1  0
 25 24  1  0
 26 25  2  0
 27 26  1  0
 27 22  2  0
 28 29  1  0
 29 34  2  0
 29 30  1  0
 30 31  2  0
 32 31  1  0
 32 36  1  0
 33 32  2  0
 34 33  1  0
 35 34  1  0
 37 38  1  0
 38 41  1  0
 38 40  1  0
 39 37  2  0
 42 17  1  0
 42 43  1  0
 44 42  1  0
 46 57  2  0
 47 45  1  0
 47 52  1  0
 48 56  1  0
 48 58  1  0
 49 55  1  0
 49 51  1  0
 50 56  1  0
 51 50  1  0
 52 51  2  0
 53 47  2  0
 54 53  1  0
 54 49  2  0
 55 48  1  0
 56 46  1  0
 58 60  2  0
 59 58  1  0
 61 59  1  0
 62 71  2  0
 62 67  1  0
 63 59  1  0
 63 67  1  0
 64 63  1  0
 65 66  1  0
 65 64  1  0
 66 62  1  0
 67 68  2  0
 68 69  1  0
 70 69  2  0
 71 70  1  0
 72 46  1  0
 72 73  1  0
 72 82  1  0
 73 76  1  0
 74 78  1  0
 74 73  1  0
 75 74  2  0
 78 77  1  0
 80 81  1  0
 80 78  1  0
 80 79  1  0
 82 85  1  1
 82 83  1  0
 84 82  1  0
M  ISO  4   5 100   8 101   9 100  45 101
M  END
>  <TORSDO>  (3) 
F 16

>  <SCORE>  (3) 
-16.344

>  <name>  (3) 
2

>  <ligand_id>  (3) 
2

>  <original_smiles>  (3) 
[H]c1c([H])c([H])c2c(c1[H])C([H])([H])C([H])([H])C([H])([H])C2([H])N([H])C(=O)C1([H])N(C(=O)C([H])(N([H])C(=O)C([H])(N([H])C([H])([H])[H])C([H])([H])[H])C(C([H])([H])[H])(C([H])([H])[H])C([H])([H])[H])C([H])([H])c2c([H])c(OC3([H])C4([H])C([H])([H])C([H])([H])C3([H])C([H])([H])C([H])(C(=O)N3C([H])([H])C([H])([H])C([H])([H])C([H])(n5nc(-c6c([H])c([H])c(Oc7c([H])c([H])c(F)c([H])c7F)c([H])c6[H])c(C(=O)N([H])[H])c5N([H])[H])C3([H])[H])C4([H])[H])c([H])c([H])c2C1([H])[H]

>  <smiles>  (3) 
[H]c1c([H])c([H])c2c(c1[H])C([H])([H])C([H])([H])C([H])([H])C2([H])N([H])C(=O)C1([H])N(C(=O)C([H])(N([H])C(=O)C([H])(N([H])C([H])([H])[H])C([H])([H])[H])C(C([H])([H])[H])(C([H])([H])[H])C([H])([H])[H])C([H])([H])c2c([H])c(OC3([H])C4([H])C([H])([H])C([H])([H])C3([H])C([H])([H])C([H])(C(=O)N3C([H])([H])C([H])([H])C([H])([H])C([H])(n5nc(-c6c([H])c([H])c(Oc7c([H])c([H])c(F)c([H])c7F)c([H])c6[H])c(C(=O)N([H])[H])c5N([H])[H])C3([H])[H])C4([H])[H])c([H])c([H])c2C1([H])[H]

$$$$
3:0:0
     RDKit          3D

 85 90  0  0  1  0  0  0  0  0999 V2000
  -28.3980  -18.9330   18.8130 C   0  0  0  0  0  2  0  0  0  0  0  0
  -27.6460  -20.3820   18.5800 C   0  0  0  0  0  2  0  0  0  0  0  0
  -29.0570  -18.5910   20.2240 C   0  0  0  0  0  1  0  0  0  0  0  0
  -28.4030  -21.7920   18.9140 C   0  0  0  0  0  3  0  0  0  0  0  0
  -29.1140  -20.7690   20.5790 C   0  0  0  0  0  1  0  0  0  0  0  0
  -29.8480  -21.4960   19.4380 C   0  0  0  0  0  3  0  0  0  0  0  0
  -28.1160  -22.6770   20.2460 C   0  0  0  0  0  1  0  0  0  0  0  0
  -30.8520  -22.6170   19.7400 C   0  0  0  0  0  1  0  0  0  0  0  0
  -29.9330  -16.5820   20.2340 C   0  0  0  0  0  2  0  0  0  0  0  0
  -30.3660  -13.8160   19.5550 C   0  0  0  0  0  2  0  0  0  0  0  0
  -29.6130  -13.0180   18.4130 C   0  0  0  0  0  2  0  0  0  0  0  0
  -28.2680  -12.4590   18.8820 C   0  0  0  0  0  2  0  0  0  0  0  0
  -27.5970  -13.4940   19.7970 C   0  0  0  0  0  3  0  0  0  0  0  0
  -28.5270  -14.1670   20.8640 C   0  0  0  0  0  2  0  0  0  0  0  0
  -29.5760  -15.0460   20.1980 N   0  0  0  0  0  0  0  0  0  0  0  0
  -31.1840  -16.4040   20.1370 O   0  0  0  0  0  1  0  0  0  0  0  0
  -25.2290  -13.8990   20.5580 C   0  0  0  0  0  0  0  0  0  0  0  0
  -24.1910  -13.0880   20.9100 C   0  0  0  0  0  0  0  0  0  0  0  0
  -24.6990  -11.7520   20.8770 C   0  0  0  0  0  0  0  0  0  0  0  0
  -26.3030  -13.0670   20.3230 N   0  0  0  0  0  0  0  0  0  0  0  0
  -25.9990  -11.7610   20.5730 N   0  0  0  0  0  0  0  0  0  0  0  0
  -23.9910  -10.4720   21.0590 C   0  0  0  0  0  0  0  0  0  0  0  0
  -24.4110   -9.5180   22.0120 C   0  0  0  0  0  3  0  0  0  0  0  0
  -23.6940   -8.3140   22.1870 C   0  0  0  0  0  3  0  0  0  0  0  0
  -22.5400   -8.0510   21.4100 C   0  0  0  0  0  0  0  0  0  0  0  0
  -22.1380   -8.9940   20.4470 C   0  0  0  0  0  3  0  0  0  0  0  0
  -22.8560  -10.1910   20.2710 C   0  0  0  0  0  3  0  0  0  0  0  0
  -21.7990   -6.8970   21.4910 O   0  0  0  0  0  0  0  0  0  0  0  0
  -21.7170   -6.1720   22.6540 C   0  0  0  0  0  0  0  0  0  0  0  0
  -21.1930   -6.7280   23.8420 C   0  0  0  0  0  3  0  0  0  0  0  0
  -21.0620   -5.9280   24.9950 C   0  0  0  0  0  3  0  0  0  0  0  0
  -21.4450   -4.5730   24.9600 C   0  0  0  0  0  0  0  0  0  0  0  0
  -21.9620   -4.0170   23.7770 C   0  0  0  0  0  3  0  0  0  0  0  0
  -22.0940   -4.8140   22.6270 C   0  0  0  0  0  0  0  0  0  0  0  0
  -22.5720   -4.2670   21.4830 F   0  0  0  0  0  0  0  0  0  0  0  0
  -21.3120   -3.8030   26.0660 F   0  0  0  0  0  0  0  0  0  0  0  0
  -22.7790  -13.5320   21.1560 C   0  0  0  0  0  0  0  0  0  0  0  0
  -22.0570  -12.8300   22.0200 N   0  0  0  0  0  0  0  0  0  0  0  0
  -22.3280  -14.5430   20.6190 O   0  0  0  0  0  0  0  0  0  0  0  0
  -22.4360  -12.0150   22.4780 H   0  0  0  0  0  0  0  0  0  0  0  0
  -21.1090  -13.1130   22.2280 H   0  0  0  0  0  0  0  0  0  0  0  0
  -25.3470  -15.2740   20.3810 N   0  0  0  0  0  0  0  0  0  0  0  0
  -24.5580  -15.9010   20.4850 H   0  0  0  0  0  0  0  0  0  0  0  0
  -26.1860  -15.7400   20.0570 H   0  0  0  0  0  0  0  0  0  0  0  0
  -28.0640  -24.7460   20.2900 O   0  0  0  0  0  1  0  0  0  0  0  0
  -24.5770  -31.7830   23.0930 C   0  0  0  0  0  0  0  0  0  0  0  0
  -27.1330  -26.2010   20.2390 C   0  0  0  0  0  0  0  0  0  0  0  0
  -23.4290  -30.3410   21.4750 C   0  0  0  0  0  3  0  0  0  0  0  0
  -24.8990  -28.5710   20.1290 C   0  0  0  0  0  0  0  0  0  0  0  0
  -26.0280  -30.3380   21.4310 C   0  0  0  0  0  2  0  0  0  0  0  0
  -26.1000  -28.8370   20.7950 C   0  0  0  0  0  0  0  0  0  0  0  0
  -27.1690  -27.7020   20.8000 C   0  0  0  0  0  3  0  0  0  0  0  0
  -25.8900  -26.2920   19.5060 C   0  0  0  0  0  3  0  0  0  0  0  0
  -24.8670  -27.3290   19.4580 C   0  0  0  0  0  3  0  0  0  0  0  0
  -23.7100  -29.5820   20.1360 C   0  0  0  0  0  2  0  0  0  0  0  0
  -24.7100  -30.8690   22.0520 N   0  0  0  0  0  0  0  0  0  0  0  0
  -23.4680  -32.1060   23.5630 O   0  0  0  0  0  0  0  0  0  0  0  0
  -22.6610  -29.4240   22.4690 C   0  0  0  0  0  0  0  0  0  0  0  0
  -21.3230  -29.2950   22.3440 N   0  0  0  0  0  0  0  0  0  0  0  0
  -23.2920  -28.8160   23.3370 O   0  0  0  0  0  0  0  0  0  0  0  0
  -20.8550  -29.8330   21.6290 H   0  0  0  0  0  0  0  0  0  0  0  0
  -17.9210  -28.0960   22.8920 C   0  0  0  0  0  0  0  0  0  0  0  0
  -20.4860  -28.3700   23.1270 C   0  0  0  0  0  3  0  0  0  0  0  0
  -20.5780  -26.9310   22.5660 C   0  0  0  0  0  2  0  0  0  0  0  0
  -19.4710  -26.6060   21.5570 C   0  0  0  0  0  2  0  0  0  0  0  0
  -18.0930  -26.7500   22.2090 C   0  0  0  0  0  2  0  0  0  0  0  0
  -19.0430  -28.8650   23.3070 C   0  0  0  0  0  0  0  0  0  0  0  0
  -18.8210  -30.1200   23.9150 C   0  0  0  0  0  3  0  0  0  0  0  0
  -17.5140  -30.6080   24.1050 C   0  0  0  0  0  3  0  0  0  0  0  0
  -16.4090  -29.8390   23.6990 C   0  0  0  0  0  3  0  0  0  0  0  0
  -16.6140  -28.5840   23.0990 C   0  0  0  0  0  3  0  0  0  0  0  0
  -25.8060  -32.4810   23.7560 C   0  0  0  0  0  3  0  0  0  0  0  0
  -25.4500  -33.8860   24.0750 N   0  0  0  0  0  0  0  0  0  0  0  0
  -25.8010  -34.9660   23.3610 C   0  0  0  0  0  0  0  0  0  0  0  0
  -26.5010  -34.8860   22.3490 O   0  0  0  0  0  0  0  0  0  0  0  0
  -24.8260  -34.0190   24.8570 H   0  0  0  0  0  0  0  0  0  0  0  0
  -24.0890  -36.7870   23.0040 C   0  0  0  0  0  1  0  0  0  0  0  0
  -25.3060  -36.3520   23.8370 C   0  0  0  0  0  3  0  0  0  0  0  0
  -27.4110  -37.2350   24.7520 C   0  0  0  0  0  1  0  0  0  0  0  0
  -26.3420  -37.4090   23.7730 N   0  0  0  0  0  0  0  0  0  0  0  0
  -25.9290  -38.3270   23.9140 H   0  0  0  0  0  0  0  0  0  0  0  0
  -26.2810  -31.7600   25.0790 C   0  0  1  0  0  0  0  0  0  0  0  0
  -25.1550  -31.5510   26.1200 C   0  0  0  0  0  1  0  0  0  0  0  0
  -26.8870  -30.3740   24.7730 C   0  0  0  0  0  1  0  0  0  0  0  0
  -27.4060  -32.5830   25.7520 C   0  0  0  0  0  1  0  0  0  0  0  0
  1  3  1  0
  2  1  1  0
  2  4  1  0
  4  6  1  0
  4  7  1  0
  6  8  1  0
  6  5  1  0
 10 15  1  0
 11 12  1  0
 11 10  1  0
 13 12  1  0
 13 20  1  0
 13 14  1  0
 15  9  1  0
 15 14  1  0
 16  9  1  0
 17 18  2  0
 18 37  1  0
 19 18  1  0
 19 22  1  0
 20 17  1  0
 20 21  1  0
 21 19  2  0
 22 23  1  0
 23 24  2  0
 25 28  1  0
 25 24  1  0
 26 25  2  0
 27 26  1  0
 27 22  2  0
 28 29  1  0
 29 30  1  0
 30 31  2  0
 32 31  1  0
 32 36  1  0
 33 32  2  0
 34 29  2  0
 34 33  1  0
 35 34  1  0
 37 38  1  0
 38 41  1  0
 38 40  1  0
 39 37  2  0
 42 43  1  0
 42 17  1  0
 44 42  1  0
 46 57  2  0
 47 45  1  0
 47 52  1  0
 48 56  1  0
 48 58  1  0
 49 55  1  0
 49 51  1  0
 50 56  1  0
 51 52  2  0
 51 50  1  0
 53 47  2  0
 54 53  1  0
 54 49  2  0
 55 48  1  0
 56 46  1  0
 58 60  2  0
 59 58  1  0
 61 59  1  0
 62 71  2  0
 62 67  1  0
 63 59  1  0
 63 67  1  0
 64 63  1  0
 65 66  1  0
 65 64  1  0
 66 62  1  0
 67 68  2  0
 68 69  1  0
 70 69  2  0
 71 70  1  0
 72 46  1  0
 72 73  1  0
 72 82  1  0
 73 76  1  0
 74 78  1  0
 74 73  1  0
 75 74  2  0
 78 77  1  0
 80 78  1  0
 80 81  1  0
 80 79  1  0
 82 85  1  1
 82 83  1  0
 84 82  1  0
M  ISO  4   3 100   7 101   9 100  45 101
M  END
>  <TORSDO>  (4) 
F 16

>  <SCORE>  (4) 
-16.630

>  <name>  (4) 
3

>  <ligand_id>  (4) 
3

>  <original_smiles>  (4) 
[H]c1c([H])c([H])c2c(c1[H])C([H])([H])C([H])([H])C([H])([H])C2([H])N([H])C(=O)C1([H])N(C(=O)C([H])(N([H])C(=O)C([H])(N([H])C([H])([H])[H])C([H])([H])[H])C(C([H])([H])[H])(C([H])([H])[H])C([H])([H])[H])C([H])([H])c2c([H])c(OC3([H])C4([H])C([H])([H])C([H])([H])C([H])(C(=O)N5C([H])([H])C([H])([H])C([H])([H])C([H])(n6nc(-c7c([H])c([H])c(Oc8c([H])c([H])c(F)c([H])c8F)c([H])c7[H])c(C(=O)N([H])[H])c6N([H])[H])C5([H])[H])C3([H])C4([H])C([H])([H])[H])c([H])c([H])c2C1([H])[H]

>  <smiles>  (4) 
[H]c1c([H])c([H])c2c(c1[H])C([H])([H])C([H])([H])C([H])([H])C2([H])N([H])C(=O)C1([H])N(C(=O)C([H])(N([H])C(=O)C([H])(N([H])C([H])([H])[H])C([H])([H])[H])C(C([H])([H])[H])(C([H])([H])[H])C([H])([H])[H])C([H])([H])c2c([H])c(OC3([H])C4([H])C([H])([H])C([H])([H])C([H])(C(=O)N5C([H])([H])C([H])([H])C([H])([H])C([H])(n6nc(-c7c([H])c([H])c(Oc8c([H])c([H])c(F)c([H])c8F)c([H])c7[H])c(C(=O)N([H])[H])c6N([H])[H])C5([H])[H])C3([H])C4([H])C([H])([H])[H])c([H])c([H])c2C1([H])[H]

$$$$
4:0:0
     RDKit          3D

 91101  0  0  1  0  0  0  0  0999 V2000
  -30.7770  -21.5730   23.1050 C   0  0  0  0  0  2  0  0  0  0  0  0
  -32.1190  -21.9280   22.4990 C   0  0  0  0  0  2  0  0  0  0  0  0
  -30.1860  -23.2430   21.2200 C   0  0  0  0  0  2  0  0  0  0  0  0
  -30.8840  -19.4120   20.7190 C   0  0  0  0  0  2  0  0  0  0  0  0
  -28.6450  -19.8390   20.2970 C   0  0  0  0  0  2  0  0  0  0  0  0
  -28.8280  -22.8110   20.6510 C   0  0  0  0  0  3  0  0  0  0  0  0
  -29.7420  -18.5200   20.1230 C   0  0  0  0  0  3  0  0  0  0  0  0
  -30.6180  -20.9920   20.4700 C   0  0  0  0  0  3  0  0  0  0  0  0
  -30.8720  -21.9570   21.6400 C   0  0  2  0  0  0  0  0  0  0  0  0
  -29.2230  -21.3140   20.0290 N   0  0  1  0  0  4  0  0  0  0  0  0
  -29.2690  -21.4390   19.0270 H   0  0  0  0  0  0  0  0  0  0  0  0
  -28.1470  -24.2430   19.8120 C   0  0  0  0  0  0  0  0  0  0  0  0
  -27.5870  -24.0200   18.7350 O   0  0  0  0  0  0  0  0  0  0  0  0
  -28.1630  -25.8330   20.3710 O   0  0  0  0  0  0  0  0  0  0  0  0
  -24.6240  -31.8440   23.2150 C   0  0  0  0  0  0  0  0  0  0  0  0
  -27.1810  -26.9500   20.2160 C   0  0  0  0  0  0  0  0  0  0  0  0
  -23.4300  -30.4410   21.5830 C   0  0  0  0  0  3  0  0  0  0  0  0
  -24.8790  -28.8280   20.1650 C   0  0  0  0  0  0  0  0  0  0  0  0
  -25.9980  -30.6430   21.4450 C   0  0  0  0  0  2  0  0  0  0  0  0
  -26.0640  -29.2320   20.7900 C   0  0  0  0  0  0  0  0  0  0  0  0
  -27.2060  -28.3120   20.7960 C   0  0  0  0  0  3  0  0  0  0  0  0
  -25.9640  -26.6990   19.5390 C   0  0  0  0  0  3  0  0  0  0  0  0
  -24.8520  -27.5790   19.5250 C   0  0  0  0  0  3  0  0  0  0  0  0
  -23.6580  -29.7450   20.2120 C   0  0  0  0  0  2  0  0  0  0  0  0
  -24.7050  -31.0040   22.1340 N   0  0  0  0  0  0  0  0  0  0  0  0
  -23.5340  -32.1420   23.7290 O   0  0  0  0  0  0  0  0  0  0  0  0
  -22.7250  -29.4580   22.5550 C   0  0  0  0  0  0  0  0  0  0  0  0
  -21.3930  -29.3080   22.4350 N   0  0  0  0  0  0  0  0  0  0  0  0
  -23.3840  -28.8240   23.3840 O   0  0  0  0  0  0  0  0  0  0  0  0
  -20.9100  -29.8770   21.7530 H   0  0  0  0  0  0  0  0  0  0  0  0
  -17.9970  -28.1310   22.9550 C   0  0  0  0  0  0  0  0  0  0  0  0
  -20.5610  -28.3780   23.2090 C   0  0  0  0  0  3  0  0  0  0  0  0
  -20.6480  -26.9410   22.6390 C   0  0  0  0  0  2  0  0  0  0  0  0
  -19.5430  -26.6240   21.6290 C   0  0  0  0  0  2  0  0  0  0  0  0
  -18.1630  -26.7820   22.2750 C   0  0  0  0  0  2  0  0  0  0  0  0
  -19.1230  -28.8870   23.3780 C   0  0  0  0  0  0  0  0  0  0  0  0
  -18.9160  -30.1480   23.9770 C   0  0  0  0  0  3  0  0  0  0  0  0
  -17.6160  -30.6570   24.1490 C   0  0  0  0  0  3  0  0  0  0  0  0
  -16.5040  -29.9010   23.7370 C   0  0  0  0  0  3  0  0  0  0  0  0
  -16.6960  -28.6380   23.1490 C   0  0  0  0  0  3  0  0  0  0  0  0
  -25.8950  -32.4820   23.8510 C   0  0  0  0  0  3  0  0  0  0  0  0
  -25.5850  -33.8860   24.1680 N   0  0  0  0  0  0  0  0  0  0  0  0
  -25.9260  -34.9400   23.4150 C   0  0  0  0  0  0  0  0  0  0  0  0
  -26.5960  -34.8310   22.3860 O   0  0  0  0  0  0  0  0  0  0  0  0
  -24.9820  -34.0430   24.9630 H   0  0  0  0  0  0  0  0  0  0  0  0
  -24.2060  -36.7510   23.0750 C   0  0  0  0  0  1  0  0  0  0  0  0
  -25.4510  -36.3360   23.8750 C   0  0  0  0  0  3  0  0  0  0  0  0
  -27.5960  -37.2140   24.6870 C   0  0  0  0  0  1  0  0  0  0  0  0
  -26.4880  -37.3830   23.7500 N   0  0  0  0  0  0  0  0  0  0  0  0
  -26.0890  -38.3060   23.8940 H   0  0  0  0  0  0  0  0  0  0  0  0
  -26.3810  -31.7320   25.1530 C   0  0  1  0  0  0  0  0  0  0  0  0
  -25.2670  -31.5310   26.2080 C   0  0  0  0  0  1  0  0  0  0  0  0
  -26.9540  -30.3410   24.8060 C   0  0  0  0  0  1  0  0  0  0  0  0
  -27.5260  -32.5300   25.8210 C   0  0  0  0  0  1  0  0  0  0  0  0
  -29.5730  -16.7760   20.5940 C   0  0  0  0  0  2  0  0  0  0  0  0
  -30.3760  -15.2500   20.2530 C   0  0  0  0  0  0  0  0  0  0  0  0
  -30.3460  -12.7940   19.3740 C   0  0  0  0  0  2  0  0  0  0  0  0
  -29.4090  -12.6220   18.1490 C   0  0  0  0  0  2  0  0  0  0  0  0
  -27.9620  -12.3560   18.6010 C   0  0  0  0  0  2  0  0  0  0  0  0
  -27.5290  -13.3090   19.7430 C   0  0  0  0  0  3  0  0  0  0  0  0
  -28.5940  -13.4370   20.8540 C   0  0  0  0  0  2  0  0  0  0  0  0
  -29.8360  -13.9280   20.2330 N   0  0  0  0  0  0  0  0  0  0  0  0
  -31.5700  -15.2590   19.9240 O   0  0  0  0  0  0  0  0  0  0  0  0
  -25.1600  -13.8600   20.5180 C   0  0  0  0  0  0  0  0  0  0  0  0
  -24.1050  -13.0820   20.8930 C   0  0  0  0  0  0  0  0  0  0  0  0
  -24.5730  -11.7310   20.8550 C   0  0  0  0  0  0  0  0  0  0  0  0
  -26.2040  -12.9900   20.2620 N   0  0  0  0  0  0  0  0  0  0  0  0
  -25.8620  -11.7020   20.5330 N   0  0  0  0  0  0  0  0  0  0  0  0
  -23.8480  -10.4670   21.0500 C   0  0  0  0  0  0  0  0  0  0  0  0
  -24.2960   -9.4890   21.9660 C   0  0  0  0  0  3  0  0  0  0  0  0
  -23.5680   -8.2940   22.1510 C   0  0  0  0  0  3  0  0  0  0  0  0
  -22.3810   -8.0650   21.4150 C   0  0  0  0  0  0  0  0  0  0  0  0
  -21.9520   -9.0300   20.4890 C   0  0  0  0  0  3  0  0  0  0  0  0
  -22.6800  -10.2170   20.3020 C   0  0  0  0  0  3  0  0  0  0  0  0
  -21.6230   -6.9210   21.5110 O   0  0  0  0  0  0  0  0  0  0  0  0
  -21.6080   -6.1580   22.6520 C   0  0  0  0  0  0  0  0  0  0  0  0
  -21.2230   -6.6930   23.9010 C   0  0  0  0  0  3  0  0  0  0  0  0
  -21.1540   -5.8580   25.0340 C   0  0  0  0  0  3  0  0  0  0  0  0
  -21.4630   -4.4890   24.9210 C   0  0  0  0  0  0  0  0  0  0  0  0
  -21.8410   -3.9540   23.6770 C   0  0  0  0  0  3  0  0  0  0  0  0
  -21.9130   -4.7860   22.5460 C   0  0  0  0  0  0  0  0  0  0  0  0
  -22.2570   -4.2600   21.3450 F   0  0  0  0  0  0  0  0  0  0  0  0
  -21.3910   -3.6860   26.0070 F   0  0  0  0  0  0  0  0  0  0  0  0
  -22.7090  -13.5530   21.1770 C   0  0  0  0  0  0  0  0  0  0  0  0
  -21.9880  -12.8530   22.0460 N   0  0  0  0  0  0  0  0  0  0  0  0
  -22.2670  -14.5810   20.6630 O   0  0  0  0  0  0  0  0  0  0  0  0
  -22.3590  -12.0190   22.4790 H   0  0  0  0  0  0  0  0  0  0  0  0
  -21.0520  -13.1530   22.2820 H   0  0  0  0  0  0  0  0  0  0  0  0
  -25.3170  -15.2330   20.3440 N   0  0  0  0  0  0  0  0  0  0  0  0
  -24.5500  -15.8830   20.4750 H   0  0  0  0  0  0  0  0  0  0  0  0
  -26.1620  -15.6780   20.0110 H   0  0  0  0  0  0  0  0  0  0  0  0
  2  1  1  0
  9  3  1  1
  6 12  1  0
  6  3  1  0
  7  5  1  0
  7 55  1  0
  7  4  1  0
  8  4  1  0
  8  9  1  0
  9  2  1  0
  9  1  1  0
 10 11  1  6
 10  5  1  0
 10  8  1  0
 10  6  1  0
 12 14  1  0
 13 12  2  0
 15 26  2  0
 16 14  1  0
 16 21  1  0
 17 25  1  0
 17 27  1  0
 18 24  1  0
 18 20  1  0
 19 25  1  0
 20 21  2  0
 20 19  1  0
 22 16  2  0
 23 22  1  0
 23 18  2  0
 24 17  1  0
 25 15  1  0
 27 29  2  0
 28 27  1  0
 30 28  1  0
 31 40  2  0
 31 36  1  0
 32 28  1  0
 32 36  1  0
 33 32  1  0
 34 35  1  0
 34 33  1  0
 35 31  1  0
 36 37  2  0
 37 38  1  0
 39 38  2  0
 40 39  1  0
 41 15  1  0
 41 42  1  0
 41 51  1  0
 42 45  1  0
 43 47  1  0
 43 42  1  0
 44 43  2  0
 47 46  1  0
 49 47  1  0
 49 50  1  0
 49 48  1  0
 51 54  1  1
 51 52  1  0
 53 51  1  0
 56 55  1  0
 57 62  1  0
 58 59  1  0
 58 57  1  0
 60 59  1  0
 60 67  1  0
 60 61  1  0
 62 56  1  0
 62 61  1  0
 63 56  2  0
 64 65  2  0
 65 84  1  0
 66 65  1  0
 66 69  1  0
 67 64  1  0
 67 68  1  0
 68 66  2  0
 69 70  1  0
 70 71  2  0
 72 75  1  0
 72 71  1  0
 73 72  2  0
 74 73  1  0
 74 69  2  0
 75 76  1  0
 76 77  1  0
 77 78  2  0
 79 78  1  0
 79 83  1  0
 80 79  2  0
 81 76  2  0
 81 80  1  0
 82 81  1  0
 84 85  1  0
 85 88  1  0
 85 87  1  0
 86 84  2  0
 89 90  1  0
 89 64  1  0
 91 89  1  0
M  ISO  4  12 101  14 101  55 100  56 100
M  END
>  <TORSDO>  (5) 
F 18

>  <SCORE>  (5) 
-16.448

>  <name>  (5) 
4

>  <ligand_id>  (5) 
4

>  <original_smiles>  (5) 
[H]c1c([H])c([H])c2c(c1[H])C([H])([H])C([H])([H])C([H])([H])C2([H])N([H])C(=O)C1([H])N(C(=O)C([H])(N([H])C(=O)C([H])(N([H])C([H])([H])[H])C([H])([H])[H])C(C([H])([H])[H])(C([H])([H])[H])C([H])([H])[H])C([H])([H])c2c([H])c(OC(=O)C3([H])C([H])([H])C4(C([H])([H])C4([H])[H])C4([H])C([H])([H])C([H])(C([H])([H])C(=O)N5C([H])([H])C([H])([H])C([H])([H])C([H])(n6nc(-c7c([H])c([H])c(Oc8c([H])c([H])c(F)c([H])c8F)c([H])c7[H])c(C(=O)N([H])[H])c6N([H])[H])C5([H])[H])C([H])([H])[N+]34[H])c([H])c([H])c2C1([H])[H]

>  <smiles>  (5) 
[H]c1c([H])c([H])c2c(c1[H])C([H])([H])C([H])([H])C([H])([H])C2([H])N([H])C(=O)C1([H])N(C(=O)C([H])(N([H])C(=O)C([H])(N([H])C([H])([H])[H])C([H])([H])[H])C(C([H])([H])[H])(C([H])([H])[H])C([H])([H])[H])C([H])([H])c2c([H])c(OC(=O)C3([H])C([H])([H])C4(C([H])([H])C4([H])[H])C4([H])C([H])([H])C([H])(C([H])([H])C(=O)N5C([H])([H])C([H])([H])C([H])([H])C([H])(n6nc(-c7c([H])c([H])c(Oc8c([H])c([H])c(F)c([H])c8F)c([H])c7[H])c(C(=O)N([H])[H])c6N([H])[H])C5([H])[H])C([H])([H])[N+]34[H])c([H])c([H])c2C1([H])[H]

$$$$
5:0:0
     RDKit          3D

 92101  0  0  1  0  0  0  0  0999 V2000
  -27.8540  -18.4630   20.5400 C   0  0  0  0  0  2  0  0  0  0  0  0
  -28.6710  -17.7360   19.4440 C   0  0  0  0  0  2  0  0  0  0  0  0
  -30.5340  -19.4290   19.5170 C   0  0  0  0  0  2  0  0  0  0  0  0
  -27.8600  -21.0550   19.9080 C   0  0  0  0  0  2  0  0  0  0  0  0
  -28.3040  -19.9040   20.8230 C   0  0  0  0  0  3  0  0  0  0  0  0
  -29.7310  -20.3350   20.5110 C   0  0  0  0  0  3  0  0  0  0  0  0
  -30.2090  -17.8790   19.5500 C   0  0  2  0  0  0  0  0  0  0  0  0
  -30.8400  -17.2520   18.2800 C   0  0  0  0  0  1  0  0  0  0  0  0
  -29.2010  -21.6500   19.9900 N   0  0  2  0  0  4  0  0  0  0  0  0
  -29.5560  -21.8700   19.0740 H   0  0  0  0  0  0  0  0  0  0  0  0
  -30.8060  -17.1250   20.8010 C   0  0  0  0  0  2  0  0  0  0  0  0
  -30.3330  -15.6570   21.1320 C   0  0  0  0  0  2  0  0  0  0  0  0
  -30.8820  -14.5010   20.2440 C   0  0  0  0  0  0  0  0  0  0  0  0
  -30.4690  -12.3920   18.9960 C   0  0  0  0  0  2  0  0  0  0  0  0
  -29.4880  -12.6730   17.8380 C   0  0  0  0  0  2  0  0  0  0  0  0
  -28.0200  -12.5610   18.3080 C   0  0  0  0  0  2  0  0  0  0  0  0
  -27.7630  -13.3280   19.6350 C   0  0  0  0  0  3  0  0  0  0  0  0
  -28.8630  -13.0390   20.6790 C   0  0  0  0  0  2  0  0  0  0  0  0
  -30.1640  -13.3530   20.0720 N   0  0  0  0  0  0  0  0  0  0  0  0
  -31.9600  -14.6750   19.6670 O   0  0  0  0  0  0  0  0  0  0  0  0
  -25.4200  -13.9460   20.4840 C   0  0  0  0  0  0  0  0  0  0  0  0
  -24.3560  -13.1830   20.8920 C   0  0  0  0  0  0  0  0  0  0  0  0
  -24.7900  -11.8250   20.8060 C   0  0  0  0  0  0  0  0  0  0  0  0
  -26.4300  -13.0530   20.1750 N   0  0  0  0  0  0  0  0  0  0  0  0
  -26.0600  -11.7690   20.4180 N   0  0  0  0  0  0  0  0  0  0  0  0
  -24.0480  -10.5750   21.0140 C   0  0  0  0  0  0  0  0  0  0  0  0
  -24.4990   -9.5850   21.9140 C   0  0  0  0  0  3  0  0  0  0  0  0
  -23.7600   -8.3960   22.1010 C   0  0  0  0  0  3  0  0  0  0  0  0
  -22.5540   -8.1900   21.3860 C   0  0  0  0  0  0  0  0  0  0  0  0
  -22.1210   -9.1700   20.4750 C   0  0  0  0  0  3  0  0  0  0  0  0
  -22.8630  -10.3510   20.2890 C   0  0  0  0  0  3  0  0  0  0  0  0
  -21.7790   -7.0600   21.4850 O   0  0  0  0  0  0  0  0  0  0  0  0
  -21.7490   -6.3110   22.6330 C   0  0  0  0  0  0  0  0  0  0  0  0
  -21.3360   -6.8560   23.8710 C   0  0  0  0  0  3  0  0  0  0  0  0
  -21.2570   -6.0310   25.0110 C   0  0  0  0  0  3  0  0  0  0  0  0
  -21.5760   -4.6630   24.9150 C   0  0  0  0  0  0  0  0  0  0  0  0
  -21.9790   -4.1180   23.6850 C   0  0  0  0  0  3  0  0  0  0  0  0
  -22.0660   -4.9390   22.5480 C   0  0  0  0  0  0  0  0  0  0  0  0
  -22.4350   -4.4030   21.3580 F   0  0  0  0  0  0  0  0  0  0  0  0
  -21.4900   -3.8700   26.0100 F   0  0  0  0  0  0  0  0  0  0  0  0
  -22.9880  -13.6850   21.2550 C   0  0  0  0  0  0  0  0  0  0  0  0
  -22.2980  -12.9870   22.1530 N   0  0  0  0  0  0  0  0  0  0  0  0
  -22.5420  -14.7290   20.7870 O   0  0  0  0  0  0  0  0  0  0  0  0
  -22.6760  -12.1420   22.5550 H   0  0  0  0  0  0  0  0  0  0  0  0
  -21.3810  -13.3020   22.4320 H   0  0  0  0  0  0  0  0  0  0  0  0
  -25.6110  -15.3130   20.3290 N   0  0  0  0  0  0  0  0  0  0  0  0
  -24.8660  -15.9940   20.4250 H   0  0  0  0  0  0  0  0  0  0  0  0
  -26.4800  -15.7150   20.0050 H   0  0  0  0  0  0  0  0  0  0  0  0
  -29.2850  -22.8540   20.9020 C   0  0  0  0  0  2  0  0  0  0  0  0
  -29.3330  -24.3120   20.2770 C   0  0  0  0  0  2  0  0  0  0  0  0
  -28.0550  -25.1200   19.8700 C   0  0  0  0  0  2  0  0  0  0  0  0
  -28.3140  -26.5690   19.9090 O   0  0  0  0  0  0  0  0  0  0  0  0
  -24.5480  -31.7860   23.1490 C   0  0  0  0  0  0  0  0  0  0  0  0
  -27.2000  -27.4000   19.8910 C   0  0  0  0  0  0  0  0  0  0  0  0
  -23.3650  -30.4180   21.4770 C   0  0  0  0  0  3  0  0  0  0  0  0
  -24.8260  -28.9550   19.9830 C   0  0  0  0  0  0  0  0  0  0  0  0
  -25.9030  -30.7770   21.3060 C   0  0  0  0  0  2  0  0  0  0  0  0
  -25.9910  -29.4380   20.5900 C   0  0  0  0  0  0  0  0  0  0  0  0
  -27.1890  -28.6720   20.5320 C   0  0  0  0  0  3  0  0  0  0  0  0
  -26.0210  -26.9760   19.2410 C   0  0  0  0  0  3  0  0  0  0  0  0
  -24.8400  -27.7310   19.2990 C   0  0  0  0  0  3  0  0  0  0  0  0
  -23.5790  -29.8010   20.0720 C   0  0  0  0  0  2  0  0  0  0  0  0
  -24.6250  -31.0090   22.0300 N   0  0  0  0  0  0  0  0  0  0  0  0
  -23.4620  -32.0330   23.6890 O   0  0  0  0  0  0  0  0  0  0  0  0
  -22.7210  -29.3600   22.3990 C   0  0  0  0  0  0  0  0  0  0  0  0
  -21.4000  -29.1660   22.2620 N   0  0  0  0  0  0  0  0  0  0  0  0
  -23.4080  -28.7220   23.2030 O   0  0  0  0  0  0  0  0  0  0  0  0
  -20.9050  -29.7300   21.5850 H   0  0  0  0  0  0  0  0  0  0  0  0
  -18.0390  -27.9100   22.7140 C   0  0  0  0  0  0  0  0  0  0  0  0
  -20.5920  -28.1970   23.0030 C   0  0  0  0  0  3  0  0  0  0  0  0
  -20.7190  -26.7850   22.3830 C   0  0  0  0  0  2  0  0  0  0  0  0
  -19.6240  -26.4710   21.3620 C   0  0  0  0  0  2  0  0  0  0  0  0
  -18.2360  -26.5850   22.0000 C   0  0  0  0  0  2  0  0  0  0  0  0
  -19.1440  -28.6760   23.1680 C   0  0  0  0  0  0  0  0  0  0  0  0
  -18.9050  -29.9220   23.7890 C   0  0  0  0  0  3  0  0  0  0  0  0
  -17.5950  -30.3990   23.9660 C   0  0  0  0  0  3  0  0  0  0  0  0
  -16.5020  -29.6280   23.5290 C   0  0  0  0  0  3  0  0  0  0  0  0
  -16.7250  -28.3890   22.9100 C   0  0  0  0  0  3  0  0  0  0  0  0
  -25.8250  -32.4170   23.7880 C   0  0  0  0  0  3  0  0  0  0  0  0
  -25.5050  -33.8090   24.1340 N   0  0  0  0  0  0  0  0  0  0  0  0
  -25.8310  -34.8740   23.3870 C   0  0  0  0  0  0  0  0  0  0  0  0
  -26.5070  -34.7880   22.3570 O   0  0  0  0  0  0  0  0  0  0  0  0
  -24.9120  -33.9530   24.9380 H   0  0  0  0  0  0  0  0  0  0  0  0
  -24.0940  -36.6620   23.0390 C   0  0  0  0  0  1  0  0  0  0  0  0
  -25.3310  -36.2550   23.8590 C   0  0  0  0  0  3  0  0  0  0  0  0
  -27.4460  -37.1460   24.7300 C   0  0  0  0  0  1  0  0  0  0  0  0
  -26.3580  -37.3150   23.7690 N   0  0  0  0  0  0  0  0  0  0  0  0
  -25.9430  -38.2320   23.9170 H   0  0  0  0  0  0  0  0  0  0  0  0
  -26.3310  -31.6330   25.0610 C   0  0  1  0  0  0  0  0  0  0  0  0
  -25.2310  -31.3770   26.1160 C   0  0  0  0  0  1  0  0  0  0  0  0
  -26.9260  -30.2640   24.6630 C   0  0  0  0  0  1  0  0  0  0  0  0
  -27.4650  -32.4320   25.7470 C   0  0  0  0  0  1  0  0  0  0  0  0
  1  5  1  0
  2  7  1  0
  2  1  1  0
  3  7  1  0
  4  9  1  0
  5  4  1  0
  6  3  1  0
  6  5  1  0
  7  8  1  6
  7 11  1  0
  9  6  1  0
  9 49  1  0
  9 10  1  6
 11 12  1  0
 13 12  1  0
 14 19  1  0
 15 16  1  0
 15 14  1  0
 17 16  1  0
 17 24  1  0
 17 18  1  0
 19 13  1  0
 19 18  1  0
 20 13  2  0
 21 22  2  0
 22 41  1  0
 23 22  1  0
 23 26  1  0
 24 25  1  0
 24 21  1  0
 25 23  2  0
 26 27  1  0
 27 28  2  0
 29 32  1  0
 29 28  1  0
 30 29  2  0
 31 30  1  0
 31 26  2  0
 32 33  1  0
 33 34  1  0
 34 35  2  0
 36 35  1  0
 36 40  1  0
 37 36  2  0
 38 33  2  0
 38 37  1  0
 39 38  1  0
 41 42  1  0
 42 45  1  0
 42 44  1  0
 43 41  2  0
 46 47  1  0
 46 21  1  0
 48 46  1  0
 50 49  1  0
 51 52  1  0
 51 50  1  0
 53 64  2  0
 54 52  1  0
 54 59  1  0
 55 63  1  0
 55 65  1  0
 56 62  1  0
 56 58  1  0
 57 63  1  0
 58 57  1  0
 59 58  2  0
 60 61  1  0
 60 54  2  0
 61 56  2  0
 62 55  1  0
 63 53  1  0
 65 67  2  0
 66 65  1  0
 68 66  1  0
 69 78  2  0
 69 74  1  0
 70 66  1  0
 70 74  1  0
 71 70  1  0
 72 73  1  0
 72 71  1  0
 73 69  1  0
 74 75  2  0
 75 76  1  0
 77 76  2  0
 78 77  1  0
 79 53  1  0
 79 80  1  0
 79 89  1  0
 80 83  1  0
 81 85  1  0
 81 80  1  0
 82 81  2  0
 85 84  1  0
 87 85  1  0
 87 88  1  0
 87 86  1  0
 89 92  1  1
 89 90  1  0
 91 89  1  0
M  ISO  4  12 100  13 100  51 101  52 101
M  END
>  <TORSDO>  (6) 
F 21

>  <SCORE>  (6) 
-13.176

>  <name>  (6) 
5

>  <ligand_id>  (6) 
5

>  <original_smiles>  (6) 
[H]c1c([H])c([H])c2c(c1[H])C([H])([H])C([H])([H])C([H])([H])C2([H])N([H])C(=O)C1([H])N(C(=O)C([H])(N([H])C(=O)C([H])(N([H])C([H])([H])[H])C([H])([H])[H])C(C([H])([H])[H])(C([H])([H])[H])C([H])([H])[H])C([H])([H])c2c([H])c(OC([H])([H])C([H])([H])C([H])([H])[N+]3([H])C([H])([H])C4([H])C([H])([H])C([H])([H])C(C([H])([H])[H])(C([H])([H])C([H])([H])C(=O)N5C([H])([H])C([H])([H])C([H])([H])C([H])(n6nc(-c7c([H])c([H])c(Oc8c([H])c([H])c(F)c([H])c8F)c([H])c7[H])c(C(=O)N([H])[H])c6N([H])[H])C5([H])[H])C([H])([H])C43[H])c([H])c([H])c2C1([H])[H]

>  <smiles>  (6) 
[H]c1c([H])c([H])c2c(c1[H])C([H])([H])C([H])([H])C([H])([H])C2([H])N([H])C(=O)C1([H])N(C(=O)C([H])(N([H])C(=O)C([H])(N([H])C([H])([H])[H])C([H])([H])[H])C(C([H])([H])[H])(C([H])([H])[H])C([H])([H])[H])C([H])([H])c2c([H])c(OC([H])([H])C([H])([H])C([H])([H])[N+]3([H])C([H])([H])C4([H])C([H])([H])C([H])([H])C(C([H])([H])[H])(C([H])([H])C([H])([H])C(=O)N5C([H])([H])C([H])([H])C([H])([H])C([H])(n6nc(-c7c([H])c([H])c(Oc8c([H])c([H])c(F)c([H])c8F)c([H])c7[H])c(C(=O)N([H])[H])c6N([H])[H])C5([H])[H])C([H])([H])C43[H])c([H])c([H])c2C1([H])[H]

$$$$
6:0:0
     RDKit          3D

 91100  0  0  1  0  0  0  0  0999 V2000
  -27.8440  -17.3760   17.8950 C   0  0  0  0  0  2  0  0  0  0  0  0
  -26.6800  -18.3760   17.8110 C   0  0  0  0  0  2  0  0  0  0  0  0
  -29.1360  -17.9020   18.5350 C   0  0  0  0  0  2  0  0  0  0  0  0
  -26.3220  -19.1270   19.1180 C   0  0  0  0  0  2  0  0  0  0  0  0
  -30.2400  -17.6850   20.8430 C   0  0  0  0  0  3  0  0  0  0  0  0
  -28.9750  -18.1880   20.0430 C   0  0  0  0  0  3  0  0  0  0  0  0
  -28.5450  -19.7570   20.3460 C   0  0  0  0  0  3  0  0  0  0  0  0
  -27.3050  -20.2530   19.5360 C   0  0  0  0  0  3  0  0  0  0  0  0
  -30.7850  -19.3950   20.8750 C   0  0  0  0  0  3  0  0  0  0  0  0
  -29.7690  -20.7890   20.3720 C   0  0  0  0  0  3  0  0  0  0  0  0
  -27.6300  -21.1740   18.3390 C   0  0  0  0  0  1  0  0  0  0  0  0
  -32.1530  -19.5260   20.1920 C   0  0  0  0  0  1  0  0  0  0  0  0
  -30.9630  -15.9850   20.6160 C   0  0  0  0  0  0  0  0  0  0  0  0
  -30.9970  -13.4660   19.7550 C   0  0  0  0  0  2  0  0  0  0  0  0
  -30.1590  -13.1960   18.4710 C   0  0  0  0  0  2  0  0  0  0  0  0
  -28.6940  -12.8960   18.8220 C   0  0  0  0  0  2  0  0  0  0  0  0
  -28.1720  -13.8680   19.9050 C   0  0  0  0  0  3  0  0  0  0  0  0
  -29.1480  -14.0870   21.0850 C   0  0  0  0  0  2  0  0  0  0  0  0
  -30.4090  -14.6390   20.5400 N   0  0  0  0  0  0  0  0  0  0  0  0
  -32.1890  -15.8890   20.4240 O   0  0  0  0  0  0  0  0  0  0  0  0
  -25.7860  -14.4400   20.5580 C   0  0  0  0  0  0  0  0  0  0  0  0
  -24.6910  -13.6800   20.8570 C   0  0  0  0  0  0  0  0  0  0  0  0
  -25.1280  -12.3210   20.8130 C   0  0  0  0  0  0  0  0  0  0  0  0
  -26.8190  -13.5510   20.3430 N   0  0  0  0  0  0  0  0  0  0  0  0
  -26.4340  -12.2650   20.5650 N   0  0  0  0  0  0  0  0  0  0  0  0
  -24.3570  -11.0750   20.9330 C   0  0  0  0  0  0  0  0  0  0  0  0
  -24.7070  -10.0760   21.8670 C   0  0  0  0  0  3  0  0  0  0  0  0
  -23.9360   -8.8990   21.9810 C   0  0  0  0  0  3  0  0  0  0  0  0
  -22.7990   -8.7110   21.1600 C   0  0  0  0  0  0  0  0  0  0  0  0
  -22.4650   -9.6990   20.2150 C   0  0  0  0  0  3  0  0  0  0  0  0
  -23.2380  -10.8680   20.1000 C   0  0  0  0  0  3  0  0  0  0  0  0
  -22.0110   -7.5850   21.1840 O   0  0  0  0  0  0  0  0  0  0  0  0
  -21.8540   -6.8360   22.3220 C   0  0  0  0  0  0  0  0  0  0  0  0
  -21.3280   -7.3880   23.5120 C   0  0  0  0  0  3  0  0  0  0  0  0
  -21.1240   -6.5670   24.6390 C   0  0  0  0  0  3  0  0  0  0  0  0
  -21.4350   -5.1950   24.5780 C   0  0  0  0  0  0  0  0  0  0  0  0
  -21.9500   -4.6430   23.3920 C   0  0  0  0  0  3  0  0  0  0  0  0
  -22.1570   -5.4600   22.2670 C   0  0  0  0  0  0  0  0  0  0  0  0
  -22.6350   -4.9180   21.1210 F   0  0  0  0  0  0  0  0  0  0  0  0
  -21.2280   -4.4040   25.6580 F   0  0  0  0  0  0  0  0  0  0  0  0
  -23.2940  -14.1890   21.0540 C   0  0  0  0  0  0  0  0  0  0  0  0
  -22.5060  -13.5060   21.8770 N   0  0  0  0  0  0  0  0  0  0  0  0
  -22.9110  -15.2250   20.5130 O   0  0  0  0  0  0  0  0  0  0  0  0
  -22.8280  -12.6610   22.3230 H   0  0  0  0  0  0  0  0  0  0  0  0
  -21.5640  -13.8220   22.0540 H   0  0  0  0  0  0  0  0  0  0  0  0
  -25.9830  -15.8090   20.4130 N   0  0  0  0  0  0  0  0  0  0  0  0
  -25.2050  -16.4560   20.4550 H   0  0  0  0  0  0  0  0  0  0  0  0
  -26.8220  -16.2210   20.0270 H   0  0  0  0  0  0  0  0  0  0  0  0
  -29.6650  -22.6650   20.8200 C   0  0  0  0  0  3  0  0  0  0  0  0
  -28.8260  -24.3260   20.3380 C   0  0  0  0  0  3  0  0  0  0  0  0
  -28.8550  -26.0230   20.7240 O   0  0  0  0  0  0  0  0  0  0  0  0
  -24.9560  -31.9940   23.6540 C   0  0  0  0  0  0  0  0  0  0  0  0
  -27.8480  -27.1840   20.6100 C   0  0  0  0  0  0  0  0  0  0  0  0
  -23.9310  -30.6570   21.8620 C   0  0  0  0  0  3  0  0  0  0  0  0
  -25.5230  -29.1230   20.4830 C   0  0  0  0  0  0  0  0  0  0  0  0
  -26.5030  -30.8770   21.9400 C   0  0  0  0  0  2  0  0  0  0  0  0
  -26.6560  -29.4860   21.2220 C   0  0  0  0  0  0  0  0  0  0  0  0
  -27.8030  -28.5440   21.2580 C   0  0  0  0  0  3  0  0  0  0  0  0
  -26.6840  -27.0200   19.8150 C   0  0  0  0  0  3  0  0  0  0  0  0
  -25.5740  -27.9160   19.7630 C   0  0  0  0  0  3  0  0  0  0  0  0
  -24.2890  -30.0340   20.4810 C   0  0  0  0  0  2  0  0  0  0  0  0
  -25.1490  -31.2060   22.5410 N   0  0  0  0  0  0  0  0  0  0  0  0
  -23.8210  -32.2400   24.0950 O   0  0  0  0  0  0  0  0  0  0  0  0
  -23.1720  -29.6140   22.7260 C   0  0  0  0  0  0  0  0  0  0  0  0
  -21.8660  -29.4090   22.4660 N   0  0  0  0  0  0  0  0  0  0  0  0
  -23.7720  -28.9870   23.6030 O   0  0  0  0  0  0  0  0  0  0  0  0
  -21.4330  -29.9640   21.7420 H   0  0  0  0  0  0  0  0  0  0  0  0
  -18.5050  -28.0400   22.6050 C   0  0  0  0  0  0  0  0  0  0  0  0
  -21.0130  -28.4110   23.1230 C   0  0  0  0  0  3  0  0  0  0  0  0
  -21.2360  -27.0060   22.5180 C   0  0  0  0  0  2  0  0  0  0  0  0
  -20.2560  -26.6720   21.3900 C   0  0  0  0  0  2  0  0  0  0  0  0
  -18.8130  -26.7280   21.9010 C   0  0  0  0  0  2  0  0  0  0  0  0
  -19.5400  -28.8380   23.1650 C   0  0  0  0  0  0  0  0  0  0  0  0
  -19.2020  -30.0590   23.7860 C   0  0  0  0  0  3  0  0  0  0  0  0
  -17.8630  -30.4890   23.8500 C   0  0  0  0  0  3  0  0  0  0  0  0
  -16.8410  -29.6910   23.3060 C   0  0  0  0  0  3  0  0  0  0  0  0
  -17.1620  -28.4670   22.6900 C   0  0  0  0  0  3  0  0  0  0  0  0
  -26.1500  -32.6400   24.4210 C   0  0  0  0  0  3  0  0  0  0  0  0
  -25.8050  -34.0450   24.7120 N   0  0  0  0  0  0  0  0  0  0  0  0
  -26.1790  -35.1000   23.9740 C   0  0  0  0  0  0  0  0  0  0  0  0
  -26.9070  -34.9910   22.9850 O   0  0  0  0  0  0  0  0  0  0  0  0
  -25.1650  -34.2020   25.4770 H   0  0  0  0  0  0  0  0  0  0  0  0
  -24.4410  -36.8770   23.5530 C   0  0  0  0  0  1  0  0  0  0  0  0
  -25.6680  -36.4940   24.3970 C   0  0  0  0  0  3  0  0  0  0  0  0
  -27.7660  -37.4310   25.2680 C   0  0  0  0  0  1  0  0  0  0  0  0
  -26.6910  -37.5590   24.2880 N   0  0  0  0  0  0  0  0  0  0  0  0
  -26.2670  -38.4760   24.3990 H   0  0  0  0  0  0  0  0  0  0  0  0
  -26.5000  -31.8880   25.7650 C   0  0  1  0  0  0  0  0  0  0  0  0
  -25.2790  -31.6350   26.6820 C   0  0  0  0  0  1  0  0  0  0  0  0
  -27.1520  -30.5160   25.4780 C   0  0  0  0  0  1  0  0  0  0  0  0
  -27.5420  -32.7040   26.5670 C   0  0  0  0  0  1  0  0  0  0  0  0
  1  3  1  0
  2  1  1  0
  2  4  1  0
  4  8  1  0
  5 13  1  0
  5  9  1  0
  6  3  1  0
  6  7  1  0
  6  5  1  0
  7 10  1  0
  8  7  1  0
 10 49  1  0
 10  9  1  0
 11  8  1  0
 12  9  1  0
 14 19  1  0
 15 16  1  0
 15 14  1  0
 16 17  1  0
 17 24  1  0
 17 18  1  0
 19 13  1  0
 19 18  1  0
 20 13  2  0
 21 22  2  0
 22 41  1  0
 23 22  1  0
 23 26  1  0
 24 21  1  0
 24 25  1  0
 25 23  2  0
 26 27  1  0
 27 28  2  0
 29 32  1  0
 29 28  1  0
 30 29  2  0
 31 30  1  0
 31 26  2  0
 32 33  1  0
 33 34  1  0
 34 35  2  0
 36 35  1  0
 36 40  1  0
 37 36  2  0
 38 33  2  0
 38 37  1  0
 39 38  1  0
 41 42  1  0
 42 45  1  0
 42 44  1  0
 43 41  2  0
 46 47  1  0
 46 21  1  0
 48 46  1  0
 50 51  1  0
 50 49  2  0
 52 63  2  0
 52 78  1  0
 53 51  1  0
 53 58  1  0
 54 62  1  0
 54 64  1  0
 55 57  1  0
 56 62  1  0
 57 58  2  0
 57 56  1  0
 59 53  2  0
 60 59  1  0
 60 55  2  0
 61 55  1  0
 61 54  1  0
 62 52  1  0
 64 66  2  0
 65 64  1  0
 65 69  1  0
 67 65  1  0
 68 77  2  0
 68 73  1  0
 69 73  1  0
 70 69  1  0
 71 72  1  0
 71 70  1  0
 72 68  1  0
 73 74  2  0
 74 75  1  0
 76 75  2  0
 77 76  1  0
 78 79  1  0
 78 88  1  0
 79 82  1  0
 80 84  1  0
 80 79  1  0
 81 80  2  0
 83 84  1  0
 86 84  1  0
 86 87  1  0
 86 85  1  0
 88 91  1  1
 88 89  1  0
 90 88  1  0
M  ISO  4   5 100  13 100  50 101  51 101
M  END
>  <TORSDO>  (7) 
F 18

>  <SCORE>  (7) 
-13.183

>  <name>  (7) 
6

>  <ligand_id>  (7) 
6

>  <original_smiles>  (7) 
[H]c1c([H])c([H])c2c(c1[H])C([H])([H])C([H])([H])C([H])([H])C2([H])N([H])C(=O)C1([H])N(C(=O)C([H])(N([H])C(=O)C([H])(N([H])C([H])([H])[H])C([H])([H])[H])C(C([H])([H])[H])(C([H])([H])[H])C([H])([H])[H])C([H])([H])c2c([H])c(OC([H])([H])C([H])([H])C3([H])C([H])(C([H])([H])[H])C([H])(C(=O)N4C([H])([H])C([H])([H])C([H])([H])C([H])(n5nc(-c6c([H])c([H])c(Oc7c([H])c([H])c(F)c([H])c7F)c([H])c6[H])c(C(=O)N([H])[H])c5N([H])[H])C4([H])[H])C4([H])C([H])([H])C([H])([H])C([H])([H])C([H])([H])C([H])(C([H])([H])[H])C43[H])c([H])c([H])c2C1([H])[H]

>  <smiles>  (7) 
[H]c1c([H])c([H])c2c(c1[H])C([H])([H])C([H])([H])C([H])([H])C2([H])N([H])C(=O)C1([H])N(C(=O)C([H])(N([H])C(=O)C([H])(N([H])C([H])([H])[H])C([H])([H])[H])C(C([H])([H])[H])(C([H])([H])[H])C([H])([H])[H])C([H])([H])c2c([H])c(OC([H])([H])C([H])([H])C3([H])C([H])(C([H])([H])[H])C([H])(C(=O)N4C([H])([H])C([H])([H])C([H])([H])C([H])(n5nc(-c6c([H])c([H])c(Oc7c([H])c([H])c(F)c([H])c7F)c([H])c6[H])c(C(=O)N([H])[H])c5N([H])[H])C4([H])[H])C4([H])C([H])([H])C([H])([H])C([H])([H])C([H])([H])C([H])(C([H])([H])[H])C43[H])c([H])c([H])c2C1([H])[H]

$$$$
7:0:0
     RDKit          3D

 87 96  0  0  1  0  0  0  0  0999 V2000
  -31.0160  -20.1650   18.5580 C   0  0  0  0  0  2  0  0  0  0  0  0
  -29.8860  -21.1560   18.1800 C   0  0  0  0  0  2  0  0  0  0  0  0
  -30.5520  -18.7280   18.9140 C   0  0  0  0  0  2  0  0  0  0  0  0
  -28.8830  -21.4520   21.2980 C   0  0  0  0  0  2  0  0  0  0  0  0
  -28.8240  -21.3260   19.2710 C   0  0  0  0  0  3  0  0  0  0  0  0
  -28.8210  -20.1000   20.3570 C   0  0  0  0  0  3  0  0  0  0  0  0
  -29.8290  -18.6080   20.2700 C   0  0  0  0  0  3  0  0  0  0  0  0
  -28.8650  -22.6910   20.2140 C   0  0  0  0  0  3  0  0  0  0  0  0
  -29.4470  -16.8530   20.5170 C   0  0  0  0  0  2  0  0  0  0  0  0
  -30.3200  -15.3250   20.3350 C   0  0  0  0  0  0  0  0  0  0  0  0
  -30.3510  -12.8630   19.4800 C   0  0  0  0  0  2  0  0  0  0  0  0
  -29.4410  -12.6670   18.2380 C   0  0  0  0  0  2  0  0  0  0  0  0
  -27.9860  -12.3930   18.6580 C   0  0  0  0  0  2  0  0  0  0  0  0
  -27.5230  -13.3510   19.7820 C   0  0  0  0  0  3  0  0  0  0  0  0
  -28.5580  -13.4920   20.9160 C   0  0  0  0  0  2  0  0  0  0  0  0
  -29.8040  -13.9940   20.3150 N   0  0  0  0  0  0  0  0  0  0  0  0
  -31.5340  -15.3430   20.0800 O   0  0  0  0  0  0  0  0  0  0  0  0
  -25.1440  -13.9030   20.5170 C   0  0  0  0  0  0  0  0  0  0  0  0
  -24.0820  -13.1240   20.8790 C   0  0  0  0  0  0  0  0  0  0  0  0
  -24.5530  -11.7750   20.8550 C   0  0  0  0  0  0  0  0  0  0  0  0
  -26.1920  -13.0300   20.2820 N   0  0  0  0  0  0  0  0  0  0  0  0
  -25.8480  -11.7450   20.5540 N   0  0  0  0  0  0  0  0  0  0  0  0
  -23.8280  -10.5110   21.0440 C   0  0  0  0  0  0  0  0  0  0  0  0
  -24.2560   -9.5430   21.9790 C   0  0  0  0  0  3  0  0  0  0  0  0
  -23.5280   -8.3460   22.1550 C   0  0  0  0  0  3  0  0  0  0  0  0
  -22.3570   -8.1090   21.3980 C   0  0  0  0  0  0  0  0  0  0  0  0
  -21.9470   -9.0650   20.4530 C   0  0  0  0  0  3  0  0  0  0  0  0
  -22.6750  -10.2530   20.2740 C   0  0  0  0  0  3  0  0  0  0  0  0
  -21.6010   -6.9640   21.4830 O   0  0  0  0  0  0  0  0  0  0  0  0
  -21.5520   -6.2190   22.6340 C   0  0  0  0  0  0  0  0  0  0  0  0
  -21.1280   -6.7710   23.8620 C   0  0  0  0  0  3  0  0  0  0  0  0
  -21.0250   -5.9520   25.0040 C   0  0  0  0  0  3  0  0  0  0  0  0
  -21.3360   -4.5820   24.9190 C   0  0  0  0  0  0  0  0  0  0  0  0
  -21.7530   -4.0290   23.6960 C   0  0  0  0  0  3  0  0  0  0  0  0
  -21.8570   -4.8450   22.5560 C   0  0  0  0  0  0  0  0  0  0  0  0
  -22.2390   -4.3020   21.3740 F   0  0  0  0  0  0  0  0  0  0  0  0
  -21.2310   -3.7930   26.0150 F   0  0  0  0  0  0  0  0  0  0  0  0
  -22.6800  -13.5970   21.1320 C   0  0  0  0  0  0  0  0  0  0  0  0
  -21.9470  -12.9070   21.9980 N   0  0  0  0  0  0  0  0  0  0  0  0
  -22.2450  -14.6160   20.5980 O   0  0  0  0  0  0  0  0  0  0  0  0
  -22.3140  -12.0840   22.4520 H   0  0  0  0  0  0  0  0  0  0  0  0
  -21.0060  -13.2070   22.2110 H   0  0  0  0  0  0  0  0  0  0  0  0
  -25.3040  -15.2750   20.3410 N   0  0  0  0  0  0  0  0  0  0  0  0
  -24.5370  -15.9270   20.4540 H   0  0  0  0  0  0  0  0  0  0  0  0
  -26.1590  -15.7190   20.0300 H   0  0  0  0  0  0  0  0  0  0  0  0
  -27.9040  -24.2330   20.1140 C   0  0  0  0  0  2  0  0  0  0  0  0
  -28.1750  -25.8640   20.2210 O   0  0  0  0  0  0  0  0  0  0  0  0
  -24.6410  -31.8690   23.1750 C   0  0  0  0  0  0  0  0  0  0  0  0
  -27.1690  -26.9700   20.1620 C   0  0  0  0  0  0  0  0  0  0  0  0
  -23.4390  -30.4800   21.5360 C   0  0  0  0  0  3  0  0  0  0  0  0
  -24.8800  -28.8680   20.1150 C   0  0  0  0  0  0  0  0  0  0  0  0
  -26.0080  -30.6760   21.3910 C   0  0  0  0  0  2  0  0  0  0  0  0
  -26.0700  -29.2650   20.7350 C   0  0  0  0  0  0  0  0  0  0  0  0
  -27.2090  -28.3390   20.7310 C   0  0  0  0  0  3  0  0  0  0  0  0
  -25.9460  -26.7260   19.4950 C   0  0  0  0  0  3  0  0  0  0  0  0
  -24.8430  -27.6180   19.4740 C   0  0  0  0  0  3  0  0  0  0  0  0
  -23.6660  -29.7960   20.1600 C   0  0  0  0  0  2  0  0  0  0  0  0
  -24.7180  -31.0350   22.0880 N   0  0  0  0  0  0  0  0  0  0  0  0
  -23.5530  -32.1650   23.6960 O   0  0  0  0  0  0  0  0  0  0  0  0
  -22.7380  -29.4900   22.5020 C   0  0  0  0  0  0  0  0  0  0  0  0
  -21.4050  -29.3430   22.3850 N   0  0  0  0  0  0  0  0  0  0  0  0
  -23.4000  -28.8520   23.3240 O   0  0  0  0  0  0  0  0  0  0  0  0
  -20.9240  -29.9080   21.6990 H   0  0  0  0  0  0  0  0  0  0  0  0
  -18.0090  -28.1770   22.9150 C   0  0  0  0  0  0  0  0  0  0  0  0
  -20.5750  -28.4120   23.1580 C   0  0  0  0  0  3  0  0  0  0  0  0
  -20.6550  -26.9820   22.5750 C   0  0  0  0  0  2  0  0  0  0  0  0
  -19.5400  -26.6780   21.5680 C   0  0  0  0  0  2  0  0  0  0  0  0
  -18.1660  -26.8320   22.2250 C   0  0  0  0  0  2  0  0  0  0  0  0
  -19.1410  -28.9260   23.3380 C   0  0  0  0  0  0  0  0  0  0  0  0
  -18.9370  -30.1830   23.9470 C   0  0  0  0  0  3  0  0  0  0  0  0
  -17.6390  -30.6930   24.1330 C   0  0  0  0  0  3  0  0  0  0  0  0
  -16.5230  -29.9410   23.7230 C   0  0  0  0  0  3  0  0  0  0  0  0
  -16.7090  -28.6860   23.1190 C   0  0  0  0  0  3  0  0  0  0  0  0
  -25.9140  -32.5040   23.8100 C   0  0  0  0  0  3  0  0  0  0  0  0
  -25.6000  -33.9020   24.1590 N   0  0  0  0  0  0  0  0  0  0  0  0
  -25.9180  -34.9700   23.4150 C   0  0  0  0  0  0  0  0  0  0  0  0
  -26.5700  -34.8830   22.3710 O   0  0  0  0  0  0  0  0  0  0  0  0
  -25.0170  -34.0420   24.9700 H   0  0  0  0  0  0  0  0  0  0  0  0
  -24.1750  -36.7670   23.1370 C   0  0  0  0  0  1  0  0  0  0  0  0
  -25.4410  -36.3540   23.9040 C   0  0  0  0  0  3  0  0  0  0  0  0
  -27.5970  -37.2410   24.6810 C   0  0  0  0  0  1  0  0  0  0  0  0
  -26.4670  -37.4120   23.7720 N   0  0  0  0  0  0  0  0  0  0  0  0
  -26.0620  -38.3290   23.9380 H   0  0  0  0  0  0  0  0  0  0  0  0
  -26.4220  -31.7290   25.0890 C   0  0  1  0  0  0  0  0  0  0  0  0
  -25.3250  -31.4970   26.1540 C   0  0  0  0  0  1  0  0  0  0  0  0
  -26.9990  -30.3480   24.7050 C   0  0  0  0  0  1  0  0  0  0  0  0
  -27.5750  -32.5170   25.7550 C   0  0  0  0  0  1  0  0  0  0  0  0
  1  3  1  0
  2  1  1  0
  3  7  1  0
  5  2  1  0
  5  8  1  0
  5  6  1  0
  6  4  1  0
  7  6  1  0
  7  9  1  0
  8 46  1  0
  8  4  1  0
 10  9  1  0
 11 16  1  0
 12 13  1  0
 12 11  1  0
 14 13  1  0
 14 21  1  0
 14 15  1  0
 16 10  1  0
 16 15  1  0
 17 10  2  0
 18 19  2  0
 19 38  1  0
 20 19  1  0
 20 23  1  0
 21 18  1  0
 21 22  1  0
 22 20  2  0
 23 24  1  0
 24 25  2  0
 26 29  1  0
 26 25  1  0
 27 26  2  0
 28 27  1  0
 28 23  2  0
 29 30  1  0
 30 31  1  0
 31 32  2  0
 33 32  1  0
 33 37  1  0
 34 33  2  0
 35 30  2  0
 35 34  1  0
 36 35  1  0
 38 39  1  0
 39 42  1  0
 39 41  1  0
 40 38  2  0
 43 44  1  0
 43 18  1  0
 45 43  1  0
 46 47  1  0
 48 59  2  0
 49 47  1  0
 49 54  1  0
 50 58  1  0
 50 60  1  0
 51 57  1  0
 51 53  1  0
 52 58  1  0
 53 52  1  0
 54 53  2  0
 55 49  2  0
 56 55  1  0
 56 51  2  0
 57 50  1  0
 58 48  1  0
 60 62  2  0
 61 60  1  0
 63 61  1  0
 64 73  2  0
 64 69  1  0
 65 61  1  0
 65 69  1  0
 66 65  1  0
 67 68  1  0
 67 66  1  0
 68 64  1  0
 69 70  2  0
 70 71  1  0
 72 71  2  0
 73 72  1  0
 74 48  1  0
 74 75  1  0
 74 84  1  0
 75 78  1  0
 76 80  1  0
 76 75  1  0
 77 76  2  0
 80 79  1  0
 82 80  1  0
 82 83  1  0
 82 81  1  0
 84 87  1  1
 84 85  1  0
 86 84  1  0
M  ISO  4   9 100  10 100  46 101  47 101
M  END
>  <TORSDO>  (8) 
F 18

>  <SCORE>  (8) 
-16.757

>  <name>  (8) 
7

>  <ligand_id>  (8) 
7

>  <original_smiles>  (8) 
[H]c1c([H])c([H])c2c(c1[H])C([H])([H])C([H])([H])C([H])([H])C2([H])N([H])C(=O)C1([H])N(C(=O)C([H])(N([H])C(=O)C([H])(N([H])C([H])([H])[H])C([H])([H])[H])C(C([H])([H])[H])(C([H])([H])[H])C([H])([H])[H])C([H])([H])c2c([H])c(OC([H])([H])C3([H])C([H])([H])C4([H])C([H])(C([H])([H])C(=O)N5C([H])([H])C([H])([H])C([H])([H])C([H])(n6nc(-c7c([H])c([H])c(Oc8c([H])c([H])c(F)c([H])c8F)c([H])c7[H])c(C(=O)N([H])[H])c6N([H])[H])C5([H])[H])C([H])([H])C([H])([H])C([H])([H])C34[H])c([H])c([H])c2C1([H])[H]

>  <smiles>  (8) 
[H]c1c([H])c([H])c2c(c1[H])C([H])([H])C([H])([H])C([H])([H])C2([H])N([H])C(=O)C1([H])N(C(=O)C([H])(N([H])C(=O)C([H])(N([H])C([H])([H])[H])C([H])([H])[H])C(C([H])([H])[H])(C([H])([H])[H])C([H])([H])[H])C([H])([H])c2c([H])c(OC([H])([H])C3([H])C([H])([H])C4([H])C([H])(C([H])([H])C(=O)N5C([H])([H])C([H])([H])C([H])([H])C([H])(n6nc(-c7c([H])c([H])c(Oc8c([H])c([H])c(F)c([H])c8F)c([H])c7[H])c(C(=O)N([H])[H])c6N([H])[H])C5([H])[H])C([H])([H])C([H])([H])C([H])([H])C34[H])c([H])c([H])c2C1([H])[H]

$$$$
8:0:0
     RDKit          3D

100110  0  0  1  0  0  0  0  0999 V2000
  -29.8120  -18.4260   22.6910 C   0  0  0  0  0  2  0  0  0  0  0  0
  -30.4410  -18.8040   21.5690 C   0  0  0  0  0  0  0  0  0  0  0  0
  -31.2420  -16.9060   17.2330 C   0  0  0  0  0  2  0  0  0  0  0  0
  -29.9860  -16.7190   18.1110 C   0  0  0  0  0  2  0  0  0  0  0  0
  -29.9850  -20.1320   16.0240 C   0  0  0  0  0  2  0  0  0  0  0  0
  -29.1400  -19.1980   16.8850 C   0  0  0  0  0  2  0  0  0  0  0  0
  -32.7890  -17.2740   19.1690 C   0  0  0  0  0  2  0  0  0  0  0  0
  -30.5990  -17.7400   20.3870 C   0  0  0  0  0  3  0  0  0  0  0  0
  -31.8220  -16.6610   20.2950 C   0  0  0  0  0  3  0  0  0  0  0  0
  -32.1490  -17.9430   17.8720 C   0  0  0  0  0  3  0  0  0  0  0  0
  -29.6620  -17.8550   19.1060 C   0  0  0  0  0  3  0  0  0  0  0  0
  -31.3510  -19.3360   17.9520 C   0  0  0  0  0  3  0  0  0  0  0  0
  -31.3900  -20.1800   16.6530 C   0  0  0  0  0  3  0  0  0  0  0  0
  -29.8160  -19.1750   18.2900 C   0  0  1  0  0  0  0  0  0  0  0  0
  -31.8080  -21.6440   16.9300 C   0  0  0  0  0  1  0  0  0  0  0  0
  -29.0860  -20.3290   19.0290 C   0  0  0  0  0  1  0  0  0  0  0  0
  -31.9790  -15.0020   20.3830 C   0  0  0  0  0  0  0  0  0  0  0  0
  -31.4720  -12.7610   19.3820 C   0  0  0  0  0  2  0  0  0  0  0  0
  -30.5650  -12.8160   18.1400 C   0  0  0  0  0  2  0  0  0  0  0  0
  -29.0980  -12.6330   18.5600 C   0  0  0  0  0  2  0  0  0  0  0  0
  -28.7100  -13.5670   19.7200 C   0  0  0  0  0  3  0  0  0  0  0  0
  -29.7790  -13.6630   20.8450 C   0  0  0  0  0  2  0  0  0  0  0  0
  -31.1090  -13.9150   20.2590 N   0  0  0  0  0  0  0  0  0  0  0  0
  -33.1700  -14.7040   20.2920 O   0  0  0  0  0  0  0  0  0  0  0  0
  -26.4070  -14.3490   20.4910 C   0  0  0  0  0  0  0  0  0  0  0  0
  -25.2770  -13.6470   20.8090 C   0  0  0  0  0  0  0  0  0  0  0  0
  -25.6430  -12.2690   20.7460 C   0  0  0  0  0  0  0  0  0  0  0  0
  -27.3730  -13.3860   20.2340 N   0  0  0  0  0  0  0  0  0  0  0  0
  -26.9260  -12.1370   20.4570 N   0  0  0  0  0  0  0  0  0  0  0  0
  -24.8320  -11.0600   20.8770 C   0  0  0  0  0  0  0  0  0  0  0  0
  -25.1820  -10.0500   21.7930 C   0  0  0  0  0  3  0  0  0  0  0  0
  -24.3840   -8.8920   21.9130 C   0  0  0  0  0  3  0  0  0  0  0  0
  -23.2200   -8.7520   21.1200 C   0  0  0  0  0  0  0  0  0  0  0  0
  -22.8930   -9.7500   20.1850 C   0  0  0  0  0  3  0  0  0  0  0  0
  -23.6930  -10.9000   20.0620 C   0  0  0  0  0  3  0  0  0  0  0  0
  -22.3970   -7.6560   21.1530 O   0  0  0  0  0  0  0  0  0  0  0  0
  -22.1350   -6.9940   22.3250 C   0  0  0  0  0  0  0  0  0  0  0  0
  -21.5690   -7.6460   23.4430 C   0  0  0  0  0  3  0  0  0  0  0  0
  -21.2520   -6.9070   24.6000 C   0  0  0  0  0  3  0  0  0  0  0  0
  -21.4970   -5.5230   24.6420 C   0  0  0  0  0  0  0  0  0  0  0  0
  -22.0580   -4.8710   23.5290 C   0  0  0  0  0  3  0  0  0  0  0  0
  -22.3760   -5.6050   22.3740 C   0  0  0  0  0  0  0  0  0  0  0  0
  -22.8980   -4.9720   21.2950 F   0  0  0  0  0  0  0  0  0  0  0  0
  -21.1860   -4.8090   25.7510 F   0  0  0  0  0  0  0  0  0  0  0  0
  -23.9120  -14.2180   21.0590 C   0  0  0  0  0  0  0  0  0  0  0  0
  -23.1390  -13.5830   21.9360 N   0  0  0  0  0  0  0  0  0  0  0  0
  -23.5390  -15.2540   20.5170 O   0  0  0  0  0  0  0  0  0  0  0  0
  -23.4540  -12.7360   22.3820 H   0  0  0  0  0  0  0  0  0  0  0  0
  -22.2230  -13.9430   22.1490 H   0  0  0  0  0  0  0  0  0  0  0  0
  -26.6810  -15.7050   20.3830 N   0  0  0  0  0  0  0  0  0  0  0  0
  -25.9910  -16.4180   20.5810 H   0  0  0  0  0  0  0  0  0  0  0  0
  -27.5970  -16.0810   20.1760 H   0  0  0  0  0  0  0  0  0  0  0  0
  -31.0410  -20.3030   21.5040 C   0  0  0  0  0  2  0  0  0  0  0  0
  -30.1520  -21.5250   21.7600 N   0  0  0  0  0  4  0  0  0  0  0  0
  -30.2650  -21.7810   22.7260 H   0  0  0  0  0  0  0  0  0  0  0  0
  -29.1930  -21.2350   21.6430 H   0  0  0  0  0  0  0  0  0  0  0  0
  -30.3630  -22.7820   20.9130 C   0  0  0  0  0  3  0  0  0  0  0  0
  -29.4570  -24.0750   21.1940 C   0  0  0  0  0  3  0  0  0  0  0  0
  -29.5680  -25.3140   20.1890 C   0  0  0  0  0  2  0  0  0  0  0  0
  -29.2420  -26.6700   20.6650 O   0  0  0  0  0  0  0  0  0  0  0  0
  -24.8360  -31.7240   23.2190 C   0  0  0  0  0  0  0  0  0  0  0  0
  -28.0250  -27.3370   20.4790 C   0  0  0  0  0  0  0  0  0  0  0  0
  -23.8690  -30.2210   21.5170 C   0  0  0  0  0  3  0  0  0  0  0  0
  -25.5400  -28.7450   20.2440 C   0  0  0  0  0  0  0  0  0  0  0  0
  -26.3810  -30.7170   21.5230 C   0  0  0  0  0  2  0  0  0  0  0  0
  -26.6120  -29.3380   20.9150 C   0  0  0  0  0  0  0  0  0  0  0  0
  -27.8530  -28.6500   21.0140 C   0  0  0  0  0  3  0  0  0  0  0  0
  -26.9280  -26.7780   19.7870 C   0  0  0  0  0  3  0  0  0  0  0  0
  -25.6990  -27.4690   19.6680 C   0  0  0  0  0  3  0  0  0  0  0  0
  -24.2460  -29.5350   20.1730 C   0  0  0  0  0  2  0  0  0  0  0  0
  -25.0420  -30.9060   22.1460 N   0  0  0  0  0  0  0  0  0  0  0  0
  -23.6970  -31.9340   23.6580 O   0  0  0  0  0  0  0  0  0  0  0  0
  -23.1970  -29.1740   22.4400 C   0  0  0  0  0  0  0  0  0  0  0  0
  -21.8800  -28.9670   22.2620 N   0  0  0  0  0  0  0  0  0  0  0  0
  -23.8610  -28.5450   23.2680 O   0  0  0  0  0  0  0  0  0  0  0  0
  -21.3940  -29.5490   21.5980 H   0  0  0  0  0  0  0  0  0  0  0  0
  -18.4990  -27.7550   22.7050 C   0  0  0  0  0  0  0  0  0  0  0  0
  -21.0600  -27.9750   22.9620 C   0  0  0  0  0  3  0  0  0  0  0  0
  -21.1570  -26.5870   22.2780 C   0  0  0  0  0  2  0  0  0  0  0  0
  -20.0190  -26.3110   21.2900 C   0  0  0  0  0  2  0  0  0  0  0  0
  -18.6510  -26.4400   21.9610 C   0  0  0  0  0  2  0  0  0  0  0  0
  -19.6280  -28.4810   23.1660 C   0  0  0  0  0  0  0  0  0  0  0  0
  -19.4260  -29.7170   23.8210 C   0  0  0  0  0  3  0  0  0  0  0  0
  -18.1290  -30.2250   24.0200 C   0  0  0  0  0  3  0  0  0  0  0  0
  -17.0150  -29.4920   23.5800 C   0  0  0  0  0  3  0  0  0  0  0  0
  -17.1990  -28.2590   22.9290 C   0  0  0  0  0  3  0  0  0  0  0  0
  -26.0160  -32.4530   23.9310 C   0  0  0  0  0  3  0  0  0  0  0  0
  -25.5690  -33.8150   24.2460 N   0  0  0  0  0  0  0  0  0  0  0  0
  -25.8290  -34.8980   23.5010 C   0  0  0  0  0  0  0  0  0  0  0  0
  -26.5410  -34.8600   22.4940 O   0  0  0  0  0  0  0  0  0  0  0  0
  -24.9320  -33.9100   25.0230 H   0  0  0  0  0  0  0  0  0  0  0  0
  -23.9340  -36.5140   23.1200 C   0  0  0  0  0  1  0  0  0  0  0  0
  -25.2040  -36.2340   23.9450 C   0  0  0  0  0  3  0  0  0  0  0  0
  -27.2290  -37.3430   24.7810 C   0  0  0  0  0  1  0  0  0  0  0  0
  -26.1240  -37.3870   23.8280 N   0  0  0  0  0  0  0  0  0  0  0  0
  -25.6240  -38.2620   23.9660 H   0  0  0  0  0  0  0  0  0  0  0  0
  -26.5010  -31.7120   25.2360 C   0  0  1  0  0  0  0  0  0  0  0  0
  -25.3450  -31.2810   26.1680 C   0  0  0  0  0  1  0  0  0  0  0  0
  -27.3210  -30.4530   24.8740 C   0  0  0  0  0  1  0  0  0  0  0  0
  -27.4430  -32.6350   26.0400 C   0  0  0  0  0  1  0  0  0  0  0  0
  2  1  2  0
  3  4  1  0
  5 13  1  0
  5  6  1  0
  6 14  1  0
  7  9  1  0
  8  2  1  0
  9 17  1  0
  9  8  1  0
 10  3  1  0
 10 12  1  0
 10  7  1  0
 11  4  1  0
 11  8  1  0
 12 14  1  0
 13 15  1  0
 13 12  1  0
 14 16  1  1
 14 11  1  0
 18 23  1  0
 19 20  1  0
 19 18  1  0
 20 21  1  0
 21 28  1  0
 21 22  1  0
 23 17  1  0
 23 22  1  0
 24 17  2  0
 25 26  2  0
 26 45  1  0
 27 26  1  0
 27 30  1  0
 28 29  1  0
 28 25  1  0
 29 27  2  0
 30 31  1  0
 31 32  2  0
 33 36  1  0
 33 32  1  0
 34 33  2  0
 35 34  1  0
 35 30  2  0
 36 37  1  0
 37 42  2  0
 37 38  1  0
 38 39  2  0
 39 40  1  0
 40 44  1  0
 41 40  2  0
 42 41  1  0
 43 42  1  0
 45 46  1  0
 46 49  1  0
 46 48  1  0
 47 45  2  0
 50 25  1  0
 50 51  1  0
 52 50  1  0
 53  2  1  0
 53 54  1  0
 54 55  1  0
 56 54  1  0
 57 58  2  0
 57 54  1  0
 59 60  1  0
 59 58  1  0
 61 72  2  0
 61 87  1  0
 62 60  1  0
 62 67  1  0
 63 71  1  0
 63 73  1  0
 64 66  1  0
 65 71  1  0
 66 67  2  0
 66 65  1  0
 68 62  2  0
 69 68  1  0
 69 64  2  0
 70 64  1  0
 70 63  1  0
 71 61  1  0
 73 75  2  0
 74 73  1  0
 74 78  1  0
 76 74  1  0
 77 86  2  0
 77 82  1  0
 78 82  1  0
 79 78  1  0
 80 81  1  0
 80 79  1  0
 81 77  1  0
 82 83  2  0
 83 84  1  0
 85 84  2  0
 86 85  1  0
 87 88  1  0
 87 97  1  0
 88 91  1  0
 89 93  1  0
 89 88  1  0
 90 89  2  0
 92 93  1  0
 95 93  1  0
 95 96  1  0
 95 94  1  0
 97100  1  1
 97 98  1  0
 99 97  1  0
M  ISO  4   9 100  17 100  59 101  60 101
M  END
>  <TORSDO>  (9) 
F 22

>  <SCORE>  (9) 
-10.205

>  <name>  (9) 
8

>  <ligand_id>  (9) 
8

>  <original_smiles>  (9) 
[H]C([H])=C(C1([H])C([H])(C(=O)N2C([H])([H])C([H])([H])C([H])([H])C([H])(n3nc(-c4c([H])c([H])c(Oc5c([H])c([H])c(F)c([H])c5F)c([H])c4[H])c(C(=O)N([H])[H])c3N([H])[H])C2([H])[H])C([H])([H])C2([H])C([H])([H])C([H])([H])C1([H])C1(C([H])([H])[H])C([H])([H])C([H])([H])C([H])(C([H])([H])[H])C21[H])C([H])([H])[N+]([H])([H])C([H])([H])C([H])([H])C([H])([H])Oc1c([H])c([H])c2c(c1[H])C([H])([H])N(C(=O)C([H])(N([H])C(=O)C([H])(N([H])C([H])([H])[H])C([H])([H])[H])C(C([H])([H])[H])(C([H])([H])[H])C([H])([H])[H])C([H])(C(=O)N([H])C1([H])c3c([H])c([H])c([H])c([H])c3C([H])([H])C([H])([H])C1([H])[H])C2([H])[H]

>  <smiles>  (9) 
[H]C([H])=C(C1([H])C([H])(C(=O)N2C([H])([H])C([H])([H])C([H])([H])C([H])(n3nc(-c4c([H])c([H])c(Oc5c([H])c([H])c(F)c([H])c5F)c([H])c4[H])c(C(=O)N([H])[H])c3N([H])[H])C2([H])[H])C([H])([H])C2([H])C([H])([H])C([H])([H])C1([H])C1(C([H])([H])[H])C([H])([H])C([H])([H])C([H])(C([H])([H])[H])C21[H])C([H])([H])[N+]([H])([H])C([H])([H])C([H])([H])C([H])([H])Oc1c([H])c([H])c2c(c1[H])C([H])([H])N(C(=O)C([H])(N([H])C(=O)C([H])(N([H])C([H])([H])[H])C([H])([H])[H])C(C([H])([H])[H])(C([H])([H])[H])C([H])([H])[H])C([H])(C(=O)N([H])C1([H])c3c([H])c([H])c([H])c([H])c3C([H])([H])C([H])([H])C1([H])[H])C2([H])[H]

$$$$
9:0:0
     RDKit          3D

 86 95  0  0  1  0  0  0  0  0999 V2000
  -29.6260  -19.3380   17.7100 C   0  0  0  0  0  2  0  0  0  0  0  0
  -28.4510  -20.2970   17.9740 C   0  0  0  0  0  2  0  0  0  0  0  0
  -30.4610  -19.2550   19.0030 C   0  0  0  0  0  2  0  0  0  0  0  0
  -29.3720  -20.7370   21.0990 C   0  0  0  0  0  3  0  0  0  0  0  0
  -28.3620  -20.4520   19.4870 C   0  0  1  0  0  0  0  0  0  0  0  0
  -28.8330  -22.0010   20.0780 C   0  0  0  0  0  2  0  0  0  0  0  0
  -29.4520  -19.3060   20.1420 C   0  0  1  0  0  0  0  0  0  0  0  0
  -29.3350  -17.3810   20.5340 C   0  0  0  0  0  2  0  0  0  0  0  0
  -30.1960  -15.7120   20.3120 C   0  0  0  0  0  0  0  0  0  0  0  0
  -30.3480  -13.1510   19.5100 C   0  0  0  0  0  2  0  0  0  0  0  0
  -29.4720  -12.7690   18.2790 C   0  0  0  0  0  2  0  0  0  0  0  0
  -28.0320  -12.4270   18.6970 C   0  0  0  0  0  2  0  0  0  0  0  0
  -27.5140  -13.4160   19.7640 C   0  0  0  0  0  3  0  0  0  0  0  0
  -28.5280  -13.7040   20.8940 C   0  0  0  0  0  2  0  0  0  0  0  0
  -29.7250  -14.3230   20.2800 N   0  0  0  0  0  0  0  0  0  0  0  0
  -31.4220  -15.6660   20.0820 O   0  0  0  0  0  0  0  0  0  0  0  0
  -25.1440  -13.9430   20.5040 C   0  0  0  0  0  0  0  0  0  0  0  0
  -24.0820  -13.1600   20.8640 C   0  0  0  0  0  0  0  0  0  0  0  0
  -24.5550  -11.8130   20.8400 C   0  0  0  0  0  0  0  0  0  0  0  0
  -26.1910  -13.0730   20.2690 N   0  0  0  0  0  0  0  0  0  0  0  0
  -25.8520  -11.7850   20.5400 N   0  0  0  0  0  0  0  0  0  0  0  0
  -23.8290  -10.5490   21.0270 C   0  0  0  0  0  0  0  0  0  0  0  0
  -24.2470   -9.5840   21.9690 C   0  0  0  0  0  3  0  0  0  0  0  0
  -23.5150   -8.3890   22.1440 C   0  0  0  0  0  3  0  0  0  0  0  0
  -22.3510   -8.1490   21.3760 C   0  0  0  0  0  0  0  0  0  0  0  0
  -21.9510   -9.1020   20.4240 C   0  0  0  0  0  3  0  0  0  0  0  0
  -22.6840  -10.2890   20.2470 C   0  0  0  0  0  3  0  0  0  0  0  0
  -21.5930   -7.0040   21.4590 O   0  0  0  0  0  0  0  0  0  0  0  0
  -21.5270   -6.2680   22.6160 C   0  0  0  0  0  0  0  0  0  0  0  0
  -21.0750   -6.8260   23.8310 C   0  0  0  0  0  3  0  0  0  0  0  0
  -20.9560   -6.0150   24.9770 C   0  0  0  0  0  3  0  0  0  0  0  0
  -21.2800   -4.6460   24.9090 C   0  0  0  0  0  0  0  0  0  0  0  0
  -21.7250   -4.0880   23.6970 C   0  0  0  0  0  3  0  0  0  0  0  0
  -21.8460   -4.8960   22.5540 C   0  0  0  0  0  0  0  0  0  0  0  0
  -22.2540   -4.3470   21.3840 F   0  0  0  0  0  0  0  0  0  0  0  0
  -21.1600   -3.8640   26.0070 F   0  0  0  0  0  0  0  0  0  0  0  0
  -22.6800  -13.6340   21.1120 C   0  0  0  0  0  0  0  0  0  0  0  0
  -21.9410  -12.9420   21.9710 N   0  0  0  0  0  0  0  0  0  0  0  0
  -22.2480  -14.6540   20.5750 O   0  0  0  0  0  0  0  0  0  0  0  0
  -22.3010  -12.1150   22.4250 H   0  0  0  0  0  0  0  0  0  0  0  0
  -20.9990  -13.2430   22.1810 H   0  0  0  0  0  0  0  0  0  0  0  0
  -25.3030  -15.3140   20.3270 N   0  0  0  0  0  0  0  0  0  0  0  0
  -24.5350  -15.9690   20.4370 H   0  0  0  0  0  0  0  0  0  0  0  0
  -26.1560  -15.7540   20.0090 H   0  0  0  0  0  0  0  0  0  0  0  0
  -27.9280  -23.7530   20.2130 C   0  0  0  0  0  1  0  0  0  0  0  0
  -28.1250  -25.5180   20.1890 O   0  0  0  0  0  0  0  0  0  0  0  0
  -24.6750  -31.8800   23.1050 C   0  0  0  0  0  0  0  0  0  0  0  0
  -27.1480  -26.7370   20.1540 C   0  0  0  0  0  0  0  0  0  0  0  0
  -23.4590  -30.4570   21.5110 C   0  0  0  0  0  3  0  0  0  0  0  0
  -24.8820  -28.7850   20.1020 C   0  0  0  0  0  0  0  0  0  0  0  0
  -26.0360  -30.5920   21.3430 C   0  0  0  0  0  2  0  0  0  0  0  0
  -26.0900  -29.1470   20.7090 C   0  0  0  0  0  0  0  0  0  0  0  0
  -27.2070  -28.1530   20.7000 C   0  0  0  0  0  3  0  0  0  0  0  0
  -25.9030  -26.5910   19.4880 C   0  0  0  0  0  3  0  0  0  0  0  0
  -24.8300  -27.5340   19.4630 C   0  0  0  0  0  3  0  0  0  0  0  0
  -23.6770  -29.7390   20.1480 C   0  0  0  0  0  2  0  0  0  0  0  0
  -24.7490  -31.0110   22.0370 N   0  0  0  0  0  0  0  0  0  0  0  0
  -23.5900  -32.1890   23.6290 O   0  0  0  0  0  0  0  0  0  0  0  0
  -22.7580  -29.4960   22.5090 C   0  0  0  0  0  0  0  0  0  0  0  0
  -21.4240  -29.3410   22.4100 N   0  0  0  0  0  0  0  0  0  0  0  0
  -23.4270  -28.8860   23.3470 O   0  0  0  0  0  0  0  0  0  0  0  0
  -20.9350  -29.8800   21.7100 H   0  0  0  0  0  0  0  0  0  0  0  0
  -18.0460  -28.1270   22.9880 C   0  0  0  0  0  0  0  0  0  0  0  0
  -20.6090  -28.4170   23.2110 C   0  0  0  0  0  3  0  0  0  0  0  0
  -20.7100  -26.9730   22.6640 C   0  0  0  0  0  2  0  0  0  0  0  0
  -19.5970  -26.6240   21.6720 C   0  0  0  0  0  2  0  0  0  0  0  0
  -18.2220  -26.7690   22.3310 C   0  0  0  0  0  2  0  0  0  0  0  0
  -19.1640  -28.9080   23.3880 C   0  0  0  0  0  0  0  0  0  0  0  0
  -18.9400  -30.1740   23.9710 C   0  0  0  0  0  3  0  0  0  0  0  0
  -17.6330  -30.6620   24.1540 C   0  0  0  0  0  3  0  0  0  0  0  0
  -16.5300  -29.8810   23.7670 C   0  0  0  0  0  3  0  0  0  0  0  0
  -16.7380  -28.6160   23.1910 C   0  0  0  0  0  3  0  0  0  0  0  0
  -25.9470  -32.5400   23.7160 C   0  0  0  0  0  3  0  0  0  0  0  0
  -25.6190  -33.9380   24.0680 N   0  0  0  0  0  0  0  0  0  0  0  0
  -25.9290  -35.0130   23.3300 C   0  0  0  0  0  0  0  0  0  0  0  0
  -26.5800  -34.9340   22.2860 O   0  0  0  0  0  0  0  0  0  0  0  0
  -25.0390  -34.0700   24.8820 H   0  0  0  0  0  0  0  0  0  0  0  0
  -24.1920  -36.8170   23.0490 C   0  0  0  0  0  1  0  0  0  0  0  0
  -25.4490  -36.3950   23.8250 C   0  0  0  0  0  3  0  0  0  0  0  0
  -27.5960  -37.2780   24.6330 C   0  0  0  0  0  1  0  0  0  0  0  0
  -26.4760  -37.4560   23.7120 N   0  0  0  0  0  0  0  0  0  0  0  0
  -26.0690  -38.3720   23.8790 H   0  0  0  0  0  0  0  0  0  0  0  0
  -26.4800  -31.7820   24.9960 C   0  0  1  0  0  0  0  0  0  0  0  0
  -25.4100  -31.5760   26.0940 C   0  0  0  0  0  1  0  0  0  0  0  0
  -27.0360  -30.3900   24.6240 C   0  0  0  0  0  1  0  0  0  0  0  0
  -27.6570  -32.5720   25.6190 C   0  0  0  0  0  1  0  0  0  0  0  0
  1  2  1  0
  1  3  1  0
  3  7  1  0
  4  6  1  0
  5  2  1  1
  5  6  1  0
  5  7  1  0
  5  4  1  0
  7  8  1  1
  7  4  1  0
  9  8  1  0
 10 15  1  0
 11 12  1  0
 11 10  1  0
 13 12  1  0
 13 20  1  0
 13 14  1  0
 15  9  1  0
 15 14  1  0
 16  9  2  0
 17 18  2  0
 18 37  1  0
 19 18  1  0
 19 22  1  0
 20 17  1  0
 20 21  1  0
 21 19  2  0
 22 23  1  0
 23 24  2  0
 25 28  1  0
 25 24  1  0
 26 25  2  0
 27 26  1  0
 27 22  2  0
 28 29  1  0
 29 30  1  0
 30 31  2  0
 32 31  1  0
 32 36  1  0
 33 32  2  0
 34 29  2  0
 34 33  1  0
 35 34  1  0
 37 38  1  0
 38 41  1  0
 38 40  1  0
 39 37  2  0
 42 43  1  0
 42 17  1  0
 44 42  1  0
 46 45  1  0
 47 58  2  0
 48 46  1  0
 48 53  1  0
 49 57  1  0
 49 59  1  0
 50 56  1  0
 50 52  1  0
 51 57  1  0
 52 51  1  0
 53 52  2  0
 54 48  2  0
 55 54  1  0
 55 50  2  0
 56 49  1  0
 57 47  1  0
 59 61  2  0
 60 59  1  0
 62 60  1  0
 63 72  2  0
 63 68  1  0
 64 60  1  0
 64 68  1  0
 65 64  1  0
 66 67  1  0
 66 65  1  0
 67 63  1  0
 68 69  2  0
 69 70  1  0
 71 70  2  0
 72 71  1  0
 73 47  1  0
 73 74  1  0
 73 83  1  0
 74 77  1  0
 75 79  1  0
 75 74  1  0
 76 75  2  0
 79 78  1  0
 81 79  1  0
 81 82  1  0
 81 80  1  0
 83 86  1  1
 83 84  1  0
 85 83  1  0
M  ISO  4   8 100   9 100  45 101  46 101
M  END
>  <TORSDO>  (10) 
F 18

>  <SCORE>  (10) 
-16.541

>  <name>  (10) 
9

>  <ligand_id>  (10) 
9

>  <original_smiles>  (10) 
[H]c1c([H])c([H])c2c(c1[H])C([H])([H])C([H])([H])C([H])([H])C2([H])N([H])C(=O)C1([H])N(C(=O)C([H])(N([H])C(=O)C([H])(N([H])C([H])([H])[H])C([H])([H])[H])C(C([H])([H])[H])(C([H])([H])[H])C([H])([H])[H])C([H])([H])c2c([H])c(OC([H])([H])C3([H])C([H])([H])C4(C([H])([H])C(=O)N5C([H])([H])C([H])([H])C([H])([H])C([H])(n6nc(-c7c([H])c([H])c(Oc8c([H])c([H])c(F)c([H])c8F)c([H])c7[H])c(C(=O)N([H])[H])c6N([H])[H])C5([H])[H])C([H])([H])C([H])([H])C([H])([H])C34[H])c([H])c([H])c2C1([H])[H]

>  <smiles>  (10) 
[H]c1c([H])c([H])c2c(c1[H])C([H])([H])C([H])([H])C([H])([H])C2([H])N([H])C(=O)C1([H])N(C(=O)C([H])(N([H])C(=O)C([H])(N([H])C([H])([H])[H])C([H])([H])[H])C(C([H])([H])[H])(C([H])([H])[H])C([H])([H])[H])C([H])([H])c2c([H])c(OC([H])([H])C3([H])C([H])([H])C4(C([H])([H])C(=O)N5C([H])([H])C([H])([H])C([H])([H])C([H])(n6nc(-c7c([H])c([H])c(Oc8c([H])c([H])c(F)c([H])c8F)c([H])c7[H])c(C(=O)N([H])[H])c6N([H])[H])C5([H])[H])C([H])([H])C([H])([H])C([H])([H])C34[H])c([H])c([H])c2C1([H])[H]

$$$$
10:0:0
     RDKit          3D

 87 95  0  0  1  0  0  0  0  0999 V2000
  -28.5490  -21.1950   20.9350 C   0  0  0  0  0  2  0  0  0  0  0  0
  -29.7730  -20.7530   19.0190 C   0  0  0  0  0  2  0  0  0  0  0  0
  -28.5270  -22.7350   20.1500 C   0  0  0  0  0  3  0  0  0  0  0  0
  -29.8170  -22.3180   19.3870 C   0  0  0  0  0  3  0  0  0  0  0  0
  -29.0620  -19.9390   20.0680 N   0  0  1  0  0  4  0  0  0  0  0  0
  -30.8550  -22.5180   20.2030 F   0  0  0  0  0  0  0  0  0  0  0  0
  -28.2230  -19.6220   19.6070 H   0  0  0  0  0  0  0  0  0  0  0  0
  -28.2950  -24.4190   20.7780 C   0  0  0  0  0  2  0  0  0  0  0  0
  -28.3070  -25.9830   20.2730 O   0  0  0  0  0  0  0  0  0  0  0  0
  -24.6240  -31.8970   23.2450 C   0  0  0  0  0  0  0  0  0  0  0  0
  -27.2460  -27.0230   20.3160 C   0  0  0  0  0  0  0  0  0  0  0  0
  -23.4520  -30.4770   21.6100 C   0  0  0  0  0  3  0  0  0  0  0  0
  -24.9240  -28.8610   20.2270 C   0  0  0  0  0  0  0  0  0  0  0  0
  -26.0170  -30.7050   21.4840 C   0  0  0  0  0  2  0  0  0  0  0  0
  -26.1010  -29.2900   20.8510 C   0  0  0  0  0  0  0  0  0  0  0  0
  -27.2610  -28.3930   20.8670 C   0  0  0  0  0  3  0  0  0  0  0  0
  -26.0320  -26.7280   19.6590 C   0  0  0  0  0  3  0  0  0  0  0  0
  -24.9090  -27.5960   19.6150 C   0  0  0  0  0  3  0  0  0  0  0  0
  -23.6980  -29.7750   20.2470 C   0  0  0  0  0  2  0  0  0  0  0  0
  -24.7180  -31.0540   22.1670 N   0  0  0  0  0  0  0  0  0  0  0  0
  -23.5280  -32.1900   23.7520 O   0  0  0  0  0  0  0  0  0  0  0  0
  -22.7520  -29.4890   22.5790 C   0  0  0  0  0  0  0  0  0  0  0  0
  -21.4230  -29.3280   22.4470 N   0  0  0  0  0  0  0  0  0  0  0  0
  -23.4120  -28.8700   23.4170 O   0  0  0  0  0  0  0  0  0  0  0  0
  -20.9450  -29.8710   21.7420 H   0  0  0  0  0  0  0  0  0  0  0  0
  -18.0360  -28.1380   22.9580 C   0  0  0  0  0  0  0  0  0  0  0  0
  -20.5960  -28.3980   23.2230 C   0  0  0  0  0  3  0  0  0  0  0  0
  -20.6960  -26.9640   22.6540 C   0  0  0  0  0  2  0  0  0  0  0  0
  -19.5950  -26.6400   21.6400 C   0  0  0  0  0  2  0  0  0  0  0  0
  -18.2100  -26.7910   22.2770 C   0  0  0  0  0  2  0  0  0  0  0  0
  -19.1560  -28.9010   23.3860 C   0  0  0  0  0  0  0  0  0  0  0  0
  -18.9380  -30.1600   23.9840 C   0  0  0  0  0  3  0  0  0  0  0  0
  -17.6340  -30.6600   24.1560 C   0  0  0  0  0  3  0  0  0  0  0  0
  -16.5270  -29.8950   23.7440 C   0  0  0  0  0  3  0  0  0  0  0  0
  -16.7310  -28.6370   23.1500 C   0  0  0  0  0  3  0  0  0  0  0  0
  -25.8890  -32.5480   23.8830 C   0  0  0  0  0  3  0  0  0  0  0  0
  -26.3780  -31.8060   25.1870 C   0  0  1  0  0  0  0  0  0  0  0  0
  -25.2590  -31.5990   26.2370 C   0  0  0  0  0  1  0  0  0  0  0  0
  -26.9630  -30.4140   24.8500 C   0  0  0  0  0  1  0  0  0  0  0  0
  -27.5210  -32.6120   25.8500 C   0  0  0  0  0  1  0  0  0  0  0  0
  -25.5690  -33.9520   24.1890 N   0  0  0  0  0  0  0  0  0  0  0  0
  -25.9120  -35.0020   23.4310 C   0  0  0  0  0  0  0  0  0  0  0  0
  -26.5950  -34.8900   22.4090 O   0  0  0  0  0  0  0  0  0  0  0  0
  -24.9680  -34.1140   24.9830 H   0  0  0  0  0  0  0  0  0  0  0  0
  -24.1930  -36.8010   23.0450 C   0  0  0  0  0  1  0  0  0  0  0  0
  -25.4220  -36.3960   23.8740 C   0  0  0  0  0  3  0  0  0  0  0  0
  -27.5450  -37.2860   24.7310 C   0  0  0  0  0  1  0  0  0  0  0  0
  -26.4590  -37.4460   23.7670 N   0  0  0  0  0  0  0  0  0  0  0  0
  -26.0530  -38.3680   23.8980 H   0  0  0  0  0  0  0  0  0  0  0  0
  -29.7950  -18.5170   20.5600 C   0  0  0  0  0  2  0  0  0  0  0  0
  -29.4290  -16.7920   20.2150 C   0  0  0  0  0  2  0  0  0  0  0  0
  -30.3470  -15.2970   20.1600 C   0  0  0  0  0  0  0  0  0  0  0  0
  -30.3660  -12.8550   19.2750 C   0  0  0  0  0  2  0  0  0  0  0  0
  -29.4180  -12.7030   18.0550 C   0  0  0  0  0  2  0  0  0  0  0  0
  -27.9690  -12.4360   18.5070 C   0  0  0  0  0  2  0  0  0  0  0  0
  -27.5500  -13.3650   19.6720 C   0  0  0  0  0  3  0  0  0  0  0  0
  -28.6200  -13.4550   20.7770 C   0  0  0  0  0  2  0  0  0  0  0  0
  -29.8460  -13.9660   20.1500 N   0  0  0  0  0  0  0  0  0  0  0  0
  -31.5640  -15.3350   19.9140 O   0  0  0  0  0  0  0  0  0  0  0  0
  -25.1920  -13.9100   20.4750 C   0  0  0  0  0  0  0  0  0  0  0  0
  -24.1390  -13.1230   20.8560 C   0  0  0  0  0  0  0  0  0  0  0  0
  -24.6120  -11.7770   20.8040 C   0  0  0  0  0  0  0  0  0  0  0  0
  -26.2320  -13.0400   20.2010 N   0  0  0  0  0  0  0  0  0  0  0  0
  -25.8980  -11.7520   20.4710 N   0  0  0  0  0  0  0  0  0  0  0  0
  -23.8930  -10.5090   20.9980 C   0  0  0  0  0  0  0  0  0  0  0  0
  -24.3390   -9.5420   21.9250 C   0  0  0  0  0  3  0  0  0  0  0  0
  -23.6180   -8.3410   22.1090 C   0  0  0  0  0  3  0  0  0  0  0  0
  -22.4380   -8.1000   21.3630 C   0  0  0  0  0  0  0  0  0  0  0  0
  -22.0120   -9.0570   20.4240 C   0  0  0  0  0  3  0  0  0  0  0  0
  -22.7330  -10.2490   20.2410 C   0  0  0  0  0  3  0  0  0  0  0  0
  -21.6890   -6.9520   21.4550 O   0  0  0  0  0  0  0  0  0  0  0  0
  -21.6400   -6.2140   22.6100 C   0  0  0  0  0  0  0  0  0  0  0  0
  -21.1900   -6.7690   23.8300 C   0  0  0  0  0  3  0  0  0  0  0  0
  -21.0900   -5.9560   24.9770 C   0  0  0  0  0  3  0  0  0  0  0  0
  -21.4290   -4.5920   24.9060 C   0  0  0  0  0  0  0  0  0  0  0  0
  -21.8720   -4.0370   23.6920 C   0  0  0  0  0  3  0  0  0  0  0  0
  -21.9740   -4.8460   22.5470 C   0  0  0  0  0  0  0  0  0  0  0  0
  -22.3800   -4.3040   21.3750 F   0  0  0  0  0  0  0  0  0  0  0  0
  -21.3260   -3.8090   26.0050 F   0  0  0  0  0  0  0  0  0  0  0  0
  -22.7460  -13.5930   21.1550 C   0  0  0  0  0  0  0  0  0  0  0  0
  -22.0380  -12.8830   22.0260 N   0  0  0  0  0  0  0  0  0  0  0  0
  -22.2980  -14.6240   20.6570 O   0  0  0  0  0  0  0  0  0  0  0  0
  -22.4200  -12.0520   22.4520 H   0  0  0  0  0  0  0  0  0  0  0  0
  -21.1050  -13.1820   22.2750 H   0  0  0  0  0  0  0  0  0  0  0  0
  -25.3410  -15.2820   20.3090 N   0  0  0  0  0  0  0  0  0  0  0  0
  -24.5630  -15.9210   20.4340 H   0  0  0  0  0  0  0  0  0  0  0  0
  -26.1680  -15.7340   19.9390 H   0  0  0  0  0  0  0  0  0  0  0  0
  2  4  1  0
  2  5  1  0
  3  8  1  0
  3  1  1  0
  4  3  1  0
  4  6  1  0
  5 50  1  0
  5  1  1  0
  5  7  1  6
  9 11  1  0
  9  8  1  0
 10 21  2  0
 11 16  1  0
 12 20  1  0
 12 22  1  0
 13 19  1  0
 13 15  1  0
 14 20  1  0
 15 16  2  0
 15 14  1  0
 17 11  2  0
 18 17  1  0
 18 13  2  0
 19 12  1  0
 20 10  1  0
 22 24  2  0
 23 22  1  0
 25 23  1  0
 26 35  2  0
 26 31  1  0
 27 23  1  0
 27 31  1  0
 28 27  1  0
 29 30  1  0
 29 28  1  0
 30 26  1  0
 31 32  2  0
 32 33  1  0
 34 33  2  0
 35 34  1  0
 36 10  1  0
 36 41  1  0
 36 37  1  0
 37 40  1  1
 37 38  1  0
 39 37  1  0
 41 44  1  0
 42 46  1  0
 42 41  1  0
 43 42  2  0
 46 45  1  0
 48 46  1  0
 48 49  1  0
 48 47  1  0
 51 50  1  0
 52 51  1  0
 53 58  1  0
 54 55  1  0
 54 53  1  0
 56 55  1  0
 56 63  1  0
 56 57  1  0
 58 52  1  0
 58 57  1  0
 59 52  2  0
 60 61  2  0
 61 80  1  0
 62 61  1  0
 62 65  1  0
 63 64  1  0
 63 60  1  0
 64 62  2  0
 65 66  1  0
 66 67  2  0
 68 71  1  0
 68 67  1  0
 69 68  2  0
 70 69  1  0
 70 65  2  0
 71 72  1  0
 72 73  1  0
 73 74  2  0
 75 74  1  0
 75 79  1  0
 76 75  2  0
 77 72  2  0
 77 76  1  0
 78 77  1  0
 80 81  1  0
 81 84  1  0
 81 83  1  0
 82 80  2  0
 85 86  1  0
 85 60  1  0
 87 85  1  0
M  ISO  4   8 101   9 101  51 100  52 100
M  END
>  <TORSDO>  (11) 
F 19

>  <SCORE>  (11) 
-16.153

>  <name>  (11) 
10

>  <ligand_id>  (11) 
10

>  <original_smiles>  (11) 
[H]c1c([H])c([H])c2c(c1[H])C([H])([H])C([H])([H])C([H])([H])C2([H])N([H])C(=O)C1([H])N(C(=O)C([H])(N([H])C(=O)C([H])(N([H])C([H])([H])[H])C([H])([H])[H])C(C([H])([H])[H])(C([H])([H])[H])C([H])([H])[H])C([H])([H])c2c([H])c(OC([H])([H])C3([H])C([H])(F)C([H])([H])[N+]([H])(C([H])([H])C([H])([H])C(=O)N4C([H])([H])C([H])([H])C([H])([H])C([H])(n5nc(-c6c([H])c([H])c(Oc7c([H])c([H])c(F)c([H])c7F)c([H])c6[H])c(C(=O)N([H])[H])c5N([H])[H])C4([H])[H])C3([H])[H])c([H])c([H])c2C1([H])[H]

>  <smiles>  (11) 
[H]c1c([H])c([H])c2c(c1[H])C([H])([H])C([H])([H])C([H])([H])C2([H])N([H])C(=O)C1([H])N(C(=O)C([H])(N([H])C(=O)C([H])(N([H])C([H])([H])[H])C([H])([H])[H])C(C([H])([H])[H])(C([H])([H])[H])C([H])([H])[H])C([H])([H])c2c([H])c(OC([H])([H])C3([H])C([H])(F)C([H])([H])[N+]([H])(C([H])([H])C([H])([H])C(=O)N4C([H])([H])C([H])([H])C([H])([H])C([H])(n5nc(-c6c([H])c([H])c(Oc7c([H])c([H])c(F)c([H])c7F)c([H])c6[H])c(C(=O)N([H])[H])c5N([H])[H])C4([H])[H])C3([H])[H])c([H])c([H])c2C1([H])[H]

$$$$
11:0:0
     RDKit          3D

 96104  0  0  1  0  0  0  0  0999 V2000
  -28.0290  -22.2430   18.8350 C   0  0  0  0  0  3  0  0  0  0  0  0
  -27.8630  -23.7150   18.9010 N   0  0  0  0  0  4  0  0  0  0  0  0
  -27.3370  -23.9660   18.0790 H   0  0  0  0  0  0  0  0  0  0  0  0
  -27.3130  -23.9560   19.7110 H   0  0  0  0  0  0  0  0  0  0  0  0
  -29.1160  -24.5080   18.8760 C   0  0  0  0  0  2  0  0  0  0  0  0
  -28.8770  -25.9900   18.5210 C   0  0  0  0  0  2  0  0  0  0  0  0
  -28.5260  -26.7590   19.6720 O   0  0  0  0  0  0  0  0  0  0  0  0
  -24.6410  -31.5310   23.2040 C   0  0  0  0  0  0  0  0  0  0  0  0
  -27.3270  -27.4380   19.7060 C   0  0  0  0  0  0  0  0  0  0  0  0
  -23.4500  -30.3010   21.4180 C   0  0  0  0  0  3  0  0  0  0  0  0
  -24.9170  -28.9120   19.8620 C   0  0  0  0  0  0  0  0  0  0  0  0
  -25.9750  -30.6780   21.2810 C   0  0  0  0  0  2  0  0  0  0  0  0
  -26.0650  -29.3760   20.5140 C   0  0  0  0  0  0  0  0  0  0  0  0
  -27.2650  -28.6360   20.4490 C   0  0  0  0  0  3  0  0  0  0  0  0
  -26.1570  -26.9800   19.0550 C   0  0  0  0  0  3  0  0  0  0  0  0
  -24.9550  -27.7080   19.1370 C   0  0  0  0  0  3  0  0  0  0  0  0
  -23.6720  -29.7590   19.9790 C   0  0  0  0  0  2  0  0  0  0  0  0
  -24.7070  -30.8450   22.0270 N   0  0  0  0  0  0  0  0  0  0  0  0
  -23.5540  -31.7480   23.7580 O   0  0  0  0  0  0  0  0  0  0  0  0
  -22.7920  -29.1890   22.2650 C   0  0  0  0  0  0  0  0  0  0  0  0
  -21.4720  -29.0080   22.0920 N   0  0  0  0  0  0  0  0  0  0  0  0
  -23.4650  -28.4950   23.0310 O   0  0  0  0  0  0  0  0  0  0  0  0
  -20.9910  -29.6240   21.4520 H   0  0  0  0  0  0  0  0  0  0  0  0
  -18.1040  -27.7340   22.3800 C   0  0  0  0  0  0  0  0  0  0  0  0
  -20.6490  -27.9970   22.7530 C   0  0  0  0  0  3  0  0  0  0  0  0
  -20.7900  -26.6230   22.0570 C   0  0  0  0  0  2  0  0  0  0  0  0
  -19.7230  -26.3770   20.9860 C   0  0  0  0  0  2  0  0  0  0  0  0
  -18.3210  -26.4510   21.5970 C   0  0  0  0  0  2  0  0  0  0  0  0
  -19.1990  -28.4690   22.9100 C   0  0  0  0  0  0  0  0  0  0  0  0
  -18.9460  -29.6750   23.5980 C   0  0  0  0  0  3  0  0  0  0  0  0
  -17.6300  -30.1450   23.7660 C   0  0  0  0  0  3  0  0  0  0  0  0
  -16.5490  -29.4070   23.2530 C   0  0  0  0  0  3  0  0  0  0  0  0
  -16.7870  -28.2030   22.5670 C   0  0  0  0  0  3  0  0  0  0  0  0
  -25.9220  -32.0940   23.8960 C   0  0  0  0  0  3  0  0  0  0  0  0
  -25.6230  -33.4630   24.3350 N   0  0  0  0  0  0  0  0  0  0  0  0
  -25.9850  -34.5700   23.6730 C   0  0  0  0  0  0  0  0  0  0  0  0
  -26.6800  -34.5450   22.6530 O   0  0  0  0  0  0  0  0  0  0  0  0
  -25.0120  -33.5570   25.1330 H   0  0  0  0  0  0  0  0  0  0  0  0
  -24.2920  -36.4110   23.4170 C   0  0  0  0  0  1  0  0  0  0  0  0
  -25.5000  -35.9210   24.2320 C   0  0  0  0  0  3  0  0  0  0  0  0
  -27.6120  -36.7020   25.2090 C   0  0  0  0  0  1  0  0  0  0  0  0
  -26.5480  -36.9650   24.2440 N   0  0  0  0  0  0  0  0  0  0  0  0
  -26.1470  -37.8760   24.4530 H   0  0  0  0  0  0  0  0  0  0  0  0
  -26.4140  -31.2120   25.1090 C   0  0  1  0  0  0  0  0  0  0  0  0
  -25.3050  -30.8980   26.1380 C   0  0  0  0  0  1  0  0  0  0  0  0
  -26.9870  -29.8660   24.6060 C   0  0  0  0  0  1  0  0  0  0  0  0
  -27.5640  -31.9340   25.8510 C   0  0  0  0  0  1  0  0  0  0  0  0
  -25.4290  -22.0810   18.9760 C   0  0  0  0  0  1  0  0  0  0  0  0
  -26.7320  -21.5730   18.3310 C   0  0  0  0  0  2  0  0  0  0  0  0
  -28.5540  -21.6350   20.1620 C   0  0  0  0  0  2  0  0  0  0  0  0
  -29.5660  -20.6210   19.8790 N   0  0  0  0  0  0  0  0  0  0  0  0
  -29.1470  -19.8350   19.3910 H   0  0  0  0  0  0  0  0  0  0  0  0
  -29.7240  -17.7750   21.4790 C   0  0  0  0  0  2  0  0  0  0  0  0
  -29.2980  -19.1910   21.8710 C   0  0  0  0  0  2  0  0  0  0  0  0
  -31.4370  -19.2630   20.6640 C   0  0  0  0  0  2  0  0  0  0  0  0
  -31.2470  -17.8770   21.3050 C   0  0  0  0  0  3  0  0  0  0  0  0
  -30.2290  -20.1260   21.0800 C   0  0  0  0  0  3  0  0  0  0  0  0
  -31.3360  -15.5680   20.2640 C   0  0  0  0  0  3  0  0  0  0  0  0
  -31.9410  -16.7530   20.5230 C   0  0  0  0  0  0  0  0  0  0  0  0
  -33.3480  -17.1260   20.0660 C   0  0  0  0  0  1  0  0  0  0  0  0
  -31.8790  -14.4950   19.4310 C   0  0  0  0  0  0  0  0  0  0  0  0
  -31.2240  -12.4170   18.2610 C   0  0  0  0  0  2  0  0  0  0  0  0
  -30.0930  -12.7250   17.2580 C   0  0  0  0  0  2  0  0  0  0  0  0
  -28.7100  -12.6810   17.9440 C   0  0  0  0  0  2  0  0  0  0  0  0
  -28.6730  -13.4860   19.2710 C   0  0  0  0  0  3  0  0  0  0  0  0
  -29.8860  -13.1160   20.1540 C   0  0  0  0  0  2  0  0  0  0  0  0
  -31.1070  -13.3750   19.3710 N   0  0  0  0  0  0  0  0  0  0  0  0
  -32.8750  -14.6380   18.7110 O   0  0  0  0  0  0  0  0  0  0  0  0
  -26.5890  -14.2420   20.5840 C   0  0  0  0  0  0  0  0  0  0  0  0
  -25.5010  -13.5520   21.0440 C   0  0  0  0  0  0  0  0  0  0  0  0
  -25.7150  -12.1880   20.6750 C   0  0  0  0  0  0  0  0  0  0  0  0
  -27.4100  -13.3000   19.9800 N   0  0  0  0  0  0  0  0  0  0  0  0
  -26.8930  -12.0490   20.0840 N   0  0  0  0  0  0  0  0  0  0  0  0
  -24.8390  -11.0150   20.7990 C   0  0  0  0  0  0  0  0  0  0  0  0
  -25.1600   -9.9460   21.6660 C   0  0  0  0  0  3  0  0  0  0  0  0
  -24.2950   -8.8350   21.7790 C   0  0  0  0  0  3  0  0  0  0  0  0
  -23.0960   -8.7910   21.0290 C   0  0  0  0  0  0  0  0  0  0  0  0
  -22.7950   -9.8470   20.1510 C   0  0  0  0  0  3  0  0  0  0  0  0
  -23.6590  -10.9480   20.0340 C   0  0  0  0  0  3  0  0  0  0  0  0
  -22.2070   -7.7430   21.0590 O   0  0  0  0  0  0  0  0  0  0  0  0
  -21.9240   -7.0720   22.2210 C   0  0  0  0  0  0  0  0  0  0  0  0
  -21.3910   -7.7320   23.3520 C   0  0  0  0  0  3  0  0  0  0  0  0
  -21.0500   -6.9920   24.5020 C   0  0  0  0  0  3  0  0  0  0  0  0
  -21.2290   -5.5950   24.5210 C   0  0  0  0  0  0  0  0  0  0  0  0
  -21.7520   -4.9370   23.3950 C   0  0  0  0  0  3  0  0  0  0  0  0
  -22.0950   -5.6740   22.2480 C   0  0  0  0  0  0  0  0  0  0  0  0
  -22.5790   -5.0310   21.1570 F   0  0  0  0  0  0  0  0  0  0  0  0
  -20.8930   -4.8840   25.6220 F   0  0  0  0  0  0  0  0  0  0  0  0
  -24.2830  -14.1330   21.7030 C   0  0  0  0  0  0  0  0  0  0  0  0
  -23.6640  -13.3920   22.6160 N   0  0  0  0  0  0  0  0  0  0  0  0
  -23.9000  -15.2730   21.4460 O   0  0  0  0  0  0  0  0  0  0  0  0
  -23.9880  -12.4640   22.8430 H   0  0  0  0  0  0  0  0  0  0  0  0
  -22.8510  -13.7580   23.0920 H   0  0  0  0  0  0  0  0  0  0  0  0
  -26.9400  -15.5880   20.6130 N   0  0  0  0  0  0  0  0  0  0  0  0
  -26.3170  -16.2920   20.9950 H   0  0  0  0  0  0  0  0  0  0  0  0
  -27.7640  -15.9790   20.1760 H   0  0  0  0  0  0  0  0  0  0  0  0
  1 49  1  0
  1  2  1  0
  1 50  1  0
  2  4  1  0
  3  2  1  0
  5  2  1  0
  6  5  1  0
  6  7  1  0
  7  9  1  0
  8 19  2  0
  9 14  1  0
 10 18  1  0
 10 20  1  0
 11 17  1  0
 11 13  1  0
 12 18  1  0
 13 12  1  0
 14 13  2  0
 15 16  1  0
 15  9  2  0
 16 11  2  0
 17 10  1  0
 18  8  1  0
 20 22  2  0
 21 20  1  0
 23 21  1  0
 24 33  2  0
 24 29  1  0
 25 21  1  0
 25 29  1  0
 26 25  1  0
 27 28  1  0
 27 26  1  0
 28 24  1  0
 29 30  2  0
 30 31  1  0
 32 31  2  0
 33 32  1  0
 34  8  1  0
 34 35  1  0
 34 44  1  0
 35 38  1  0
 36 40  1  0
 36 35  1  0
 37 36  2  0
 40 39  1  0
 40 42  1  0
 42 43  1  0
 42 41  1  0
 44 47  1  1
 44 45  1  0
 46 44  1  0
 49 48  1  0
 51 50  1  0
 52 51  1  0
 53 54  1  0
 55 57  1  0
 55 56  1  0
 56 59  1  0
 56 53  1  0
 57 51  1  0
 57 54  1  0
 58 59  2  0
 60 59  1  0
 61 58  1  0
 62 67  1  0
 63 64  1  0
 63 62  1  0
 65 64  1  0
 65 72  1  0
 65 66  1  0
 67 61  1  0
 67 66  1  0
 68 61  2  0
 69 94  1  0
 69 70  2  0
 70 89  1  0
 71 74  1  0
 71 70  1  0
 72 73  1  0
 72 69  1  0
 73 71  2  0
 74 75  1  0
 75 76  2  0
 77 80  1  0
 77 76  1  0
 78 77  2  0
 79 78  1  0
 79 74  2  0
 80 81  1  0
 81 86  2  0
 81 82  1  0
 82 83  2  0
 83 84  1  0
 84 88  1  0
 85 84  2  0
 86 85  1  0
 87 86  1  0
 89 90  1  0
 90 92  1  0
 90 93  1  0
 91 89  2  0
 94 95  1  0
 96 94  1  0
M  ISO  4   6 101   7 101  58 100  61 100
M  END
>  <TORSDO>  (12) 
F 24

>  <SCORE>  (12) 
-8.118

>  <name>  (12) 
11

>  <ligand_id>  (12) 
11

>  <original_smiles>  (12) 
[H]C(C(=O)N1C([H])([H])C([H])([H])C([H])([H])C([H])(n2nc(-c3c([H])c([H])c(Oc4c([H])c([H])c(F)c([H])c4F)c([H])c3[H])c(C(=O)N([H])[H])c2N([H])[H])C1([H])[H])=C(C([H])([H])[H])C1([H])C([H])([H])C([H])([H])C([H])(N([H])C([H])([H])C([H])(C([H])([H])C([H])([H])[H])[N+]([H])([H])C([H])([H])C([H])([H])Oc2c([H])c([H])c3c(c2[H])C([H])([H])N(C(=O)C([H])(N([H])C(=O)C([H])(N([H])C([H])([H])[H])C([H])([H])[H])C(C([H])([H])[H])(C([H])([H])[H])C([H])([H])[H])C([H])(C(=O)N([H])C2([H])c4c([H])c([H])c([H])c([H])c4C([H])([H])C([H])([H])C2([H])[H])C3([H])[H])C1([H])[H]

>  <smiles>  (12) 
[H]C(C(=O)N1C([H])([H])C([H])([H])C([H])([H])C([H])(n2nc(-c3c([H])c([H])c(Oc4c([H])c([H])c(F)c([H])c4F)c([H])c3[H])c(C(=O)N([H])[H])c2N([H])[H])C1([H])[H])=C(C([H])([H])[H])C1([H])C([H])([H])C([H])([H])C([H])(N([H])C([H])([H])C([H])(C([H])([H])C([H])([H])[H])[N+]([H])([H])C([H])([H])C([H])([H])Oc2c([H])c([H])c3c(c2[H])C([H])([H])N(C(=O)C([H])(N([H])C(=O)C([H])(N([H])C([H])([H])[H])C([H])([H])[H])C(C([H])([H])[H])(C([H])([H])[H])C([H])([H])[H])C([H])(C(=O)N([H])C2([H])c4c([H])c([H])c([H])c([H])c4C([H])([H])C([H])([H])C2([H])[H])C3([H])[H])C1([H])[H]

$$$$
12:0:0
     RDKit          3D

 97108  0  0  1  0  0  0  0  0999 V2000
  -30.1960  -19.9620   24.4050 C   0  0  0  0  0  2  0  0  0  0  0  0
  -29.6400  -20.7710   23.3670 C   0  0  0  0  0  3  0  0  0  0  0  0
  -29.4320  -21.9260   22.5420 C   0  0  0  0  0  0  0  0  0  0  0  0
  -29.5480  -23.2610   22.4420 C   0  0  0  0  0  3  0  0  0  0  0  0
  -30.8170  -18.7430   23.7330 C   0  0  0  0  0  2  0  0  0  0  0  0
  -31.7320  -15.2660   21.0650 C   0  0  0  0  0  2  0  0  0  0  0  0
  -31.5100  -16.4460   22.0290 C   0  0  0  0  0  2  0  0  0  0  0  0
  -31.0690  -16.7380   19.1190 C   0  0  0  0  0  2  0  0  0  0  0  0
  -29.7710  -18.6630   20.3590 C   0  0  0  0  0  2  0  0  0  0  0  0
  -29.1530  -20.6490   21.9110 C   0  0  0  0  0  3  0  0  0  0  0  0
  -30.8280  -15.3840   19.8230 C   0  0  0  0  0  3  0  0  0  0  0  0
  -31.2850  -19.0430   22.2430 C   0  0  0  0  0  3  0  0  0  0  0  0
  -31.1030  -17.9790   20.0390 C   0  0  0  0  0  3  0  0  0  0  0  0
  -30.2540  -19.7770   21.2890 C   0  0  0  0  0  3  0  0  0  0  0  0
  -31.8320  -17.8310   21.4020 C   0  0  2  0  0  0  0  0  0  0  0  0
  -33.3580  -17.9770   21.2050 C   0  0  0  0  0  1  0  0  0  0  0  0
  -31.1060  -14.2100   18.8430 C   0  0  0  0  0  0  0  0  0  0  0  0
  -30.5940  -11.9630   17.9440 C   0  0  0  0  0  2  0  0  0  0  0  0
  -29.3960  -12.0130   16.9770 C   0  0  0  0  0  2  0  0  0  0  0  0
  -28.0610  -11.9140   17.7410 C   0  0  0  0  0  2  0  0  0  0  0  0
  -27.9930  -12.8940   18.9430 C   0  0  0  0  0  3  0  0  0  0  0  0
  -29.2700  -12.7640   19.8030 C   0  0  0  0  0  2  0  0  0  0  0  0
  -30.4250  -13.0370   18.9350 N   0  0  0  0  0  0  0  0  0  0  0  0
  -31.9680  -14.3860   17.9710 O   0  0  0  0  0  0  0  0  0  0  0  0
  -25.9950  -13.6100   20.4050 C   0  0  0  0  0  0  0  0  0  0  0  0
  -24.9500  -12.8990   20.9290 C   0  0  0  0  0  0  0  0  0  0  0  0
  -25.1550  -11.5430   20.5310 C   0  0  0  0  0  0  0  0  0  0  0  0
  -26.7830  -12.6850   19.7340 N   0  0  0  0  0  0  0  0  0  0  0  0
  -26.2920  -11.4260   19.8580 N   0  0  0  0  0  0  0  0  0  0  0  0
  -24.3090  -10.3560   20.7070 C   0  0  0  0  0  0  0  0  0  0  0  0
  -24.6560   -9.3310   21.6120 C   0  0  0  0  0  3  0  0  0  0  0  0
  -23.8180   -8.2050   21.7760 C   0  0  0  0  0  3  0  0  0  0  0  0
  -22.6170   -8.1010   21.0330 C   0  0  0  0  0  0  0  0  0  0  0  0
  -22.2900   -9.1140   20.1140 C   0  0  0  0  0  3  0  0  0  0  0  0
  -23.1260  -10.2300   19.9500 C   0  0  0  0  0  3  0  0  0  0  0  0
  -21.7560   -7.0340   21.1070 O   0  0  0  0  0  0  0  0  0  0  0  0
  -21.3160   -6.5460   22.3120 C   0  0  0  0  0  0  0  0  0  0  0  0
  -20.6800   -7.3740   23.2640 C   0  0  0  0  0  3  0  0  0  0  0  0
  -20.1800   -6.8170   24.4570 C   0  0  0  0  0  3  0  0  0  0  0  0
  -20.3070   -5.4360   24.6990 C   0  0  0  0  0  0  0  0  0  0  0  0
  -20.9340   -4.6090   23.7500 C   0  0  0  0  0  3  0  0  0  0  0  0
  -21.4340   -5.1630   22.5580 C   0  0  0  0  0  0  0  0  0  0  0  0
  -22.0190   -4.3590   21.6370 F   0  0  0  0  0  0  0  0  0  0  0  0
  -19.8200   -4.8990   25.8420 F   0  0  0  0  0  0  0  0  0  0  0  0
  -23.7750  -13.4560   21.6790 C   0  0  0  0  0  0  0  0  0  0  0  0
  -23.2690  -12.7200   22.6640 N   0  0  0  0  0  0  0  0  0  0  0  0
  -23.3240  -14.5720   21.4260 O   0  0  0  0  0  0  0  0  0  0  0  0
  -23.6520  -11.8120   22.8860 H   0  0  0  0  0  0  0  0  0  0  0  0
  -22.4910  -13.0690   23.2040 H   0  0  0  0  0  0  0  0  0  0  0  0
  -26.3320  -14.9590   20.4260 N   0  0  0  0  0  0  0  0  0  0  0  0
  -25.7470  -15.6580   20.8710 H   0  0  0  0  0  0  0  0  0  0  0  0
  -27.1440  -15.3570   19.9690 H   0  0  0  0  0  0  0  0  0  0  0  0
  -29.2870  -24.0370   21.1660 C   0  0  0  0  0  2  0  0  0  0  0  0
  -30.5150  -24.8040   20.6390 C   0  0  0  0  0  2  0  0  0  0  0  0
  -30.0920  -25.8520   19.5980 C   0  0  0  0  0  2  0  0  0  0  0  0
  -31.1500  -26.9270   19.2860 C   0  0  0  0  0  2  0  0  0  0  0  0
  -30.5160  -28.0910   18.7450 O   0  0  0  0  0  0  0  0  0  0  0  0
  -26.1230  -28.5850   24.3030 C   0  0  0  0  0  0  0  0  0  0  0  0
  -29.2300  -28.2810   19.1860 C   0  0  0  0  0  0  0  0  0  0  0  0
  -25.0450  -28.2900   22.0950 C   0  0  0  0  0  3  0  0  0  0  0  0
  -26.5700  -28.5800   20.0700 C   0  0  0  0  0  0  0  0  0  0  0  0
  -27.3150  -29.4420   22.2970 C   0  0  0  0  0  2  0  0  0  0  0  0
  -27.6350  -28.9170   20.9170 C   0  0  0  0  0  0  0  0  0  0  0  0
  -28.9660  -28.7640   20.4830 C   0  0  0  0  0  3  0  0  0  0  0  0
  -28.1540  -27.9650   18.3290 C   0  0  0  0  0  3  0  0  0  0  0  0
  -26.8250  -28.0990   18.7720 C   0  0  0  0  0  3  0  0  0  0  0  0
  -25.1750  -28.7650   20.6210 C   0  0  0  0  0  2  0  0  0  0  0  0
  -26.1860  -28.7470   22.9530 N   0  0  0  0  0  0  0  0  0  0  0  0
  -25.1170  -28.1060   24.8450 O   0  0  0  0  0  0  0  0  0  0  0  0
  -24.8540  -26.7580   22.1000 C   0  0  0  0  0  0  0  0  0  0  0  0
  -23.7850  -26.2900   21.4370 N   0  0  0  0  0  0  0  0  0  0  0  0
  -25.6670  -26.0200   22.6670 O   0  0  0  0  0  0  0  0  0  0  0  0
  -23.1720  -26.9630   20.9980 H   0  0  0  0  0  0  0  0  0  0  0  0
  -21.6280  -24.0370   19.6200 C   0  0  0  0  0  0  0  0  0  0  0  0
  -23.4200  -24.8850   21.2760 C   0  0  0  0  0  3  0  0  0  0  0  0
  -24.4470  -24.1450   20.3890 C   0  0  0  0  0  2  0  0  0  0  0  0
  -24.0550  -24.1160   18.9090 C   0  0  0  0  0  2  0  0  0  0  0  0
  -22.6970  -23.4340   18.7240 C   0  0  0  0  0  2  0  0  0  0  0  0
  -21.9680  -24.7330   20.8090 C   0  0  0  0  0  0  0  0  0  0  0  0
  -20.9410  -25.3060   21.5880 C   0  0  0  0  0  3  0  0  0  0  0  0
  -19.5930  -25.1910   21.1970 C   0  0  0  0  0  3  0  0  0  0  0  0
  -19.2590  -24.4840   20.0280 C   0  0  0  0  0  3  0  0  0  0  0  0
  -20.2730  -23.9040   19.2460 C   0  0  0  0  0  3  0  0  0  0  0  0
  -27.3000  -29.0190   25.2330 C   0  0  0  0  0  3  0  0  0  0  0  0
  -27.5930  -27.9850   26.3910 C   0  0  1  0  0  0  0  0  0  0  0  0
  -26.3300  -27.5640   27.1790 C   0  0  0  0  0  1  0  0  0  0  0  0
  -28.2490  -26.7030   25.8240 C   0  0  0  0  0  1  0  0  0  0  0  0
  -28.6060  -28.5910   27.3920 C   0  0  0  0  0  1  0  0  0  0  0  0
  -26.9580  -30.3370   25.7870 N   0  0  0  0  0  0  0  0  0  0  0  0
  -27.4280  -31.4990   25.3190 C   0  0  0  0  0  0  0  0  0  0  0  0
  -28.2630  -31.5690   24.4120 O   0  0  0  0  0  0  0  0  0  0  0  0
  -26.2340  -30.3590   26.4910 H   0  0  0  0  0  0  0  0  0  0  0  0
  -25.7890  -33.3840   25.0650 C   0  0  0  0  0  1  0  0  0  0  0  0
  -26.8900  -32.7910   25.9570 C   0  0  0  0  0  3  0  0  0  0  0  0
  -28.9430  -33.3690   27.1710 C   0  0  0  0  0  1  0  0  0  0  0  0
  -27.9380  -33.8040   26.2040 N   0  0  0  0  0  0  0  0  0  0  0  0
  -27.5270  -34.6690   26.5450 H   0  0  0  0  0  0  0  0  0  0  0  0
  2  1  1  0
  3  2  1  0
  4  3  2  0
  5  1  1  0
  6  7  1  0
  8 11  1  0
 10  3  1  0
 10  2  1  0
 11 17  1  0
 11  6  1  0
 12  5  1  0
 13  8  1  0
 13  9  1  0
 13 15  1  0
 14  9  1  0
 14 10  1  0
 14 12  1  0
 15 16  1  6
 15  7  1  0
 15 12  1  0
 17 23  1  0
 18 23  1  0
 19 20  1  0
 19 18  1  0
 21 20  1  0
 21 28  1  0
 21 22  1  0
 23 22  1  0
 24 17  2  0
 25 50  1  0
 25 26  2  0
 26 45  1  0
 27 30  1  0
 27 26  1  0
 28 29  1  0
 28 25  1  0
 29 27  2  0
 30 31  1  0
 31 32  2  0
 33 36  1  0
 33 32  1  0
 34 33  2  0
 35 34  1  0
 35 30  2  0
 36 37  1  0
 37 42  2  0
 37 38  1  0
 38 39  2  0
 39 40  1  0
 40 44  1  0
 41 40  2  0
 42 41  1  0
 43 42  1  0
 45 46  1  0
 46 48  1  0
 46 49  1  0
 47 45  2  0
 50 51  1  0
 52 50  1  0
 53  4  1  0
 54 53  1  0
 55 54  1  0
 56 55  1  0
 57 59  1  0
 57 56  1  0
 58 69  2  0
 59 64  1  0
 60 70  1  0
 60 68  1  0
 61 67  1  0
 61 63  1  0
 62 68  1  0
 63 62  1  0
 64 63  2  0
 65 66  1  0
 65 59  2  0
 66 61  2  0
 67 60  1  0
 68 58  1  0
 70 72  2  0
 71 70  1  0
 73 71  1  0
 74 79  1  0
 75 71  1  0
 76 75  1  0
 77 76  1  0
 78 77  1  0
 78 74  1  0
 79 75  1  0
 79 80  2  0
 81 80  1  0
 82 81  2  0
 83 74  2  0
 83 82  1  0
 84 58  1  0
 84 89  1  0
 84 85  1  0
 85 86  1  1
 85 88  1  0
 87 85  1  0
 89 92  1  0
 90 89  1  0
 90 94  1  0
 91 90  2  0
 94 93  1  0
 94 96  1  0
 96 97  1  0
 96 95  1  0
M  ISO  4  11 100  17 100  56 101  57 101
M  END
>  <TORSDO>  (13) 
F 20

>  <SCORE>  (13) 
-2.301

>  <name>  (13) 
12

>  <ligand_id>  (13) 
12

>  <original_smiles>  (13) 
[H]C(=C1C2=C([H])C([H])([H])C3([H])C([H])(C12[H])C([H])([H])C1([H])C([H])([H])C([H])(C(=O)N2C([H])([H])C([H])([H])C([H])([H])C([H])(n4nc(-c5c([H])c([H])c(Oc6c([H])c([H])c(F)c([H])c6F)c([H])c5[H])c(C(=O)N([H])[H])c4N([H])[H])C2([H])[H])C([H])([H])C([H])([H])C13C([H])([H])[H])C([H])([H])C([H])([H])C([H])([H])C([H])([H])Oc1c([H])c([H])c2c(c1[H])C([H])([H])N(C(=O)C([H])(N([H])C(=O)C([H])(N([H])C([H])([H])[H])C([H])([H])[H])C(C([H])([H])[H])(C([H])([H])[H])C([H])([H])[H])C([H])(C(=O)N([H])C1([H])c3c([H])c([H])c([H])c([H])c3C([H])([H])C([H])([H])C1([H])[H])C2([H])[H]

>  <smiles>  (13) 
[H]C(=C1C2=C([H])C([H])([H])C3([H])C([H])(C12[H])C([H])([H])C1([H])C([H])([H])C([H])(C(=O)N2C([H])([H])C([H])([H])C([H])([H])C([H])(n4nc(-c5c([H])c([H])c(Oc6c([H])c([H])c(F)c([H])c6F)c([H])c5[H])c(C(=O)N([H])[H])c4N([H])[H])C2([H])[H])C([H])([H])C([H])([H])C13C([H])([H])[H])C([H])([H])C([H])([H])C([H])([H])C([H])([H])Oc1c([H])c([H])c2c(c1[H])C([H])([H])N(C(=O)C([H])(N([H])C(=O)C([H])(N([H])C([H])([H])[H])C([H])([H])[H])C(C([H])([H])[H])(C([H])([H])[H])C([H])([H])[H])C([H])(C(=O)N([H])C1([H])c3c([H])c([H])c([H])c([H])c3C([H])([H])C([H])([H])C1([H])[H])C2([H])[H]

$$$$
13:0:0
     RDKit          3D

 86 94  0  0  1  0  0  0  0  0999 V2000
  -31.1460  -20.5670   21.9990 C   0  0  0  0  0  2  0  0  0  0  0  0
  -29.7880  -20.7950   22.7010 C   0  0  0  0  0  2  0  0  0  0  0  0
  -31.1750  -19.3140   21.1080 C   0  0  0  0  0  2  0  0  0  0  0  0
  -28.5650  -20.6380   21.7680 C   0  0  0  0  0  2  0  0  0  0  0  0
  -29.9800  -19.1650   20.1270 C   0  0  0  0  0  3  0  0  0  0  0  0
  -28.9610  -20.7540   20.2920 C   0  0  0  0  0  3  0  0  0  0  0  0
  -29.6450  -17.3120   20.2060 C   0  0  0  0  0  2  0  0  0  0  0  0
  -30.5300  -15.7230   20.0400 C   0  0  0  0  0  0  0  0  0  0  0  0
  -30.6260  -13.2090   19.2230 C   0  0  0  0  0  2  0  0  0  0  0  0
  -29.7020  -12.8970   18.0120 C   0  0  0  0  0  2  0  0  0  0  0  0
  -28.2770  -12.5570   18.4810 C   0  0  0  0  0  2  0  0  0  0  0  0
  -27.7950  -13.5370   19.5720 C   0  0  0  0  0  3  0  0  0  0  0  0
  -28.8450  -13.7920   20.6750 C   0  0  0  0  0  2  0  0  0  0  0  0
  -30.0460  -14.3600   20.0310 N   0  0  0  0  0  0  0  0  0  0  0  0
  -31.7460  -15.7200   19.7850 O   0  0  0  0  0  0  0  0  0  0  0  0
  -25.4400  -14.0420   20.3950 C   0  0  0  0  0  0  0  0  0  0  0  0
  -24.3950  -13.2450   20.7750 C   0  0  0  0  0  0  0  0  0  0  0  0
  -24.8800  -11.9030   20.7140 C   0  0  0  0  0  0  0  0  0  0  0  0
  -26.4880  -13.1860   20.1130 N   0  0  0  0  0  0  0  0  0  0  0  0
  -26.1660  -11.8910   20.3750 N   0  0  0  0  0  0  0  0  0  0  0  0
  -24.1700  -10.6280   20.9000 C   0  0  0  0  0  0  0  0  0  0  0  0
  -24.5640   -9.7000   21.8900 C   0  0  0  0  0  3  0  0  0  0  0  0
  -23.8510   -8.4930   22.0660 C   0  0  0  0  0  3  0  0  0  0  0  0
  -22.7310   -8.2070   21.2490 C   0  0  0  0  0  0  0  0  0  0  0  0
  -22.3580   -9.1220   20.2500 C   0  0  0  0  0  3  0  0  0  0  0  0
  -23.0720  -10.3200   20.0730 C   0  0  0  0  0  3  0  0  0  0  0  0
  -21.9960   -7.0480   21.3290 O   0  0  0  0  0  0  0  0  0  0  0  0
  -21.8040   -6.3980   22.5210 C   0  0  0  0  0  0  0  0  0  0  0  0
  -21.1790   -7.0250   23.6220 C   0  0  0  0  0  3  0  0  0  0  0  0
  -20.9390   -6.2980   24.8050 C   0  0  0  0  0  3  0  0  0  0  0  0
  -21.3150   -4.9440   24.8880 C   0  0  0  0  0  0  0  0  0  0  0  0
  -21.9330   -4.3160   23.7920 C   0  0  0  0  0  3  0  0  0  0  0  0
  -22.1740   -5.0410   22.6120 C   0  0  0  0  0  0  0  0  0  0  0  0
  -22.7500   -4.4240   21.5520 F   0  0  0  0  0  0  0  0  0  0  0  0
  -21.0800   -4.2430   26.0210 F   0  0  0  0  0  0  0  0  0  0  0  0
  -22.9980  -13.7010   21.0750 C   0  0  0  0  0  0  0  0  0  0  0  0
  -22.2940  -12.9850   21.9460 N   0  0  0  0  0  0  0  0  0  0  0  0
  -22.5380  -14.7260   20.5730 O   0  0  0  0  0  0  0  0  0  0  0  0
  -22.6810  -12.1570   22.3710 H   0  0  0  0  0  0  0  0  0  0  0  0
  -21.3560  -13.2690   22.1880 H   0  0  0  0  0  0  0  0  0  0  0  0
  -25.5830  -15.4180   20.2360 N   0  0  0  0  0  0  0  0  0  0  0  0
  -24.8150  -16.0670   20.3760 H   0  0  0  0  0  0  0  0  0  0  0  0
  -26.4300  -15.8710   19.9160 H   0  0  0  0  0  0  0  0  0  0  0  0
  -29.1650  -22.6190   20.0410 C   0  0  0  0  0  3  0  0  0  0  0  0
  -28.1270  -24.1930   20.0780 C   0  0  0  0  0  3  0  0  0  0  0  0
  -28.3200  -25.8960   20.0730 O   0  0  0  0  0  0  0  0  0  0  0  0
  -24.7020  -31.9080   23.2010 C   0  0  0  0  0  0  0  0  0  0  0  0
  -27.3050  -27.0360   20.0680 C   0  0  0  0  0  0  0  0  0  0  0  0
  -23.5340  -30.5490   21.5160 C   0  0  0  0  0  3  0  0  0  0  0  0
  -25.0030  -28.9770   20.0620 C   0  0  0  0  0  0  0  0  0  0  0  0
  -26.1050  -30.7550   21.4000 C   0  0  0  0  0  2  0  0  0  0  0  0
  -26.1900  -29.3520   20.7030 C   0  0  0  0  0  0  0  0  0  0  0  0
  -27.3310  -28.4080   20.6730 C   0  0  0  0  0  3  0  0  0  0  0  0
  -26.0810  -26.8440   19.3850 C   0  0  0  0  0  3  0  0  0  0  0  0
  -24.9790  -27.7480   19.3830 C   0  0  0  0  0  3  0  0  0  0  0  0
  -23.7830  -29.9030   20.1250 C   0  0  0  0  0  2  0  0  0  0  0  0
  -24.8030  -31.0990   22.0950 N   0  0  0  0  0  0  0  0  0  0  0  0
  -23.6050  -32.1800   23.7180 O   0  0  0  0  0  0  0  0  0  0  0  0
  -22.8280  -29.5320   22.4520 C   0  0  0  0  0  0  0  0  0  0  0  0
  -21.5000  -29.3580   22.3080 N   0  0  0  0  0  0  0  0  0  0  0  0
  -23.4860  -28.8970   23.2810 O   0  0  0  0  0  0  0  0  0  0  0  0
  -21.0190  -29.9260   21.6240 H   0  0  0  0  0  0  0  0  0  0  0  0
  -18.1200  -28.1080   22.7680 C   0  0  0  0  0  0  0  0  0  0  0  0
  -20.6780  -28.3900   23.0440 C   0  0  0  0  0  3  0  0  0  0  0  0
  -20.7920  -26.9780   22.4250 C   0  0  0  0  0  2  0  0  0  0  0  0
  -19.6950  -26.6790   21.3980 C   0  0  0  0  0  2  0  0  0  0  0  0
  -18.3100  -26.7860   22.0430 C   0  0  0  0  0  2  0  0  0  0  0  0
  -19.2310  -28.8680   23.2240 C   0  0  0  0  0  0  0  0  0  0  0  0
  -18.9960  -30.1030   23.8670 C   0  0  0  0  0  3  0  0  0  0  0  0
  -17.6840  -30.5800   24.0540 C   0  0  0  0  0  3  0  0  0  0  0  0
  -16.5890  -29.8180   23.6110 C   0  0  0  0  0  3  0  0  0  0  0  0
  -16.8080  -28.5830   22.9750 C   0  0  0  0  0  3  0  0  0  0  0  0
  -25.9590  -32.5460   23.8670 C   0  0  0  0  0  3  0  0  0  0  0  0
  -26.4320  -31.7730   25.1610 C   0  0  1  0  0  0  0  0  0  0  0  0
  -25.3070  -31.5360   26.1950 C   0  0  0  0  0  1  0  0  0  0  0  0
  -27.0250  -30.3930   24.7950 C   0  0  0  0  0  1  0  0  0  0  0  0
  -27.5650  -32.5640   25.8560 C   0  0  0  0  0  1  0  0  0  0  0  0
  -25.6390  -33.9460   24.2070 N   0  0  0  0  0  0  0  0  0  0  0  0
  -25.9530  -35.0110   23.4570 C   0  0  0  0  0  0  0  0  0  0  0  0
  -26.6020  -34.9200   22.4130 O   0  0  0  0  0  0  0  0  0  0  0  0
  -25.0550  -34.0910   25.0180 H   0  0  0  0  0  0  0  0  0  0  0  0
  -24.1900  -36.7910   23.1960 C   0  0  0  0  0  1  0  0  0  0  0  0
  -25.4750  -36.3960   23.9420 C   0  0  0  0  0  3  0  0  0  0  0  0
  -27.6310  -37.3180   24.6720 C   0  0  0  0  0  1  0  0  0  0  0  0
  -26.4870  -37.4620   23.7740 N   0  0  0  0  0  0  0  0  0  0  0  0
  -26.0750  -38.3780   23.9300 H   0  0  0  0  0  0  0  0  0  0  0  0
  1  2  1  0
  3  1  1  0
  4  2  1  0
  5  7  1  0
  5  6  1  0
  5  3  1  0
  6 44  1  0
  6  4  1  0
  8  7  1  0
  9 14  1  0
 10 11  1  0
 10  9  1  0
 12 11  1  0
 12 19  1  0
 12 13  1  0
 14  8  1  0
 14 13  1  0
 15  8  2  0
 16 17  2  0
 17 36  1  0
 18 17  1  0
 18 21  1  0
 19 20  1  0
 19 16  1  0
 20 18  2  0
 21 22  1  0
 22 23  2  0
 24 27  1  0
 24 23  1  0
 25 24  2  0
 26 25  1  0
 26 21  2  0
 27 28  1  0
 28 33  2  0
 28 29  1  0
 29 30  2  0
 30 31  1  0
 31 35  1  0
 32 31  2  0
 33 32  1  0
 34 33  1  0
 36 37  1  0
 37 40  1  0
 37 39  1  0
 38 36  2  0
 41 42  1  0
 41 16  1  0
 43 41  1  0
 44 45  2  0
 46 45  1  0
 47 58  2  0
 48 46  1  0
 48 53  1  0
 49 57  1  0
 49 59  1  0
 50 56  1  0
 50 52  1  0
 51 57  1  0
 52 51  1  0
 53 52  2  0
 54 48  2  0
 55 54  1  0
 55 50  2  0
 56 49  1  0
 57 47  1  0
 59 61  2  0
 60 59  1  0
 62 60  1  0
 63 72  2  0
 63 68  1  0
 64 60  1  0
 64 68  1  0
 65 64  1  0
 66 67  1  0
 66 65  1  0
 67 63  1  0
 68 69  2  0
 69 70  1  0
 71 70  2  0
 72 71  1  0
 73 47  1  0
 73 78  1  0
 73 74  1  0
 74 77  1  1
 74 75  1  0
 76 74  1  0
 78 81  1  0
 79 83  1  0
 79 78  1  0
 80 79  2  0
 83 82  1  0
 85 86  1  0
 85 83  1  0
 85 84  1  0
M  ISO  4   7 100   8 100  45 101  46 101
M  END
>  <TORSDO>  (14) 
F 19

>  <SCORE>  (14) 
-15.251

>  <name>  (14) 
13

>  <ligand_id>  (14) 
13

>  <original_smiles>  (14) 
[H]c1c([H])c([H])c2c(c1[H])C([H])([H])C([H])([H])C([H])([H])C2([H])N([H])C(=O)C1([H])N(C(=O)C([H])(N([H])C(=O)C([H])(N([H])C([H])([H])[H])C([H])([H])[H])C(C([H])([H])[H])(C([H])([H])[H])C([H])([H])[H])C([H])([H])c2c([H])c(OC([H])([H])C([H])([H])C3([H])C([H])([H])C([H])([H])C([H])([H])C([H])([H])C3([H])C([H])([H])C(=O)N3C([H])([H])C([H])([H])C([H])([H])C([H])(n4nc(-c5c([H])c([H])c(Oc6c([H])c([H])c(F)c([H])c6F)c([H])c5[H])c(C(=O)N([H])[H])c4N([H])[H])C3([H])[H])c([H])c([H])c2C1([H])[H]

>  <smiles>  (14) 
[H]c1c([H])c([H])c2c(c1[H])C([H])([H])C([H])([H])C([H])([H])C2([H])N([H])C(=O)C1([H])N(C(=O)C([H])(N([H])C(=O)C([H])(N([H])C([H])([H])[H])C([H])([H])[H])C(C([H])([H])[H])(C([H])([H])[H])C([H])([H])[H])C([H])([H])c2c([H])c(OC([H])([H])C([H])([H])C3([H])C([H])([H])C([H])([H])C([H])([H])C([H])([H])C3([H])C([H])([H])C(=O)N3C([H])([H])C([H])([H])C([H])([H])C([H])(n4nc(-c5c([H])c([H])c(Oc6c([H])c([H])c(F)c([H])c6F)c([H])c5[H])c(C(=O)N([H])[H])c4N([H])[H])C3([H])[H])c([H])c([H])c2C1([H])[H]

$$$$
14:0:0
     RDKit          3D

 87 95  0  0  1  0  0  0  0  0999 V2000
  -30.4490  -19.6520   21.4770 C   0  0  0  0  0  2  0  0  0  0  0  0
  -28.5320  -20.5640   20.1450 C   0  0  0  0  0  2  0  0  0  0  0  0
  -30.9150  -21.1660   21.3380 C   0  0  0  0  0  2  0  0  0  0  0  0
  -29.6120  -19.0790   20.2970 C   0  0  0  0  0  3  0  0  0  0  0  0
  -28.9110  -22.3580   20.3170 C   0  0  0  0  0  3  0  0  0  0  0  0
  -29.8740  -22.2590   21.4520 N   0  0  0  0  0  4  0  0  0  0  0  0
  -30.3660  -23.1390   21.5190 H   0  0  0  0  0  0  0  0  0  0  0  0
  -29.3700  -22.1470   22.3190 H   0  0  0  0  0  0  0  0  0  0  0  0
  -29.3690  -17.1930   20.3880 C   0  0  0  0  0  2  0  0  0  0  0  0
  -30.2680  -15.6000   20.2000 C   0  0  0  0  0  0  0  0  0  0  0  0
  -30.3640  -13.0950   19.3310 C   0  0  0  0  0  2  0  0  0  0  0  0
  -29.4310  -12.8060   18.1220 C   0  0  0  0  0  2  0  0  0  0  0  0
  -28.0030  -12.4700   18.5870 C   0  0  0  0  0  2  0  0  0  0  0  0
  -27.5380  -13.4240   19.7110 C   0  0  0  0  0  3  0  0  0  0  0  0
  -28.5990  -13.6380   20.8100 C   0  0  0  0  0  2  0  0  0  0  0  0
  -29.7910  -14.2310   20.1700 N   0  0  0  0  0  0  0  0  0  0  0  0
  -31.4840  -15.5980   19.9390 O   0  0  0  0  0  0  0  0  0  0  0  0
  -25.1890  -13.9290   20.5470 C   0  0  0  0  0  0  0  0  0  0  0  0
  -24.1450  -13.1330   20.9270 C   0  0  0  0  0  0  0  0  0  0  0  0
  -24.6250  -11.7890   20.8590 C   0  0  0  0  0  0  0  0  0  0  0  0
  -26.2330  -13.0710   20.2540 N   0  0  0  0  0  0  0  0  0  0  0  0
  -25.9100  -11.7750   20.5110 N   0  0  0  0  0  0  0  0  0  0  0  0
  -23.9140  -10.5160   21.0440 C   0  0  0  0  0  0  0  0  0  0  0  0
  -24.3620   -9.5450   21.9670 C   0  0  0  0  0  3  0  0  0  0  0  0
  -23.6460   -8.3410   22.1430 C   0  0  0  0  0  3  0  0  0  0  0  0
  -22.4690   -8.0980   21.3950 C   0  0  0  0  0  0  0  0  0  0  0  0
  -22.0410   -9.0590   20.4620 C   0  0  0  0  0  3  0  0  0  0  0  0
  -22.7560  -10.2540   20.2840 C   0  0  0  0  0  3  0  0  0  0  0  0
  -21.7240   -6.9460   21.4800 O   0  0  0  0  0  0  0  0  0  0  0  0
  -21.6710   -6.2070   22.6350 C   0  0  0  0  0  0  0  0  0  0  0  0
  -21.2020   -6.7540   23.8490 C   0  0  0  0  0  3  0  0  0  0  0  0
  -21.0990   -5.9400   24.9940 C   0  0  0  0  0  3  0  0  0  0  0  0
  -21.4530   -4.5780   24.9260 C   0  0  0  0  0  0  0  0  0  0  0  0
  -21.9140   -4.0300   23.7160 C   0  0  0  0  0  3  0  0  0  0  0  0
  -22.0200   -4.8420   22.5730 C   0  0  0  0  0  0  0  0  0  0  0  0
  -22.4440   -4.3040   21.4050 F   0  0  0  0  0  0  0  0  0  0  0  0
  -21.3460   -3.7950   26.0250 F   0  0  0  0  0  0  0  0  0  0  0  0
  -22.7510  -13.5910   21.2360 C   0  0  0  0  0  0  0  0  0  0  0  0
  -22.0500  -12.8770   22.1100 N   0  0  0  0  0  0  0  0  0  0  0  0
  -22.2910  -14.6200   20.7400 O   0  0  0  0  0  0  0  0  0  0  0  0
  -22.4350  -12.0460   22.5350 H   0  0  0  0  0  0  0  0  0  0  0  0
  -21.1140  -13.1640   22.3580 H   0  0  0  0  0  0  0  0  0  0  0  0
  -25.3340  -15.3050   20.3930 N   0  0  0  0  0  0  0  0  0  0  0  0
  -24.5670  -15.9510   20.5460 H   0  0  0  0  0  0  0  0  0  0  0  0
  -26.1730  -15.7600   20.0600 H   0  0  0  0  0  0  0  0  0  0  0  0
  -27.9360  -23.9960   20.3540 C   0  0  0  0  0  2  0  0  0  0  0  0
  -28.1600  -25.7080   20.3860 O   0  0  0  0  0  0  0  0  0  0  0  0
  -24.6400  -31.9250   23.2630 C   0  0  0  0  0  0  0  0  0  0  0  0
  -27.1720  -26.8800   20.3260 C   0  0  0  0  0  0  0  0  0  0  0  0
  -23.4530  -30.5200   21.6310 C   0  0  0  0  0  3  0  0  0  0  0  0
  -24.9010  -28.8700   20.2390 C   0  0  0  0  0  0  0  0  0  0  0  0
  -26.0290  -30.6750   21.5150 C   0  0  0  0  0  2  0  0  0  0  0  0
  -26.0930  -29.2450   20.8710 C   0  0  0  0  0  0  0  0  0  0  0  0
  -27.2170  -28.2760   20.8810 C   0  0  0  0  0  3  0  0  0  0  0  0
  -25.9470  -26.6940   19.6410 C   0  0  0  0  0  3  0  0  0  0  0  0
  -24.8620  -27.6180   19.6000 C   0  0  0  0  0  3  0  0  0  0  0  0
  -23.6950  -29.8160   20.2660 C   0  0  0  0  0  2  0  0  0  0  0  0
  -24.7300  -31.0710   22.1890 N   0  0  0  0  0  0  0  0  0  0  0  0
  -23.5460  -32.2310   23.7690 O   0  0  0  0  0  0  0  0  0  0  0  0
  -22.7330  -29.5480   22.6040 C   0  0  0  0  0  0  0  0  0  0  0  0
  -21.4040  -29.3890   22.4660 N   0  0  0  0  0  0  0  0  0  0  0  0
  -23.3830  -28.9330   23.4530 O   0  0  0  0  0  0  0  0  0  0  0  0
  -20.9310  -29.9340   21.7600 H   0  0  0  0  0  0  0  0  0  0  0  0
  -18.0110  -28.1870   22.9560 C   0  0  0  0  0  0  0  0  0  0  0  0
  -20.5680  -28.4620   23.2410 C   0  0  0  0  0  3  0  0  0  0  0  0
  -20.6760  -27.0220   22.6850 C   0  0  0  0  0  2  0  0  0  0  0  0
  -19.5860  -26.6850   21.6640 C   0  0  0  0  0  2  0  0  0  0  0  0
  -18.1970  -26.8330   22.2930 C   0  0  0  0  0  2  0  0  0  0  0  0
  -19.1240  -28.9580   23.3870 C   0  0  0  0  0  0  0  0  0  0  0  0
  -18.8920  -30.2230   23.9710 C   0  0  0  0  0  3  0  0  0  0  0  0
  -17.5830  -30.7160   24.1270 C   0  0  0  0  0  3  0  0  0  0  0  0
  -16.4860  -29.9430   23.7100 C   0  0  0  0  0  3  0  0  0  0  0  0
  -16.7000  -28.6800   23.1300 C   0  0  0  0  0  3  0  0  0  0  0  0
  -25.9040  -32.5710   23.9050 C   0  0  0  0  0  3  0  0  0  0  0  0
  -25.5870  -33.9760   24.2300 N   0  0  0  0  0  0  0  0  0  0  0  0
  -25.9000  -35.0330   23.4690 C   0  0  0  0  0  0  0  0  0  0  0  0
  -26.5460  -34.9300   22.4230 O   0  0  0  0  0  0  0  0  0  0  0  0
  -25.0080  -34.1280   25.0430 H   0  0  0  0  0  0  0  0  0  0  0  0
  -24.1480  -36.8220   23.1830 C   0  0  0  0  0  1  0  0  0  0  0  0
  -25.4260  -36.4250   23.9400 C   0  0  0  0  0  3  0  0  0  0  0  0
  -27.5850  -37.3390   24.6750 C   0  0  0  0  0  1  0  0  0  0  0  0
  -26.4460  -37.4840   23.7730 N   0  0  0  0  0  0  0  0  0  0  0  0
  -26.0380  -38.4030   23.9220 H   0  0  0  0  0  0  0  0  0  0  0  0
  -26.3930  -31.8180   25.2040 C   0  0  1  0  0  0  0  0  0  0  0  0
  -25.2800  -31.6010   26.2560 C   0  0  0  0  0  1  0  0  0  0  0  0
  -26.9770  -30.4300   24.8540 C   0  0  0  0  0  1  0  0  0  0  0  0
  -27.5350  -32.6170   25.8750 C   0  0  0  0  0  1  0  0  0  0  0  0
  2  4  1  0
  2  5  1  0
  3  6  1  0
  3  1  1  0
  4  9  1  0
  4  1  1  0
  5 46  1  0
  5  6  1  0
  6  7  1  0
  6  8  1  0
 10  9  1  0
 11 16  1  0
 12 13  1  0
 12 11  1  0
 14 13  1  0
 14 21  1  0
 14 15  1  0
 16 10  1  0
 16 15  1  0
 17 10  2  0
 18 19  2  0
 19 38  1  0
 20 19  1  0
 20 23  1  0
 21 22  1  0
 21 18  1  0
 22 20  2  0
 23 24  1  0
 24 25  2  0
 26 29  1  0
 26 25  1  0
 27 26  2  0
 28 27  1  0
 28 23  2  0
 29 30  1  0
 30 31  1  0
 31 32  2  0
 33 32  1  0
 33 37  1  0
 34 33  2  0
 35 30  2  0
 35 34  1  0
 36 35  1  0
 38 39  1  0
 39 42  1  0
 39 41  1  0
 40 38  2  0
 43 44  1  0
 43 18  1  0
 45 43  1  0
 46 47  1  0
 48 59  2  0
 49 47  1  0
 49 54  1  0
 50 58  1  0
 50 60  1  0
 51 57  1  0
 51 53  1  0
 52 58  1  0
 53 54  2  0
 53 52  1  0
 55 49  2  0
 56 55  1  0
 56 51  2  0
 57 50  1  0
 58 48  1  0
 60 62  2  0
 61 60  1  0
 63 61  1  0
 64 73  2  0
 64 69  1  0
 65 61  1  0
 65 69  1  0
 66 65  1  0
 67 68  1  0
 67 66  1  0
 68 64  1  0
 69 70  2  0
 70 71  1  0
 72 71  2  0
 73 72  1  0
 74 48  1  0
 74 75  1  0
 74 84  1  0
 75 78  1  0
 76 80  1  0
 76 75  1  0
 77 76  2  0
 80 79  1  0
 82 83  1  0
 82 80  1  0
 82 81  1  0
 84 87  1  1
 84 85  1  0
 86 84  1  0
M  ISO  4   9 100  10 100  46 101  47 101
M  END
>  <TORSDO>  (15) 
F 18

>  <SCORE>  (15) 
-16.591

>  <name>  (15) 
14

>  <ligand_id>  (15) 
14

>  <original_smiles>  (15) 
[H]c1c([H])c([H])c2c(c1[H])C([H])([H])C([H])([H])C([H])([H])C2([H])N([H])C(=O)C1([H])N(C(=O)C([H])(N([H])C(=O)C([H])(N([H])C([H])([H])[H])C([H])([H])[H])C(C([H])([H])[H])(C([H])([H])[H])C([H])([H])[H])C([H])([H])c2c([H])c(OC([H])([H])C3([H])C([H])([H])C([H])(C([H])([H])C(=O)N4C([H])([H])C([H])([H])C([H])([H])C([H])(n5nc(-c6c([H])c([H])c(Oc7c([H])c([H])c(F)c([H])c7F)c([H])c6[H])c(C(=O)N([H])[H])c5N([H])[H])C4([H])[H])C([H])([H])C([H])([H])[N+]3([H])[H])c([H])c([H])c2C1([H])[H]

>  <smiles>  (15) 
[H]c1c([H])c([H])c2c(c1[H])C([H])([H])C([H])([H])C([H])([H])C2([H])N([H])C(=O)C1([H])N(C(=O)C([H])(N([H])C(=O)C([H])(N([H])C([H])([H])[H])C([H])([H])[H])C(C([H])([H])[H])(C([H])([H])[H])C([H])([H])[H])C([H])([H])c2c([H])c(OC([H])([H])C3([H])C([H])([H])C([H])(C([H])([H])C(=O)N4C([H])([H])C([H])([H])C([H])([H])C([H])(n5nc(-c6c([H])c([H])c(Oc7c([H])c([H])c(F)c([H])c7F)c([H])c6[H])c(C(=O)N([H])[H])c5N([H])[H])C4([H])[H])C([H])([H])C([H])([H])[N+]3([H])[H])c([H])c([H])c2C1([H])[H]

$$$$
15:0:0
     RDKit          3D

 91 99  0  0  1  0  0  0  0  0999 V2000
  -27.3500  -22.4450   22.2020 C   0  0  0  0  0  2  0  0  0  0  0  0
  -27.2540  -23.7180   21.3700 C   0  0  0  0  0  2  0  0  0  0  0  0
  -28.7910  -21.9880   22.0110 C   0  0  0  0  0  2  0  0  0  0  0  0
  -28.1630  -23.5210   20.1430 C   0  0  0  0  0  3  0  0  0  0  0  0
  -29.1070  -22.1580   20.5110 C   0  0  0  0  0  3  0  0  0  0  0  0
  -27.6430  -20.4110   19.1850 C   0  0  0  0  0  1  0  0  0  0  0  0
  -29.0530  -20.6320   19.7740 C   0  0  0  0  0  3  0  0  0  0  0  0
  -29.5120  -19.3140   20.5400 N   0  0  0  0  0  4  0  0  0  0  0  0
  -28.7380  -19.0580   21.1300 H   0  0  0  0  0  0  0  0  0  0  0  0
  -30.2410  -19.6060   21.1700 H   0  0  0  0  0  0  0  0  0  0  0  0
  -29.5120  -17.7290   18.4770 C   0  0  0  0  0  1  0  0  0  0  0  0
  -30.0630  -17.9670   19.8960 C   0  0  0  0  0  3  0  0  0  0  0  0
  -30.0040  -16.5130   20.7320 C   0  0  0  0  0  2  0  0  0  0  0  0
  -30.7850  -15.1120   20.3310 C   0  0  0  0  0  0  0  0  0  0  0  0
  -30.6840  -12.7590   19.4040 C   0  0  0  0  0  2  0  0  0  0  0  0
  -29.7730  -12.7440   18.1550 C   0  0  0  0  0  2  0  0  0  0  0  0
  -28.2970  -12.5540   18.5560 C   0  0  0  0  0  2  0  0  0  0  0  0
  -27.8800  -13.4810   19.7280 C   0  0  0  0  0  3  0  0  0  0  0  0
  -28.9140  -13.4600   20.8740 C   0  0  0  0  0  2  0  0  0  0  0  0
  -30.2100  -13.8470   20.3030 N   0  0  0  0  0  0  0  0  0  0  0  0
  -31.9680  -15.1880   19.9760 O   0  0  0  0  0  0  0  0  0  0  0  0
  -25.4840  -14.0830   20.4090 C   0  0  0  0  0  0  0  0  0  0  0  0
  -24.4110  -13.3150   20.7700 C   0  0  0  0  0  0  0  0  0  0  0  0
  -24.8730  -11.9630   20.7690 C   0  0  0  0  0  0  0  0  0  0  0  0
  -26.5300  -13.1980   20.2010 N   0  0  0  0  0  0  0  0  0  0  0  0
  -26.1690  -11.9190   20.4840 N   0  0  0  0  0  0  0  0  0  0  0  0
  -24.1400  -10.7030   20.9630 C   0  0  0  0  0  0  0  0  0  0  0  0
  -24.5400   -9.7560   21.9310 C   0  0  0  0  0  3  0  0  0  0  0  0
  -23.8060   -8.5640   22.1130 C   0  0  0  0  0  3  0  0  0  0  0  0
  -22.6570   -8.3110   21.3250 C   0  0  0  0  0  0  0  0  0  0  0  0
  -22.2770   -9.2460   20.3480 C   0  0  0  0  0  3  0  0  0  0  0  0
  -23.0120  -10.4290   20.1640 C   0  0  0  0  0  3  0  0  0  0  0  0
  -21.9000   -7.1680   21.4140 O   0  0  0  0  0  0  0  0  0  0  0  0
  -21.8010   -6.4580   22.5830 C   0  0  0  0  0  0  0  0  0  0  0  0
  -21.3100   -7.0420   23.7710 C   0  0  0  0  0  3  0  0  0  0  0  0
  -21.1590   -6.2570   24.9320 C   0  0  0  0  0  3  0  0  0  0  0  0
  -21.4910   -4.8900   24.9060 C   0  0  0  0  0  0  0  0  0  0  0  0
  -21.9740   -4.3040   23.7210 C   0  0  0  0  0  3  0  0  0  0  0  0
  -22.1250   -5.0850   22.5630 C   0  0  0  0  0  0  0  0  0  0  0  0
  -22.5710   -4.5120   21.4190 F   0  0  0  0  0  0  0  0  0  0  0  0
  -21.3390   -4.1330   26.0170 F   0  0  0  0  0  0  0  0  0  0  0  0
  -23.0090  -13.7980   21.0060 C   0  0  0  0  0  0  0  0  0  0  0  0
  -22.2670  -13.1210   21.8750 N   0  0  0  0  0  0  0  0  0  0  0  0
  -22.5810  -14.8100   20.4540 O   0  0  0  0  0  0  0  0  0  0  0  0
  -22.6270  -12.3030   22.3440 H   0  0  0  0  0  0  0  0  0  0  0  0
  -21.3270  -13.4300   22.0800 H   0  0  0  0  0  0  0  0  0  0  0  0
  -25.6580  -15.4500   20.2150 N   0  0  0  0  0  0  0  0  0  0  0  0
  -24.8940  -16.1120   20.3040 H   0  0  0  0  0  0  0  0  0  0  0  0
  -26.5120  -15.8710   19.8730 H   0  0  0  0  0  0  0  0  0  0  0  0
  -28.6360  -25.0400   19.6190 C   0  0  0  0  0  2  0  0  0  0  0  0
  -28.4680  -26.4450   20.2410 O   0  0  0  0  0  0  0  0  0  0  0  0
  -24.7300  -31.9490   23.2650 C   0  0  0  0  0  0  0  0  0  0  0  0
  -27.3640  -27.3490   20.1420 C   0  0  0  0  0  0  0  0  0  0  0  0
  -23.5360  -30.5550   21.6180 C   0  0  0  0  0  3  0  0  0  0  0  0
  -24.9950  -29.0210   20.1520 C   0  0  0  0  0  0  0  0  0  0  0  0
  -26.0770  -30.8720   21.4290 C   0  0  0  0  0  2  0  0  0  0  0  0
  -26.1650  -29.4920   20.7590 C   0  0  0  0  0  0  0  0  0  0  0  0
  -27.3450  -28.6680   20.7410 C   0  0  0  0  0  3  0  0  0  0  0  0
  -26.1700  -26.9610   19.4990 C   0  0  0  0  0  3  0  0  0  0  0  0
  -25.0080  -27.7700   19.5090 C   0  0  0  0  0  3  0  0  0  0  0  0
  -23.7510  -29.8950   20.2270 C   0  0  0  0  0  2  0  0  0  0  0  0
  -24.8010  -31.1480   22.1580 N   0  0  0  0  0  0  0  0  0  0  0  0
  -23.6450  -32.2080   23.8090 O   0  0  0  0  0  0  0  0  0  0  0  0
  -22.8860  -29.5250   22.5740 C   0  0  0  0  0  0  0  0  0  0  0  0
  -21.5640  -29.3170   22.4410 N   0  0  0  0  0  0  0  0  0  0  0  0
  -23.5730  -28.9140   23.3980 O   0  0  0  0  0  0  0  0  0  0  0  0
  -21.0680  -29.8550   21.7440 H   0  0  0  0  0  0  0  0  0  0  0  0
  -18.2200  -28.0150   22.9170 C   0  0  0  0  0  0  0  0  0  0  0  0
  -20.7650  -28.3550   23.2040 C   0  0  0  0  0  3  0  0  0  0  0  0
  -20.9170  -26.9270   22.6290 C   0  0  0  0  0  2  0  0  0  0  0  0
  -19.8330  -26.5710   21.6070 C   0  0  0  0  0  2  0  0  0  0  0  0
  -18.4440  -26.6720   22.2420 C   0  0  0  0  0  2  0  0  0  0  0  0
  -19.3090  -28.8120   23.3550 C   0  0  0  0  0  0  0  0  0  0  0  0
  -19.0440  -30.0650   23.9500 C   0  0  0  0  0  3  0  0  0  0  0  0
  -17.7230  -30.5240   24.1060 C   0  0  0  0  0  3  0  0  0  0  0  0
  -16.6480  -29.7240   23.6820 C   0  0  0  0  0  3  0  0  0  0  0  0
  -16.8960  -28.4690   23.0950 C   0  0  0  0  0  3  0  0  0  0  0  0
  -26.0040  -32.5970   23.8900 C   0  0  0  0  0  3  0  0  0  0  0  0
  -25.6860  -33.9980   24.2070 N   0  0  0  0  0  0  0  0  0  0  0  0
  -26.0280  -35.0500   23.4510 C   0  0  0  0  0  0  0  0  0  0  0  0
  -26.7110  -34.9410   22.4290 O   0  0  0  0  0  0  0  0  0  0  0  0
  -25.0780  -34.1560   24.9970 H   0  0  0  0  0  0  0  0  0  0  0  0
  -24.3110  -36.8480   23.0590 C   0  0  0  0  0  1  0  0  0  0  0  0
  -25.5350  -36.4420   23.8950 C   0  0  0  0  0  3  0  0  0  0  0  0
  -27.6550  -37.3260   24.7660 C   0  0  0  0  0  1  0  0  0  0  0  0
  -26.5730  -37.4930   23.7990 N   0  0  0  0  0  0  0  0  0  0  0  0
  -26.1660  -38.4150   23.9290 H   0  0  0  0  0  0  0  0  0  0  0  0
  -26.5130  -31.8450   25.1810 C   0  0  1  0  0  0  0  0  0  0  0  0
  -25.4120  -31.6170   26.2440 C   0  0  0  0  0  1  0  0  0  0  0  0
  -27.1030  -30.4640   24.8160 C   0  0  0  0  0  1  0  0  0  0  0  0
  -27.6560  -32.6500   25.8410 C   0  0  0  0  0  1  0  0  0  0  0  0
  2  1  1  0
  3  1  1  0
  4 50  1  0
  4  5  1  0
  4  2  1  0
  5  7  1  0
  5  3  1  0
  7  6  1  0
  7  8  1  0
  8  9  1  0
  8 10  1  0
 12 11  1  0
 12  8  1  0
 12 13  1  0
 14 13  1  0
 15 20  1  0
 16 17  1  0
 16 15  1  0
 18 17  1  0
 18 25  1  0
 18 19  1  0
 20 14  1  0
 20 19  1  0
 21 14  2  0
 22 23  2  0
 23 42  1  0
 24 23  1  0
 24 27  1  0
 25 22  1  0
 25 26  1  0
 26 24  2  0
 27 28  1  0
 28 29  2  0
 30 33  1  0
 30 29  1  0
 31 30  2  0
 32 31  1  0
 32 27  2  0
 33 34  1  0
 34 35  1  0
 35 36  2  0
 37 36  1  0
 37 41  1  0
 38 37  2  0
 39 34  2  0
 39 38  1  0
 40 39  1  0
 42 43  1  0
 43 46  1  0
 43 45  1  0
 44 42  2  0
 47 48  1  0
 47 22  1  0
 49 47  1  0
 50 51  1  0
 52 63  2  0
 53 51  1  0
 53 58  1  0
 54 62  1  0
 54 64  1  0
 55 61  1  0
 55 57  1  0
 56 62  1  0
 57 56  1  0
 58 57  2  0
 59 60  1  0
 59 53  2  0
 60 55  2  0
 61 54  1  0
 62 52  1  0
 64 66  2  0
 65 64  1  0
 67 65  1  0
 68 77  2  0
 68 73  1  0
 69 65  1  0
 69 73  1  0
 70 69  1  0
 71 72  1  0
 71 70  1  0
 72 68  1  0
 73 74  2  0
 74 75  1  0
 76 75  2  0
 77 76  1  0
 78 52  1  0
 78 79  1  0
 78 88  1  0
 79 82  1  0
 80 84  1  0
 80 79  1  0
 81 80  2  0
 84 83  1  0
 86 84  1  0
 86 87  1  0
 86 85  1  0
 88 91  1  1
 88 89  1  0
 90 88  1  0
M  ISO  4  13 100  14 100  50 101  51 101
M  END
>  <TORSDO>  (16) 
F 21

>  <SCORE>  (16) 
-13.189

>  <name>  (16) 
15

>  <ligand_id>  (16) 
15

>  <original_smiles>  (16) 
[H]c1c([H])c([H])c2c(c1[H])C([H])([H])C([H])([H])C([H])([H])C2([H])N([H])C(=O)C1([H])N(C(=O)C([H])(N([H])C(=O)C([H])(N([H])C([H])([H])[H])C([H])([H])[H])C(C([H])([H])[H])(C([H])([H])[H])C([H])([H])[H])C([H])([H])c2c([H])c(OC([H])([H])C3([H])C([H])([H])C([H])([H])C([H])([H])C3([H])C([H])(C([H])([H])[H])[N+]([H])([H])C([H])(C([H])([H])[H])C([H])([H])C(=O)N3C([H])([H])C([H])([H])C([H])([H])C([H])(n4nc(-c5c([H])c([H])c(Oc6c([H])c([H])c(F)c([H])c6F)c([H])c5[H])c(C(=O)N([H])[H])c4N([H])[H])C3([H])[H])c([H])c([H])c2C1([H])[H]

>  <smiles>  (16) 
[H]c1c([H])c([H])c2c(c1[H])C([H])([H])C([H])([H])C([H])([H])C2([H])N([H])C(=O)C1([H])N(C(=O)C([H])(N([H])C(=O)C([H])(N([H])C([H])([H])[H])C([H])([H])[H])C(C([H])([H])[H])(C([H])([H])[H])C([H])([H])[H])C([H])([H])c2c([H])c(OC([H])([H])C3([H])C([H])([H])C([H])([H])C([H])([H])C3([H])C([H])(C([H])([H])[H])[N+]([H])([H])C([H])(C([H])([H])[H])C([H])([H])C(=O)N3C([H])([H])C([H])([H])C([H])([H])C([H])(n4nc(-c5c([H])c([H])c(Oc6c([H])c([H])c(F)c([H])c6F)c([H])c5[H])c(C(=O)N([H])[H])c4N([H])[H])C3([H])[H])c([H])c([H])c2C1([H])[H]

$$$$
16:0:0
     RDKit          3D

 88 97  0  0  1  0  0  0  0  0999 V2000
  -29.5810  -20.9040   20.3960 C   0  0  0  0  0  0  0  0  0  0  0  0
  -29.0820  -22.3800   20.4410 C   0  0  0  0  0  0  0  0  0  0  0  0
  -31.0300  -20.8690   20.8730 C   0  0  0  0  0  2  0  0  0  0  0  0
  -29.5870  -19.1400   19.8020 C   0  0  0  0  0  3  0  0  0  0  0  0
  -31.8390  -20.1050   19.8340 C   0  0  0  0  0  3  0  0  0  0  0  0
  -30.9550  -19.1260   19.1040 C   0  0  0  0  0  3  0  0  0  0  0  0
  -31.7010  -20.2120   18.3200 C   0  0  2  0  0  0  0  0  0  0  0  0
  -32.9030  -19.8070   17.4750 C   0  0  0  0  0  1  0  0  0  0  0  0
  -30.9940  -21.3400   17.5720 C   0  0  0  0  0  1  0  0  0  0  0  0
  -28.0200  -23.8280   20.0500 C   0  0  0  0  0  3  0  0  0  0  0  0
  -28.1710  -25.5590   20.2950 O   0  0  0  0  0  0  0  0  0  0  0  0
  -24.6450  -31.8250   23.2040 C   0  0  0  0  0  0  0  0  0  0  0  0
  -27.1810  -26.7490   20.2300 C   0  0  0  0  0  0  0  0  0  0  0  0
  -23.4540  -30.4080   21.5860 C   0  0  0  0  0  3  0  0  0  0  0  0
  -24.8970  -28.7560   20.1780 C   0  0  0  0  0  0  0  0  0  0  0  0
  -26.0310  -30.5630   21.4470 C   0  0  0  0  0  2  0  0  0  0  0  0
  -26.0950  -29.1280   20.8000 C   0  0  0  0  0  0  0  0  0  0  0  0
  -27.2210  -28.1520   20.7920 C   0  0  0  0  0  3  0  0  0  0  0  0
  -25.9450  -26.5810   19.5530 C   0  0  0  0  0  3  0  0  0  0  0  0
  -24.8600  -27.5080   19.5310 C   0  0  0  0  0  3  0  0  0  0  0  0
  -23.6860  -29.7000   20.2210 C   0  0  0  0  0  2  0  0  0  0  0  0
  -24.7340  -30.9640   22.1330 N   0  0  0  0  0  0  0  0  0  0  0  0
  -23.5550  -32.1270   23.7160 O   0  0  0  0  0  0  0  0  0  0  0  0
  -22.7440  -29.4380   22.5700 C   0  0  0  0  0  0  0  0  0  0  0  0
  -21.4120  -29.2840   22.4530 N   0  0  0  0  0  0  0  0  0  0  0  0
  -23.4030  -28.8260   23.4110 O   0  0  0  0  0  0  0  0  0  0  0  0
  -20.9310  -29.8300   21.7530 H   0  0  0  0  0  0  0  0  0  0  0  0
  -18.0270  -28.0650   22.9780 C   0  0  0  0  0  0  0  0  0  0  0  0
  -20.5850  -28.3560   23.2370 C   0  0  0  0  0  3  0  0  0  0  0  0
  -20.6940  -26.9150   22.6850 C   0  0  0  0  0  2  0  0  0  0  0  0
  -19.5960  -26.5700   21.6750 C   0  0  0  0  0  2  0  0  0  0  0  0
  -18.2130  -26.7110   22.3150 C   0  0  0  0  0  2  0  0  0  0  0  0
  -19.1390  -28.8450   23.3940 C   0  0  0  0  0  0  0  0  0  0  0  0
  -18.9050  -30.1080   23.9800 C   0  0  0  0  0  3  0  0  0  0  0  0
  -17.5940  -30.5940   24.1480 C   0  0  0  0  0  3  0  0  0  0  0  0
  -16.4970  -29.8120   23.7450 C   0  0  0  0  0  3  0  0  0  0  0  0
  -16.7140  -28.5500   23.1660 C   0  0  0  0  0  3  0  0  0  0  0  0
  -25.9120  -32.4830   23.8320 C   0  0  0  0  0  3  0  0  0  0  0  0
  -25.5840  -33.8820   24.1710 N   0  0  0  0  0  0  0  0  0  0  0  0
  -25.8960  -34.9520   23.4280 C   0  0  0  0  0  0  0  0  0  0  0  0
  -26.5490  -34.8660   22.3850 O   0  0  0  0  0  0  0  0  0  0  0  0
  -25.0010  -34.0200   24.9840 H   0  0  0  0  0  0  0  0  0  0  0  0
  -24.1470  -36.7430   23.1430 C   0  0  0  0  0  1  0  0  0  0  0  0
  -25.4140  -36.3360   23.9110 C   0  0  0  0  0  3  0  0  0  0  0  0
  -27.5650  -37.2380   24.6880 C   0  0  0  0  0  1  0  0  0  0  0  0
  -26.4340  -37.4010   23.7770 N   0  0  0  0  0  0  0  0  0  0  0  0
  -26.0250  -38.3170   23.9400 H   0  0  0  0  0  0  0  0  0  0  0  0
  -26.4220  -31.7280   25.1220 C   0  0  1  0  0  0  0  0  0  0  0  0
  -25.3250  -31.5010   26.1900 C   0  0  0  0  0  1  0  0  0  0  0  0
  -27.0100  -30.3460   24.7610 C   0  0  0  0  0  1  0  0  0  0  0  0
  -27.5700  -32.5310   25.7780 C   0  0  0  0  0  1  0  0  0  0  0  0
  -29.6230  -17.3470   20.5340 C   0  0  0  0  0  2  0  0  0  0  0  0
  -30.3060  -15.6310   20.2070 C   0  0  0  0  0  0  0  0  0  0  0  0
  -30.3500  -13.0750   19.4220 C   0  0  0  0  0  2  0  0  0  0  0  0
  -29.4550  -12.7600   18.1900 C   0  0  0  0  0  2  0  0  0  0  0  0
  -28.0250  -12.4190   18.6250 C   0  0  0  0  0  2  0  0  0  0  0  0
  -27.5380  -13.3930   19.7230 C   0  0  0  0  0  3  0  0  0  0  0  0
  -28.5730  -13.6730   20.8390 C   0  0  0  0  0  2  0  0  0  0  0  0
  -29.7790  -14.2630   20.2060 N   0  0  0  0  0  0  0  0  0  0  0  0
  -31.5150  -15.5370   19.9230 O   0  0  0  0  0  0  0  0  0  0  0  0
  -25.1720  -13.9280   20.4830 C   0  0  0  0  0  0  0  0  0  0  0  0
  -24.1120  -13.1500   20.8480 C   0  0  0  0  0  0  0  0  0  0  0  0
  -24.5810  -11.7990   20.8250 C   0  0  0  0  0  0  0  0  0  0  0  0
  -26.2170  -13.0560   20.2430 N   0  0  0  0  0  0  0  0  0  0  0  0
  -25.8750  -11.7660   20.5160 N   0  0  0  0  0  0  0  0  0  0  0  0
  -23.8510  -10.5370   21.0170 C   0  0  0  0  0  0  0  0  0  0  0  0
  -24.2820   -9.5660   21.9490 C   0  0  0  0  0  3  0  0  0  0  0  0
  -23.5480   -8.3730   22.1330 C   0  0  0  0  0  3  0  0  0  0  0  0
  -22.3700   -8.1430   21.3820 C   0  0  0  0  0  0  0  0  0  0  0  0
  -21.9620   -9.1000   20.4360 C   0  0  0  0  0  3  0  0  0  0  0  0
  -22.6970  -10.2830   20.2520 C   0  0  0  0  0  3  0  0  0  0  0  0
  -21.6080   -7.0010   21.4700 O   0  0  0  0  0  0  0  0  0  0  0  0
  -21.5630   -6.2530   22.6200 C   0  0  0  0  0  0  0  0  0  0  0  0
  -21.1550   -6.8070   23.8530 C   0  0  0  0  0  3  0  0  0  0  0  0
  -21.0570   -5.9880   24.9950 C   0  0  0  0  0  3  0  0  0  0  0  0
  -21.3570   -4.6150   24.9060 C   0  0  0  0  0  0  0  0  0  0  0  0
  -21.7570   -4.0600   23.6790 C   0  0  0  0  0  3  0  0  0  0  0  0
  -21.8570   -4.8770   22.5390 C   0  0  0  0  0  0  0  0  0  0  0  0
  -22.2250   -4.3320   21.3540 F   0  0  0  0  0  0  0  0  0  0  0  0
  -21.2590   -3.8280   26.0030 F   0  0  0  0  0  0  0  0  0  0  0  0
  -22.7110  -13.6250   21.1080 C   0  0  0  0  0  0  0  0  0  0  0  0
  -21.9810  -12.9340   21.9740 N   0  0  0  0  0  0  0  0  0  0  0  0
  -22.2750  -14.6450   20.5760 O   0  0  0  0  0  0  0  0  0  0  0  0
  -22.3540  -12.1110   22.4240 H   0  0  0  0  0  0  0  0  0  0  0  0
  -21.0420  -13.2320   22.1930 H   0  0  0  0  0  0  0  0  0  0  0  0
  -25.3380  -15.3000   20.3040 N   0  0  0  0  0  0  0  0  0  0  0  0
  -24.5750  -15.9610   20.4090 H   0  0  0  0  0  0  0  0  0  0  0  0
  -26.1930  -15.7360   19.9820 H   0  0  0  0  0  0  0  0  0  0  0  0
  1  2  2  0
  1  3  1  0
  4  1  1  0
  4 52  1  0
  5  3  1  0
  6  7  1  0
  6  4  1  0
  6  5  1  0
  7  5  1  0
  7  8  1  6
  9  7  1  0
 10 11  1  0
 10  2  2  0
 12 23  2  0
 13 11  1  0
 13 18  1  0
 14 22  1  0
 14 24  1  0
 15 21  1  0
 15 17  1  0
 16 22  1  0
 17 16  1  0
 18 17  2  0
 19 13  2  0
 20 19  1  0
 20 15  2  0
 21 14  1  0
 22 12  1  0
 24 26  2  0
 25 24  1  0
 27 25  1  0
 28 37  2  0
 28 33  1  0
 29 25  1  0
 29 33  1  0
 30 29  1  0
 31 32  1  0
 31 30  1  0
 32 28  1  0
 33 34  2  0
 34 35  1  0
 36 35  2  0
 37 36  1  0
 38 12  1  0
 38 39  1  0
 38 48  1  0
 39 42  1  0
 40 44  1  0
 40 39  1  0
 41 40  2  0
 44 43  1  0
 46 44  1  0
 46 47  1  0
 46 45  1  0
 48 51  1  1
 48 49  1  0
 50 48  1  0
 53 52  1  0
 54 59  1  0
 55 56  1  0
 55 54  1  0
 57 56  1  0
 57 64  1  0
 57 58  1  0
 59 53  1  0
 59 58  1  0
 60 53  2  0
 61 62  2  0
 62 81  1  0
 63 62  1  0
 63 66  1  0
 64 61  1  0
 64 65  1  0
 65 63  2  0
 66 67  1  0
 67 68  2  0
 69 72  1  0
 69 68  1  0
 70 69  2  0
 71 70  1  0
 71 66  2  0
 72 73  1  0
 73 74  1  0
 74 75  2  0
 76 75  1  0
 76 80  1  0
 77 76  2  0
 78 73  2  0
 78 77  1  0
 79 78  1  0
 81 82  1  0
 82 85  1  0
 82 84  1  0
 83 81  2  0
 86 87  1  0
 86 61  1  0
 88 86  1  0
M  ISO  4  10 101  11 101  52 100  53 100
M  END
>  <TORSDO>  (17) 
F 18

>  <SCORE>  (17) 
-16.500

>  <name>  (17) 
16

>  <ligand_id>  (17) 
16

>  <original_smiles>  (17) 
[H]C(=C1C([H])([H])C2([H])C([H])(C1([H])C([H])([H])C(=O)N1C([H])([H])C([H])([H])C([H])([H])C([H])(n3nc(-c4c([H])c([H])c(Oc5c([H])c([H])c(F)c([H])c5F)c([H])c4[H])c(C(=O)N([H])[H])c3N([H])[H])C1([H])[H])C2(C([H])([H])[H])C([H])([H])[H])C([H])([H])Oc1c([H])c([H])c2c(c1[H])C([H])([H])N(C(=O)C([H])(N([H])C(=O)C([H])(N([H])C([H])([H])[H])C([H])([H])[H])C(C([H])([H])[H])(C([H])([H])[H])C([H])([H])[H])C([H])(C(=O)N([H])C1([H])c3c([H])c([H])c([H])c([H])c3C([H])([H])C([H])([H])C1([H])[H])C2([H])[H]

>  <smiles>  (17) 
[H]C(=C1C([H])([H])C2([H])C([H])(C1([H])C([H])([H])C(=O)N1C([H])([H])C([H])([H])C([H])([H])C([H])(n3nc(-c4c([H])c([H])c(Oc5c([H])c([H])c(F)c([H])c5F)c([H])c4[H])c(C(=O)N([H])[H])c3N([H])[H])C1([H])[H])C2(C([H])([H])[H])C([H])([H])[H])C([H])([H])Oc1c([H])c([H])c2c(c1[H])C([H])([H])N(C(=O)C([H])(N([H])C(=O)C([H])(N([H])C([H])([H])[H])C([H])([H])[H])C(C([H])([H])[H])(C([H])([H])[H])C([H])([H])[H])C([H])(C(=O)N([H])C1([H])c3c([H])c([H])c([H])c([H])c3C([H])([H])C([H])([H])C1([H])[H])C2([H])[H]

$$$$
17:0:0
     RDKit          3D

 87 95  0  0  1  0  0  0  0  0999 V2000
  -30.2080  -23.8100   19.3390 C   0  0  0  0  0  2  0  0  0  0  0  0
  -29.2150  -23.1410   19.9630 C   0  0  0  0  0  0  0  0  0  0  0  0
  -30.1130  -20.9770   18.7910 C   0  0  0  0  0  2  0  0  0  0  0  0
  -28.8950  -20.0560   18.7210 C   0  0  0  0  0  2  0  0  0  0  0  0
  -29.6210  -21.4320   20.1980 C   0  0  0  0  0  3  0  0  0  0  0  0
  -29.0560  -19.8530   20.1430 N   0  0  2  0  0  4  0  0  0  0  0  0
  -28.1650  -19.7890   20.6090 H   0  0  0  0  0  0  0  0  0  0  0  0
  -29.9300  -18.4580   20.4330 C   0  0  0  0  0  3  0  0  0  0  0  0
  -29.4690  -16.7400   20.3090 C   0  0  0  0  0  3  0  0  0  0  0  0
  -30.3610  -15.2420   20.2200 C   0  0  0  0  0  0  0  0  0  0  0  0
  -30.3520  -12.8030   19.3470 C   0  0  0  0  0  2  0  0  0  0  0  0
  -29.4010  -12.6460   18.1330 C   0  0  0  0  0  2  0  0  0  0  0  0
  -27.9550  -12.3830   18.5940 C   0  0  0  0  0  2  0  0  0  0  0  0
  -27.5350  -13.3270   19.7480 C   0  0  0  0  0  3  0  0  0  0  0  0
  -28.6080  -13.4320   20.8500 C   0  0  0  0  0  2  0  0  0  0  0  0
  -29.8410  -13.9210   20.2160 N   0  0  0  0  0  0  0  0  0  0  0  0
  -31.5730  -15.2750   19.9600 O   0  0  0  0  0  0  0  0  0  0  0  0
  -25.1870  -13.8800   20.5790 C   0  0  0  0  0  0  0  0  0  0  0  0
  -24.1310  -13.1000   20.9610 C   0  0  0  0  0  0  0  0  0  0  0  0
  -24.5910  -11.7500   20.8890 C   0  0  0  0  0  0  0  0  0  0  0  0
  -26.2180  -13.0060   20.2850 N   0  0  0  0  0  0  0  0  0  0  0  0
  -25.8730  -11.7160   20.5410 N   0  0  0  0  0  0  0  0  0  0  0  0
  -23.8630  -10.4860   21.0720 C   0  0  0  0  0  0  0  0  0  0  0  0
  -24.3140   -9.4960   21.9730 C   0  0  0  0  0  3  0  0  0  0  0  0
  -23.5850   -8.3000   22.1460 C   0  0  0  0  0  3  0  0  0  0  0  0
  -22.3900   -8.0840   21.4180 C   0  0  0  0  0  0  0  0  0  0  0  0
  -21.9580   -9.0630   20.5070 C   0  0  0  0  0  3  0  0  0  0  0  0
  -22.6870  -10.2510   20.3310 C   0  0  0  0  0  3  0  0  0  0  0  0
  -21.6310   -6.9430   21.5030 O   0  0  0  0  0  0  0  0  0  0  0  0
  -21.6090   -6.1740   22.6390 C   0  0  0  0  0  0  0  0  0  0  0  0
  -21.2080   -6.6990   23.8870 C   0  0  0  0  0  3  0  0  0  0  0  0
  -21.1350   -5.8570   25.0160 C   0  0  0  0  0  3  0  0  0  0  0  0
  -21.4520   -4.4900   24.8960 C   0  0  0  0  0  0  0  0  0  0  0  0
  -21.8450   -3.9650   23.6530 C   0  0  0  0  0  3  0  0  0  0  0  0
  -21.9200   -4.8040   22.5280 C   0  0  0  0  0  0  0  0  0  0  0  0
  -22.2790   -4.2860   21.3280 F   0  0  0  0  0  0  0  0  0  0  0  0
  -21.3740   -3.6790   25.9770 F   0  0  0  0  0  0  0  0  0  0  0  0
  -22.7430  -13.5770   21.2750 C   0  0  0  0  0  0  0  0  0  0  0  0
  -22.0330  -12.8690   22.1440 N   0  0  0  0  0  0  0  0  0  0  0  0
  -22.2990  -14.6140   20.7840 O   0  0  0  0  0  0  0  0  0  0  0  0
  -22.4040  -12.0300   22.5650 H   0  0  0  0  0  0  0  0  0  0  0  0
  -21.1010  -13.1700   22.3940 H   0  0  0  0  0  0  0  0  0  0  0  0
  -25.3510  -15.2540   20.4280 N   0  0  0  0  0  0  0  0  0  0  0  0
  -24.5900  -15.9070   20.5760 H   0  0  0  0  0  0  0  0  0  0  0  0
  -26.1900  -15.6940   20.0750 H   0  0  0  0  0  0  0  0  0  0  0  0
  -28.0310  -24.3130   20.3560 C   0  0  0  0  0  2  0  0  0  0  0  0
  -28.2330  -25.9380   20.2480 O   0  0  0  0  0  0  0  0  0  0  0  0
  -24.6310  -31.8540   23.2070 C   0  0  0  0  0  0  0  0  0  0  0  0
  -27.1920  -26.9940   20.2170 C   0  0  0  0  0  0  0  0  0  0  0  0
  -23.4340  -30.4470   21.5790 C   0  0  0  0  0  3  0  0  0  0  0  0
  -24.8800  -28.8390   20.1650 C   0  0  0  0  0  0  0  0  0  0  0  0
  -25.9970  -30.6730   21.4200 C   0  0  0  0  0  2  0  0  0  0  0  0
  -26.0680  -29.2620   20.7740 C   0  0  0  0  0  0  0  0  0  0  0  0
  -27.2210  -28.3610   20.7720 C   0  0  0  0  0  3  0  0  0  0  0  0
  -25.9720  -26.7100   19.5660 C   0  0  0  0  0  3  0  0  0  0  0  0
  -24.8540  -27.5820   19.5410 C   0  0  0  0  0  3  0  0  0  0  0  0
  -23.6590  -29.7550   20.2080 C   0  0  0  0  0  2  0  0  0  0  0  0
  -24.7090  -31.0180   22.1230 N   0  0  0  0  0  0  0  0  0  0  0  0
  -23.5440  -32.1450   23.7300 O   0  0  0  0  0  0  0  0  0  0  0  0
  -22.7450  -29.4560   22.5530 C   0  0  0  0  0  0  0  0  0  0  0  0
  -21.4140  -29.2910   22.4330 N   0  0  0  0  0  0  0  0  0  0  0  0
  -23.4130  -28.8350   23.3820 O   0  0  0  0  0  0  0  0  0  0  0  0
  -20.9290  -29.8430   21.7390 H   0  0  0  0  0  0  0  0  0  0  0  0
  -18.0330  -28.0870   22.9540 C   0  0  0  0  0  0  0  0  0  0  0  0
  -20.5930  -28.3570   23.2100 C   0  0  0  0  0  3  0  0  0  0  0  0
  -20.6950  -26.9220   22.6430 C   0  0  0  0  0  2  0  0  0  0  0  0
  -19.5900  -26.5920   21.6340 C   0  0  0  0  0  2  0  0  0  0  0  0
  -18.2100  -26.7360   22.2820 C   0  0  0  0  0  2  0  0  0  0  0  0
  -19.1510  -28.8550   23.3760 C   0  0  0  0  0  0  0  0  0  0  0  0
  -18.9290  -30.1170   23.9690 C   0  0  0  0  0  3  0  0  0  0  0  0
  -17.6230  -30.6120   24.1420 C   0  0  0  0  0  3  0  0  0  0  0  0
  -16.5190  -29.8420   23.7350 C   0  0  0  0  0  3  0  0  0  0  0  0
  -16.7250  -28.5820   23.1470 C   0  0  0  0  0  3  0  0  0  0  0  0
  -25.9040  -32.4990   23.8340 C   0  0  0  0  0  3  0  0  0  0  0  0
  -26.4200  -31.7330   25.1140 C   0  0  1  0  0  0  0  0  0  0  0  0
  -25.3270  -31.4990   26.1840 C   0  0  0  0  0  1  0  0  0  0  0  0
  -27.0070  -30.3540   24.7350 C   0  0  0  0  0  1  0  0  0  0  0  0
  -27.5700  -32.5320   25.7750 C   0  0  0  0  0  1  0  0  0  0  0  0
  -25.5830  -33.8970   24.1740 N   0  0  0  0  0  0  0  0  0  0  0  0
  -25.9000  -34.9620   23.4260 C   0  0  0  0  0  0  0  0  0  0  0  0
  -26.5560  -34.8720   22.3850 O   0  0  0  0  0  0  0  0  0  0  0  0
  -24.9960  -34.0380   24.9840 H   0  0  0  0  0  0  0  0  0  0  0  0
  -24.1570  -36.7540   23.1210 C   0  0  0  0  0  1  0  0  0  0  0  0
  -25.4140  -36.3460   23.9050 C   0  0  0  0  0  3  0  0  0  0  0  0
  -27.5570  -37.2410   24.7070 C   0  0  0  0  0  1  0  0  0  0  0  0
  -26.4390  -37.4060   23.7820 N   0  0  0  0  0  0  0  0  0  0  0  0
  -26.0310  -38.3230   23.9390 H   0  0  0  0  0  0  0  0  0  0  0  0
  1  2  2  0
  2 46  1  0
  3  5  1  0
  4  3  1  0
  4  6  1  0
  5  2  1  0
  6  5  1  0
  6  8  1  0
  6  7  1  1
  9  8  2  0
 10  9  1  0
 11 16  1  0
 12 13  1  0
 12 11  1  0
 14 13  1  0
 14 21  1  0
 14 15  1  0
 16 10  1  0
 16 15  1  0
 17 10  2  0
 18 19  2  0
 19 38  1  0
 20 19  1  0
 20 23  1  0
 21 22  1  0
 21 18  1  0
 22 20  2  0
 23 24  1  0
 24 25  2  0
 26 29  1  0
 26 25  1  0
 27 26  2  0
 28 27  1  0
 28 23  2  0
 29 30  1  0
 30 31  1  0
 31 32  2  0
 33 32  1  0
 33 37  1  0
 34 33  2  0
 35 30  2  0
 35 34  1  0
 36 35  1  0
 38 39  1  0
 39 42  1  0
 39 41  1  0
 40 38  2  0
 43 44  1  0
 43 18  1  0
 45 43  1  0
 47 46  1  0
 48 59  2  0
 49 47  1  0
 49 54  1  0
 50 58  1  0
 50 60  1  0
 51 57  1  0
 51 53  1  0
 52 58  1  0
 53 52  1  0
 54 53  2  0
 55 49  2  0
 56 55  1  0
 56 51  2  0
 57 50  1  0
 58 48  1  0
 60 62  2  0
 61 60  1  0
 63 61  1  0
 64 73  2  0
 64 69  1  0
 65 61  1  0
 65 69  1  0
 66 65  1  0
 67 68  1  0
 67 66  1  0
 68 64  1  0
 69 70  2  0
 70 71  1  0
 72 71  2  0
 73 72  1  0
 74 48  1  0
 74 79  1  0
 74 75  1  0
 75 78  1  1
 75 76  1  0
 77 75  1  0
 79 82  1  0
 80 84  1  0
 80 79  1  0
 81 80  2  0
 84 83  1  0
 86 84  1  0
 86 87  1  0
 86 85  1  0
M  ISO  4   9 100  10 100  46 101  47 101
M  END
>  <TORSDO>  (18) 
F 20

>  <SCORE>  (18) 
-15.724

>  <name>  (18) 
17

>  <ligand_id>  (18) 
17

>  <original_smiles>  (18) 
[H]C([H])=C(C([H])([H])Oc1c([H])c([H])c2c(c1[H])C([H])([H])N(C(=O)C([H])(N([H])C(=O)C([H])(N([H])C([H])([H])[H])C([H])([H])[H])C(C([H])([H])[H])(C([H])([H])[H])C([H])([H])[H])C([H])(C(=O)N([H])C1([H])c3c([H])c([H])c([H])c([H])c3C([H])([H])C([H])([H])C1([H])[H])C2([H])[H])C1([H])C([H])([H])C([H])([H])[N+]1([H])C([H])([H])C([H])([H])C(=O)N1C([H])([H])C([H])([H])C([H])([H])C([H])(n2nc(-c3c([H])c([H])c(Oc4c([H])c([H])c(F)c([H])c4F)c([H])c3[H])c(C(=O)N([H])[H])c2N([H])[H])C1([H])[H]

>  <smiles>  (18) 
[H]C([H])=C(C([H])([H])Oc1c([H])c([H])c2c(c1[H])C([H])([H])N(C(=O)C([H])(N([H])C(=O)C([H])(N([H])C([H])([H])[H])C([H])([H])[H])C(C([H])([H])[H])(C([H])([H])[H])C([H])([H])[H])C([H])(C(=O)N([H])C1([H])c3c([H])c([H])c([H])c([H])c3C([H])([H])C([H])([H])C1([H])[H])C2([H])[H])C1([H])C([H])([H])C([H])([H])[N+]1([H])C([H])([H])C([H])([H])C(=O)N1C([H])([H])C([H])([H])C([H])([H])C([H])(n2nc(-c3c([H])c([H])c(Oc4c([H])c([H])c(F)c([H])c4F)c([H])c3[H])c(C(=O)N([H])[H])c2N([H])[H])C1([H])[H]

$$$$
18:0:0
     RDKit          3D

 84 91  0  0  1  0  0  0  0  0999 V2000
  -28.9270  -22.2220   20.3310 C   0  0  0  0  0  3  0  0  0  0  0  0
  -28.6780  -20.3120   20.2140 C   0  0  0  0  0  2  0  0  0  0  0  0
  -29.5890  -17.2290   20.2850 C   0  0  0  0  0  3  0  0  0  0  0  0
  -29.7050  -18.7810   20.3220 C   0  0  0  0  0  0  0  0  0  0  0  0
  -30.3180  -15.6680   20.1910 C   0  0  0  0  0  0  0  0  0  0  0  0
  -30.3640  -13.1270   19.3870 C   0  0  0  0  0  2  0  0  0  0  0  0
  -29.4810  -12.7660   18.1600 C   0  0  0  0  0  2  0  0  0  0  0  0
  -28.0560  -12.4110   18.6070 C   0  0  0  0  0  2  0  0  0  0  0  0
  -27.5430  -13.4030   19.6770 C   0  0  0  0  0  3  0  0  0  0  0  0
  -28.5680  -13.7210   20.7890 C   0  0  0  0  0  2  0  0  0  0  0  0
  -29.7620  -14.3160   20.1490 N   0  0  0  0  0  0  0  0  0  0  0  0
  -31.5430  -15.5260   19.9870 O   0  0  0  0  0  0  0  0  0  0  0  0
  -25.1790  -13.9000   20.4530 C   0  0  0  0  0  0  0  0  0  0  0  0
  -24.1330  -13.1060   20.8220 C   0  0  0  0  0  0  0  0  0  0  0  0
  -24.6210  -11.7630   20.7920 C   0  0  0  0  0  0  0  0  0  0  0  0
  -26.2340  -13.0440   20.2040 N   0  0  0  0  0  0  0  0  0  0  0  0
  -25.9140  -11.7520   20.4780 N   0  0  0  0  0  0  0  0  0  0  0  0
  -23.9110  -10.4910   20.9860 C   0  0  0  0  0  0  0  0  0  0  0  0
  -24.3460   -9.5360   21.9330 C   0  0  0  0  0  3  0  0  0  0  0  0
  -23.6300   -8.3320   22.1160 C   0  0  0  0  0  3  0  0  0  0  0  0
  -22.4680   -8.0740   21.3540 C   0  0  0  0  0  0  0  0  0  0  0  0
  -22.0520   -9.0170   20.3980 C   0  0  0  0  0  3  0  0  0  0  0  0
  -22.7670  -10.2110   20.2120 C   0  0  0  0  0  3  0  0  0  0  0  0
  -21.7250   -6.9210   21.4450 O   0  0  0  0  0  0  0  0  0  0  0  0
  -21.6620   -6.1940   22.6080 C   0  0  0  0  0  0  0  0  0  0  0  0
  -21.1830   -6.7540   23.8120 C   0  0  0  0  0  3  0  0  0  0  0  0
  -21.0720   -5.9530   24.9650 C   0  0  0  0  0  3  0  0  0  0  0  0
  -21.4280   -4.5920   24.9150 C   0  0  0  0  0  0  0  0  0  0  0  0
  -21.8990   -4.0310   23.7150 C   0  0  0  0  0  3  0  0  0  0  0  0
  -22.0140   -4.8300   22.5650 C   0  0  0  0  0  0  0  0  0  0  0  0
  -22.4500   -4.2790   21.4060 F   0  0  0  0  0  0  0  0  0  0  0  0
  -21.3130   -3.8190   26.0220 F   0  0  0  0  0  0  0  0  0  0  0  0
  -22.7280  -13.5630   21.0850 C   0  0  0  0  0  0  0  0  0  0  0  0
  -22.0110  -12.8670   21.9580 N   0  0  0  0  0  0  0  0  0  0  0  0
  -22.2760  -14.5760   20.5500 O   0  0  0  0  0  0  0  0  0  0  0  0
  -22.3930  -12.0520   22.4150 H   0  0  0  0  0  0  0  0  0  0  0  0
  -21.0670  -13.1540   22.1750 H   0  0  0  0  0  0  0  0  0  0  0  0
  -25.3210  -15.2740   20.2750 N   0  0  0  0  0  0  0  0  0  0  0  0
  -24.5480  -15.9190   20.3980 H   0  0  0  0  0  0  0  0  0  0  0  0
  -26.1720  -15.7290   19.9690 H   0  0  0  0  0  0  0  0  0  0  0  0
  -31.4250  -19.7750   21.9230 C   0  0  0  0  0  1  0  0  0  0  0  0
  -31.1100  -19.3830   20.4740 C   0  0  0  0  0  2  0  0  0  0  0  0
  -27.9510  -23.8840   20.2130 C   0  0  0  0  0  3  0  0  0  0  0  0
  -28.1520  -25.6170   20.3350 O   0  0  0  0  0  0  0  0  0  0  0  0
  -24.6760  -31.8820   23.2520 C   0  0  0  0  0  0  0  0  0  0  0  0
  -27.1780  -26.8150   20.2760 C   0  0  0  0  0  0  0  0  0  0  0  0
  -23.4790  -30.4900   21.6160 C   0  0  0  0  0  3  0  0  0  0  0  0
  -24.9170  -28.8370   20.2100 C   0  0  0  0  0  0  0  0  0  0  0  0
  -26.0580  -30.6280   21.4910 C   0  0  0  0  0  2  0  0  0  0  0  0
  -26.1140  -29.1970   20.8410 C   0  0  0  0  0  0  0  0  0  0  0  0
  -27.2310  -28.2140   20.8410 C   0  0  0  0  0  3  0  0  0  0  0  0
  -25.9500  -26.6550   19.5880 C   0  0  0  0  0  3  0  0  0  0  0  0
  -24.8720  -27.5910   19.5600 C   0  0  0  0  0  3  0  0  0  0  0  0
  -23.7150  -29.7910   20.2470 C   0  0  0  0  0  2  0  0  0  0  0  0
  -24.7610  -31.0320   22.1730 N   0  0  0  0  0  0  0  0  0  0  0  0
  -23.5840  -32.1880   23.7640 O   0  0  0  0  0  0  0  0  0  0  0  0
  -22.7590  -29.5170   22.5890 C   0  0  0  0  0  0  0  0  0  0  0  0
  -21.4270  -29.3660   22.4610 N   0  0  0  0  0  0  0  0  0  0  0  0
  -23.4120  -28.8940   23.4300 O   0  0  0  0  0  0  0  0  0  0  0  0
  -20.9500  -29.9170   21.7600 H   0  0  0  0  0  0  0  0  0  0  0  0
  -18.0340  -28.1650   22.9650 C   0  0  0  0  0  0  0  0  0  0  0  0
  -20.5950  -28.4370   23.2360 C   0  0  0  0  0  3  0  0  0  0  0  0
  -20.6970  -26.9990   22.6750 C   0  0  0  0  0  2  0  0  0  0  0  0
  -19.6010  -26.6690   21.6580 C   0  0  0  0  0  2  0  0  0  0  0  0
  -18.2160  -26.8140   22.2940 C   0  0  0  0  0  2  0  0  0  0  0  0
  -19.1500  -28.9330   23.3930 C   0  0  0  0  0  0  0  0  0  0  0  0
  -18.9230  -30.1950   23.9870 C   0  0  0  0  0  3  0  0  0  0  0  0
  -17.6150  -30.6880   24.1520 C   0  0  0  0  0  3  0  0  0  0  0  0
  -16.5150  -29.9180   23.7360 C   0  0  0  0  0  3  0  0  0  0  0  0
  -16.7260  -28.6590   23.1480 C   0  0  0  0  0  3  0  0  0  0  0  0
  -25.9430  -32.5260   23.8920 C   0  0  0  0  0  3  0  0  0  0  0  0
  -26.4340  -31.7670   25.1870 C   0  0  1  0  0  0  0  0  0  0  0  0
  -25.3250  -31.5550   26.2460 C   0  0  0  0  0  1  0  0  0  0  0  0
  -27.0070  -30.3750   24.8330 C   0  0  0  0  0  1  0  0  0  0  0  0
  -27.5820  -32.5590   25.8550 C   0  0  0  0  0  1  0  0  0  0  0  0
  -25.6310  -33.9290   24.2220 N   0  0  0  0  0  0  0  0  0  0  0  0
  -25.9500  -34.9900   23.4680 C   0  0  0  0  0  0  0  0  0  0  0  0
  -26.5990  -34.8900   22.4240 O   0  0  0  0  0  0  0  0  0  0  0  0
  -25.0510  -34.0810   25.0350 H   0  0  0  0  0  0  0  0  0  0  0  0
  -24.2130  -36.7940   23.1820 C   0  0  0  0  0  1  0  0  0  0  0  0
  -25.4820  -36.3820   23.9440 C   0  0  0  0  0  3  0  0  0  0  0  0
  -27.6430  -37.2780   24.6990 C   0  0  0  0  0  1  0  0  0  0  0  0
  -26.5100  -37.4370   23.7910 N   0  0  0  0  0  0  0  0  0  0  0  0
  -26.1080  -38.3570   23.9460 H   0  0  0  0  0  0  0  0  0  0  0  0
  2  4  1  0
  2  1  1  0
  3  4  2  0
  4 42  1  0
  5  3  1  0
  6 11  1  0
  7  8  1  0
  7  6  1  0
  9  8  1  0
  9 16  1  0
  9 10  1  0
 11  5  1  0
 11 10  1  0
 12  5  2  0
 13 14  2  0
 14 33  1  0
 15 14  1  0
 15 18  1  0
 16 13  1  0
 16 17  1  0
 17 15  2  0
 18 19  1  0
 19 20  2  0
 21 24  1  0
 21 20  1  0
 22 21  2  0
 23 22  1  0
 23 18  2  0
 24 25  1  0
 25 26  1  0
 26 27  2  0
 28 27  1  0
 28 32  1  0
 29 28  2  0
 30 25  2  0
 30 29  1  0
 31 30  1  0
 33 34  1  0
 34 37  1  0
 34 36  1  0
 35 33  2  0
 38 39  1  0
 38 13  1  0
 40 38  1  0
 42 41  1  0
 43  1  2  0
 43 44  1  0
 45 56  2  0
 46 44  1  0
 46 51  1  0
 47 55  1  0
 47 57  1  0
 48 54  1  0
 48 50  1  0
 49 55  1  0
 50 49  1  0
 51 50  2  0
 52 46  2  0
 53 52  1  0
 53 48  2  0
 54 47  1  0
 55 45  1  0
 57 59  2  0
 58 57  1  0
 60 58  1  0
 61 70  2  0
 61 66  1  0
 62 58  1  0
 62 66  1  0
 63 62  1  0
 64 65  1  0
 64 63  1  0
 65 61  1  0
 66 67  2  0
 67 68  1  0
 69 68  2  0
 70 69  1  0
 71 45  1  0
 71 76  1  0
 71 72  1  0
 72 75  1  1
 72 73  1  0
 74 72  1  0
 76 79  1  0
 77 81  1  0
 77 76  1  0
 78 77  2  0
 81 80  1  0
 83 81  1  0
 83 84  1  0
 83 82  1  0
M  ISO  4   3 100   5 100  43 101  44 101
M  END
>  <TORSDO>  (19) 
F 20

>  <SCORE>  (19) 
-15.981

>  <name>  (19) 
18

>  <ligand_id>  (19) 
18

>  <original_smiles>  (19) 
[H]C(C(=O)N1C([H])([H])C([H])([H])C([H])([H])C([H])(n2nc(-c3c([H])c([H])c(Oc4c([H])c([H])c(F)c([H])c4F)c([H])c3[H])c(C(=O)N([H])[H])c2N([H])[H])C1([H])[H])=C(C([H])([H])C([H])([H])[H])C([H])([H])C([H])([H])C([H])([H])Oc1c([H])c([H])c2c(c1[H])C([H])([H])N(C(=O)C([H])(N([H])C(=O)C([H])(N([H])C([H])([H])[H])C([H])([H])[H])C(C([H])([H])[H])(C([H])([H])[H])C([H])([H])[H])C([H])(C(=O)N([H])C1([H])c3c([H])c([H])c([H])c([H])c3C([H])([H])C([H])([H])C1([H])[H])C2([H])[H]

>  <smiles>  (19) 
[H]C(C(=O)N1C([H])([H])C([H])([H])C([H])([H])C([H])(n2nc(-c3c([H])c([H])c(Oc4c([H])c([H])c(F)c([H])c4F)c([H])c3[H])c(C(=O)N([H])[H])c2N([H])[H])C1([H])[H])=C(C([H])([H])C([H])([H])[H])C([H])([H])C([H])([H])C([H])([H])Oc1c([H])c([H])c2c(c1[H])C([H])([H])N(C(=O)C([H])(N([H])C(=O)C([H])(N([H])C([H])([H])[H])C([H])([H])[H])C(C([H])([H])[H])(C([H])([H])[H])C([H])([H])[H])C([H])(C(=O)N([H])C1([H])c3c([H])c([H])c([H])c([H])c3C([H])([H])C([H])([H])C1([H])[H])C2([H])[H]

$$$$
19:0:0
     RDKit          3D

 88 96  0  0  1  0  0  0  0  0999 V2000
  -28.7880  -22.3240   20.2420 C   0  0  0  0  0  2  0  0  0  0  0  0
  -30.2140  -20.1770   20.2110 C   0  0  0  0  0  0  0  0  0  0  0  0
  -31.6320  -19.6450   20.1390 C   0  0  0  0  0  2  0  0  0  0  0  0
  -29.3200  -18.8980   20.2710 C   0  0  0  0  0  2  0  0  0  0  0  0
  -31.6260  -18.0930   20.0540 C   0  0  0  0  0  3  0  0  0  0  0  0
  -30.2420  -17.6060   20.5350 C   0  0  0  0  0  3  0  0  0  0  0  0
  -32.8080  -17.5310   20.8730 C   0  0  0  0  0  1  0  0  0  0  0  0
  -30.0290  -21.4810   20.2120 N   0  0  0  0  0  0  0  0  0  0  0  0
  -29.7050  -16.1490   20.0430 C   0  0  0  0  0  2  0  0  0  0  0  0
  -30.5650  -14.7950   19.9040 C   0  0  0  0  0  0  0  0  0  0  0  0
  -30.3140  -12.5100   18.9410 C   0  0  0  0  0  2  0  0  0  0  0  0
  -29.3010  -12.6080   17.7750 C   0  0  0  0  0  2  0  0  0  0  0  0
  -27.8560  -12.4530   18.2880 C   0  0  0  0  0  2  0  0  0  0  0  0
  -27.5670  -13.3390   19.5280 C   0  0  0  0  0  3  0  0  0  0  0  0
  -28.6910  -13.2240   20.5800 C   0  0  0  0  0  2  0  0  0  0  0  0
  -29.9620  -13.5580   19.9260 N   0  0  0  0  0  0  0  0  0  0  0  0
  -31.7260  -14.8800   19.4980 O   0  0  0  0  0  0  0  0  0  0  0  0
  -25.2450  -13.9550   20.4360 C   0  0  0  0  0  0  0  0  0  0  0  0
  -24.1900  -13.1910   20.8550 C   0  0  0  0  0  0  0  0  0  0  0  0
  -24.6210  -11.8320   20.7520 C   0  0  0  0  0  0  0  0  0  0  0  0
  -26.2510  -13.0630   20.1010 N   0  0  0  0  0  0  0  0  0  0  0  0
  -25.8860  -11.7800   20.3530 N   0  0  0  0  0  0  0  0  0  0  0  0
  -23.8830  -10.5780   20.9550 C   0  0  0  0  0  0  0  0  0  0  0  0
  -24.3280   -9.5990   21.8700 C   0  0  0  0  0  3  0  0  0  0  0  0
  -23.5910   -8.4110   22.0610 C   0  0  0  0  0  3  0  0  0  0  0  0
  -22.3940   -8.1930   21.3380 C   0  0  0  0  0  0  0  0  0  0  0  0
  -21.9680   -9.1610   20.4110 C   0  0  0  0  0  3  0  0  0  0  0  0
  -22.7050  -10.3410   20.2180 C   0  0  0  0  0  3  0  0  0  0  0  0
  -21.6260   -7.0580   21.4390 O   0  0  0  0  0  0  0  0  0  0  0  0
  -21.5690   -6.3300   22.5990 C   0  0  0  0  0  0  0  0  0  0  0  0
  -21.1420   -6.9010   23.8180 C   0  0  0  0  0  3  0  0  0  0  0  0
  -21.0330   -6.0980   24.9710 C   0  0  0  0  0  3  0  0  0  0  0  0
  -21.3390   -4.7260   24.9060 C   0  0  0  0  0  0  0  0  0  0  0  0
  -21.7580   -4.1540   23.6920 C   0  0  0  0  0  3  0  0  0  0  0  0
  -21.8700   -4.9540   22.5420 C   0  0  0  0  0  0  0  0  0  0  0  0
  -22.2540   -4.3930   21.3700 F   0  0  0  0  0  0  0  0  0  0  0  0
  -21.2260   -3.9530   26.0120 F   0  0  0  0  0  0  0  0  0  0  0  0
  -22.8250  -13.6860   21.2380 C   0  0  0  0  0  0  0  0  0  0  0  0
  -22.1440  -12.9770   22.1300 N   0  0  0  0  0  0  0  0  0  0  0  0
  -22.3740  -14.7340   20.7800 O   0  0  0  0  0  0  0  0  0  0  0  0
  -22.5230  -12.1270   22.5220 H   0  0  0  0  0  0  0  0  0  0  0  0
  -21.2310  -13.2890   22.4290 H   0  0  0  0  0  0  0  0  0  0  0  0
  -25.4260  -15.3270   20.2890 N   0  0  0  0  0  0  0  0  0  0  0  0
  -24.6860  -15.9940   20.4750 H   0  0  0  0  0  0  0  0  0  0  0  0
  -26.2660  -15.7600   19.9240 H   0  0  0  0  0  0  0  0  0  0  0  0
  -29.0970  -23.9130   20.3370 C   0  0  0  0  0  3  0  0  0  0  0  0
  -27.9370  -24.9970   20.0890 C   0  0  0  0  0  3  0  0  0  0  0  0
  -28.1830  -26.4680   20.2350 O   0  0  0  0  0  0  0  0  0  0  0  0
  -24.5190  -31.9520   23.2440 C   0  0  0  0  0  0  0  0  0  0  0  0
  -27.0780  -27.3470   20.1830 C   0  0  0  0  0  0  0  0  0  0  0  0
  -23.2930  -30.5500   21.6260 C   0  0  0  0  0  3  0  0  0  0  0  0
  -24.7220  -28.9890   20.1880 C   0  0  0  0  0  0  0  0  0  0  0  0
  -25.8330  -30.8530   21.4130 C   0  0  0  0  0  2  0  0  0  0  0  0
  -25.9020  -29.4710   20.7680 C   0  0  0  0  0  0  0  0  0  0  0  0
  -27.0830  -28.6640   20.7520 C   0  0  0  0  0  3  0  0  0  0  0  0
  -25.8710  -26.9310   19.5740 C   0  0  0  0  0  3  0  0  0  0  0  0
  -24.7110  -27.7270   19.5800 C   0  0  0  0  0  3  0  0  0  0  0  0
  -23.4890  -29.8690   20.2470 C   0  0  0  0  0  2  0  0  0  0  0  0
  -24.5680  -31.1370   22.1490 N   0  0  0  0  0  0  0  0  0  0  0  0
  -23.4420  -32.2360   23.7880 O   0  0  0  0  0  0  0  0  0  0  0  0
  -22.6370  -29.5390   22.5980 C   0  0  0  0  0  0  0  0  0  0  0  0
  -21.3130  -29.3480   22.4700 N   0  0  0  0  0  0  0  0  0  0  0  0
  -23.3200  -28.9310   23.4260 O   0  0  0  0  0  0  0  0  0  0  0  0
  -20.8210  -29.8910   21.7750 H   0  0  0  0  0  0  0  0  0  0  0  0
  -17.9460  -28.1200   22.9730 C   0  0  0  0  0  0  0  0  0  0  0  0
  -20.5000  -28.4140   23.2530 C   0  0  0  0  0  3  0  0  0  0  0  0
  -20.6230  -26.9740   22.7030 C   0  0  0  0  0  2  0  0  0  0  0  0
  -19.5300  -26.6210   21.6880 C   0  0  0  0  0  2  0  0  0  0  0  0
  -18.1430  -26.7610   22.3210 C   0  0  0  0  0  2  0  0  0  0  0  0
  -19.0530  -28.9030   23.3950 C   0  0  0  0  0  0  0  0  0  0  0  0
  -18.8160  -30.1720   23.9640 C   0  0  0  0  0  3  0  0  0  0  0  0
  -17.5030  -30.6600   24.1150 C   0  0  0  0  0  3  0  0  0  0  0  0
  -16.4100  -29.8740   23.7090 C   0  0  0  0  0  3  0  0  0  0  0  0
  -16.6340  -28.6060   23.1420 C   0  0  0  0  0  3  0  0  0  0  0  0
  -25.8100  -32.5840   23.8490 C   0  0  0  0  0  3  0  0  0  0  0  0
  -26.3280  -31.8270   25.1340 C   0  0  1  0  0  0  0  0  0  0  0  0
  -25.2390  -31.6110   26.2110 C   0  0  0  0  0  1  0  0  0  0  0  0
  -26.9010  -30.4410   24.7580 C   0  0  0  0  0  1  0  0  0  0  0  0
  -27.4870  -32.6240   25.7780 C   0  0  0  0  0  1  0  0  0  0  0  0
  -25.5120  -33.9890   24.1630 N   0  0  0  0  0  0  0  0  0  0  0  0
  -25.8310  -35.0290   23.3820 C   0  0  0  0  0  0  0  0  0  0  0  0
  -26.4760  -34.9060   22.3370 O   0  0  0  0  0  0  0  0  0  0  0  0
  -24.9370  -34.1580   24.9750 H   0  0  0  0  0  0  0  0  0  0  0  0
  -24.0940  -36.8170   23.0500 C   0  0  0  0  0  1  0  0  0  0  0  0
  -25.3600  -36.4260   23.8290 C   0  0  0  0  0  3  0  0  0  0  0  0
  -27.5180  -37.3260   24.5800 C   0  0  0  0  0  1  0  0  0  0  0  0
  -26.3890  -37.4760   23.6640 N   0  0  0  0  0  0  0  0  0  0  0  0
  -25.9890  -38.3990   23.8040 H   0  0  0  0  0  0  0  0  0  0  0  0
  1 46  1  0
  2  8  2  0
  2  4  1  0
  3  2  1  0
  4  6  1  0
  5  3  1  0
  5  6  1  0
  5  7  1  0
  6  9  1  0
  8  1  1  0
 10 16  1  0
 10  9  1  0
 11 16  1  0
 12 13  1  0
 12 11  1  0
 14 13  1  0
 14 21  1  0
 14 15  1  0
 16 15  1  0
 17 10  2  0
 18 19  2  0
 19 38  1  0
 20 19  1  0
 20 23  1  0
 21 22  1  0
 21 18  1  0
 22 20  2  0
 23 24  1  0
 24 25  2  0
 26 29  1  0
 26 25  1  0
 27 26  2  0
 28 27  1  0
 28 23  2  0
 29 30  1  0
 30 31  1  0
 31 32  2  0
 33 32  1  0
 33 37  1  0
 34 33  2  0
 35 30  2  0
 35 34  1  0
 36 35  1  0
 38 39  1  0
 39 42  1  0
 39 41  1  0
 40 38  2  0
 43 18  1  0
 43 44  1  0
 45 43  1  0
 47 48  1  0
 47 46  2  0
 49 60  2  0
 50 48  1  0
 50 55  1  0
 51 59  1  0
 51 61  1  0
 52 58  1  0
 52 54  1  0
 53 59  1  0
 54 53  1  0
 55 54  2  0
 56 57  1  0
 56 50  2  0
 57 52  2  0
 58 51  1  0
 59 49  1  0
 61 63  2  0
 62 61  1  0
 64 62  1  0
 65 74  2  0
 65 70  1  0
 66 62  1  0
 66 70  1  0
 67 66  1  0
 68 69  1  0
 68 67  1  0
 69 65  1  0
 70 71  2  0
 71 72  1  0
 73 72  2  0
 74 73  1  0
 75 49  1  0
 75 80  1  0
 75 76  1  0
 76 79  1  1
 76 77  1  0
 78 76  1  0
 80 83  1  0
 81 85  1  0
 81 80  1  0
 82 81  2  0
 85 84  1  0
 87 88  1  0
 87 85  1  0
 87 86  1  0
M  ISO  4   9 100  10 100  47 101  48 101
M  END
>  <TORSDO>  (20) 
F 20

>  <SCORE>  (20) 
-13.187

>  <name>  (20) 
19

>  <ligand_id>  (20) 
19

>  <original_smiles>  (20) 
[H]c1c([H])c([H])c2c(c1[H])C([H])([H])C([H])([H])C([H])([H])C2([H])N([H])C(=O)C1([H])N(C(=O)C([H])(N([H])C(=O)C([H])(N([H])C([H])([H])[H])C([H])([H])[H])C(C([H])([H])[H])(C([H])([H])[H])C([H])([H])[H])C([H])([H])c2c([H])c(OC([H])([H])C([H])([H])C([H])([H])N=C3C([H])([H])C([H])(C([H])([H])[H])C([H])(C([H])([H])C(=O)N4C([H])([H])C([H])([H])C([H])([H])C([H])(n5nc(-c6c([H])c([H])c(Oc7c([H])c([H])c(F)c([H])c7F)c([H])c6[H])c(C(=O)N([H])[H])c5N([H])[H])C4([H])[H])C3([H])[H])c([H])c([H])c2C1([H])[H]

>  <smiles>  (20) 
[H]c1c([H])c([H])c2c(c1[H])C([H])([H])C([H])([H])C([H])([H])C2([H])N([H])C(=O)C1([H])N(C(=O)C([H])(N([H])C(=O)C([H])(N([H])C([H])([H])[H])C([H])([H])[H])C(C([H])([H])[H])(C([H])([H])[H])C([H])([H])[H])C([H])([H])c2c([H])c(OC([H])([H])C([H])([H])C([H])([H])N=C3C([H])([H])C([H])(C([H])([H])[H])C([H])(C([H])([H])C(=O)N4C([H])([H])C([H])([H])C([H])([H])C([H])(n5nc(-c6c([H])c([H])c(Oc7c([H])c([H])c(F)c([H])c7F)c([H])c6[H])c(C(=O)N([H])[H])c5N([H])[H])C4([H])[H])C3([H])[H])c([H])c([H])c2C1([H])[H]

$$$$
20:0:0
     RDKit          3D

 86 91  0  0  1  0  0  0  0  0999 V2000
  -28.9680  -21.2380   20.5580 C   0  0  0  0  0  1  0  0  0  0  0  0
  -29.5260  -17.7700   20.4560 C   0  0  0  0  0  2  0  0  0  0  0  0
  -29.2440  -19.3210   19.9940 C   0  0  0  0  0  2  0  0  0  0  0  0
  -29.2170  -19.4930   18.4770 C   0  0  0  0  0  1  0  0  0  0  0  0
  -30.1810  -16.0570   20.2760 C   0  0  0  0  0  0  0  0  0  0  0  0
  -30.3850  -13.3860   19.5710 C   0  0  0  0  0  2  0  0  0  0  0  0
  -29.5670  -12.7900   18.3760 C   0  0  0  0  0  2  0  0  0  0  0  0
  -28.1760  -12.3360   18.8280 C   0  0  0  0  0  2  0  0  0  0  0  0
  -27.5820  -13.3670   19.8070 C   0  0  0  0  0  3  0  0  0  0  0  0
  -28.5560  -13.8810   20.9060 C   0  0  0  0  0  2  0  0  0  0  0  0
  -29.6900  -14.6170   20.2580 N   0  0  0  0  0  0  0  0  0  0  0  0
  -31.4060  -15.8580   20.0820 O   0  0  0  0  0  0  0  0  0  0  0  0
  -25.2250  -13.8390   20.5850 C   0  0  0  0  0  0  0  0  0  0  0  0
  -24.1690  -13.0470   20.9310 C   0  0  0  0  0  0  0  0  0  0  0  0
  -24.6480  -11.7000   20.8740 C   0  0  0  0  0  0  0  0  0  0  0  0
  -26.2760  -12.9840   20.3270 N   0  0  0  0  0  0  0  0  0  0  0  0
  -25.9450  -11.6840   20.5650 N   0  0  0  0  0  0  0  0  0  0  0  0
  -23.9190  -10.4320   21.0370 C   0  0  0  0  0  0  0  0  0  0  0  0
  -24.3710   -9.4230   21.9160 C   0  0  0  0  0  3  0  0  0  0  0  0
  -23.6360   -8.2270   22.0730 C   0  0  0  0  0  3  0  0  0  0  0  0
  -22.4320   -8.0320   21.3550 C   0  0  0  0  0  0  0  0  0  0  0  0
  -21.9980   -9.0290   20.4620 C   0  0  0  0  0  3  0  0  0  0  0  0
  -22.7350  -10.2160   20.3030 C   0  0  0  0  0  3  0  0  0  0  0  0
  -21.6670   -6.8920   21.4260 O   0  0  0  0  0  0  0  0  0  0  0  0
  -21.6870   -6.0760   22.5290 C   0  0  0  0  0  0  0  0  0  0  0  0
  -21.4020   -6.5650   23.8220 C   0  0  0  0  0  3  0  0  0  0  0  0
  -21.3660   -5.6790   24.9180 C   0  0  0  0  0  3  0  0  0  0  0  0
  -21.6050   -4.3060   24.7210 C   0  0  0  0  0  0  0  0  0  0  0  0
  -21.8820   -3.8160   23.4330 C   0  0  0  0  0  3  0  0  0  0  0  0
  -21.9200   -4.6990   22.3400 C   0  0  0  0  0  0  0  0  0  0  0  0
  -22.1670   -4.2170   21.0980 F   0  0  0  0  0  0  0  0  0  0  0  0
  -21.5630   -3.4540   25.7730 F   0  0  0  0  0  0  0  0  0  0  0  0
  -22.7690  -13.5150   21.1940 C   0  0  0  0  0  0  0  0  0  0  0  0
  -22.0340  -12.8100   22.0460 N   0  0  0  0  0  0  0  0  0  0  0  0
  -22.3360  -14.5460   20.6800 O   0  0  0  0  0  0  0  0  0  0  0  0
  -22.3970  -11.9810   22.4910 H   0  0  0  0  0  0  0  0  0  0  0  0
  -21.0930  -13.1090   22.2620 H   0  0  0  0  0  0  0  0  0  0  0  0
  -25.3810  -15.2140   20.4330 N   0  0  0  0  0  0  0  0  0  0  0  0
  -24.6110  -15.8640   20.5460 H   0  0  0  0  0  0  0  0  0  0  0  0
  -26.2380  -15.6630   20.1360 H   0  0  0  0  0  0  0  0  0  0  0  0
  -28.9150  -21.1820   22.0900 C   0  0  0  0  0  2  0  0  0  0  0  0
  -27.1910  -19.3330   22.8580 C   0  0  0  0  0  2  0  0  0  0  0  0
  -27.4390  -20.2390   24.0420 C   0  0  0  0  0  2  0  0  0  0  0  0
  -27.5600  -20.7810   22.6370 C   0  0  0  0  0  3  0  0  0  0  0  0
  -28.1480  -23.1510   20.1000 C   0  0  0  0  0 15  0  0  0  0  0  0
  -28.1690  -25.0530   20.3420 O   0  0  0  0  0  1  0  0  0  0  0  0
  -24.7110  -31.7640   23.1270 C   0  0  0  0  0  0  0  0  0  0  0  0
  -27.2410  -26.4040   20.2430 C   0  0  0  0  0  0  0  0  0  0  0  0
  -23.5520  -30.3510   21.4880 C   0  0  0  0  0  3  0  0  0  0  0  0
  -25.0140  -28.6280   20.1250 C   0  0  0  0  0  0  0  0  0  0  0  0
  -26.1440  -30.3980   21.4360 C   0  0  0  0  0  2  0  0  0  0  0  0
  -26.2070  -28.9300   20.7910 C   0  0  0  0  0  0  0  0  0  0  0  0
  -27.2890  -27.8540   20.8110 C   0  0  0  0  0  3  0  0  0  0  0  0
  -26.0160  -26.3890   19.5070 C   0  0  0  0  0  3  0  0  0  0  0  0
  -24.9760  -27.3880   19.4570 C   0  0  0  0  0  3  0  0  0  0  0  0
  -23.8230  -29.6190   20.1360 C   0  0  0  0  0  2  0  0  0  0  0  0
  -24.8300  -30.8780   22.0690 N   0  0  0  0  0  0  0  0  0  0  0  0
  -23.6060  -32.0870   23.6010 O   0  0  0  0  0  0  0  0  0  0  0  0
  -22.7880  -29.4120   22.4640 C   0  0  0  0  0  0  0  0  0  0  0  0
  -21.4510  -29.2990   22.3380 N   0  0  0  0  0  0  0  0  0  0  0  0
  -23.4180  -28.7780   23.3120 O   0  0  0  0  0  0  0  0  0  0  0  0
  -20.9890  -29.8610   21.6370 H   0  0  0  0  0  0  0  0  0  0  0  0
  -18.0360  -28.1430   22.8450 C   0  0  0  0  0  0  0  0  0  0  0  0
  -20.6000  -28.3800   23.1080 C   0  0  0  0  0  3  0  0  0  0  0  0
  -20.6790  -26.9430   22.5410 C   0  0  0  0  0  2  0  0  0  0  0  0
  -19.5780  -26.6360   21.5210 C   0  0  0  0  0  2  0  0  0  0  0  0
  -18.1960  -26.7960   22.1600 C   0  0  0  0  0  2  0  0  0  0  0  0
  -19.1630  -28.8950   23.2730 C   0  0  0  0  0  0  0  0  0  0  0  0
  -18.9540  -30.1520   23.8810 C   0  0  0  0  0  3  0  0  0  0  0  0
  -17.6530  -30.6610   24.0540 C   0  0  0  0  0  3  0  0  0  0  0  0
  -16.5410  -29.9080   23.6360 C   0  0  0  0  0  3  0  0  0  0  0  0
  -16.7330  -28.6500   23.0380 C   0  0  0  0  0  3  0  0  0  0  0  0
  -25.9550  -32.4280   23.7930 C   0  0  0  0  0  3  0  0  0  0  0  0
  -26.4640  -31.6450   25.0680 C   0  0  1  0  0  0  0  0  0  0  0  0
  -25.3640  -31.3840   26.1250 C   0  0  0  0  0  1  0  0  0  0  0  0
  -27.0620  -30.2760   24.6800 C   0  0  0  0  0  1  0  0  0  0  0  0
  -27.6050  -32.4380   25.7500 C   0  0  0  0  0  1  0  0  0  0  0  0
  -25.6000  -33.8130   24.1780 N   0  0  0  0  0  0  0  0  0  0  0  0
  -25.9160  -34.9180   23.4880 C   0  0  0  0  0  0  0  0  0  0  0  0
  -26.5850  -34.8810   22.4530 O   0  0  0  0  0  0  0  0  0  0  0  0
  -25.0000  -33.9150   24.9840 H   0  0  0  0  0  0  0  0  0  0  0  0
  -24.1490  -36.7060   23.2670 C   0  0  0  0  0  1  0  0  0  0  0  0
  -25.4160  -36.2780   24.0270 C   0  0  0  0  0  3  0  0  0  0  0  0
  -27.5540  -37.1690   24.8480 C   0  0  0  0  0  1  0  0  0  0  0  0
  -26.4250  -37.3570   23.9410 N   0  0  0  0  0  0  0  0  0  0  0  0
  -26.0040  -38.2610   24.1420 H   0  0  0  0  0  0  0  0  0  0  0  0
  1 41  1  0
  3  2  1  0
  4  3  1  0
  5  2  1  0
  6 11  1  0
  7  8  1  0
  7  6  1  0
  9  8  1  0
  9 16  1  0
  9 10  1  0
 11  5  1  0
 11 10  1  0
 12  5  2  0
 13 14  2  0
 14 33  1  0
 15 14  1  0
 15 18  1  0
 16 17  1  0
 16 13  1  0
 17 15  2  0
 18 19  1  0
 19 20  2  0
 21 24  1  0
 21 20  1  0
 22 21  2  0
 23 22  1  0
 23 18  2  0
 24 25  1  0
 25 26  1  0
 26 27  2  0
 28 27  1  0
 28 32  1  0
 29 28  2  0
 30 25  2  0
 30 29  1  0
 31 30  1  0
 33 34  1  0
 34 37  1  0
 34 36  1  0
 35 33  2  0
 38 39  1  0
 38 13  1  0
 40 38  1  0
 41 44  1  0
 42 43  1  0
 44 42  1  0
 44 43  1  0
 47 58  2  0
 48 46  1  0
 48 53  1  0
 49 57  1  0
 49 59  1  0
 50 56  1  0
 50 52  1  0
 51 57  1  0
 52 53  2  0
 52 51  1  0
 54 48  2  0
 55 54  1  0
 55 50  2  0
 56 49  1  0
 57 47  1  0
 59 61  2  0
 60 59  1  0
 62 60  1  0
 63 72  2  0
 63 68  1  0
 64 60  1  0
 64 68  1  0
 65 64  1  0
 66 67  1  0
 66 65  1  0
 67 63  1  0
 68 69  2  0
 69 70  1  0
 71 70  2  0
 72 71  1  0
 73 47  1  0
 73 78  1  0
 73 74  1  0
 74 77  1  1
 74 75  1  0
 76 74  1  0
 78 81  1  0
 79 83  1  0
 79 78  1  0
 80 79  2  0
 83 82  1  0
 85 83  1  0
 85 86  1  0
 85 84  1  0
M  ISO  4   2 100   5 100  45 101  46 101
M  END
>  <TORSDO>  (21) 
F 20

>  <SCORE>  (21) 
11.164

>  <name>  (21) 
20

>  <ligand_id>  (21) 
20

>  <original_smiles>  (21) 
[H]C(C(=O)N1C([H])([H])C([H])([H])C([H])([H])C([H])(n2nc(-c3c([H])c([H])c(Oc4c([H])c([H])c(F)c([H])c4F)c([H])c3[H])c(C(=O)N([H])[H])c2N([H])[H])C1([H])[H])=C(C([H])([H])[H])C([H])(C([H])([H])Oc1c([H])c([H])c2c(c1[H])C([H])([H])N(C(=O)C([H])(N([H])C(=O)C([H])(N([H])C([H])([H])[H])C([H])([H])[H])C(C([H])([H])[H])(C([H])([H])[H])C([H])([H])[H])C([H])(C(=O)N([H])C1([H])c3c([H])c([H])c([H])c([H])c3C([H])([H])C([H])([H])C1([H])[H])C2([H])[H])C([H])([H])C1([H])C([H])([H])C1([H])[H]

>  <smiles>  (21) 
[H]C(C(=O)N1C([H])([H])C([H])([H])C([H])([H])C([H])(n2nc(-c3c([H])c([H])c(Oc4c([H])c([H])c(F)c([H])c4F)c([H])c3[H])c(C(=O)N([H])[H])c2N([H])[H])C1([H])[H])=C(C([H])([H])[H])C([H])(C([H])([H])Oc1c([H])c([H])c2c(c1[H])C([H])([H])N(C(=O)C([H])(N([H])C(=O)C([H])(N([H])C([H])([H])[H])C([H])([H])[H])C(C([H])([H])[H])(C([H])([H])[H])C([H])([H])[H])C([H])(C(=O)N([H])C1([H])c3c([H])c([H])c([H])c([H])c3C([H])([H])C([H])([H])C1([H])[H])C2([H])[H])C([H])([H])C1([H])C([H])([H])C1([H])[H]

$$$$
21:0:0
     RDKit          3D

 87 92  0  0  1  0  0  0  0  0999 V2000
  -27.2570  -20.0320   18.8870 C   0  0  0  0  0  2  0  0  0  0  0  0
  -28.4710  -19.4280   18.1640 C   0  0  0  0  0  2  0  0  0  0  0  0
  -28.1220  -19.4830   21.2380 C   0  0  0  0  0  2  0  0  0  0  0  0
  -28.6120  -18.0130   20.7730 C   0  0  0  0  0  2  0  0  0  0  0  0
  -27.8170  -20.6590   20.1810 C   0  0  0  0  0  3  0  0  0  0  0  0
  -29.6390  -19.7080   19.1280 C   0  0  0  0  0  1  0  0  0  0  0  0
  -29.0500  -21.5320   19.7140 C   0  0  0  0  0  1  0  0  0  0  0  0
  -29.9340  -17.9170   19.9290 C   0  0  0  0  0  2  0  0  0  0  0  0
  -31.1130  -18.3100   20.8450 C   0  0  0  0  0  1  0  0  0  0  0  0
  -30.5190  -16.0480   19.5480 C   0  0  0  0  0  2  0  0  0  0  0  0
  -30.6190  -13.4010   18.8250 C   0  0  0  0  0  2  0  0  0  0  0  0
  -29.6620  -12.8740   17.7050 C   0  0  0  0  0  2  0  0  0  0  0  0
  -28.3020  -12.4750   18.2840 C   0  0  0  0  0  2  0  0  0  0  0  0
  -27.8400  -13.5110   19.3270 C   0  0  0  0  0  3  0  0  0  0  0  0
  -28.9360  -13.9430   20.3420 C   0  0  0  0  0  2  0  0  0  0  0  0
  -30.0340  -14.6240   19.5940 N   0  0  0  0  0  0  0  0  0  0  0  0
  -31.7040  -15.8860   19.1690 O   0  0  0  0  0  1  0  0  0  0  0  0
  -25.5890  -14.0410   20.3530 C   0  0  0  0  0  0  0  0  0  0  0  0
  -24.5470  -13.2720   20.7880 C   0  0  0  0  0  0  0  0  0  0  0  0
  -24.9710  -11.9140   20.6470 C   0  0  0  0  0  0  0  0  0  0  0  0
  -26.5770  -13.1610   19.9640 N   0  0  0  0  0  0  0  0  0  0  0  0
  -26.2250  -11.8660   20.2000 N   0  0  0  0  0  0  0  0  0  0  0  0
  -24.2240  -10.6640   20.8530 C   0  0  0  0  0  0  0  0  0  0  0  0
  -24.6550   -9.6850   21.7740 C   0  0  0  0  0  3  0  0  0  0  0  0
  -23.9050   -8.5060   21.9710 C   0  0  0  0  0  3  0  0  0  0  0  0
  -22.7060   -8.2980   21.2470 C   0  0  0  0  0  0  0  0  0  0  0  0
  -22.2920   -9.2650   20.3150 C   0  0  0  0  0  3  0  0  0  0  0  0
  -23.0430  -10.4360   20.1170 C   0  0  0  0  0  3  0  0  0  0  0  0
  -21.9250   -7.1720   21.3550 O   0  0  0  0  0  0  0  0  0  0  0  0
  -21.8080   -6.4870   22.5380 C   0  0  0  0  0  0  0  0  0  0  0  0
  -21.3410   -7.1110   23.7160 C   0  0  0  0  0  3  0  0  0  0  0  0
  -21.1690   -6.3540   24.8940 C   0  0  0  0  0  3  0  0  0  0  0  0
  -21.4530   -4.9770   24.8930 C   0  0  0  0  0  0  0  0  0  0  0  0
  -21.9140   -4.3520   23.7210 C   0  0  0  0  0  3  0  0  0  0  0  0
  -22.0880   -5.1060   22.5470 C   0  0  0  0  0  0  0  0  0  0  0  0
  -22.5120   -4.4960   21.4130 F   0  0  0  0  0  0  0  0  0  0  0  0
  -21.2810   -4.2470   26.0210 F   0  0  0  0  0  0  0  0  0  0  0  0
  -23.2010  -13.7750   21.2140 C   0  0  0  0  0  0  0  0  0  0  0  0
  -22.5430  -13.0670   22.1270 N   0  0  0  0  0  0  0  0  0  0  0  0
  -22.7470  -14.8310   20.7760 O   0  0  0  0  0  0  0  0  0  0  0  0
  -22.9250  -12.2140   22.5020 H   0  0  0  0  0  0  0  0  0  0  0  0
  -21.6390  -13.3810   22.4520 H   0  0  0  0  0  0  0  0  0  0  0  0
  -25.7700  -15.4150   20.2260 N   0  0  0  0  0  0  0  0  0  0  0  0
  -25.0330  -16.0780   20.4440 H   0  0  0  0  0  0  0  0  0  0  0  0
  -26.5920  -15.8490   19.8280 H   0  0  0  0  0  0  0  0  0  0  0  0
  -28.3740  -23.4760   19.3590 C   0  0  0  0  0  1  0  0  0  0  0  0
  -28.3600  -25.3050   19.7100 O   0  0  0  0  0  0  0  0  0  0  0  0
  -24.7040  -31.5850   22.9160 C   0  0  0  0  0  0  0  0  0  0  0  0
  -27.3700  -26.5760   19.6830 C   0  0  0  0  0  0  0  0  0  0  0  0
  -23.5510  -30.2100   21.2380 C   0  0  0  0  0  3  0  0  0  0  0  0
  -25.0400  -28.6430   19.7420 C   0  0  0  0  0  0  0  0  0  0  0  0
  -26.1300  -30.3960   21.1100 C   0  0  0  0  0  2  0  0  0  0  0  0
  -26.2350  -28.9770   20.3890 C   0  0  0  0  0  0  0  0  0  0  0  0
  -27.3710  -27.9780   20.3260 C   0  0  0  0  0  3  0  0  0  0  0  0
  -26.1310  -26.5030   18.9830 C   0  0  0  0  0  3  0  0  0  0  0  0
  -25.0370  -27.4370   19.0150 C   0  0  0  0  0  3  0  0  0  0  0  0
  -23.8060  -29.5670   19.8400 C   0  0  0  0  0  2  0  0  0  0  0  0
  -24.8210  -30.7670   21.8080 N   0  0  0  0  0  0  0  0  0  0  0  0
  -23.6030  -31.8330   23.4430 O   0  0  0  0  0  0  0  0  0  0  0  0
  -22.8670  -29.1830   22.1820 C   0  0  0  0  0  0  0  0  0  0  0  0
  -21.5330  -29.0180   22.0900 N   0  0  0  0  0  0  0  0  0  0  0  0
  -23.5520  -28.5340   22.9740 O   0  0  0  0  0  0  0  0  0  0  0  0
  -21.0240  -29.5930   21.4350 H   0  0  0  0  0  0  0  0  0  0  0  0
  -18.1810  -27.7160   22.6540 C   0  0  0  0  0  0  0  0  0  0  0  0
  -20.7460  -28.0260   22.8380 C   0  0  0  0  0  3  0  0  0  0  0  0
  -20.8490  -26.6280   22.1840 C   0  0  0  0  0  2  0  0  0  0  0  0
  -19.7180  -26.3390   21.1920 C   0  0  0  0  0  2  0  0  0  0  0  0
  -18.3590  -26.4160   21.8900 C   0  0  0  0  0  2  0  0  0  0  0  0
  -19.3000  -28.4810   23.0860 C   0  0  0  0  0  0  0  0  0  0  0  0
  -19.0740  -29.6940   23.7710 C   0  0  0  0  0  3  0  0  0  0  0  0
  -17.7640  -30.1460   24.0240 C   0  0  0  0  0  3  0  0  0  0  0  0
  -16.6620  -29.3810   23.6040 C   0  0  0  0  0  3  0  0  0  0  0  0
  -16.8720  -28.1670   22.9250 C   0  0  0  0  0  3  0  0  0  0  0  0
  -25.9430  -32.2640   23.5740 C   0  0  0  0  0  3  0  0  0  0  0  0
  -25.5590  -33.6270   24.0030 N   0  0  0  0  0  0  0  0  0  0  0  0
  -25.8140  -34.7540   23.3260 C   0  0  0  0  0  0  0  0  0  0  0  0
  -26.4510  -34.7620   22.2700 O   0  0  0  0  0  0  0  0  0  0  0  0
  -24.9810  -33.6890   24.8280 H   0  0  0  0  0  0  0  0  0  0  0  0
  -23.9780  -36.4800   23.2020 C   0  0  0  0  0  1  0  0  0  0  0  0
  -25.2860  -36.0850   23.9070 C   0  0  0  0  0  3  0  0  0  0  0  0
  -27.4160  -37.0420   24.6770 C   0  0  0  0  0  1  0  0  0  0  0  0
  -26.2540  -37.2010   23.8050 N   0  0  0  0  0  0  0  0  0  0  0  0
  -25.8090  -38.0850   24.0320 H   0  0  0  0  0  0  0  0  0  0  0  0
  -26.4980  -31.4590   24.8150 C   0  0  1  0  0  0  0  0  0  0  0  0
  -25.4230  -31.1370   25.8810 C   0  0  0  0  0  1  0  0  0  0  0  0
  -27.1270  -30.1190   24.3770 C   0  0  0  0  0  1  0  0  0  0  0  0
  -27.6270  -32.2670   25.5010 C   0  0  0  0  0  1  0  0  0  0  0  0
  1  5  1  0
  2  1  1  0
  2  6  1  0
  4  3  1  0
  5  7  1  0
  5  3  1  0
  8  4  1  0
  8  9  1  0
 10 16  1  0
 11 16  1  0
 12 13  1  0
 12 11  1  0
 14 13  1  0
 14 21  1  0
 14 15  1  0
 16 15  1  0
 17 10  1  0
 18 19  2  0
 19 38  1  0
 20 19  1  0
 20 23  1  0
 21 22  1  0
 21 18  1  0
 22 20  2  0
 23 24  1  0
 24 25  2  0
 26 29  1  0
 26 25  1  0
 27 26  2  0
 28 27  1  0
 28 23  2  0
 29 30  1  0
 30 35  2  0
 30 31  1  0
 31 32  2  0
 33 32  1  0
 33 37  1  0
 34 33  2  0
 35 34  1  0
 36 35  1  0
 38 39  1  0
 39 42  1  0
 39 41  1  0
 40 38  2  0
 43 18  1  0
 43 44  1  0
 45 43  1  0
 46 47  1  0
 48 59  2  0
 49 47  1  0
 49 54  1  0
 50 58  1  0
 50 60  1  0
 51 57  1  0
 51 53  1  0
 52 58  1  0
 53 52  1  0
 54 53  2  0
 55 56  1  0
 55 49  2  0
 56 51  2  0
 57 50  1  0
 58 48  1  0
 60 62  2  0
 61 60  1  0
 63 61  1  0
 64 73  2  0
 64 69  1  0
 65 61  1  0
 65 69  1  0
 66 65  1  0
 67 68  1  0
 67 66  1  0
 68 64  1  0
 69 70  2  0
 70 71  1  0
 72 71  2  0
 73 72  1  0
 74 48  1  0
 74 75  1  0
 74 84  1  0
 75 78  1  0
 76 80  1  0
 76 75  1  0
 77 76  2  0
 80 79  1  0
 82 80  1  0
 82 83  1  0
 82 81  1  0
 84 87  1  1
 84 85  1  0
 86 84  1  0
M  ISO  4   8 100  10 100  46 101  47 101
M  END
>  <TORSDO>  (22) 
F 17

>  <SCORE>  (22) 
-14.353

>  <name>  (22) 
21

>  <ligand_id>  (22) 
21

>  <original_smiles>  (22) 
[H]c1c([H])c([H])c2c(c1[H])C([H])([H])C([H])([H])C([H])([H])C2([H])N([H])C(=O)C1([H])N(C(=O)C([H])(N([H])C(=O)C([H])(N([H])C([H])([H])[H])C([H])([H])[H])C(C([H])([H])[H])(C([H])([H])[H])C([H])([H])[H])C([H])([H])c2c([H])c(OC([H])([H])C3([H])C4([H])C([H])([H])C([H])([H])C3([H])C(C(=O)N3C([H])([H])C([H])([H])C([H])([H])C([H])(n5nc(-c6c([H])c([H])c(Oc7c([H])c([H])c(F)c([H])c7F)c([H])c6[H])c(C(=O)N([H])[H])c5N([H])[H])C3([H])[H])(C([H])([H])[H])C([H])([H])C4([H])[H])c([H])c([H])c2C1([H])[H]

>  <smiles>  (22) 
[H]c1c([H])c([H])c2c(c1[H])C([H])([H])C([H])([H])C([H])([H])C2([H])N([H])C(=O)C1([H])N(C(=O)C([H])(N([H])C(=O)C([H])(N([H])C([H])([H])[H])C([H])([H])[H])C(C([H])([H])[H])(C([H])([H])[H])C([H])([H])[H])C([H])([H])c2c([H])c(OC([H])([H])C3([H])C4([H])C([H])([H])C([H])([H])C3([H])C(C(=O)N3C([H])([H])C([H])([H])C([H])([H])C([H])(n5nc(-c6c([H])c([H])c(Oc7c([H])c([H])c(F)c([H])c7F)c([H])c6[H])c(C(=O)N([H])[H])c5N([H])[H])C3([H])[H])(C([H])([H])[H])C([H])([H])C4([H])[H])c([H])c([H])c2C1([H])[H]

$$$$
22:0:0
     RDKit          3D

 97106  0  0  1  0  0  0  0  0999 V2000
  -28.7510  -19.2000   20.6270 C   0  0  0  0  0  2  0  0  0  0  0  0
  -31.4620  -20.3580   16.1420 C   0  0  0  0  0  2  0  0  0  0  0  0
  -31.8730  -20.9660   17.4970 C   0  0  0  0  0  2  0  0  0  0  0  0
  -28.7440  -16.8010   18.5300 C   0  0  0  0  0  2  0  0  0  0  0  0
  -30.0660  -19.7040   16.1980 C   0  0  0  0  0  2  0  0  0  0  0  0
  -31.7760  -19.9290   18.6310 C   0  0  0  0  0  2  0  0  0  0  0  0
  -28.6780  -17.9070   17.4450 C   0  0  0  0  0  2  0  0  0  0  0  0
  -29.9020  -17.0200   19.5310 C   0  0  0  0  0  3  0  0  0  0  0  0
  -30.0130  -18.6690   17.3300 C   0  0  0  0  0  3  0  0  0  0  0  0
  -30.3460  -19.3680   18.6760 C   0  0  0  0  0  3  0  0  0  0  0  0
  -30.0030  -18.5280   19.9570 C   0  0  0  0  0  3  0  0  0  0  0  0
  -29.8030  -16.0120   21.8710 C   0  0  0  0  0  2  0  0  0  0  0  0
  -30.1070  -15.8820   20.5660 C   0  0  0  0  0  0  0  0  0  0  0  0
  -30.7940  -14.6570   20.0920 C   0  0  0  0  0  0  0  0  0  0  0  0
  -30.3920  -12.5290   18.9190 C   0  0  0  0  0  2  0  0  0  0  0  0
  -29.3940  -12.7780   17.7700 C   0  0  0  0  0  2  0  0  0  0  0  0
  -27.9420  -12.6450   18.2690 C   0  0  0  0  0  2  0  0  0  0  0  0
  -27.6800  -13.4230   19.5870 C   0  0  0  0  0  3  0  0  0  0  0  0
  -28.7950  -13.1650   20.6180 C   0  0  0  0  0  2  0  0  0  0  0  0
  -30.0860  -13.4910   19.9940 N   0  0  0  0  0  0  0  0  0  0  0  0
  -31.9280  -14.7450   19.6130 O   0  0  0  0  0  0  0  0  0  0  0  0
  -25.3320  -14.0060   20.4520 C   0  0  0  0  0  0  0  0  0  0  0  0
  -24.2870  -13.2210   20.8600 C   0  0  0  0  0  0  0  0  0  0  0  0
  -24.7500  -11.8720   20.7750 C   0  0  0  0  0  0  0  0  0  0  0  0
  -26.3600  -13.1320   20.1370 N   0  0  0  0  0  0  0  0  0  0  0  0
  -26.0200  -11.8430   20.3900 N   0  0  0  0  0  0  0  0  0  0  0  0
  -24.0400  -10.6040   20.9770 C   0  0  0  0  0  0  0  0  0  0  0  0
  -24.5010   -9.6340   21.8940 C   0  0  0  0  0  3  0  0  0  0  0  0
  -23.7880   -8.4290   22.0810 C   0  0  0  0  0  3  0  0  0  0  0  0
  -22.6000   -8.1880   21.3510 C   0  0  0  0  0  0  0  0  0  0  0  0
  -22.1590   -9.1460   20.4220 C   0  0  0  0  0  3  0  0  0  0  0  0
  -22.8720  -10.3420   20.2330 C   0  0  0  0  0  3  0  0  0  0  0  0
  -21.8540   -7.0390   21.4500 O   0  0  0  0  0  0  0  0  0  0  0  0
  -21.8100   -6.3060   22.6100 C   0  0  0  0  0  0  0  0  0  0  0  0
  -21.3890   -6.8720   23.8340 C   0  0  0  0  0  3  0  0  0  0  0  0
  -21.2960   -6.0660   24.9860 C   0  0  0  0  0  3  0  0  0  0  0  0
  -21.6110   -4.6960   24.9160 C   0  0  0  0  0  0  0  0  0  0  0  0
  -22.0220   -4.1300   23.6970 C   0  0  0  0  0  3  0  0  0  0  0  0
  -22.1200   -4.9330   22.5470 C   0  0  0  0  0  0  0  0  0  0  0  0
  -22.4970   -4.3770   21.3690 F   0  0  0  0  0  0  0  0  0  0  0  0
  -21.5140   -3.9200   26.0200 F   0  0  0  0  0  0  0  0  0  0  0  0
  -22.9070  -13.6890   21.2230 C   0  0  0  0  0  0  0  0  0  0  0  0
  -22.2320  -12.9770   22.1200 N   0  0  0  0  0  0  0  0  0  0  0  0
  -22.4370  -14.7210   20.7490 O   0  0  0  0  0  0  0  0  0  0  0  0
  -22.6210  -12.1410   22.5310 H   0  0  0  0  0  0  0  0  0  0  0  0
  -21.3090  -13.2760   22.3970 H   0  0  0  0  0  0  0  0  0  0  0  0
  -25.4880  -15.3820   20.3090 N   0  0  0  0  0  0  0  0  0  0  0  0
  -24.7470  -16.0430   20.5110 H   0  0  0  0  0  0  0  0  0  0  0  0
  -26.3540  -15.8340   20.0460 H   0  0  0  0  0  0  0  0  0  0  0  0
  -29.0640  -20.6230   21.2040 C   0  0  0  0  0  2  0  0  0  0  0  0
  -28.1000  -21.7000   20.8210 N   0  0  0  0  0  4  0  0  0  0  0  0
  -27.3490  -21.7160   21.4950 H   0  0  0  0  0  0  0  0  0  0  0  0
  -27.7000  -21.4570   19.9300 H   0  0  0  0  0  0  0  0  0  0  0  0
  -28.7100  -23.0610   20.7060 C   0  0  0  0  0  2  0  0  0  0  0  0
  -27.7420  -24.1980   20.2450 C   0  0  0  0  0  2  0  0  0  0  0  0
  -28.4420  -25.4270   19.5700 C   0  0  0  0  0  2  0  0  0  0  0  0
  -28.3290  -26.7230   20.1950 O   0  0  0  0  0  0  0  0  0  0  0  0
  -24.5760  -31.9500   23.2160 C   0  0  0  0  0  0  0  0  0  0  0  0
  -27.1580  -27.4590   20.1320 C   0  0  0  0  0  0  0  0  0  0  0  0
  -23.3480  -30.5500   21.5890 C   0  0  0  0  0  3  0  0  0  0  0  0
  -24.7770  -29.0030   20.1440 C   0  0  0  0  0  0  0  0  0  0  0  0
  -25.8710  -30.8920   21.3620 C   0  0  0  0  0  2  0  0  0  0  0  0
  -25.9400  -29.5130   20.7310 C   0  0  0  0  0  0  0  0  0  0  0  0
  -27.1270  -28.7450   20.7280 C   0  0  0  0  0  3  0  0  0  0  0  0
  -25.9780  -26.9760   19.5200 C   0  0  0  0  0  3  0  0  0  0  0  0
  -24.7940  -27.7370   19.5320 C   0  0  0  0  0  3  0  0  0  0  0  0
  -23.5400  -29.8730   20.2030 C   0  0  0  0  0  2  0  0  0  0  0  0
  -24.6180  -31.1470   22.1130 N   0  0  0  0  0  0  0  0  0  0  0  0
  -23.5020  -32.2250   23.7660 O   0  0  0  0  0  0  0  0  0  0  0  0
  -22.7050  -29.5330   22.5580 C   0  0  0  0  0  0  0  0  0  0  0  0
  -21.3790  -29.3510   22.4460 N   0  0  0  0  0  0  0  0  0  0  0  0
  -23.3960  -28.9090   23.3700 O   0  0  0  0  0  0  0  0  0  0  0  0
  -20.8820  -29.9160   21.7720 H   0  0  0  0  0  0  0  0  0  0  0  0
  -18.0080  -28.1620   22.9740 C   0  0  0  0  0  0  0  0  0  0  0  0
  -20.5680  -28.4160   23.2250 C   0  0  0  0  0  3  0  0  0  0  0  0
  -20.6630  -26.9830   22.6520 C   0  0  0  0  0  2  0  0  0  0  0  0
  -19.5530  -26.6600   21.6470 C   0  0  0  0  0  2  0  0  0  0  0  0
  -18.1770  -26.8090   22.3010 C   0  0  0  0  0  2  0  0  0  0  0  0
  -19.1310  -28.9220   23.3920 C   0  0  0  0  0  0  0  0  0  0  0  0
  -18.9190  -30.1880   23.9820 C   0  0  0  0  0  3  0  0  0  0  0  0
  -17.6160  -30.6920   24.1570 C   0  0  0  0  0  3  0  0  0  0  0  0
  -16.5070  -29.9280   23.7540 C   0  0  0  0  0  3  0  0  0  0  0  0
  -16.7040  -28.6660   23.1660 C   0  0  0  0  0  3  0  0  0  0  0  0
  -25.8700  -32.5770   23.8220 C   0  0  0  0  0  3  0  0  0  0  0  0
  -25.5680  -33.9750   24.1560 N   0  0  0  0  0  0  0  0  0  0  0  0
  -25.9090  -35.0290   23.4020 C   0  0  0  0  0  0  0  0  0  0  0  0
  -26.5800  -34.9250   22.3710 O   0  0  0  0  0  0  0  0  0  0  0  0
  -24.9710  -34.1300   24.9550 H   0  0  0  0  0  0  0  0  0  0  0  0
  -24.2000  -36.8410   23.0410 C   0  0  0  0  0  1  0  0  0  0  0  0
  -25.4280  -36.4180   23.8630 C   0  0  0  0  0  3  0  0  0  0  0  0
  -27.5630  -37.2810   24.7190 C   0  0  0  0  0  1  0  0  0  0  0  0
  -26.4700  -37.4630   23.7680 N   0  0  0  0  0  0  0  0  0  0  0  0
  -26.0700  -38.3870   23.9140 H   0  0  0  0  0  0  0  0  0  0  0  0
  -26.4030  -31.8020   25.0880 C   0  0  1  0  0  0  0  0  0  0  0  0
  -25.3270  -31.5620   26.1730 C   0  0  0  0  0  1  0  0  0  0  0  0
  -26.9780  -30.4250   24.6770 C   0  0  0  0  0  1  0  0  0  0  0  0
  -27.5650  -32.5910   25.7380 C   0  0  0  0  0  1  0  0  0  0  0  0
  1 50  1  0
  2  5  1  0
  2  3  1  0
  3  6  1  0
  4  8  1  0
  7  4  1  0
  8 11  1  0
  8 13  1  0
  9  5  1  0
  9  7  1  0
  9 10  1  0
 10  6  1  0
 10 11  1  0
 11  1  1  0
 13 12  2  0
 14 13  1  0
 15 20  1  0
 16 17  1  0
 16 15  1  0
 18 17  1  0
 18 25  1  0
 18 19  1  0
 20 14  1  0
 20 19  1  0
 21 14  2  0
 22 23  2  0
 23 42  1  0
 24 23  1  0
 24 27  1  0
 25 26  1  0
 25 22  1  0
 26 24  2  0
 27 28  1  0
 28 29  2  0
 30 33  1  0
 30 29  1  0
 31 30  2  0
 32 31  1  0
 32 27  2  0
 33 34  1  0
 34 35  1  0
 35 36  2  0
 37 36  1  0
 37 41  1  0
 38 37  2  0
 39 34  2  0
 39 38  1  0
 40 39  1  0
 42 43  1  0
 43 46  1  0
 43 45  1  0
 44 42  2  0
 47 22  1  0
 47 48  1  0
 49 47  1  0
 51 50  1  0
 51 52  1  0
 53 51  1  0
 54 51  1  0
 55 54  1  0
 56 57  1  0
 56 55  1  0
 58 69  2  0
 59 57  1  0
 59 64  1  0
 60 68  1  0
 60 70  1  0
 61 67  1  0
 61 63  1  0
 62 68  1  0
 63 62  1  0
 64 63  2  0
 65 66  1  0
 65 59  2  0
 66 61  2  0
 67 60  1  0
 68 58  1  0
 70 72  2  0
 71 70  1  0
 73 71  1  0
 74 83  2  0
 74 79  1  0
 75 71  1  0
 75 79  1  0
 76 75  1  0
 77 78  1  0
 77 76  1  0
 78 74  1  0
 79 80  2  0
 80 81  1  0
 82 81  2  0
 83 82  1  0
 84 58  1  0
 84 85  1  0
 84 94  1  0
 85 88  1  0
 86 90  1  0
 86 85  1  0
 87 86  2  0
 90 89  1  0
 92 90  1  0
 92 93  1  0
 92 91  1  0
 94 97  1  1
 94 95  1  0
 96 94  1  0
M  ISO  4  13 100  14 100  56 101  57 101
M  END
>  <TORSDO>  (23) 
F 23

>  <SCORE>  (23) 
-12.357

>  <name>  (23) 
22

>  <ligand_id>  (23) 
22

>  <original_smiles>  (23) 
[H]C([H])=C(C(=O)N1C([H])([H])C([H])([H])C([H])([H])C([H])(n2nc(-c3c([H])c([H])c(Oc4c([H])c([H])c(F)c([H])c4F)c([H])c3[H])c(C(=O)N([H])[H])c2N([H])[H])C1([H])[H])C1([H])C([H])([H])C([H])([H])C2([H])C([H])([H])C([H])([H])C([H])([H])C([H])([H])C2([H])C1([H])C([H])([H])C([H])([H])[N+]([H])([H])C([H])([H])C([H])([H])C([H])([H])Oc1c([H])c([H])c2c(c1[H])C([H])([H])N(C(=O)C([H])(N([H])C(=O)C([H])(N([H])C([H])([H])[H])C([H])([H])[H])C(C([H])([H])[H])(C([H])([H])[H])C([H])([H])[H])C([H])(C(=O)N([H])C1([H])c3c([H])c([H])c([H])c([H])c3C([H])([H])C([H])([H])C1([H])[H])C2([H])[H]

>  <smiles>  (23) 
[H]C([H])=C(C(=O)N1C([H])([H])C([H])([H])C([H])([H])C([H])(n2nc(-c3c([H])c([H])c(Oc4c([H])c([H])c(F)c([H])c4F)c([H])c3[H])c(C(=O)N([H])[H])c2N([H])[H])C1([H])[H])C1([H])C([H])([H])C([H])([H])C2([H])C([H])([H])C([H])([H])C([H])([H])C([H])([H])C2([H])C1([H])C([H])([H])C([H])([H])[N+]([H])([H])C([H])([H])C([H])([H])C([H])([H])Oc1c([H])c([H])c2c(c1[H])C([H])([H])N(C(=O)C([H])(N([H])C(=O)C([H])(N([H])C([H])([H])[H])C([H])([H])[H])C(C([H])([H])[H])(C([H])([H])[H])C([H])([H])[H])C([H])(C(=O)N([H])C1([H])c3c([H])c([H])c([H])c([H])c3C([H])([H])C([H])([H])C1([H])[H])C2([H])[H]

$$$$
23:0:0
     RDKit          3D

 91100  0  0  1  0  0  0  0  0999 V2000
  -28.9470  -21.2130   20.5580 C   0  0  0  0  0  0  0  0  0  0  0  0
  -32.4940  -20.1650   16.8430 C   0  0  0  0  0  2  0  0  0  0  0  0
  -31.4130  -21.2360   16.7610 C   0  0  0  0  0  2  0  0  0  0  0  0
  -31.8270  -18.8110   17.0690 C   0  0  0  0  0  2  0  0  0  0  0  0
  -30.6720  -21.3160   18.0950 C   0  0  0  0  0  2  0  0  0  0  0  0
  -31.3360  -18.5200   19.5880 C   0  0  0  0  0  2  0  0  0  0  0  0
  -30.7790  -18.7910   18.2100 C   0  0  0  0  0  3  0  0  0  0  0  0
  -29.8740  -20.0330   18.4490 C   0  0  0  0  0  3  0  0  0  0  0  0
  -30.0440  -18.4960   20.3960 C   0  0  0  0  0  3  0  0  0  0  0  0
  -29.4040  -19.9610   19.8790 N   0  0  0  0  0  0  0  0  0  0  0  0
  -28.7380  -21.1070   21.7680 O   0  0  0  0  0  0  0  0  0  0  0  0
  -29.5290  -16.7790   20.2990 C   0  0  0  0  0  2  0  0  0  0  0  0
  -30.4060  -15.2680   20.1720 C   0  0  0  0  0  0  0  0  0  0  0  0
  -30.3940  -12.8410   19.2710 C   0  0  0  0  0  2  0  0  0  0  0  0
  -29.4460  -12.6950   18.0520 C   0  0  0  0  0  2  0  0  0  0  0  0
  -28.0020  -12.4350   18.5140 C   0  0  0  0  0  2  0  0  0  0  0  0
  -27.5820  -13.3810   19.6680 C   0  0  0  0  0  3  0  0  0  0  0  0
  -28.6490  -13.4630   20.7760 C   0  0  0  0  0  2  0  0  0  0  0  0
  -29.8830  -13.9520   20.1500 N   0  0  0  0  0  0  0  0  0  0  0  0
  -31.6190  -15.2810   19.9150 O   0  0  0  0  0  0  0  0  0  0  0  0
  -25.2250  -13.9250   20.4730 C   0  0  0  0  0  0  0  0  0  0  0  0
  -24.1760  -13.1360   20.8580 C   0  0  0  0  0  0  0  0  0  0  0  0
  -24.6520  -11.7910   20.8100 C   0  0  0  0  0  0  0  0  0  0  0  0
  -26.2660  -13.0580   20.2000 N   0  0  0  0  0  0  0  0  0  0  0  0
  -25.9370  -11.7680   20.4740 N   0  0  0  0  0  0  0  0  0  0  0  0
  -23.9400  -10.5210   21.0040 C   0  0  0  0  0  0  0  0  0  0  0  0
  -24.3870   -9.5560   21.9330 C   0  0  0  0  0  3  0  0  0  0  0  0
  -23.6720   -8.3530   22.1170 C   0  0  0  0  0  3  0  0  0  0  0  0
  -22.4970   -8.1050   21.3680 C   0  0  0  0  0  0  0  0  0  0  0  0
  -22.0700   -9.0580   20.4250 C   0  0  0  0  0  3  0  0  0  0  0  0
  -22.7850  -10.2530   20.2420 C   0  0  0  0  0  3  0  0  0  0  0  0
  -21.7530   -6.9550   21.4590 O   0  0  0  0  0  0  0  0  0  0  0  0
  -21.7060   -6.2170   22.6150 C   0  0  0  0  0  0  0  0  0  0  0  0
  -21.2530   -6.7700   23.8320 C   0  0  0  0  0  3  0  0  0  0  0  0
  -21.1550   -5.9590   24.9810 C   0  0  0  0  0  3  0  0  0  0  0  0
  -21.5000   -4.5960   24.9120 C   0  0  0  0  0  0  0  0  0  0  0  0
  -21.9440   -4.0420   23.6980 C   0  0  0  0  0  3  0  0  0  0  0  0
  -22.0430   -4.8500   22.5520 C   0  0  0  0  0  0  0  0  0  0  0  0
  -22.4530   -4.3070   21.3800 F   0  0  0  0  0  0  0  0  0  0  0  0
  -21.3980   -3.8140   26.0120 F   0  0  0  0  0  0  0  0  0  0  0  0
  -22.7790  -13.6010   21.1540 C   0  0  0  0  0  0  0  0  0  0  0  0
  -22.0670  -12.8890   22.0210 N   0  0  0  0  0  0  0  0  0  0  0  0
  -22.3280  -14.6270   20.6510 O   0  0  0  0  0  0  0  0  0  0  0  0
  -22.4440  -12.0560   22.4480 H   0  0  0  0  0  0  0  0  0  0  0  0
  -21.1330  -13.1870   22.2640 H   0  0  0  0  0  0  0  0  0  0  0  0
  -25.3750  -15.2980   20.3030 N   0  0  0  0  0  0  0  0  0  0  0  0
  -24.6060  -15.9480   20.4360 H   0  0  0  0  0  0  0  0  0  0  0  0
  -26.2130  -15.7440   19.9530 H   0  0  0  0  0  0  0  0  0  0  0  0
  -28.7250  -22.8550   19.9760 C   0  0  0  0  0  2  0  0  0  0  0  0
  -28.0100  -24.3680   20.6120 C   0  0  0  0  0  2  0  0  0  0  0  0
  -28.2230  -25.9670   20.2940 O   0  0  0  0  0  0  0  0  0  0  0  0
  -24.6560  -31.9170   23.2330 C   0  0  0  0  0  0  0  0  0  0  0  0
  -27.2000  -27.0410   20.2710 C   0  0  0  0  0  0  0  0  0  0  0  0
  -23.4610  -30.5120   21.6050 C   0  0  0  0  0  3  0  0  0  0  0  0
  -24.9050  -28.9030   20.1930 C   0  0  0  0  0  0  0  0  0  0  0  0
  -26.0250  -30.7360   21.4480 C   0  0  0  0  0  2  0  0  0  0  0  0
  -26.0950  -29.3220   20.8030 C   0  0  0  0  0  0  0  0  0  0  0  0
  -27.2440  -28.4160   20.8080 C   0  0  0  0  0  3  0  0  0  0  0  0
  -25.9800  -26.7580   19.6190 C   0  0  0  0  0  3  0  0  0  0  0  0
  -24.8700  -27.6400   19.5780 C   0  0  0  0  0  3  0  0  0  0  0  0
  -23.6890  -29.8260   20.2320 C   0  0  0  0  0  2  0  0  0  0  0  0
  -24.7370  -31.0820   22.1490 N   0  0  0  0  0  0  0  0  0  0  0  0
  -23.5680  -32.2090   23.7530 O   0  0  0  0  0  0  0  0  0  0  0  0
  -22.7710  -29.5200   22.5740 C   0  0  0  0  0  0  0  0  0  0  0  0
  -21.4400  -29.3540   22.4500 N   0  0  0  0  0  0  0  0  0  0  0  0
  -23.4370  -28.8990   23.4080 O   0  0  0  0  0  0  0  0  0  0  0  0
  -20.9560  -29.9060   21.7550 H   0  0  0  0  0  0  0  0  0  0  0  0
  -18.0580  -28.1480   22.9650 C   0  0  0  0  0  0  0  0  0  0  0  0
  -20.6180  -28.4200   23.2260 C   0  0  0  0  0  3  0  0  0  0  0  0
  -20.7210  -26.9840   22.6590 C   0  0  0  0  0  2  0  0  0  0  0  0
  -19.6210  -26.6550   21.6470 C   0  0  0  0  0  2  0  0  0  0  0  0
  -18.2370  -26.7980   22.2900 C   0  0  0  0  0  2  0  0  0  0  0  0
  -19.1760  -28.9170   23.3900 C   0  0  0  0  0  0  0  0  0  0  0  0
  -18.9530  -30.1770   23.9820 C   0  0  0  0  0  3  0  0  0  0  0  0
  -17.6460  -30.6730   24.1520 C   0  0  0  0  0  3  0  0  0  0  0  0
  -16.5430  -29.9020   23.7440 C   0  0  0  0  0  3  0  0  0  0  0  0
  -16.7510  -28.6430   23.1560 C   0  0  0  0  0  3  0  0  0  0  0  0
  -25.9290  -32.5620   23.8620 C   0  0  0  0  0  3  0  0  0  0  0  0
  -26.4280  -31.8120   25.1600 C   0  0  1  0  0  0  0  0  0  0  0  0
  -25.3220  -31.5930   26.2210 C   0  0  0  0  0  1  0  0  0  0  0  0
  -27.0150  -30.4260   24.8050 C   0  0  0  0  0  1  0  0  0  0  0  0
  -27.5740  -32.6160   25.8210 C   0  0  0  0  0  1  0  0  0  0  0  0
  -25.6100  -33.9670   24.1780 N   0  0  0  0  0  0  0  0  0  0  0  0
  -25.9490  -35.0200   23.4240 C   0  0  0  0  0  0  0  0  0  0  0  0
  -26.6290  -34.9150   22.4020 O   0  0  0  0  0  0  0  0  0  0  0  0
  -25.0000  -34.1220   24.9680 H   0  0  0  0  0  0  0  0  0  0  0  0
  -24.2350  -36.8290   23.0530 C   0  0  0  0  0  1  0  0  0  0  0  0
  -25.4650  -36.4140   23.8770 C   0  0  0  0  0  3  0  0  0  0  0  0
  -27.5910  -37.2930   24.7340 C   0  0  0  0  0  1  0  0  0  0  0  0
  -26.5040  -37.4620   23.7740 N   0  0  0  0  0  0  0  0  0  0  0  0
  -26.1020  -38.3850   23.9120 H   0  0  0  0  0  0  0  0  0  0  0  0
  1 11  2  0
  2  4  1  0
  3  2  1  0
  3  5  1  0
  6  9  1  0
  7  4  1  0
  7  8  1  0
  7  6  1  0
  8  5  1  0
  8 10  1  0
  9 12  1  0
 10  9  1  0
 10  1  1  0
 13 12  1  0
 14 19  1  0
 15 16  1  0
 15 14  1  0
 17 16  1  0
 17 24  1  0
 17 18  1  0
 19 13  1  0
 19 18  1  0
 20 13  2  0
 21 22  2  0
 22 41  1  0
 23 22  1  0
 23 26  1  0
 24 21  1  0
 24 25  1  0
 25 23  2  0
 26 27  1  0
 27 28  2  0
 29 32  1  0
 29 28  1  0
 30 29  2  0
 31 30  1  0
 31 26  2  0
 32 33  1  0
 33 34  1  0
 34 35  2  0
 36 35  1  0
 36 40  1  0
 37 36  2  0
 38 33  2  0
 38 37  1  0
 39 38  1  0
 41 42  1  0
 42 45  1  0
 42 44  1  0
 43 41  2  0
 46 47  1  0
 46 21  1  0
 48 46  1  0
 49  1  1  0
 49 50  1  0
 51 50  1  0
 52 63  2  0
 53 51  1  0
 53 58  1  0
 54 62  1  0
 54 64  1  0
 55 61  1  0
 55 57  1  0
 56 62  1  0
 57 58  2  0
 57 56  1  0
 59 53  2  0
 60 59  1  0
 60 55  2  0
 61 54  1  0
 62 52  1  0
 64 66  2  0
 65 64  1  0
 67 65  1  0
 68 77  2  0
 68 73  1  0
 69 65  1  0
 69 73  1  0
 70 69  1  0
 71 72  1  0
 71 70  1  0
 72 68  1  0
 73 74  2  0
 74 75  1  0
 76 75  2  0
 77 76  1  0
 78 52  1  0
 78 83  1  0
 78 79  1  0
 79 82  1  1
 79 80  1  0
 81 79  1  0
 83 86  1  0
 84 88  1  0
 84 83  1  0
 85 84  2  0
 88 87  1  0
 90 88  1  0
 90 91  1  0
 90 89  1  0
M  ISO  4  12 100  13 100  50 101  51 101
M  END
>  <TORSDO>  (24) 
F 19

>  <SCORE>  (24) 
-16.353

>  <name>  (24) 
23

>  <ligand_id>  (24) 
23

>  <original_smiles>  (24) 
[H]c1c([H])c([H])c2c(c1[H])C([H])([H])C([H])([H])C([H])([H])C2([H])N([H])C(=O)C1([H])N(C(=O)C([H])(N([H])C(=O)C([H])(N([H])C([H])([H])[H])C([H])([H])[H])C(C([H])([H])[H])(C([H])([H])[H])C([H])([H])[H])C([H])([H])c2c([H])c(OC([H])([H])C([H])([H])C(=O)N3C([H])(C([H])([H])C(=O)N4C([H])([H])C([H])([H])C([H])([H])C([H])(n5nc(-c6c([H])c([H])c(Oc7c([H])c([H])c(F)c([H])c7F)c([H])c6[H])c(C(=O)N([H])[H])c5N([H])[H])C4([H])[H])C([H])([H])C4([H])C([H])([H])C([H])([H])C([H])([H])C([H])([H])C34[H])c([H])c([H])c2C1([H])[H]

>  <smiles>  (24) 
[H]c1c([H])c([H])c2c(c1[H])C([H])([H])C([H])([H])C([H])([H])C2([H])N([H])C(=O)C1([H])N(C(=O)C([H])(N([H])C(=O)C([H])(N([H])C([H])([H])[H])C([H])([H])[H])C(C([H])([H])[H])(C([H])([H])[H])C([H])([H])[H])C([H])([H])c2c([H])c(OC([H])([H])C([H])([H])C(=O)N3C([H])(C([H])([H])C(=O)N4C([H])([H])C([H])([H])C([H])([H])C([H])(n5nc(-c6c([H])c([H])c(Oc7c([H])c([H])c(F)c([H])c7F)c([H])c6[H])c(C(=O)N([H])[H])c5N([H])[H])C4([H])[H])C([H])([H])C4([H])C([H])([H])C([H])([H])C([H])([H])C([H])([H])C34[H])c([H])c([H])c2C1([H])[H]

$$$$
24:0:0
     RDKit          3D

 94103  0  0  1  0  0  0  0  0999 V2000
  -28.1550  -19.5330   21.2550 C   0  0  0  0  0  1  0  0  0  0  0  0
  -29.5430  -20.1130   20.9550 C   0  0  0  0  0  3  0  0  0  0  0  0
  -32.7970  -18.8490   19.4700 C   0  0  0  0  0  2  0  0  0  0  0  0
  -31.7930  -19.8980   19.8680 C   0  0  0  0  0  2  0  0  0  0  0  0
  -32.3700  -17.6590   20.3010 C   0  0  0  0  0  2  0  0  0  0  0  0
  -30.1660  -16.1970   20.7800 C   0  0  0  0  0  3  0  0  0  0  0  0
  -30.4510  -19.1550   20.0610 C   0  0  0  0  0  3  0  0  0  0  0  0
  -30.8340  -17.6030   20.3360 C   0  0  1  0  0  0  0  0  0  0  0  0
  -30.0230  -16.7160   19.3630 C   0  0  1  0  0  0  0  0  0  0  0  0
  -30.7610  -16.2080   18.1290 C   0  0  0  0  0  1  0  0  0  0  0  0
  -28.5980  -17.0560   18.9160 C   0  0  0  0  0  1  0  0  0  0  0  0
  -30.9580  -14.8430   20.9520 C   0  0  0  0  0  0  0  0  0  0  0  0
  -30.8380  -12.4980   20.1670 C   0  0  0  0  0  2  0  0  0  0  0  0
  -30.0510  -12.4580   18.8410 C   0  0  0  0  0  2  0  0  0  0  0  0
  -28.5360  -12.3480   19.0990 C   0  0  0  0  0  2  0  0  0  0  0  0
  -28.0280  -13.3170   20.2000 C   0  0  0  0  0  3  0  0  0  0  0  0
  -28.9570  -13.3540   21.4280 C   0  0  0  0  0  2  0  0  0  0  0  0
  -30.3160  -13.6310   20.9600 N   0  0  0  0  0  0  0  0  0  0  0  0
  -32.1870  -14.8380   20.8930 O   0  0  0  0  0  0  0  0  0  0  0  0
  -25.5820  -13.9370   20.6740 C   0  0  0  0  0  0  0  0  0  0  0  0
  -24.4810  -13.1760   20.9520 C   0  0  0  0  0  0  0  0  0  0  0  0
  -24.9400  -11.8240   21.0050 C   0  0  0  0  0  0  0  0  0  0  0  0
  -26.6410  -13.0510   20.5660 N   0  0  0  0  0  0  0  0  0  0  0  0
  -26.2550  -11.7770   20.8310 N   0  0  0  0  0  0  0  0  0  0  0  0
  -24.1920  -10.5690   21.1530 C   0  0  0  0  0  0  0  0  0  0  0  0
  -24.5410   -9.6170   22.1370 C   0  0  0  0  0  3  0  0  0  0  0  0
  -23.7980   -8.4250   22.2740 C   0  0  0  0  0  3  0  0  0  0  0  0
  -22.6950   -8.1750   21.4250 C   0  0  0  0  0  0  0  0  0  0  0  0
  -22.3670   -9.1140   20.4320 C   0  0  0  0  0  3  0  0  0  0  0  0
  -23.1080  -10.2990   20.2940 C   0  0  0  0  0  3  0  0  0  0  0  0
  -21.9320   -7.0330   21.4680 O   0  0  0  0  0  0  0  0  0  0  0  0
  -21.7830   -6.3110   22.6240 C   0  0  0  0  0  0  0  0  0  0  0  0
  -21.2390   -6.8820   23.7950 C   0  0  0  0  0  3  0  0  0  0  0  0
  -21.0380   -6.0870   24.9400 C   0  0  0  0  0  3  0  0  0  0  0  0
  -21.3700   -4.7190   24.9140 C   0  0  0  0  0  0  0  0  0  0  0  0
  -21.9070   -4.1460   23.7470 C   0  0  0  0  0  3  0  0  0  0  0  0
  -22.1090   -4.9400   22.6040 C   0  0  0  0  0  0  0  0  0  0  0  0
  -22.6070   -4.3790   21.4770 F   0  0  0  0  0  0  0  0  0  0  0  0
  -21.1690   -3.9510   26.0100 F   0  0  0  0  0  0  0  0  0  0  0  0
  -23.0650  -13.6610   21.0650 C   0  0  0  0  0  0  0  0  0  0  0  0
  -22.2550  -12.9970   21.8800 N   0  0  0  0  0  0  0  0  0  0  0  0
  -22.6830  -14.6640   20.4630 O   0  0  0  0  0  0  0  0  0  0  0  0
  -22.5770  -12.1870   22.3900 H   0  0  0  0  0  0  0  0  0  0  0  0
  -21.2980  -13.2980   21.9970 H   0  0  0  0  0  0  0  0  0  0  0  0
  -25.7680  -15.3020   20.4830 N   0  0  0  0  0  0  0  0  0  0  0  0
  -24.9920  -15.9550   20.5030 H   0  0  0  0  0  0  0  0  0  0  0  0
  -26.6480  -15.7310   20.2310 H   0  0  0  0  0  0  0  0  0  0  0  0
  -29.4280  -21.4830   20.2950 N   0  0  0  0  0  4  0  0  0  0  0  0
  -30.3650  -21.7390   20.0290 H   0  0  0  0  0  0  0  0  0  0  0  0
  -28.9130  -21.3740   19.4360 H   0  0  0  0  0  0  0  0  0  0  0  0
  -28.8420  -22.6730   21.0250 C   0  0  0  0  0  2  0  0  0  0  0  0
  -28.9460  -24.0600   20.2490 C   0  0  0  0  0  3  0  0  0  0  0  0
  -28.3460  -25.3340   20.9640 C   0  0  0  0  0  3  0  0  0  0  0  0
  -28.4890  -26.6380   20.2970 O   0  0  0  0  0  0  0  0  0  0  0  0
  -24.6350  -31.9340   23.2600 C   0  0  0  0  0  0  0  0  0  0  0  0
  -27.3560  -27.4460   20.2560 C   0  0  0  0  0  0  0  0  0  0  0  0
  -23.4710  -30.5090   21.6100 C   0  0  0  0  0  3  0  0  0  0  0  0
  -24.9640  -28.9830   20.2050 C   0  0  0  0  0  0  0  0  0  0  0  0
  -26.0010  -30.8860   21.4460 C   0  0  0  0  0  2  0  0  0  0  0  0
  -26.1140  -29.5080   20.8090 C   0  0  0  0  0  0  0  0  0  0  0  0
  -27.3180  -28.7500   20.8250 C   0  0  0  0  0  3  0  0  0  0  0  0
  -26.1920  -26.9610   19.6280 C   0  0  0  0  0  3  0  0  0  0  0  0
  -25.0010  -27.7130   19.6050 C   0  0  0  0  0  3  0  0  0  0  0  0
  -23.7100  -29.8330   20.2340 C   0  0  0  0  0  2  0  0  0  0  0  0
  -24.7200  -31.1260   22.1630 N   0  0  0  0  0  0  0  0  0  0  0  0
  -23.5430  -32.1930   23.7830 O   0  0  0  0  0  0  0  0  0  0  0  0
  -22.8170  -29.4840   22.5660 C   0  0  0  0  0  0  0  0  0  0  0  0
  -21.4940  -29.2940   22.4330 N   0  0  0  0  0  0  0  0  0  0  0  0
  -23.4990  -28.8620   23.3850 O   0  0  0  0  0  0  0  0  0  0  0  0
  -21.0040  -29.8470   21.7440 H   0  0  0  0  0  0  0  0  0  0  0  0
  -18.1200  -28.0970   22.9380 C   0  0  0  0  0  0  0  0  0  0  0  0
  -20.6800  -28.3500   23.1980 C   0  0  0  0  0  3  0  0  0  0  0  0
  -20.7790  -26.9260   22.6070 C   0  0  0  0  0  2  0  0  0  0  0  0
  -19.6710  -26.6140   21.5940 C   0  0  0  0  0  2  0  0  0  0  0  0
  -18.2920  -26.7540   22.2470 C   0  0  0  0  0  2  0  0  0  0  0  0
  -19.2410  -28.8530   23.3700 C   0  0  0  0  0  0  0  0  0  0  0  0
  -19.0270  -30.1090   23.9770 C   0  0  0  0  0  3  0  0  0  0  0  0
  -17.7240  -30.6090   24.1560 C   0  0  0  0  0  3  0  0  0  0  0  0
  -16.6170  -29.8500   23.7410 C   0  0  0  0  0  3  0  0  0  0  0  0
  -16.8150  -28.5960   23.1360 C   0  0  0  0  0  3  0  0  0  0  0  0
  -25.9030  -32.5860   23.8940 C   0  0  0  0  0  3  0  0  0  0  0  0
  -25.5740  -33.9850   24.2010 N   0  0  0  0  0  0  0  0  0  0  0  0
  -25.9180  -35.0320   23.4390 C   0  0  0  0  0  0  0  0  0  0  0  0
  -26.6160  -34.9220   22.4270 O   0  0  0  0  0  0  0  0  0  0  0  0
  -24.9570  -34.1440   24.9850 H   0  0  0  0  0  0  0  0  0  0  0  0
  -24.1950  -36.8150   23.0110 C   0  0  0  0  0  1  0  0  0  0  0  0
  -25.4110  -36.4220   23.8680 C   0  0  0  0  0  3  0  0  0  0  0  0
  -27.5110  -37.3250   24.7650 C   0  0  0  0  0  1  0  0  0  0  0  0
  -26.4420  -37.4790   23.7810 N   0  0  0  0  0  0  0  0  0  0  0  0
  -26.0280  -38.3990   23.9040 H   0  0  0  0  0  0  0  0  0  0  0  0
  -26.4050  -31.8360   25.1890 C   0  0  1  0  0  0  0  0  0  0  0  0
  -25.2960  -31.6000   26.2400 C   0  0  0  0  0  1  0  0  0  0  0  0
  -27.0120  -30.4600   24.8240 C   0  0  0  0  0  1  0  0  0  0  0  0
  -27.5390  -32.6490   25.8590 C   0  0  0  0  0  1  0  0  0  0  0  0
  2  1  1  0
  3  4  1  0
  3  5  1  0
  4  7  1  0
  6 12  1  0
  7  8  1  0
  7  2  1  0
  8  5  1  6
  8  6  1  0
  9  8  1  0
  9  6  1  0
  9 10  1  6
 11  9  1  0
 12 18  1  0
 13 18  1  0
 14 15  1  0
 14 13  1  0
 16 15  1  0
 16 23  1  0
 16 17  1  0
 18 17  1  0
 19 12  2  0
 20 21  2  0
 21 22  1  0
 21 40  1  0
 22 25  1  0
 23 20  1  0
 23 24  1  0
 24 22  2  0
 25 26  1  0
 26 27  2  0
 28 31  1  0
 28 27  1  0
 29 28  2  0
 30 29  1  0
 30 25  2  0
 31 32  1  0
 32 33  1  0
 33 34  2  0
 35 34  1  0
 35 39  1  0
 36 35  2  0
 37 32  2  0
 37 36  1  0
 38 37  1  0
 40 41  1  0
 41 44  1  0
 41 43  1  0
 42 40  2  0
 45 46  1  0
 45 20  1  0
 47 45  1  0
 48  2  1  0
 48 51  1  0
 49 48  1  0
 50 48  1  0
 52 53  2  0
 52 51  1  0
 54 53  1  0
 55 66  2  0
 56 54  1  0
 56 61  1  0
 57 65  1  0
 57 67  1  0
 58 64  1  0
 58 60  1  0
 59 65  1  0
 60 61  2  0
 60 59  1  0
 62 56  2  0
 63 62  1  0
 63 58  2  0
 64 57  1  0
 65 55  1  0
 67 69  2  0
 68 67  1  0
 70 68  1  0
 71 80  2  0
 71 76  1  0
 72 68  1  0
 72 76  1  0
 73 72  1  0
 74 75  1  0
 74 73  1  0
 75 71  1  0
 76 77  2  0
 77 78  1  0
 79 78  2  0
 80 79  1  0
 81 55  1  0
 81 82  1  0
 81 91  1  0
 82 85  1  0
 83 87  1  0
 83 82  1  0
 84 83  2  0
 87 86  1  0
 89 87  1  0
 89 90  1  0
 89 88  1  0
 91 94  1  1
 91 92  1  0
 93 91  1  0
M  ISO  4   6 100  12 100  53 101  54 101
M  END
>  <TORSDO>  (25) 
F 21

>  <SCORE>  (25) 
-12.234

>  <name>  (25) 
24

>  <ligand_id>  (25) 
24

>  <original_smiles>  (25) 
[H]c1c([H])c([H])c2c(c1[H])C([H])([H])C([H])([H])C([H])([H])C2([H])N([H])C(=O)C1([H])N(C(=O)C([H])(N([H])C(=O)C([H])(N([H])C([H])([H])[H])C([H])([H])[H])C(C([H])([H])[H])(C([H])([H])[H])C([H])([H])[H])C([H])([H])c2c([H])c(OC([H])([H])C([H])([H])C([H])([H])[N+]([H])([H])C([H])(C([H])([H])[H])C3([H])C([H])([H])C([H])([H])C([H])([H])C34C([H])(C(=O)N3C([H])([H])C([H])([H])C([H])([H])C([H])(n5nc(-c6c([H])c([H])c(Oc7c([H])c([H])c(F)c([H])c7F)c([H])c6[H])c(C(=O)N([H])[H])c5N([H])[H])C3([H])[H])C4(C([H])([H])[H])C([H])([H])[H])c([H])c([H])c2C1([H])[H]

>  <smiles>  (25) 
[H]c1c([H])c([H])c2c(c1[H])C([H])([H])C([H])([H])C([H])([H])C2([H])N([H])C(=O)C1([H])N(C(=O)C([H])(N([H])C(=O)C([H])(N([H])C([H])([H])[H])C([H])([H])[H])C(C([H])([H])[H])(C([H])([H])[H])C([H])([H])[H])C([H])([H])c2c([H])c(OC([H])([H])C([H])([H])C([H])([H])[N+]([H])([H])C([H])(C([H])([H])[H])C3([H])C([H])([H])C([H])([H])C([H])([H])C34C([H])(C(=O)N3C([H])([H])C([H])([H])C([H])([H])C([H])(n5nc(-c6c([H])c([H])c(Oc7c([H])c([H])c(F)c([H])c7F)c([H])c6[H])c(C(=O)N([H])[H])c5N([H])[H])C3([H])[H])C4(C([H])([H])[H])C([H])([H])[H])c([H])c([H])c2C1([H])[H]

$$$$
25:0:0
     RDKit          3D

 94103  0  0  1  0  0  0  0  0999 V2000
  -30.7690  -20.6370   17.3750 C   0  0  0  0  0  1  0  0  0  0  0  0
  -29.6410  -20.2300   18.3370 C   0  0  0  0  0  3  0  0  0  0  0  0
  -29.5640  -17.4920   21.3540 C   0  0  0  0  0  2  0  0  0  0  0  0
  -30.5790  -20.0030   20.7400 C   0  0  0  0  0  2  0  0  0  0  0  0
  -29.8380  -17.5250   19.8160 C   0  0  0  0  0  3  0  0  0  0  0  0
  -30.8000  -17.8930   22.1400 C   0  0  0  0  0  3  0  0  0  0  0  0
  -31.3590  -19.2450   21.7970 C   0  0  0  0  0  3  0  0  0  0  0  0
  -30.2770  -19.1520   19.4750 C   0  0  0  0  0  3  0  0  0  0  0  0
  -30.8690  -18.9630   23.2140 C   0  0  2  0  0  0  0  0  0  0  0  0
  -31.8930  -18.7920   24.3200 C   0  0  0  0  0  1  0  0  0  0  0  0
  -29.6270  -19.6290   23.7870 C   0  0  0  0  0  1  0  0  0  0  0  0
  -30.7300  -16.1470   19.4920 C   0  0  0  0  0  0  0  0  0  0  0  0
  -30.8430  -13.6510   18.9520 C   0  0  0  0  0  2  0  0  0  0  0  0
  -29.8930  -13.2800   17.7870 C   0  0  0  0  0  2  0  0  0  0  0  0
  -28.4690  -13.0010   18.3040 C   0  0  0  0  0  2  0  0  0  0  0  0
  -27.9900  -14.0950   19.2880 C   0  0  0  0  0  3  0  0  0  0  0  0
  -29.0530  -14.3910   20.3560 C   0  0  0  0  0  2  0  0  0  0  0  0
  -30.2770  -14.8340   19.6680 N   0  0  0  0  0  0  0  0  0  0  0  0
  -31.8580  -16.2680   19.0010 O   0  0  0  0  0  0  0  0  0  0  0  0
  -25.7200  -14.6670   20.3270 C   0  0  0  0  0  0  0  0  0  0  0  0
  -24.6770  -13.8850   20.7480 C   0  0  0  0  0  0  0  0  0  0  0  0
  -25.0940  -12.5330   20.5550 C   0  0  0  0  0  0  0  0  0  0  0  0
  -26.6980  -13.7870   19.8940 N   0  0  0  0  0  0  0  0  0  0  0  0
  -26.3400  -12.4940   20.1000 N   0  0  0  0  0  0  0  0  0  0  0  0
  -24.3550  -11.2740   20.7190 C   0  0  0  0  0  0  0  0  0  0  0  0
  -24.7990  -10.2670   21.6040 C   0  0  0  0  0  3  0  0  0  0  0  0
  -24.0640   -9.0730   21.7550 C   0  0  0  0  0  3  0  0  0  0  0  0
  -22.8680   -8.8790   21.0230 C   0  0  0  0  0  0  0  0  0  0  0  0
  -22.4420   -9.8760   20.1270 C   0  0  0  0  0  3  0  0  0  0  0  0
  -23.1780  -11.0610   19.9730 C   0  0  0  0  0  3  0  0  0  0  0  0
  -22.0990   -7.7430   21.0880 O   0  0  0  0  0  0  0  0  0  0  0  0
  -22.0200   -6.9890   22.2320 C   0  0  0  0  0  0  0  0  0  0  0  0
  -21.4910   -7.5100   23.4340 C   0  0  0  0  0  3  0  0  0  0  0  0
  -21.3700   -6.6810   24.5660 C   0  0  0  0  0  3  0  0  0  0  0  0
  -21.7650   -5.3310   24.4970 C   0  0  0  0  0  0  0  0  0  0  0  0
  -22.2860   -4.8100   23.3010 C   0  0  0  0  0  3  0  0  0  0  0  0
  -22.4110   -5.6370   22.1710 C   0  0  0  0  0  0  0  0  0  0  0  0
  -22.8950   -5.1250   21.0130 F   0  0  0  0  0  0  0  0  0  0  0  0
  -21.6380   -4.5320   25.5820 F   0  0  0  0  0  0  0  0  0  0  0  0
  -23.3310  -14.3670   21.2050 C   0  0  0  0  0  0  0  0  0  0  0  0
  -22.6780  -13.6210   22.0930 N   0  0  0  0  0  0  0  0  0  0  0  0
  -22.8680  -15.4380   20.8140 O   0  0  0  0  0  0  0  0  0  0  0  0
  -23.0700  -12.7590   22.4400 H   0  0  0  0  0  0  0  0  0  0  0  0
  -21.7730  -13.9210   22.4280 H   0  0  0  0  0  0  0  0  0  0  0  0
  -25.9130  -16.0420   20.2490 N   0  0  0  0  0  0  0  0  0  0  0  0
  -25.2020  -16.7160   20.5140 H   0  0  0  0  0  0  0  0  0  0  0  0
  -26.7420  -16.4740   19.8570 H   0  0  0  0  0  0  0  0  0  0  0  0
  -28.7150  -21.4980   18.6130 N   0  0  0  0  0  4  0  0  0  0  0  0
  -28.2450  -21.6140   17.7300 H   0  0  0  0  0  0  0  0  0  0  0  0
  -27.9820  -21.2140   19.2420 H   0  0  0  0  0  0  0  0  0  0  0  0
  -29.1190  -22.9910   18.9680 C   0  0  0  0  0  2  0  0  0  0  0  0
  -28.2480  -24.3670   18.5030 C   0  0  0  0  0  2  0  0  0  0  0  0
  -27.9920  -25.7500   19.4280 C   0  0  0  0  0  2  0  0  0  0  0  0
  -27.8300  -27.2270   18.9950 O   0  0  0  0  0  0  0  0  0  0  0  0
  -24.5130  -31.9830   23.5620 C   0  0  0  0  0  0  0  0  0  0  0  0
  -26.7340  -28.0800   19.3610 C   0  0  0  0  0  0  0  0  0  0  0  0
  -23.1210  -30.9040   21.8330 C   0  0  0  0  0  3  0  0  0  0  0  0
  -24.3900  -29.6810   19.9640 C   0  0  0  0  0  0  0  0  0  0  0  0
  -25.6260  -31.2910   21.4100 C   0  0  0  0  0  2  0  0  0  0  0  0
  -25.6300  -30.0600   20.4910 C   0  0  0  0  0  0  0  0  0  0  0  0
  -26.8020  -29.2800   20.1720 C   0  0  0  0  0  3  0  0  0  0  0  0
  -25.4590  -27.7800   18.8390 C   0  0  0  0  0  3  0  0  0  0  0  0
  -24.3100  -28.5520   19.1330 C   0  0  0  0  0  3  0  0  0  0  0  0
  -23.1690  -30.5110   20.3300 C   0  0  0  0  0  2  0  0  0  0  0  0
  -24.4460  -31.4020   22.3250 N   0  0  0  0  0  0  0  0  0  0  0  0
  -23.5020  -32.1190   24.2720 O   0  0  0  0  0  0  0  0  0  0  0  0
  -22.5800  -29.7060   22.6510 C   0  0  0  0  0  0  0  0  0  0  0  0
  -21.2750  -29.4090   22.5080 N   0  0  0  0  0  0  0  0  0  0  0  0
  -23.3310  -29.0470   23.3750 O   0  0  0  0  0  0  0  0  0  0  0  0
  -20.7170  -29.9950   21.9020 H   0  0  0  0  0  0  0  0  0  0  0  0
  -18.0980  -27.6820   22.7310 C   0  0  0  0  0  0  0  0  0  0  0  0
  -20.5770  -28.2890   23.1450 C   0  0  0  0  0  3  0  0  0  0  0  0
  -20.9130  -26.9530   22.4450 C   0  0  0  0  0  2  0  0  0  0  0  0
  -19.9090  -26.5740   21.3520 C   0  0  0  0  0  2  0  0  0  0  0  0
  -18.4990  -26.4490   21.9360 C   0  0  0  0  0  2  0  0  0  0  0  0
  -19.0730  -28.5540   23.2820 C   0  0  0  0  0  0  0  0  0  0  0  0
  -18.6460  -29.7020   23.9830 C   0  0  0  0  0  3  0  0  0  0  0  0
  -17.2750  -29.9840   24.1380 C   0  0  0  0  0  3  0  0  0  0  0  0
  -16.3140  -29.1110   23.6010 C   0  0  0  0  0  3  0  0  0  0  0  0
  -16.7260  -27.9600   22.9030 C   0  0  0  0  0  3  0  0  0  0  0  0
  -25.8570  -32.5200   24.1410 C   0  0  0  0  0  3  0  0  0  0  0  0
  -25.6290  -33.8980   24.6040 N   0  0  0  0  0  0  0  0  0  0  0  0
  -26.0360  -34.9990   23.9570 C   0  0  0  0  0  0  0  0  0  0  0  0
  -26.7070  -34.9560   22.9230 O   0  0  0  0  0  0  0  0  0  0  0  0
  -25.0450  -34.0130   25.4200 H   0  0  0  0  0  0  0  0  0  0  0  0
  -24.4620  -36.9510   23.7470 C   0  0  0  0  0  1  0  0  0  0  0  0
  -25.6320  -36.3640   24.5500 C   0  0  0  0  0  3  0  0  0  0  0  0
  -27.7790  -36.9910   25.5610 C   0  0  0  0  0  1  0  0  0  0  0  0
  -26.7430  -37.3390   24.5940 N   0  0  0  0  0  0  0  0  0  0  0  0
  -26.3990  -38.2670   24.8240 H   0  0  0  0  0  0  0  0  0  0  0  0
  -26.4320  -31.6340   25.3140 C   0  0  1  0  0  0  0  0  0  0  0  0
  -25.4070  -31.3470   26.4370 C   0  0  0  0  0  1  0  0  0  0  0  0
  -26.9380  -30.2730   24.7840 C   0  0  0  0  0  1  0  0  0  0  0  0
  -27.6600  -32.3360   25.9470 C   0  0  0  0  0  1  0  0  0  0  0  0
  2  1  1  0
  2 48  1  0
  5 12  1  0
  5  3  1  0
  6  3  1  0
  6  9  1  0
  7  4  1  0
  7  6  1  0
  7  9  1  0
  8  2  1  0
  8  5  1  0
  8  4  1  0
  9 11  1  1
  9 10  1  0
 12 18  1  0
 13 18  1  0
 14 15  1  0
 14 13  1  0
 16 15  1  0
 16 23  1  0
 16 17  1  0
 18 17  1  0
 19 12  2  0
 20 21  2  0
 21 40  1  0
 22 25  1  0
 22 21  1  0
 23 24  1  0
 23 20  1  0
 24 22  2  0
 25 26  1  0
 26 27  2  0
 28 31  1  0
 28 27  1  0
 29 28  2  0
 30 29  1  0
 30 25  2  0
 31 32  1  0
 32 33  1  0
 33 34  2  0
 35 34  1  0
 35 39  1  0
 36 35  2  0
 37 32  2  0
 37 36  1  0
 38 37  1  0
 40 41  1  0
 41 44  1  0
 41 43  1  0
 42 40  2  0
 45 20  1  0
 45 46  1  0
 47 45  1  0
 48 51  1  0
 48 50  1  0
 49 48  1  0
 52 51  1  0
 52 53  1  0
 54 56  1  0
 54 53  1  0
 55 66  2  0
 56 61  1  0
 57 65  1  0
 57 67  1  0
 58 64  1  0
 58 60  1  0
 59 65  1  0
 60 59  1  0
 61 60  2  0
 62 63  1  0
 62 56  2  0
 63 58  2  0
 64 57  1  0
 65 55  1  0
 67 69  2  0
 68 67  1  0
 70 68  1  0
 71 80  2  0
 71 76  1  0
 72 68  1  0
 72 76  1  0
 73 72  1  0
 74 75  1  0
 74 73  1  0
 75 71  1  0
 76 77  2  0
 77 78  1  0
 79 78  2  0
 80 79  1  0
 81 55  1  0
 81 82  1  0
 81 91  1  0
 82 85  1  0
 83 87  1  0
 83 82  1  0
 84 83  2  0
 87 86  1  0
 87 89  1  0
 89 90  1  0
 89 88  1  0
 91 94  1  1
 91 92  1  0
 93 91  1  0
M  ISO  4   5 100  12 100  53 101  54 101
M  END
>  <TORSDO>  (26) 
F 21

>  <SCORE>  (26) 
-6.306

>  <name>  (26) 
25

>  <ligand_id>  (26) 
25

>  <original_smiles>  (26) 
[H]c1c([H])c([H])c2c(c1[H])C([H])([H])C([H])([H])C([H])([H])C2([H])N([H])C(=O)C1([H])N(C(=O)C([H])(N([H])C(=O)C([H])(N([H])C([H])([H])[H])C([H])([H])[H])C(C([H])([H])[H])(C([H])([H])[H])C([H])([H])[H])C([H])([H])c2c([H])c(OC([H])([H])C([H])([H])C([H])([H])[N+]([H])([H])C([H])(C([H])([H])[H])C3([H])C([H])([H])C4([H])C([H])(C([H])([H])C3([H])C(=O)N3C([H])([H])C([H])([H])C([H])([H])C([H])(n5nc(-c6c([H])c([H])c(Oc7c([H])c([H])c(F)c([H])c7F)c([H])c6[H])c(C(=O)N([H])[H])c5N([H])[H])C3([H])[H])C4(C([H])([H])[H])C([H])([H])[H])c([H])c([H])c2C1([H])[H]

>  <smiles>  (26) 
[H]c1c([H])c([H])c2c(c1[H])C([H])([H])C([H])([H])C([H])([H])C2([H])N([H])C(=O)C1([H])N(C(=O)C([H])(N([H])C(=O)C([H])(N([H])C([H])([H])[H])C([H])([H])[H])C(C([H])([H])[H])(C([H])([H])[H])C([H])([H])[H])C([H])([H])c2c([H])c(OC([H])([H])C([H])([H])C([H])([H])[N+]([H])([H])C([H])(C([H])([H])[H])C3([H])C([H])([H])C4([H])C([H])(C([H])([H])C3([H])C(=O)N3C([H])([H])C([H])([H])C([H])([H])C([H])(n5nc(-c6c([H])c([H])c(Oc7c([H])c([H])c(F)c([H])c7F)c([H])c6[H])c(C(=O)N([H])[H])c5N([H])[H])C3([H])[H])C4(C([H])([H])[H])C([H])([H])[H])c([H])c([H])c2C1([H])[H]

$$$$
26:0:0
     RDKit          3D

 87 96  0  0  1  0  0  0  0  0999 V2000
  -28.9970  -20.6280   21.6770 C   0  0  0  0  0  2  0  0  0  0  0  0
  -27.4200  -21.5400   19.9800 C   0  0  0  0  0  2  0  0  0  0  0  0
  -29.5870  -20.1060   20.3410 C   0  0  0  0  0  0  0  0  0  0  0  0
  -28.2040  -21.9310   21.2420 C   0  0  0  0  0  3  0  0  0  0  0  0
  -28.8700  -23.0000   20.2540 C   0  0  0  0  0  3  0  0  0  0  0  0
  -28.8790  -21.4230   19.5110 C   0  0  2  0  0  0  0  0  0  0  0  0
  -29.1500  -21.3110   18.0080 C   0  0  0  0  0  1  0  0  0  0  0  0
  -29.9130  -16.9560   20.2700 C   0  0  0  0  0  3  0  0  0  0  0  0
  -29.8960  -18.4090   20.0240 C   0  0  0  0  0  0  0  0  0  0  0  0
  -30.6490  -15.5320   20.0070 C   0  0  0  0  0  0  0  0  0  0  0  0
  -30.5890  -13.0830   19.1990 C   0  0  0  0  0  2  0  0  0  0  0  0
  -29.6540  -12.9040   17.9740 C   0  0  0  0  0  2  0  0  0  0  0  0
  -28.2130  -12.6360   18.4430 C   0  0  0  0  0  2  0  0  0  0  0  0
  -27.7850  -13.6040   19.5780 C   0  0  0  0  0  3  0  0  0  0  0  0
  -28.8500  -13.7490   20.6840 C   0  0  0  0  0  2  0  0  0  0  0  0
  -30.0810  -14.2300   20.0400 N   0  0  0  0  0  0  0  0  0  0  0  0
  -31.8470  -15.4890   19.6830 O   0  0  0  0  0  0  0  0  0  0  0  0
  -25.4430  -14.1420   20.4260 C   0  0  0  0  0  0  0  0  0  0  0  0
  -24.3950  -13.3560   20.8130 C   0  0  0  0  0  0  0  0  0  0  0  0
  -24.8610  -12.0070   20.7360 C   0  0  0  0  0  0  0  0  0  0  0  0
  -26.4760  -13.2730   20.1250 N   0  0  0  0  0  0  0  0  0  0  0  0
  -26.1400  -11.9820   20.3790 N   0  0  0  0  0  0  0  0  0  0  0  0
  -24.1460  -10.7410   20.9310 C   0  0  0  0  0  0  0  0  0  0  0  0
  -24.5620   -9.7920   21.8910 C   0  0  0  0  0  3  0  0  0  0  0  0
  -23.8400   -8.5910   22.0700 C   0  0  0  0  0  3  0  0  0  0  0  0
  -22.6910   -8.3290   21.2870 C   0  0  0  0  0  0  0  0  0  0  0  0
  -22.2960   -9.2670   20.3150 C   0  0  0  0  0  3  0  0  0  0  0  0
  -23.0190  -10.4580   20.1350 C   0  0  0  0  0  3  0  0  0  0  0  0
  -21.9420   -7.1800   21.3760 O   0  0  0  0  0  0  0  0  0  0  0  0
  -21.8080   -6.4980   22.5600 C   0  0  0  0  0  0  0  0  0  0  0  0
  -21.2160   -7.0870   23.6980 C   0  0  0  0  0  3  0  0  0  0  0  0
  -21.0350   -6.3270   24.8700 C   0  0  0  0  0  3  0  0  0  0  0  0
  -21.4360   -4.9780   24.9040 C   0  0  0  0  0  0  0  0  0  0  0  0
  -22.0190   -4.3880   23.7700 C   0  0  0  0  0  3  0  0  0  0  0  0
  -22.2020   -5.1440   22.6000 C   0  0  0  0  0  0  0  0  0  0  0  0
  -22.7470   -4.5650   21.5030 F   0  0  0  0  0  0  0  0  0  0  0  0
  -21.2550   -4.2460   26.0280 F   0  0  0  0  0  0  0  0  0  0  0  0
  -23.0100  -13.8200   21.1440 C   0  0  0  0  0  0  0  0  0  0  0  0
  -22.3240  -13.1110   22.0320 N   0  0  0  0  0  0  0  0  0  0  0  0
  -22.5450  -14.8450   20.6450 O   0  0  0  0  0  0  0  0  0  0  0  0
  -22.7190  -12.2810   22.4490 H   0  0  0  0  0  0  0  0  0  0  0  0
  -21.3940  -13.3980   22.3020 H   0  0  0  0  0  0  0  0  0  0  0  0
  -25.6040  -15.5190   20.2860 N   0  0  0  0  0  0  0  0  0  0  0  0
  -24.8620  -16.1800   20.4890 H   0  0  0  0  0  0  0  0  0  0  0  0
  -26.4660  -15.9670   19.9990 H   0  0  0  0  0  0  0  0  0  0  0  0
  -28.0670  -24.5810   19.8950 C   0  0  0  0  0  2  0  0  0  0  0  0
  -28.3300  -26.1720   20.2040 O   0  0  0  0  0  0  0  0  0  0  0  0
  -24.7140  -31.9810   23.3470 C   0  0  0  0  0  0  0  0  0  0  0  0
  -27.3200  -27.2610   20.1620 C   0  0  0  0  0  0  0  0  0  0  0  0
  -23.5360  -30.6180   21.6680 C   0  0  0  0  0  3  0  0  0  0  0  0
  -25.0020  -29.0980   20.1770 C   0  0  0  0  0  0  0  0  0  0  0  0
  -26.0970  -30.8830   21.5190 C   0  0  0  0  0  2  0  0  0  0  0  0
  -26.1830  -29.5020   20.8100 C   0  0  0  0  0  0  0  0  0  0  0  0
  -27.3420  -28.6060   20.7770 C   0  0  0  0  0  3  0  0  0  0  0  0
  -26.1110  -27.0090   19.4830 C   0  0  0  0  0  3  0  0  0  0  0  0
  -24.9900  -27.8730   19.4900 C   0  0  0  0  0  3  0  0  0  0  0  0
  -23.7680  -29.9910   20.2650 C   0  0  0  0  0  2  0  0  0  0  0  0
  -24.8030  -31.1880   22.2290 N   0  0  0  0  0  0  0  0  0  0  0  0
  -23.6230  -32.2340   23.8810 O   0  0  0  0  0  0  0  0  0  0  0  0
  -22.8720  -29.5740   22.6050 C   0  0  0  0  0  0  0  0  0  0  0  0
  -21.5490  -29.3700   22.4680 N   0  0  0  0  0  0  0  0  0  0  0  0
  -23.5530  -28.9530   23.4260 O   0  0  0  0  0  0  0  0  0  0  0  0
  -21.0510  -29.9460   21.8020 H   0  0  0  0  0  0  0  0  0  0  0  0
  -18.1990  -28.0350   22.8960 C   0  0  0  0  0  0  0  0  0  0  0  0
  -20.7460  -28.3830   23.2000 C   0  0  0  0  0  3  0  0  0  0  0  0
  -20.9010  -26.9670   22.5960 C   0  0  0  0  0  2  0  0  0  0  0  0
  -19.8230  -26.6340   21.5590 C   0  0  0  0  0  2  0  0  0  0  0  0
  -18.4320  -26.7100   22.1930 C   0  0  0  0  0  2  0  0  0  0  0  0
  -19.2840  -28.8310   23.3520 C   0  0  0  0  0  0  0  0  0  0  0  0
  -19.0130  -30.0690   23.9690 C   0  0  0  0  0  3  0  0  0  0  0  0
  -17.6860  -30.5120   24.1440 C   0  0  0  0  0  3  0  0  0  0  0  0
  -16.6160  -29.7140   23.7030 C   0  0  0  0  0  3  0  0  0  0  0  0
  -16.8730  -28.4780   23.0820 C   0  0  0  0  0  3  0  0  0  0  0  0
  -25.9770  -32.6200   23.9980 C   0  0  0  0  0  3  0  0  0  0  0  0
  -25.6630  -34.0240   24.3160 N   0  0  0  0  0  0  0  0  0  0  0  0
  -25.9690  -35.0740   23.5410 C   0  0  0  0  0  0  0  0  0  0  0  0
  -26.6110  -34.9600   22.4930 O   0  0  0  0  0  0  0  0  0  0  0  0
  -25.0880  -34.1840   25.1310 H   0  0  0  0  0  0  0  0  0  0  0  0
  -24.2030  -36.8430   23.2500 C   0  0  0  0  0  1  0  0  0  0  0  0
  -25.4940  -36.4690   23.9970 C   0  0  0  0  0  3  0  0  0  0  0  0
  -27.6520  -37.4110   24.6990 C   0  0  0  0  0  1  0  0  0  0  0  0
  -26.5060  -37.5300   23.8000 N   0  0  0  0  0  0  0  0  0  0  0  0
  -26.0970  -38.4500   23.9270 H   0  0  0  0  0  0  0  0  0  0  0  0
  -26.4590  -31.8620   25.2990 C   0  0  1  0  0  0  0  0  0  0  0  0
  -25.3360  -31.6300   26.3370 C   0  0  0  0  0  1  0  0  0  0  0  0
  -27.0620  -30.4830   24.9490 C   0  0  0  0  0  1  0  0  0  0  0  0
  -27.5930  -32.6660   25.9790 C   0  0  0  0  0  1  0  0  0  0  0  0
  3  1  1  0
  4  2  1  0
  4  1  1  0
  5 46  1  0
  5  4  1  0
  6  7  1  6
  6  2  1  0
  6  5  1  0
  6  3  1  0
  9  8  2  0
  9  3  2  0
 10 16  1  0
 10  8  1  0
 11 16  1  0
 12 13  1  0
 12 11  1  0
 14 13  1  0
 14 21  1  0
 14 15  1  0
 16 15  1  0
 17 10  2  0
 18 19  2  0
 19 38  1  0
 20 19  1  0
 20 23  1  0
 21 22  1  0
 21 18  1  0
 22 20  2  0
 23 24  1  0
 24 25  2  0
 26 29  1  0
 26 25  1  0
 27 26  2  0
 28 27  1  0
 28 23  2  0
 29 30  1  0
 30 35  2  0
 30 31  1  0
 31 32  2  0
 32 33  1  0
 33 37  1  0
 34 33  2  0
 35 34  1  0
 36 35  1  0
 38 39  1  0
 39 42  1  0
 39 41  1  0
 40 38  2  0
 43 18  1  0
 43 44  1  0
 45 43  1  0
 46 47  1  0
 48 59  2  0
 49 47  1  0
 49 54  1  0
 50 58  1  0
 50 60  1  0
 51 57  1  0
 51 53  1  0
 52 58  1  0
 53 52  1  0
 54 53  2  0
 55 56  1  0
 55 49  2  0
 56 51  2  0
 57 50  1  0
 58 48  1  0
 60 62  2  0
 61 60  1  0
 63 61  1  0
 64 73  2  0
 64 69  1  0
 65 61  1  0
 65 69  1  0
 66 65  1  0
 67 68  1  0
 67 66  1  0
 68 64  1  0
 69 70  2  0
 70 71  1  0
 72 71  2  0
 73 72  1  0
 74 48  1  0
 74 75  1  0
 74 84  1  0
 75 78  1  0
 76 80  1  0
 76 75  1  0
 77 76  2  0
 80 79  1  0
 82 83  1  0
 82 80  1  0
 82 81  1  0
 84 87  1  1
 84 85  1  0
 86 84  1  0
M  ISO  4   8 100  10 100  46 101  47 101
M  END
>  <TORSDO>  (27) 
F 18

>  <SCORE>  (27) 
-14.976

>  <name>  (27) 
26

>  <ligand_id>  (27) 
26

>  <original_smiles>  (27) 
[H]C(C(=O)N1C([H])([H])C([H])([H])C([H])([H])C([H])(n2nc(-c3c([H])c([H])c(Oc4c([H])c([H])c(F)c([H])c4F)c([H])c3[H])c(C(=O)N([H])[H])c2N([H])[H])C1([H])[H])=C([H])C1([H])C([H])([H])C2([H])C([H])([H])C1(C([H])([H])[H])C2([H])C([H])([H])Oc1c([H])c([H])c2c(c1[H])C([H])([H])N(C(=O)C([H])(N([H])C(=O)C([H])(N([H])C([H])([H])[H])C([H])([H])[H])C(C([H])([H])[H])(C([H])([H])[H])C([H])([H])[H])C([H])(C(=O)N([H])C1([H])c3c([H])c([H])c([H])c([H])c3C([H])([H])C([H])([H])C1([H])[H])C2([H])[H]

>  <smiles>  (27) 
[H]C(C(=O)N1C([H])([H])C([H])([H])C([H])([H])C([H])(n2nc(-c3c([H])c([H])c(Oc4c([H])c([H])c(F)c([H])c4F)c([H])c3[H])c(C(=O)N([H])[H])c2N([H])[H])C1([H])[H])=C([H])C1([H])C([H])([H])C2([H])C([H])([H])C1(C([H])([H])[H])C2([H])C([H])([H])Oc1c([H])c([H])c2c(c1[H])C([H])([H])N(C(=O)C([H])(N([H])C(=O)C([H])(N([H])C([H])([H])[H])C([H])([H])[H])C(C([H])([H])[H])(C([H])([H])[H])C([H])([H])[H])C([H])(C(=O)N([H])C1([H])c3c([H])c([H])c([H])c([H])c3C([H])([H])C([H])([H])C1([H])[H])C2([H])[H]

$$$$
27:0:0
     RDKit          3D

 85 90  0  0  1  0  0  0  0  0999 V2000
  -30.0060  -21.6000   19.2370 C   0  0  0  0  0  2  0  0  0  0  0  0
  -29.5560  -20.1990   18.6990 C   0  0  0  0  0  3  0  0  0  0  0  0
  -29.4470  -19.6730   20.1230 C   0  0  0  0  0  1  0  0  0  0  0  0
  -29.0350  -21.6560   20.4510 C   0  0  0  0  0  2  0  0  0  0  0  0
  -30.4690  -19.4710   17.7220 C   0  0  0  0  0  1  0  0  0  0  0  0
  -29.5940  -22.0020   21.8280 C   0  0  0  0  0  1  0  0  0  0  0  0
  -29.3110  -17.6550   20.4700 C   0  0  0  0  0  1  0  0  0  0  0  0
  -30.1570  -15.8920   20.2660 C   0  0  0  0  0  0  0  0  0  0  0  0
  -30.3780  -13.2700   19.5090 C   0  0  0  0  0  2  0  0  0  0  0  0
  -29.5230  -12.7690   18.3000 C   0  0  0  0  0  2  0  0  0  0  0  0
  -28.1090  -12.3650   18.7400 C   0  0  0  0  0  2  0  0  0  0  0  0
  -27.5530  -13.3750   19.7650 C   0  0  0  0  0  3  0  0  0  0  0  0
  -28.5550  -13.7760   20.8770 C   0  0  0  0  0  2  0  0  0  0  0  0
  -29.7130  -14.4640   20.2420 N   0  0  0  0  0  0  0  0  0  0  0  0
  -31.3890  -15.8060   20.0530 O   0  0  0  0  0  0  0  0  0  0  0  0
  -25.1850  -13.8690   20.5170 C   0  0  0  0  0  0  0  0  0  0  0  0
  -24.1320  -13.0790   20.8800 C   0  0  0  0  0  0  0  0  0  0  0  0
  -24.6170  -11.7350   20.8570 C   0  0  0  0  0  0  0  0  0  0  0  0
  -26.2410  -13.0100   20.2810 N   0  0  0  0  0  0  0  0  0  0  0  0
  -25.9150  -11.7180   20.5530 N   0  0  0  0  0  0  0  0  0  0  0  0
  -23.8980  -10.4660   21.0480 C   0  0  0  0  0  0  0  0  0  0  0  0
  -24.3380   -9.4980   21.9770 C   0  0  0  0  0  3  0  0  0  0  0  0
  -23.6130   -8.2990   22.1600 C   0  0  0  0  0  3  0  0  0  0  0  0
  -22.4340   -8.0600   21.4140 C   0  0  0  0  0  0  0  0  0  0  0  0
  -22.0140   -9.0180   20.4740 C   0  0  0  0  0  3  0  0  0  0  0  0
  -22.7390  -10.2070   20.2900 C   0  0  0  0  0  3  0  0  0  0  0  0
  -21.6820   -6.9140   21.5050 O   0  0  0  0  0  0  0  0  0  0  0  0
  -21.6570   -6.1560   22.6500 C   0  0  0  0  0  0  0  0  0  0  0  0
  -21.2710   -6.7000   23.8940 C   0  0  0  0  0  3  0  0  0  0  0  0
  -21.1940   -5.8710   25.0310 C   0  0  0  0  0  3  0  0  0  0  0  0
  -21.4900   -4.5000   24.9240 C   0  0  0  0  0  0  0  0  0  0  0  0
  -21.8680   -3.9550   23.6850 C   0  0  0  0  0  3  0  0  0  0  0  0
  -21.9490   -4.7810   22.5500 C   0  0  0  0  0  0  0  0  0  0  0  0
  -22.2920   -4.2470   21.3540 F   0  0  0  0  0  0  0  0  0  0  0  0
  -21.4090   -3.7010   26.0140 F   0  0  0  0  0  0  0  0  0  0  0  0
  -22.7280  -13.5430   21.1290 C   0  0  0  0  0  0  0  0  0  0  0  0
  -21.9990  -12.8540   21.9990 N   0  0  0  0  0  0  0  0  0  0  0  0
  -22.2860  -14.5560   20.5880 O   0  0  0  0  0  0  0  0  0  0  0  0
  -22.3710  -12.0360   22.4590 H   0  0  0  0  0  0  0  0  0  0  0  0
  -21.0550  -13.1470   22.2060 H   0  0  0  0  0  0  0  0  0  0  0  0
  -25.3310  -15.2410   20.3360 N   0  0  0  0  0  0  0  0  0  0  0  0
  -24.5550  -15.8870   20.4430 H   0  0  0  0  0  0  0  0  0  0  0  0
  -26.1780  -15.6910   20.0120 H   0  0  0  0  0  0  0  0  0  0  0  0
  -28.0500  -23.4360   20.1400 C   0  0  0  0  0  1  0  0  0  0  0  0
  -28.1460  -25.2750   20.2980 O   0  0  0  0  0  0  0  0  0  0  0  0
  -24.6480  -31.7960   23.1350 C   0  0  0  0  0  0  0  0  0  0  0  0
  -27.1880  -26.5580   20.2220 C   0  0  0  0  0  0  0  0  0  0  0  0
  -23.4760  -30.3800   21.5040 C   0  0  0  0  0  3  0  0  0  0  0  0
  -24.9330  -28.6890   20.1250 C   0  0  0  0  0  0  0  0  0  0  0  0
  -26.0620  -30.4770   21.4170 C   0  0  0  0  0  2  0  0  0  0  0  0
  -26.1280  -29.0220   20.7730 C   0  0  0  0  0  0  0  0  0  0  0  0
  -27.2310  -27.9900   20.7830 C   0  0  0  0  0  3  0  0  0  0  0  0
  -25.9560  -26.4770   19.5110 C   0  0  0  0  0  3  0  0  0  0  0  0
  -24.8960  -27.4450   19.4690 C   0  0  0  0  0  3  0  0  0  0  0  0
  -23.7320  -29.6600   20.1470 C   0  0  0  0  0  2  0  0  0  0  0  0
  -24.7540  -30.9220   22.0710 N   0  0  0  0  0  0  0  0  0  0  0  0
  -23.5480  -32.1070   23.6270 O   0  0  0  0  0  0  0  0  0  0  0  0
  -22.7380  -29.4260   22.4840 C   0  0  0  0  0  0  0  0  0  0  0  0
  -21.4010  -29.2970   22.3670 N   0  0  0  0  0  0  0  0  0  0  0  0
  -23.3830  -28.7970   23.3240 O   0  0  0  0  0  0  0  0  0  0  0  0
  -20.9280  -29.8550   21.6690 H   0  0  0  0  0  0  0  0  0  0  0  0
  -17.9970  -28.1350   22.9100 C   0  0  0  0  0  0  0  0  0  0  0  0
  -20.5630  -28.3740   23.1450 C   0  0  0  0  0  3  0  0  0  0  0  0
  -20.6400  -26.9390   22.5710 C   0  0  0  0  0  2  0  0  0  0  0  0
  -19.5250  -26.6330   21.5640 C   0  0  0  0  0  2  0  0  0  0  0  0
  -18.1520  -26.7880   22.2220 C   0  0  0  0  0  2  0  0  0  0  0  0
  -19.1280  -28.8860   23.3290 C   0  0  0  0  0  0  0  0  0  0  0  0
  -18.9240  -30.1420   23.9390 C   0  0  0  0  0  3  0  0  0  0  0  0
  -17.6250  -30.6490   24.1300 C   0  0  0  0  0  3  0  0  0  0  0  0
  -16.5100  -29.8970   23.7230 C   0  0  0  0  0  3  0  0  0  0  0  0
  -16.6970  -28.6410   23.1190 C   0  0  0  0  0  3  0  0  0  0  0  0
  -25.9000  -32.4590   23.7850 C   0  0  0  0  0  3  0  0  0  0  0  0
  -25.5600  -33.8550   24.1360 N   0  0  0  0  0  0  0  0  0  0  0  0
  -25.8750  -34.9360   23.4090 C   0  0  0  0  0  0  0  0  0  0  0  0
  -26.5370  -34.8660   22.3700 O   0  0  0  0  0  0  0  0  0  0  0  0
  -24.9680  -33.9810   24.9440 H   0  0  0  0  0  0  0  0  0  0  0  0
  -24.1160  -36.7250   23.1450 C   0  0  0  0  0  1  0  0  0  0  0  0
  -25.3850  -36.3140   23.9100 C   0  0  0  0  0  3  0  0  0  0  0  0
  -27.5320  -37.2180   24.6950 C   0  0  0  0  0  1  0  0  0  0  0  0
  -26.4020  -37.3840   23.7860 N   0  0  0  0  0  0  0  0  0  0  0  0
  -25.9870  -38.2960   23.9600 H   0  0  0  0  0  0  0  0  0  0  0  0
  -26.4000  -31.6990   25.0760 C   0  0  1  0  0  0  0  0  0  0  0  0
  -25.2950  -31.4660   26.1340 C   0  0  0  0  0  1  0  0  0  0  0  0
  -26.9920  -30.3190   24.7150 C   0  0  0  0  0  1  0  0  0  0  0  0
  -27.5420  -32.5000   25.7470 C   0  0  0  0  0  1  0  0  0  0  0  0
  1  4  1  0
  2  1  1  0
  2  3  1  0
  4  6  1  0
  5  2  1  0
  8  7  1  0
  9 14  1  0
 10 11  1  0
 10  9  1  0
 12 11  1  0
 12 19  1  0
 12 13  1  0
 14  8  1  0
 14 13  1  0
 15  8  2  0
 16 17  2  0
 17 36  1  0
 18 17  1  0
 18 21  1  0
 19 16  1  0
 19 20  1  0
 20 18  2  0
 21 22  1  0
 22 23  2  0
 24 27  1  0
 24 23  1  0
 25 24  2  0
 26 25  1  0
 26 21  2  0
 27 28  1  0
 28 29  1  0
 29 30  2  0
 31 30  1  0
 31 35  1  0
 32 31  2  0
 33 28  2  0
 33 32  1  0
 34 33  1  0
 36 37  1  0
 37 40  1  0
 37 39  1  0
 38 36  2  0
 41 42  1  0
 41 16  1  0
 43 41  1  0
 44 45  1  0
 46 57  2  0
 47 45  1  0
 47 52  1  0
 48 56  1  0
 48 58  1  0
 49 55  1  0
 49 51  1  0
 50 56  1  0
 51 52  2  0
 51 50  1  0
 53 47  2  0
 54 53  1  0
 54 49  2  0
 55 48  1  0
 56 46  1  0
 58 60  2  0
 59 58  1  0
 61 59  1  0
 62 71  2  0
 62 67  1  0
 63 59  1  0
 63 67  1  0
 64 63  1  0
 65 66  1  0
 65 64  1  0
 66 62  1  0
 67 68  2  0
 68 69  1  0
 70 69  2  0
 71 70  1  0
 72 46  1  0
 72 73  1  0
 72 82  1  0
 73 76  1  0
 74 78  1  0
 74 73  1  0
 75 74  2  0
 78 77  1  0
 80 78  1  0
 80 81  1  0
 80 79  1  0
 82 85  1  1
 82 83  1  0
 84 82  1  0
M  ISO  4   7 100   8 100  44 101  45 101
M  END
>  <TORSDO>  (28) 
F 18

>  <SCORE>  (28) 
-16.441

>  <name>  (28) 
27

>  <ligand_id>  (28) 
27

>  <original_smiles>  (28) 
[H]c1c([H])c([H])c2c(c1[H])C([H])([H])C([H])([H])C([H])([H])C2([H])N([H])C(=O)C1([H])N(C(=O)C([H])(N([H])C(=O)C([H])(N([H])C([H])([H])[H])C([H])([H])[H])C(C([H])([H])[H])(C([H])([H])[H])C([H])([H])[H])C([H])([H])c2c([H])c(OC([H])([H])C3(C([H])([H])[H])C([H])([H])C([H])(C([H])([H])[H])C3([H])C([H])([H])C(=O)N3C([H])([H])C([H])([H])C([H])([H])C([H])(n4nc(-c5c([H])c([H])c(Oc6c([H])c([H])c(F)c([H])c6F)c([H])c5[H])c(C(=O)N([H])[H])c4N([H])[H])C3([H])[H])c([H])c([H])c2C1([H])[H]

>  <smiles>  (28) 
[H]c1c([H])c([H])c2c(c1[H])C([H])([H])C([H])([H])C([H])([H])C2([H])N([H])C(=O)C1([H])N(C(=O)C([H])(N([H])C(=O)C([H])(N([H])C([H])([H])[H])C([H])([H])[H])C(C([H])([H])[H])(C([H])([H])[H])C([H])([H])[H])C([H])([H])c2c([H])c(OC([H])([H])C3(C([H])([H])[H])C([H])([H])C([H])(C([H])([H])[H])C3([H])C([H])([H])C(=O)N3C([H])([H])C([H])([H])C([H])([H])C([H])(n4nc(-c5c([H])c([H])c(Oc6c([H])c([H])c(F)c([H])c6F)c([H])c5[H])c(C(=O)N([H])[H])c4N([H])[H])C3([H])[H])c([H])c([H])c2C1([H])[H]

$$$$
28:0:0
     RDKit          3D

 92 99  0  0  1  0  0  0  0  0999 V2000
  -29.9280  -20.3570   19.1860 N   0  0  0  0  0  4  0  0  0  0  0  0
  -30.4220  -20.6050   18.3450 H   0  0  0  0  0  0  0  0  0  0  0  0
  -29.1440  -19.8010   18.8810 H   0  0  0  0  0  0  0  0  0  0  0  0
  -29.3220  -21.7270   19.7330 C   0  0  0  0  0  3  0  0  0  0  0  0
  -29.2970  -23.2220   18.9620 C   0  0  0  0  0  3  0  0  0  0  0  0
  -28.4490  -24.5570   19.5540 C   0  0  0  0  0  2  0  0  0  0  0  0
  -28.7190  -26.0840   19.3760 O   0  0  0  0  0  0  0  0  0  0  0  0
  -24.9380  -31.2800   23.0000 C   0  0  0  0  0  0  0  0  0  0  0  0
  -27.6490  -27.0450   19.4530 C   0  0  0  0  0  0  0  0  0  0  0  0
  -23.7810  -30.0680   21.1900 C   0  0  0  0  0  3  0  0  0  0  0  0
  -25.2810  -28.7180   19.6040 C   0  0  0  0  0  0  0  0  0  0  0  0
  -26.3290  -30.4200   21.0830 C   0  0  0  0  0  2  0  0  0  0  0  0
  -26.4450  -29.1170   20.2760 C   0  0  0  0  0  0  0  0  0  0  0  0
  -27.6320  -28.3000   20.1870 C   0  0  0  0  0  3  0  0  0  0  0  0
  -26.4630  -26.7590   18.7500 C   0  0  0  0  0  3  0  0  0  0  0  0
  -25.3030  -27.5530   18.8290 C   0  0  0  0  0  3  0  0  0  0  0  0
  -24.0300  -29.5730   19.7430 C   0  0  0  0  0  2  0  0  0  0  0  0
  -25.0350  -30.6070   21.8130 N   0  0  0  0  0  0  0  0  0  0  0  0
  -23.8430  -31.4670   23.5500 O   0  0  0  0  0  0  0  0  0  0  0  0
  -23.1310  -28.9270   22.0130 C   0  0  0  0  0  0  0  0  0  0  0  0
  -21.8030  -28.7550   21.8840 N   0  0  0  0  0  0  0  0  0  0  0  0
  -23.8220  -28.2040   22.7370 O   0  0  0  0  0  0  0  0  0  0  0  0
  -21.2950  -29.3950   21.2840 H   0  0  0  0  0  0  0  0  0  0  0  0
  -18.4390  -27.4830   22.3050 C   0  0  0  0  0  0  0  0  0  0  0  0
  -21.0040  -27.7150   22.5380 C   0  0  0  0  0  3  0  0  0  0  0  0
  -21.0880  -26.3780   21.7650 C   0  0  0  0  0  2  0  0  0  0  0  0
  -19.9580  -26.2000   20.7450 C   0  0  0  0  0  2  0  0  0  0  0  0
  -18.5950  -26.2450   21.4410 C   0  0  0  0  0  2  0  0  0  0  0  0
  -19.5680  -28.1800   22.8110 C   0  0  0  0  0  0  0  0  0  0  0  0
  -19.3660  -29.3440   23.5830 C   0  0  0  0  0  3  0  0  0  0  0  0
  -18.0660  -29.8080   23.8560 C   0  0  0  0  0  3  0  0  0  0  0  0
  -16.9500  -29.1050   23.3670 C   0  0  0  0  0  3  0  0  0  0  0  0
  -17.1390  -27.9450   22.5960 C   0  0  0  0  0  3  0  0  0  0  0  0
  -26.1990  -31.8670   23.7090 C   0  0  0  0  0  3  0  0  0  0  0  0
  -25.8280  -33.1790   24.2610 N   0  0  0  0  0  0  0  0  0  0  0  0
  -26.1460  -34.3570   23.7120 C   0  0  0  0  0  0  0  0  0  0  0  0
  -26.8580  -34.4570   22.7090 O   0  0  0  0  0  0  0  0  0  0  0  0
  -25.2060  -33.1740   25.0550 H   0  0  0  0  0  0  0  0  0  0  0  0
  -24.3830  -36.1490   23.5970 C   0  0  0  0  0  1  0  0  0  0  0  0
  -25.5950  -35.6300   24.3850 C   0  0  0  0  0  3  0  0  0  0  0  0
  -27.6560  -36.3970   25.4790 C   0  0  0  0  0  1  0  0  0  0  0  0
  -26.5990  -36.7100   24.5210 N   0  0  0  0  0  0  0  0  0  0  0  0
  -26.1540  -37.5760   24.8090 H   0  0  0  0  0  0  0  0  0  0  0  0
  -26.7660  -30.9330   24.8480 C   0  0  1  0  0  0  0  0  0  0  0  0
  -25.6950  -30.4790   25.8670 C   0  0  0  0  0  1  0  0  0  0  0  0
  -27.4130  -29.6620   24.2510 C   0  0  0  0  0  1  0  0  0  0  0  0
  -27.8780  -31.6700   25.6270 C   0  0  0  0  0  1  0  0  0  0  0  0
  -30.9160  -19.3600   19.9590 C   0  0  0  0  0  3  0  0  0  0  0  0
  -29.6730  -18.3500   22.0100 C   0  0  0  0  0  1  0  0  0  0  0  0
  -30.4940  -20.6510   22.2810 C   0  0  0  0  0  1  0  0  0  0  0  0
  -32.1720  -18.9480   22.1690 C   0  0  0  0  0  1  0  0  0  0  0  0
  -30.7920  -19.3180   21.5530 C   0  0  2  0  0  0  0  0  0  0  0  0
  -31.4550  -16.5670   19.8650 C   0  0  0  0  0  3  0  0  0  0  0  0
  -31.3620  -17.8840   19.2950 C   0  0  0  0  0  0  0  0  0  0  0  0
  -32.0850  -15.2360   19.3540 C   0  0  0  0  0  0  0  0  0  0  0  0
  -31.7170  -12.8600   18.5300 C   0  0  0  0  0  2  0  0  0  0  0  0
  -30.6540  -12.8590   17.4040 C   0  0  0  0  0  2  0  0  0  0  0  0
  -29.2420  -12.7510   18.0050 C   0  0  0  0  0  2  0  0  0  0  0  0
  -29.0310  -13.7300   19.1900 C   0  0  0  0  0  3  0  0  0  0  0  0
  -30.2020  -13.6810   20.1890 C   0  0  0  0  0  2  0  0  0  0  0  0
  -31.4260  -14.0040   19.4490 N   0  0  0  0  0  0  0  0  0  0  0  0
  -33.1990  -15.1980   18.8160 O   0  0  0  0  0  0  0  0  0  0  0  0
  -26.8500  -14.4820   20.2880 C   0  0  0  0  0  0  0  0  0  0  0  0
  -25.7620  -13.7900   20.7480 C   0  0  0  0  0  0  0  0  0  0  0  0
  -26.0600  -12.4080   20.5500 C   0  0  0  0  0  0  0  0  0  0  0  0
  -27.7440  -13.5260   19.8430 N   0  0  0  0  0  0  0  0  0  0  0  0
  -27.2870  -12.2640   20.0630 N   0  0  0  0  0  0  0  0  0  0  0  0
  -25.2260  -11.2160   20.7440 C   0  0  0  0  0  0  0  0  0  0  0  0
  -25.5080  -10.2680   21.7530 C   0  0  0  0  0  3  0  0  0  0  0  0
  -24.6730   -9.1420   21.9270 C   0  0  0  0  0  3  0  0  0  0  0  0
  -23.5450   -8.9580   21.0950 C   0  0  0  0  0  0  0  0  0  0  0  0
  -23.2860   -9.8920   20.0740 C   0  0  0  0  0  3  0  0  0  0  0  0
  -24.1200  -11.0080   19.8960 C   0  0  0  0  0  3  0  0  0  0  0  0
  -22.6970   -7.8790   21.1750 O   0  0  0  0  0  0  0  0  0  0  0  0
  -22.2770   -7.3830   22.3830 C   0  0  0  0  0  0  0  0  0  0  0  0
  -21.5560   -8.1750   23.3070 C   0  0  0  0  0  3  0  0  0  0  0  0
  -21.0830   -7.6060   24.5040 C   0  0  0  0  0  3  0  0  0  0  0  0
  -21.3220   -6.2450   24.7790 C   0  0  0  0  0  0  0  0  0  0  0  0
  -22.0380   -5.4550   23.8620 C   0  0  0  0  0  3  0  0  0  0  0  0
  -22.5090   -6.0220   22.6650 C   0  0  0  0  0  0  0  0  0  0  0  0
  -23.1780   -5.2510   21.7750 F   0  0  0  0  0  0  0  0  0  0  0  0
  -20.8630   -5.6960   25.9270 F   0  0  0  0  0  0  0  0  0  0  0  0
  -24.4810  -14.3870   21.2450 C   0  0  0  0  0  0  0  0  0  0  0  0
  -23.8300  -13.7310   22.1990 N   0  0  0  0  0  0  0  0  0  0  0  0
  -24.0690  -15.4640   20.8150 O   0  0  0  0  0  0  0  0  0  0  0  0
  -24.1820  -12.8590   22.5620 H   0  0  0  0  0  0  0  0  0  0  0  0
  -22.9760  -14.1180   22.5750 H   0  0  0  0  0  0  0  0  0  0  0  0
  -27.1330  -15.8340   20.1810 N   0  0  0  0  0  0  0  0  0  0  0  0
  -26.4490  -16.5410   20.4260 H   0  0  0  0  0  0  0  0  0  0  0  0
  -27.9520  -16.2110   19.7230 H   0  0  0  0  0  0  0  0  0  0  0  0
  -33.1310  -18.7770   17.6770 C   0  0  0  0  0  1  0  0  0  0  0  0
  -31.7630  -18.0920   17.8370 C   0  0  0  0  0  2  0  0  0  0  0  0
  1  4  1  0
  1 48  1  0
  2  1  1  0
  3  1  1  0
  5  6  1  0
  5  4  2  0
  7  9  1  0
  7  6  1  0
  8 19  2  0
  9 14  1  0
 10 18  1  0
 10 20  1  0
 11 17  1  0
 11 13  1  0
 12 18  1  0
 13 12  1  0
 14 13  2  0
 15 16  1  0
 15  9  2  0
 16 11  2  0
 17 10  1  0
 18  8  1  0
 20 22  2  0
 21 20  1  0
 23 21  1  0
 24 33  2  0
 24 29  1  0
 25 21  1  0
 25 29  1  0
 26 25  1  0
 27 28  1  0
 27 26  1  0
 28 24  1  0
 29 30  2  0
 30 31  1  0
 32 31  2  0
 33 32  1  0
 34  8  1  0
 34 35  1  0
 34 44  1  0
 35 38  1  0
 36 35  1  0
 36 40  1  0
 37 36  2  0
 40 39  1  0
 40 42  1  0
 42 43  1  0
 42 41  1  0
 44 47  1  1
 44 45  1  0
 46 44  1  0
 48 54  1  0
 48 52  1  0
 52 49  1  6
 52 51  1  0
 52 50  1  0
 54 53  2  0
 55 61  1  0
 55 53  1  0
 56 61  1  0
 57 58  1  0
 57 56  1  0
 59 58  1  0
 59 66  1  0
 59 60  1  0
 61 60  1  0
 62 55  2  0
 63 64  2  0
 64 83  1  0
 65 68  1  0
 65 64  1  0
 66 67  1  0
 66 63  1  0
 67 65  2  0
 68 69  1  0
 69 70  2  0
 71 74  1  0
 71 70  1  0
 72 71  2  0
 73 72  1  0
 73 68  2  0
 74 75  1  0
 75 80  2  0
 75 76  1  0
 76 77  2  0
 77 78  1  0
 78 82  1  0
 79 78  2  0
 80 79  1  0
 81 80  1  0
 83 84  1  0
 84 86  1  0
 84 87  1  0
 85 83  2  0
 88 63  1  0
 88 89  1  0
 90 88  1  0
 91 92  1  0
 92 54  1  0
M  ISO  4   6 101   7 101  53 100  55 100
M  END
>  <TORSDO>  (29) 
F 23

>  <SCORE>  (29) 
-8.071

>  <name>  (29) 
28

>  <ligand_id>  (29) 
28

>  <original_smiles>  (29) 
[H]C(C(=O)N1C([H])([H])C([H])([H])C([H])([H])C([H])(n2nc(-c3c([H])c([H])c(Oc4c([H])c([H])c(F)c([H])c4F)c([H])c3[H])c(C(=O)N([H])[H])c2N([H])[H])C1([H])[H])=C(C([H])([H])C([H])([H])[H])C([H])(C(C([H])([H])[H])(C([H])([H])[H])C([H])([H])[H])[N+]([H])([H])C([H])([H])C([H])([H])C([H])([H])Oc1c([H])c([H])c2c(c1[H])C([H])([H])N(C(=O)C([H])(N([H])C(=O)C([H])(N([H])C([H])([H])[H])C([H])([H])[H])C(C([H])([H])[H])(C([H])([H])[H])C([H])([H])[H])C([H])(C(=O)N([H])C1([H])c3c([H])c([H])c([H])c([H])c3C([H])([H])C([H])([H])C1([H])[H])C2([H])[H]

>  <smiles>  (29) 
[H]C(C(=O)N1C([H])([H])C([H])([H])C([H])([H])C([H])(n2nc(-c3c([H])c([H])c(Oc4c([H])c([H])c(F)c([H])c4F)c([H])c3[H])c(C(=O)N([H])[H])c2N([H])[H])C1([H])[H])=C(C([H])([H])C([H])([H])[H])C([H])(C(C([H])([H])[H])(C([H])([H])[H])C([H])([H])[H])[N+]([H])([H])C([H])([H])C([H])([H])C([H])([H])Oc1c([H])c([H])c2c(c1[H])C([H])([H])N(C(=O)C([H])(N([H])C(=O)C([H])(N([H])C([H])([H])[H])C([H])([H])[H])C(C([H])([H])[H])(C([H])([H])[H])C([H])([H])[H])C([H])(C(=O)N([H])C1([H])c3c([H])c([H])c([H])c([H])c3C([H])([H])C([H])([H])C1([H])[H])C2([H])[H]

$$$$
29:0:0
     RDKit          3D

 96106  0  0  1  0  0  0  0  0999 V2000
  -31.6080  -24.7450   18.9410 C   0  0  0  0  0  2  0  0  0  0  0  0
  -30.9110  -24.8870   20.3090 C   0  0  0  0  0  2  0  0  0  0  0  0
  -30.3180  -20.4240   18.5130 C   0  0  0  0  0  2  0  0  0  0  0  0
  -28.6120  -25.3130   18.0830 C   0  0  0  0  0  2  0  0  0  0  0  0
  -31.2690  -23.4360   18.1950 C   0  0  0  0  0  2  0  0  0  0  0  0
  -29.6390  -21.5430   17.6970 C   0  0  0  0  0  2  0  0  0  0  0  0
  -28.8270  -23.9010   17.4980 C   0  0  0  0  0  2  0  0  0  0  0  0
  -30.0540  -21.8330   20.6020 C   0  0  0  0  0  2  0  0  0  0  0  0
  -29.4440  -24.3920   20.3460 C   0  0  0  0  0  3  0  0  0  0  0  0
  -29.3350  -22.9450   19.7780 C   0  0  0  0  0  3  0  0  0  0  0  0
  -29.8540  -20.4180   19.9850 C   0  0  0  0  0  3  0  0  0  0  0  0
  -28.4150  -25.3140   19.6150 C   0  0  0  0  0  3  0  0  0  0  0  0
  -29.7860  -22.9680   18.2960 C   0  0  2  0  0  0  0  0  0  0  0  0
  -30.5400  -19.3530   20.7750 N   0  0  0  0  0  4  0  0  0  0  0  0
  -30.3440  -19.5340   21.7470 H   0  0  0  0  0  0  0  0  0  0  0  0
  -31.5370  -19.4340   20.6520 H   0  0  0  0  0  0  0  0  0  0  0  0
  -30.1190  -17.9490   20.4960 C   0  0  0  0  0  2  0  0  0  0  0  0
  -30.7110  -16.9310   21.5090 C   0  0  0  0  0  2  0  0  0  0  0  0
  -30.0570  -15.5160   21.5010 C   0  0  0  0  0  2  0  0  0  0  0  0
  -30.6710  -14.4390   20.5710 C   0  0  0  0  0  0  0  0  0  0  0  0
  -30.3610  -12.3210   19.3210 C   0  0  0  0  0  2  0  0  0  0  0  0
  -29.4090  -12.5440   18.1300 C   0  0  0  0  0  2  0  0  0  0  0  0
  -27.9340  -12.4140   18.5640 C   0  0  0  0  0  2  0  0  0  0  0  0
  -27.6140  -13.2350   19.8420 C   0  0  0  0  0  3  0  0  0  0  0  0
  -28.6690  -12.9650   20.9380 C   0  0  0  0  0  2  0  0  0  0  0  0
  -29.9940  -13.2740   20.3770 N   0  0  0  0  0  0  0  0  0  0  0  0
  -31.7420  -14.6790   20.0050 O   0  0  0  0  0  0  0  0  0  0  0  0
  -25.2160  -13.8700   20.5390 C   0  0  0  0  0  0  0  0  0  0  0  0
  -24.1400  -13.1100   20.9080 C   0  0  0  0  0  0  0  0  0  0  0  0
  -24.5890  -11.7540   20.8840 C   0  0  0  0  0  0  0  0  0  0  0  0
  -26.2550  -12.9780   20.3160 N   0  0  0  0  0  0  0  0  0  0  0  0
  -25.8790  -11.7000   20.5790 N   0  0  0  0  0  0  0  0  0  0  0  0
  -23.8500  -10.5000   21.0770 C   0  0  0  0  0  0  0  0  0  0  0  0
  -24.2920   -9.5170   21.9900 C   0  0  0  0  0  3  0  0  0  0  0  0
  -23.5550   -8.3270   22.1740 C   0  0  0  0  0  3  0  0  0  0  0  0
  -22.3620   -8.1110   21.4440 C   0  0  0  0  0  0  0  0  0  0  0  0
  -21.9390   -9.0820   20.5190 C   0  0  0  0  0  3  0  0  0  0  0  0
  -22.6770  -10.2640   20.3340 C   0  0  0  0  0  3  0  0  0  0  0  0
  -21.5950   -6.9750   21.5360 O   0  0  0  0  0  0  0  0  0  0  0  0
  -21.5850   -6.2060   22.6720 C   0  0  0  0  0  0  0  0  0  0  0  0
  -21.2430   -6.7420   23.9330 C   0  0  0  0  0  3  0  0  0  0  0  0
  -21.1770   -5.9010   25.0610 C   0  0  0  0  0  3  0  0  0  0  0  0
  -21.4430   -4.5250   24.9300 C   0  0  0  0  0  0  0  0  0  0  0  0
  -21.7770   -3.9870   23.6750 C   0  0  0  0  0  3  0  0  0  0  0  0
  -21.8450   -4.8260   22.5480 C   0  0  0  0  0  0  0  0  0  0  0  0
  -22.1480   -4.3000   21.3370 F   0  0  0  0  0  0  0  0  0  0  0  0
  -21.3710   -3.7140   26.0130 F   0  0  0  0  0  0  0  0  0  0  0  0
  -22.7460  -13.6010   21.1760 C   0  0  0  0  0  0  0  0  0  0  0  0
  -22.0120  -12.9170   22.0470 N   0  0  0  0  0  0  0  0  0  0  0  0
  -22.3170  -14.6260   20.6480 O   0  0  0  0  0  0  0  0  0  0  0  0
  -22.3720  -12.0880   22.4960 H   0  0  0  0  0  0  0  0  0  0  0  0
  -21.0780  -13.2300   22.2710 H   0  0  0  0  0  0  0  0  0  0  0  0
  -25.3930  -15.2390   20.3540 N   0  0  0  0  0  0  0  0  0  0  0  0
  -24.6280  -15.8980   20.4520 H   0  0  0  0  0  0  0  0  0  0  0  0
  -26.2480  -15.6710   20.0300 H   0  0  0  0  0  0  0  0  0  0  0  0
  -28.4000  -26.6720   20.1110 O   0  0  0  0  0  0  0  0  0  0  0  0
  -24.6240  -31.8700   23.2190 C   0  0  0  0  0  0  0  0  0  0  0  0
  -27.2150  -27.4000   20.0960 C   0  0  0  0  0  0  0  0  0  0  0  0
  -23.3930  -30.4730   21.5940 C   0  0  0  0  0  3  0  0  0  0  0  0
  -24.8230  -28.9340   20.1490 C   0  0  0  0  0  0  0  0  0  0  0  0
  -25.9210  -30.8160   21.3670 C   0  0  0  0  0  2  0  0  0  0  0  0
  -25.9920  -29.4450   20.7230 C   0  0  0  0  0  0  0  0  0  0  0  0
  -27.1870  -28.6840   20.6960 C   0  0  0  0  0  3  0  0  0  0  0  0
  -26.0160  -26.9160   19.5150 C   0  0  0  0  0  3  0  0  0  0  0  0
  -24.8300  -27.6690   19.5450 C   0  0  0  0  0  3  0  0  0  0  0  0
  -23.5840  -29.7970   20.2110 C   0  0  0  0  0  2  0  0  0  0  0  0
  -24.6650  -31.0670   22.1170 N   0  0  0  0  0  0  0  0  0  0  0  0
  -23.5500  -32.1450   23.7720 O   0  0  0  0  0  0  0  0  0  0  0  0
  -22.7510  -29.4510   22.5600 C   0  0  0  0  0  0  0  0  0  0  0  0
  -21.4250  -29.2700   22.4490 N   0  0  0  0  0  0  0  0  0  0  0  0
  -23.4430  -28.8240   23.3680 O   0  0  0  0  0  0  0  0  0  0  0  0
  -20.9280  -29.8280   21.7690 H   0  0  0  0  0  0  0  0  0  0  0  0
  -18.0580  -28.0680   22.9710 C   0  0  0  0  0  0  0  0  0  0  0  0
  -20.6160  -28.3340   23.2290 C   0  0  0  0  0  3  0  0  0  0  0  0
  -20.7200  -26.9000   22.6600 C   0  0  0  0  0  2  0  0  0  0  0  0
  -19.6140  -26.5680   21.6540 C   0  0  0  0  0  2  0  0  0  0  0  0
  -18.2340  -26.7150   22.3040 C   0  0  0  0  0  2  0  0  0  0  0  0
  -19.1760  -28.8350   23.3910 C   0  0  0  0  0  0  0  0  0  0  0  0
  -18.9580  -30.1020   23.9750 C   0  0  0  0  0  3  0  0  0  0  0  0
  -17.6520  -30.6010   24.1420 C   0  0  0  0  0  3  0  0  0  0  0  0
  -16.5490  -29.8310   23.7390 C   0  0  0  0  0  3  0  0  0  0  0  0
  -16.7520  -28.5660   23.1600 C   0  0  0  0  0  3  0  0  0  0  0  0
  -25.9190  -32.4970   23.8220 C   0  0  0  0  0  3  0  0  0  0  0  0
  -26.4680  -31.7080   25.0720 C   0  0  1  0  0  0  0  0  0  0  0  0
  -25.4000  -31.4490   26.1610 C   0  0  0  0  0  1  0  0  0  0  0  0
  -27.0470  -30.3400   24.6440 C   0  0  0  0  0  1  0  0  0  0  0  0
  -27.6300  -32.4970   25.7210 C   0  0  0  0  0  1  0  0  0  0  0  0
  -25.6110  -33.8890   24.1780 N   0  0  0  0  0  0  0  0  0  0  0  0
  -25.9160  -34.9530   23.4230 C   0  0  0  0  0  0  0  0  0  0  0  0
  -26.5590  -34.8670   22.3730 O   0  0  0  0  0  0  0  0  0  0  0  0
  -25.0360  -34.0290   24.9960 H   0  0  0  0  0  0  0  0  0  0  0  0
  -24.1600  -36.7320   23.1430 C   0  0  0  0  0  1  0  0  0  0  0  0
  -25.4310  -36.3310   23.9110 C   0  0  0  0  0  3  0  0  0  0  0  0
  -27.5870  -37.2240   24.6770 C   0  0  0  0  0  1  0  0  0  0  0  0
  -26.4500  -37.3950   23.7760 N   0  0  0  0  0  0  0  0  0  0  0  0
  -26.0410  -38.3100   23.9510 H   0  0  0  0  0  0  0  0  0  0  0  0
  1  2  1  0
  3 11  1  0
  4 12  1  0
 13  5  1  1
  5  1  1  0
  6 13  1  0
  6  3  1  0
  7  4  1  0
  9  2  1  0
 10  9  1  0
 10  8  1  0
 11  8  1  0
 11 14  1  0
 12 56  1  0
 12  9  1  0
 13  7  1  0
 13 10  1  0
 14 15  1  0
 16 14  1  0
 17 14  1  0
 17 18  1  0
 19 18  1  0
 20 19  1  0
 21 26  1  0
 22 23  1  0
 22 21  1  0
 24 23  1  0
 24 31  1  0
 24 25  1  0
 26 20  1  0
 26 25  1  0
 27 20  2  0
 28 29  2  0
 29 48  1  0
 30 29  1  0
 30 33  1  0
 31 28  1  0
 31 32  1  0
 32 30  2  0
 33 34  1  0
 34 35  2  0
 36 39  1  0
 36 35  1  0
 37 36  2  0
 38 37  1  0
 38 33  2  0
 39 40  1  0
 40 41  1  0
 41 42  2  0
 43 42  1  0
 43 47  1  0
 44 43  2  0
 45 40  2  0
 45 44  1  0
 46 45  1  0
 48 49  1  0
 49 52  1  0
 49 51  1  0
 50 48  2  0
 53 54  1  0
 53 28  1  0
 55 53  1  0
 57 68  2  0
 58 56  1  0
 58 63  1  0
 59 67  1  0
 59 69  1  0
 60 66  1  0
 60 62  1  0
 61 67  1  0
 62 61  1  0
 63 62  2  0
 64 65  1  0
 64 58  2  0
 65 60  2  0
 66 59  1  0
 67 57  1  0
 69 71  2  0
 70 69  1  0
 72 70  1  0
 73 82  2  0
 73 78  1  0
 74 70  1  0
 74 78  1  0
 75 74  1  0
 76 77  1  0
 76 75  1  0
 77 73  1  0
 78 79  2  0
 79 80  1  0
 81 80  2  0
 82 81  1  0
 83 57  1  0
 83 88  1  0
 83 84  1  0
 84 87  1  1
 84 85  1  0
 86 84  1  0
 88 91  1  0
 89 93  1  0
 89 88  1  0
 90 89  2  0
 93 92  1  0
 95 93  1  0
 95 96  1  0
 95 94  1  0
M  ISO  4  12 101  19 100  20 100  56 101
M  END
>  <TORSDO>  (30) 
F 20

>  <SCORE>  (30) 
-13.893

>  <name>  (30) 
29

>  <ligand_id>  (30) 
29

>  <original_smiles>  (30) 
[H]c1c([H])c([H])c2c(c1[H])C([H])([H])C([H])([H])C([H])([H])C2([H])N([H])C(=O)C1([H])N(C(=O)C([H])(N([H])C(=O)C([H])(N([H])C([H])([H])[H])C([H])([H])[H])C(C([H])([H])[H])(C([H])([H])[H])C([H])([H])[H])C([H])([H])c2c([H])c(OC3([H])C([H])([H])C([H])([H])C45C([H])([H])C([H])([H])C([H])([H])C3([H])C4([H])C([H])([H])C([H])([N+]([H])([H])C([H])([H])C([H])([H])C([H])([H])C(=O)N3C([H])([H])C([H])([H])C([H])([H])C([H])(n4nc(-c6c([H])c([H])c(Oc7c([H])c([H])c(F)c([H])c7F)c([H])c6[H])c(C(=O)N([H])[H])c4N([H])[H])C3([H])[H])C([H])([H])C5([H])[H])c([H])c([H])c2C1([H])[H]

>  <smiles>  (30) 
[H]c1c([H])c([H])c2c(c1[H])C([H])([H])C([H])([H])C([H])([H])C2([H])N([H])C(=O)C1([H])N(C(=O)C([H])(N([H])C(=O)C([H])(N([H])C([H])([H])[H])C([H])([H])[H])C(C([H])([H])[H])(C([H])([H])[H])C([H])([H])[H])C([H])([H])c2c([H])c(OC3([H])C([H])([H])C([H])([H])C45C([H])([H])C([H])([H])C([H])([H])C3([H])C4([H])C([H])([H])C([H])([N+]([H])([H])C([H])([H])C([H])([H])C([H])([H])C(=O)N3C([H])([H])C([H])([H])C([H])([H])C([H])(n4nc(-c6c([H])c([H])c(Oc7c([H])c([H])c(F)c([H])c7F)c([H])c6[H])c(C(=O)N([H])[H])c4N([H])[H])C3([H])[H])C([H])([H])C5([H])[H])c([H])c([H])c2C1([H])[H]

$$$$
30:0:0
     RDKit          3D

 90 98  0  0  1  0  0  0  0  0999 V2000
  -27.6470  -23.2240   22.2750 C   0  0  0  0  0  3  0  0  0  0  0  0
  -28.1660  -22.0780   21.6270 C   0  0  0  0  0  3  0  0  0  0  0  0
  -27.6930  -24.5220   21.7090 C   0  0  0  0  0  3  0  0  0  0  0  0
  -28.8070  -23.5380   19.7960 C   0  0  0  0  0  3  0  0  0  0  0  0
  -28.7600  -22.1430   20.3510 C   0  0  0  0  0  0  0  0  0  0  0  0
  -28.2770  -24.7800   20.4490 C   0  0  0  0  0  0  0  0  0  0  0  0
  -28.3500  -26.2010   20.0420 O   0  0  0  0  0  0  0  0  0  0  0  0
  -24.6570  -31.8450   23.1840 C   0  0  0  0  0  0  0  0  0  0  0  0
  -27.2760  -27.1700   20.1000 C   0  0  0  0  0  0  0  0  0  0  0  0
  -23.4680  -30.4520   21.5370 C   0  0  0  0  0  3  0  0  0  0  0  0
  -24.9260  -28.8950   20.1000 C   0  0  0  0  0  0  0  0  0  0  0  0
  -26.0180  -30.7390   21.3670 C   0  0  0  0  0  2  0  0  0  0  0  0
  -26.1040  -29.3480   20.7070 C   0  0  0  0  0  0  0  0  0  0  0  0
  -27.2820  -28.5040   20.6880 C   0  0  0  0  0  3  0  0  0  0  0  0
  -26.0690  -26.8210   19.4600 C   0  0  0  0  0  3  0  0  0  0  0  0
  -24.9200  -27.6440   19.4630 C   0  0  0  0  0  3  0  0  0  0  0  0
  -23.6910  -29.7850   20.1540 C   0  0  0  0  0  2  0  0  0  0  0  0
  -24.7340  -31.0340   22.0840 N   0  0  0  0  0  0  0  0  0  0  0  0
  -23.5690  -32.1160   23.7170 O   0  0  0  0  0  0  0  0  0  0  0  0
  -22.8010  -29.4320   22.4950 C   0  0  0  0  0  0  0  0  0  0  0  0
  -21.4710  -29.2660   22.3870 N   0  0  0  0  0  0  0  0  0  0  0  0
  -23.4860  -28.7910   23.2980 O   0  0  0  0  0  0  0  0  0  0  0  0
  -20.9740  -29.8480   21.7280 H   0  0  0  0  0  0  0  0  0  0  0  0
  -18.1000  -28.0350   22.9120 C   0  0  0  0  0  0  0  0  0  0  0  0
  -20.6610  -28.3070   23.1430 C   0  0  0  0  0  3  0  0  0  0  0  0
  -20.7630  -26.8890   22.5370 C   0  0  0  0  0  2  0  0  0  0  0  0
  -19.6400  -26.5700   21.5450 C   0  0  0  0  0  2  0  0  0  0  0  0
  -18.2760  -26.6930   22.2230 C   0  0  0  0  0  2  0  0  0  0  0  0
  -19.2210  -28.7990   23.3340 C   0  0  0  0  0  0  0  0  0  0  0  0
  -19.0020  -30.0520   23.9450 C   0  0  0  0  0  3  0  0  0  0  0  0
  -17.6980  -30.5440   24.1350 C   0  0  0  0  0  3  0  0  0  0  0  0
  -16.5930  -29.7790   23.7290 C   0  0  0  0  0  3  0  0  0  0  0  0
  -16.7940  -28.5260   23.1220 C   0  0  0  0  0  3  0  0  0  0  0  0
  -25.9290  -32.4900   23.8120 C   0  0  0  0  0  3  0  0  0  0  0  0
  -26.4480  -31.7200   25.0890 C   0  0  1  0  0  0  0  0  0  0  0  0
  -25.3530  -31.4680   26.1520 C   0  0  0  0  0  1  0  0  0  0  0  0
  -27.0460  -30.3490   24.6990 C   0  0  0  0  0  1  0  0  0  0  0  0
  -27.5890  -32.5230   25.7570 C   0  0  0  0  0  1  0  0  0  0  0  0
  -25.6010  -33.8840   24.1550 N   0  0  0  0  0  0  0  0  0  0  0  0
  -25.9330  -34.9520   23.4170 C   0  0  0  0  0  0  0  0  0  0  0  0
  -26.6130  -34.8680   22.3910 O   0  0  0  0  0  0  0  0  0  0  0  0
  -24.9960  -34.0210   24.9510 H   0  0  0  0  0  0  0  0  0  0  0  0
  -24.2050  -36.7490   23.0710 C   0  0  0  0  0  1  0  0  0  0  0  0
  -25.4350  -36.3320   23.8920 C   0  0  0  0  0  3  0  0  0  0  0  0
  -27.5530  -37.2120   24.7720 C   0  0  0  0  0  1  0  0  0  0  0  0
  -26.4670  -37.3890   23.8130 N   0  0  0  0  0  0  0  0  0  0  0  0
  -26.0530  -38.3050   23.9680 H   0  0  0  0  0  0  0  0  0  0  0  0
  -29.0700  -20.6720   19.6270 C   0  0  0  0  0  2  0  0  0  0  0  0
  -30.0920  -19.5140   20.0240 N   0  0  0  0  0  4  0  0  0  0  0  0
  -30.7280  -19.9250   20.6860 H   0  0  0  0  0  0  0  0  0  0  0  0
  -30.6490  -19.3910   19.1930 H   0  0  0  0  0  0  0  0  0  0  0  0
  -30.2620  -17.8800   21.9760 C   0  0  0  0  0  1  0  0  0  0  0  0
  -29.7620  -18.0330   20.5330 C   0  0  0  0  0  3  0  0  0  0  0  0
  -30.0180  -16.5710   19.6860 C   0  0  0  0  0  2  0  0  0  0  0  0
  -30.8000  -15.1210   20.0170 C   0  0  0  0  0  0  0  0  0  0  0  0
  -30.6480  -12.7540   19.1110 C   0  0  0  0  0  2  0  0  0  0  0  0
  -29.6900  -12.7210   17.8960 C   0  0  0  0  0  2  0  0  0  0  0  0
  -28.2320  -12.5200   18.3510 C   0  0  0  0  0  2  0  0  0  0  0  0
  -27.8530  -13.4300   19.5480 C   0  0  0  0  0  3  0  0  0  0  0  0
  -28.9370  -13.4620   20.6430 C   0  0  0  0  0  2  0  0  0  0  0  0
  -30.2020  -13.8550   20.0110 N   0  0  0  0  0  0  0  0  0  0  0  0
  -32.0270  -15.1210   19.8750 O   0  0  0  0  0  0  0  0  0  0  0  0
  -25.4990  -14.0090   20.3600 C   0  0  0  0  0  0  0  0  0  0  0  0
  -24.4410  -13.2350   20.7500 C   0  0  0  0  0  0  0  0  0  0  0  0
  -24.9020  -11.8840   20.7020 C   0  0  0  0  0  0  0  0  0  0  0  0
  -26.5320  -13.1290   20.0860 N   0  0  0  0  0  0  0  0  0  0  0  0
  -26.1850  -11.8450   20.3590 N   0  0  0  0  0  0  0  0  0  0  0  0
  -24.1750  -10.6240   20.9010 C   0  0  0  0  0  0  0  0  0  0  0  0
  -24.5810   -9.6780   21.8670 C   0  0  0  0  0  3  0  0  0  0  0  0
  -23.8510   -8.4840   22.0520 C   0  0  0  0  0  3  0  0  0  0  0  0
  -22.6990   -8.2290   21.2700 C   0  0  0  0  0  0  0  0  0  0  0  0
  -22.3130   -9.1620   20.2910 C   0  0  0  0  0  3  0  0  0  0  0  0
  -23.0440  -10.3470   20.1050 C   0  0  0  0  0  3  0  0  0  0  0  0
  -21.9430   -7.0860   21.3640 O   0  0  0  0  0  0  0  0  0  0  0  0
  -21.8070   -6.4050   22.5480 C   0  0  0  0  0  0  0  0  0  0  0  0
  -21.2810   -7.0220   23.7050 C   0  0  0  0  0  3  0  0  0  0  0  0
  -21.0940   -6.2690   24.8800 C   0  0  0  0  0  3  0  0  0  0  0  0
  -21.4220   -4.9000   24.8990 C   0  0  0  0  0  0  0  0  0  0  0  0
  -21.9390   -4.2830   23.7470 C   0  0  0  0  0  3  0  0  0  0  0  0
  -22.1290   -5.0330   22.5730 C   0  0  0  0  0  0  0  0  0  0  0  0
  -22.6080   -4.4300   21.4600 F   0  0  0  0  0  0  0  0  0  0  0  0
  -21.2360   -4.1740   26.0260 F   0  0  0  0  0  0  0  0  0  0  0  0
  -23.0520  -13.7180   21.0500 C   0  0  0  0  0  0  0  0  0  0  0  0
  -22.3420  -13.0290   21.9360 N   0  0  0  0  0  0  0  0  0  0  0  0
  -22.6050  -14.7400   20.5330 O   0  0  0  0  0  0  0  0  0  0  0  0
  -22.7180  -12.2030   22.3790 H   0  0  0  0  0  0  0  0  0  0  0  0
  -21.4080  -13.3320   22.1770 H   0  0  0  0  0  0  0  0  0  0  0  0
  -25.6590  -15.3810   20.1870 N   0  0  0  0  0  0  0  0  0  0  0  0
  -24.8820  -16.0220   20.2970 H   0  0  0  0  0  0  0  0  0  0  0  0
  -26.4870  -15.8240   19.8110 H   0  0  0  0  0  0  0  0  0  0  0  0
  2  1  2  0
  3  1  1  0
  4  5  2  0
  4  6  1  0
  5  2  1  0
  6  3  2  0
  7  9  1  0
  7  6  1  0
  8 19  2  0
  9 14  1  0
 10 18  1  0
 10 20  1  0
 11 17  1  0
 11 13  1  0
 12 18  1  0
 13 12  1  0
 14 13  2  0
 15 16  1  0
 15  9  2  0
 16 11  2  0
 17 10  1  0
 18  8  1  0
 20 22  2  0
 21 20  1  0
 23 21  1  0
 24 33  2  0
 24 29  1  0
 25 21  1  0
 25 29  1  0
 26 25  1  0
 27 28  1  0
 27 26  1  0
 28 24  1  0
 29 30  2  0
 30 31  1  0
 32 31  2  0
 33 32  1  0
 34  8  1  0
 34 39  1  0
 34 35  1  0
 35 38  1  1
 35 36  1  0
 37 35  1  0
 39 42  1  0
 40 44  1  0
 40 39  1  0
 41 40  2  0
 44 43  1  0
 46 44  1  0
 46 47  1  0
 46 45  1  0
 48 49  1  0
 48  5  1  0
 49 53  1  0
 49 50  1  0
 51 49  1  0
 53 52  1  0
 54 55  1  0
 54 53  1  0
 56 61  1  0
 57 58  1  0
 57 56  1  0
 59 58  1  0
 59 66  1  0
 59 60  1  0
 61 55  1  0
 61 60  1  0
 62 55  2  0
 63 64  2  0
 64 83  1  0
 65 64  1  0
 65 68  1  0
 66 67  1  0
 66 63  1  0
 67 65  2  0
 68 69  1  0
 69 70  2  0
 71 74  1  0
 71 70  1  0
 72 71  2  0
 73 72  1  0
 73 68  2  0
 74 75  1  0
 75 80  2  0
 75 76  1  0
 76 77  2  0
 77 78  1  0
 78 82  1  0
 79 78  2  0
 80 79  1  0
 81 80  1  0
 83 84  1  0
 84 87  1  0
 84 86  1  0
 85 83  2  0
 88 89  1  0
 88 63  1  0
 90 88  1  0
M  ISO  4   6 101   7 101  54 100  55 100
M  END
>  <TORSDO>  (31) 
F 20

>  <SCORE>  (31) 
-13.751

>  <name>  (31) 
30

>  <ligand_id>  (31) 
30

>  <original_smiles>  (31) 
[H]c1c([H])c([H])c2c(c1[H])C([H])([H])C([H])([H])C([H])([H])C2([H])N([H])C(=O)C1([H])N(C(=O)C([H])(N([H])C(=O)C([H])(N([H])C([H])([H])[H])C([H])([H])[H])C(C([H])([H])[H])(C([H])([H])[H])C([H])([H])[H])C([H])([H])c2c([H])c(Oc3c([H])c([H])c([H])c(C([H])([H])[N+]([H])([H])C([H])(C([H])([H])[H])C([H])([H])C(=O)N4C([H])([H])C([H])([H])C([H])([H])C([H])(n5nc(-c6c([H])c([H])c(Oc7c([H])c([H])c(F)c([H])c7F)c([H])c6[H])c(C(=O)N([H])[H])c5N([H])[H])C4([H])[H])c3[H])c([H])c([H])c2C1([H])[H]

>  <smiles>  (31) 
[H]c1c([H])c([H])c2c(c1[H])C([H])([H])C([H])([H])C([H])([H])C2([H])N([H])C(=O)C1([H])N(C(=O)C([H])(N([H])C(=O)C([H])(N([H])C([H])([H])[H])C([H])([H])[H])C(C([H])([H])[H])(C([H])([H])[H])C([H])([H])[H])C([H])([H])c2c([H])c(Oc3c([H])c([H])c([H])c(C([H])([H])[N+]([H])([H])C([H])(C([H])([H])[H])C([H])([H])C(=O)N4C([H])([H])C([H])([H])C([H])([H])C([H])(n5nc(-c6c([H])c([H])c(Oc7c([H])c([H])c(F)c([H])c7F)c([H])c6[H])c(C(=O)N([H])[H])c5N([H])[H])C4([H])[H])c3[H])c([H])c([H])c2C1([H])[H]

$$$$
31:0:0
     RDKit          3D

 90 98  0  0  1  0  0  0  0  0999 V2000
  -29.9200  -20.5700   19.1100 C   0  0  0  0  0  0  0  0  0  0  0  0
  -30.2160  -21.0990   17.7150 C   0  0  0  0  0  2  0  0  0  0  0  0
  -29.7020  -21.7040   20.1610 C   0  0  0  0  0  2  0  0  0  0  0  0
  -31.2750  -22.2040   17.7780 C   0  0  0  0  0  2  0  0  0  0  0  0
  -30.8620  -23.3750   18.6900 C   0  0  0  0  0  2  0  0  0  0  0  0
  -29.9180  -19.2890   19.2290 N   0  0  0  0  0  0  0  0  0  0  0  0
  -29.6590  -23.0750   19.5220 N   0  0  2  0  0  4  0  0  0  0  0  0
  -28.8920  -22.9930   18.8700 H   0  0  0  0  0  0  0  0  0  0  0  0
  -29.7440  -18.4800   20.4330 C   0  0  0  0  0  2  0  0  0  0  0  0
  -30.3660  -17.0770   20.1260 C   0  0  0  0  0  2  0  0  0  0  0  0
  -29.9760  -15.8290   20.9890 C   0  0  0  0  0  2  0  0  0  0  0  0
  -30.6630  -14.5220   20.4750 C   0  0  0  0  0  0  0  0  0  0  0  0
  -30.3600  -12.3420   19.3500 C   0  0  0  0  0  2  0  0  0  0  0  0
  -29.4280  -12.5460   18.1360 C   0  0  0  0  0  2  0  0  0  0  0  0
  -27.9530  -12.4080   18.5580 C   0  0  0  0  0  2  0  0  0  0  0  0
  -27.6100  -13.2590   19.8100 C   0  0  0  0  0  3  0  0  0  0  0  0
  -28.6590  -13.0590   20.9270 C   0  0  0  0  0  2  0  0  0  0  0  0
  -29.9850  -13.3440   20.3650 N   0  0  0  0  0  0  0  0  0  0  0  0
  -31.8120  -14.6340   20.0390 O   0  0  0  0  0  0  0  0  0  0  0  0
  -25.2120  -13.8820   20.5030 C   0  0  0  0  0  0  0  0  0  0  0  0
  -24.1370  -13.1160   20.8700 C   0  0  0  0  0  0  0  0  0  0  0  0
  -24.5920  -11.7620   20.8540 C   0  0  0  0  0  0  0  0  0  0  0  0
  -26.2540  -12.9930   20.2860 N   0  0  0  0  0  0  0  0  0  0  0  0
  -25.8850  -11.7140   20.5550 N   0  0  0  0  0  0  0  0  0  0  0  0
  -23.8590  -10.5050   21.0490 C   0  0  0  0  0  0  0  0  0  0  0  0
  -24.2890   -9.5360   21.9810 C   0  0  0  0  0  3  0  0  0  0  0  0
  -23.5560   -8.3420   22.1630 C   0  0  0  0  0  3  0  0  0  0  0  0
  -22.3790   -8.1110   21.4120 C   0  0  0  0  0  0  0  0  0  0  0  0
  -21.9680   -9.0690   20.4690 C   0  0  0  0  0  3  0  0  0  0  0  0
  -22.7020  -10.2540   20.2850 C   0  0  0  0  0  3  0  0  0  0  0  0
  -21.6180   -6.9710   21.5040 O   0  0  0  0  0  0  0  0  0  0  0  0
  -21.5780   -6.2230   22.6530 C   0  0  0  0  0  0  0  0  0  0  0  0
  -21.1810   -6.7760   23.8910 C   0  0  0  0  0  3  0  0  0  0  0  0
  -21.0880   -5.9550   25.0320 C   0  0  0  0  0  3  0  0  0  0  0  0
  -21.3800   -4.5810   24.9370 C   0  0  0  0  0  0  0  0  0  0  0  0
  -21.7690   -4.0270   23.7050 C   0  0  0  0  0  3  0  0  0  0  0  0
  -21.8660   -4.8460   22.5660 C   0  0  0  0  0  0  0  0  0  0  0  0
  -22.2210   -4.3030   21.3770 F   0  0  0  0  0  0  0  0  0  0  0  0
  -21.2820   -3.7910   26.0310 F   0  0  0  0  0  0  0  0  0  0  0  0
  -22.7410  -13.6020   21.1280 C   0  0  0  0  0  0  0  0  0  0  0  0
  -22.0040  -12.9170   21.9960 N   0  0  0  0  0  0  0  0  0  0  0  0
  -22.3110  -14.6240   20.5960 O   0  0  0  0  0  0  0  0  0  0  0  0
  -22.3650  -12.0920   22.4500 H   0  0  0  0  0  0  0  0  0  0  0  0
  -21.0660  -13.2230   22.2110 H   0  0  0  0  0  0  0  0  0  0  0  0
  -25.3850  -15.2490   20.3170 N   0  0  0  0  0  0  0  0  0  0  0  0
  -24.6220  -15.9100   20.4210 H   0  0  0  0  0  0  0  0  0  0  0  0
  -26.2440  -15.6840   20.0020 H   0  0  0  0  0  0  0  0  0  0  0  0
  -29.3040  -24.2490   20.3980 C   0  0  0  0  0  2  0  0  0  0  0  0
  -28.3430  -25.2570   19.6900 C   0  0  0  0  0  2  0  0  0  0  0  0
  -28.3520  -26.6140   20.2100 O   0  0  0  0  0  0  0  0  0  0  0  0
  -24.5900  -31.8780   23.2460 C   0  0  0  0  0  0  0  0  0  0  0  0
  -27.1900  -27.3820   20.1520 C   0  0  0  0  0  0  0  0  0  0  0  0
  -23.3710  -30.4830   21.6120 C   0  0  0  0  0  3  0  0  0  0  0  0
  -24.8090  -28.9440   20.1740 C   0  0  0  0  0  0  0  0  0  0  0  0
  -25.9040  -30.8150   21.4100 C   0  0  0  0  0  2  0  0  0  0  0  0
  -25.9770  -29.4430   20.7660 C   0  0  0  0  0  0  0  0  0  0  0  0
  -27.1650  -28.6670   20.7570 C   0  0  0  0  0  3  0  0  0  0  0  0
  -26.0020  -26.9280   19.5260 C   0  0  0  0  0  3  0  0  0  0  0  0
  -24.8210  -27.6880   19.5520 C   0  0  0  0  0  3  0  0  0  0  0  0
  -23.5730  -29.8120   20.2280 C   0  0  0  0  0  2  0  0  0  0  0  0
  -24.6410  -31.0750   22.1460 N   0  0  0  0  0  0  0  0  0  0  0  0
  -23.5110  -32.1560   23.7890 O   0  0  0  0  0  0  0  0  0  0  0  0
  -22.7200  -29.4610   22.5720 C   0  0  0  0  0  0  0  0  0  0  0  0
  -21.3950  -29.2790   22.4460 N   0  0  0  0  0  0  0  0  0  0  0  0
  -23.4030  -28.8360   23.3870 O   0  0  0  0  0  0  0  0  0  0  0  0
  -20.9050  -29.8360   21.7600 H   0  0  0  0  0  0  0  0  0  0  0  0
  -18.0220  -28.0770   22.9360 C   0  0  0  0  0  0  0  0  0  0  0  0
  -20.5770  -28.3440   23.2190 C   0  0  0  0  0  3  0  0  0  0  0  0
  -20.6870  -26.9100   22.6530 C   0  0  0  0  0  2  0  0  0  0  0  0
  -19.5920  -26.5770   21.6350 C   0  0  0  0  0  2  0  0  0  0  0  0
  -18.2060  -26.7230   22.2690 C   0  0  0  0  0  2  0  0  0  0  0  0
  -19.1370  -28.8440   23.3660 C   0  0  0  0  0  0  0  0  0  0  0  0
  -18.9120  -30.1110   23.9480 C   0  0  0  0  0  3  0  0  0  0  0  0
  -17.6050  -30.6100   24.1030 C   0  0  0  0  0  3  0  0  0  0  0  0
  -16.5050  -29.8400   23.6890 C   0  0  0  0  0  3  0  0  0  0  0  0
  -16.7140  -28.5750   23.1120 C   0  0  0  0  0  3  0  0  0  0  0  0
  -25.8800  -32.5040   23.8590 C   0  0  0  0  0  3  0  0  0  0  0  0
  -25.5780  -33.9030   24.1900 N   0  0  0  0  0  0  0  0  0  0  0  0
  -25.9070  -34.9540   23.4280 C   0  0  0  0  0  0  0  0  0  0  0  0
  -26.5680  -34.8470   22.3900 O   0  0  0  0  0  0  0  0  0  0  0  0
  -24.9920  -34.0610   24.9970 H   0  0  0  0  0  0  0  0  0  0  0  0
  -24.1780  -36.7480   23.0850 C   0  0  0  0  0  1  0  0  0  0  0  0
  -25.4260  -36.3430   23.8870 C   0  0  0  0  0  3  0  0  0  0  0  0
  -27.5710  -37.2240   24.6950 C   0  0  0  0  0  1  0  0  0  0  0  0
  -26.4590  -37.3940   23.7630 N   0  0  0  0  0  0  0  0  0  0  0  0
  -26.0570  -38.3150   23.9160 H   0  0  0  0  0  0  0  0  0  0  0  0
  -26.4030  -31.7300   25.1300 C   0  0  1  0  0  0  0  0  0  0  0  0
  -25.3160  -31.4980   26.2060 C   0  0  0  0  0  1  0  0  0  0  0  0
  -26.9770  -30.3500   24.7310 C   0  0  0  0  0  1  0  0  0  0  0  0
  -27.5620  -32.5180   25.7840 C   0  0  0  0  0  1  0  0  0  0  0  0
  1  6  2  0
  1  3  1  0
  2  4  1  0
  2  1  1  0
  4  5  1  0
  5  7  1  0
  6  9  1  0
  7  3  1  0
  7 48  1  0
  7  8  1  6
 10  9  1  0
 10 11  1  0
 12 11  1  0
 13 18  1  0
 14 15  1  0
 14 13  1  0
 16 15  1  0
 16 23  1  0
 16 17  1  0
 18 12  1  0
 18 17  1  0
 19 12  2  0
 20 21  2  0
 21 40  1  0
 22 21  1  0
 22 25  1  0
 23 20  1  0
 23 24  1  0
 24 22  2  0
 25 26  1  0
 26 27  2  0
 28 31  1  0
 28 27  1  0
 29 28  2  0
 30 29  1  0
 30 25  2  0
 31 32  1  0
 32 33  1  0
 33 34  2  0
 35 34  1  0
 35 39  1  0
 36 35  2  0
 37 32  2  0
 37 36  1  0
 38 37  1  0
 40 41  1  0
 41 44  1  0
 41 43  1  0
 42 40  2  0
 45 46  1  0
 45 20  1  0
 47 45  1  0
 49 50  1  0
 49 48  1  0
 51 62  2  0
 52 50  1  0
 52 57  1  0
 53 61  1  0
 53 63  1  0
 54 60  1  0
 54 56  1  0
 55 61  1  0
 56 55  1  0
 57 56  2  0
 58 59  1  0
 58 52  2  0
 59 54  2  0
 60 53  1  0
 61 51  1  0
 63 65  2  0
 64 63  1  0
 66 64  1  0
 67 76  2  0
 67 72  1  0
 68 64  1  0
 68 72  1  0
 69 68  1  0
 70 71  1  0
 70 69  1  0
 71 67  1  0
 72 73  2  0
 73 74  1  0
 75 74  2  0
 76 75  1  0
 77 51  1  0
 77 78  1  0
 77 87  1  0
 78 81  1  0
 79 83  1  0
 79 78  1  0
 80 79  2  0
 83 82  1  0
 85 83  1  0
 85 86  1  0
 85 84  1  0
 87 90  1  1
 87 88  1  0
 89 87  1  0
M  ISO  4  11 100  12 100  49 101  50 101
M  END
>  <TORSDO>  (32) 
F 21

>  <SCORE>  (32) 
-13.320

>  <name>  (32) 
31

>  <ligand_id>  (32) 
31

>  <original_smiles>  (32) 
[H]c1c([H])c([H])c2c(c1[H])C([H])([H])C([H])([H])C([H])([H])C2([H])N([H])C(=O)C1([H])N(C(=O)C([H])(N([H])C(=O)C([H])(N([H])C([H])([H])[H])C([H])([H])[H])C(C([H])([H])[H])(C([H])([H])[H])C([H])([H])[H])C([H])([H])c2c([H])c(OC([H])([H])C([H])([H])[N+]3([H])C([H])([H])C(=NC([H])([H])C([H])([H])C([H])([H])C(=O)N4C([H])([H])C([H])([H])C([H])([H])C([H])(n5nc(-c6c([H])c([H])c(Oc7c([H])c([H])c(F)c([H])c7F)c([H])c6[H])c(C(=O)N([H])[H])c5N([H])[H])C4([H])[H])C([H])([H])C([H])([H])C3([H])[H])c([H])c([H])c2C1([H])[H]

>  <smiles>  (32) 
[H]c1c([H])c([H])c2c(c1[H])C([H])([H])C([H])([H])C([H])([H])C2([H])N([H])C(=O)C1([H])N(C(=O)C([H])(N([H])C(=O)C([H])(N([H])C([H])([H])[H])C([H])([H])[H])C(C([H])([H])[H])(C([H])([H])[H])C([H])([H])[H])C([H])([H])c2c([H])c(OC([H])([H])C([H])([H])[N+]3([H])C([H])([H])C(=NC([H])([H])C([H])([H])C([H])([H])C(=O)N4C([H])([H])C([H])([H])C([H])([H])C([H])(n5nc(-c6c([H])c([H])c(Oc7c([H])c([H])c(F)c([H])c7F)c([H])c6[H])c(C(=O)N([H])[H])c5N([H])[H])C4([H])[H])C([H])([H])C([H])([H])C3([H])[H])c([H])c([H])c2C1([H])[H]

$$$$
32:0:0
     RDKit          3D

 93102  0  0  1  0  0  0  0  0999 V2000
  -27.2460  -19.2370   14.2780 C   0  0  0  0  0  2  0  0  0  0  0  0
  -28.6920  -18.7490   13.9490 C   0  0  0  0  0  3  0  0  0  0  0  0
  -26.7240  -19.6400   15.6710 C   0  0  0  0  0  2  0  0  0  0  0  0
  -29.7190  -18.0860   14.9650 C   0  0  0  0  0  3  0  0  0  0  0  0
  -27.2990  -18.9400   16.9620 C   0  0  0  0  0  2  0  0  0  0  0  0
  -30.7700  -17.3280   17.3160 C   0  0  0  0  0  2  0  0  0  0  0  0
  -30.5280  -17.3920   18.8720 C   0  0  0  0  0  3  0  0  0  0  0  0
  -29.4720  -17.7970   16.5010 C   0  0  0  0  0  3  0  0  0  0  0  0
  -29.4580  -18.8170   18.7730 C   0  0  0  0  0  3  0  0  0  0  0  0
  -28.8880  -19.0210   17.2230 C   0  0  2  0  0  0  0  0  0  0  0  0
  -29.6010  -20.3200   16.6130 C   0  0  0  0  0  1  0  0  0  0  0  0
  -31.3030  -16.0870   19.9360 C   0  0  0  0  0  0  0  0  0  0  0  0
  -31.5420  -13.8400   18.9000 C   0  0  0  0  0  2  0  0  0  0  0  0
  -30.4490  -14.0600   17.9190 C   0  0  0  0  0  2  0  0  0  0  0  0
  -29.0110  -13.9570   18.4630 C   0  0  0  0  0  2  0  0  0  0  0  0
  -28.8510  -14.1590   19.9600 C   0  0  0  0  0  3  0  0  0  0  0  0
  -30.1030  -13.9120   20.7710 C   0  0  0  0  0  2  0  0  0  0  0  0
  -31.1050  -14.6740   20.0030 N   0  0  0  0  0  0  0  0  0  0  0  0
  -32.3820  -16.2740   20.4600 O   0  0  0  0  0  0  0  0  0  0  0  0
  -26.4410  -14.5710   20.5990 C   0  0  0  0  0  0  0  0  0  0  0  0
  -25.3810  -13.7180   20.8240 C   0  0  0  0  0  0  0  0  0  0  0  0
  -25.9340  -12.3920   20.8510 C   0  0  0  0  0  0  0  0  0  0  0  0
  -27.5700  -13.7790   20.4710 N   0  0  0  0  0  0  0  0  0  0  0  0
  -27.2580  -12.4690   20.6780 N   0  0  0  0  0  0  0  0  0  0  0  0
  -25.2750  -11.0570   20.9370 C   0  0  0  0  0  0  0  0  0  0  0  0
  -25.4660  -10.1830   22.0310 C   0  0  0  0  0  3  0  0  0  0  0  0
  -24.6820   -9.0000   22.1670 C   0  0  0  0  0  3  0  0  0  0  0  0
  -23.7530   -8.6400   21.1770 C   0  0  0  0  0  0  0  0  0  0  0  0
  -23.6030   -9.4990   20.0820 C   0  0  0  0  0  3  0  0  0  0  0  0
  -24.3600  -10.6530   19.9320 C   0  0  0  0  0  3  0  0  0  0  0  0
  -22.9990   -7.4760   21.1730 O   0  0  0  0  0  0  0  0  0  0  0  0
  -22.3290   -7.0400   22.3040 C   0  0  0  0  0  0  0  0  0  0  0  0
  -21.3460   -7.8280   22.9290 C   0  0  0  0  0  3  0  0  0  0  0  0
  -20.6190   -7.3020   24.0220 C   0  0  0  0  0  3  0  0  0  0  0  0
  -20.8630   -6.0010   24.4810 C   0  0  0  0  0  0  0  0  0  0  0  0
  -21.8510   -5.2070   23.8550 C   0  0  0  0  0  3  0  0  0  0  0  0
  -22.5700   -5.7200   22.7530 C   0  0  0  0  0  0  0  0  0  0  0  0
  -23.4730   -4.9290   22.1430 F   0  0  0  0  0  0  0  0  0  0  0  0
  -20.1780   -5.5320   25.5390 F   0  0  0  0  0  0  0  0  0  0  0  0
  -23.9250  -14.1010   20.9230 C   0  0  0  0  0  0  0  0  0  0  0  0
  -23.2210  -13.3910   21.8410 N   0  0  0  0  0  0  0  0  0  0  0  0
  -23.3710  -15.0300   20.3360 O   0  0  0  0  0  0  0  0  0  0  0  0
  -23.7690  -12.7480   22.3590 H   0  0  0  0  0  0  0  0  0  0  0  0
  -22.3060  -13.6610   22.2120 H   0  0  0  0  0  0  0  0  0  0  0  0
  -26.5230  -15.9350   20.3740 N   0  0  0  0  0  0  0  0  0  0  0  0
  -25.7480  -16.6250   20.2810 H   0  0  0  0  0  0  0  0  0  0  0  0
  -27.3230  -16.1780   19.8380 H   0  0  0  0  0  0  0  0  0  0  0  0
  -29.2770  -20.3950   19.3590 C   0  0  0  0  0  2  0  0  0  0  0  0
  -30.1640  -21.8040   19.5210 C   0  0  0  0  0  2  0  0  0  0  0  0
  -30.5700  -23.1000   18.5870 C   0  0  0  0  0  2  0  0  0  0  0  0
  -30.2070  -24.6280   19.1380 C   0  0  0  0  0  3  0  0  0  0  0  0
  -31.0670  -26.0270   19.1150 C   0  0  0  0  0  3  0  0  0  0  0  0
  -30.7210  -27.2060   20.0020 O   0  0  0  0  0  0  0  0  0  0  0  0
  -25.5540  -30.7600   23.9020 C   0  0  0  0  0  0  0  0  0  0  0  0
  -29.4210  -27.7320   20.1360 C   0  0  0  0  0  0  0  0  0  0  0  0
  -24.8720  -29.6450   21.8110 C   0  0  0  0  0  3  0  0  0  0  0  0
  -26.7670  -28.7990   20.3100 C   0  0  0  0  0  0  0  0  0  0  0  0
  -27.3110  -30.4220   22.1270 C   0  0  0  0  0  2  0  0  0  0  0  0
  -27.7640  -29.3040   21.1610 C   0  0  0  0  0  0  0  0  0  0  0  0
  -29.0780  -28.7760   21.0740 C   0  0  0  0  0  3  0  0  0  0  0  0
  -28.3620  -27.2490   19.3220 C   0  0  0  0  0  3  0  0  0  0  0  0
  -27.0500  -27.7460   19.4440 C   0  0  0  0  0  3  0  0  0  0  0  0
  -25.3840  -29.4320   20.3710 C   0  0  0  0  0  2  0  0  0  0  0  0
  -25.9170  -30.2760   22.6750 N   0  0  0  0  0  0  0  0  0  0  0  0
  -24.3830  -30.6990   24.2900 O   0  0  0  0  0  0  0  0  0  0  0  0
  -24.3490  -28.3050   22.3610 C   0  0  0  0  0  0  0  0  0  0  0  0
  -23.6330  -27.5500   21.5110 N   0  0  0  0  0  0  0  0  0  0  0  0
  -24.5890  -27.9620   23.5190 O   0  0  0  0  0  0  0  0  0  0  0  0
  -23.5040  -27.8920   20.5680 H   0  0  0  0  0  0  0  0  0  0  0  0
  -22.3800  -24.5410   19.9480 C   0  0  0  0  0  0  0  0  0  0  0  0
  -23.0630  -26.2300   21.7850 C   0  0  0  0  0  3  0  0  0  0  0  0
  -24.1710  -25.2160   22.1670 C   0  0  0  0  0  2  0  0  0  0  0  0
  -24.6900  -24.4160   20.9730 C   0  0  0  0  0  2  0  0  0  0  0  0
  -23.5560  -23.6430   20.2970 C   0  0  0  0  0  2  0  0  0  0  0  0
  -22.1620  -25.7680   20.6310 C   0  0  0  0  0  0  0  0  0  0  0  0
  -21.0800  -26.5870   20.2290 C   0  0  0  0  0  3  0  0  0  0  0  0
  -20.2320  -26.1970   19.1800 C   0  0  0  0  0  3  0  0  0  0  0  0
  -20.4360  -24.9690   18.5310 C   0  0  0  0  0  3  0  0  0  0  0  0
  -21.5060  -24.1420   18.9150 C   0  0  0  0  0  3  0  0  0  0  0  0
  -26.5950  -31.4140   24.8670 C   0  0  0  0  0  3  0  0  0  0  0  0
  -26.2290  -32.8310   25.0250 N   0  0  0  0  0  0  0  0  0  0  0  0
  -26.8560  -33.8510   24.4290 C   0  0  0  0  0  0  0  0  0  0  0  0
  -27.8580  -33.6950   23.7230 O   0  0  0  0  0  0  0  0  0  0  0  0
  -25.3980  -33.0260   25.5660 H   0  0  0  0  0  0  0  0  0  0  0  0
  -25.4950  -35.6770   23.3630 C   0  0  0  0  0  1  0  0  0  0  0  0
  -26.2690  -35.2690   24.6280 C   0  0  0  0  0  3  0  0  0  0  0  0
  -27.9000  -36.0750   26.2690 C   0  0  0  0  0  1  0  0  0  0  0  0
  -27.2900  -36.2820   24.9570 N   0  0  0  0  0  0  0  0  0  0  0  0
  -26.8990  -37.2160   24.9390 H   0  0  0  0  0  0  0  0  0  0  0  0
  -26.6630  -30.7030   26.2710 C   0  0  1  0  0  0  0  0  0  0  0  0
  -25.2770  -30.4290   26.9070 C   0  0  0  0  0  1  0  0  0  0  0  0
  -27.4110  -29.3570   26.1440 C   0  0  0  0  0  1  0  0  0  0  0  0
  -27.4760  -31.5740   27.2530 C   0  0  0  0  0  1  0  0  0  0  0  0
  1  3  1  0
  2  1  1  0
  2  4  2  0
  3  5  1  0
  5 10  1  0
  6  7  1  0
  7 12  1  0
  8  4  1  0
  8 10  1  0
  8  6  1  0
  9  7  1  0
  9 48  1  0
 10 11  1  6
 10  9  1  0
 12 18  1  0
 12 19  2  0
 13 18  1  0
 14 15  1  0
 14 13  1  0
 16 15  1  0
 16 23  1  0
 16 17  1  0
 18 17  1  0
 20 21  2  0
 21 22  1  0
 21 40  1  0
 22 25  1  0
 23 20  1  0
 23 24  1  0
 24 22  2  0
 25 26  1  0
 26 27  2  0
 28 27  1  0
 29 28  2  0
 30 29  1  0
 30 25  2  0
 31 28  1  0
 31 32  1  0
 32 37  2  0
 32 33  1  0
 33 34  2  0
 34 35  1  0
 35 39  1  0
 36 35  2  0
 37 36  1  0
 38 37  1  0
 40 41  1  0
 41 44  1  0
 41 43  1  0
 42 40  2  0
 45 20  1  0
 46 45  1  0
 47 45  1  0
 48 49  1  0
 50 51  1  0
 50 49  1  0
 52 51  2  0
 52 53  1  0
 53 55  1  0
 54 65  2  0
 55 60  1  0
 56 66  1  0
 56 64  1  0
 57 63  1  0
 57 59  1  0
 58 64  1  0
 59 58  1  0
 60 59  2  0
 61 62  1  0
 61 55  2  0
 62 57  2  0
 63 56  1  0
 64 54  1  0
 66 68  2  0
 67 66  1  0
 69 67  1  0
 70 74  1  0
 70 75  1  0
 71 67  1  0
 71 72  1  0
 73 72  1  0
 74 73  1  0
 75 71  1  0
 76 75  2  0
 77 76  1  0
 78 79  1  0
 78 77  2  0
 79 70  2  0
 80 54  1  0
 80 81  1  0
 80 90  1  0
 81 84  1  0
 82 86  1  0
 82 81  1  0
 83 82  2  0
 86 85  1  0
 86 88  1  0
 88 87  1  0
 89 88  1  0
 90 91  1  1
 90 93  1  0
 92 90  1  0
M  ISO  4   7 100  12 100  52 101  53 101
M  END
>  <TORSDO>  (33) 
F 21

>  <SCORE>  (33) 
-2.715

>  <name>  (33) 
32

>  <ligand_id>  (33) 
32

>  <original_smiles>  (33) 
[H]c1c([H])c([H])c2c(c1[H])C([H])([H])C([H])([H])C([H])([H])C2([H])N([H])C(=O)C1([H])N(C(=O)C([H])(N([H])C(=O)C([H])(N([H])C([H])([H])[H])C([H])([H])[H])C(C([H])([H])[H])(C([H])([H])[H])C([H])([H])[H])C([H])([H])c2c([H])c(OC([H])([H])C([H])([H])C([H])([H])C([H])([H])C([H])([H])C3([H])C([H])(C(=O)N4C([H])([H])C([H])([H])C([H])([H])C([H])(n5nc(-c6c([H])c([H])c(Oc7c([H])c([H])c(F)c([H])c7F)c([H])c6[H])c(C(=O)N([H])[H])c5N([H])[H])C4([H])[H])C([H])([H])C4([H])C([H])([H])C([H])([H])C([H])([H])C([H])([H])C([H])([H])C43C([H])([H])[H])c([H])c([H])c2C1([H])[H]

>  <smiles>  (33) 
[H]c1c([H])c([H])c2c(c1[H])C([H])([H])C([H])([H])C([H])([H])C2([H])N([H])C(=O)C1([H])N(C(=O)C([H])(N([H])C(=O)C([H])(N([H])C([H])([H])[H])C([H])([H])[H])C(C([H])([H])[H])(C([H])([H])[H])C([H])([H])[H])C([H])([H])c2c([H])c(OC([H])([H])C([H])([H])C([H])([H])C([H])([H])C([H])([H])C3([H])C([H])(C(=O)N4C([H])([H])C([H])([H])C([H])([H])C([H])(n5nc(-c6c([H])c([H])c(Oc7c([H])c([H])c(F)c([H])c7F)c([H])c6[H])c(C(=O)N([H])[H])c5N([H])[H])C4([H])[H])C([H])([H])C4([H])C([H])([H])C([H])([H])C([H])([H])C([H])([H])C([H])([H])C43C([H])([H])[H])c([H])c([H])c2C1([H])[H]

$$$$
33:0:0
     RDKit          3D

 95105  0  0  1  0  0  0  0  0999 V2000
  -32.2190  -21.8760   17.4800 C   0  0  0  0  0  2  0  0  0  0  0  0
  -32.4980  -20.4000   17.7960 C   0  0  0  0  0  2  0  0  0  0  0  0
  -32.5550  -17.8090   19.5620 C   0  0  0  0  0  2  0  0  0  0  0  0
  -32.1420  -17.2360   20.9190 C   0  0  0  0  0  2  0  0  0  0  0  0
  -30.0090  -19.6920   20.5730 C   0  0  0  0  0  2  0  0  0  0  0  0
  -31.7420  -22.6750   18.7200 C   0  0  0  0  0  2  0  0  0  0  0  0
  -31.2700  -18.3590   18.9150 C   0  0  0  0  0  3  0  0  0  0  0  0
  -31.2730  -19.8360   18.5250 C   0  0  0  0  0  3  0  0  0  0  0  0
  -30.1660  -18.2420   19.9830 C   0  0  0  0  0  3  0  0  0  0  0  0
  -30.9940  -20.6180   19.8100 C   0  0  0  0  0  3  0  0  0  0  0  0
  -30.6190  -17.0240   20.8670 C   0  0  2  0  0  0  0  0  0  0  0  0
  -30.0420  -17.0470   22.3010 C   0  0  0  0  0  1  0  0  0  0  0  0
  -30.5970  -22.0220   19.4360 N   0  0  1  0  0  4  0  0  0  0  0  0
  -29.8630  -21.9220   18.7500 H   0  0  0  0  0  0  0  0  0  0  0  0
  -30.1190  -15.6890   20.1670 C   0  0  0  0  0  2  0  0  0  0  0  0
  -30.9650  -14.3820   20.0230 C   0  0  0  0  0  0  0  0  0  0  0  0
  -30.6060  -12.2030   18.9370 C   0  0  0  0  0  2  0  0  0  0  0  0
  -29.6100  -12.4380   17.7790 C   0  0  0  0  0  2  0  0  0  0  0  0
  -28.1530  -12.3300   18.2740 C   0  0  0  0  0  2  0  0  0  0  0  0
  -27.8970  -13.1680   19.5550 C   0  0  0  0  0  3  0  0  0  0  0  0
  -29.0020  -12.9180   20.6070 C   0  0  0  0  0  2  0  0  0  0  0  0
  -30.3060  -13.1900   19.9860 N   0  0  0  0  0  0  0  0  0  0  0  0
  -32.1270  -14.4790   19.6220 O   0  0  0  0  0  0  0  0  0  0  0  0
  -25.5660  -13.8450   20.4110 C   0  0  0  0  0  0  0  0  0  0  0  0
  -24.4910  -13.1020   20.8190 C   0  0  0  0  0  0  0  0  0  0  0  0
  -24.9010  -11.7370   20.7330 C   0  0  0  0  0  0  0  0  0  0  0  0
  -26.5640  -12.9320   20.1020 N   0  0  0  0  0  0  0  0  0  0  0  0
  -26.1710  -11.6590   20.3540 N   0  0  0  0  0  0  0  0  0  0  0  0
  -24.1420  -10.4960   20.9320 C   0  0  0  0  0  0  0  0  0  0  0  0
  -24.5710   -9.5100   21.8470 C   0  0  0  0  0  3  0  0  0  0  0  0
  -23.8160   -8.3320   22.0350 C   0  0  0  0  0  3  0  0  0  0  0  0
  -22.6180   -8.1340   21.3090 C   0  0  0  0  0  0  0  0  0  0  0  0
  -22.2070   -9.1100   20.3840 C   0  0  0  0  0  3  0  0  0  0  0  0
  -22.9620  -10.2780   20.1940 C   0  0  0  0  0  3  0  0  0  0  0  0
  -21.8320   -7.0110   21.4080 O   0  0  0  0  0  0  0  0  0  0  0  0
  -21.7740   -6.2720   22.5620 C   0  0  0  0  0  0  0  0  0  0  0  0
  -21.3370   -6.8320   23.7840 C   0  0  0  0  0  3  0  0  0  0  0  0
  -21.2260   -6.0200   24.9300 C   0  0  0  0  0  3  0  0  0  0  0  0
  -21.5420   -4.6500   24.8560 C   0  0  0  0  0  0  0  0  0  0  0  0
  -21.9730   -4.0910   23.6400 C   0  0  0  0  0  3  0  0  0  0  0  0
  -22.0860   -4.9000   22.4960 C   0  0  0  0  0  0  0  0  0  0  0  0
  -22.4800   -4.3520   21.3220 F   0  0  0  0  0  0  0  0  0  0  0  0
  -21.4280   -3.8670   25.9540 F   0  0  0  0  0  0  0  0  0  0  0  0
  -23.1280  -13.6210   21.1790 C   0  0  0  0  0  0  0  0  0  0  0  0
  -22.4250  -12.9280   22.0680 N   0  0  0  0  0  0  0  0  0  0  0  0
  -22.6990  -14.6720   20.7060 O   0  0  0  0  0  0  0  0  0  0  0  0
  -22.7860  -12.0750   22.4690 H   0  0  0  0  0  0  0  0  0  0  0  0
  -21.5120  -13.2540   22.3530 H   0  0  0  0  0  0  0  0  0  0  0  0
  -25.7720  -15.2130   20.2570 N   0  0  0  0  0  0  0  0  0  0  0  0
  -25.0380  -15.8940   20.4240 H   0  0  0  0  0  0  0  0  0  0  0  0
  -26.6260  -15.6300   19.9050 H   0  0  0  0  0  0  0  0  0  0  0  0
  -30.0010  -22.8800   20.5170 C   0  0  0  0  0  2  0  0  0  0  0  0
  -29.7650  -24.3720   20.0950 C   0  0  0  0  0  2  0  0  0  0  0  0
  -28.8010  -25.2100   20.9680 C   0  0  0  0  0  2  0  0  0  0  0  0
  -28.8740  -26.6050   20.6010 O   0  0  0  0  0  0  0  0  0  0  0  0
  -24.8040  -31.7810   23.3430 C   0  0  0  0  0  0  0  0  0  0  0  0
  -27.6890  -27.3110   20.5310 C   0  0  0  0  0  0  0  0  0  0  0  0
  -23.7180  -30.3280   21.6610 C   0  0  0  0  0  3  0  0  0  0  0  0
  -25.2760  -28.7830   20.3580 C   0  0  0  0  0  0  0  0  0  0  0  0
  -26.2460  -30.7230   21.6030 C   0  0  0  0  0  2  0  0  0  0  0  0
  -26.3890  -29.3390   21.0000 C   0  0  0  0  0  0  0  0  0  0  0  0
  -27.6010  -28.6140   21.0740 C   0  0  0  0  0  3  0  0  0  0  0  0
  -26.5600  -26.7710   19.8760 C   0  0  0  0  0  3  0  0  0  0  0  0
  -25.3570  -27.4980   19.7910 C   0  0  0  0  0  3  0  0  0  0  0  0
  -24.0180  -29.6230   20.3120 C   0  0  0  0  0  2  0  0  0  0  0  0
  -24.9370  -30.9610   22.2610 N   0  0  0  0  0  0  0  0  0  0  0  0
  -23.6890  -32.0460   23.8130 O   0  0  0  0  0  0  0  0  0  0  0  0
  -23.0250  -29.3180   22.6040 C   0  0  0  0  0  0  0  0  0  0  0  0
  -21.7120  -29.1180   22.4060 N   0  0  0  0  0  0  0  0  0  0  0  0
  -23.6700  -28.7140   23.4660 O   0  0  0  0  0  0  0  0  0  0  0  0
  -21.2550  -29.6570   21.6840 H   0  0  0  0  0  0  0  0  0  0  0  0
  -18.3250  -27.9040   22.7450 C   0  0  0  0  0  0  0  0  0  0  0  0
  -20.8630  -28.1830   23.1450 C   0  0  0  0  0  3  0  0  0  0  0  0
  -21.0050  -26.7460   22.5930 C   0  0  0  0  0  2  0  0  0  0  0  0
  -19.9590  -26.4020   21.5290 C   0  0  0  0  0  2  0  0  0  0  0  0
  -18.5460  -26.5460   22.0980 C   0  0  0  0  0  2  0  0  0  0  0  0
  -19.4150  -28.6790   23.2220 C   0  0  0  0  0  0  0  0  0  0  0  0
  -19.1580  -29.9490   23.7830 C   0  0  0  0  0  3  0  0  0  0  0  0
  -17.8430  -30.4440   23.8740 C   0  0  0  0  0  3  0  0  0  0  0  0
  -16.7660  -29.6650   23.4150 C   0  0  0  0  0  3  0  0  0  0  0  0
  -17.0080  -28.3970   22.8560 C   0  0  0  0  0  3  0  0  0  0  0  0
  -26.0420  -32.4450   24.0240 C   0  0  0  0  0  3  0  0  0  0  0  0
  -26.4860  -31.7150   25.3510 C   0  0  1  0  0  0  0  0  0  0  0  0
  -25.3300  -31.4860   26.3530 C   0  0  0  0  0  1  0  0  0  0  0  0
  -27.1150  -30.3390   25.0330 C   0  0  0  0  0  1  0  0  0  0  0  0
  -27.5790  -32.5460   26.0650 C   0  0  0  0  0  1  0  0  0  0  0  0
  -25.7010  -33.8480   24.2910 N   0  0  0  0  0  0  0  0  0  0  0  0
  -26.0590  -34.8790   23.5150 C   0  0  0  0  0  0  0  0  0  0  0  0
  -26.7820  -34.7510   22.5230 O   0  0  0  0  0  0  0  0  0  0  0  0
  -25.0630  -34.0200   25.0550 H   0  0  0  0  0  0  0  0  0  0  0  0
  -24.3210  -36.6290   23.0220 C   0  0  0  0  0  1  0  0  0  0  0  0
  -25.5330  -36.2750   23.9000 C   0  0  0  0  0  3  0  0  0  0  0  0
  -27.6110  -37.2290   24.7940 C   0  0  0  0  0  1  0  0  0  0  0  0
  -26.5550  -37.3400   23.7920 N   0  0  0  0  0  0  0  0  0  0  0  0
  -26.1280  -38.2590   23.8800 H   0  0  0  0  0  0  0  0  0  0  0  0
  1  2  1  0
  1  6  1  0
  3  4  1  0
  6 13  1  0
  7  3  1  0
  7  9  1  0
  8  2  1  0
  8  7  1  0
  8 10  1  0
  9  5  1  0
  9 11  1  0
 10  5  1  0
 11  4  1  0
 11 12  1  1
 13 10  1  0
 13 52  1  0
 13 14  1  6
 15 11  1  0
 16 15  1  0
 17 22  1  0
 18 19  1  0
 18 17  1  0
 20 19  1  0
 20 27  1  0
 20 21  1  0
 22 16  1  0
 22 21  1  0
 23 16  2  0
 24 25  2  0
 25 44  1  0
 26 25  1  0
 26 29  1  0
 27 28  1  0
 27 24  1  0
 28 26  2  0
 29 30  1  0
 30 31  2  0
 32 35  1  0
 32 31  1  0
 33 32  2  0
 34 33  1  0
 34 29  2  0
 35 36  1  0
 36 37  1  0
 37 38  2  0
 39 38  1  0
 39 43  1  0
 40 39  2  0
 41 36  2  0
 41 40  1  0
 42 41  1  0
 44 45  1  0
 45 48  1  0
 45 47  1  0
 46 44  2  0
 49 24  1  0
 49 50  1  0
 51 49  1  0
 53 52  1  0
 53 54  1  0
 55 54  1  0
 56 67  2  0
 57 55  1  0
 57 62  1  0
 58 66  1  0
 58 68  1  0
 59 61  1  0
 60 66  1  0
 61 62  2  0
 61 60  1  0
 63 57  2  0
 64 63  1  0
 64 59  2  0
 65 59  1  0
 65 58  1  0
 66 56  1  0
 68 70  2  0
 69 68  1  0
 71 69  1  0
 72 81  2  0
 72 77  1  0
 73 69  1  0
 73 77  1  0
 74 73  1  0
 75 76  1  0
 75 74  1  0
 76 72  1  0
 77 78  2  0
 78 79  1  0
 80 79  2  0
 81 80  1  0
 82 56  1  0
 82 87  1  0
 82 83  1  0
 83 86  1  1
 83 84  1  0
 85 83  1  0
 87 90  1  0
 88 92  1  0
 88 87  1  0
 89 88  2  0
 92 91  1  0
 94 95  1  0
 94 92  1  0
 94 93  1  0
M  ISO  4  15 100  16 100  54 101  55 101
M  END
>  <TORSDO>  (34) 
F 20

>  <SCORE>  (34) 
-13.200

>  <name>  (34) 
33

>  <ligand_id>  (34) 
33

>  <original_smiles>  (34) 
[H]c1c([H])c([H])c2c(c1[H])C([H])([H])C([H])([H])C([H])([H])C2([H])N([H])C(=O)C1([H])N(C(=O)C([H])(N([H])C(=O)C([H])(N([H])C([H])([H])[H])C([H])([H])[H])C(C([H])([H])[H])(C([H])([H])[H])C([H])([H])[H])C([H])([H])c2c([H])c(OC([H])([H])C([H])([H])C([H])([H])[N+]3([H])C([H])([H])C([H])([H])C([H])([H])C4([H])C5([H])C([H])([H])C([H])([H])C(C([H])([H])[H])(C([H])([H])C(=O)N6C([H])([H])C([H])([H])C([H])([H])C([H])(n7nc(-c8c([H])c([H])c(Oc9c([H])c([H])c(F)c([H])c9F)c([H])c8[H])c(C(=O)N([H])[H])c7N([H])[H])C6([H])[H])C5([H])C([H])([H])C43[H])c([H])c([H])c2C1([H])[H]

>  <smiles>  (34) 
[H]c1c([H])c([H])c2c(c1[H])C([H])([H])C([H])([H])C([H])([H])C2([H])N([H])C(=O)C1([H])N(C(=O)C([H])(N([H])C(=O)C([H])(N([H])C([H])([H])[H])C([H])([H])[H])C(C([H])([H])[H])(C([H])([H])[H])C([H])([H])[H])C([H])([H])c2c([H])c(OC([H])([H])C([H])([H])C([H])([H])[N+]3([H])C([H])([H])C([H])([H])C([H])([H])C4([H])C5([H])C([H])([H])C([H])([H])C(C([H])([H])[H])(C([H])([H])C(=O)N6C([H])([H])C([H])([H])C([H])([H])C([H])(n7nc(-c8c([H])c([H])c(Oc9c([H])c([H])c(F)c([H])c9F)c([H])c8[H])c(C(=O)N([H])[H])c7N([H])[H])C6([H])[H])C5([H])C([H])([H])C43[H])c([H])c([H])c2C1([H])[H]

$$$$
34:0:0
     RDKit          3D

 87 93  0  0  1  0  0  0  0  0999 V2000
  -27.1860  -19.0030   20.7640 C   0  0  0  0  0  2  0  0  0  0  0  0
  -26.9020  -18.9880   19.2580 C   0  0  0  0  0  2  0  0  0  0  0  0
  -27.9510  -20.2960   21.0770 C   0  0  0  0  0  2  0  0  0  0  0  0
  -29.0740  -19.5700   17.9730 C   0  0  0  0  0  2  0  0  0  0  0  0
  -27.7650  -20.0840   18.6190 C   0  0  0  0  0  3  0  0  0  0  0  0
  -28.0960  -21.0800   19.7570 C   0  0  0  0  0  3  0  0  0  0  0  0
  -30.1740  -19.7140   19.0200 C   0  0  0  0  0  1  0  0  0  0  0  0
  -29.5280  -21.5900   19.5240 C   0  0  0  0  0  1  0  0  0  0  0  0
  -30.4050  -17.7680   19.6530 C   0  0  0  0  0  1  0  0  0  0  0  0
  -31.0240  -15.9330   19.3080 C   0  0  0  0  0  0  0  0  0  0  0  0
  -31.0510  -13.2710   18.6630 C   0  0  0  0  0  2  0  0  0  0  0  0
  -30.0570  -12.7640   17.5670 C   0  0  0  0  0  2  0  0  0  0  0  0
  -28.6830  -12.4300   18.1620 C   0  0  0  0  0  2  0  0  0  0  0  0
  -28.2740  -13.4990   19.1970 C   0  0  0  0  0  3  0  0  0  0  0  0
  -29.4040  -13.9040   20.1820 C   0  0  0  0  0  2  0  0  0  0  0  0
  -30.5160  -14.5260   19.4050 N   0  0  0  0  0  0  0  0  0  0  0  0
  -32.2030  -15.7700   18.9200 O   0  0  0  0  0  0  0  0  0  0  0  0
  -26.0950  -14.1290   20.3280 C   0  0  0  0  0  0  0  0  0  0  0  0
  -25.0230  -13.4070   20.7650 C   0  0  0  0  0  0  0  0  0  0  0  0
  -25.3550  -12.0320   20.5550 C   0  0  0  0  0  0  0  0  0  0  0  0
  -27.0120  -13.2050   19.8650 N   0  0  0  0  0  0  0  0  0  0  0  0
  -26.5900  -11.9270   20.0670 N   0  0  0  0  0  0  0  0  0  0  0  0
  -24.5400  -10.8200   20.7370 C   0  0  0  0  0  0  0  0  0  0  0  0
  -24.9410   -9.7800   21.6040 C   0  0  0  0  0  3  0  0  0  0  0  0
  -24.1280   -8.6400   21.7810 C   0  0  0  0  0  3  0  0  0  0  0  0
  -22.8980   -8.5300   21.0870 C   0  0  0  0  0  0  0  0  0  0  0  0
  -22.5130   -9.5600   20.2090 C   0  0  0  0  0  3  0  0  0  0  0  0
  -23.3260  -10.6910   20.0300 C   0  0  0  0  0  3  0  0  0  0  0  0
  -22.0560   -7.4480   21.1790 O   0  0  0  0  0  0  0  0  0  0  0  0
  -21.9410   -6.7180   22.3350 C   0  0  0  0  0  0  0  0  0  0  0  0
  -21.5030   -7.3010   23.5440 C   0  0  0  0  0  3  0  0  0  0  0  0
  -21.3310   -6.4990   24.6900 C   0  0  0  0  0  3  0  0  0  0  0  0
  -21.5880   -5.1160   24.6300 C   0  0  0  0  0  0  0  0  0  0  0  0
  -22.0180   -4.5330   23.4240 C   0  0  0  0  0  3  0  0  0  0  0  0
  -22.1910   -5.3310   22.2790 C   0  0  0  0  0  0  0  0  0  0  0  0
  -22.5870   -4.7610   21.1150 F   0  0  0  0  0  0  0  0  0  0  0  0
  -21.4140   -4.3450   25.7280 F   0  0  0  0  0  0  0  0  0  0  0  0
  -23.7190  -13.9700   21.2570 C   0  0  0  0  0  0  0  0  0  0  0  0
  -23.0460  -13.2670   22.1590 N   0  0  0  0  0  0  0  0  0  0  0  0
  -23.3160  -15.0690   20.8740 O   0  0  0  0  0  0  0  0  0  0  0  0
  -23.3910  -12.3780   22.4920 H   0  0  0  0  0  0  0  0  0  0  0  0
  -22.1760  -13.6250   22.5280 H   0  0  0  0  0  0  0  0  0  0  0  0
  -26.3740  -15.4900   20.2500 N   0  0  0  0  0  0  0  0  0  0  0  0
  -25.7150  -16.2090   20.5190 H   0  0  0  0  0  0  0  0  0  0  0  0
  -27.2590  -15.8570   19.9250 H   0  0  0  0  0  0  0  0  0  0  0  0
  -29.2060  -23.5230   18.8920 C   0  0  0  0  0  1  0  0  0  0  0  0
  -28.9880  -25.3210   19.2890 O   0  0  0  0  0  0  0  0  0  0  0  0
  -24.9360  -31.2190   22.6520 C   0  0  0  0  0  0  0  0  0  0  0  0
  -27.9280  -26.5250   19.2680 C   0  0  0  0  0  0  0  0  0  0  0  0
  -23.8890  -29.8570   20.8940 C   0  0  0  0  0  3  0  0  0  0  0  0
  -25.4900  -28.4460   19.3610 C   0  0  0  0  0  0  0  0  0  0  0  0
  -26.4520  -30.1950   20.8270 C   0  0  0  0  0  2  0  0  0  0  0  0
  -26.6480  -28.8180   20.0490 C   0  0  0  0  0  0  0  0  0  0  0  0
  -27.8360  -27.8890   19.9740 C   0  0  0  0  0  3  0  0  0  0  0  0
  -26.7180  -26.4120   18.5240 C   0  0  0  0  0  3  0  0  0  0  0  0
  -25.5750  -27.2830   18.5680 C   0  0  0  0  0  3  0  0  0  0  0  0
  -24.2050  -29.2980   19.4730 C   0  0  0  0  0  2  0  0  0  0  0  0
  -25.1140  -30.4600   21.5120 N   0  0  0  0  0  0  0  0  0  0  0  0
  -23.8190  -31.3770   23.1730 O   0  0  0  0  0  0  0  0  0  0  0  0
  -23.2520  -28.7500   21.7790 C   0  0  0  0  0  0  0  0  0  0  0  0
  -21.9330  -28.5040   21.6550 N   0  0  0  0  0  0  0  0  0  0  0  0
  -23.9620  -28.1130   22.5600 O   0  0  0  0  0  0  0  0  0  0  0  0
  -21.3990  -29.0790   21.0190 H   0  0  0  0  0  0  0  0  0  0  0  0
  -18.6640  -26.9750   22.0930 C   0  0  0  0  0  0  0  0  0  0  0  0
  -21.2010  -27.4320   22.3430 C   0  0  0  0  0  3  0  0  0  0  0  0
  -21.4040  -26.0750   21.6280 C   0  0  0  0  0  2  0  0  0  0  0  0
  -20.3090  -25.7560   20.6060 C   0  0  0  0  0  2  0  0  0  0  0  0
  -18.9380  -25.7170   21.2860 C   0  0  0  0  0  2  0  0  0  0  0  0
  -19.7250  -27.7850   22.5820 C   0  0  0  0  0  0  0  0  0  0  0  0
  -19.4080  -28.9490   23.3160 C   0  0  0  0  0  3  0  0  0  0  0  0
  -18.0700  -29.3090   23.5600 C   0  0  0  0  0  3  0  0  0  0  0  0
  -17.0260  -28.5010   23.0760 C   0  0  0  0  0  3  0  0  0  0  0  0
  -17.3230  -27.3370   22.3460 C   0  0  0  0  0  3  0  0  0  0  0  0
  -26.1280  -31.9350   23.3560 C   0  0  0  0  0  3  0  0  0  0  0  0
  -25.6590  -33.2450   23.8570 N   0  0  0  0  0  0  0  0  0  0  0  0
  -25.8930  -34.4260   23.2730 C   0  0  0  0  0  0  0  0  0  0  0  0
  -26.5840  -34.5380   22.2570 O   0  0  0  0  0  0  0  0  0  0  0  0
  -25.0440  -33.2240   24.6560 H   0  0  0  0  0  0  0  0  0  0  0  0
  -23.9980  -36.0860   23.1460 C   0  0  0  0  0  1  0  0  0  0  0  0
  -25.2700  -35.6880   23.9110 C   0  0  0  0  0  3  0  0  0  0  0  0
  -27.2940  -36.6690   24.9080 C   0  0  0  0  0  1  0  0  0  0  0  0
  -26.1910  -36.8450   23.9660 N   0  0  0  0  0  0  0  0  0  0  0  0
  -25.6920  -37.6920   24.2200 H   0  0  0  0  0  0  0  0  0  0  0  0
  -26.7310  -31.0990   24.5530 C   0  0  1  0  0  0  0  0  0  0  0  0
  -25.6740  -30.6420   25.5850 C   0  0  0  0  0  1  0  0  0  0  0  0
  -27.4540  -29.8310   24.0460 C   0  0  0  0  0  1  0  0  0  0  0  0
  -27.8040  -31.9350   25.2920 C   0  0  0  0  0  1  0  0  0  0  0  0
  1  3  1  0
  2  1  1  0
  4  7  1  0
  5  4  1  0
  5  2  1  0
  5  6  1  0
  6  8  1  0
  6  3  1  0
 10 16  1  0
 10  9  1  0
 11 16  1  0
 12 13  1  0
 12 11  1  0
 14 13  1  0
 14 21  1  0
 14 15  1  0
 16 15  1  0
 17 10  2  0
 18 19  2  0
 19 38  1  0
 20 23  1  0
 20 19  1  0
 21 22  1  0
 21 18  1  0
 22 20  2  0
 23 24  1  0
 24 25  2  0
 26 29  1  0
 26 25  1  0
 27 26  2  0
 28 27  1  0
 28 23  2  0
 29 30  1  0
 30 31  1  0
 31 32  2  0
 33 32  1  0
 33 37  1  0
 34 33  2  0
 35 30  2  0
 35 34  1  0
 36 35  1  0
 38 39  1  0
 39 41  1  0
 39 42  1  0
 40 38  2  0
 43 18  1  0
 43 44  1  0
 45 43  1  0
 46 47  1  0
 48 59  2  0
 49 47  1  0
 49 54  1  0
 50 58  1  0
 50 60  1  0
 51 57  1  0
 51 53  1  0
 52 58  1  0
 53 52  1  0
 54 53  2  0
 55 56  1  0
 55 49  2  0
 56 51  2  0
 57 50  1  0
 58 48  1  0
 60 62  2  0
 61 60  1  0
 63 61  1  0
 64 73  2  0
 64 69  1  0
 65 61  1  0
 65 69  1  0
 66 65  1  0
 67 68  1  0
 67 66  1  0
 68 64  1  0
 69 70  2  0
 70 71  1  0
 72 71  2  0
 73 72  1  0
 74 48  1  0
 74 75  1  0
 74 84  1  0
 75 78  1  0
 76 75  1  0
 76 80  1  0
 77 76  2  0
 80 79  1  0
 80 82  1  0
 82 83  1  0
 82 81  1  0
 84 87  1  1
 84 85  1  0
 86 84  1  0
M  ISO  4   9 100  10 100  46 101  47 101
M  END
>  <TORSDO>  (35) 
F 18

>  <SCORE>  (35) 
-11.085

>  <name>  (35) 
34

>  <ligand_id>  (35) 
34

>  <original_smiles>  (35) 
[H]c1c([H])c([H])c2c(c1[H])C([H])([H])C([H])([H])C([H])([H])C2([H])N([H])C(=O)C1([H])N(C(=O)C([H])(N([H])C(=O)C([H])(N([H])C([H])([H])[H])C([H])([H])[H])C(C([H])([H])[H])(C([H])([H])[H])C([H])([H])[H])C([H])([H])c2c([H])c(OC([H])([H])C3([H])C([H])(C([H])([H])C(=O)N4C([H])([H])C([H])([H])C([H])([H])C([H])(n5nc(-c6c([H])c([H])c(Oc7c([H])c([H])c(F)c([H])c7F)c([H])c6[H])c(C(=O)N([H])[H])c5N([H])[H])C4([H])[H])C([H])([H])C4([H])C([H])([H])C([H])([H])C([H])([H])C43[H])c([H])c([H])c2C1([H])[H]

>  <smiles>  (35) 
[H]c1c([H])c([H])c2c(c1[H])C([H])([H])C([H])([H])C([H])([H])C2([H])N([H])C(=O)C1([H])N(C(=O)C([H])(N([H])C(=O)C([H])(N([H])C([H])([H])[H])C([H])([H])[H])C(C([H])([H])[H])(C([H])([H])[H])C([H])([H])[H])C([H])([H])c2c([H])c(OC([H])([H])C3([H])C([H])(C([H])([H])C(=O)N4C([H])([H])C([H])([H])C([H])([H])C([H])(n5nc(-c6c([H])c([H])c(Oc7c([H])c([H])c(F)c([H])c7F)c([H])c6[H])c(C(=O)N([H])[H])c5N([H])[H])C4([H])[H])C([H])([H])C4([H])C([H])([H])C([H])([H])C([H])([H])C43[H])c([H])c([H])c2C1([H])[H]

$$$$
35:0:0
     RDKit          3D

 89 97  0  0  1  0  0  0  0  0999 V2000
  -28.3530  -22.8330   20.5050 C   0  0  0  0  0  3  0  0  0  0  0  0
  -27.1940  -22.9670   21.4630 C   0  0  0  0  0  1  0  0  0  0  0  0
  -28.7980  -21.4760   20.5380 N   0  0  0  0  0  2  0  0  0  0  0  0
  -31.8670  -20.7540   18.1870 C   0  0  0  0  0  2  0  0  0  0  0  0
  -30.6090  -21.2670   18.8980 C   0  0  0  0  0  2  0  0  0  0  0  0
  -30.9810  -18.4180   18.5500 C   0  0  0  0  0  2  0  0  0  0  0  0
  -32.2440  -19.3230   18.5670 C   0  0  0  0  0  3  0  0  0  0  0  0
  -29.9260  -18.6260   19.7000 C   0  0  0  0  0  3  0  0  0  0  0  0
  -29.9720  -20.4370   20.0620 C   0  0  0  0  0  3  0  0  0  0  0  0
  -33.1360  -19.2530   19.8310 C   0  0  0  0  0  1  0  0  0  0  0  0
  -29.9550  -17.0220   20.5780 C   0  0  0  0  0  2  0  0  0  0  0  0
  -30.5180  -15.3780   20.2010 C   0  0  0  0  0  0  0  0  0  0  0  0
  -30.4120  -12.9210   19.3560 C   0  0  0  0  0  2  0  0  0  0  0  0
  -29.4890  -12.7240   18.1280 C   0  0  0  0  0  2  0  0  0  0  0  0
  -28.0500  -12.4360   18.5740 C   0  0  0  0  0  2  0  0  0  0  0  0
  -27.6000  -13.3890   19.7030 C   0  0  0  0  0  3  0  0  0  0  0  0
  -28.6610  -13.5930   20.8180 C   0  0  0  0  0  2  0  0  0  0  0  0
  -29.9070  -14.0820   20.1880 N   0  0  0  0  0  0  0  0  0  0  0  0
  -31.7080  -15.2870   19.8710 O   0  0  0  0  0  0  0  0  0  0  0  0
  -25.2230  -13.9250   20.4550 C   0  0  0  0  0  0  0  0  0  0  0  0
  -24.1600  -13.1410   20.8190 C   0  0  0  0  0  0  0  0  0  0  0  0
  -24.6320  -11.7920   20.7940 C   0  0  0  0  0  0  0  0  0  0  0  0
  -26.2740  -13.0550   20.2210 N   0  0  0  0  0  0  0  0  0  0  0  0
  -25.9270  -11.7660   20.4840 N   0  0  0  0  0  0  0  0  0  0  0  0
  -23.9040  -10.5260   20.9910 C   0  0  0  0  0  0  0  0  0  0  0  0
  -24.3340   -9.5690   21.9340 C   0  0  0  0  0  3  0  0  0  0  0  0
  -23.6120   -8.3700   22.1250 C   0  0  0  0  0  3  0  0  0  0  0  0
  -22.4400   -8.1220   21.3690 C   0  0  0  0  0  0  0  0  0  0  0  0
  -22.0300   -9.0690   20.4130 C   0  0  0  0  0  3  0  0  0  0  0  0
  -22.7520  -10.2590   20.2250 C   0  0  0  0  0  3  0  0  0  0  0  0
  -21.6890   -6.9740   21.4640 O   0  0  0  0  0  0  0  0  0  0  0  0
  -21.6390   -6.2390   22.6200 C   0  0  0  0  0  0  0  0  0  0  0  0
  -21.2140   -6.8020   23.8430 C   0  0  0  0  0  3  0  0  0  0  0  0
  -21.1090   -5.9930   24.9930 C   0  0  0  0  0  3  0  0  0  0  0  0
  -21.4230   -4.6220   24.9200 C   0  0  0  0  0  0  0  0  0  0  0  0
  -21.8380   -4.0570   23.7020 C   0  0  0  0  0  3  0  0  0  0  0  0
  -21.9440   -4.8640   22.5550 C   0  0  0  0  0  0  0  0  0  0  0  0
  -22.3230   -4.3110   21.3790 F   0  0  0  0  0  0  0  0  0  0  0  0
  -21.3180   -3.8430   26.0210 F   0  0  0  0  0  0  0  0  0  0  0  0
  -22.7600  -13.6110   21.0850 C   0  0  0  0  0  0  0  0  0  0  0  0
  -22.0400  -12.9030   21.9530 N   0  0  0  0  0  0  0  0  0  0  0  0
  -22.3140  -14.6310   20.5630 O   0  0  0  0  0  0  0  0  0  0  0  0
  -22.4220  -12.0830   22.3990 H   0  0  0  0  0  0  0  0  0  0  0  0
  -21.0960  -13.1830   22.1670 H   0  0  0  0  0  0  0  0  0  0  0  0
  -25.3910  -15.2900   20.2690 N   0  0  0  0  0  0  0  0  0  0  0  0
  -24.6520  -15.9770   20.3640 H   0  0  0  0  0  0  0  0  0  0  0  0
  -26.2610  -15.6970   19.9430 H   0  0  0  0  0  0  0  0  0  0  0  0
  -28.5000  -24.4370   19.7570 C   0  0  0  0  0  2  0  0  0  0  0  0
  -28.2850  -25.9590   20.3500 O   0  0  0  0  0  0  0  0  0  0  0  0
  -24.6150  -31.8540   23.2050 C   0  0  0  0  0  0  0  0  0  0  0  0
  -27.2360  -27.0050   20.2070 C   0  0  0  0  0  0  0  0  0  0  0  0
  -23.4290  -30.4370   21.5700 C   0  0  0  0  0  3  0  0  0  0  0  0
  -24.8960  -28.8310   20.1560 C   0  0  0  0  0  0  0  0  0  0  0  0
  -25.9880  -30.6720   21.4280 C   0  0  0  0  0  2  0  0  0  0  0  0
  -26.0730  -29.2610   20.7750 C   0  0  0  0  0  0  0  0  0  0  0  0
  -27.2270  -28.3620   20.7900 C   0  0  0  0  0  3  0  0  0  0  0  0
  -26.0280  -26.7190   19.5250 C   0  0  0  0  0  3  0  0  0  0  0  0
  -24.8960  -27.5790   19.5090 C   0  0  0  0  0  3  0  0  0  0  0  0
  -23.6620  -29.7320   20.2010 C   0  0  0  0  0  2  0  0  0  0  0  0
  -24.6980  -31.0140   22.1220 N   0  0  0  0  0  0  0  0  0  0  0  0
  -23.5270  -32.1480   23.7250 O   0  0  0  0  0  0  0  0  0  0  0  0
  -22.7370  -29.4540   22.5460 C   0  0  0  0  0  0  0  0  0  0  0  0
  -21.4050  -29.3010   22.4300 N   0  0  0  0  0  0  0  0  0  0  0  0
  -23.4040  -28.8310   23.3740 O   0  0  0  0  0  0  0  0  0  0  0  0
  -20.9240  -29.8580   21.7380 H   0  0  0  0  0  0  0  0  0  0  0  0
  -18.0200  -28.1160   22.9500 C   0  0  0  0  0  0  0  0  0  0  0  0
  -20.5790  -28.3690   23.2040 C   0  0  0  0  0  3  0  0  0  0  0  0
  -20.6740  -26.9350   22.6290 C   0  0  0  0  0  2  0  0  0  0  0  0
  -19.5660  -26.6180   21.6190 C   0  0  0  0  0  2  0  0  0  0  0  0
  -18.1890  -26.7680   22.2690 C   0  0  0  0  0  2  0  0  0  0  0  0
  -19.1430  -28.8750   23.3720 C   0  0  0  0  0  0  0  0  0  0  0  0
  -18.9290  -30.1360   23.9680 C   0  0  0  0  0  3  0  0  0  0  0  0
  -17.6260  -30.6350   24.1530 C   0  0  0  0  0  3  0  0  0  0  0  0
  -16.5180  -29.8690   23.7480 C   0  0  0  0  0  3  0  0  0  0  0  0
  -16.7150  -28.6140   23.1480 C   0  0  0  0  0  3  0  0  0  0  0  0
  -25.8890  -32.5020   23.8340 C   0  0  0  0  0  3  0  0  0  0  0  0
  -26.4030  -31.7380   25.1180 C   0  0  1  0  0  0  0  0  0  0  0  0
  -25.3050  -31.5050   26.1820 C   0  0  0  0  0  1  0  0  0  0  0  0
  -26.9870  -30.3550   24.7450 C   0  0  0  0  0  1  0  0  0  0  0  0
  -27.5480  -32.5340   25.7820 C   0  0  0  0  0  1  0  0  0  0  0  0
  -25.5670  -33.9000   24.1690 N   0  0  0  0  0  0  0  0  0  0  0  0
  -25.9030  -34.9630   23.4260 C   0  0  0  0  0  0  0  0  0  0  0  0
  -26.5760  -34.8710   22.3970 O   0  0  0  0  0  0  0  0  0  0  0  0
  -24.9650  -34.0430   24.9660 H   0  0  0  0  0  0  0  0  0  0  0  0
  -24.1750  -36.7680   23.0970 C   0  0  0  0  0  1  0  0  0  0  0  0
  -25.4170  -36.3490   23.9000 C   0  0  0  0  0  3  0  0  0  0  0  0
  -27.5520  -37.2330   24.7390 C   0  0  0  0  0  1  0  0  0  0  0  0
  -26.4480  -37.4040   23.7950 N   0  0  0  0  0  0  0  0  0  0  0  0
  -26.0420  -38.3210   23.9530 H   0  0  0  0  0  0  0  0  0  0  0  0
  1  3  1  0
  1  2  1  0
  4  7  1  0
  4  5  1  0
  5  9  1  0
  6  7  1  0
  6  8  1  0
  7 10  1  0
  8  9  1  0
  8 11  1  0
  9  3  1  0
 12 11  1  0
 13 18  1  0
 14 15  1  0
 14 13  1  0
 16 15  1  0
 16 23  1  0
 16 17  1  0
 18 12  1  0
 18 17  1  0
 19 12  2  0
 20 21  2  0
 21 40  1  0
 22 21  1  0
 22 25  1  0
 23 20  1  0
 23 24  1  0
 24 22  2  0
 25 26  1  0
 26 27  2  0
 28 31  1  0
 28 27  1  0
 29 28  2  0
 30 29  1  0
 30 25  2  0
 31 32  1  0
 32 33  1  0
 33 34  2  0
 35 34  1  0
 35 39  1  0
 36 35  2  0
 37 32  2  0
 37 36  1  0
 38 37  1  0
 40 41  1  0
 41 44  1  0
 41 43  1  0
 42 40  2  0
 45 46  1  0
 45 20  1  0
 47 45  1  0
 48 49  1  0
 48  1  1  0
 50 61  2  0
 51 49  1  0
 51 56  1  0
 52 60  1  0
 52 62  1  0
 53 59  1  0
 53 55  1  0
 54 60  1  0
 55 56  2  0
 55 54  1  0
 57 51  2  0
 58 57  1  0
 58 53  2  0
 59 52  1  0
 60 50  1  0
 62 64  2  0
 63 62  1  0
 65 63  1  0
 66 75  2  0
 66 71  1  0
 67 63  1  0
 67 71  1  0
 68 67  1  0
 69 70  1  0
 69 68  1  0
 70 66  1  0
 71 72  2  0
 72 73  1  0
 74 73  2  0
 75 74  1  0
 76 50  1  0
 76 81  1  0
 76 77  1  0
 77 80  1  1
 77 78  1  0
 79 77  1  0
 81 84  1  0
 82 86  1  0
 82 81  1  0
 83 82  2  0
 86 85  1  0
 88 86  1  0
 88 89  1  0
 88 87  1  0
M  ISO  4  11 100  12 100  48 101  49 101
M  END
>  <TORSDO>  (36) 
F 19

>  <SCORE>  (36) 
-15.732

>  <name>  (36) 
35

>  <ligand_id>  (36) 
35

>  <original_smiles>  (36) 
[H]c1c([H])c([H])c2c(c1[H])C([H])([H])C([H])([H])C([H])([H])C2([H])N([H])C(=O)C1([H])N(C(=O)C([H])(N([H])C(=O)C([H])(N([H])C([H])([H])[H])C([H])([H])[H])C(C([H])([H])[H])(C([H])([H])[H])C([H])([H])[H])C([H])([H])c2c([H])c(OC([H])([H])C(=NC3([H])C([H])([H])C([H])([H])C([H])(C([H])([H])[H])C([H])([H])C3([H])C([H])([H])C(=O)N3C([H])([H])C([H])([H])C([H])([H])C([H])(n4nc(-c5c([H])c([H])c(Oc6c([H])c([H])c(F)c([H])c6F)c([H])c5[H])c(C(=O)N([H])[H])c4N([H])[H])C3([H])[H])C([H])([H])[H])c([H])c([H])c2C1([H])[H]

>  <smiles>  (36) 
[H]c1c([H])c([H])c2c(c1[H])C([H])([H])C([H])([H])C([H])([H])C2([H])N([H])C(=O)C1([H])N(C(=O)C([H])(N([H])C(=O)C([H])(N([H])C([H])([H])[H])C([H])([H])[H])C(C([H])([H])[H])(C([H])([H])[H])C([H])([H])[H])C([H])([H])c2c([H])c(OC([H])([H])C(=NC3([H])C([H])([H])C([H])([H])C([H])(C([H])([H])[H])C([H])([H])C3([H])C([H])([H])C(=O)N3C([H])([H])C([H])([H])C([H])([H])C([H])(n4nc(-c5c([H])c([H])c(Oc6c([H])c([H])c(F)c([H])c6F)c([H])c5[H])c(C(=O)N([H])[H])c4N([H])[H])C3([H])[H])C([H])([H])[H])c([H])c([H])c2C1([H])[H]

$$$$
36:0:0
     RDKit          3D

 90100  0  0  1  0  0  0  0  0999 V2000
  -29.2930  -22.0430   20.5930 N   0  0  0  0  0  4  0  0  0  0  0  0
  -30.2850  -22.2110   20.6340 H   0  0  0  0  0  0  0  0  0  0  0  0
  -28.9710  -22.1520   21.5420 H   0  0  0  0  0  0  0  0  0  0  0  0
  -31.4690  -19.8090   20.1370 C   0  0  0  0  0  2  0  0  0  0  0  0
  -29.5420  -19.6640   21.6420 C   0  0  0  0  0  2  0  0  0  0  0  0
  -30.7930  -18.8530   21.1490 C   0  0  2  0  0  0  0  0  0  0  0  0
  -30.0950  -19.5140   19.4800 C   0  0  2  0  0  0  0  0  0  0  0  0
  -30.6480  -17.9500   19.8680 C   0  0  0  0  0  3  0  0  0  0  0  0
  -29.0960  -20.4580   20.3730 C   0  0  0  0  0  3  0  0  0  0  0  0
  -30.6510  -15.2170   19.8490 C   0  0  0  0  0  0  0  0  0  0  0  0
  -30.5020  -12.8280   18.9400 C   0  0  0  0  0  2  0  0  0  0  0  0
  -29.4920  -12.6580   17.7820 C   0  0  0  0  0  2  0  0  0  0  0  0
  -28.0820  -12.3720   18.3290 C   0  0  0  0  0  2  0  0  0  0  0  0
  -27.7070  -13.3350   19.4760 C   0  0  0  0  0  3  0  0  0  0  0  0
  -28.8380  -13.4690   20.5280 C   0  0  0  0  0  2  0  0  0  0  0  0
  -30.0290  -13.9540   19.8150 N   0  0  0  0  0  0  0  0  0  0  0  0
  -31.8470  -15.1980   19.5310 O   0  0  0  0  0  0  0  0  0  0  0  0
  -28.5910  -16.6880   20.3880 C   0  0  0  0  0  1  0  0  0  0  0  0
  -29.9800  -16.5090   19.9920 N   0  0  0  0  0  0  0  0  0  0  0  0
  -25.4070  -13.8990   20.4540 C   0  0  0  0  0  0  0  0  0  0  0  0
  -24.3750  -13.1150   20.8820 C   0  0  0  0  0  0  0  0  0  0  0  0
  -24.8290  -11.7670   20.7510 C   0  0  0  0  0  0  0  0  0  0  0  0
  -26.4210  -13.0300   20.0850 N   0  0  0  0  0  0  0  0  0  0  0  0
  -26.0880  -11.7390   20.3330 N   0  0  0  0  0  0  0  0  0  0  0  0
  -24.1100  -10.5020   20.9380 C   0  0  0  0  0  0  0  0  0  0  0  0
  -24.5420   -9.5410   21.8760 C   0  0  0  0  0  3  0  0  0  0  0  0
  -23.8210   -8.3390   22.0490 C   0  0  0  0  0  3  0  0  0  0  0  0
  -22.6560   -8.0950   21.2840 C   0  0  0  0  0  0  0  0  0  0  0  0
  -22.2450   -9.0460   20.3340 C   0  0  0  0  0  3  0  0  0  0  0  0
  -22.9660  -10.2390   20.1580 C   0  0  0  0  0  3  0  0  0  0  0  0
  -21.9060   -6.9460   21.3690 O   0  0  0  0  0  0  0  0  0  0  0  0
  -21.7700   -6.2630   22.5500 C   0  0  0  0  0  0  0  0  0  0  0  0
  -21.1920   -6.8580   23.6920 C   0  0  0  0  0  3  0  0  0  0  0  0
  -21.0050   -6.0990   24.8640 C   0  0  0  0  0  3  0  0  0  0  0  0
  -21.3870   -4.7440   24.8940 C   0  0  0  0  0  0  0  0  0  0  0  0
  -21.9610   -4.1480   23.7560 C   0  0  0  0  0  3  0  0  0  0  0  0
  -22.1480   -4.9050   22.5870 C   0  0  0  0  0  0  0  0  0  0  0  0
  -22.6800   -4.3210   21.4870 F   0  0  0  0  0  0  0  0  0  0  0  0
  -21.2010   -4.0130   26.0170 F   0  0  0  0  0  0  0  0  0  0  0  0
  -23.0090  -13.5870   21.2830 C   0  0  0  0  0  0  0  0  0  0  0  0
  -22.3450  -12.8580   22.1710 N   0  0  0  0  0  0  0  0  0  0  0  0
  -22.5460  -14.6420   20.8480 O   0  0  0  0  0  0  0  0  0  0  0  0
  -22.7340  -12.0050   22.5470 H   0  0  0  0  0  0  0  0  0  0  0  0
  -21.4320  -13.1570   22.4800 H   0  0  0  0  0  0  0  0  0  0  0  0
  -25.5400  -15.2750   20.3240 N   0  0  0  0  0  0  0  0  0  0  0  0
  -24.7740  -15.9020   20.5420 H   0  0  0  0  0  0  0  0  0  0  0  0
  -26.3410  -15.7510   19.9310 H   0  0  0  0  0  0  0  0  0  0  0  0
  -28.6450  -23.3150   19.8680 C   0  0  0  0  0  2  0  0  0  0  0  0
  -28.3730  -24.8020   20.6680 C   0  0  0  0  0  2  0  0  0  0  0  0
  -28.4280  -26.2970   20.1830 O   0  0  0  0  0  0  0  0  0  0  0  0
  -24.6630  -31.9350   23.1960 C   0  0  0  0  0  0  0  0  0  0  0  0
  -27.3270  -27.2340   20.2120 C   0  0  0  0  0  0  0  0  0  0  0  0
  -23.4890  -30.5140   21.5570 C   0  0  0  0  0  3  0  0  0  0  0  0
  -24.9680  -28.9420   20.1560 C   0  0  0  0  0  0  0  0  0  0  0  0
  -26.0400  -30.8150   21.4000 C   0  0  0  0  0  2  0  0  0  0  0  0
  -26.1390  -29.4170   20.7610 C   0  0  0  0  0  0  0  0  0  0  0  0
  -27.3220  -28.5830   20.7610 C   0  0  0  0  0  3  0  0  0  0  0  0
  -26.1250  -26.8550   19.5800 C   0  0  0  0  0  3  0  0  0  0  0  0
  -24.9730  -27.6740   19.5510 C   0  0  0  0  0  3  0  0  0  0  0  0
  -23.7270  -29.8250   20.1870 C   0  0  0  0  0  2  0  0  0  0  0  0
  -24.7500  -31.1130   22.1050 N   0  0  0  0  0  0  0  0  0  0  0  0
  -23.5700  -32.2060   23.7190 O   0  0  0  0  0  0  0  0  0  0  0  0
  -22.8200  -29.5060   22.5240 C   0  0  0  0  0  0  0  0  0  0  0  0
  -21.4920  -29.3270   22.4050 N   0  0  0  0  0  0  0  0  0  0  0  0
  -23.5000  -28.8830   23.3440 O   0  0  0  0  0  0  0  0  0  0  0  0
  -21.0000  -29.8830   21.7200 H   0  0  0  0  0  0  0  0  0  0  0  0
  -18.1200  -28.1140   22.9340 C   0  0  0  0  0  0  0  0  0  0  0  0
  -20.6820  -28.3830   23.1780 C   0  0  0  0  0  3  0  0  0  0  0  0
  -20.7810  -26.9530   22.5970 C   0  0  0  0  0  2  0  0  0  0  0  0
  -19.6710  -26.6330   21.5900 C   0  0  0  0  0  2  0  0  0  0  0  0
  -18.2950  -26.7690   22.2480 C   0  0  0  0  0  2  0  0  0  0  0  0
  -19.2410  -28.8780   23.3570 C   0  0  0  0  0  0  0  0  0  0  0  0
  -19.0220  -30.1350   23.9620 C   0  0  0  0  0  3  0  0  0  0  0  0
  -17.7160  -30.6280   24.1470 C   0  0  0  0  0  3  0  0  0  0  0  0
  -16.6110  -29.8610   23.7380 C   0  0  0  0  0  3  0  0  0  0  0  0
  -16.8140  -28.6070   23.1380 C   0  0  0  0  0  3  0  0  0  0  0  0
  -25.9280  -32.5920   23.8270 C   0  0  0  0  0  3  0  0  0  0  0  0
  -26.4490  -31.8320   25.1090 C   0  0  1  0  0  0  0  0  0  0  0  0
  -25.3530  -31.5730   26.1680 C   0  0  0  0  0  1  0  0  0  0  0  0
  -27.0640  -30.4650   24.7290 C   0  0  0  0  0  1  0  0  0  0  0  0
  -27.5780  -32.6500   25.7810 C   0  0  0  0  0  1  0  0  0  0  0  0
  -25.5910  -33.9860   24.1610 N   0  0  0  0  0  0  0  0  0  0  0  0
  -25.9070  -35.0500   23.4120 C   0  0  0  0  0  0  0  0  0  0  0  0
  -26.5790  -34.9630   22.3810 O   0  0  0  0  0  0  0  0  0  0  0  0
  -24.9930  -34.1240   24.9610 H   0  0  0  0  0  0  0  0  0  0  0  0
  -24.1570  -36.8280   23.0680 C   0  0  0  0  0  1  0  0  0  0  0  0
  -25.3990  -36.4290   23.8800 C   0  0  0  0  0  3  0  0  0  0  0  0
  -27.5110  -37.3450   24.7360 C   0  0  0  0  0  1  0  0  0  0  0  0
  -26.4170  -37.4970   23.7810 N   0  0  0  0  0  0  0  0  0  0  0  0
  -25.9950  -38.4100   23.9270 H   0  0  0  0  0  0  0  0  0  0  0  0
  1  2  1  0
  1  3  1  0
  6  4  1  1
  6  5  1  0
  7  8  1  0
  7  4  1  1
  7  9  1  0
  7  6  1  0
  8 19  1  0
  8  6  1  0
  9  1  1  0
  9  5  1  0
 10 19  1  0
 11 16  1  0
 12 13  1  0
 12 11  1  0
 14 13  1  0
 14 23  1  0
 14 15  1  0
 16 10  1  0
 16 15  1  0
 17 10  2  0
 19 18  1  0
 20 21  2  0
 21 40  1  0
 22 21  1  0
 22 25  1  0
 23 24  1  0
 23 20  1  0
 24 22  2  0
 25 26  1  0
 26 27  2  0
 28 31  1  0
 28 27  1  0
 29 28  2  0
 30 29  1  0
 30 25  2  0
 31 32  1  0
 32 37  2  0
 32 33  1  0
 33 34  2  0
 34 35  1  0
 35 39  1  0
 36 35  2  0
 37 36  1  0
 38 37  1  0
 40 41  1  0
 41 44  1  0
 41 43  1  0
 42 40  2  0
 45 20  1  0
 45 46  1  0
 47 45  1  0
 48  1  1  0
 48 49  1  0
 50 52  1  0
 50 49  1  0
 51 62  2  0
 52 57  1  0
 53 61  1  0
 53 63  1  0
 54 60  1  0
 54 56  1  0
 55 61  1  0
 56 57  2  0
 56 55  1  0
 58 52  2  0
 59 58  1  0
 59 54  2  0
 60 53  1  0
 61 51  1  0
 63 65  2  0
 64 63  1  0
 66 64  1  0
 67 76  2  0
 67 72  1  0
 68 64  1  0
 68 72  1  0
 69 68  1  0
 70 71  1  0
 70 69  1  0
 71 67  1  0
 72 73  2  0
 73 74  1  0
 75 74  2  0
 76 75  1  0
 77 51  1  0
 77 82  1  0
 77 78  1  0
 78 81  1  1
 78 79  1  0
 80 78  1  0
 82 85  1  0
 83 87  1  0
 83 82  1  0
 84 83  2  0
 87 86  1  0
 89 87  1  0
 89 90  1  0
 89 88  1  0
M  ISO  4  10 100  19 100  49 101  50 101
M  END
>  <TORSDO>  (37) 
F 19

>  <SCORE>  (37) 
-14.413

>  <name>  (37) 
36

>  <ligand_id>  (37) 
36

>  <original_smiles>  (37) 
[H]c1c([H])c([H])c2c(c1[H])C([H])([H])C([H])([H])C([H])([H])C2([H])N([H])C(=O)C1([H])N(C(=O)C([H])(N([H])C(=O)C([H])(N([H])C([H])([H])[H])C([H])([H])[H])C(C([H])([H])[H])(C([H])([H])[H])C([H])([H])[H])C([H])([H])c2c([H])c(OC([H])([H])C([H])([H])[N+]([H])([H])C3([H])C([H])([H])C4([H])C([H])([H])C3([H])C4([H])N(C(=O)N3C([H])([H])C([H])([H])C([H])([H])C([H])(n4nc(-c5c([H])c([H])c(Oc6c([H])c([H])c(F)c([H])c6F)c([H])c5[H])c(C(=O)N([H])[H])c4N([H])[H])C3([H])[H])C([H])([H])[H])c([H])c([H])c2C1([H])[H]

>  <smiles>  (37) 
[H]c1c([H])c([H])c2c(c1[H])C([H])([H])C([H])([H])C([H])([H])C2([H])N([H])C(=O)C1([H])N(C(=O)C([H])(N([H])C(=O)C([H])(N([H])C([H])([H])[H])C([H])([H])[H])C(C([H])([H])[H])(C([H])([H])[H])C([H])([H])[H])C([H])([H])c2c([H])c(OC([H])([H])C([H])([H])[N+]([H])([H])C3([H])C([H])([H])C4([H])C([H])([H])C3([H])C4([H])N(C(=O)N3C([H])([H])C([H])([H])C([H])([H])C([H])(n4nc(-c5c([H])c([H])c(Oc6c([H])c([H])c(F)c([H])c6F)c([H])c5[H])c(C(=O)N([H])[H])c4N([H])[H])C3([H])[H])C([H])([H])[H])c([H])c([H])c2C1([H])[H]

$$$$
37:0:0
     RDKit          3D

 89 98  0  0  1  0  0  0  0  0999 V2000
  -28.9770  -22.7060   21.3450 C   0  0  0  0  0  2  0  0  0  0  0  0
  -28.7420  -22.4690   18.9770 C   0  0  0  0  0  2  0  0  0  0  0  0
  -31.4860  -18.2860   20.6150 C   0  0  0  0  0  2  0  0  0  0  0  0
  -29.9230  -21.4210   21.4230 C   0  0  0  0  0  2  0  0  0  0  0  0
  -29.7020  -21.2100   18.9360 C   0  0  0  0  0  2  0  0  0  0  0  0
  -31.4360  -19.7530   20.1120 C   0  0  0  0  0  2  0  0  0  0  0  0
  -29.2180  -18.9480   20.4420 C   0  0  0  0  0  2  0  0  0  0  0  0
  -29.0400  -23.5840   20.0440 C   0  0  0  0  0  3  0  0  0  0  0  0
  -30.1560  -17.6520   20.2060 C   0  0  0  0  0  3  0  0  0  0  0  0
  -29.9940  -20.3560   20.2380 C   0  0  1  0  0  0  0  0  0  0  0  0
  -29.8270  -16.1730   20.8480 C   0  0  0  0  0  2  0  0  0  0  0  0
  -30.5780  -14.8090   20.3910 C   0  0  0  0  0  0  0  0  0  0  0  0
  -30.3730  -12.5310   19.3500 C   0  0  0  0  0  2  0  0  0  0  0  0
  -29.4340  -12.6340   18.1260 C   0  0  0  0  0  2  0  0  0  0  0  0
  -27.9600  -12.4650   18.5450 C   0  0  0  0  0  2  0  0  0  0  0  0
  -27.5950  -13.3290   19.7800 C   0  0  0  0  0  3  0  0  0  0  0  0
  -28.6540  -13.2160   20.8970 C   0  0  0  0  0  2  0  0  0  0  0  0
  -29.9570  -13.5740   20.3200 N   0  0  0  0  0  0  0  0  0  0  0  0
  -31.7420  -14.9000   19.9890 O   0  0  0  0  0  0  0  0  0  0  0  0
  -25.2080  -13.9290   20.5010 C   0  0  0  0  0  0  0  0  0  0  0  0
  -24.1370  -13.1600   20.8700 C   0  0  0  0  0  0  0  0  0  0  0  0
  -24.5930  -11.8070   20.8440 C   0  0  0  0  0  0  0  0  0  0  0  0
  -26.2470  -13.0450   20.2690 N   0  0  0  0  0  0  0  0  0  0  0  0
  -25.8850  -11.7620   20.5350 N   0  0  0  0  0  0  0  0  0  0  0  0
  -23.8590  -10.5500   21.0410 C   0  0  0  0  0  0  0  0  0  0  0  0
  -24.2910   -9.5770   21.9700 C   0  0  0  0  0  3  0  0  0  0  0  0
  -23.5580   -8.3840   22.1500 C   0  0  0  0  0  3  0  0  0  0  0  0
  -22.3790   -8.1560   21.4030 C   0  0  0  0  0  0  0  0  0  0  0  0
  -21.9660   -9.1170   20.4620 C   0  0  0  0  0  3  0  0  0  0  0  0
  -22.6980  -10.3010   20.2790 C   0  0  0  0  0  3  0  0  0  0  0  0
  -21.6140   -7.0170   21.4950 O   0  0  0  0  0  0  0  0  0  0  0  0
  -21.5730   -6.2680   22.6430 C   0  0  0  0  0  0  0  0  0  0  0  0
  -21.1740   -6.8210   23.8790 C   0  0  0  0  0  3  0  0  0  0  0  0
  -21.0800   -6.0010   25.0210 C   0  0  0  0  0  3  0  0  0  0  0  0
  -21.3740   -4.6250   24.9280 C   0  0  0  0  0  0  0  0  0  0  0  0
  -21.7650   -4.0710   23.6950 C   0  0  0  0  0  3  0  0  0  0  0  0
  -21.8620   -4.8910   22.5560 C   0  0  0  0  0  0  0  0  0  0  0  0
  -22.2190   -4.3460   21.3680 F   0  0  0  0  0  0  0  0  0  0  0  0
  -21.2750   -3.8360   26.0220 F   0  0  0  0  0  0  0  0  0  0  0  0
  -22.7410  -13.6450   21.1350 C   0  0  0  0  0  0  0  0  0  0  0  0
  -22.0080  -12.9570   22.0020 N   0  0  0  0  0  0  0  0  0  0  0  0
  -22.3080  -14.6690   20.6070 O   0  0  0  0  0  0  0  0  0  0  0  0
  -22.3730  -12.1320   22.4530 H   0  0  0  0  0  0  0  0  0  0  0  0
  -21.0700  -13.2610   22.2220 H   0  0  0  0  0  0  0  0  0  0  0  0
  -25.3830  -15.2970   20.3200 N   0  0  0  0  0  0  0  0  0  0  0  0
  -24.6300  -15.9690   20.4280 H   0  0  0  0  0  0  0  0  0  0  0  0
  -26.2490  -15.7220   20.0090 H   0  0  0  0  0  0  0  0  0  0  0  0
  -28.0330  -24.8780   19.9200 C   0  0  0  0  0  2  0  0  0  0  0  0
  -28.2980  -26.3440   20.2110 O   0  0  0  0  0  0  0  0  0  0  0  0
  -24.6450  -31.9000   23.2250 C   0  0  0  0  0  0  0  0  0  0  0  0
  -27.2080  -27.2640   20.1550 C   0  0  0  0  0  0  0  0  0  0  0  0
  -23.4260  -30.5050   21.5970 C   0  0  0  0  0  3  0  0  0  0  0  0
  -24.8590  -28.9440   20.1590 C   0  0  0  0  0  0  0  0  0  0  0  0
  -25.9710  -30.7940   21.3980 C   0  0  0  0  0  2  0  0  0  0  0  0
  -26.0400  -29.4100   20.7490 C   0  0  0  0  0  0  0  0  0  0  0  0
  -27.2150  -28.5830   20.7360 C   0  0  0  0  0  3  0  0  0  0  0  0
  -25.9960  -26.8820   19.5310 C   0  0  0  0  0  3  0  0  0  0  0  0
  -24.8450  -27.6910   19.5350 C   0  0  0  0  0  3  0  0  0  0  0  0
  -23.6270  -29.8280   20.2170 C   0  0  0  0  0  2  0  0  0  0  0  0
  -24.7020  -31.0840   22.1300 N   0  0  0  0  0  0  0  0  0  0  0  0
  -23.5660  -32.1830   23.7650 O   0  0  0  0  0  0  0  0  0  0  0  0
  -22.7570  -29.4950   22.5630 C   0  0  0  0  0  0  0  0  0  0  0  0
  -21.4290  -29.3260   22.4460 N   0  0  0  0  0  0  0  0  0  0  0  0
  -23.4370  -28.8670   23.3800 O   0  0  0  0  0  0  0  0  0  0  0  0
  -20.9370  -29.8870   21.7640 H   0  0  0  0  0  0  0  0  0  0  0  0
  -18.0510  -28.1360   22.9670 C   0  0  0  0  0  0  0  0  0  0  0  0
  -20.6120  -28.3920   23.2230 C   0  0  0  0  0  3  0  0  0  0  0  0
  -20.7060  -26.9580   22.6540 C   0  0  0  0  0  2  0  0  0  0  0  0
  -19.5990  -26.6330   21.6440 C   0  0  0  0  0  2  0  0  0  0  0  0
  -18.2220  -26.7840   22.2950 C   0  0  0  0  0  2  0  0  0  0  0  0
  -19.1740  -28.8980   23.3890 C   0  0  0  0  0  0  0  0  0  0  0  0
  -18.9590  -30.1630   23.9790 C   0  0  0  0  0  3  0  0  0  0  0  0
  -17.6560  -30.6670   24.1480 C   0  0  0  0  0  3  0  0  0  0  0  0
  -16.5480  -29.9020   23.7430 C   0  0  0  0  0  3  0  0  0  0  0  0
  -16.7470  -28.6380   23.1590 C   0  0  0  0  0  3  0  0  0  0  0  0
  -25.9320  -32.5300   23.8380 C   0  0  0  0  0  3  0  0  0  0  0  0
  -25.6230  -33.9250   24.1820 N   0  0  0  0  0  0  0  0  0  0  0  0
  -25.9390  -34.9860   23.4270 C   0  0  0  0  0  0  0  0  0  0  0  0
  -26.5890  -34.8900   22.3820 O   0  0  0  0  0  0  0  0  0  0  0  0
  -25.0420  -34.0700   24.9960 H   0  0  0  0  0  0  0  0  0  0  0  0
  -24.1990  -36.7770   23.1260 C   0  0  0  0  0  1  0  0  0  0  0  0
  -25.4600  -36.3710   23.9040 C   0  0  0  0  0  3  0  0  0  0  0  0
  -27.6140  -37.2580   24.6830 C   0  0  0  0  0  1  0  0  0  0  0  0
  -26.4870  -37.4290   23.7700 N   0  0  0  0  0  0  0  0  0  0  0  0
  -26.0830  -38.3470   23.9310 H   0  0  0  0  0  0  0  0  0  0  0  0
  -26.4590  -31.7500   25.1060 C   0  0  1  0  0  0  0  0  0  0  0  0
  -25.3760  -31.5060   26.1840 C   0  0  0  0  0  1  0  0  0  0  0  0
  -27.0350  -30.3740   24.7020 C   0  0  0  0  0  1  0  0  0  0  0  0
  -27.6180  -32.5380   25.7620 C   0  0  0  0  0  1  0  0  0  0  0  0
  1  4  1  0
  2  8  1  0
  5  2  1  0
 10  6  1  6
  6  3  1  0
  8 48  1  0
  8  1  1  0
  9  7  1  0
  9  3  1  0
  9 11  1  0
 10  5  1  0
 10  7  1  0
 10  4  1  0
 12 11  1  0
 13 18  1  0
 14 15  1  0
 14 13  1  0
 16 15  1  0
 16 23  1  0
 16 17  1  0
 18 12  1  0
 18 17  1  0
 19 12  2  0
 20 21  2  0
 21 40  1  0
 22 21  1  0
 22 25  1  0
 23 20  1  0
 23 24  1  0
 24 22  2  0
 25 26  1  0
 26 27  2  0
 28 31  1  0
 28 27  1  0
 29 28  2  0
 30 29  1  0
 30 25  2  0
 31 32  1  0
 32 33  1  0
 33 34  2  0
 35 34  1  0
 35 39  1  0
 36 35  2  0
 37 32  2  0
 37 36  1  0
 38 37  1  0
 40 41  1  0
 41 44  1  0
 41 43  1  0
 42 40  2  0
 45 46  1  0
 45 20  1  0
 47 45  1  0
 48 49  1  0
 50 61  2  0
 51 49  1  0
 51 56  1  0
 52 60  1  0
 52 62  1  0
 53 59  1  0
 53 55  1  0
 54 60  1  0
 55 54  1  0
 56 55  2  0
 57 58  1  0
 57 51  2  0
 58 53  2  0
 59 52  1  0
 60 50  1  0
 62 64  2  0
 63 62  1  0
 65 63  1  0
 66 75  2  0
 66 71  1  0
 67 63  1  0
 67 71  1  0
 68 67  1  0
 69 70  1  0
 69 68  1  0
 70 66  1  0
 71 72  2  0
 72 73  1  0
 74 73  2  0
 75 74  1  0
 76 50  1  0
 76 77  1  0
 76 86  1  0
 77 80  1  0
 78 82  1  0
 78 77  1  0
 79 78  2  0
 82 81  1  0
 84 82  1  0
 84 85  1  0
 84 83  1  0
 86 89  1  1
 86 87  1  0
 88 86  1  0
M  ISO  4  11 100  12 100  48 101  49 101
M  END
>  <TORSDO>  (38) 
F 18

>  <SCORE>  (38) 
-14.739

>  <name>  (38) 
37

>  <ligand_id>  (38) 
37

>  <original_smiles>  (38) 
[H]c1c([H])c([H])c2c(c1[H])C([H])([H])C([H])([H])C([H])([H])C2([H])N([H])C(=O)C1([H])N(C(=O)C([H])(N([H])C(=O)C([H])(N([H])C([H])([H])[H])C([H])([H])[H])C(C([H])([H])[H])(C([H])([H])[H])C([H])([H])[H])C([H])([H])c2c([H])c(OC([H])([H])C3([H])C([H])([H])C([H])([H])C4(C([H])([H])C3([H])[H])C([H])([H])C([H])([H])C([H])(C([H])([H])C(=O)N3C([H])([H])C([H])([H])C([H])([H])C([H])(n5nc(-c6c([H])c([H])c(Oc7c([H])c([H])c(F)c([H])c7F)c([H])c6[H])c(C(=O)N([H])[H])c5N([H])[H])C3([H])[H])C4([H])[H])c([H])c([H])c2C1([H])[H]

>  <smiles>  (38) 
[H]c1c([H])c([H])c2c(c1[H])C([H])([H])C([H])([H])C([H])([H])C2([H])N([H])C(=O)C1([H])N(C(=O)C([H])(N([H])C(=O)C([H])(N([H])C([H])([H])[H])C([H])([H])[H])C(C([H])([H])[H])(C([H])([H])[H])C([H])([H])[H])C([H])([H])c2c([H])c(OC([H])([H])C3([H])C([H])([H])C([H])([H])C4(C([H])([H])C3([H])[H])C([H])([H])C([H])([H])C([H])(C([H])([H])C(=O)N3C([H])([H])C([H])([H])C([H])([H])C([H])(n5nc(-c6c([H])c([H])c(Oc7c([H])c([H])c(F)c([H])c7F)c([H])c6[H])c(C(=O)N([H])[H])c5N([H])[H])C3([H])[H])C4([H])[H])c([H])c([H])c2C1([H])[H]

$$$$
38:0:0
     RDKit          3D

 95105  0  0  1  0  0  0  0  0999 V2000
  -30.9540  -23.8710   22.7440 C   0  0  0  0  0  2  0  0  0  0  0  0
  -29.6710  -24.5060   22.1810 C   0  0  0  0  0  2  0  0  0  0  0  0
  -30.1910  -20.9550   22.6950 C   0  0  0  0  0  2  0  0  0  0  0  0
  -31.0990  -20.7390   20.3670 C   0  0  0  0  0  2  0  0  0  0  0  0
  -31.0920  -23.8420   20.4020 C   0  0  0  0  0  2  0  0  0  0  0  0
  -29.2070  -22.4480   20.8050 C   0  0  0  0  0  2  0  0  0  0  0  0
  -29.4530  -19.6190   22.4870 C   0  0  0  0  0  2  0  0  0  0  0  0
  -30.3220  -19.4170   20.2200 C   0  0  0  0  0  2  0  0  0  0  0  0
  -31.4170  -22.9490   21.5940 C   0  0  0  0  0  3  0  0  0  0  0  0
  -30.4660  -21.7330   21.3810 C   0  0  1  0  0  0  0  0  0  0  0  0
  -29.6100  -23.9420   20.7460 C   0  0  1  0  0  0  0  0  0  0  0  0
  -30.1690  -18.7370   21.5320 N   0  0  2  0  0  4  0  0  0  0  0  0
  -31.0960  -18.6060   21.9100 H   0  0  0  0  0  0  0  0  0  0  0  0
  -28.8240  -24.8040   19.7390 C   0  0  0  0  0  2  0  0  0  0  0  0
  -27.4060  -25.2260   20.1570 C   0  0  0  0  0  2  0  0  0  0  0  0
  -26.9630  -26.1110   19.1420 O   0  0  0  0  0  0  0  0  0  0  0  0
  -24.2820  -31.3130   23.2160 C   0  0  0  0  0  0  0  0  0  0  0  0
  -25.9090  -26.9210   19.4660 C   0  0  0  0  0  0  0  0  0  0  0  0
  -22.7060  -30.2460   21.6340 C   0  0  0  0  0  3  0  0  0  0  0  0
  -23.7540  -28.6760   19.9200 C   0  0  0  0  0  0  0  0  0  0  0  0
  -25.2120  -30.3040   21.1390 C   0  0  0  0  0  2  0  0  0  0  0  0
  -25.0320  -28.9980   20.3970 C   0  0  0  0  0  0  0  0  0  0  0  0
  -26.1160  -28.1220   20.1730 C   0  0  0  0  0  3  0  0  0  0  0  0
  -24.6210  -26.6000   18.9950 C   0  0  0  0  0  3  0  0  0  0  0  0
  -23.5400  -27.4730   19.2250 C   0  0  0  0  0  3  0  0  0  0  0  0
  -22.6550  -29.6790   20.1900 C   0  0  0  0  0  2  0  0  0  0  0  0
  -24.0940  -30.6270   22.0550 N   0  0  0  0  0  0  0  0  0  0  0  0
  -23.3220  -31.6660   23.9140 O   0  0  0  0  0  0  0  0  0  0  0  0
  -22.0380  -29.2270   22.5850 C   0  0  0  0  0  0  0  0  0  0  0  0
  -20.7020  -29.1190   22.5010 N   0  0  0  0  0  0  0  0  0  0  0  0
  -22.7150  -28.5390   23.3520 O   0  0  0  0  0  0  0  0  0  0  0  0
  -20.2190  -29.7230   21.8510 H   0  0  0  0  0  0  0  0  0  0  0  0
  -17.3070  -27.9790   22.9660 C   0  0  0  0  0  0  0  0  0  0  0  0
  -19.8640  -28.1990   23.2680 C   0  0  0  0  0  3  0  0  0  0  0  0
  -19.9520  -26.7620   22.7040 C   0  0  0  0  0  2  0  0  0  0  0  0
  -18.8590  -26.4500   21.6770 C   0  0  0  0  0  2  0  0  0  0  0  0
  -17.4710  -26.6220   22.3030 C   0  0  0  0  0  2  0  0  0  0  0  0
  -18.4310  -28.7260   23.4050 C   0  0  0  0  0  0  0  0  0  0  0  0
  -18.2250  -29.9980   23.9820 C   0  0  0  0  0  3  0  0  0  0  0  0
  -16.9280  -30.5210   24.1260 C   0  0  0  0  0  3  0  0  0  0  0  0
  -15.8170  -29.7710   23.7040 C   0  0  0  0  0  3  0  0  0  0  0  0
  -16.0080  -28.5010   23.1300 C   0  0  0  0  0  3  0  0  0  0  0  0
  -25.7100  -31.7060   23.7130 C   0  0  0  0  0  3  0  0  0  0  0  0
  -25.6530  -33.1040   24.1570 N   0  0  0  0  0  0  0  0  0  0  0  0
  -26.0980  -34.1460   23.4410 C   0  0  0  0  0  0  0  0  0  0  0  0
  -26.6710  -34.0190   22.3550 O   0  0  0  0  0  0  0  0  0  0  0  0
  -25.1420  -33.2880   25.0080 H   0  0  0  0  0  0  0  0  0  0  0  0
  -24.6580  -36.2060   23.3340 C   0  0  0  0  0  1  0  0  0  0  0  0
  -25.8690  -35.5550   24.0220 C   0  0  0  0  0  3  0  0  0  0  0  0
  -28.1610  -36.0380   24.7570 C   0  0  0  0  0  1  0  0  0  0  0  0
  -27.0470  -36.4390   23.9010 N   0  0  0  0  0  0  0  0  0  0  0  0
  -26.8030  -37.3990   24.1280 H   0  0  0  0  0  0  0  0  0  0  0  0
  -26.2460  -30.7730   24.8670 C   0  0  1  0  0  0  0  0  0  0  0  0
  -25.2570  -30.6120   26.0440 C   0  0  0  0  0  1  0  0  0  0  0  0
  -26.5690  -29.3620   24.3230 C   0  0  0  0  0  1  0  0  0  0  0  0
  -27.5690  -31.3440   25.4300 C   0  0  0  0  0  1  0  0  0  0  0  0
  -29.5560  -17.3830   21.4520 C   0  0  0  0  0  2  0  0  0  0  0  0
  -30.4430  -16.3310   20.7470 C   0  0  0  0  0  2  0  0  0  0  0  0
  -29.9200  -14.8890   20.9480 C   0  0  0  0  0  2  0  0  0  0  0  0
  -30.4190  -13.8760   19.8990 C   0  0  0  0  0  0  0  0  0  0  0  0
  -29.9700  -11.8280   18.5860 C   0  0  0  0  0  2  0  0  0  0  0  0
  -28.8520  -12.0910   17.5590 C   0  0  0  0  0  2  0  0  0  0  0  0
  -27.4620  -11.8870   18.1930 C   0  0  0  0  0  2  0  0  0  0  0  0
  -27.3070  -12.6300   19.5470 C   0  0  0  0  0  3  0  0  0  0  0  0
  -28.5160  -12.3410   20.4650 C   0  0  0  0  0  2  0  0  0  0  0  0
  -29.7400  -12.7110   19.7380 N   0  0  0  0  0  0  0  0  0  0  0  0
  -31.3890  -14.1770   19.1960 O   0  0  0  0  0  0  0  0  0  0  0  0
  -25.0340  -13.1410   20.6450 C   0  0  0  0  0  0  0  0  0  0  0  0
  -24.0390  -12.3230   21.1100 C   0  0  0  0  0  0  0  0  0  0  0  0
  -24.5010  -10.9860   20.9080 C   0  0  0  0  0  0  0  0  0  0  0  0
  -26.0410  -12.2990   20.1970 N   0  0  0  0  0  0  0  0  0  0  0  0
  -25.7290  -10.9950   20.4090 N   0  0  0  0  0  0  0  0  0  0  0  0
  -23.8220   -9.7000   21.1100 C   0  0  0  0  0  0  0  0  0  0  0  0
  -24.3110   -8.7440   22.0280 C   0  0  0  0  0  3  0  0  0  0  0  0
  -23.6320   -7.5210   22.2160 C   0  0  0  0  0  3  0  0  0  0  0  0
  -22.4510   -7.2450   21.4870 C   0  0  0  0  0  0  0  0  0  0  0  0
  -21.9820   -8.1910   20.5580 C   0  0  0  0  0  3  0  0  0  0  0  0
  -22.6620   -9.4050   20.3670 C   0  0  0  0  0  3  0  0  0  0  0  0
  -21.7400   -6.0740   21.5860 O   0  0  0  0  0  0  0  0  0  0  0  0
  -21.6300   -5.3970   22.7740 C   0  0  0  0  0  0  0  0  0  0  0  0
  -21.0220   -5.9770   23.9080 C   0  0  0  0  0  3  0  0  0  0  0  0
  -20.8670   -5.2200   25.0870 C   0  0  0  0  0  3  0  0  0  0  0  0
  -21.3100   -3.8850   25.1310 C   0  0  0  0  0  0  0  0  0  0  0  0
  -21.9110   -3.3050   24.0010 C   0  0  0  0  0  3  0  0  0  0  0  0
  -22.0670   -4.0570   22.8250 C   0  0  0  0  0  0  0  0  0  0  0  0
  -22.6290   -3.4870   21.7310 F   0  0  0  0  0  0  0  0  0  0  0  0
  -21.1540   -3.1560   26.2610 F   0  0  0  0  0  0  0  0  0  0  0  0
  -22.6950  -12.7510   21.6240 C   0  0  0  0  0  0  0  0  0  0  0  0
  -22.1100  -11.9760   22.5310 N   0  0  0  0  0  0  0  0  0  0  0  0
  -22.1760  -13.8050   21.2600 O   0  0  0  0  0  0  0  0  0  0  0  0
  -22.5450  -11.1210   22.8460 H   0  0  0  0  0  0  0  0  0  0  0  0
  -21.2140  -12.2410   22.9150 H   0  0  0  0  0  0  0  0  0  0  0  0
  -25.1580  -14.5230   20.5490 N   0  0  0  0  0  0  0  0  0  0  0  0
  -24.4090  -15.1530   20.8160 H   0  0  0  0  0  0  0  0  0  0  0  0
  -25.9470  -15.0010   20.1310 H   0  0  0  0  0  0  0  0  0  0  0  0
  2  1  1  0
  5 11  1  0
 10  6  1  6
  7  3  1  0
  8  4  1  0
  8 12  1  0
  9  5  1  0
  9  1  1  0
 10  4  1  0
 10  9  1  0
 10  3  1  0
 11 14  1  6
 11  6  1  0
 11  2  1  0
 12 13  1  1
 12  7  1  0
 14 15  1  0
 16 18  1  0
 16 15  1  0
 17 28  2  0
 18 23  1  0
 19 27  1  0
 19 29  1  0
 20 26  1  0
 20 22  1  0
 21 27  1  0
 22 21  1  0
 23 22  2  0
 24 25  1  0
 24 18  2  0
 25 20  2  0
 26 19  1  0
 27 17  1  0
 29 31  2  0
 30 29  1  0
 32 30  1  0
 33 42  2  0
 33 38  1  0
 34 30  1  0
 34 38  1  0
 35 34  1  0
 36 37  1  0
 36 35  1  0
 37 33  1  0
 38 39  2  0
 39 40  1  0
 41 40  2  0
 42 41  1  0
 43 17  1  0
 43 44  1  0
 43 53  1  0
 44 47  1  0
 45 49  1  0
 45 44  1  0
 46 45  2  0
 49 48  1  0
 51 49  1  0
 51 52  1  0
 51 50  1  0
 53 56  1  1
 53 54  1  0
 55 53  1  0
 57 12  1  0
 58 59  1  0
 58 57  1  0
 60 59  1  0
 61 66  1  0
 62 63  1  0
 62 61  1  0
 64 63  1  0
 64 71  1  0
 64 65  1  0
 66 60  1  0
 66 65  1  0
 67 60  2  0
 68 69  2  0
 69 88  1  0
 70 69  1  0
 70 73  1  0
 71 72  1  0
 71 68  1  0
 72 70  2  0
 73 74  1  0
 74 75  2  0
 76 79  1  0
 76 75  1  0
 77 76  2  0
 78 77  1  0
 78 73  2  0
 79 80  1  0
 80 85  2  0
 80 81  1  0
 81 82  2  0
 82 83  1  0
 83 87  1  0
 84 83  2  0
 85 84  1  0
 86 85  1  0
 88 89  1  0
 89 91  1  0
 89 92  1  0
 90 88  2  0
 93 68  1  0
 93 94  1  0
 95 93  1  0
M  ISO  4  15 101  16 101  59 100  60 100
M  END
>  <TORSDO>  (39) 
F 21

>  <SCORE>  (39) 
-7.262

>  <name>  (39) 
38

>  <ligand_id>  (39) 
38

>  <original_smiles>  (39) 
[H]c1c([H])c([H])c2c(c1[H])C([H])([H])C([H])([H])C([H])([H])C2([H])N([H])C(=O)C1([H])N(C(=O)C([H])(N([H])C(=O)C([H])(N([H])C([H])([H])[H])C([H])([H])[H])C(C([H])([H])[H])(C([H])([H])[H])C([H])([H])[H])C([H])([H])c2c([H])c(OC([H])([H])C([H])([H])C34C([H])([H])C([H])([H])C([H])(C3([H])[H])C3(C4([H])[H])C([H])([H])C([H])([H])[N+]([H])(C([H])([H])C([H])([H])C([H])([H])C(=O)N4C([H])([H])C([H])([H])C([H])([H])C([H])(n5nc(-c6c([H])c([H])c(Oc7c([H])c([H])c(F)c([H])c7F)c([H])c6[H])c(C(=O)N([H])[H])c5N([H])[H])C4([H])[H])C([H])([H])C3([H])[H])c([H])c([H])c2C1([H])[H]

>  <smiles>  (39) 
[H]c1c([H])c([H])c2c(c1[H])C([H])([H])C([H])([H])C([H])([H])C2([H])N([H])C(=O)C1([H])N(C(=O)C([H])(N([H])C(=O)C([H])(N([H])C([H])([H])[H])C([H])([H])[H])C(C([H])([H])[H])(C([H])([H])[H])C([H])([H])[H])C([H])([H])c2c([H])c(OC([H])([H])C([H])([H])C34C([H])([H])C([H])([H])C([H])(C3([H])[H])C3(C4([H])[H])C([H])([H])C([H])([H])[N+]([H])(C([H])([H])C([H])([H])C([H])([H])C(=O)N4C([H])([H])C([H])([H])C([H])([H])C([H])(n5nc(-c6c([H])c([H])c(Oc7c([H])c([H])c(F)c([H])c7F)c([H])c6[H])c(C(=O)N([H])[H])c5N([H])[H])C4([H])[H])C([H])([H])C3([H])[H])c([H])c([H])c2C1([H])[H]

$$$$
39:0:0
     RDKit          3D

 93103  0  0  1  0  0  0  0  0999 V2000
  -29.3490  -20.6110   20.6160 N   0  0  0  0  0  4  0  0  0  0  0  0
  -30.3000  -20.8000   20.3430 H   0  0  0  0  0  0  0  0  0  0  0  0
  -29.3340  -20.6470   21.6240 H   0  0  0  0  0  0  0  0  0  0  0  0
  -32.5090  -17.6490   20.7390 C   0  0  0  0  0  2  0  0  0  0  0  0
  -32.2350  -19.0960   20.3310 C   0  0  0  0  0  2  0  0  0  0  0  0
  -29.6850  -16.4420   20.0890 C   0  0  0  0  0  3  0  0  0  0  0  0
  -29.8740  -17.8430   20.9400 C   0  0  0  0  0  3  0  0  0  0  0  0
  -30.3680  -17.4340   19.0750 C   0  0  0  0  0  3  0  0  0  0  0  0
  -29.0560  -19.0970   20.2520 C   0  0  0  0  0  3  0  0  0  0  0  0
  -31.1550  -18.0490   20.2160 C   0  0  2  0  0  0  0  0  0  0  0  0
  -29.4130  -18.6490   18.7720 C   0  0  1  0  0  0  0  0  0  0  0  0
  -30.1030  -19.7250   17.8940 C   0  0  0  0  0  1  0  0  0  0  0  0
  -28.1480  -18.1950   18.0120 C   0  0  0  0  0  1  0  0  0  0  0  0
  -30.4910  -14.9780   20.1600 C   0  0  0  0  0  0  0  0  0  0  0  0
  -30.3210  -12.6450   19.2140 C   0  0  0  0  0  2  0  0  0  0  0  0
  -29.3540  -12.6460   18.0080 C   0  0  0  0  0  2  0  0  0  0  0  0
  -27.9040  -12.4260   18.4770 C   0  0  0  0  0  2  0  0  0  0  0  0
  -27.5330  -13.3270   19.6850 C   0  0  0  0  0  3  0  0  0  0  0  0
  -28.6240  -13.3350   20.7760 C   0  0  0  0  0  2  0  0  0  0  0  0
  -29.8880  -13.7250   20.1460 N   0  0  0  0  0  0  0  0  0  0  0  0
  -31.6980  -14.9790   19.8980 O   0  0  0  0  0  0  0  0  0  0  0  0
  -25.1790  -13.8690   20.5330 C   0  0  0  0  0  0  0  0  0  0  0  0
  -24.1350  -13.0780   20.9260 C   0  0  0  0  0  0  0  0  0  0  0  0
  -24.6100  -11.7320   20.8480 C   0  0  0  0  0  0  0  0  0  0  0  0
  -26.2180  -13.0070   20.2310 N   0  0  0  0  0  0  0  0  0  0  0  0
  -25.8870  -11.7150   20.4870 N   0  0  0  0  0  0  0  0  0  0  0  0
  -23.9010  -10.4590   21.0390 C   0  0  0  0  0  0  0  0  0  0  0  0
  -24.3600   -9.4850   21.9530 C   0  0  0  0  0  3  0  0  0  0  0  0
  -23.6470   -8.2800   22.1320 C   0  0  0  0  0  3  0  0  0  0  0  0
  -22.4630   -8.0390   21.3980 C   0  0  0  0  0  0  0  0  0  0  0  0
  -22.0230   -9.0010   20.4730 C   0  0  0  0  0  3  0  0  0  0  0  0
  -22.7350  -10.1990   20.2910 C   0  0  0  0  0  3  0  0  0  0  0  0
  -21.7210   -6.8860   21.4880 O   0  0  0  0  0  0  0  0  0  0  0  0
  -21.6850   -6.1420   22.6400 C   0  0  0  0  0  0  0  0  0  0  0  0
  -21.2490   -6.6880   23.8660 C   0  0  0  0  0  3  0  0  0  0  0  0
  -21.1600   -5.8680   25.0090 C   0  0  0  0  0  3  0  0  0  0  0  0
  -21.4980   -4.5040   24.9260 C   0  0  0  0  0  0  0  0  0  0  0  0
  -21.9280   -3.9590   23.7040 C   0  0  0  0  0  3  0  0  0  0  0  0
  -22.0190   -4.7750   22.5630 C   0  0  0  0  0  0  0  0  0  0  0  0
  -22.4120   -4.2380   21.3830 F   0  0  0  0  0  0  0  0  0  0  0  0
  -21.4060   -3.7150   26.0220 F   0  0  0  0  0  0  0  0  0  0  0  0
  -22.7450  -13.5380   21.2560 C   0  0  0  0  0  0  0  0  0  0  0  0
  -22.0550  -12.8210   22.1360 N   0  0  0  0  0  0  0  0  0  0  0  0
  -22.2810  -14.5670   20.7690 O   0  0  0  0  0  0  0  0  0  0  0  0
  -22.4420  -11.9860   22.5490 H   0  0  0  0  0  0  0  0  0  0  0  0
  -21.1240  -13.1110   22.4010 H   0  0  0  0  0  0  0  0  0  0  0  0
  -25.3250  -15.2460   20.3830 N   0  0  0  0  0  0  0  0  0  0  0  0
  -24.5610  -15.8900   20.5470 H   0  0  0  0  0  0  0  0  0  0  0  0
  -26.1550  -15.7000   20.0250 H   0  0  0  0  0  0  0  0  0  0  0  0
  -28.4670  -21.8360   20.1520 C   0  0  0  0  0  2  0  0  0  0  0  0
  -28.8550  -23.4350   20.4970 C   0  0  0  0  0  3  0  0  0  0  0  0
  -27.9000  -24.7510   20.0990 C   0  0  0  0  0  3  0  0  0  0  0  0
  -28.1890  -26.2530   20.3430 O   0  0  0  0  0  0  0  0  0  0  0  0
  -24.6200  -31.9610   23.2760 C   0  0  0  0  0  0  0  0  0  0  0  0
  -27.1440  -27.2380   20.2570 C   0  0  0  0  0  0  0  0  0  0  0  0
  -23.4050  -30.5750   21.6410 C   0  0  0  0  0  3  0  0  0  0  0  0
  -24.8350  -28.9900   20.2160 C   0  0  0  0  0  0  0  0  0  0  0  0
  -25.9590  -30.8230   21.4720 C   0  0  0  0  0  2  0  0  0  0  0  0
  -26.0180  -29.4320   20.8220 C   0  0  0  0  0  0  0  0  0  0  0  0
  -27.1760  -28.5700   20.8250 C   0  0  0  0  0  3  0  0  0  0  0  0
  -25.9380  -26.8960   19.6060 C   0  0  0  0  0  3  0  0  0  0  0  0
  -24.8070  -27.7360   19.5910 C   0  0  0  0  0  3  0  0  0  0  0  0
  -23.6170  -29.8970   20.2630 C   0  0  0  0  0  2  0  0  0  0  0  0
  -24.6810  -31.1420   22.1840 N   0  0  0  0  0  0  0  0  0  0  0  0
  -23.5380  -32.2570   23.8060 O   0  0  0  0  0  0  0  0  0  0  0  0
  -22.7190  -29.5740   22.6050 C   0  0  0  0  0  0  0  0  0  0  0  0
  -21.3910  -29.4100   22.4730 N   0  0  0  0  0  0  0  0  0  0  0  0
  -23.3840  -28.9490   23.4350 O   0  0  0  0  0  0  0  0  0  0  0  0
  -20.9130  -29.9640   21.7770 H   0  0  0  0  0  0  0  0  0  0  0  0
  -17.9990  -28.2390   22.9670 C   0  0  0  0  0  0  0  0  0  0  0  0
  -20.5580  -28.4850   23.2460 C   0  0  0  0  0  3  0  0  0  0  0  0
  -20.6520  -27.0480   22.6830 C   0  0  0  0  0  2  0  0  0  0  0  0
  -19.5530  -26.7250   21.6660 C   0  0  0  0  0  2  0  0  0  0  0  0
  -18.1690  -26.8840   22.3000 C   0  0  0  0  0  2  0  0  0  0  0  0
  -19.1200  -28.9960   23.3970 C   0  0  0  0  0  0  0  0  0  0  0  0
  -18.9060  -30.2640   23.9810 C   0  0  0  0  0  3  0  0  0  0  0  0
  -17.6030  -30.7730   24.1390 C   0  0  0  0  0  3  0  0  0  0  0  0
  -16.4950  -30.0120   23.7240 C   0  0  0  0  0  3  0  0  0  0  0  0
  -16.6950  -28.7470   23.1440 C   0  0  0  0  0  3  0  0  0  0  0  0
  -25.9070  -32.5840   23.9000 C   0  0  0  0  0  3  0  0  0  0  0  0
  -26.4090  -31.8120   25.1810 C   0  0  1  0  0  0  0  0  0  0  0  0
  -25.3110  -31.5930   26.2480 C   0  0  0  0  0  1  0  0  0  0  0  0
  -26.9820  -30.4270   24.8030 C   0  0  0  0  0  1  0  0  0  0  0  0
  -27.5640  -32.6000   25.8450 C   0  0  0  0  0  1  0  0  0  0  0  0
  -25.6080  -33.9860   24.2310 N   0  0  0  0  0  0  0  0  0  0  0  0
  -25.9270  -35.0380   23.4640 C   0  0  0  0  0  0  0  0  0  0  0  0
  -26.5730  -34.9290   22.4180 O   0  0  0  0  0  0  0  0  0  0  0  0
  -25.0330  -34.1440   25.0450 H   0  0  0  0  0  0  0  0  0  0  0  0
  -24.1880  -36.8330   23.1660 C   0  0  0  0  0  1  0  0  0  0  0  0
  -25.4600  -36.4300   23.9310 C   0  0  0  0  0  3  0  0  0  0  0  0
  -27.6230  -37.3220   24.6780 C   0  0  0  0  0  1  0  0  0  0  0  0
  -26.4870  -37.4820   23.7720 N   0  0  0  0  0  0  0  0  0  0  0  0
  -26.0870  -38.4040   23.9280 H   0  0  0  0  0  0  0  0  0  0  0  0
  1  3  1  0
  2  1  1  0
  5  4  1  0
  6 14  1  0
  6  7  1  0
  7 10  1  0
  8 11  1  0
  8  6  1  0
  8 10  1  0
  9  1  1  0
  9  7  1  0
 10  5  1  6
 10  4  1  0
 11  9  1  0
 11 12  1  6
 13 11  1  0
 15 20  1  0
 16 17  1  0
 16 15  1  0
 18 17  1  0
 18 25  1  0
 18 19  1  0
 20 14  1  0
 20 19  1  0
 21 14  2  0
 22 23  2  0
 23 42  1  0
 24 23  1  0
 24 27  1  0
 25 26  1  0
 25 22  1  0
 26 24  2  0
 27 28  1  0
 28 29  2  0
 30 33  1  0
 30 29  1  0
 31 30  2  0
 32 31  1  0
 32 27  2  0
 33 34  1  0
 34 35  1  0
 35 36  2  0
 37 36  1  0
 37 41  1  0
 38 37  2  0
 39 34  2  0
 39 38  1  0
 40 39  1  0
 42 43  1  0
 43 46  1  0
 43 45  1  0
 44 42  2  0
 47 22  1  0
 47 48  1  0
 49 47  1  0
 50 51  1  0
 50  1  1  0
 52 53  1  0
 52 51  2  0
 54 65  2  0
 55 53  1  0
 55 60  1  0
 56 64  1  0
 56 66  1  0
 57 63  1  0
 57 59  1  0
 58 64  1  0
 59 60  2  0
 59 58  1  0
 61 55  2  0
 62 61  1  0
 62 57  2  0
 63 56  1  0
 64 54  1  0
 66 68  2  0
 67 66  1  0
 69 67  1  0
 70 79  2  0
 70 75  1  0
 71 67  1  0
 71 75  1  0
 72 71  1  0
 73 74  1  0
 73 72  1  0
 74 70  1  0
 75 76  2  0
 76 77  1  0
 78 77  2  0
 79 78  1  0
 80 54  1  0
 80 85  1  0
 80 81  1  0
 81 84  1  1
 81 82  1  0
 83 81  1  0
 85 88  1  0
 86 90  1  0
 86 85  1  0
 87 86  2  0
 90 89  1  0
 92 93  1  0
 92 90  1  0
 92 91  1  0
M  ISO  4   6 100  14 100  52 101  53 101
M  END
>  <TORSDO>  (40) 
F 20

>  <SCORE>  (40) 
-14.094

>  <name>  (40) 
39

>  <ligand_id>  (40) 
39

>  <original_smiles>  (40) 
[H]c1c([H])c([H])c2c(c1[H])C([H])([H])C([H])([H])C([H])([H])C2([H])N([H])C(=O)C1([H])N(C(=O)C([H])(N([H])C(=O)C([H])(N([H])C([H])([H])[H])C([H])([H])[H])C(C([H])([H])[H])(C([H])([H])[H])C([H])([H])[H])C([H])([H])c2c([H])c(OC([H])([H])C([H])([H])C([H])([H])[N+]([H])([H])C3([H])C4([H])C([H])(C(=O)N5C([H])([H])C([H])([H])C([H])([H])C([H])(n6nc(-c7c([H])c([H])c(Oc8c([H])c([H])c(F)c([H])c8F)c([H])c7[H])c(C(=O)N([H])[H])c6N([H])[H])C5([H])[H])C([H])(C45C([H])([H])C5([H])[H])C3(C([H])([H])[H])C([H])([H])[H])c([H])c([H])c2C1([H])[H]

>  <smiles>  (40) 
[H]c1c([H])c([H])c2c(c1[H])C([H])([H])C([H])([H])C([H])([H])C2([H])N([H])C(=O)C1([H])N(C(=O)C([H])(N([H])C(=O)C([H])(N([H])C([H])([H])[H])C([H])([H])[H])C(C([H])([H])[H])(C([H])([H])[H])C([H])([H])[H])C([H])([H])c2c([H])c(OC([H])([H])C([H])([H])C([H])([H])[N+]([H])([H])C3([H])C4([H])C([H])(C(=O)N5C([H])([H])C([H])([H])C([H])([H])C([H])(n6nc(-c7c([H])c([H])c(Oc8c([H])c([H])c(F)c([H])c8F)c([H])c7[H])c(C(=O)N([H])[H])c6N([H])[H])C5([H])[H])C([H])(C45C([H])([H])C5([H])[H])C3(C([H])([H])[H])C([H])([H])[H])c([H])c([H])c2C1([H])[H]

$$$$
40:0:0
     RDKit          3D

 86 93  0  0  1  0  0  0  0  0999 V2000
  -29.2770  -21.5090   22.5280 C   0  0  0  0  0  2  0  0  0  0  0  0
  -27.8950  -21.6600   21.8720 C   0  0  0  0  0  2  0  0  0  0  0  0
  -30.3590  -22.2260   21.7050 C   0  0  0  0  0  2  0  0  0  0  0  0
  -28.3940  -19.7730   19.9310 C   0  0  0  0  0  2  0  0  0  0  0  0
  -30.4640  -20.2330   19.8430 C   0  0  0  0  0  2  0  0  0  0  0  0
  -29.7590  -18.6030   20.2350 C   0  0  0  0  0  2  0  0  0  0  0  0
  -28.0200  -21.5900   20.3330 C   0  0  0  0  0  3  0  0  0  0  0  0
  -30.0800  -22.0450   20.1950 C   0  0  0  0  0  3  0  0  0  0  0  0
  -28.7190  -23.2200   19.8780 C   0  0  0  0  0  2  0  0  0  0  0  0
  -30.3780  -16.5870   20.0180 C   0  0  0  0  0  2  0  0  0  0  0  0
  -30.6810  -13.8560   19.3370 C   0  0  0  0  0  2  0  0  0  0  0  0
  -29.8640  -13.1460   18.1920 C   0  0  0  0  0  2  0  0  0  0  0  0
  -28.5070  -12.6430   18.6900 C   0  0  0  0  0  2  0  0  0  0  0  0
  -27.9000  -13.6840   19.6460 C   0  0  0  0  0  3  0  0  0  0  0  0
  -28.8810  -14.2870   20.7020 C   0  0  0  0  0  2  0  0  0  0  0  0
  -29.9560  -15.0950   20.0130 N   0  0  0  0  0  0  0  0  0  0  0  0
  -31.6050  -16.3840   19.8070 O   0  0  0  0  0  1  0  0  0  0  0  0
  -25.5670  -14.1280   20.4970 C   0  0  0  0  0  0  0  0  0  0  0  0
  -24.5260  -13.3280   20.8660 C   0  0  0  0  0  0  0  0  0  0  0  0
  -25.0060  -11.9830   20.7830 C   0  0  0  0  0  0  0  0  0  0  0  0
  -26.6150  -13.2810   20.2040 N   0  0  0  0  0  0  0  0  0  0  0  0
  -26.2940  -11.9760   20.4350 N   0  0  0  0  0  0  0  0  0  0  0  0
  -24.2840  -10.7120   20.9570 C   0  0  0  0  0  0  0  0  0  0  0  0
  -24.6810   -9.7570   21.9180 C   0  0  0  0  0  3  0  0  0  0  0  0
  -23.9510   -8.5590   22.0860 C   0  0  0  0  0  3  0  0  0  0  0  0
  -22.8060   -8.3070   21.2910 C   0  0  0  0  0  0  0  0  0  0  0  0
  -22.4270   -9.2520   20.3210 C   0  0  0  0  0  3  0  0  0  0  0  0
  -23.1580  -10.4400   20.1530 C   0  0  0  0  0  3  0  0  0  0  0  0
  -22.0530   -7.1600   21.3650 O   0  0  0  0  0  0  0  0  0  0  0  0
  -21.8810   -6.4840   22.5460 C   0  0  0  0  0  0  0  0  0  0  0  0
  -21.3030   -7.0970   23.6780 C   0  0  0  0  0  3  0  0  0  0  0  0
  -21.0820   -6.3470   24.8500 C   0  0  0  0  0  3  0  0  0  0  0  0
  -21.4290   -4.9830   24.8900 C   0  0  0  0  0  0  0  0  0  0  0  0
  -22.0000   -4.3690   23.7610 C   0  0  0  0  0  3  0  0  0  0  0  0
  -22.2220   -5.1170   22.5920 C   0  0  0  0  0  0  0  0  0  0  0  0
  -22.7520   -4.5140   21.5000 F   0  0  0  0  0  0  0  0  0  0  0  0
  -21.2100   -4.2590   26.0120 F   0  0  0  0  0  0  0  0  0  0  0  0
  -23.1330  -13.7910   21.1750 C   0  0  0  0  0  0  0  0  0  0  0  0
  -22.4290  -13.0780   22.0450 N   0  0  0  0  0  0  0  0  0  0  0  0
  -22.6820  -14.8240   20.6820 O   0  0  0  0  0  0  0  0  0  0  0  0
  -22.8100  -12.2430   22.4660 H   0  0  0  0  0  0  0  0  0  0  0  0
  -21.4950  -13.3710   22.2960 H   0  0  0  0  0  0  0  0  0  0  0  0
  -25.7100  -15.5050   20.3510 N   0  0  0  0  0  0  0  0  0  0  0  0
  -24.9370  -16.1460   20.5010 H   0  0  0  0  0  0  0  0  0  0  0  0
  -26.5470  -15.9650   20.0200 H   0  0  0  0  0  0  0  0  0  0  0  0
  -28.5020  -25.1810   20.1850 O   0  0  0  0  0  1  0  0  0  0  0  0
  -24.9170  -31.8550   23.2530 C   0  0  0  0  0  0  0  0  0  0  0  0
  -27.5540  -26.5710   20.1320 C   0  0  0  0  0  0  0  0  0  0  0  0
  -23.7940  -30.4960   21.5450 C   0  0  0  0  0  3  0  0  0  0  0  0
  -25.2940  -28.8400   20.1150 C   0  0  0  0  0  0  0  0  0  0  0  0
  -26.3890  -30.5530   21.5220 C   0  0  0  0  0  2  0  0  0  0  0  0
  -26.4800  -29.1040   20.8080 C   0  0  0  0  0  0  0  0  0  0  0  0
  -27.5670  -28.0130   20.7780 C   0  0  0  0  0  3  0  0  0  0  0  0
  -26.3310  -26.6320   19.3800 C   0  0  0  0  0  3  0  0  0  0  0  0
  -25.2840  -27.6370   19.3770 C   0  0  0  0  0  3  0  0  0  0  0  0
  -24.0900  -29.8230   20.1650 C   0  0  0  0  0  2  0  0  0  0  0  0
  -25.0620  -31.0100   22.1610 N   0  0  0  0  0  0  0  0  0  0  0  0
  -23.8020  -32.1380   23.7330 O   0  0  0  0  0  0  0  0  0  0  0  0
  -23.0350  -29.5090   22.4770 C   0  0  0  0  0  0  0  0  0  0  0  0
  -21.7080  -29.3380   22.3010 N   0  0  0  0  0  0  0  0  0  0  0  0
  -23.6600  -28.8900   23.3400 O   0  0  0  0  0  0  0  0  0  0  0  0
  -21.2450  -29.8890   21.5910 H   0  0  0  0  0  0  0  0  0  0  0  0
  -18.3360  -28.0070   22.6700 C   0  0  0  0  0  0  0  0  0  0  0  0
  -20.8760  -28.3610   23.0230 C   0  0  0  0  0  3  0  0  0  0  0  0
  -21.0440  -26.9450   22.4240 C   0  0  0  0  0  2  0  0  0  0  0  0
  -19.9910  -26.6110   21.3620 C   0  0  0  0  0  2  0  0  0  0  0  0
  -18.5840  -26.6880   21.9590 C   0  0  0  0  0  2  0  0  0  0  0  0
  -19.4100  -28.8010   23.1530 C   0  0  0  0  0  0  0  0  0  0  0  0
  -19.1190  -30.0300   23.7840 C   0  0  0  0  0  3  0  0  0  0  0  0
  -17.7900  -30.4690   23.9300 C   0  0  0  0  0  3  0  0  0  0  0  0
  -16.7300  -29.6750   23.4560 C   0  0  0  0  0  3  0  0  0  0  0  0
  -17.0040  -28.4450   22.8340 C   0  0  0  0  0  3  0  0  0  0  0  0
  -26.1400  -32.5170   23.9610 C   0  0  0  0  0  3  0  0  0  0  0  0
  -25.7850  -33.9090   24.3240 N   0  0  0  0  0  0  0  0  0  0  0  0
  -26.0950  -35.0050   23.6160 C   0  0  0  0  0  0  0  0  0  0  0  0
  -26.7560  -34.9520   22.5780 O   0  0  0  0  0  0  0  0  0  0  0  0
  -25.1910  -34.0200   25.1320 H   0  0  0  0  0  0  0  0  0  0  0  0
  -24.3110  -36.7780   23.4030 C   0  0  0  0  0  1  0  0  0  0  0  0
  -25.6000  -36.3750   24.1360 C   0  0  0  0  0  3  0  0  0  0  0  0
  -27.7430  -37.3140   24.8920 C   0  0  0  0  0  1  0  0  0  0  0  0
  -26.5990  -37.4590   23.9970 N   0  0  0  0  0  0  0  0  0  0  0  0
  -26.1740  -38.3660   24.1690 H   0  0  0  0  0  0  0  0  0  0  0  0
  -26.5910  -31.7420   25.2630 C   0  0  1  0  0  0  0  0  0  0  0  0
  -25.4450  -31.4960   26.2740 C   0  0  0  0  0  1  0  0  0  0  0  0
  -27.2000  -30.3680   24.9130 C   0  0  0  0  0  1  0  0  0  0  0  0
  -27.7040  -32.5370   25.9870 C   0  0  0  0  0  1  0  0  0  0  0  0
  2  1  1  0
  3  1  1  0
  4  6  1  0
  4  7  1  0
  5  6  1  0
  7  9  1  0
  7  2  1  0
  8  5  1  0
  8  3  1  0
  9  8  1  0
 11 16  1  0
 12 13  1  0
 12 11  1  0
 14 13  1  0
 14 21  1  0
 14 15  1  0
 16 10  1  0
 16 15  1  0
 17 10  1  0
 18 19  2  0
 19 38  1  0
 20 19  1  0
 20 23  1  0
 21 22  1  0
 21 18  1  0
 22 20  2  0
 23 24  1  0
 24 25  2  0
 26 29  1  0
 26 25  1  0
 27 26  2  0
 28 27  1  0
 28 23  2  0
 29 30  1  0
 30 35  2  0
 30 31  1  0
 31 32  2  0
 32 33  1  0
 33 37  1  0
 34 33  2  0
 35 34  1  0
 36 35  1  0
 38 39  1  0
 39 42  1  0
 39 41  1  0
 40 38  2  0
 43 18  1  0
 43 44  1  0
 45 43  1  0
 47 58  2  0
 48 46  1  0
 48 53  1  0
 49 57  1  0
 49 59  1  0
 50 56  1  0
 50 52  1  0
 51 57  1  0
 52 51  1  0
 53 52  2  0
 54 48  2  0
 55 54  1  0
 55 50  2  0
 56 49  1  0
 57 47  1  0
 59 61  2  0
 60 59  1  0
 62 60  1  0
 63 72  2  0
 63 68  1  0
 64 60  1  0
 64 68  1  0
 65 64  1  0
 66 67  1  0
 66 65  1  0
 67 63  1  0
 68 69  2  0
 69 70  1  0
 71 70  2  0
 72 71  1  0
 73 47  1  0
 73 74  1  0
 73 83  1  0
 74 77  1  0
 75 79  1  0
 75 74  1  0
 76 75  2  0
 79 78  1  0
 81 79  1  0
 81 82  1  0
 81 80  1  0
 83 86  1  1
 83 84  1  0
 85 83  1  0
M  ISO  4   6 100   9 101  10 100  46 101
M  END
>  <TORSDO>  (41) 
F 16

>  <SCORE>  (41) 
-15.887

>  <name>  (41) 
40

>  <ligand_id>  (41) 
40

>  <original_smiles>  (41) 
[H]c1c([H])c([H])c2c(c1[H])C([H])([H])C([H])([H])C([H])([H])C2([H])N([H])C(=O)C1([H])N(C(=O)C([H])(N([H])C(=O)C([H])(N([H])C([H])([H])[H])C([H])([H])[H])C(C([H])([H])[H])(C([H])([H])[H])C([H])([H])[H])C([H])([H])c2c([H])c(OC3([H])C4([H])C([H])([H])C([H])([H])C([H])([H])C3([H])C([H])([H])C([H])(C(=O)N3C([H])([H])C([H])([H])C([H])([H])C([H])(n5nc(-c6c([H])c([H])c(Oc7c([H])c([H])c(F)c([H])c7F)c([H])c6[H])c(C(=O)N([H])[H])c5N([H])[H])C3([H])[H])C4([H])[H])c([H])c([H])c2C1([H])[H]

>  <smiles>  (41) 
[H]c1c([H])c([H])c2c(c1[H])C([H])([H])C([H])([H])C([H])([H])C2([H])N([H])C(=O)C1([H])N(C(=O)C([H])(N([H])C(=O)C([H])(N([H])C([H])([H])[H])C([H])([H])[H])C(C([H])([H])[H])(C([H])([H])[H])C([H])([H])[H])C([H])([H])c2c([H])c(OC3([H])C4([H])C([H])([H])C([H])([H])C([H])([H])C3([H])C([H])([H])C([H])(C(=O)N3C([H])([H])C([H])([H])C([H])([H])C([H])(n5nc(-c6c([H])c([H])c(Oc7c([H])c([H])c(F)c([H])c7F)c([H])c6[H])c(C(=O)N([H])[H])c5N([H])[H])C3([H])[H])C4([H])[H])c([H])c([H])c2C1([H])[H]

$$$$
41:0:0
     RDKit          3D

 82 87  0  0  1  0  0  0  0  0999 V2000
  -28.2180  -24.6470   20.0990 O   0  0  0  0  0  1  0  0  0  0  0  0
  -24.7140  -31.6670   23.1190 C   0  0  0  0  0  0  0  0  0  0  0  0
  -27.2980  -26.1360   20.0810 C   0  0  0  0  0  0  0  0  0  0  0  0
  -23.5800  -30.2770   21.4480 C   0  0  0  0  0  3  0  0  0  0  0  0
  -25.0620  -28.5460   20.0490 C   0  0  0  0  0  0  0  0  0  0  0  0
  -26.1800  -30.2620   21.4230 C   0  0  0  0  0  2  0  0  0  0  0  0
  -26.2590  -28.7770   20.7340 C   0  0  0  0  0  0  0  0  0  0  0  0
  -27.3240  -27.6250   20.7020 C   0  0  0  0  0  3  0  0  0  0  0  0
  -26.0590  -26.2830   19.3410 C   0  0  0  0  0  3  0  0  0  0  0  0
  -25.0400  -27.3310   19.3260 C   0  0  0  0  0  3  0  0  0  0  0  0
  -23.8720  -29.5600   20.0860 C   0  0  0  0  0  2  0  0  0  0  0  0
  -24.8570  -30.7840   22.0500 N   0  0  0  0  0  0  0  0  0  0  0  0
  -23.6000  -31.9730   23.5910 O   0  0  0  0  0  0  0  0  0  0  0  0
  -22.8030  -29.3310   22.4080 C   0  0  0  0  0  0  0  0  0  0  0  0
  -21.4680  -29.1900   22.2600 N   0  0  0  0  0  0  0  0  0  0  0  0
  -23.4260  -28.7120   23.2730 O   0  0  0  0  0  0  0  0  0  0  0  0
  -21.0050  -29.7380   21.5500 H   0  0  0  0  0  0  0  0  0  0  0  0
  -18.0810  -27.9070   22.7060 C   0  0  0  0  0  0  0  0  0  0  0  0
  -20.6330  -28.2350   23.0080 C   0  0  0  0  0  3  0  0  0  0  0  0
  -20.7700  -26.8080   22.4240 C   0  0  0  0  0  2  0  0  0  0  0  0
  -19.6950  -26.4760   21.3840 C   0  0  0  0  0  2  0  0  0  0  0  0
  -18.3000  -26.5780   22.0050 C   0  0  0  0  0  2  0  0  0  0  0  0
  -19.1750  -28.6940   23.1600 C   0  0  0  0  0  0  0  0  0  0  0  0
  -18.9100  -29.9310   23.7860 C   0  0  0  0  0  3  0  0  0  0  0  0
  -17.5880  -30.3870   23.9540 C   0  0  0  0  0  3  0  0  0  0  0  0
  -16.5100  -29.6020   23.5080 C   0  0  0  0  0  3  0  0  0  0  0  0
  -16.7580  -28.3630   22.8910 C   0  0  0  0  0  3  0  0  0  0  0  0
  -25.9340  -32.3500   23.8140 C   0  0  0  0  0  3  0  0  0  0  0  0
  -25.5840  -33.7560   24.1420 N   0  0  0  0  0  0  0  0  0  0  0  0
  -25.9060  -34.8370   23.4170 C   0  0  0  0  0  0  0  0  0  0  0  0
  -26.5700  -34.7580   22.3800 O   0  0  0  0  0  0  0  0  0  0  0  0
  -24.9870  -33.8870   24.9460 H   0  0  0  0  0  0  0  0  0  0  0  0
  -24.1510  -36.6340   23.1530 C   0  0  0  0  0  1  0  0  0  0  0  0
  -25.4250  -36.2220   23.9090 C   0  0  0  0  0  3  0  0  0  0  0  0
  -27.5740  -37.1440   24.6750 C   0  0  0  0  0  1  0  0  0  0  0  0
  -26.4400  -37.2920   23.7650 N   0  0  0  0  0  0  0  0  0  0  0  0
  -26.0270  -38.2070   23.9220 H   0  0  0  0  0  0  0  0  0  0  0  0
  -26.3760  -31.6130   25.1400 C   0  0  1  0  0  0  0  0  0  0  0  0
  -25.2280  -31.4050   26.1570 C   0  0  0  0  0  1  0  0  0  0  0  0
  -26.9740  -30.2240   24.8350 C   0  0  0  0  0  1  0  0  0  0  0  0
  -27.4950  -32.4200   25.8420 C   0  0  0  0  0  1  0  0  0  0  0  0
  -28.3280  -22.5640   19.7780 C   0  0  0  0  0 15  0  0  0  0  0  0
  -30.0900  -16.7060   19.6570 C   0  0  0  0  0  0  0  0  0  0  0  0
  -30.4060  -13.9460   18.8380 C   0  0  0  0  0  2  0  0  0  0  0  0
  -29.5620  -13.1000   17.7970 C   0  0  0  0  0  2  0  0  0  0  0  0
  -28.2900  -12.5150   18.4130 C   0  0  0  0  0  2  0  0  0  0  0  0
  -27.7100  -13.5430   19.3950 C   0  0  0  0  0  3  0  0  0  0  0  0
  -28.7430  -14.2470   20.3520 C   0  0  0  0  0  2  0  0  0  0  0  0
  -29.6650  -15.1770   19.5580 N   0  0  0  0  0  0  0  0  0  0  0  0
  -31.3240  -16.4850   19.4470 O   0  0  0  0  0  0  0  0  0  0  0  0
  -29.1640  -19.8560   21.3490 C   0  0  0  0  0  2  0  0  0  0  0  0
  -28.4340  -18.5410   20.8830 C   0  0  0  0  0  2  0  0  0  0  0  0
  -29.3220  -20.4150   19.9390 C   0  0  0  0  0  1  0  0  0  0  0  0
  -29.3650  -18.3410   19.7660 N   0  0  0  0  0  2  0  0  0  0  0  0
  -25.4510  -13.9400   20.4310 C   0  0  0  0  0  0  0  0  0  0  0  0
  -24.4380  -13.1290   20.8510 C   0  0  0  0  0  0  0  0  0  0  0  0
  -24.9080  -11.7870   20.6930 C   0  0  0  0  0  0  0  0  0  0  0  0
  -26.4770  -13.1050   20.0430 N   0  0  0  0  0  0  0  0  0  0  0  0
  -26.1690  -11.7920   20.2490 N   0  0  0  0  0  0  0  0  0  0  0  0
  -24.1940  -10.5120   20.8840 C   0  0  0  0  0  0  0  0  0  0  0  0
  -24.6040   -9.5670   21.8500 C   0  0  0  0  0  3  0  0  0  0  0  0
  -23.8790   -8.3690   22.0370 C   0  0  0  0  0  3  0  0  0  0  0  0
  -22.7280   -8.1050   21.2560 C   0  0  0  0  0  0  0  0  0  0  0  0
  -22.3340   -9.0390   20.2830 C   0  0  0  0  0  3  0  0  0  0  0  0
  -23.0590  -10.2280   20.0950 C   0  0  0  0  0  3  0  0  0  0  0  0
  -21.9800   -6.9550   21.3490 O   0  0  0  0  0  0  0  0  0  0  0  0
  -21.7760   -6.3200   22.5490 C   0  0  0  0  0  0  0  0  0  0  0  0
  -21.1610   -6.9710   23.6400 C   0  0  0  0  0  3  0  0  0  0  0  0
  -20.9070   -6.2620   24.8310 C   0  0  0  0  0  3  0  0  0  0  0  0
  -21.2580   -4.9020   24.9310 C   0  0  0  0  0  0  0  0  0  0  0  0
  -21.8650   -4.2500   23.8440 C   0  0  0  0  0  3  0  0  0  0  0  0
  -22.1190   -4.9570   22.6550 C   0  0  0  0  0  0  0  0  0  0  0  0
  -22.6840   -4.3170   21.6010 F   0  0  0  0  0  0  0  0  0  0  0  0
  -21.0080   -4.2190   26.0730 F   0  0  0  0  0  0  0  0  0  0  0  0
  -23.0740  -13.5850   21.2750 C   0  0  0  0  0  0  0  0  0  0  0  0
  -22.4380  -12.8540   22.1820 N   0  0  0  0  0  0  0  0  0  0  0  0
  -22.5880  -14.6280   20.8400 O   0  0  0  0  0  0  0  0  0  0  0  0
  -22.8490  -12.0110   22.5550 H   0  0  0  0  0  0  0  0  0  0  0  0
  -21.5270  -13.1420   22.5100 H   0  0  0  0  0  0  0  0  0  0  0  0
  -25.5790  -15.3200   20.3080 N   0  0  0  0  0  0  0  0  0  0  0  0
  -24.8170  -15.9550   20.5190 H   0  0  0  0  0  0  0  0  0  0  0  0
  -26.3870  -15.7850   19.9120 H   0  0  0  0  0  0  0  0  0  0  0  0
  2 13  2  0
  3  1  1  0
  3  8  1  0
  4 12  1  0
  4 14  1  0
  5 11  1  0
  5  7  1  0
  6 12  1  0
  7  6  1  0
  8  7  2  0
  9  3  2  0
 10  9  1  0
 10  5  2  0
 11  4  1  0
 12  2  1  0
 14 16  2  0
 15 14  1  0
 17 15  1  0
 18 27  2  0
 18 23  1  0
 19 15  1  0
 19 23  1  0
 20 19  1  0
 21 22  1  0
 21 20  1  0
 22 18  1  0
 23 24  2  0
 24 25  1  0
 26 25  2  0
 27 26  1  0
 28  2  1  0
 28 29  1  0
 28 38  1  0
 29 32  1  0
 30 34  1  0
 30 29  1  0
 31 30  2  0
 34 33  1  0
 36 34  1  0
 36 37  1  0
 36 35  1  0
 38 41  1  1
 38 39  1  0
 40 38  1  0
 43 54  1  0
 44 49  1  0
 45 46  1  0
 45 44  1  0
 47 46  1  0
 47 58  1  0
 47 48  1  0
 49 43  1  0
 49 48  1  0
 50 43  2  0
 52 51  1  0
 53 51  1  0
 54 52  1  0
 55 56  2  0
 56 75  1  0
 57 56  1  0
 57 60  1  0
 58 59  1  0
 58 55  1  0
 59 57  2  0
 60 61  1  0
 61 62  2  0
 63 66  1  0
 63 62  1  0
 64 63  2  0
 65 64  1  0
 65 60  2  0
 66 67  1  0
 67 72  2  0
 67 68  1  0
 68 69  2  0
 69 70  1  0
 70 74  1  0
 71 70  2  0
 72 71  1  0
 73 72  1  0
 75 76  1  0
 76 79  1  0
 76 78  1  0
 77 75  2  0
 80 55  1  0
 80 81  1  0
 82 80  1  0
M  ISO  4   1 101  42 101  43 100  54 100
M  END
>  <TORSDO>  (42) 
F 16

>  <SCORE>  (42) 
-14.790

>  <name>  (42) 
41

>  <ligand_id>  (42) 
41

>  <original_smiles>  (42) 
[H]c1c([H])c([H])c2c(c1[H])C([H])([H])C([H])([H])C([H])([H])C2([H])N([H])C(=O)C1([H])N(C(=O)C([H])(N([H])C(=O)C([H])(N([H])C([H])([H])[H])C([H])([H])[H])C(C([H])([H])[H])(C([H])([H])[H])C([H])([H])[H])C([H])([H])c2c([H])c(OC([H])([H])C3([H])N(C(=O)N4C([H])([H])C([H])([H])C([H])([H])C([H])(n5nc(-c6c([H])c([H])c(Oc7c([H])c([H])c(F)c([H])c7F)c([H])c6[H])c(C(=O)N([H])[H])c5N([H])[H])C4([H])[H])C([H])([H])C3([H])[H])c([H])c([H])c2C1([H])[H]

>  <smiles>  (42) 
[H]c1c([H])c([H])c2c(c1[H])C([H])([H])C([H])([H])C([H])([H])C2([H])N([H])C(=O)C1([H])N(C(=O)C([H])(N([H])C(=O)C([H])(N([H])C([H])([H])[H])C([H])([H])[H])C(C([H])([H])[H])(C([H])([H])[H])C([H])([H])[H])C([H])([H])c2c([H])c(OC([H])([H])C3([H])N(C(=O)N4C([H])([H])C([H])([H])C([H])([H])C([H])(n5nc(-c6c([H])c([H])c(Oc7c([H])c([H])c(F)c([H])c7F)c([H])c6[H])c(C(=O)N([H])[H])c5N([H])[H])C4([H])[H])C([H])([H])C3([H])[H])c([H])c([H])c2C1([H])[H]

$$$$
42:0:0
     RDKit          3D

 93102  0  0  1  0  0  0  0  0999 V2000
  -29.6210  -20.4020   19.8320 C   0  0  0  0  0  2  0  0  0  0  0  0
  -31.0580  -21.9360   21.1430 C   0  0  0  0  0  2  0  0  0  0  0  0
  -28.5460  -22.8120   19.5690 C   0  0  0  0  0  2  0  0  0  0  0  0
  -29.5980  -21.7760   19.1750 C   0  0  0  0  0  3  0  0  0  0  0  0
  -30.6130  -22.6540   19.8650 C   0  0  0  0  0  3  0  0  0  0  0  0
  -30.2500  -20.6020   21.2380 C   0  0  0  0  0  3  0  0  0  0  0  0
  -29.6080  -23.7340   19.9930 N   0  0  1  0  0  4  0  0  0  0  0  0
  -29.4800  -24.0230   20.9550 H   0  0  0  0  0  0  0  0  0  0  0  0
  -31.8290  -19.6790   22.9470 C   0  0  0  0  0  1  0  0  0  0  0  0
  -31.0250  -19.4100   21.7240 N   0  0  1  0  0  4  0  0  0  0  0  0
  -31.7020  -19.2040   21.0040 H   0  0  0  0  0  0  0  0  0  0  0  0
  -30.2030  -18.1710   21.8740 C   0  0  0  0  0  2  0  0  0  0  0  0
  -30.9040  -16.9470   21.2460 C   0  0  0  0  0  2  0  0  0  0  0  0
  -30.1130  -15.6140   21.3430 C   0  0  0  0  0  2  0  0  0  0  0  0
  -30.7170  -14.4800   20.4860 C   0  0  0  0  0  0  0  0  0  0  0  0
  -30.3580  -12.4040   19.1980 C   0  0  0  0  0  2  0  0  0  0  0  0
  -29.4050  -12.6990   18.0220 C   0  0  0  0  0  2  0  0  0  0  0  0
  -27.9350  -12.5490   18.4620 C   0  0  0  0  0  2  0  0  0  0  0  0
  -27.6250  -13.3210   19.7730 C   0  0  0  0  0  3  0  0  0  0  0  0
  -28.6940  -13.0340   20.8530 C   0  0  0  0  0  2  0  0  0  0  0  0
  -30.0170  -13.3330   20.2850 N   0  0  0  0  0  0  0  0  0  0  0  0
  -31.8030  -14.6880   19.9350 O   0  0  0  0  0  0  0  0  0  0  0  0
  -25.2270  -13.9190   20.4870 C   0  0  0  0  0  0  0  0  0  0  0  0
  -24.1640  -13.1440   20.8630 C   0  0  0  0  0  0  0  0  0  0  0  0
  -24.6280  -11.7940   20.8280 C   0  0  0  0  0  0  0  0  0  0  0  0
  -26.2740  -13.0410   20.2530 N   0  0  0  0  0  0  0  0  0  0  0  0
  -25.9170  -11.7560   20.5120 N   0  0  0  0  0  0  0  0  0  0  0  0
  -23.9070  -10.5310   21.0220 C   0  0  0  0  0  0  0  0  0  0  0  0
  -24.3480   -9.5640   21.9530 C   0  0  0  0  0  3  0  0  0  0  0  0
  -23.6290   -8.3630   22.1370 C   0  0  0  0  0  3  0  0  0  0  0  0
  -22.4520   -8.1200   21.3890 C   0  0  0  0  0  0  0  0  0  0  0  0
  -22.0270   -9.0760   20.4470 C   0  0  0  0  0  3  0  0  0  0  0  0
  -22.7490  -10.2680   20.2630 C   0  0  0  0  0  3  0  0  0  0  0  0
  -21.7010   -6.9720   21.4810 O   0  0  0  0  0  0  0  0  0  0  0  0
  -21.6620   -6.2290   22.6340 C   0  0  0  0  0  0  0  0  0  0  0  0
  -21.2390   -6.7810   23.8630 C   0  0  0  0  0  3  0  0  0  0  0  0
  -21.1510   -5.9620   25.0070 C   0  0  0  0  0  3  0  0  0  0  0  0
  -21.4720   -4.5940   24.9210 C   0  0  0  0  0  0  0  0  0  0  0  0
  -21.8840   -4.0420   23.6950 C   0  0  0  0  0  3  0  0  0  0  0  0
  -21.9790   -4.8580   22.5550 C   0  0  0  0  0  0  0  0  0  0  0  0
  -22.3580   -4.3170   21.3720 F   0  0  0  0  0  0  0  0  0  0  0  0
  -21.3780   -3.8060   26.0170 F   0  0  0  0  0  0  0  0  0  0  0  0
  -22.7650  -13.6170   21.1420 C   0  0  0  0  0  0  0  0  0  0  0  0
  -22.0420  -12.9190   22.0100 N   0  0  0  0  0  0  0  0  0  0  0  0
  -22.3230  -14.6430   20.6270 O   0  0  0  0  0  0  0  0  0  0  0  0
  -22.4100  -12.0890   22.4500 H   0  0  0  0  0  0  0  0  0  0  0  0
  -21.1040  -13.2180   22.2370 H   0  0  0  0  0  0  0  0  0  0  0  0
  -25.3860  -15.2880   20.3100 N   0  0  0  0  0  0  0  0  0  0  0  0
  -24.6110  -15.9350   20.4030 H   0  0  0  0  0  0  0  0  0  0  0  0
  -26.2410  -15.7320   19.9970 H   0  0  0  0  0  0  0  0  0  0  0  0
  -29.8690  -24.9220   19.1250 C   0  0  0  0  0  2  0  0  0  0  0  0
  -28.6770  -25.8920   18.9360 C   0  0  0  0  0  2  0  0  0  0  0  0
  -28.4010  -26.7210   20.0790 O   0  0  0  0  0  0  0  0  0  0  0  0
  -24.5780  -31.8720   23.2310 C   0  0  0  0  0  0  0  0  0  0  0  0
  -27.2160  -27.4400   20.0860 C   0  0  0  0  0  0  0  0  0  0  0  0
  -23.3650  -30.4790   21.5850 C   0  0  0  0  0  3  0  0  0  0  0  0
  -24.8140  -28.9500   20.1500 C   0  0  0  0  0  0  0  0  0  0  0  0
  -25.8970  -30.8250   21.3930 C   0  0  0  0  0  2  0  0  0  0  0  0
  -25.9770  -29.4620   20.7370 C   0  0  0  0  0  0  0  0  0  0  0  0
  -27.1760  -28.7070   20.7120 C   0  0  0  0  0  3  0  0  0  0  0  0
  -26.0160  -26.9340   19.5230 C   0  0  0  0  0  3  0  0  0  0  0  0
  -24.8290  -27.6830   19.5500 C   0  0  0  0  0  3  0  0  0  0  0  0
  -23.5710  -29.8050   20.2040 C   0  0  0  0  0  2  0  0  0  0  0  0
  -24.6310  -31.0730   22.1270 N   0  0  0  0  0  0  0  0  0  0  0  0
  -23.4970  -32.1480   23.7710 O   0  0  0  0  0  0  0  0  0  0  0  0
  -22.7120  -29.4540   22.5420 C   0  0  0  0  0  0  0  0  0  0  0  0
  -21.3870  -29.2710   22.4140 N   0  0  0  0  0  0  0  0  0  0  0  0
  -23.3940  -28.8260   23.3560 O   0  0  0  0  0  0  0  0  0  0  0  0
  -20.8980  -29.8330   21.7330 H   0  0  0  0  0  0  0  0  0  0  0  0
  -18.0130  -28.0730   22.9030 C   0  0  0  0  0  0  0  0  0  0  0  0
  -20.5700  -28.3310   23.1810 C   0  0  0  0  0  3  0  0  0  0  0  0
  -20.6710  -26.9000   22.6010 C   0  0  0  0  0  2  0  0  0  0  0  0
  -19.5710  -26.5800   21.5840 C   0  0  0  0  0  2  0  0  0  0  0  0
  -18.1890  -26.7250   22.2250 C   0  0  0  0  0  2  0  0  0  0  0  0
  -19.1300  -28.8340   23.3390 C   0  0  0  0  0  0  0  0  0  0  0  0
  -18.9110  -30.0950   23.9330 C   0  0  0  0  0  3  0  0  0  0  0  0
  -17.6050  -30.5990   24.0940 C   0  0  0  0  0  3  0  0  0  0  0  0
  -16.5020  -29.8320   23.6800 C   0  0  0  0  0  3  0  0  0  0  0  0
  -16.7060  -28.5720   23.0890 C   0  0  0  0  0  3  0  0  0  0  0  0
  -25.8660  -32.4950   23.8530 C   0  0  0  0  0  3  0  0  0  0  0  0
  -25.5660  -33.8930   24.1820 N   0  0  0  0  0  0  0  0  0  0  0  0
  -25.9030  -34.9450   23.4220 C   0  0  0  0  0  0  0  0  0  0  0  0
  -26.5740  -34.8370   22.3910 O   0  0  0  0  0  0  0  0  0  0  0  0
  -24.9630  -34.0510   24.9780 H   0  0  0  0  0  0  0  0  0  0  0  0
  -24.1860  -36.7470   23.0620 C   0  0  0  0  0  1  0  0  0  0  0  0
  -25.4200  -36.3340   23.8790 C   0  0  0  0  0  3  0  0  0  0  0  0
  -27.5570  -37.2040   24.7200 C   0  0  0  0  0  1  0  0  0  0  0  0
  -26.4590  -37.3810   23.7730 N   0  0  0  0  0  0  0  0  0  0  0  0
  -26.0570  -38.3040   23.9190 H   0  0  0  0  0  0  0  0  0  0  0  0
  -26.3840  -31.7190   25.1280 C   0  0  1  0  0  0  0  0  0  0  0  0
  -25.2910  -31.4810   26.1970 C   0  0  0  0  0  1  0  0  0  0  0  0
  -26.9640  -30.3400   24.7380 C   0  0  0  0  0  1  0  0  0  0  0  0
  -27.5410  -32.5090   25.7900 C   0  0  0  0  0  1  0  0  0  0  0  0
  1  6  1  0
  2  6  1  0
  3  7  1  0
  4  3  1  0
  4  1  1  0
  4  5  1  0
  5  7  1  0
  5  2  1  0
  6 10  1  0
  7  8  1  1
 10 12  1  0
 10  9  1  0
 10 11  1  6
 13 14  1  0
 13 12  1  0
 15 14  1  0
 16 21  1  0
 17 18  1  0
 17 16  1  0
 19 18  1  0
 19 26  1  0
 19 20  1  0
 21 15  1  0
 21 20  1  0
 22 15  2  0
 23 24  2  0
 24 43  1  0
 25 24  1  0
 25 28  1  0
 26 23  1  0
 26 27  1  0
 27 25  2  0
 28 29  1  0
 29 30  2  0
 31 34  1  0
 31 30  1  0
 32 31  2  0
 33 32  1  0
 33 28  2  0
 34 35  1  0
 35 36  1  0
 36 37  2  0
 38 37  1  0
 38 42  1  0
 39 38  2  0
 40 35  2  0
 40 39  1  0
 41 40  1  0
 43 44  1  0
 44 47  1  0
 44 46  1  0
 45 43  2  0
 48 49  1  0
 48 23  1  0
 50 48  1  0
 51  7  1  0
 52 51  1  0
 52 53  1  0
 53 55  1  0
 54 65  2  0
 55 60  1  0
 56 64  1  0
 56 66  1  0
 57 63  1  0
 57 59  1  0
 58 64  1  0
 59 58  1  0
 60 59  2  0
 61 62  1  0
 61 55  2  0
 62 57  2  0
 63 56  1  0
 64 54  1  0
 66 68  2  0
 67 66  1  0
 69 67  1  0
 70 79  2  0
 70 75  1  0
 71 67  1  0
 71 75  1  0
 72 71  1  0
 73 74  1  0
 73 72  1  0
 74 70  1  0
 75 76  2  0
 76 77  1  0
 78 77  2  0
 79 78  1  0
 80 54  1  0
 80 81  1  0
 80 90  1  0
 81 84  1  0
 82 86  1  0
 82 81  1  0
 83 82  2  0
 86 85  1  0
 88 86  1  0
 88 89  1  0
 88 87  1  0
 90 93  1  1
 90 91  1  0
 92 90  1  0
M  ISO  4  14 100  15 100  52 101  53 101
M  END
>  <TORSDO>  (43) 
F 22

>  <SCORE>  (43) 
-13.120

>  <name>  (43) 
42

>  <ligand_id>  (43) 
42

>  <original_smiles>  (43) 
[H]c1c([H])c([H])c2c(c1[H])C([H])([H])C([H])([H])C([H])([H])C2([H])N([H])C(=O)C1([H])N(C(=O)C([H])(N([H])C(=O)C([H])(N([H])C([H])([H])[H])C([H])([H])[H])C(C([H])([H])[H])(C([H])([H])[H])C([H])([H])[H])C([H])([H])c2c([H])c(OC([H])([H])C([H])([H])[N+]3([H])C([H])([H])C4([H])C([H])([H])C([H])([N+]([H])(C([H])([H])[H])C([H])([H])C([H])([H])C([H])([H])C(=O)N5C([H])([H])C([H])([H])C([H])([H])C([H])(n6nc(-c7c([H])c([H])c(Oc8c([H])c([H])c(F)c([H])c8F)c([H])c7[H])c(C(=O)N([H])[H])c6N([H])[H])C5([H])[H])C([H])([H])C43[H])c([H])c([H])c2C1([H])[H]

>  <smiles>  (43) 
[H]c1c([H])c([H])c2c(c1[H])C([H])([H])C([H])([H])C([H])([H])C2([H])N([H])C(=O)C1([H])N(C(=O)C([H])(N([H])C(=O)C([H])(N([H])C([H])([H])[H])C([H])([H])[H])C(C([H])([H])[H])(C([H])([H])[H])C([H])([H])[H])C([H])([H])c2c([H])c(OC([H])([H])C([H])([H])[N+]3([H])C([H])([H])C4([H])C([H])([H])C([H])([N+]([H])(C([H])([H])[H])C([H])([H])C([H])([H])C([H])([H])C(=O)N5C([H])([H])C([H])([H])C([H])([H])C([H])(n6nc(-c7c([H])c([H])c(Oc8c([H])c([H])c(F)c([H])c8F)c([H])c7[H])c(C(=O)N([H])[H])c6N([H])[H])C5([H])[H])C([H])([H])C43[H])c([H])c([H])c2C1([H])[H]

$$$$
43:0:0
     RDKit          3D

 85 93  0  0  1  0  0  0  0  0999 V2000
  -29.2170  -19.8440   19.0670 C   0  0  0  0  0  2  0  0  0  0  0  0
  -29.0570  -19.9280   21.3910 C   0  0  0  0  0  2  0  0  0  0  0  0
  -29.2440  -21.5430   19.0080 C   0  0  0  0  0  2  0  0  0  0  0  0
  -29.0710  -21.6240   21.3590 C   0  0  0  0  0  2  0  0  0  0  0  0
  -29.7530  -18.8900   20.3050 C   0  0  0  0  0  3  0  0  0  0  0  0
  -28.5190  -22.5230   20.1080 C   0  0  0  0  0  3  0  0  0  0  0  0
  -29.5520  -17.0580   20.4410 C   0  0  0  0  0  2  0  0  0  0  0  0
  -30.4540  -15.5310   20.2230 C   0  0  0  0  0  0  0  0  0  0  0  0
  -30.5100  -13.0630   19.3430 C   0  0  0  0  0  2  0  0  0  0  0  0
  -29.5920  -12.8460   18.1090 C   0  0  0  0  0  2  0  0  0  0  0  0
  -28.1440  -12.5510   18.5420 C   0  0  0  0  0  2  0  0  0  0  0  0
  -27.6800  -13.5020   19.6700 C   0  0  0  0  0  3  0  0  0  0  0  0
  -28.7230  -13.6540   20.7960 C   0  0  0  0  0  2  0  0  0  0  0  0
  -29.9550  -14.1870   20.1890 N   0  0  0  0  0  0  0  0  0  0  0  0
  -31.6680  -15.5570   19.9610 O   0  0  0  0  0  0  0  0  0  0  0  0
  -25.3020  -14.0350   20.4200 C   0  0  0  0  0  0  0  0  0  0  0  0
  -24.2470  -13.2490   20.7860 C   0  0  0  0  0  0  0  0  0  0  0  0
  -24.7260  -11.9030   20.7590 C   0  0  0  0  0  0  0  0  0  0  0  0
  -26.3550  -13.1700   20.1780 N   0  0  0  0  0  0  0  0  0  0  0  0
  -26.0200  -11.8810   20.4500 N   0  0  0  0  0  0  0  0  0  0  0  0
  -24.0090  -10.6350   20.9490 C   0  0  0  0  0  0  0  0  0  0  0  0
  -24.4200   -9.6890   21.9150 C   0  0  0  0  0  3  0  0  0  0  0  0
  -23.7000   -8.4880   22.0930 C   0  0  0  0  0  3  0  0  0  0  0  0
  -22.5540   -8.2230   21.3060 C   0  0  0  0  0  0  0  0  0  0  0  0
  -22.1630   -9.1570   20.3290 C   0  0  0  0  0  3  0  0  0  0  0  0
  -22.8840  -10.3490   20.1500 C   0  0  0  0  0  3  0  0  0  0  0  0
  -21.8080   -7.0720   21.3910 O   0  0  0  0  0  0  0  0  0  0  0  0
  -21.6940   -6.3740   22.5660 C   0  0  0  0  0  0  0  0  0  0  0  0
  -21.1410   -6.9560   23.7280 C   0  0  0  0  0  3  0  0  0  0  0  0
  -20.9760   -6.1820   24.8940 C   0  0  0  0  0  3  0  0  0  0  0  0
  -21.3560   -4.8270   24.8980 C   0  0  0  0  0  0  0  0  0  0  0  0
  -21.9010   -4.2440   23.7410 C   0  0  0  0  0  3  0  0  0  0  0  0
  -22.0660   -5.0150   22.5780 C   0  0  0  0  0  0  0  0  0  0  0  0
  -22.5730   -4.4430   21.4590 F   0  0  0  0  0  0  0  0  0  0  0  0
  -21.1910   -4.0810   26.0160 F   0  0  0  0  0  0  0  0  0  0  0  0
  -22.8440  -13.7140   21.0480 C   0  0  0  0  0  0  0  0  0  0  0  0
  -22.1220  -13.0230   21.9220 N   0  0  0  0  0  0  0  0  0  0  0  0
  -22.3980  -14.7280   20.5110 O   0  0  0  0  0  0  0  0  0  0  0  0
  -22.4960  -12.2030   22.3780 H   0  0  0  0  0  0  0  0  0  0  0  0
  -21.1810  -13.3190   22.1410 H   0  0  0  0  0  0  0  0  0  0  0  0
  -25.4530  -15.4080   20.2430 N   0  0  0  0  0  0  0  0  0  0  0  0
  -24.6810  -16.0550   20.3610 H   0  0  0  0  0  0  0  0  0  0  0  0
  -26.3040  -15.8570   19.9290 H   0  0  0  0  0  0  0  0  0  0  0  0
  -27.9120  -24.2820   19.9970 C   0  0  0  0  0  2  0  0  0  0  0  0
  -28.2300  -25.9180   20.1170 O   0  0  0  0  0  0  0  0  0  0  0  0
  -24.6930  -31.8970   23.2200 C   0  0  0  0  0  0  0  0  0  0  0  0
  -27.2290  -27.0460   20.0870 C   0  0  0  0  0  0  0  0  0  0  0  0
  -23.4850  -30.5250   21.5730 C   0  0  0  0  0  3  0  0  0  0  0  0
  -24.9230  -28.9470   20.1030 C   0  0  0  0  0  0  0  0  0  0  0  0
  -26.0520  -30.7390   21.3980 C   0  0  0  0  0  2  0  0  0  0  0  0
  -26.1200  -29.3380   20.7160 C   0  0  0  0  0  0  0  0  0  0  0  0
  -27.2650  -28.4110   20.6810 C   0  0  0  0  0  3  0  0  0  0  0  0
  -25.9970  -26.8230   19.4280 C   0  0  0  0  0  3  0  0  0  0  0  0
  -24.8890  -27.7120   19.4370 C   0  0  0  0  0  3  0  0  0  0  0  0
  -23.7010  -29.8660   20.1830 C   0  0  0  0  0  2  0  0  0  0  0  0
  -24.7670  -31.0820   22.1170 N   0  0  0  0  0  0  0  0  0  0  0  0
  -23.6090  -32.1730   23.7590 O   0  0  0  0  0  0  0  0  0  0  0  0
  -22.8060  -29.5120   22.5320 C   0  0  0  0  0  0  0  0  0  0  0  0
  -21.4780  -29.3290   22.4090 N   0  0  0  0  0  0  0  0  0  0  0  0
  -23.4820  -28.8900   23.3550 O   0  0  0  0  0  0  0  0  0  0  0  0
  -20.9830  -29.8820   21.7220 H   0  0  0  0  0  0  0  0  0  0  0  0
  -18.1170  -28.0520   22.9110 C   0  0  0  0  0  0  0  0  0  0  0  0
  -20.6720  -28.3710   23.1750 C   0  0  0  0  0  3  0  0  0  0  0  0
  -20.8020  -26.9450   22.5900 C   0  0  0  0  0  2  0  0  0  0  0  0
  -19.7070  -26.6050   21.5750 C   0  0  0  0  0  2  0  0  0  0  0  0
  -18.3220  -26.7140   22.2200 C   0  0  0  0  0  2  0  0  0  0  0  0
  -19.2190  -28.8360   23.3440 C   0  0  0  0  0  0  0  0  0  0  0  0
  -18.9700  -30.0850   23.9540 C   0  0  0  0  0  3  0  0  0  0  0  0
  -17.6550  -30.5520   24.1310 C   0  0  0  0  0  3  0  0  0  0  0  0
  -16.5680  -29.7650   23.7110 C   0  0  0  0  0  3  0  0  0  0  0  0
  -16.7990  -28.5160   23.1070 C   0  0  0  0  0  3  0  0  0  0  0  0
  -25.9680  -32.5380   23.8470 C   0  0  0  0  0  3  0  0  0  0  0  0
  -25.6540  -33.9360   24.1920 N   0  0  0  0  0  0  0  0  0  0  0  0
  -25.9570  -35.0010   23.4360 C   0  0  0  0  0  0  0  0  0  0  0  0
  -26.5930  -34.9100   22.3830 O   0  0  0  0  0  0  0  0  0  0  0  0
  -25.0870  -34.0800   25.0140 H   0  0  0  0  0  0  0  0  0  0  0  0
  -24.2040  -36.7910   23.1740 C   0  0  0  0  0  1  0  0  0  0  0  0
  -25.4830  -36.3860   23.9250 C   0  0  0  0  0  3  0  0  0  0  0  0
  -27.6420  -37.2900   24.6720 C   0  0  0  0  0  1  0  0  0  0  0  0
  -26.5030  -37.4480   23.7710 N   0  0  0  0  0  0  0  0  0  0  0  0
  -26.0940  -38.3640   23.9340 H   0  0  0  0  0  0  0  0  0  0  0  0
  -26.4790  -31.7680   25.1280 C   0  0  1  0  0  0  0  0  0  0  0  0
  -25.3840  -31.5370   26.1960 C   0  0  0  0  0  1  0  0  0  0  0  0
  -27.0590  -30.3870   24.7500 C   0  0  0  0  0  1  0  0  0  0  0  0
  -27.6310  -32.5620   25.7890 C   0  0  0  0  0  1  0  0  0  0  0  0
  1  5  1  0
  3  1  1  0
  3  6  1  0
  4  2  1  0
  5  7  1  0
  5  2  1  0
  6 44  1  0
  6  4  1  0
  8  7  1  0
  9 14  1  0
 10 11  1  0
 10  9  1  0
 12 11  1  0
 12 19  1  0
 12 13  1  0
 14  8  1  0
 14 13  1  0
 15  8  2  0
 16 17  2  0
 17 36  1  0
 18 17  1  0
 18 21  1  0
 19 16  1  0
 19 20  1  0
 20 18  2  0
 21 22  1  0
 22 23  2  0
 24 27  1  0
 24 23  1  0
 25 24  2  0
 26 25  1  0
 26 21  2  0
 27 28  1  0
 28 33  2  0
 28 29  1  0
 29 30  2  0
 30 31  1  0
 31 35  1  0
 32 31  2  0
 33 32  1  0
 34 33  1  0
 36 37  1  0
 37 40  1  0
 37 39  1  0
 38 36  2  0
 41 42  1  0
 41 16  1  0
 43 41  1  0
 44 45  1  0
 46 57  2  0
 47 45  1  0
 47 52  1  0
 48 56  1  0
 48 58  1  0
 49 55  1  0
 49 51  1  0
 50 56  1  0
 51 50  1  0
 52 51  2  0
 53 54  1  0
 53 47  2  0
 54 49  2  0
 55 48  1  0
 56 46  1  0
 58 60  2  0
 59 58  1  0
 61 59  1  0
 62 71  2  0
 62 67  1  0
 63 59  1  0
 63 67  1  0
 64 63  1  0
 65 66  1  0
 65 64  1  0
 66 62  1  0
 67 68  2  0
 68 69  1  0
 70 69  2  0
 71 70  1  0
 72 46  1  0
 72 73  1  0
 72 82  1  0
 73 76  1  0
 74 78  1  0
 74 73  1  0
 75 74  2  0
 78 77  1  0
 80 78  1  0
 80 81  1  0
 80 79  1  0
 82 85  1  1
 82 83  1  0
 84 82  1  0
M  ISO  4   7 100   8 100  44 101  45 101
M  END
>  <TORSDO>  (44) 
F 18

>  <SCORE>  (44) 
-16.082

>  <name>  (44) 
43

>  <ligand_id>  (44) 
43

>  <original_smiles>  (44) 
[H]c1c([H])c([H])c2c(c1[H])C([H])([H])C([H])([H])C([H])([H])C2([H])N([H])C(=O)C1([H])N(C(=O)C([H])(N([H])C(=O)C([H])(N([H])C([H])([H])[H])C([H])([H])[H])C(C([H])([H])[H])(C([H])([H])[H])C([H])([H])[H])C([H])([H])c2c([H])c(OC([H])([H])C3([H])C([H])([H])C([H])([H])C([H])(C([H])([H])C(=O)N4C([H])([H])C([H])([H])C([H])([H])C([H])(n5nc(-c6c([H])c([H])c(Oc7c([H])c([H])c(F)c([H])c7F)c([H])c6[H])c(C(=O)N([H])[H])c5N([H])[H])C4([H])[H])C([H])([H])C3([H])[H])c([H])c([H])c2C1([H])[H]

>  <smiles>  (44) 
[H]c1c([H])c([H])c2c(c1[H])C([H])([H])C([H])([H])C([H])([H])C2([H])N([H])C(=O)C1([H])N(C(=O)C([H])(N([H])C(=O)C([H])(N([H])C([H])([H])[H])C([H])([H])[H])C(C([H])([H])[H])(C([H])([H])[H])C([H])([H])[H])C([H])([H])c2c([H])c(OC([H])([H])C3([H])C([H])([H])C([H])([H])C([H])(C([H])([H])C(=O)N4C([H])([H])C([H])([H])C([H])([H])C([H])(n5nc(-c6c([H])c([H])c(Oc7c([H])c([H])c(F)c([H])c7F)c([H])c6[H])c(C(=O)N([H])[H])c5N([H])[H])C4([H])[H])C([H])([H])C3([H])[H])c([H])c([H])c2C1([H])[H]

$$$$
44:0:0
     RDKit          3D

 85 93  0  0  1  0  0  0  0  0999 V2000
  -29.5240  -21.9100   18.8130 C   0  0  0  0  0  2  0  0  0  0  0  0
  -28.5090  -20.7460   18.7640 C   0  0  0  0  0  2  0  0  0  0  0  0
  -28.9960  -22.2620   20.2020 C   0  0  0  0  0  3  0  0  0  0  0  0
  -28.7070  -20.5150   20.1920 N   0  0  2  0  0  4  0  0  0  0  0  0
  -27.8250  -20.3520   20.6510 H   0  0  0  0  0  0  0  0  0  0  0  0
  -27.9470  -23.8680   20.2100 C   0  0  0  0  0  2  0  0  0  0  0  0
  -28.1390  -25.5980   20.2440 O   0  0  0  0  0  0  0  0  0  0  0  0
  -24.5970  -31.8240   23.1490 C   0  0  0  0  0  0  0  0  0  0  0  0
  -27.1460  -26.7750   20.1940 C   0  0  0  0  0  0  0  0  0  0  0  0
  -23.4130  -30.4120   21.5190 C   0  0  0  0  0  3  0  0  0  0  0  0
  -24.8650  -28.7660   20.1220 C   0  0  0  0  0  0  0  0  0  0  0  0
  -25.9900  -30.5750   21.3960 C   0  0  0  0  0  2  0  0  0  0  0  0
  -26.0590  -29.1430   20.7500 C   0  0  0  0  0  0  0  0  0  0  0  0
  -27.1870  -28.1750   20.7520 C   0  0  0  0  0  3  0  0  0  0  0  0
  -25.9170  -26.5930   19.5150 C   0  0  0  0  0  3  0  0  0  0  0  0
  -24.8300  -27.5160   19.4810 C   0  0  0  0  0  3  0  0  0  0  0  0
  -23.6540  -29.7080   20.1550 C   0  0  0  0  0  2  0  0  0  0  0  0
  -24.6910  -30.9690   22.0730 N   0  0  0  0  0  0  0  0  0  0  0  0
  -23.5030  -32.1230   23.6570 O   0  0  0  0  0  0  0  0  0  0  0  0
  -22.7000  -29.4380   22.4950 C   0  0  0  0  0  0  0  0  0  0  0  0
  -21.3650  -29.2960   22.3820 N   0  0  0  0  0  0  0  0  0  0  0  0
  -23.3590  -28.8060   23.3250 O   0  0  0  0  0  0  0  0  0  0  0  0
  -20.8850  -29.8550   21.6900 H   0  0  0  0  0  0  0  0  0  0  0  0
  -17.9700  -28.1270   22.9310 C   0  0  0  0  0  0  0  0  0  0  0  0
  -20.5360  -28.3680   23.1610 C   0  0  0  0  0  3  0  0  0  0  0  0
  -20.6130  -26.9350   22.5850 C   0  0  0  0  0  2  0  0  0  0  0  0
  -19.4970  -26.6260   21.5820 C   0  0  0  0  0  2  0  0  0  0  0  0
  -18.1240  -26.7810   22.2430 C   0  0  0  0  0  2  0  0  0  0  0  0
  -19.1010  -28.8790   23.3480 C   0  0  0  0  0  0  0  0  0  0  0  0
  -18.8980  -30.1370   23.9570 C   0  0  0  0  0  3  0  0  0  0  0  0
  -17.5990  -30.6430   24.1480 C   0  0  0  0  0  3  0  0  0  0  0  0
  -16.4830  -29.8900   23.7450 C   0  0  0  0  0  3  0  0  0  0  0  0
  -16.6690  -28.6330   23.1430 C   0  0  0  0  0  3  0  0  0  0  0  0
  -25.8600  -32.4780   23.7860 C   0  0  0  0  0  3  0  0  0  0  0  0
  -26.3700  -31.7130   25.0700 C   0  0  1  0  0  0  0  0  0  0  0  0
  -25.2720  -31.4750   26.1350 C   0  0  0  0  0  1  0  0  0  0  0  0
  -26.9590  -30.3340   24.6970 C   0  0  0  0  0  1  0  0  0  0  0  0
  -27.5160  -32.5110   25.7350 C   0  0  0  0  0  1  0  0  0  0  0  0
  -25.5280  -33.8730   24.1360 N   0  0  0  0  0  0  0  0  0  0  0  0
  -25.8370  -34.9470   23.3980 C   0  0  0  0  0  0  0  0  0  0  0  0
  -26.4930  -34.8700   22.3560 O   0  0  0  0  0  0  0  0  0  0  0  0
  -24.9420  -34.0060   24.9480 H   0  0  0  0  0  0  0  0  0  0  0  0
  -24.0800  -36.7320   23.1250 C   0  0  0  0  0  1  0  0  0  0  0  0
  -25.3500  -36.3270   23.8910 C   0  0  0  0  0  3  0  0  0  0  0  0
  -27.4970  -37.2320   24.6690 C   0  0  0  0  0  1  0  0  0  0  0  0
  -26.3660  -37.3960   23.7610 N   0  0  0  0  0  0  0  0  0  0  0  0
  -25.9530  -38.3090   23.9310 H   0  0  0  0  0  0  0  0  0  0  0  0
  -29.6710  -19.0710   20.4200 C   0  0  0  0  0  3  0  0  0  0  0  0
  -29.3650  -17.1870   20.3500 C   0  0  0  0  0  3  0  0  0  0  0  0
  -30.2740  -15.5760   20.3150 C   0  0  0  0  0  0  0  0  0  0  0  0
  -30.4310  -13.0330   19.5480 C   0  0  0  0  0  2  0  0  0  0  0  0
  -29.5520  -12.6770   18.3160 C   0  0  0  0  0  2  0  0  0  0  0  0
  -28.1130  -12.3330   18.7380 C   0  0  0  0  0  2  0  0  0  0  0  0
  -27.5910  -13.3260   19.8020 C   0  0  0  0  0  3  0  0  0  0  0  0
  -28.6040  -13.6070   20.9320 C   0  0  0  0  0  2  0  0  0  0  0  0
  -29.8100  -14.1970   20.3130 N   0  0  0  0  0  0  0  0  0  0  0  0
  -31.5050  -15.5610   20.1250 O   0  0  0  0  0  0  0  0  0  0  0  0
  -25.2160  -13.8400   20.5480 C   0  0  0  0  0  0  0  0  0  0  0  0
  -24.1610  -13.0500   20.9090 C   0  0  0  0  0  0  0  0  0  0  0  0
  -24.6460  -11.7060   20.8840 C   0  0  0  0  0  0  0  0  0  0  0  0
  -26.2700  -12.9790   20.3080 N   0  0  0  0  0  0  0  0  0  0  0  0
  -25.9420  -11.6880   20.5810 N   0  0  0  0  0  0  0  0  0  0  0  0
  -23.9300  -10.4360   21.0700 C   0  0  0  0  0  0  0  0  0  0  0  0
  -24.3680   -9.4690   22.0020 C   0  0  0  0  0  3  0  0  0  0  0  0
  -23.6470   -8.2670   22.1800 C   0  0  0  0  0  3  0  0  0  0  0  0
  -22.4760   -8.0230   21.4240 C   0  0  0  0  0  0  0  0  0  0  0  0
  -22.0580   -8.9790   20.4810 C   0  0  0  0  0  3  0  0  0  0  0  0
  -22.7780  -10.1710   20.3020 C   0  0  0  0  0  3  0  0  0  0  0  0
  -21.7290   -6.8730   21.5090 O   0  0  0  0  0  0  0  0  0  0  0  0
  -21.6880   -6.1230   22.6570 C   0  0  0  0  0  0  0  0  0  0  0  0
  -21.2730   -6.6710   23.8900 C   0  0  0  0  0  3  0  0  0  0  0  0
  -21.1820   -5.8470   25.0300 C   0  0  0  0  0  3  0  0  0  0  0  0
  -21.4950   -4.4780   24.9380 C   0  0  0  0  0  0  0  0  0  0  0  0
  -21.9030   -3.9300   23.7100 C   0  0  0  0  0  3  0  0  0  0  0  0
  -21.9970   -4.7510   22.5710 C   0  0  0  0  0  0  0  0  0  0  0  0
  -22.3700   -4.2130   21.3850 F   0  0  0  0  0  0  0  0  0  0  0  0
  -21.4000   -3.6850   26.0310 F   0  0  0  0  0  0  0  0  0  0  0  0
  -22.7570  -13.5120   21.1600 C   0  0  0  0  0  0  0  0  0  0  0  0
  -22.0280  -12.8170   22.0260 N   0  0  0  0  0  0  0  0  0  0  0  0
  -22.3130  -14.5280   20.6230 O   0  0  0  0  0  0  0  0  0  0  0  0
  -22.4020  -11.9980   22.4830 H   0  0  0  0  0  0  0  0  0  0  0  0
  -21.0840  -13.1070   22.2360 H   0  0  0  0  0  0  0  0  0  0  0  0
  -25.3660  -15.2130   20.3720 N   0  0  0  0  0  0  0  0  0  0  0  0
  -24.5910  -15.8590   20.4760 H   0  0  0  0  0  0  0  0  0  0  0  0
  -26.2120  -15.6600   20.0470 H   0  0  0  0  0  0  0  0  0  0  0  0
  1  3  1  0
  2  1  1  0
  2  4  1  0
  3  6  1  0
  4  3  1  0
  4 48  1  0
  4  5  1  1
  6  7  1  0
  8 19  2  0
  9  7  1  0
  9 14  1  0
 10 18  1  0
 10 20  1  0
 11 17  1  0
 11 13  1  0
 12 18  1  0
 13 14  2  0
 13 12  1  0
 15  9  2  0
 16 15  1  0
 16 11  2  0
 17 10  1  0
 18  8  1  0
 20 22  2  0
 21 20  1  0
 23 21  1  0
 24 33  2  0
 24 29  1  0
 25 21  1  0
 25 29  1  0
 26 25  1  0
 27 28  1  0
 27 26  1  0
 28 24  1  0
 29 30  2  0
 30 31  1  0
 32 31  2  0
 33 32  1  0
 34  8  1  0
 34 39  1  0
 34 35  1  0
 35 38  1  1
 35 36  1  0
 37 35  1  0
 39 42  1  0
 40 44  1  0
 40 39  1  0
 41 40  2  0
 44 43  1  0
 46 44  1  0
 46 47  1  0
 46 45  1  0
 49 48  2  0
 50 49  1  0
 51 56  1  0
 52 53  1  0
 52 51  1  0
 54 53  1  0
 54 61  1  0
 54 55  1  0
 56 50  1  0
 56 55  1  0
 57 50  2  0
 58 59  2  0
 59 78  1  0
 60 59  1  0
 60 63  1  0
 61 58  1  0
 61 62  1  0
 62 60  2  0
 63 64  1  0
 64 65  2  0
 66 69  1  0
 66 65  1  0
 67 66  2  0
 68 67  1  0
 68 63  2  0
 69 70  1  0
 70 71  1  0
 71 72  2  0
 73 72  1  0
 73 77  1  0
 74 73  2  0
 75 70  2  0
 75 74  1  0
 76 75  1  0
 78 79  1  0
 79 82  1  0
 79 81  1  0
 80 78  2  0
 83 84  1  0
 83 58  1  0
 85 83  1  0
M  ISO  4   6 101   7 101  49 100  50 100
M  END
>  <TORSDO>  (45) 
F 19

>  <SCORE>  (45) 
-16.339

>  <name>  (45) 
44

>  <ligand_id>  (45) 
44

>  <original_smiles>  (45) 
[H]c1c([H])c([H])c2c(c1[H])C([H])([H])C([H])([H])C([H])([H])C2([H])N([H])C(=O)C1([H])N(C(=O)C([H])(N([H])C(=O)C([H])(N([H])C([H])([H])[H])C([H])([H])[H])C(C([H])([H])[H])(C([H])([H])[H])C([H])([H])[H])C([H])([H])c2c([H])c(OC([H])([H])C3([H])C([H])([H])C([H])([H])[N+]3([H])C([H])([H])C([H])([H])C(=O)N3C([H])([H])C([H])([H])C([H])([H])C([H])(n4nc(-c5c([H])c([H])c(Oc6c([H])c([H])c(F)c([H])c6F)c([H])c5[H])c(C(=O)N([H])[H])c4N([H])[H])C3([H])[H])c([H])c([H])c2C1([H])[H]

>  <smiles>  (45) 
[H]c1c([H])c([H])c2c(c1[H])C([H])([H])C([H])([H])C([H])([H])C2([H])N([H])C(=O)C1([H])N(C(=O)C([H])(N([H])C(=O)C([H])(N([H])C([H])([H])[H])C([H])([H])[H])C(C([H])([H])[H])(C([H])([H])[H])C([H])([H])[H])C([H])([H])c2c([H])c(OC([H])([H])C3([H])C([H])([H])C([H])([H])[N+]3([H])C([H])([H])C([H])([H])C(=O)N3C([H])([H])C([H])([H])C([H])([H])C([H])(n4nc(-c5c([H])c([H])c(Oc6c([H])c([H])c(F)c([H])c6F)c([H])c5[H])c(C(=O)N([H])[H])c4N([H])[H])C3([H])[H])c([H])c([H])c2C1([H])[H]

$$$$
45:0:0
     RDKit          3D

 91100  0  0  1  0  0  0  0  0999 V2000
  -26.9520  -20.6930   18.9290 C   0  0  0  0  0  2  0  0  0  0  0  0
  -26.8780  -21.9970   18.1230 C   0  0  0  0  0  2  0  0  0  0  0  0
  -26.2740  -22.3950   20.3960 C   0  0  0  0  0  2  0  0  0  0  0  0
  -28.6340  -21.8480   20.4860 C   0  0  0  0  0  3  0  0  0  0  0  0
  -27.2190  -21.2100   20.3610 C   0  0  0  0  0  3  0  0  0  0  0  0
  -26.9440  -23.0910   19.2130 C   0  0  0  0  0  3  0  0  0  0  0  0
  -28.3910  -23.3530   19.7240 C   0  0  0  0  0  3  0  0  0  0  0  0
  -29.7010  -20.6480   20.0970 C   0  0  0  0  0  0  0  0  0  0  0  0
  -29.5270  -19.2880   20.4520 N   0  0  0  0  0  0  0  0  0  0  0  0
  -30.6980  -20.9740   19.4530 O   0  0  0  0  0  0  0  0  0  0  0  0
  -28.6850  -19.1210   20.9890 H   0  0  0  0  0  0  0  0  0  0  0  0
  -30.3710  -17.9870   20.1800 C   0  0  0  0  0  3  0  0  0  0  0  0
  -29.8690  -16.4490   20.6190 C   0  0  0  0  0  3  0  0  0  0  0  0
  -30.6820  -15.0400   20.3220 C   0  0  0  0  0  0  0  0  0  0  0  0
  -30.5500  -12.6880   19.3850 C   0  0  0  0  0  2  0  0  0  0  0  0
  -29.6370  -12.6850   18.1380 C   0  0  0  0  0  2  0  0  0  0  0  0
  -28.1640  -12.5010   18.5470 C   0  0  0  0  0  2  0  0  0  0  0  0
  -27.7510  -13.4250   19.7210 C   0  0  0  0  0  3  0  0  0  0  0  0
  -28.7910  -13.4200   20.8650 C   0  0  0  0  0  2  0  0  0  0  0  0
  -30.0900  -13.7800   20.2880 N   0  0  0  0  0  0  0  0  0  0  0  0
  -31.8730  -15.1050   20.0000 O   0  0  0  0  0  0  0  0  0  0  0  0
  -25.3510  -14.0060   20.4000 C   0  0  0  0  0  0  0  0  0  0  0  0
  -24.2810  -13.2340   20.7630 C   0  0  0  0  0  0  0  0  0  0  0  0
  -24.7510  -11.8850   20.7710 C   0  0  0  0  0  0  0  0  0  0  0  0
  -26.4040  -13.1300   20.2020 N   0  0  0  0  0  0  0  0  0  0  0  0
  -26.0500  -11.8480   20.4900 N   0  0  0  0  0  0  0  0  0  0  0  0
  -24.0210  -10.6260   20.9700 C   0  0  0  0  0  0  0  0  0  0  0  0
  -24.4310   -9.6740   21.9310 C   0  0  0  0  0  3  0  0  0  0  0  0
  -23.6980   -8.4830   22.1170 C   0  0  0  0  0  3  0  0  0  0  0  0
  -22.5400   -8.2340   21.3410 C   0  0  0  0  0  0  0  0  0  0  0  0
  -22.1520   -9.1700   20.3680 C   0  0  0  0  0  3  0  0  0  0  0  0
  -22.8880  -10.3530   20.1810 C   0  0  0  0  0  3  0  0  0  0  0  0
  -21.7830   -7.0880   21.4340 O   0  0  0  0  0  0  0  0  0  0  0  0
  -21.7050   -6.3690   22.5990 C   0  0  0  0  0  0  0  0  0  0  0  0
  -21.2380   -6.9460   23.8000 C   0  0  0  0  0  3  0  0  0  0  0  0
  -21.1070   -6.1540   24.9580 C   0  0  0  0  0  3  0  0  0  0  0  0
  -21.4370   -4.7850   24.9150 C   0  0  0  0  0  0  0  0  0  0  0  0
  -21.8960   -4.2070   23.7200 C   0  0  0  0  0  3  0  0  0  0  0  0
  -22.0280   -4.9970   22.5640 C   0  0  0  0  0  0  0  0  0  0  0  0
  -22.4500   -4.4300   21.4090 F   0  0  0  0  0  0  0  0  0  0  0  0
  -21.3050   -4.0220   26.0260 F   0  0  0  0  0  0  0  0  0  0  0  0
  -22.8760  -13.7130   20.9900 C   0  0  0  0  0  0  0  0  0  0  0  0
  -22.1330  -13.0370   21.8600 N   0  0  0  0  0  0  0  0  0  0  0  0
  -22.4470  -14.7260   20.4380 O   0  0  0  0  0  0  0  0  0  0  0  0
  -22.4900  -12.2120   22.3190 H   0  0  0  0  0  0  0  0  0  0  0  0
  -21.1940  -13.3430   22.0630 H   0  0  0  0  0  0  0  0  0  0  0  0
  -25.5150  -15.3750   20.1990 N   0  0  0  0  0  0  0  0  0  0  0  0
  -24.7490  -16.0360   20.2810 H   0  0  0  0  0  0  0  0  0  0  0  0
  -26.3770  -15.8080   19.8870 H   0  0  0  0  0  0  0  0  0  0  0  0
  -28.3470  -24.8640   20.4920 C   0  0  0  0  0  2  0  0  0  0  0  0
  -28.3720  -26.3160   19.9240 O   0  0  0  0  0  0  0  0  0  0  0  0
  -24.6170  -31.8130   23.1220 C   0  0  0  0  0  0  0  0  0  0  0  0
  -27.2760  -27.2430   19.9820 C   0  0  0  0  0  0  0  0  0  0  0  0
  -23.4350  -30.4330   21.4540 C   0  0  0  0  0  3  0  0  0  0  0  0
  -24.9090  -28.9250   19.9920 C   0  0  0  0  0  0  0  0  0  0  0  0
  -25.9830  -30.7660   21.2780 C   0  0  0  0  0  2  0  0  0  0  0  0
  -26.0800  -29.3890   20.6050 C   0  0  0  0  0  0  0  0  0  0  0  0
  -27.2680  -28.5640   20.5790 C   0  0  0  0  0  3  0  0  0  0  0  0
  -26.0810  -26.8820   19.3310 C   0  0  0  0  0  3  0  0  0  0  0  0
  -24.9240  -27.6850   19.3380 C   0  0  0  0  0  3  0  0  0  0  0  0
  -23.6620  -29.7920   20.0580 C   0  0  0  0  0  2  0  0  0  0  0  0
  -24.7000  -31.0230   22.0100 N   0  0  0  0  0  0  0  0  0  0  0  0
  -23.5270  -32.0570   23.6630 O   0  0  0  0  0  0  0  0  0  0  0  0
  -22.7900  -29.3840   22.3960 C   0  0  0  0  0  0  0  0  0  0  0  0
  -21.4670  -29.1740   22.2640 N   0  0  0  0  0  0  0  0  0  0  0  0
  -23.4830  -28.7610   23.2060 O   0  0  0  0  0  0  0  0  0  0  0  0
  -20.9600  -29.7340   21.5940 H   0  0  0  0  0  0  0  0  0  0  0  0
  -18.1310  -27.8520   22.7260 C   0  0  0  0  0  0  0  0  0  0  0  0
  -20.6790  -28.1950   23.0160 C   0  0  0  0  0  3  0  0  0  0  0  0
  -20.8310  -26.7740   22.4220 C   0  0  0  0  0  2  0  0  0  0  0  0
  -19.7480  -26.4300   21.3960 C   0  0  0  0  0  2  0  0  0  0  0  0
  -18.3600  -26.5200   22.0310 C   0  0  0  0  0  2  0  0  0  0  0  0
  -19.2200  -28.6430   23.1760 C   0  0  0  0  0  0  0  0  0  0  0  0
  -18.9550  -29.8890   23.7850 C   0  0  0  0  0  3  0  0  0  0  0  0
  -17.6310  -30.3410   23.9530 C   0  0  0  0  0  3  0  0  0  0  0  0
  -16.5570  -29.5430   23.5230 C   0  0  0  0  0  3  0  0  0  0  0  0
  -16.8070  -28.3010   22.9140 C   0  0  0  0  0  3  0  0  0  0  0  0
  -25.8830  -32.4660   23.7530 C   0  0  0  0  0  3  0  0  0  0  0  0
  -26.4150  -31.6850   25.0160 C   0  0  1  0  0  0  0  0  0  0  0  0
  -25.3340  -31.4110   26.0860 C   0  0  0  0  0  1  0  0  0  0  0  0
  -27.0240  -30.3260   24.6020 C   0  0  0  0  0  1  0  0  0  0  0  0
  -27.5530  -32.4890   25.6900 C   0  0  0  0  0  1  0  0  0  0  0  0
  -25.5430  -33.8510   24.1150 N   0  0  0  0  0  0  0  0  0  0  0  0
  -25.8590  -34.9310   23.3890 C   0  0  0  0  0  0  0  0  0  0  0  0
  -26.5390  -34.8680   22.3610 O   0  0  0  0  0  0  0  0  0  0  0  0
  -24.9570  -33.9770   24.9260 H   0  0  0  0  0  0  0  0  0  0  0  0
  -24.1120  -36.7060   23.0590 C   0  0  0  0  0  1  0  0  0  0  0  0
  -25.3420  -36.2970   23.8810 C   0  0  0  0  0  3  0  0  0  0  0  0
  -27.4510  -37.1860   24.7740 C   0  0  0  0  0  1  0  0  0  0  0  0
  -26.3570  -37.3710   23.8230 N   0  0  0  0  0  0  0  0  0  0  0  0
  -25.9310  -38.2760   24.0050 H   0  0  0  0  0  0  0  0  0  0  0  0
  2  1  1  0
  4  8  1  0
  5  1  1  0
  5  3  1  0
  5  4  1  0
  6  2  1  0
  6  7  1  0
  6  3  1  0
  7  4  1  0
  7 50  1  0
  8  9  1  0
  9 11  1  0
 10  8  2  0
 12  9  1  0
 12 13  2  0
 14 13  1  0
 15 20  1  0
 16 17  1  0
 16 15  1  0
 18 17  1  0
 18 25  1  0
 18 19  1  0
 20 14  1  0
 20 19  1  0
 21 14  2  0
 22 23  2  0
 23 24  1  0
 23 42  1  0
 24 27  1  0
 25 22  1  0
 25 26  1  0
 26 24  2  0
 27 28  1  0
 28 29  2  0
 30 33  1  0
 30 29  1  0
 31 30  2  0
 32 31  1  0
 32 27  2  0
 33 34  1  0
 34 35  1  0
 35 36  2  0
 37 36  1  0
 37 41  1  0
 38 37  2  0
 39 34  2  0
 39 38  1  0
 40 39  1  0
 42 43  1  0
 43 46  1  0
 43 45  1  0
 44 42  2  0
 47 48  1  0
 47 22  1  0
 49 47  1  0
 51 53  1  0
 51 50  1  0
 52 63  2  0
 53 58  1  0
 54 62  1  0
 54 64  1  0
 55 61  1  0
 55 57  1  0
 56 62  1  0
 57 56  1  0
 58 57  2  0
 59 60  1  0
 59 53  2  0
 60 55  2  0
 61 54  1  0
 62 52  1  0
 64 66  2  0
 65 64  1  0
 67 65  1  0
 68 77  2  0
 68 73  1  0
 69 65  1  0
 69 73  1  0
 70 69  1  0
 71 72  1  0
 71 70  1  0
 72 68  1  0
 73 74  2  0
 74 75  1  0
 76 75  2  0
 77 76  1  0
 78 52  1  0
 78 83  1  0
 78 79  1  0
 79 82  1  1
 79 80  1  0
 81 79  1  0
 83 86  1  0
 84 88  1  0
 84 83  1  0
 85 84  2  0
 88 87  1  0
 90 88  1  0
 90 91  1  0
 90 89  1  0
M  ISO  4  13 100  14 100  50 101  51 101
M  END
>  <TORSDO>  (46) 
F 20

>  <SCORE>  (46) 
-13.491

>  <name>  (46) 
45

>  <ligand_id>  (46) 
45

>  <original_smiles>  (46) 
[H]c1c([H])c([H])c2c(c1[H])C([H])([H])C([H])([H])C([H])([H])C2([H])N([H])C(=O)C1([H])N(C(=O)C([H])(N([H])C(=O)C([H])(N([H])C([H])([H])[H])C([H])([H])[H])C(C([H])([H])[H])(C([H])([H])[H])C([H])([H])[H])C([H])([H])c2c([H])c(OC([H])([H])C3([H])C([H])(C(=O)N([H])C([H])([H])C([H])([H])C(=O)N4C([H])([H])C([H])([H])C([H])([H])C([H])(n5nc(-c6c([H])c([H])c(Oc7c([H])c([H])c(F)c([H])c7F)c([H])c6[H])c(C(=O)N([H])[H])c5N([H])[H])C4([H])[H])C4([H])C([H])([H])C([H])([H])C3([H])C4([H])[H])c([H])c([H])c2C1([H])[H]

>  <smiles>  (46) 
[H]c1c([H])c([H])c2c(c1[H])C([H])([H])C([H])([H])C([H])([H])C2([H])N([H])C(=O)C1([H])N(C(=O)C([H])(N([H])C(=O)C([H])(N([H])C([H])([H])[H])C([H])([H])[H])C(C([H])([H])[H])(C([H])([H])[H])C([H])([H])[H])C([H])([H])c2c([H])c(OC([H])([H])C3([H])C([H])(C(=O)N([H])C([H])([H])C([H])([H])C(=O)N4C([H])([H])C([H])([H])C([H])([H])C([H])(n5nc(-c6c([H])c([H])c(Oc7c([H])c([H])c(F)c([H])c7F)c([H])c6[H])c(C(=O)N([H])[H])c5N([H])[H])C4([H])[H])C4([H])C([H])([H])C([H])([H])C3([H])C4([H])[H])c([H])c([H])c2C1([H])[H]

$$$$
46:0:0
     RDKit          3D

 90 99  0  0  1  0  0  0  0  0999 V2000
  -30.2670  -18.8580   18.6420 C   0  0  0  0  0  2  0  0  0  0  0  0
  -29.1010  -19.6820   18.0020 C   0  0  0  0  0  2  0  0  0  0  0  0
  -27.9990  -21.9130   18.9060 C   0  0  0  0  0  2  0  0  0  0  0  0
  -28.9820  -19.9750   20.3820 C   0  0  0  0  0  3  0  0  0  0  0  0
  -29.9110  -18.4990   20.0990 C   0  0  0  0  0  3  0  0  0  0  0  0
  -28.3320  -22.7850   20.1620 C   0  0  0  0  0  3  0  0  0  0  0  0
  -29.4550  -21.5980   20.6180 C   0  0  0  0  0  3  0  0  0  0  0  0
  -28.1930  -20.3270   19.0970 C   0  0  2  0  0  0  0  0  0  0  0  0
  -29.9230  -21.8110   22.0620 C   0  0  0  0  0  1  0  0  0  0  0  0
  -26.7740  -19.7180   19.1570 C   0  0  0  0  0  1  0  0  0  0  0  0
  -28.3290  -16.5590   19.2780 C   0  0  0  0  0  1  0  0  0  0  0  0
  -29.4980  -16.7560   20.2420 C   0  0  0  0  0  3  0  0  0  0  0  0
  -30.3650  -15.2350   20.1150 C   0  0  0  0  0  0  0  0  0  0  0  0
  -30.3210  -12.7860   19.2600 C   0  0  0  0  0  2  0  0  0  0  0  0
  -29.3630  -12.5960   18.0540 C   0  0  0  0  0  2  0  0  0  0  0  0
  -27.9260  -12.3020   18.5260 C   0  0  0  0  0  2  0  0  0  0  0  0
  -27.4870  -13.2620   19.6540 C   0  0  0  0  0  3  0  0  0  0  0  0
  -28.5700  -13.4400   20.7470 C   0  0  0  0  0  2  0  0  0  0  0  0
  -29.8150  -13.9190   20.1120 N   0  0  0  0  0  0  0  0  0  0  0  0
  -31.5750  -15.2460   19.8550 O   0  0  0  0  0  0  0  0  0  0  0  0
  -25.1270  -13.8270   20.4670 C   0  0  0  0  0  0  0  0  0  0  0  0
  -24.0780  -13.0490   20.8590 C   0  0  0  0  0  0  0  0  0  0  0  0
  -24.5520  -11.7030   20.8130 C   0  0  0  0  0  0  0  0  0  0  0  0
  -26.1730  -12.9560   20.2000 N   0  0  0  0  0  0  0  0  0  0  0  0
  -25.8370  -11.6720   20.4770 N   0  0  0  0  0  0  0  0  0  0  0  0
  -23.8350  -10.4410   21.0080 C   0  0  0  0  0  0  0  0  0  0  0  0
  -24.2800   -9.4770   21.9380 C   0  0  0  0  0  3  0  0  0  0  0  0
  -23.5580   -8.2790   22.1230 C   0  0  0  0  0  3  0  0  0  0  0  0
  -22.3790   -8.0380   21.3780 C   0  0  0  0  0  0  0  0  0  0  0  0
  -21.9550   -8.9920   20.4360 C   0  0  0  0  0  3  0  0  0  0  0  0
  -22.6770  -10.1820   20.2480 C   0  0  0  0  0  3  0  0  0  0  0  0
  -21.6290   -6.8920   21.4730 O   0  0  0  0  0  0  0  0  0  0  0  0
  -21.5900   -6.1550   22.6280 C   0  0  0  0  0  0  0  0  0  0  0  0
  -21.1530   -6.7080   23.8520 C   0  0  0  0  0  3  0  0  0  0  0  0
  -21.0630   -5.8960   25.0000 C   0  0  0  0  0  3  0  0  0  0  0  0
  -21.3990   -4.5310   24.9240 C   0  0  0  0  0  0  0  0  0  0  0  0
  -21.8290   -3.9770   23.7070 C   0  0  0  0  0  3  0  0  0  0  0  0
  -21.9220   -4.7870   22.5610 C   0  0  0  0  0  0  0  0  0  0  0  0
  -22.3170   -4.2430   21.3850 F   0  0  0  0  0  0  0  0  0  0  0  0
  -21.3040   -3.7480   26.0250 F   0  0  0  0  0  0  0  0  0  0  0  0
  -22.6860  -13.5240   21.1550 C   0  0  0  0  0  0  0  0  0  0  0  0
  -21.9750  -12.8250   22.0310 N   0  0  0  0  0  0  0  0  0  0  0  0
  -22.2390  -14.5510   20.6460 O   0  0  0  0  0  0  0  0  0  0  0  0
  -22.3510  -11.9940   22.4650 H   0  0  0  0  0  0  0  0  0  0  0  0
  -21.0420  -13.1270   22.2760 H   0  0  0  0  0  0  0  0  0  0  0  0
  -25.2480  -15.1980   20.2880 N   0  0  0  0  0  0  0  0  0  0  0  0
  -24.4630  -15.8300   20.4090 H   0  0  0  0  0  0  0  0  0  0  0  0
  -26.0660  -15.6540   19.9100 H   0  0  0  0  0  0  0  0  0  0  0  0
  -28.4010  -24.5070   19.7160 C   0  0  0  0  0  2  0  0  0  0  0  0
  -28.2340  -25.9830   20.3510 O   0  0  0  0  0  0  0  0  0  0  0  0
  -24.5840  -31.8280   23.1980 C   0  0  0  0  0  0  0  0  0  0  0  0
  -27.1920  -27.0160   20.1970 C   0  0  0  0  0  0  0  0  0  0  0  0
  -23.4050  -30.4360   21.5400 C   0  0  0  0  0  3  0  0  0  0  0  0
  -24.8710  -28.8410   20.1280 C   0  0  0  0  0  0  0  0  0  0  0  0
  -25.9680  -30.6640   21.4200 C   0  0  0  0  0  2  0  0  0  0  0  0
  -26.0440  -29.2630   20.7640 C   0  0  0  0  0  0  0  0  0  0  0  0
  -27.1950  -28.3660   20.7800 C   0  0  0  0  0  3  0  0  0  0  0  0
  -25.9910  -26.7260   19.5100 C   0  0  0  0  0  3  0  0  0  0  0  0
  -24.8660  -27.5920   19.4820 C   0  0  0  0  0  3  0  0  0  0  0  0
  -23.6470  -29.7520   20.1640 C   0  0  0  0  0  2  0  0  0  0  0  0
  -24.6730  -31.0020   22.1060 N   0  0  0  0  0  0  0  0  0  0  0  0
  -23.4900  -32.1190   23.7070 O   0  0  0  0  0  0  0  0  0  0  0  0
  -22.7000  -29.4410   22.4960 C   0  0  0  0  0  0  0  0  0  0  0  0
  -21.3670  -29.3030   22.3750 N   0  0  0  0  0  0  0  0  0  0  0  0
  -23.3580  -28.7930   23.3150 O   0  0  0  0  0  0  0  0  0  0  0  0
  -20.8920  -29.8770   21.6920 H   0  0  0  0  0  0  0  0  0  0  0  0
  -17.9590  -28.1760   22.8990 C   0  0  0  0  0  0  0  0  0  0  0  0
  -20.5280  -28.3720   23.1360 C   0  0  0  0  0  3  0  0  0  0  0  0
  -20.5850  -26.9500   22.5320 C   0  0  0  0  0  2  0  0  0  0  0  0
  -19.4640  -26.6760   21.5260 C   0  0  0  0  0  2  0  0  0  0  0  0
  -18.0940  -26.8390   22.1900 C   0  0  0  0  0  2  0  0  0  0  0  0
  -19.1020  -28.9030   23.3280 C   0  0  0  0  0  0  0  0  0  0  0  0
  -18.9200  -30.1550   23.9560 C   0  0  0  0  0  3  0  0  0  0  0  0
  -17.6280  -30.6810   24.1530 C   0  0  0  0  0  3  0  0  0  0  0  0
  -16.5010  -29.9520   23.7370 C   0  0  0  0  0  3  0  0  0  0  0  0
  -16.6670  -28.7000   23.1170 C   0  0  0  0  0  3  0  0  0  0  0  0
  -25.8510  -32.4640   23.8470 C   0  0  0  0  0  3  0  0  0  0  0  0
  -25.5380  -33.8660   24.1720 N   0  0  0  0  0  0  0  0  0  0  0  0
  -25.8880  -34.9230   23.4260 C   0  0  0  0  0  0  0  0  0  0  0  0
  -26.5730  -34.8190   22.4060 O   0  0  0  0  0  0  0  0  0  0  0  0
  -24.9320  -34.0200   24.9640 H   0  0  0  0  0  0  0  0  0  0  0  0
  -24.1790  -36.7360   23.0610 C   0  0  0  0  0  1  0  0  0  0  0  0
  -25.4060  -36.3150   23.8850 C   0  0  0  0  0  3  0  0  0  0  0  0
  -27.5350  -37.1840   24.7520 C   0  0  0  0  0  1  0  0  0  0  0  0
  -26.4490  -37.3610   23.7910 N   0  0  0  0  0  0  0  0  0  0  0  0
  -26.0470  -38.2840   23.9320 H   0  0  0  0  0  0  0  0  0  0  0  0
  -26.3320  -31.7010   25.1430 C   0  0  1  0  0  0  0  0  0  0  0  0
  -25.2140  -31.4820   26.1900 C   0  0  0  0  0  1  0  0  0  0  0  0
  -26.9130  -30.3150   24.7840 C   0  0  0  0  0  1  0  0  0  0  0  0
  -27.4750  -32.4930   25.8230 C   0  0  0  0  0  1  0  0  0  0  0  0
  1  5  1  0
  2  1  1  0
  2  8  1  0
  3  8  1  0
  3  6  1  0
  4  7  1  0
  5 12  1  0
  5  4  1  0
  6  7  1  0
  7  9  1  0
  8 10  1  1
  8  4  1  0
 11 12  1  0
 13 12  1  0
 14 19  1  0
 15 16  1  0
 15 14  1  0
 16 17  1  0
 17 24  1  0
 17 18  1  0
 19 13  1  0
 19 18  1  0
 20 13  2  0
 21 22  2  0
 22 41  1  0
 23 22  1  0
 23 26  1  0
 24 21  1  0
 24 25  1  0
 25 23  2  0
 26 27  1  0
 27 28  2  0
 29 32  1  0
 29 28  1  0
 30 29  2  0
 31 30  1  0
 31 26  2  0
 32 33  1  0
 33 34  1  0
 34 35  2  0
 36 35  1  0
 36 40  1  0
 37 36  2  0
 38 33  2  0
 38 37  1  0
 39 38  1  0
 41 42  1  0
 42 45  1  0
 42 44  1  0
 43 41  2  0
 46 47  1  0
 46 21  1  0
 48 46  1  0
 49  6  1  0
 49 50  1  0
 51 62  2  0
 51 77  1  0
 52 50  1  0
 52 57  1  0
 53 61  1  0
 53 63  1  0
 54 60  1  0
 54 56  1  0
 55 61  1  0
 56 57  2  0
 56 55  1  0
 58 52  2  0
 59 58  1  0
 59 54  2  0
 60 53  1  0
 61 51  1  0
 63 65  2  0
 64 63  1  0
 64 68  1  0
 66 64  1  0
 67 76  2  0
 67 72  1  0
 68 72  1  0
 69 68  1  0
 70 71  1  0
 70 69  1  0
 71 67  1  0
 72 73  2  0
 73 74  1  0
 75 74  2  0
 76 75  1  0
 77 78  1  0
 77 87  1  0
 78 81  1  0
 79 83  1  0
 79 78  1  0
 80 79  2  0
 82 83  1  0
 85 83  1  0
 85 86  1  0
 85 84  1  0
 87 90  1  1
 87 88  1  0
 89 87  1  0
M  ISO  4  12 100  13 100  49 101  50 101
M  END
>  <TORSDO>  (47) 
F 18

>  <SCORE>  (47) 
-16.399

>  <name>  (47) 
46

>  <ligand_id>  (47) 
46

>  <original_smiles>  (47) 
[H]c1c([H])c([H])c2c(c1[H])C([H])([H])C([H])([H])C([H])([H])C2([H])N([H])C(=O)C1([H])N(C(=O)C([H])(N([H])C(=O)C([H])(N([H])C([H])([H])[H])C([H])([H])[H])C(C([H])([H])[H])(C([H])([H])[H])C([H])([H])[H])C([H])([H])c2c([H])c(OC([H])([H])C3([H])C([H])([H])C4(C([H])([H])[H])C([H])([H])C([H])([H])C([H])(C([H])(C(=O)N5C([H])([H])C([H])([H])C([H])([H])C([H])(n6nc(-c7c([H])c([H])c(Oc8c([H])c([H])c(F)c([H])c8F)c([H])c7[H])c(C(=O)N([H])[H])c6N([H])[H])C5([H])[H])C([H])([H])[H])C4([H])C3([H])C([H])([H])[H])c([H])c([H])c2C1([H])[H]

>  <smiles>  (47) 
[H]c1c([H])c([H])c2c(c1[H])C([H])([H])C([H])([H])C([H])([H])C2([H])N([H])C(=O)C1([H])N(C(=O)C([H])(N([H])C(=O)C([H])(N([H])C([H])([H])[H])C([H])([H])[H])C(C([H])([H])[H])(C([H])([H])[H])C([H])([H])[H])C([H])([H])c2c([H])c(OC([H])([H])C3([H])C([H])([H])C4(C([H])([H])[H])C([H])([H])C([H])([H])C([H])(C([H])(C(=O)N5C([H])([H])C([H])([H])C([H])([H])C([H])(n6nc(-c7c([H])c([H])c(Oc8c([H])c([H])c(F)c([H])c8F)c([H])c7[H])c(C(=O)N([H])[H])c6N([H])[H])C5([H])[H])C([H])([H])[H])C4([H])C3([H])C([H])([H])[H])c([H])c([H])c2C1([H])[H]

$$$$
47:0:0
     RDKit          3D

 93103  0  0  1  0  0  0  0  0999 V2000
  -28.8520  -17.6140   20.7920 C   0  0  0  0  0  2  0  0  0  0  0  0
  -31.9100  -16.8400   19.4880 C   0  0  0  0  0  2  0  0  0  0  0  0
  -28.5090  -20.2040   20.5530 C   0  0  0  0  0  2  0  0  0  0  0  0
  -30.1320  -20.2310   18.8500 C   0  0  0  0  0  2  0  0  0  0  0  0
  -29.4640  -19.0340   20.8610 C   0  0  0  0  0  3  0  0  0  0  0  0
  -29.8240  -16.7920   19.9650 C   0  0  0  0  0  3  0  0  0  0  0  0
  -30.7140  -17.7410   19.1690 C   0  0  0  0  0  3  0  0  0  0  0  0
  -30.5800  -19.1200   19.7990 C   0  0  0  0  0  3  0  0  0  0  0  0
  -31.0960  -16.2230   20.6290 C   0  0  0  0  0  3  0  0  0  0  0  0
  -29.2770  -21.1110   19.6720 N   0  0  1  0  0  4  0  0  0  0  0  0
  -29.8890  -21.6340   20.2820 H   0  0  0  0  0  0  0  0  0  0  0  0
  -31.2470  -14.7360   20.9600 C   0  0  0  0  0  2  0  0  0  0  0  0
  -31.2180  -13.7810   19.7540 C   0  0  0  0  0  0  0  0  0  0  0  0
  -30.6850  -11.4950   19.0090 C   0  0  0  0  0  2  0  0  0  0  0  0
  -29.6550  -11.3710   17.8790 C   0  0  0  0  0  2  0  0  0  0  0  0
  -28.2280  -11.3720   18.4450 C   0  0  0  0  0  2  0  0  0  0  0  0
  -27.9790  -12.5570   19.4110 C   0  0  0  0  0  3  0  0  0  0  0  0
  -29.0930  -12.6460   20.4750 C   0  0  0  0  0  2  0  0  0  0  0  0
  -30.3990  -12.7030   19.7940 N   0  0  0  0  0  0  0  0  0  0  0  0
  -32.0670  -13.9390   18.8680 O   0  0  0  0  0  0  0  0  0  0  0  0
  -25.7590  -13.4780   20.3440 C   0  0  0  0  0  0  0  0  0  0  0  0
  -24.6370  -12.8490   20.8160 C   0  0  0  0  0  0  0  0  0  0  0  0
  -24.9100  -11.4490   20.7430 C   0  0  0  0  0  0  0  0  0  0  0  0
  -26.6540  -12.4670   20.0200 N   0  0  0  0  0  0  0  0  0  0  0  0
  -26.1490  -11.2420   20.3170 N   0  0  0  0  0  0  0  0  0  0  0  0
  -24.0470  -10.2900   21.0030 C   0  0  0  0  0  0  0  0  0  0  0  0
  -24.4470   -9.2530   21.8750 C   0  0  0  0  0  3  0  0  0  0  0  0
  -23.5920   -8.1590   22.1250 C   0  0  0  0  0  3  0  0  0  0  0  0
  -22.3220   -8.0930   21.5050 C   0  0  0  0  0  0  0  0  0  0  0  0
  -21.9370   -9.1160   20.6210 C   0  0  0  0  0  3  0  0  0  0  0  0
  -22.7900  -10.2040   20.3690 C   0  0  0  0  0  3  0  0  0  0  0  0
  -21.4360   -7.0560   21.6710 O   0  0  0  0  0  0  0  0  0  0  0  0
  -21.4480   -6.2700   22.7960 C   0  0  0  0  0  0  0  0  0  0  0  0
  -21.2540   -6.8100   24.0860 C   0  0  0  0  0  3  0  0  0  0  0  0
  -21.2030   -5.9570   25.2070 C   0  0  0  0  0  3  0  0  0  0  0  0
  -21.3380   -4.5650   25.0390 C   0  0  0  0  0  0  0  0  0  0  0  0
  -21.5260   -4.0260   23.7550 C   0  0  0  0  0  3  0  0  0  0  0  0
  -21.5770   -4.8760   22.6360 C   0  0  0  0  0  0  0  0  0  0  0  0
  -21.7360   -4.3480   21.3980 F   0  0  0  0  0  0  0  0  0  0  0  0
  -21.2830   -3.7440   26.1140 F   0  0  0  0  0  0  0  0  0  0  0  0
  -23.3470  -13.5000   21.2220 C   0  0  0  0  0  0  0  0  0  0  0  0
  -22.6250  -12.8970   22.1630 N   0  0  0  0  0  0  0  0  0  0  0  0
  -22.9890  -14.5730   20.7370 O   0  0  0  0  0  0  0  0  0  0  0  0
  -22.9320  -12.0310   22.5800 H   0  0  0  0  0  0  0  0  0  0  0  0
  -21.7600  -13.3120   22.4770 H   0  0  0  0  0  0  0  0  0  0  0  0
  -26.0860  -14.8140   20.1420 N   0  0  0  0  0  0  0  0  0  0  0  0
  -25.4310  -15.5680   20.3220 H   0  0  0  0  0  0  0  0  0  0  0  0
  -26.9520  -15.1280   19.7210 H   0  0  0  0  0  0  0  0  0  0  0  0
  -28.4670  -22.0850   18.9040 C   0  0  0  0  0  2  0  0  0  0  0  0
  -29.2550  -23.3790   18.6150 C   0  0  0  0  0  2  0  0  0  0  0  0
  -28.4180  -24.4730   17.9430 C   0  0  0  0  0  2  0  0  0  0  0  0
  -29.1640  -25.8220   17.8830 C   0  0  0  0  0  2  0  0  0  0  0  0
  -28.5350  -26.7470   17.0060 O   0  0  0  0  0  0  0  0  0  0  0  0
  -24.6600  -29.9690   22.0250 C   0  0  0  0  0  0  0  0  0  0  0  0
  -27.3100  -27.1920   17.4210 C   0  0  0  0  0  0  0  0  0  0  0  0
  -23.3900  -28.9310   20.1720 C   0  0  0  0  0  3  0  0  0  0  0  0
  -24.7780  -28.1560   18.1820 C   0  0  0  0  0  0  0  0  0  0  0  0
  -25.7780  -29.7710   19.8090 C   0  0  0  0  0  2  0  0  0  0  0  0
  -25.9350  -28.6850   18.7700 C   0  0  0  0  0  0  0  0  0  0  0  0
  -27.2070  -28.2060   18.3930 C   0  0  0  0  0  3  0  0  0  0  0  0
  -26.1440  -26.6670   16.8300 C   0  0  0  0  0  3  0  0  0  0  0  0
  -24.8760  -27.1400   17.2120 C   0  0  0  0  0  3  0  0  0  0  0  0
  -23.4560  -28.7320   18.6340 C   0  0  0  0  0  2  0  0  0  0  0  0
  -24.6350  -29.5550   20.7270 N   0  0  0  0  0  0  0  0  0  0  0  0
  -23.6560  -29.8780   22.7450 O   0  0  0  0  0  0  0  0  0  0  0  0
  -23.0400  -27.5760   20.8270 C   0  0  0  0  0  0  0  0  0  0  0  0
  -21.7790  -27.1460   20.6690 N   0  0  0  0  0  0  0  0  0  0  0  0
  -23.8970  -26.9250   21.4290 O   0  0  0  0  0  0  0  0  0  0  0  0
  -21.1330  -27.7390   20.1660 H   0  0  0  0  0  0  0  0  0  0  0  0
  -18.8380  -25.0480   20.6680 C   0  0  0  0  0  0  0  0  0  0  0  0
  -21.2340  -25.8820   21.1640 C   0  0  0  0  0  3  0  0  0  0  0  0
  -21.7170  -24.6920   20.3020 C   0  0  0  0  0  2  0  0  0  0  0  0
  -20.7510  -24.3340   19.1690 C   0  0  0  0  0  2  0  0  0  0  0  0
  -19.3730  -23.9740   19.7350 C   0  0  0  0  0  2  0  0  0  0  0  0
  -19.7130  -25.9530   21.3260 C   0  0  0  0  0  0  0  0  0  0  0  0
  -19.1660  -26.9560   22.1560 C   0  0  0  0  0  3  0  0  0  0  0  0
  -17.7730  -27.0600   22.3350 C   0  0  0  0  0  3  0  0  0  0  0  0
  -16.9130  -26.1520   21.6950 C   0  0  0  0  0  3  0  0  0  0  0  0
  -17.4450  -25.1450   20.8680 C   0  0  0  0  0  3  0  0  0  0  0  0
  -25.9410  -30.5990   22.6590 C   0  0  0  0  0  3  0  0  0  0  0  0
  -25.5230  -31.7990   23.3950 N   0  0  0  0  0  0  0  0  0  0  0  0
  -25.6890  -33.0540   22.9580 C   0  0  0  0  0  0  0  0  0  0  0  0
  -26.2840  -33.3270   21.9110 O   0  0  0  0  0  0  0  0  0  0  0  0
  -24.9790  -31.6500   24.2320 H   0  0  0  0  0  0  0  0  0  0  0  0
  -23.7840  -34.6760   23.2030 C   0  0  0  0  0  1  0  0  0  0  0  0
  -25.1050  -34.1890   23.8200 C   0  0  0  0  0  3  0  0  0  0  0  0
  -27.1920  -35.0180   24.8100 C   0  0  0  0  0  1  0  0  0  0  0  0
  -26.0250  -35.3340   23.9910 N   0  0  0  0  0  0  0  0  0  0  0  0
  -25.5430  -36.1210   24.4160 H   0  0  0  0  0  0  0  0  0  0  0  0
  -26.7210  -29.6030   23.6030 C   0  0  1  0  0  0  0  0  0  0  0  0
  -25.8300  -28.9350   24.6740 C   0  0  0  0  0  1  0  0  0  0  0  0
  -27.3890  -28.4800   22.7770 C   0  0  0  0  0  1  0  0  0  0  0  0
  -27.8580  -30.3570   24.3330 C   0  0  0  0  0  1  0  0  0  0  0  0
  1  5  1  0
  2  9  1  0
  4 10  1  0
  5  3  1  0
  6  9  1  0
  6  1  1  0
  7  2  1  0
  7  8  1  0
  7  6  1  0
  8  4  1  0
  8  5  1  0
  9 12  1  0
 10 11  1  1
 10  3  1  0
 13 19  1  0
 13 12  1  0
 14 19  1  0
 15 16  1  0
 15 14  1  0
 17 16  1  0
 17 24  1  0
 17 18  1  0
 19 18  1  0
 20 13  2  0
 21 22  2  0
 22 41  1  0
 23 22  1  0
 23 26  1  0
 24 25  1  0
 24 21  1  0
 25 23  2  0
 26 27  1  0
 27 28  2  0
 29 32  1  0
 29 28  1  0
 30 29  2  0
 31 30  1  0
 31 26  2  0
 32 33  1  0
 33 34  1  0
 34 35  2  0
 36 35  1  0
 36 40  1  0
 37 36  2  0
 38 33  2  0
 38 37  1  0
 39 38  1  0
 41 42  1  0
 42 45  1  0
 42 44  1  0
 43 41  2  0
 46 47  1  0
 46 21  1  0
 48 46  1  0
 49 10  1  0
 50 49  1  0
 51 50  1  0
 52 51  1  0
 53 55  1  0
 53 52  1  0
 54 65  2  0
 55 60  1  0
 56 64  1  0
 56 66  1  0
 57 63  1  0
 57 59  1  0
 58 64  1  0
 59 58  1  0
 60 59  2  0
 61 62  1  0
 61 55  2  0
 62 57  2  0
 63 56  1  0
 64 54  1  0
 66 68  2  0
 67 66  1  0
 69 67  1  0
 70 79  2  0
 70 75  1  0
 71 67  1  0
 71 75  1  0
 72 71  1  0
 73 74  1  0
 73 72  1  0
 74 70  1  0
 75 76  2  0
 76 77  1  0
 78 77  2  0
 79 78  1  0
 80 54  1  0
 80 81  1  0
 80 90  1  0
 81 84  1  0
 82 81  1  0
 82 86  1  0
 83 82  2  0
 86 85  1  0
 86 88  1  0
 88 89  1  0
 88 87  1  0
 90 93  1  1
 90 91  1  0
 92 90  1  0
M  ISO  4  12 100  13 100  52 101  53 101
M  END
>  <TORSDO>  (48) 
F 21

>  <SCORE>  (48) 
-8.767

>  <name>  (48) 
47

>  <ligand_id>  (48) 
47

>  <original_smiles>  (48) 
[H]c1c([H])c([H])c2c(c1[H])C([H])([H])C([H])([H])C([H])([H])C2([H])N([H])C(=O)C1([H])N(C(=O)C([H])(N([H])C(=O)C([H])(N([H])C([H])([H])[H])C([H])([H])[H])C(C([H])([H])[H])(C([H])([H])[H])C([H])([H])[H])C([H])([H])c2c([H])c(OC([H])([H])C([H])([H])C([H])([H])C([H])([H])[N+]3([H])C([H])([H])C4([H])C([H])([H])C5([H])C([H])(C([H])([H])C(=O)N6C([H])([H])C([H])([H])C([H])([H])C([H])(n7nc(-c8c([H])c([H])c(Oc9c([H])c([H])c(F)c([H])c9F)c([H])c8[H])c(C(=O)N([H])[H])c7N([H])[H])C6([H])[H])C([H])([H])C5([H])C4([H])C3([H])[H])c([H])c([H])c2C1([H])[H]

>  <smiles>  (48) 
[H]c1c([H])c([H])c2c(c1[H])C([H])([H])C([H])([H])C([H])([H])C2([H])N([H])C(=O)C1([H])N(C(=O)C([H])(N([H])C(=O)C([H])(N([H])C([H])([H])[H])C([H])([H])[H])C(C([H])([H])[H])(C([H])([H])[H])C([H])([H])[H])C([H])([H])c2c([H])c(OC([H])([H])C([H])([H])C([H])([H])C([H])([H])[N+]3([H])C([H])([H])C4([H])C([H])([H])C5([H])C([H])(C([H])([H])C(=O)N6C([H])([H])C([H])([H])C([H])([H])C([H])(n7nc(-c8c([H])c([H])c(Oc9c([H])c([H])c(F)c([H])c9F)c([H])c8[H])c(C(=O)N([H])[H])c7N([H])[H])C6([H])[H])C([H])([H])C5([H])C4([H])C3([H])[H])c([H])c([H])c2C1([H])[H]

$$$$
48:0:0
     RDKit          3D

 90 99  0  0  1  0  0  0  0  0999 V2000
  -29.0190  -17.8300   21.8100 C   0  0  0  0  0  2  0  0  0  0  0  0
  -28.0510  -18.1040   20.6310 C   0  0  0  0  0  3  0  0  0  0  0  0
  -30.5370  -17.8440   21.4790 C   0  0  0  0  0  2  0  0  0  0  0  0
  -29.5350  -22.0720   18.3640 C   0  0  0  0  0  2  0  0  0  0  0  0
  -29.3170  -22.2300   20.7350 C   0  0  0  0  0  2  0  0  0  0  0  0
  -28.4860  -19.1900   19.6160 C   0  0  0  0  0  3  0  0  0  0  0  0
  -30.3090  -20.6320   18.5070 C   0  0  0  0  0  2  0  0  0  0  0  0
  -30.0790  -20.7950   20.8450 C   0  0  0  0  0  2  0  0  0  0  0  0
  -29.5940  -23.2030   19.5120 C   0  0  0  0  0  3  0  0  0  0  0  0
  -30.8350  -18.1560   19.9990 C   0  0  0  0  0  3  0  0  0  0  0  0
  -29.9620  -19.6340   19.7160 C   0  0  1  0  0  0  0  0  0  0  0  0
  -30.7140  -16.6130   19.2540 C   0  0  0  0  0  2  0  0  0  0  0  0
  -31.5610  -15.1830   19.5460 C   0  0  0  0  0  0  0  0  0  0  0  0
  -31.3990  -12.7090   18.9940 C   0  0  0  0  0  2  0  0  0  0  0  0
  -30.4370  -12.5400   17.7910 C   0  0  0  0  0  2  0  0  0  0  0  0
  -28.9800  -12.4150   18.2760 C   0  0  0  0  0  2  0  0  0  0  0  0
  -28.6230  -13.4890   19.3370 C   0  0  0  0  0  3  0  0  0  0  0  0
  -29.7080  -13.6310   20.4220 C   0  0  0  0  0  2  0  0  0  0  0  0
  -30.9770  -13.9260   19.7440 N   0  0  0  0  0  0  0  0  0  0  0  0
  -32.7770  -15.1710   19.3140 O   0  0  0  0  0  0  0  0  0  0  0  0
  -26.3520  -14.2460   20.2310 C   0  0  0  0  0  0  0  0  0  0  0  0
  -25.2480  -13.5570   20.6500 C   0  0  0  0  0  0  0  0  0  0  0  0
  -25.5910  -12.1720   20.5660 C   0  0  0  0  0  0  0  0  0  0  0  0
  -27.2980  -13.2880   19.9110 N   0  0  0  0  0  0  0  0  0  0  0  0
  -26.8530  -12.0320   20.1770 N   0  0  0  0  0  0  0  0  0  0  0  0
  -24.7640  -10.9760   20.7740 C   0  0  0  0  0  0  0  0  0  0  0  0
  -25.1150   -9.9920   21.7250 C   0  0  0  0  0  3  0  0  0  0  0  0
  -24.2960   -8.8600   21.9180 C   0  0  0  0  0  3  0  0  0  0  0  0
  -23.1090   -8.7050   21.1640 C   0  0  0  0  0  0  0  0  0  0  0  0
  -22.7750   -9.6750   20.2030 C   0  0  0  0  0  3  0  0  0  0  0  0
  -23.5960  -10.7990   20.0070 C   0  0  0  0  0  3  0  0  0  0  0  0
  -22.2640   -7.6240   21.2670 O   0  0  0  0  0  0  0  0  0  0  0  0
  -22.0520   -6.9890   22.4640 C   0  0  0  0  0  0  0  0  0  0  0  0
  -21.5160   -7.6650   23.5830 C   0  0  0  0  0  3  0  0  0  0  0  0
  -21.2490   -6.9570   24.7710 C   0  0  0  0  0  3  0  0  0  0  0  0
  -21.5080   -5.5750   24.8420 C   0  0  0  0  0  0  0  0  0  0  0  0
  -22.0360   -4.9000   23.7280 C   0  0  0  0  0  3  0  0  0  0  0  0
  -22.3050   -5.6050   22.5420 C   0  0  0  0  0  0  0  0  0  0  0  0
  -22.7940   -4.9450   21.4650 F   0  0  0  0  0  0  0  0  0  0  0  0
  -21.2430   -4.8930   25.9810 F   0  0  0  0  0  0  0  0  0  0  0  0
  -23.9160  -14.1490   21.0100 C   0  0  0  0  0  0  0  0  0  0  0  0
  -23.1920  -13.5090   21.9210 N   0  0  0  0  0  0  0  0  0  0  0  0
  -23.5340  -15.2090   20.5190 O   0  0  0  0  0  0  0  0  0  0  0  0
  -23.5210  -12.6490   22.3340 H   0  0  0  0  0  0  0  0  0  0  0  0
  -22.2970  -13.8800   22.2080 H   0  0  0  0  0  0  0  0  0  0  0  0
  -26.6190  -15.6000   20.0620 N   0  0  0  0  0  0  0  0  0  0  0  0
  -25.9050  -16.3060   20.2040 H   0  0  0  0  0  0  0  0  0  0  0  0
  -27.4720  -15.9680   19.6630 H   0  0  0  0  0  0  0  0  0  0  0  0
  -28.6550  -24.6290   19.2990 C   0  0  0  0  0  2  0  0  0  0  0  0
  -28.8050  -26.1310   19.7520 O   0  0  0  0  0  0  0  0  0  0  0  0
  -24.6390  -31.3750   22.9490 C   0  0  0  0  0  0  0  0  0  0  0  0
  -27.6950  -27.0710   19.7110 C   0  0  0  0  0  0  0  0  0  0  0  0
  -23.6230  -30.0230   21.1580 C   0  0  0  0  0  3  0  0  0  0  0  0
  -25.2490  -28.6700   19.6950 C   0  0  0  0  0  0  0  0  0  0  0  0
  -26.1600  -30.4760   21.1420 C   0  0  0  0  0  2  0  0  0  0  0  0
  -26.3680  -29.1430   20.3930 C   0  0  0  0  0  0  0  0  0  0  0  0
  -27.5900  -28.3610   20.3870 C   0  0  0  0  0  3  0  0  0  0  0  0
  -26.5380  -26.7110   18.9860 C   0  0  0  0  0  3  0  0  0  0  0  0
  -25.3480  -27.4710   18.9780 C   0  0  0  0  0  3  0  0  0  0  0  0
  -23.9550  -29.4680   19.7490 C   0  0  0  0  0  2  0  0  0  0  0  0
  -24.8230  -30.6440   21.8060 N   0  0  0  0  0  0  0  0  0  0  0  0
  -23.5110  -31.5390   23.4400 O   0  0  0  0  0  0  0  0  0  0  0  0
  -22.9830  -28.8990   22.0110 C   0  0  0  0  0  0  0  0  0  0  0  0
  -21.6700  -28.6640   21.8290 N   0  0  0  0  0  0  0  0  0  0  0  0
  -23.6690  -28.2450   22.8000 O   0  0  0  0  0  0  0  0  0  0  0  0
  -21.1700  -29.2470   21.1730 H   0  0  0  0  0  0  0  0  0  0  0  0
  -18.3450  -27.2660   22.1660 C   0  0  0  0  0  0  0  0  0  0  0  0
  -20.8870  -27.6180   22.4930 C   0  0  0  0  0  3  0  0  0  0  0  0
  -21.0620  -26.2570   21.7790 C   0  0  0  0  0  2  0  0  0  0  0  0
  -19.9870  -25.9850   20.7250 C   0  0  0  0  0  2  0  0  0  0  0  0
  -18.5930  -26.0020   21.3600 C   0  0  0  0  0  2  0  0  0  0  0  0
  -19.4230  -28.0330   22.6850 C   0  0  0  0  0  0  0  0  0  0  0  0
  -19.1380  -29.2160   23.4000 C   0  0  0  0  0  3  0  0  0  0  0  0
  -17.8090  -29.6340   23.6010 C   0  0  0  0  0  3  0  0  0  0  0  0
  -16.7460  -28.8620   23.1010 C   0  0  0  0  0  3  0  0  0  0  0  0
  -17.0160  -27.6800   22.3880 C   0  0  0  0  0  3  0  0  0  0  0  0
  -25.8330  -32.0570   23.6830 C   0  0  0  0  0  3  0  0  0  0  0  0
  -25.4350  -33.4380   23.9990 N   0  0  0  0  0  0  0  0  0  0  0  0
  -25.7750  -34.5160   23.2790 C   0  0  0  0  0  0  0  0  0  0  0  0
  -26.5180  -34.4550   22.2970 O   0  0  0  0  0  0  0  0  0  0  0  0
  -24.7790  -33.5560   24.7560 H   0  0  0  0  0  0  0  0  0  0  0  0
  -23.9890  -36.2360   22.8390 C   0  0  0  0  0  1  0  0  0  0  0  0
  -25.1990  -35.8780   23.7170 C   0  0  0  0  0  3  0  0  0  0  0  0
  -27.2300  -36.8610   24.6870 C   0  0  0  0  0  1  0  0  0  0  0  0
  -26.1870  -36.9790   23.6710 N   0  0  0  0  0  0  0  0  0  0  0  0
  -25.7300  -37.8790   23.7900 H   0  0  0  0  0  0  0  0  0  0  0  0
  -26.2670  -31.2980   24.9960 C   0  0  1  0  0  0  0  0  0  0  0  0
  -25.0950  -31.0210   25.9690 C   0  0  0  0  0  1  0  0  0  0  0  0
  -26.9240  -29.9400   24.6580 C   0  0  0  0  0  1  0  0  0  0  0  0
  -27.3310  -32.1250   25.7530 C   0  0  0  0  0  1  0  0  0  0  0  0
  2  1  1  0
  3  1  1  0
  4  7  1  0
  4  9  1  0
  5  8  1  0
  6 11  1  0
  6  2  2  0
  9 49  1  0
  9  5  1  0
 10 12  1  0
 10  3  1  0
 11  7  1  6
 11 10  1  0
 11  8  1  0
 12 13  1  0
 13 19  1  0
 14 19  1  0
 15 16  1  0
 15 14  1  0
 17 16  1  0
 17 24  1  0
 17 18  1  0
 19 18  1  0
 20 13  2  0
 21 22  2  0
 22 41  1  0
 23 22  1  0
 23 26  1  0
 24 25  1  0
 24 21  1  0
 25 23  2  0
 26 27  1  0
 27 28  2  0
 29 32  1  0
 29 28  1  0
 30 29  2  0
 31 30  1  0
 31 26  2  0
 32 33  1  0
 33 38  2  0
 33 34  1  0
 34 35  2  0
 35 36  1  0
 36 40  1  0
 37 36  2  0
 38 37  1  0
 39 38  1  0
 41 42  1  0
 42 45  1  0
 42 44  1  0
 43 41  2  0
 46 47  1  0
 46 21  1  0
 48 46  1  0
 49 50  1  0
 51 62  2  0
 52 50  1  0
 52 57  1  0
 53 61  1  0
 53 63  1  0
 54 60  1  0
 54 56  1  0
 55 61  1  0
 56 55  1  0
 57 56  2  0
 58 52  2  0
 59 58  1  0
 59 54  2  0
 60 53  1  0
 61 51  1  0
 63 65  2  0
 64 63  1  0
 66 64  1  0
 67 76  2  0
 67 72  1  0
 68 64  1  0
 68 72  1  0
 69 68  1  0
 70 71  1  0
 70 69  1  0
 71 67  1  0
 72 73  2  0
 73 74  1  0
 75 74  2  0
 76 75  1  0
 77 51  1  0
 77 78  1  0
 77 87  1  0
 78 81  1  0
 79 83  1  0
 79 78  1  0
 80 79  2  0
 83 82  1  0
 85 83  1  0
 85 86  1  0
 85 84  1  0
 87 90  1  1
 87 88  1  0
 89 87  1  0
M  ISO  4  12 100  13 100  49 101  50 101
M  END
>  <TORSDO>  (49) 
F 18

>  <SCORE>  (49) 
-12.135

>  <name>  (49) 
48

>  <ligand_id>  (49) 
48

>  <original_smiles>  (49) 
[H]c1c([H])c([H])c2c(c1[H])C([H])([H])C([H])([H])C([H])([H])C2([H])N([H])C(=O)C1([H])N(C(=O)C([H])(N([H])C(=O)C([H])(N([H])C([H])([H])[H])C([H])([H])[H])C(C([H])([H])[H])(C([H])([H])[H])C([H])([H])[H])C([H])([H])c2c([H])c(OC([H])([H])C3([H])C([H])([H])C([H])([H])C4(C([H])([H])C([H])([H])C([H])([H])C([H])([H])C4([H])C([H])([H])C(=O)N4C([H])([H])C([H])([H])C([H])([H])C([H])(n5nc(-c6c([H])c([H])c(Oc7c([H])c([H])c(F)c([H])c7F)c([H])c6[H])c(C(=O)N([H])[H])c5N([H])[H])C4([H])[H])C([H])([H])C3([H])[H])c([H])c([H])c2C1([H])[H]

>  <smiles>  (49) 
[H]c1c([H])c([H])c2c(c1[H])C([H])([H])C([H])([H])C([H])([H])C2([H])N([H])C(=O)C1([H])N(C(=O)C([H])(N([H])C(=O)C([H])(N([H])C([H])([H])[H])C([H])([H])[H])C(C([H])([H])[H])(C([H])([H])[H])C([H])([H])[H])C([H])([H])c2c([H])c(OC([H])([H])C3([H])C([H])([H])C([H])([H])C4(C([H])([H])C([H])([H])C([H])([H])C([H])([H])C4([H])C([H])([H])C(=O)N4C([H])([H])C([H])([H])C([H])([H])C([H])(n5nc(-c6c([H])c([H])c(Oc7c([H])c([H])c(F)c([H])c7F)c([H])c6[H])c(C(=O)N([H])[H])c5N([H])[H])C4([H])[H])C([H])([H])C3([H])[H])c([H])c([H])c2C1([H])[H]

$$$$
49:0:0
     RDKit          3D

 89 97  0  0  1  0  0  0  0  0999 V2000
  -27.6100  -22.7950   21.0580 C   0  0  0  0  0  2  0  0  0  0  0  0
  -27.3720  -24.3170   21.2150 C   0  0  0  0  0  2  0  0  0  0  0  0
  -29.3680  -24.0150   19.9230 C   0  0  0  0  0  2  0  0  0  0  0  0
  -29.0810  -22.6180   20.6320 C   0  0  0  0  0  3  0  0  0  0  0  0
  -28.1290  -24.9860   20.0550 C   0  0  0  0  0  3  0  0  0  0  0  0
  -28.3120  -26.4610   20.2010 O   0  0  0  0  0  0  0  0  0  0  0  0
  -24.6020  -31.8910   23.2330 C   0  0  0  0  0  0  0  0  0  0  0  0
  -27.1900  -27.3150   20.1610 C   0  0  0  0  0  0  0  0  0  0  0  0
  -23.3880  -30.4950   21.6010 C   0  0  0  0  0  3  0  0  0  0  0  0
  -24.8260  -28.9460   20.1650 C   0  0  0  0  0  0  0  0  0  0  0  0
  -25.9290  -30.8050   21.4040 C   0  0  0  0  0  2  0  0  0  0  0  0
  -26.0020  -29.4270   20.7550 C   0  0  0  0  0  0  0  0  0  0  0  0
  -27.1850  -28.6250   20.7410 C   0  0  0  0  0  3  0  0  0  0  0  0
  -25.9850  -26.8970   19.5460 C   0  0  0  0  0  3  0  0  0  0  0  0
  -24.8220  -27.6880   19.5490 C   0  0  0  0  0  3  0  0  0  0  0  0
  -23.5920  -29.8220   20.2190 C   0  0  0  0  0  2  0  0  0  0  0  0
  -24.6580  -31.0810   22.1360 N   0  0  0  0  0  0  0  0  0  0  0  0
  -23.5210  -32.1700   23.7730 O   0  0  0  0  0  0  0  0  0  0  0  0
  -22.7270  -29.4770   22.5620 C   0  0  0  0  0  0  0  0  0  0  0  0
  -21.3990  -29.3050   22.4440 N   0  0  0  0  0  0  0  0  0  0  0  0
  -23.4070  -28.8460   23.3750 O   0  0  0  0  0  0  0  0  0  0  0  0
  -20.9080  -29.8680   21.7630 H   0  0  0  0  0  0  0  0  0  0  0  0
  -18.0200  -28.1190   22.9580 C   0  0  0  0  0  0  0  0  0  0  0  0
  -20.5800  -28.3700   23.2170 C   0  0  0  0  0  3  0  0  0  0  0  0
  -20.6740  -26.9390   22.6430 C   0  0  0  0  0  2  0  0  0  0  0  0
  -19.5680  -26.6180   21.6330 C   0  0  0  0  0  2  0  0  0  0  0  0
  -18.1890  -26.7680   22.2830 C   0  0  0  0  0  2  0  0  0  0  0  0
  -19.1430  -28.8780   23.3820 C   0  0  0  0  0  0  0  0  0  0  0  0
  -18.9290  -30.1430   23.9740 C   0  0  0  0  0  3  0  0  0  0  0  0
  -17.6270  -30.6480   24.1450 C   0  0  0  0  0  3  0  0  0  0  0  0
  -16.5190  -29.8850   23.7360 C   0  0  0  0  0  3  0  0  0  0  0  0
  -16.7170  -28.6230   23.1480 C   0  0  0  0  0  3  0  0  0  0  0  0
  -25.8880  -32.5200   23.8490 C   0  0  0  0  0  3  0  0  0  0  0  0
  -26.4100  -31.7430   25.1200 C   0  0  1  0  0  0  0  0  0  0  0  0
  -25.3230  -31.5060   26.1940 C   0  0  0  0  0  1  0  0  0  0  0  0
  -26.9870  -30.3650   24.7220 C   0  0  0  0  0  1  0  0  0  0  0  0
  -27.5660  -32.5330   25.7790 C   0  0  0  0  0  1  0  0  0  0  0  0
  -25.5820  -33.9170   24.1880 N   0  0  0  0  0  0  0  0  0  0  0  0
  -25.9060  -34.9730   23.4300 C   0  0  0  0  0  0  0  0  0  0  0  0
  -26.5660  -34.8740   22.3920 O   0  0  0  0  0  0  0  0  0  0  0  0
  -25.0000  -34.0690   24.9980 H   0  0  0  0  0  0  0  0  0  0  0  0
  -24.1720  -36.7660   23.0980 C   0  0  0  0  0  1  0  0  0  0  0  0
  -25.4220  -36.3600   23.8960 C   0  0  0  0  0  3  0  0  0  0  0  0
  -27.5650  -37.2420   24.7090 C   0  0  0  0  0  1  0  0  0  0  0  0
  -26.4530  -37.4150   23.7780 N   0  0  0  0  0  0  0  0  0  0  0  0
  -26.0480  -38.3340   23.9330 H   0  0  0  0  0  0  0  0  0  0  0  0
  -29.4020  -21.2590   19.8370 C   0  0  0  0  0  2  0  0  0  0  0  0
  -29.6400  -18.6920   20.0930 C   0  0  0  0  0  0  0  0  0  0  0  0
  -29.6740  -19.9740   20.5940 N   0  0  0  0  0  0  0  0  0  0  0  0
  -29.1150  -18.4720   19.0010 O   0  0  0  0  0  0  0  0  0  0  0  0
  -30.0850  -20.0810   21.5130 H   0  0  0  0  0  0  0  0  0  0  0  0
  -30.3290  -17.4750   20.8380 C   0  0  0  0  0  2  0  0  0  0  0  0
  -29.6770  -16.0080   20.7410 C   0  0  0  0  0  2  0  0  0  0  0  0
  -30.5440  -14.7120   20.4080 C   0  0  0  0  0  0  0  0  0  0  0  0
  -30.3690  -12.4580   19.3530 C   0  0  0  0  0  2  0  0  0  0  0  0
  -29.4210  -12.5680   18.1360 C   0  0  0  0  0  2  0  0  0  0  0  0
  -27.9470  -12.4040   18.5620 C   0  0  0  0  0  2  0  0  0  0  0  0
  -27.5830  -13.2730   19.7950 C   0  0  0  0  0  3  0  0  0  0  0  0
  -28.6420  -13.1260   20.9080 C   0  0  0  0  0  2  0  0  0  0  0  0
  -29.9510  -13.4740   20.3400 N   0  0  0  0  0  0  0  0  0  0  0  0
  -31.7160  -14.8550   20.0440 O   0  0  0  0  0  0  0  0  0  0  0  0
  -25.1940  -13.8800   20.5200 C   0  0  0  0  0  0  0  0  0  0  0  0
  -24.1270  -13.1090   20.8930 C   0  0  0  0  0  0  0  0  0  0  0  0
  -24.5860  -11.7580   20.8690 C   0  0  0  0  0  0  0  0  0  0  0  0
  -26.2360  -12.9950   20.2850 N   0  0  0  0  0  0  0  0  0  0  0  0
  -25.8770  -11.7140   20.5580 N   0  0  0  0  0  0  0  0  0  0  0  0
  -23.8580  -10.4980   21.0660 C   0  0  0  0  0  0  0  0  0  0  0  0
  -24.3050   -9.5220   21.9850 C   0  0  0  0  0  3  0  0  0  0  0  0
  -23.5780   -8.3260   22.1690 C   0  0  0  0  0  3  0  0  0  0  0  0
  -22.3910   -8.0980   21.4330 C   0  0  0  0  0  0  0  0  0  0  0  0
  -21.9640   -9.0610   20.5020 C   0  0  0  0  0  3  0  0  0  0  0  0
  -22.6900  -10.2490   20.3170 C   0  0  0  0  0  3  0  0  0  0  0  0
  -21.6330   -6.9560   21.5280 O   0  0  0  0  0  0  0  0  0  0  0  0
  -21.6180   -6.1950   22.6690 C   0  0  0  0  0  0  0  0  0  0  0  0
  -21.2490   -6.7340   23.9210 C   0  0  0  0  0  3  0  0  0  0  0  0
  -21.1800   -5.9000   25.0540 C   0  0  0  0  0  3  0  0  0  0  0  0
  -21.4700   -4.5270   24.9380 C   0  0  0  0  0  0  0  0  0  0  0  0
  -21.8330   -3.9870   23.6910 C   0  0  0  0  0  3  0  0  0  0  0  0
  -21.9040   -4.8190   22.5600 C   0  0  0  0  0  0  0  0  0  0  0  0
  -22.2320   -4.2890   21.3570 F   0  0  0  0  0  0  0  0  0  0  0  0
  -21.3960   -3.7240   26.0240 F   0  0  0  0  0  0  0  0  0  0  0  0
  -22.7300  -13.5910   21.1640 C   0  0  0  0  0  0  0  0  0  0  0  0
  -22.0010  -12.9010   22.0350 N   0  0  0  0  0  0  0  0  0  0  0  0
  -22.2940  -14.6140   20.6370 O   0  0  0  0  0  0  0  0  0  0  0  0
  -22.3680  -12.0760   22.4870 H   0  0  0  0  0  0  0  0  0  0  0  0
  -21.0630  -13.2060   22.2540 H   0  0  0  0  0  0  0  0  0  0  0  0
  -25.3620  -15.2490   20.3380 N   0  0  0  0  0  0  0  0  0  0  0  0
  -24.5990  -15.9100   20.4450 H   0  0  0  0  0  0  0  0  0  0  0  0
  -26.2200  -15.6850   20.0220 H   0  0  0  0  0  0  0  0  0  0  0  0
  1  2  1  0
  3  5  1  0
  3  4  1  0
  4 47  1  0
  4  1  1  0
  5  6  1  0
  5  2  1  0
  7 18  2  0
  8  6  1  0
  8 13  1  0
  9 17  1  0
  9 19  1  0
 10 16  1  0
 10 12  1  0
 11 17  1  0
 12 11  1  0
 13 12  2  0
 14 15  1  0
 14  8  2  0
 15 10  2  0
 16  9  1  0
 17  7  1  0
 19 21  2  0
 20 19  1  0
 22 20  1  0
 23 32  2  0
 23 28  1  0
 24 20  1  0
 24 28  1  0
 25 24  1  0
 26 27  1  0
 26 25  1  0
 27 23  1  0
 28 29  2  0
 29 30  1  0
 31 30  2  0
 32 31  1  0
 33  7  1  0
 33 38  1  0
 33 34  1  0
 34 37  1  1
 34 35  1  0
 36 34  1  0
 38 41  1  0
 39 43  1  0
 39 38  1  0
 40 39  2  0
 43 42  1  0
 45 43  1  0
 45 46  1  0
 45 44  1  0
 47 49  1  0
 48 49  1  0
 48 52  1  0
 49 51  1  0
 50 48  2  0
 53 52  1  0
 54 53  1  0
 55 60  1  0
 56 57  1  0
 56 55  1  0
 58 57  1  0
 58 65  1  0
 58 59  1  0
 60 54  1  0
 60 59  1  0
 61 54  2  0
 62 63  2  0
 63 82  1  0
 64 63  1  0
 64 67  1  0
 65 62  1  0
 65 66  1  0
 66 64  2  0
 67 68  1  0
 68 69  2  0
 70 73  1  0
 70 69  1  0
 71 70  2  0
 72 71  1  0
 72 67  2  0
 73 74  1  0
 74 75  1  0
 75 76  2  0
 77 76  1  0
 77 81  1  0
 78 77  2  0
 79 74  2  0
 79 78  1  0
 80 79  1  0
 82 83  1  0
 83 86  1  0
 83 85  1  0
 84 82  2  0
 87 88  1  0
 87 62  1  0
 89 87  1  0
M  ISO  4   5 101   6 101  53 100  54 100
M  END
>  <TORSDO>  (50) 
F 20

>  <SCORE>  (50) 
-13.876

>  <name>  (50) 
49

>  <ligand_id>  (50) 
49

>  <original_smiles>  (50) 
[H]c1c([H])c([H])c2c(c1[H])C([H])([H])C([H])([H])C([H])([H])C2([H])N([H])C(=O)C1([H])N(C(=O)C([H])(N([H])C(=O)C([H])(N([H])C([H])([H])[H])C([H])([H])[H])C(C([H])([H])[H])(C([H])([H])[H])C([H])([H])[H])C([H])([H])c2c([H])c(OC3([H])C([H])([H])C([H])([H])C([H])(C([H])([H])N([H])C(=O)C([H])([H])C([H])([H])C(=O)N4C([H])([H])C([H])([H])C([H])([H])C([H])(n5nc(-c6c([H])c([H])c(Oc7c([H])c([H])c(F)c([H])c7F)c([H])c6[H])c(C(=O)N([H])[H])c5N([H])[H])C4([H])[H])C3([H])[H])c([H])c([H])c2C1([H])[H]

>  <smiles>  (50) 
[H]c1c([H])c([H])c2c(c1[H])C([H])([H])C([H])([H])C([H])([H])C2([H])N([H])C(=O)C1([H])N(C(=O)C([H])(N([H])C(=O)C([H])(N([H])C([H])([H])[H])C([H])([H])[H])C(C([H])([H])[H])(C([H])([H])[H])C([H])([H])[H])C([H])([H])c2c([H])c(OC3([H])C([H])([H])C([H])([H])C([H])(C([H])([H])N([H])C(=O)C([H])([H])C([H])([H])C(=O)N4C([H])([H])C([H])([H])C([H])([H])C([H])(n5nc(-c6c([H])c([H])c(Oc7c([H])c([H])c(F)c([H])c7F)c([H])c6[H])c(C(=O)N([H])[H])c5N([H])[H])C4([H])[H])C3([H])[H])c([H])c([H])c2C1([H])[H]

$$$$
50:0:0
     RDKit          3D

 94103  0  0  1  0  0  0  0  0999 V2000
  -29.1300  -20.8560   22.7760 C   0  0  0  0  0  1  0  0  0  0  0  0
  -30.1360  -20.8820   21.6050 C   0  0  0  0  0  3  0  0  0  0  0  0
  -32.3590  -17.8270   19.3710 C   0  0  0  0  0  2  0  0  0  0  0  0
  -32.2690  -18.3870   20.7970 C   0  0  0  0  0  2  0  0  0  0  0  0
  -28.6390  -19.1640   20.2300 C   0  0  0  0  0  2  0  0  0  0  0  0
  -30.9490  -17.3200   19.0240 C   0  0  0  0  0  2  0  0  0  0  0  0
  -28.6980  -17.6210   20.2060 C   0  0  0  0  0  2  0  0  0  0  0  0
  -30.7730  -18.3970   21.1410 C   0  0  0  0  0  3  0  0  0  0  0  0
  -30.0420  -19.6670   20.6270 C   0  0  0  0  0  3  0  0  0  0  0  0
  -30.1750  -17.2010   20.3680 C   0  0  2  0  0  0  0  0  0  0  0  0
  -30.3430  -15.8330   21.1610 C   0  0  0  0  0  2  0  0  0  0  0  0
  -30.8500  -14.5780   20.3980 C   0  0  0  0  0  0  0  0  0  0  0  0
  -30.4670  -12.4470   19.2120 C   0  0  0  0  0  2  0  0  0  0  0  0
  -29.5390  -12.6870   18.0050 C   0  0  0  0  0  2  0  0  0  0  0  0
  -28.0660  -12.5540   18.4320 C   0  0  0  0  0  2  0  0  0  0  0  0
  -27.7350  -13.3770   19.7070 C   0  0  0  0  0  3  0  0  0  0  0  0
  -28.7890  -13.1510   20.8110 C   0  0  0  0  0  2  0  0  0  0  0  0
  -30.1170  -13.4360   20.2470 N   0  0  0  0  0  0  0  0  0  0  0  0
  -31.9700  -14.6690   19.8950 O   0  0  0  0  0  0  0  0  0  0  0  0
  -25.3280  -13.9700   20.3930 C   0  0  0  0  0  0  0  0  0  0  0  0
  -24.2620  -13.1960   20.7660 C   0  0  0  0  0  0  0  0  0  0  0  0
  -24.7340  -11.8470   20.7590 C   0  0  0  0  0  0  0  0  0  0  0  0
  -26.3820  -13.0960   20.1830 N   0  0  0  0  0  0  0  0  0  0  0  0
  -26.0260  -11.8140   20.4600 N   0  0  0  0  0  0  0  0  0  0  0  0
  -24.0140  -10.5820   20.9620 C   0  0  0  0  0  0  0  0  0  0  0  0
  -24.4430   -9.6320   21.9160 C   0  0  0  0  0  3  0  0  0  0  0  0
  -23.7210   -8.4330   22.1070 C   0  0  0  0  0  3  0  0  0  0  0  0
  -22.5580   -8.1760   21.3450 C   0  0  0  0  0  0  0  0  0  0  0  0
  -22.1490   -9.1140   20.3820 C   0  0  0  0  0  3  0  0  0  0  0  0
  -22.8700  -10.3040   20.1880 C   0  0  0  0  0  3  0  0  0  0  0  0
  -21.8120   -7.0270   21.4430 O   0  0  0  0  0  0  0  0  0  0  0  0
  -21.7510   -6.3040   22.6080 C   0  0  0  0  0  0  0  0  0  0  0  0
  -21.3080   -6.8800   23.8190 C   0  0  0  0  0  3  0  0  0  0  0  0
  -21.1950   -6.0850   24.9770 C   0  0  0  0  0  3  0  0  0  0  0  0
  -21.5170   -4.7150   24.9260 C   0  0  0  0  0  0  0  0  0  0  0  0
  -21.9530   -4.1390   23.7200 C   0  0  0  0  0  3  0  0  0  0  0  0
  -22.0670   -4.9310   22.5640 C   0  0  0  0  0  0  0  0  0  0  0  0
  -22.4680   -4.3670   21.3990 F   0  0  0  0  0  0  0  0  0  0  0  0
  -21.4010   -3.9480   26.0350 F   0  0  0  0  0  0  0  0  0  0  0  0
  -22.8590  -13.6670   21.0230 C   0  0  0  0  0  0  0  0  0  0  0  0
  -22.1340  -12.9810   21.8980 N   0  0  0  0  0  0  0  0  0  0  0  0
  -22.4170  -14.6820   20.4850 O   0  0  0  0  0  0  0  0  0  0  0  0
  -22.5040  -12.1590   22.3550 H   0  0  0  0  0  0  0  0  0  0  0  0
  -21.1930  -13.2800   22.1150 H   0  0  0  0  0  0  0  0  0  0  0  0
  -25.4840  -15.3390   20.1960 N   0  0  0  0  0  0  0  0  0  0  0  0
  -24.7150  -15.9920   20.2950 H   0  0  0  0  0  0  0  0  0  0  0  0
  -26.3420  -15.7810   19.8910 H   0  0  0  0  0  0  0  0  0  0  0  0
  -30.3010  -22.2120   20.9420 N   0  0  0  0  0  4  0  0  0  0  0  0
  -30.8000  -22.7900   21.5990 H   0  0  0  0  0  0  0  0  0  0  0  0
  -30.9130  -22.1040   20.1490 H   0  0  0  0  0  0  0  0  0  0  0  0
  -29.1060  -22.9900   20.5180 C   0  0  0  0  0  2  0  0  0  0  0  0
  -29.4100  -24.5120   20.4350 C   0  0  0  0  0  2  0  0  0  0  0  0
  -28.2050  -25.3410   19.9560 C   0  0  0  0  0  2  0  0  0  0  0  0
  -28.3790  -26.7630   20.1100 O   0  0  0  0  0  0  0  0  0  0  0  0
  -24.5880  -31.9350   23.2350 C   0  0  0  0  0  0  0  0  0  0  0  0
  -27.2200  -27.5170   20.0910 C   0  0  0  0  0  0  0  0  0  0  0  0
  -23.3810  -30.5500   21.5840 C   0  0  0  0  0  3  0  0  0  0  0  0
  -24.8280  -29.0380   20.1340 C   0  0  0  0  0  0  0  0  0  0  0  0
  -25.9090  -30.9110   21.3830 C   0  0  0  0  0  2  0  0  0  0  0  0
  -25.9920  -29.5480   20.7210 C   0  0  0  0  0  0  0  0  0  0  0  0
  -27.1920  -28.7970   20.6940 C   0  0  0  0  0  3  0  0  0  0  0  0
  -26.0340  -27.0350   19.4830 C   0  0  0  0  0  3  0  0  0  0  0  0
  -24.8460  -27.7820   19.5090 C   0  0  0  0  0  3  0  0  0  0  0  0
  -23.5860  -29.8960   20.1940 C   0  0  0  0  0  2  0  0  0  0  0  0
  -24.6440  -31.1460   22.1250 N   0  0  0  0  0  0  0  0  0  0  0  0
  -23.5070  -32.1970   23.7800 O   0  0  0  0  0  0  0  0  0  0  0  0
  -22.7350  -29.5130   22.5330 C   0  0  0  0  0  0  0  0  0  0  0  0
  -21.4120  -29.3220   22.4020 N   0  0  0  0  0  0  0  0  0  0  0  0
  -23.4220  -28.8820   23.3420 O   0  0  0  0  0  0  0  0  0  0  0  0
  -20.9190  -29.8810   21.7220 H   0  0  0  0  0  0  0  0  0  0  0  0
  -18.0450  -28.1000   22.8850 C   0  0  0  0  0  0  0  0  0  0  0  0
  -20.6010  -28.3720   23.1640 C   0  0  0  0  0  3  0  0  0  0  0  0
  -20.7140  -26.9450   22.5770 C   0  0  0  0  0  2  0  0  0  0  0  0
  -19.6150  -26.6230   21.5580 C   0  0  0  0  0  2  0  0  0  0  0  0
  -18.2310  -26.7570   22.2000 C   0  0  0  0  0  2  0  0  0  0  0  0
  -19.1570  -28.8660   23.3230 C   0  0  0  0  0  0  0  0  0  0  0  0
  -18.9300  -30.1240   23.9210 C   0  0  0  0  0  3  0  0  0  0  0  0
  -17.6220  -30.6190   24.0840 C   0  0  0  0  0  3  0  0  0  0  0  0
  -16.5240  -29.8500   23.6610 C   0  0  0  0  0  3  0  0  0  0  0  0
  -16.7350  -28.5910   23.0690 C   0  0  0  0  0  3  0  0  0  0  0  0
  -25.8740  -32.5630   23.8570 C   0  0  0  0  0  3  0  0  0  0  0  0
  -25.5670  -33.9610   24.1890 N   0  0  0  0  0  0  0  0  0  0  0  0
  -25.9060  -35.0120   23.4330 C   0  0  0  0  0  0  0  0  0  0  0  0
  -26.5800  -34.9090   22.4040 O   0  0  0  0  0  0  0  0  0  0  0  0
  -24.9730  -34.1170   24.9910 H   0  0  0  0  0  0  0  0  0  0  0  0
  -24.1860  -36.8080   23.0630 C   0  0  0  0  0  1  0  0  0  0  0  0
  -25.4180  -36.4010   23.8880 C   0  0  0  0  0  3  0  0  0  0  0  0
  -27.5470  -37.2740   24.7430 C   0  0  0  0  0  1  0  0  0  0  0  0
  -26.4550  -37.4510   23.7880 N   0  0  0  0  0  0  0  0  0  0  0  0
  -26.0530  -38.3730   23.9340 H   0  0  0  0  0  0  0  0  0  0  0  0
  -26.3890  -31.7880   25.1310 C   0  0  1  0  0  0  0  0  0  0  0  0
  -25.2960  -31.5470   26.1990 C   0  0  0  0  0  1  0  0  0  0  0  0
  -26.9700  -30.4120   24.7300 C   0  0  0  0  0  1  0  0  0  0  0  0
  -27.5410  -32.5780   25.7950 C   0  0  0  0  0  1  0  0  0  0  0  0
  2  1  1  0
  3  4  1  0
  5  9  1  0
  6  3  1  0
  6 10  1  0
  7  5  1  0
  7 10  1  0
  8  4  1  0
  9  8  1  0
  9  2  1  0
 10  8  1  0
 10 11  1  1
 12 11  1  0
 13 18  1  0
 14 15  1  0
 14 13  1  0
 16 15  1  0
 16 23  1  0
 16 17  1  0
 18 12  1  0
 18 17  1  0
 19 12  2  0
 20 21  2  0
 21 40  1  0
 22 21  1  0
 22 25  1  0
 23 20  1  0
 23 24  1  0
 24 22  2  0
 25 26  1  0
 26 27  2  0
 28 31  1  0
 28 27  1  0
 29 28  2  0
 30 29  1  0
 30 25  2  0
 31 32  1  0
 32 33  1  0
 33 34  2  0
 35 34  1  0
 35 39  1  0
 36 35  2  0
 37 32  2  0
 37 36  1  0
 38 37  1  0
 40 41  1  0
 41 44  1  0
 41 43  1  0
 42 40  2  0
 45 46  1  0
 45 20  1  0
 47 45  1  0
 48 49  1  0
 48  2  1  0
 50 48  1  0
 51 48  1  0
 52 51  1  0
 53 54  1  0
 53 52  1  0
 55 66  2  0
 56 54  1  0
 56 61  1  0
 57 65  1  0
 57 67  1  0
 58 64  1  0
 58 60  1  0
 59 65  1  0
 60 59  1  0
 61 60  2  0
 62 63  1  0
 62 56  2  0
 63 58  2  0
 64 57  1  0
 65 55  1  0
 67 69  2  0
 68 67  1  0
 70 68  1  0
 71 80  2  0
 71 76  1  0
 72 68  1  0
 72 76  1  0
 73 72  1  0
 74 75  1  0
 74 73  1  0
 75 71  1  0
 76 77  2  0
 77 78  1  0
 79 78  2  0
 80 79  1  0
 81 55  1  0
 81 82  1  0
 81 91  1  0
 82 85  1  0
 83 87  1  0
 83 82  1  0
 84 83  2  0
 87 86  1  0
 89 87  1  0
 89 90  1  0
 89 88  1  0
 91 94  1  1
 91 92  1  0
 93 91  1  0
M  ISO  4  11 100  12 100  53 101  54 101
M  END
>  <TORSDO>  (51) 
F 22

>  <SCORE>  (51) 
-12.708

>  <name>  (51) 
50

>  <ligand_id>  (51) 
50

>  <original_smiles>  (51) 
[H]c1c([H])c([H])c2c(c1[H])C([H])([H])C([H])([H])C([H])([H])C2([H])N([H])C(=O)C1([H])N(C(=O)C([H])(N([H])C(=O)C([H])(N([H])C([H])([H])[H])C([H])([H])[H])C(C([H])([H])[H])(C([H])([H])[H])C([H])([H])[H])C([H])([H])c2c([H])c(OC([H])([H])C([H])([H])C([H])([H])[N+]([H])([H])C([H])(C([H])([H])[H])C3([H])C([H])([H])C([H])([H])C4(C([H])([H])C(=O)N5C([H])([H])C([H])([H])C([H])([H])C([H])(n6nc(-c7c([H])c([H])c(Oc8c([H])c([H])c(F)c([H])c8F)c([H])c7[H])c(C(=O)N([H])[H])c6N([H])[H])C5([H])[H])C([H])([H])C([H])([H])C([H])([H])C34[H])c([H])c([H])c2C1([H])[H]

>  <smiles>  (51) 
[H]c1c([H])c([H])c2c(c1[H])C([H])([H])C([H])([H])C([H])([H])C2([H])N([H])C(=O)C1([H])N(C(=O)C([H])(N([H])C(=O)C([H])(N([H])C([H])([H])[H])C([H])([H])[H])C(C([H])([H])[H])(C([H])([H])[H])C([H])([H])[H])C([H])([H])c2c([H])c(OC([H])([H])C([H])([H])C([H])([H])[N+]([H])([H])C([H])(C([H])([H])[H])C3([H])C([H])([H])C([H])([H])C4(C([H])([H])C(=O)N5C([H])([H])C([H])([H])C([H])([H])C([H])(n6nc(-c7c([H])c([H])c(Oc8c([H])c([H])c(F)c([H])c8F)c([H])c7[H])c(C(=O)N([H])[H])c6N([H])[H])C5([H])[H])C([H])([H])C([H])([H])C([H])([H])C34[H])c([H])c([H])c2C1([H])[H]

$$$$
51:0:0
     RDKit          3D

 90 99  0  0  1  0  0  0  0  0999 V2000
  -28.9190  -21.5310   22.5620 C   0  0  0  0  0  2  0  0  0  0  0  0
  -29.2570  -22.8580   21.8150 C   0  0  0  0  0  2  0  0  0  0  0  0
  -29.7530  -20.2560   22.2090 C   0  0  0  0  0  2  0  0  0  0  0  0
  -29.5200  -21.2340   19.7780 C   0  0  0  0  0  3  0  0  0  0  0  0
  -28.8310  -22.8080   20.3300 C   0  0  0  0  0  3  0  0  0  0  0  0
  -30.0280  -18.7820   19.8930 C   0  0  0  0  0  3  0  0  0  0  0  0
  -30.3070  -20.1790   20.7580 C   0  0  2  0  0  0  0  0  0  0  0  0
  -28.8150  -19.7900   19.3730 C   0  0  2  0  0  0  0  0  0  0  0  0
  -31.8060  -20.4970   20.8730 C   0  0  0  0  0  1  0  0  0  0  0  0
  -28.5300  -19.6810   17.8660 C   0  0  0  0  0  1  0  0  0  0  0  0
  -27.4450  -19.5330   20.0360 C   0  0  0  0  0  1  0  0  0  0  0  0
  -29.9530  -17.0240   20.3800 C   0  0  0  0  0  2  0  0  0  0  0  0
  -30.7940  -15.5070   20.0250 C   0  0  0  0  0  0  0  0  0  0  0  0
  -30.7970  -13.0430   19.1630 C   0  0  0  0  0  2  0  0  0  0  0  0
  -29.8330  -12.8370   17.9640 C   0  0  0  0  0  2  0  0  0  0  0  0
  -28.3980  -12.5670   18.4500 C   0  0  0  0  0  2  0  0  0  0  0  0
  -27.9890  -13.5290   19.5880 C   0  0  0  0  0  3  0  0  0  0  0  0
  -29.0680  -13.6660   20.6800 C   0  0  0  0  0  2  0  0  0  0  0  0
  -30.2860  -14.1720   20.0270 N   0  0  0  0  0  0  0  0  0  0  0  0
  -31.9850  -15.5310   19.6740 O   0  0  0  0  0  0  0  0  0  0  0  0
  -25.6670  -14.1050   20.4680 C   0  0  0  0  0  0  0  0  0  0  0  0
  -24.6060  -13.3360   20.8500 C   0  0  0  0  0  0  0  0  0  0  0  0
  -25.0390  -11.9790   20.7370 C   0  0  0  0  0  0  0  0  0  0  0  0
  -26.6780  -13.2190   20.1410 N   0  0  0  0  0  0  0  0  0  0  0  0
  -26.3150  -11.9310   20.3690 N   0  0  0  0  0  0  0  0  0  0  0  0
  -24.2940  -10.7260   20.9020 C   0  0  0  0  0  0  0  0  0  0  0  0
  -24.7000   -9.7390   21.8250 C   0  0  0  0  0  3  0  0  0  0  0  0
  -23.9540   -8.5500   21.9820 C   0  0  0  0  0  3  0  0  0  0  0  0
  -22.7860   -8.3410   21.2110 C   0  0  0  0  0  0  0  0  0  0  0  0
  -22.3970   -9.3160   20.2750 C   0  0  0  0  0  3  0  0  0  0  0  0
  -23.1450  -10.4940   20.1170 C   0  0  0  0  0  3  0  0  0  0  0  0
  -22.0110   -7.2060   21.2750 O   0  0  0  0  0  0  0  0  0  0  0  0
  -21.8440   -6.5150   22.4490 C   0  0  0  0  0  0  0  0  0  0  0  0
  -21.2720   -7.1160   23.5930 C   0  0  0  0  0  3  0  0  0  0  0  0
  -21.0530   -6.3500   24.7550 C   0  0  0  0  0  3  0  0  0  0  0  0
  -21.3940   -4.9830   24.7720 C   0  0  0  0  0  0  0  0  0  0  0  0
  -21.9590   -4.3840   23.6340 C   0  0  0  0  0  3  0  0  0  0  0  0
  -22.1780   -5.1470   22.4740 C   0  0  0  0  0  0  0  0  0  0  0  0
  -22.7000   -4.5580   21.3690 F   0  0  0  0  0  0  0  0  0  0  0  0
  -21.1790   -4.2450   25.8870 F   0  0  0  0  0  0  0  0  0  0  0  0
  -23.2330  -13.8270   21.2040 C   0  0  0  0  0  0  0  0  0  0  0  0
  -22.5340  -13.1150   22.0820 N   0  0  0  0  0  0  0  0  0  0  0  0
  -22.7930  -14.8790   20.7410 O   0  0  0  0  0  0  0  0  0  0  0  0
  -22.9070  -12.2600   22.4660 H   0  0  0  0  0  0  0  0  0  0  0  0
  -21.6200  -13.4260   22.3720 H   0  0  0  0  0  0  0  0  0  0  0  0
  -25.8550  -15.4790   20.3470 N   0  0  0  0  0  0  0  0  0  0  0  0
  -25.1060  -16.1430   20.5170 H   0  0  0  0  0  0  0  0  0  0  0  0
  -26.7040  -15.9170   20.0160 H   0  0  0  0  0  0  0  0  0  0  0  0
  -28.7380  -24.4730   19.5980 C   0  0  0  0  0  2  0  0  0  0  0  0
  -28.5760  -26.0530   20.0780 O   0  0  0  0  0  0  0  0  0  0  0  0
  -24.6410  -31.7200   23.0600 C   0  0  0  0  0  0  0  0  0  0  0  0
  -27.4970  -27.0820   19.9510 C   0  0  0  0  0  0  0  0  0  0  0  0
  -23.5430  -30.3170   21.3560 C   0  0  0  0  0  3  0  0  0  0  0  0
  -25.0950  -28.8330   19.9060 C   0  0  0  0  0  0  0  0  0  0  0  0
  -26.0920  -30.6770   21.2530 C   0  0  0  0  0  2  0  0  0  0  0  0
  -26.2470  -29.2890   20.5590 C   0  0  0  0  0  0  0  0  0  0  0  0
  -27.4370  -28.4340   20.5580 C   0  0  0  0  0  3  0  0  0  0  0  0
  -26.3130  -26.7800   19.2420 C   0  0  0  0  0  3  0  0  0  0  0  0
  -25.1540  -27.6040   19.2250 C   0  0  0  0  0  3  0  0  0  0  0  0
  -23.8270  -29.6860   19.9610 C   0  0  0  0  0  2  0  0  0  0  0  0
  -24.7770  -30.9340   21.9440 N   0  0  0  0  0  0  0  0  0  0  0  0
  -23.5300  -31.9310   23.5770 O   0  0  0  0  0  0  0  0  0  0  0  0
  -22.8880  -29.2600   22.2840 C   0  0  0  0  0  0  0  0  0  0  0  0
  -21.5630  -29.0530   22.1580 N   0  0  0  0  0  0  0  0  0  0  0  0
  -23.5800  -28.6290   23.0860 O   0  0  0  0  0  0  0  0  0  0  0  0
  -21.0570  -29.6190   21.4910 H   0  0  0  0  0  0  0  0  0  0  0  0
  -18.2210  -27.7270   22.6510 C   0  0  0  0  0  0  0  0  0  0  0  0
  -20.7770  -28.0560   22.8930 C   0  0  0  0  0  3  0  0  0  0  0  0
  -20.9110  -26.6570   22.2500 C   0  0  0  0  0  2  0  0  0  0  0  0
  -19.8060  -26.3510   21.2350 C   0  0  0  0  0  2  0  0  0  0  0  0
  -18.4260  -26.4240   21.8970 C   0  0  0  0  0  2  0  0  0  0  0  0
  -19.3230  -28.5020   23.1000 C   0  0  0  0  0  0  0  0  0  0  0  0
  -19.0720  -29.7220   23.7660 C   0  0  0  0  0  3  0  0  0  0  0  0
  -17.7540  -30.1680   23.9830 C   0  0  0  0  0  3  0  0  0  0  0  0
  -16.6670  -29.3910   23.5440 C   0  0  0  0  0  3  0  0  0  0  0  0
  -16.9010  -28.1720   22.8850 C   0  0  0  0  0  3  0  0  0  0  0  0
  -25.8680  -32.4090   23.7310 C   0  0  0  0  0  3  0  0  0  0  0  0
  -25.4900  -33.7930   24.0650 N   0  0  0  0  0  0  0  0  0  0  0  0
  -25.8070  -34.8740   23.3390 C   0  0  0  0  0  0  0  0  0  0  0  0
  -26.5110  -34.8140   22.3300 O   0  0  0  0  0  0  0  0  0  0  0  0
  -24.8830  -33.9170   24.8610 H   0  0  0  0  0  0  0  0  0  0  0  0
  -24.0310  -36.6120   22.9520 C   0  0  0  0  0  1  0  0  0  0  0  0
  -25.2520  -36.2350   23.8070 C   0  0  0  0  0  3  0  0  0  0  0  0
  -27.3120  -37.1740   24.7530 C   0  0  0  0  0  1  0  0  0  0  0  0
  -26.2470  -37.3280   23.7650 N   0  0  0  0  0  0  0  0  0  0  0  0
  -25.7970  -38.2260   23.9220 H   0  0  0  0  0  0  0  0  0  0  0  0
  -26.3650  -31.6630   25.0290 C   0  0  1  0  0  0  0  0  0  0  0  0
  -25.2400  -31.3770   26.0500 C   0  0  0  0  0  1  0  0  0  0  0  0
  -27.0280  -30.3160   24.6680 C   0  0  0  0  0  1  0  0  0  0  0  0
  -27.4490  -32.5080   25.7400 C   0  0  0  0  0  1  0  0  0  0  0  0
  2  1  1  0
  3  1  1  0
  4  8  1  0
  4  5  1  0
  4  7  1  0
  5 49  1  0
  5  2  1  0
  6 12  1  0
  6  7  1  0
  7  9  1  1
  7  3  1  0
  8  6  1  0
  8 11  1  1
 10  8  1  0
 13 19  1  0
 13 12  1  0
 14 19  1  0
 15 16  1  0
 15 14  1  0
 17 16  1  0
 17 24  1  0
 17 18  1  0
 19 18  1  0
 20 13  2  0
 21 22  2  0
 22 41  1  0
 23 22  1  0
 23 26  1  0
 24 25  1  0
 24 21  1  0
 25 23  2  0
 26 27  1  0
 27 28  2  0
 29 32  1  0
 29 28  1  0
 30 29  2  0
 31 30  1  0
 31 26  2  0
 32 33  1  0
 33 38  2  0
 33 34  1  0
 34 35  2  0
 35 36  1  0
 36 40  1  0
 37 36  2  0
 38 37  1  0
 39 38  1  0
 41 42  1  0
 42 45  1  0
 42 44  1  0
 43 41  2  0
 46 21  1  0
 46 47  1  0
 48 46  1  0
 49 50  1  0
 51 62  2  0
 52 50  1  0
 52 57  1  0
 53 61  1  0
 53 63  1  0
 54 60  1  0
 54 56  1  0
 55 61  1  0
 56 55  1  0
 57 56  2  0
 58 52  2  0
 59 58  1  0
 59 54  2  0
 60 53  1  0
 61 51  1  0
 63 65  2  0
 64 63  1  0
 66 64  1  0
 67 76  2  0
 67 72  1  0
 68 64  1  0
 68 72  1  0
 69 68  1  0
 70 71  1  0
 70 69  1  0
 71 67  1  0
 72 73  2  0
 73 74  1  0
 75 74  2  0
 76 75  1  0
 77 51  1  0
 77 78  1  0
 77 87  1  0
 78 81  1  0
 79 83  1  0
 79 78  1  0
 80 79  2  0
 83 82  1  0
 85 83  1  0
 85 86  1  0
 85 84  1  0
 87 90  1  1
 87 88  1  0
 89 87  1  0
M  ISO  4  12 100  13 100  49 101  50 101
M  END
>  <TORSDO>  (52) 
F 18

>  <SCORE>  (52) 
-15.189

>  <name>  (52) 
51

>  <ligand_id>  (52) 
51

>  <original_smiles>  (52) 
[H]c1c([H])c([H])c2c(c1[H])C([H])([H])C([H])([H])C([H])([H])C2([H])N([H])C(=O)C1([H])N(C(=O)C([H])(N([H])C(=O)C([H])(N([H])C([H])([H])[H])C([H])([H])[H])C(C([H])([H])[H])(C([H])([H])[H])C([H])([H])[H])C([H])([H])c2c([H])c(OC([H])([H])C3([H])C([H])([H])C([H])([H])C([H])([H])C4(C([H])([H])[H])C([H])(C([H])([H])C(=O)N5C([H])([H])C([H])([H])C([H])([H])C([H])(n6nc(-c7c([H])c([H])c(Oc8c([H])c([H])c(F)c([H])c8F)c([H])c7[H])c(C(=O)N([H])[H])c6N([H])[H])C5([H])[H])C(C([H])([H])[H])(C([H])([H])[H])C34[H])c([H])c([H])c2C1([H])[H]

>  <smiles>  (52) 
[H]c1c([H])c([H])c2c(c1[H])C([H])([H])C([H])([H])C([H])([H])C2([H])N([H])C(=O)C1([H])N(C(=O)C([H])(N([H])C(=O)C([H])(N([H])C([H])([H])[H])C([H])([H])[H])C(C([H])([H])[H])(C([H])([H])[H])C([H])([H])[H])C([H])([H])c2c([H])c(OC([H])([H])C3([H])C([H])([H])C([H])([H])C([H])([H])C4(C([H])([H])[H])C([H])(C([H])([H])C(=O)N5C([H])([H])C([H])([H])C([H])([H])C([H])(n6nc(-c7c([H])c([H])c(Oc8c([H])c([H])c(F)c([H])c8F)c([H])c7[H])c(C(=O)N([H])[H])c6N([H])[H])C5([H])[H])C(C([H])([H])[H])(C([H])([H])[H])C34[H])c([H])c([H])c2C1([H])[H]

$$$$
52:0:0
     RDKit          3D

 85 93  0  0  1  0  0  0  0  0999 V2000
  -28.4210  -22.3080   20.5610 C   0  0  0  0  0  2  0  0  0  0  0  0
  -30.3210  -19.7140   18.1120 C   0  0  0  0  0  2  0  0  0  0  0  0
  -29.2600  -18.6920   18.5090 C   0  0  0  0  0  2  0  0  0  0  0  0
  -29.8610  -21.0230   18.7460 C   0  0  0  0  0  2  0  0  0  0  0  0
  -29.1080  -18.8360   20.0270 C   0  0  0  0  0  3  0  0  0  0  0  0
  -29.3410  -20.7170   20.1610 C   0  0  0  0  0  3  0  0  0  0  0  0
  -29.7430  -17.1900   20.7090 C   0  0  0  0  0  2  0  0  0  0  0  0
  -30.3520  -15.5300   20.2230 C   0  0  0  0  0  0  0  0  0  0  0  0
  -30.3780  -13.0110   19.4000 C   0  0  0  0  0  2  0  0  0  0  0  0
  -29.4850  -12.7430   18.1570 C   0  0  0  0  0  2  0  0  0  0  0  0
  -28.0440  -12.4300   18.5850 C   0  0  0  0  0  2  0  0  0  0  0  0
  -27.5660  -13.3960   19.6950 C   0  0  0  0  0  3  0  0  0  0  0  0
  -28.5970  -13.6210   20.8260 C   0  0  0  0  0  2  0  0  0  0  0  0
  -29.8180  -14.1780   20.2100 N   0  0  0  0  0  0  0  0  0  0  0  0
  -31.5410  -15.4640   19.8670 O   0  0  0  0  0  0  0  0  0  0  0  0
  -25.1950  -13.9310   20.4400 C   0  0  0  0  0  0  0  0  0  0  0  0
  -24.1360  -13.1510   20.8050 C   0  0  0  0  0  0  0  0  0  0  0  0
  -24.6090  -11.8010   20.7820 C   0  0  0  0  0  0  0  0  0  0  0  0
  -26.2420  -13.0610   20.2020 N   0  0  0  0  0  0  0  0  0  0  0  0
  -25.9040  -11.7720   20.4780 N   0  0  0  0  0  0  0  0  0  0  0  0
  -23.8850  -10.5380   20.9760 C   0  0  0  0  0  0  0  0  0  0  0  0
  -24.3080   -9.5770   21.9200 C   0  0  0  0  0  3  0  0  0  0  0  0
  -23.5770   -8.3850   22.1060 C   0  0  0  0  0  3  0  0  0  0  0  0
  -22.4080   -8.1430   21.3450 C   0  0  0  0  0  0  0  0  0  0  0  0
  -22.0020   -9.0920   20.3900 C   0  0  0  0  0  3  0  0  0  0  0  0
  -22.7350  -10.2770   20.2040 C   0  0  0  0  0  3  0  0  0  0  0  0
  -21.6510   -6.9990   21.4350 O   0  0  0  0  0  0  0  0  0  0  0  0
  -21.5910   -6.2660   22.5930 C   0  0  0  0  0  0  0  0  0  0  0  0
  -21.1520   -6.8320   23.8100 C   0  0  0  0  0  3  0  0  0  0  0  0
  -21.0370   -6.0280   24.9610 C   0  0  0  0  0  3  0  0  0  0  0  0
  -21.3510   -4.6570   24.8960 C   0  0  0  0  0  0  0  0  0  0  0  0
  -21.7800   -4.0880   23.6820 C   0  0  0  0  0  3  0  0  0  0  0  0
  -21.8960   -4.8910   22.5340 C   0  0  0  0  0  0  0  0  0  0  0  0
  -22.2910   -4.3340   21.3640 F   0  0  0  0  0  0  0  0  0  0  0  0
  -21.2330   -3.8810   25.9980 F   0  0  0  0  0  0  0  0  0  0  0  0
  -22.7370  -13.6270   21.0620 C   0  0  0  0  0  0  0  0  0  0  0  0
  -22.0010  -12.9290   21.9170 N   0  0  0  0  0  0  0  0  0  0  0  0
  -22.3060  -14.6560   20.5420 O   0  0  0  0  0  0  0  0  0  0  0  0
  -22.3660  -12.0980   22.3580 H   0  0  0  0  0  0  0  0  0  0  0  0
  -21.0620  -13.2300   22.1360 H   0  0  0  0  0  0  0  0  0  0  0  0
  -25.3490  -15.3030   20.2560 N   0  0  0  0  0  0  0  0  0  0  0  0
  -24.5720  -15.9490   20.3620 H   0  0  0  0  0  0  0  0  0  0  0  0
  -26.1960  -15.7510   19.9290 H   0  0  0  0  0  0  0  0  0  0  0  0
  -28.2620  -24.0720   19.9150 C   0  0  0  0  0  2  0  0  0  0  0  0
  -28.1720  -25.7080   20.4020 O   0  0  0  0  0  0  0  0  0  0  0  0
  -24.6400  -31.8590   23.1970 C   0  0  0  0  0  0  0  0  0  0  0  0
  -27.1870  -26.8590   20.2430 C   0  0  0  0  0  0  0  0  0  0  0  0
  -23.4560  -30.4540   21.5590 C   0  0  0  0  0  3  0  0  0  0  0  0
  -24.9100  -28.8200   20.1490 C   0  0  0  0  0  0  0  0  0  0  0  0
  -26.0280  -30.6250   21.4420 C   0  0  0  0  0  2  0  0  0  0  0  0
  -26.0930  -29.2000   20.7930 C   0  0  0  0  0  0  0  0  0  0  0  0
  -27.2160  -28.2420   20.8140 C   0  0  0  0  0  3  0  0  0  0  0  0
  -25.9790  -26.6600   19.5340 C   0  0  0  0  0  3  0  0  0  0  0  0
  -24.8860  -27.5740   19.4940 C   0  0  0  0  0  3  0  0  0  0  0  0
  -23.6960  -29.7540   20.1890 C   0  0  0  0  0  2  0  0  0  0  0  0
  -24.7310  -31.0110   22.1190 N   0  0  0  0  0  0  0  0  0  0  0  0
  -23.5450  -32.1630   23.7020 O   0  0  0  0  0  0  0  0  0  0  0  0
  -22.7420  -29.4770   22.5300 C   0  0  0  0  0  0  0  0  0  0  0  0
  -21.4100  -29.3360   22.4060 N   0  0  0  0  0  0  0  0  0  0  0  0
  -23.3960  -28.8470   23.3640 O   0  0  0  0  0  0  0  0  0  0  0  0
  -20.9350  -29.8940   21.7100 H   0  0  0  0  0  0  0  0  0  0  0  0
  -18.0070  -28.1720   22.9260 C   0  0  0  0  0  0  0  0  0  0  0  0
  -20.5720  -28.4100   23.1760 C   0  0  0  0  0  3  0  0  0  0  0  0
  -20.6530  -26.9790   22.5990 C   0  0  0  0  0  2  0  0  0  0  0  0
  -19.5460  -26.6710   21.5880 C   0  0  0  0  0  2  0  0  0  0  0  0
  -18.1680  -26.8270   22.2380 C   0  0  0  0  0  2  0  0  0  0  0  0
  -19.1360  -28.9230   23.3500 C   0  0  0  0  0  0  0  0  0  0  0  0
  -18.9310  -30.1810   23.9580 C   0  0  0  0  0  3  0  0  0  0  0  0
  -17.6320  -30.6910   24.1400 C   0  0  0  0  0  3  0  0  0  0  0  0
  -16.5190  -29.9400   23.7290 C   0  0  0  0  0  3  0  0  0  0  0  0
  -16.7060  -28.6810   23.1280 C   0  0  0  0  0  3  0  0  0  0  0  0
  -25.9050  -32.5030   23.8430 C   0  0  0  0  0  3  0  0  0  0  0  0
  -26.3960  -31.7430   25.1380 C   0  0  1  0  0  0  0  0  0  0  0  0
  -25.2870  -31.5190   26.1930 C   0  0  0  0  0  1  0  0  0  0  0  0
  -26.9800  -30.3590   24.7780 C   0  0  0  0  0  1  0  0  0  0  0  0
  -27.5420  -32.5400   25.8070 C   0  0  0  0  0  1  0  0  0  0  0  0
  -25.5870  -33.9060   24.1720 N   0  0  0  0  0  0  0  0  0  0  0  0
  -25.9310  -34.9690   23.4330 C   0  0  0  0  0  0  0  0  0  0  0  0
  -26.6130  -34.8750   22.4100 O   0  0  0  0  0  0  0  0  0  0  0  0
  -24.9770  -34.0540   24.9630 H   0  0  0  0  0  0  0  0  0  0  0  0
  -24.2160  -36.7830   23.0920 C   0  0  0  0  0  1  0  0  0  0  0  0
  -25.4500  -36.3590   23.9040 C   0  0  0  0  0  3  0  0  0  0  0  0
  -27.5820  -37.2290   24.7560 C   0  0  0  0  0  1  0  0  0  0  0  0
  -26.4890  -37.4080   23.8040 N   0  0  0  0  0  0  0  0  0  0  0  0
  -26.0850  -38.3280   23.9540 H   0  0  0  0  0  0  0  0  0  0  0  0
  2  3  1  0
  2  4  1  0
  3  5  1  0
  4  6  1  0
  5  6  1  0
  5  7  1  0
  6  1  1  0
  8  7  1  0
  9 14  1  0
 10 11  1  0
 10  9  1  0
 12 11  1  0
 12 19  1  0
 12 13  1  0
 14  8  1  0
 14 13  1  0
 15  8  2  0
 16 17  2  0
 17 36  1  0
 18 17  1  0
 18 21  1  0
 19 16  1  0
 19 20  1  0
 20 18  2  0
 21 22  1  0
 22 23  2  0
 24 27  1  0
 24 23  1  0
 25 24  2  0
 26 25  1  0
 26 21  2  0
 27 28  1  0
 28 29  1  0
 29 30  2  0
 31 30  1  0
 31 35  1  0
 32 31  2  0
 33 28  2  0
 33 32  1  0
 34 33  1  0
 36 37  1  0
 37 40  1  0
 37 39  1  0
 38 36  2  0
 41 42  1  0
 41 16  1  0
 43 41  1  0
 44 45  1  0
 44  1  1  0
 46 57  2  0
 47 45  1  0
 47 52  1  0
 48 56  1  0
 48 58  1  0
 49 55  1  0
 49 51  1  0
 50 56  1  0
 51 52  2  0
 51 50  1  0
 53 47  2  0
 54 53  1  0
 54 49  2  0
 55 48  1  0
 56 46  1  0
 58 60  2  0
 59 58  1  0
 61 59  1  0
 62 71  2  0
 62 67  1  0
 63 59  1  0
 63 67  1  0
 64 63  1  0
 65 66  1  0
 65 64  1  0
 66 62  1  0
 67 68  2  0
 68 69  1  0
 70 69  2  0
 71 70  1  0
 72 46  1  0
 72 77  1  0
 72 73  1  0
 73 76  1  1
 73 74  1  0
 75 73  1  0
 77 80  1  0
 78 82  1  0
 78 77  1  0
 79 78  2  0
 82 81  1  0
 84 82  1  0
 84 85  1  0
 84 83  1  0
M  ISO  4   7 100   8 100  44 101  45 101
M  END
>  <TORSDO>  (53) 
F 19

>  <SCORE>  (53) 
-16.521

>  <name>  (53) 
52

>  <ligand_id>  (53) 
52

>  <original_smiles>  (53) 
[H]c1c([H])c([H])c2c(c1[H])C([H])([H])C([H])([H])C([H])([H])C2([H])N([H])C(=O)C1([H])N(C(=O)C([H])(N([H])C(=O)C([H])(N([H])C([H])([H])[H])C([H])([H])[H])C(C([H])([H])[H])(C([H])([H])[H])C([H])([H])[H])C([H])([H])c2c([H])c(OC([H])([H])C([H])([H])C3([H])C([H])([H])C([H])([H])C([H])([H])C3([H])C([H])([H])C(=O)N3C([H])([H])C([H])([H])C([H])([H])C([H])(n4nc(-c5c([H])c([H])c(Oc6c([H])c([H])c(F)c([H])c6F)c([H])c5[H])c(C(=O)N([H])[H])c4N([H])[H])C3([H])[H])c([H])c([H])c2C1([H])[H]

>  <smiles>  (53) 
[H]c1c([H])c([H])c2c(c1[H])C([H])([H])C([H])([H])C([H])([H])C2([H])N([H])C(=O)C1([H])N(C(=O)C([H])(N([H])C(=O)C([H])(N([H])C([H])([H])[H])C([H])([H])[H])C(C([H])([H])[H])(C([H])([H])[H])C([H])([H])[H])C([H])([H])c2c([H])c(OC([H])([H])C([H])([H])C3([H])C([H])([H])C([H])([H])C([H])([H])C3([H])C([H])([H])C(=O)N3C([H])([H])C([H])([H])C([H])([H])C([H])(n4nc(-c5c([H])c([H])c(Oc6c([H])c([H])c(F)c([H])c6F)c([H])c5[H])c(C(=O)N([H])[H])c4N([H])[H])C3([H])[H])c([H])c([H])c2C1([H])[H]

$$$$
53:0:0
     RDKit          3D

 92101  0  0  1  0  0  0  0  0999 V2000
  -30.0740  -20.4720   19.8280 N   0  0  0  0  0  4  0  0  0  0  0  0
  -30.2090  -20.4600   18.8300 H   0  0  0  0  0  0  0  0  0  0  0  0
  -30.9430  -20.8030   20.2110 H   0  0  0  0  0  0  0  0  0  0  0  0
  -30.4530  -16.3080   22.9240 C   0  0  0  0  0  2  0  0  0  0  0  0
  -31.1790  -17.6510   23.1030 C   0  0  0  0  0  2  0  0  0  0  0  0
  -29.5220  -16.3730   21.7110 C   0  0  0  0  0  2  0  0  0  0  0  0
  -31.9920  -18.0720   21.8640 C   0  0  0  0  0  2  0  0  0  0  0  0
  -29.5070  -17.6860   19.4570 C   0  0  0  0  0  2  0  0  0  0  0  0
  -29.9500  -18.9560   20.3470 C   0  0  0  0  0  3  0  0  0  0  0  0
  -30.2930  -16.6340   20.3990 C   0  0  1  0  0  0  0  0  0  0  0  0
  -31.2320  -17.9760   20.5210 C   0  0  2  0  0  0  0  0  0  0  0  0
  -32.3280  -18.1910   19.4480 C   0  0  0  0  0  1  0  0  0  0  0  0
  -30.9700  -15.1470   19.8400 C   0  0  0  0  0  0  0  0  0  0  0  0
  -30.7770  -12.8590   18.7030 C   0  0  0  0  0  2  0  0  0  0  0  0
  -29.7140  -12.9110   17.5760 C   0  0  0  0  0  2  0  0  0  0  0  0
  -28.2870  -12.6940   18.1190 C   0  0  0  0  0  2  0  0  0  0  0  0
  -28.0330  -13.4950   19.4220 C   0  0  0  0  0  3  0  0  0  0  0  0
  -29.2000  -13.2840   20.4090 C   0  0  0  0  0  2  0  0  0  0  0  0
  -30.3970  -13.8550   19.7610 N   0  0  0  0  0  0  0  0  0  0  0  0
  -32.1190  -15.1820   19.3810 O   0  0  0  0  0  0  0  0  0  0  0  0
  -25.7230  -14.0890   20.3520 C   0  0  0  0  0  0  0  0  0  0  0  0
  -24.6770  -13.3190   20.7790 C   0  0  0  0  0  0  0  0  0  0  0  0
  -25.1100  -11.9630   20.6560 C   0  0  0  0  0  0  0  0  0  0  0  0
  -26.7300  -13.2030   20.0060 N   0  0  0  0  0  0  0  0  0  0  0  0
  -26.3730  -11.9160   20.2450 N   0  0  0  0  0  0  0  0  0  0  0  0
  -24.3740  -10.7070   20.8510 C   0  0  0  0  0  0  0  0  0  0  0  0
  -24.7570   -9.7730   21.8390 C   0  0  0  0  0  3  0  0  0  0  0  0
  -24.0200   -8.5830   22.0230 C   0  0  0  0  0  3  0  0  0  0  0  0
  -22.8840   -8.3200   21.2190 C   0  0  0  0  0  0  0  0  0  0  0  0
  -22.5210   -9.2420   20.2220 C   0  0  0  0  0  3  0  0  0  0  0  0
  -23.2590  -10.4230   20.0370 C   0  0  0  0  0  3  0  0  0  0  0  0
  -22.1230   -7.1800   21.3110 O   0  0  0  0  0  0  0  0  0  0  0  0
  -21.9110   -6.5510   22.5120 C   0  0  0  0  0  0  0  0  0  0  0  0
  -21.3190   -7.2160   23.6080 C   0  0  0  0  0  3  0  0  0  0  0  0
  -21.0550   -6.5110   24.8000 C   0  0  0  0  0  3  0  0  0  0  0  0
  -21.3740   -5.1440   24.8960 C   0  0  0  0  0  0  0  0  0  0  0  0
  -21.9600   -4.4800   23.8040 C   0  0  0  0  0  3  0  0  0  0  0  0
  -22.2240   -5.1810   22.6140 C   0  0  0  0  0  0  0  0  0  0  0  0
  -22.7680   -4.5300   21.5580 F   0  0  0  0  0  0  0  0  0  0  0  0
  -21.1150   -4.4670   26.0390 F   0  0  0  0  0  0  0  0  0  0  0  0
  -23.3150  -13.8070   21.1800 C   0  0  0  0  0  0  0  0  0  0  0  0
  -22.6660  -13.1170   22.1100 N   0  0  0  0  0  0  0  0  0  0  0  0
  -22.8420  -14.8390   20.7060 O   0  0  0  0  0  0  0  0  0  0  0  0
  -23.0630  -12.2830   22.5180 H   0  0  0  0  0  0  0  0  0  0  0  0
  -21.7580  -13.4300   22.4210 H   0  0  0  0  0  0  0  0  0  0  0  0
  -25.8930  -15.4640   20.2060 N   0  0  0  0  0  0  0  0  0  0  0  0
  -25.1460  -16.1220   20.3980 H   0  0  0  0  0  0  0  0  0  0  0  0
  -26.7070  -15.9010   19.7940 H   0  0  0  0  0  0  0  0  0  0  0  0
  -29.0460  -21.6540   20.1610 C   0  0  0  0  0  2  0  0  0  0  0  0
  -29.3810  -23.3270   20.0500 C   0  0  0  0  0  3  0  0  0  0  0  0
  -28.2470  -24.5990   20.0840 C   0  0  0  0  0  3  0  0  0  0  0  0
  -28.4680  -26.1570   20.0790 O   0  0  0  0  0  0  0  0  0  0  0  0
  -24.6500  -31.7720   23.0220 C   0  0  0  0  0  0  0  0  0  0  0  0
  -27.3740  -27.1080   20.0220 C   0  0  0  0  0  0  0  0  0  0  0  0
  -23.4920  -30.3280   21.3960 C   0  0  0  0  0  3  0  0  0  0  0  0
  -24.9870  -28.7890   19.9790 C   0  0  0  0  0  0  0  0  0  0  0  0
  -26.0370  -30.6720   21.2190 C   0  0  0  0  0  2  0  0  0  0  0  0
  -26.1570  -29.2760   20.5790 C   0  0  0  0  0  0  0  0  0  0  0  0
  -27.3510  -28.4560   20.5760 C   0  0  0  0  0  3  0  0  0  0  0  0
  -26.1710  -26.7250   19.3870 C   0  0  0  0  0  3  0  0  0  0  0  0
  -25.0090  -27.5270   19.3660 C   0  0  0  0  0  3  0  0  0  0  0  0
  -23.7310  -29.6460   20.0210 C   0  0  0  0  0  2  0  0  0  0  0  0
  -24.7460  -30.9470   21.9350 N   0  0  0  0  0  0  0  0  0  0  0  0
  -23.5570  -32.0260   23.5510 O   0  0  0  0  0  0  0  0  0  0  0  0
  -22.8470  -29.3080   22.3670 C   0  0  0  0  0  0  0  0  0  0  0  0
  -21.5230  -29.0970   22.2480 N   0  0  0  0  0  0  0  0  0  0  0  0
  -23.5380  -28.7070   23.1930 O   0  0  0  0  0  0  0  0  0  0  0  0
  -21.0190  -29.6340   21.5560 H   0  0  0  0  0  0  0  0  0  0  0  0
  -18.1820  -27.7970   22.7710 C   0  0  0  0  0  0  0  0  0  0  0  0
  -20.7320  -28.1430   23.0290 C   0  0  0  0  0  3  0  0  0  0  0  0
  -20.8770  -26.7100   22.4680 C   0  0  0  0  0  2  0  0  0  0  0  0
  -19.7840  -26.3430   21.4600 C   0  0  0  0  0  2  0  0  0  0  0  0
  -18.3990  -26.4490   22.1050 C   0  0  0  0  0  2  0  0  0  0  0  0
  -19.2770  -28.5990   23.1900 C   0  0  0  0  0  0  0  0  0  0  0  0
  -19.0170  -29.8570   23.7760 C   0  0  0  0  0  3  0  0  0  0  0  0
  -17.6960  -30.3160   23.9430 C   0  0  0  0  0  3  0  0  0  0  0  0
  -16.6160  -29.5110   23.5390 C   0  0  0  0  0  3  0  0  0  0  0  0
  -16.8610  -28.2540   22.9560 C   0  0  0  0  0  3  0  0  0  0  0  0
  -25.9080  -32.4530   23.6420 C   0  0  0  0  0  3  0  0  0  0  0  0
  -26.4980  -31.6620   24.8750 C   0  0  1  0  0  0  0  0  0  0  0  0
  -25.4430  -31.3080   25.9510 C   0  0  0  0  0  1  0  0  0  0  0  0
  -27.1580  -30.3400   24.4180 C   0  0  0  0  0  1  0  0  0  0  0  0
  -27.6090  -32.5000   25.5490 C   0  0  0  0  0  1  0  0  0  0  0  0
  -25.5280  -33.8180   24.0430 N   0  0  0  0  0  0  0  0  0  0  0  0
  -25.8070  -34.9250   23.3440 C   0  0  0  0  0  0  0  0  0  0  0  0
  -26.4780  -34.9090   22.3080 O   0  0  0  0  0  0  0  0  0  0  0  0
  -24.9230  -33.9000   24.8470 H   0  0  0  0  0  0  0  0  0  0  0  0
  -24.0050  -36.6660   23.0820 C   0  0  0  0  0  1  0  0  0  0  0  0
  -25.2580  -36.2630   23.8780 C   0  0  0  0  0  3  0  0  0  0  0  0
  -27.3480  -37.1910   24.7730 C   0  0  0  0  0  1  0  0  0  0  0  0
  -26.2450  -37.3640   23.8340 N   0  0  0  0  0  0  0  0  0  0  0  0
  -25.7990  -38.2550   24.0310 H   0  0  0  0  0  0  0  0  0  0  0  0
  1 49  1  0
  1  3  1  0
  2  1  1  0
  4  5  1  0
  6  4  1  0
  7  5  1  0
  8  9  1  0
  8 10  1  0
  9  1  1  0
  9 11  1  0
 10 13  1  6
 10 11  1  0
 10  6  1  0
 11 12  1  6
 11  7  1  0
 14 19  1  0
 15 16  1  0
 15 14  1  0
 17 16  1  0
 17 24  1  0
 17 18  1  0
 19 13  1  0
 19 18  1  0
 20 13  2  0
 21 22  2  0
 22 41  1  0
 23 22  1  0
 23 26  1  0
 24 25  1  0
 24 21  1  0
 25 23  2  0
 26 27  1  0
 27 28  2  0
 29 32  1  0
 29 28  1  0
 30 29  2  0
 31 30  1  0
 31 26  2  0
 32 33  1  0
 33 38  2  0
 33 34  1  0
 34 35  2  0
 35 36  1  0
 36 40  1  0
 37 36  2  0
 38 37  1  0
 39 38  1  0
 41 42  1  0
 42 45  1  0
 42 44  1  0
 43 41  2  0
 46 21  1  0
 46 47  1  0
 48 46  1  0
 50 51  2  0
 50 49  1  0
 52 51  1  0
 53 64  2  0
 54 52  1  0
 54 59  1  0
 55 63  1  0
 55 65  1  0
 56 62  1  0
 56 58  1  0
 57 63  1  0
 58 57  1  0
 59 58  2  0
 60 54  2  0
 61 60  1  0
 61 56  2  0
 62 55  1  0
 63 53  1  0
 65 67  2  0
 66 65  1  0
 68 66  1  0
 69 78  2  0
 69 74  1  0
 70 66  1  0
 70 74  1  0
 71 70  1  0
 72 73  1  0
 72 71  1  0
 73 69  1  0
 74 75  2  0
 75 76  1  0
 77 76  2  0
 78 77  1  0
 79 53  1  0
 79 84  1  0
 79 80  1  0
 80 83  1  1
 80 81  1  0
 82 80  1  0
 84 87  1  0
 85 89  1  0
 85 84  1  0
 86 85  2  0
 89 88  1  0
 91 89  1  0
 91 92  1  0
 91 90  1  0
M  ISO  4  10 100  13 100  51 101  52 101
M  END
>  <TORSDO>  (54) 
F 20

>  <SCORE>  (54) 
-12.489

>  <name>  (54) 
53

>  <ligand_id>  (54) 
53

>  <original_smiles>  (54) 
[H]c1c([H])c([H])c2c(c1[H])C([H])([H])C([H])([H])C([H])([H])C2([H])N([H])C(=O)C1([H])N(C(=O)C([H])(N([H])C(=O)C([H])(N([H])C([H])([H])[H])C([H])([H])[H])C(C([H])([H])[H])(C([H])([H])[H])C([H])([H])[H])C([H])([H])c2c([H])c(OC([H])([H])C([H])([H])C([H])([H])[N+]([H])([H])C3([H])C([H])([H])C4(C(=O)N5C([H])([H])C([H])([H])C([H])([H])C([H])(n6nc(-c7c([H])c([H])c(Oc8c([H])c([H])c(F)c([H])c8F)c([H])c7[H])c(C(=O)N([H])[H])c6N([H])[H])C5([H])[H])C([H])([H])C([H])([H])C([H])([H])C([H])([H])C43C([H])([H])[H])c([H])c([H])c2C1([H])[H]

>  <smiles>  (54) 
[H]c1c([H])c([H])c2c(c1[H])C([H])([H])C([H])([H])C([H])([H])C2([H])N([H])C(=O)C1([H])N(C(=O)C([H])(N([H])C(=O)C([H])(N([H])C([H])([H])[H])C([H])([H])[H])C(C([H])([H])[H])(C([H])([H])[H])C([H])([H])[H])C([H])([H])c2c([H])c(OC([H])([H])C([H])([H])C([H])([H])[N+]([H])([H])C3([H])C([H])([H])C4(C(=O)N5C([H])([H])C([H])([H])C([H])([H])C([H])(n6nc(-c7c([H])c([H])c(Oc8c([H])c([H])c(F)c([H])c8F)c([H])c7[H])c(C(=O)N([H])[H])c6N([H])[H])C5([H])[H])C([H])([H])C([H])([H])C([H])([H])C([H])([H])C43C([H])([H])[H])c([H])c([H])c2C1([H])[H]

$$$$
54:0:0
     RDKit          3D

 94102  0  0  1  0  0  0  0  0999 V2000
  -30.4080  -20.1470   20.7410 C   0  0  0  0  0  3  0  0  0  0  0  0
  -33.9880  -20.6990   19.1450 C   0  0  0  0  0  2  0  0  0  0  0  0
  -34.8560  -20.5350   20.4020 C   0  0  0  0  0  2  0  0  0  0  0  0
  -32.6110  -20.0420   19.3360 C   0  0  0  0  0  2  0  0  0  0  0  0
  -32.7590  -20.4440   21.8290 C   0  0  0  0  0  2  0  0  0  0  0  0
  -34.1500  -21.0870   21.6560 C   0  0  0  0  0  3  0  0  0  0  0  0
  -31.8840  -20.6250   20.5660 C   0  0  0  0  0  3  0  0  0  0  0  0
  -35.0160  -20.9010   22.9090 C   0  0  0  0  0  1  0  0  0  0  0  0
  -30.3650  -18.7570   21.3710 N   0  0  0  0  0  4  0  0  0  0  0  0
  -30.8730  -18.8190   22.2390 H   0  0  0  0  0  0  0  0  0  0  0  0
  -29.4050  -18.5690   21.6160 H   0  0  0  0  0  0  0  0  0  0  0  0
  -30.8590  -17.5330   20.6010 C   0  0  0  0  0  3  0  0  0  0  0  0
  -30.6900  -16.1120   21.3180 C   0  0  0  0  0  3  0  0  0  0  0  0
  -31.4320  -14.8400   20.7250 C   0  0  0  0  0  0  0  0  0  0  0  0
  -31.1330  -12.7370   19.4180 C   0  0  0  0  0  2  0  0  0  0  0  0
  -30.2450  -13.0410   18.1910 C   0  0  0  0  0  2  0  0  0  0  0  0
  -28.7500  -12.9300   18.5520 C   0  0  0  0  0  2  0  0  0  0  0  0
  -28.3950  -13.6940   19.8540 C   0  0  0  0  0  3  0  0  0  0  0  0
  -29.3990  -13.3720   20.9850 C   0  0  0  0  0  2  0  0  0  0  0  0
  -30.7490  -13.6730   20.4930 N   0  0  0  0  0  0  0  0  0  0  0  0
  -32.6050  -14.9570   20.3590 O   0  0  0  0  0  0  0  0  0  0  0  0
  -25.9950  -14.3790   20.4660 C   0  0  0  0  0  0  0  0  0  0  0  0
  -24.8830  -13.6430   20.7720 C   0  0  0  0  0  0  0  0  0  0  0  0
  -25.2950  -12.2750   20.7440 C   0  0  0  0  0  0  0  0  0  0  0  0
  -27.0150  -13.4610   20.2680 N   0  0  0  0  0  0  0  0  0  0  0  0
  -26.5960  -12.1910   20.4970 N   0  0  0  0  0  0  0  0  0  0  0  0
  -24.5130  -11.0390   20.8780 C   0  0  0  0  0  0  0  0  0  0  0  0
  -24.8390  -10.0610   21.8440 C   0  0  0  0  0  3  0  0  0  0  0  0
  -24.0620   -8.8900   21.9660 C   0  0  0  0  0  3  0  0  0  0  0  0
  -22.9450   -8.6880   21.1200 C   0  0  0  0  0  0  0  0  0  0  0  0
  -22.6400   -9.6530   20.1440 C   0  0  0  0  0  3  0  0  0  0  0  0
  -23.4170  -10.8160   20.0220 C   0  0  0  0  0  3  0  0  0  0  0  0
  -22.1490   -7.5680   21.1500 O   0  0  0  0  0  0  0  0  0  0  0  0
  -21.9420   -6.8620   22.3080 C   0  0  0  0  0  0  0  0  0  0  0  0
  -21.3830   -7.4640   23.4570 C   0  0  0  0  0  3  0  0  0  0  0  0
  -21.1230   -6.6850   24.6030 C   0  0  0  0  0  3  0  0  0  0  0  0
  -21.4110   -5.3070   24.5990 C   0  0  0  0  0  0  0  0  0  0  0  0
  -21.9620   -4.7050   23.4530 C   0  0  0  0  0  3  0  0  0  0  0  0
  -22.2230   -5.4810   22.3100 C   0  0  0  0  0  0  0  0  0  0  0  0
  -22.7340   -4.8930   21.2010 F   0  0  0  0  0  0  0  0  0  0  0  0
  -21.1540   -4.5570   25.6960 F   0  0  0  0  0  0  0  0  0  0  0  0
  -23.4920  -14.1690   20.9800 C   0  0  0  0  0  0  0  0  0  0  0  0
  -22.7040  -13.5050   21.8190 N   0  0  0  0  0  0  0  0  0  0  0  0
  -23.1120  -15.2030   20.4330 O   0  0  0  0  0  0  0  0  0  0  0  0
  -23.0230  -12.6680   22.2830 H   0  0  0  0  0  0  0  0  0  0  0  0
  -21.7680  -13.8400   22.0000 H   0  0  0  0  0  0  0  0  0  0  0  0
  -26.2190  -15.7440   20.3150 N   0  0  0  0  0  0  0  0  0  0  0  0
  -25.4670  -16.4200   20.3830 H   0  0  0  0  0  0  0  0  0  0  0  0
  -27.0880  -16.1480   19.9920 H   0  0  0  0  0  0  0  0  0  0  0  0
  -29.5210  -21.2700   21.4840 C   0  0  0  0  0  2  0  0  0  0  0  0
  -29.8800  -22.8200   21.2920 C   0  0  0  0  0  2  0  0  0  0  0  0
  -28.7480  -23.9050   20.9920 C   0  0  0  0  0  2  0  0  0  0  0  0
  -29.0170  -25.3850   21.5170 C   0  0  0  0  0  2  0  0  0  0  0  0
  -28.9300  -26.5370   20.6060 O   0  0  0  0  0  0  0  0  0  0  0  0
  -24.7100  -31.7280   23.3110 C   0  0  0  0  0  0  0  0  0  0  0  0
  -27.7430  -27.2670   20.5550 C   0  0  0  0  0  0  0  0  0  0  0  0
  -23.6720  -30.2050   21.6650 C   0  0  0  0  0  3  0  0  0  0  0  0
  -25.2810  -28.6940   20.3740 C   0  0  0  0  0  0  0  0  0  0  0  0
  -26.1890  -30.6820   21.5840 C   0  0  0  0  0  2  0  0  0  0  0  0
  -26.3850  -29.2910   20.9990 C   0  0  0  0  0  0  0  0  0  0  0  0
  -27.6220  -28.5890   21.0740 C   0  0  0  0  0  3  0  0  0  0  0  0
  -26.6190  -26.7020   19.9210 C   0  0  0  0  0  3  0  0  0  0  0  0
  -25.4000  -27.4040   19.8270 C   0  0  0  0  0  3  0  0  0  0  0  0
  -23.9940  -29.4900   20.3240 C   0  0  0  0  0  2  0  0  0  0  0  0
  -24.8720  -30.8920   22.2450 N   0  0  0  0  0  0  0  0  0  0  0  0
  -23.5880  -31.9580   23.7850 O   0  0  0  0  0  0  0  0  0  0  0  0
  -23.0250  -29.1850   22.6310 C   0  0  0  0  0  0  0  0  0  0  0  0
  -21.7520  -28.8380   22.3770 N   0  0  0  0  0  0  0  0  0  0  0  0
  -23.6710  -28.7040   23.5650 O   0  0  0  0  0  0  0  0  0  0  0  0
  -21.2870  -29.2820   21.5980 H   0  0  0  0  0  0  0  0  0  0  0  0
  -18.5340  -27.1980   22.5390 C   0  0  0  0  0  0  0  0  0  0  0  0
  -20.9610  -27.8620   23.1280 C   0  0  0  0  0  3  0  0  0  0  0  0
  -21.3430  -26.4160   22.7370 C   0  0  0  0  0  2  0  0  0  0  0  0
  -20.4630  -25.8400   21.6220 C   0  0  0  0  0  2  0  0  0  0  0  0
  -18.9930  -25.8340   22.0500 C   0  0  0  0  0  2  0  0  0  0  0  0
  -19.4600  -28.1550   23.0300 C   0  0  0  0  0  0  0  0  0  0  0  0
  -18.9840  -29.4190   23.4400 C   0  0  0  0  0  3  0  0  0  0  0  0
  -17.6130  -29.7320   23.3670 C   0  0  0  0  0  3  0  0  0  0  0  0
  -16.6990  -28.7740   22.8940 C   0  0  0  0  0  3  0  0  0  0  0  0
  -17.1600  -27.5100   22.4850 C   0  0  0  0  0  3  0  0  0  0  0  0
  -25.9220  -32.4550   23.9720 C   0  0  0  0  0  3  0  0  0  0  0  0
  -25.5230  -33.8460   24.2260 N   0  0  0  0  0  0  0  0  0  0  0  0
  -25.8510  -34.8870   23.4490 C   0  0  0  0  0  0  0  0  0  0  0  0
  -26.5910  -34.7820   22.4670 O   0  0  0  0  0  0  0  0  0  0  0  0
  -24.8720  -33.9990   24.9820 H   0  0  0  0  0  0  0  0  0  0  0  0
  -24.0610  -36.5710   22.9170 C   0  0  0  0  0  1  0  0  0  0  0  0
  -25.2660  -36.2640   23.8190 C   0  0  0  0  0  3  0  0  0  0  0  0
  -27.2940  -37.2920   24.7460 C   0  0  0  0  0  1  0  0  0  0  0  0
  -26.2490  -37.3650   23.7280 N   0  0  0  0  0  0  0  0  0  0  0  0
  -25.7890  -38.2680   23.8110 H   0  0  0  0  0  0  0  0  0  0  0  0
  -26.4110  -31.7660   25.3050 C   0  0  1  0  0  0  0  0  0  0  0  0
  -25.2760  -31.5050   26.3220 C   0  0  0  0  0  1  0  0  0  0  0  0
  -27.0930  -30.4120   25.0000 C   0  0  0  0  0  1  0  0  0  0  0  0
  -27.4750  -32.6510   25.9930 C   0  0  0  0  0  1  0  0  0  0  0  0
  1  9  1  0
  1 50  1  0
  2  4  1  0
  2  3  1  0
  3  6  1  0
  4  7  1  0
  6  5  1  0
  6  8  1  0
  7  1  1  0
  7  5  1  0
  9 11  1  0
  9 10  1  0
 12 13  2  0
 12  9  1  0
 14 13  1  0
 15 20  1  0
 16 17  1  0
 16 15  1  0
 18 17  1  0
 18 25  1  0
 18 19  1  0
 20 14  1  0
 20 19  1  0
 21 14  2  0
 22 23  2  0
 23 42  1  0
 24 23  1  0
 24 27  1  0
 25 22  1  0
 25 26  1  0
 26 24  2  0
 27 28  1  0
 28 29  2  0
 30 33  1  0
 30 29  1  0
 31 30  2  0
 32 31  1  0
 32 27  2  0
 33 34  1  0
 34 39  2  0
 34 35  1  0
 35 36  2  0
 37 36  1  0
 37 41  1  0
 38 37  2  0
 39 38  1  0
 40 39  1  0
 42 43  1  0
 43 46  1  0
 43 45  1  0
 44 42  2  0
 47 48  1  0
 47 22  1  0
 49 47  1  0
 51 50  1  0
 52 51  1  0
 52 53  1  0
 54 53  1  0
 55 66  2  0
 56 54  1  0
 56 61  1  0
 57 65  1  0
 57 67  1  0
 58 60  1  0
 59 65  1  0
 60 61  2  0
 60 59  1  0
 62 56  2  0
 63 62  1  0
 63 58  2  0
 64 58  1  0
 64 57  1  0
 65 55  1  0
 67 69  2  0
 68 67  1  0
 70 68  1  0
 71 76  1  0
 72 68  1  0
 73 72  1  0
 74 75  1  0
 74 73  1  0
 75 71  1  0
 76 72  1  0
 76 77  2  0
 78 77  1  0
 79 78  2  0
 80 71  2  0
 80 79  1  0
 81 55  1  0
 81 82  1  0
 81 91  1  0
 82 85  1  0
 83 87  1  0
 83 82  1  0
 84 83  2  0
 87 86  1  0
 89 90  1  0
 89 87  1  0
 89 88  1  0
 91 94  1  1
 91 92  1  0
 93 91  1  0
M  ISO  4  13 100  14 100  53 101  54 101
M  END
>  <TORSDO>  (55) 
F 24

>  <SCORE>  (55) 
-11.560

>  <name>  (55) 
54

>  <ligand_id>  (55) 
54

>  <original_smiles>  (55) 
[H]c1c([H])c([H])c2c(c1[H])C([H])([H])C([H])([H])C([H])([H])C2([H])N([H])C(=O)C1([H])N(C(=O)C([H])(N([H])C(=O)C([H])(N([H])C([H])([H])[H])C([H])([H])[H])C(C([H])([H])[H])(C([H])([H])[H])C([H])([H])[H])C([H])([H])c2c([H])c(OC([H])([H])C([H])([H])C([H])([H])C([H])([H])C([H])(C3([H])C([H])([H])C([H])([H])C([H])([H])C([H])(C([H])([H])[H])C3([H])[H])[N+]([H])([H])C([H])([H])C([H])([H])C(=O)N3C([H])([H])C([H])([H])C([H])([H])C([H])(n4nc(-c5c([H])c([H])c(Oc6c([H])c([H])c(F)c([H])c6F)c([H])c5[H])c(C(=O)N([H])[H])c4N([H])[H])C3([H])[H])c([H])c([H])c2C1([H])[H]

>  <smiles>  (55) 
[H]c1c([H])c([H])c2c(c1[H])C([H])([H])C([H])([H])C([H])([H])C2([H])N([H])C(=O)C1([H])N(C(=O)C([H])(N([H])C(=O)C([H])(N([H])C([H])([H])[H])C([H])([H])[H])C(C([H])([H])[H])(C([H])([H])[H])C([H])([H])[H])C([H])([H])c2c([H])c(OC([H])([H])C([H])([H])C([H])([H])C([H])([H])C([H])(C3([H])C([H])([H])C([H])([H])C([H])([H])C([H])(C([H])([H])[H])C3([H])[H])[N+]([H])([H])C([H])([H])C([H])([H])C(=O)N3C([H])([H])C([H])([H])C([H])([H])C([H])(n4nc(-c5c([H])c([H])c(Oc6c([H])c([H])c(F)c([H])c6F)c([H])c5[H])c(C(=O)N([H])[H])c4N([H])[H])C3([H])[H])c([H])c([H])c2C1([H])[H]

$$$$
55:0:0
     RDKit          3D

 88 97  0  0  1  0  0  0  0  0999 V2000
  -28.2050  -23.2290   22.6920 C   0  0  0  0  0  2  0  0  0  0  0  0
  -29.3600  -24.0780   22.1280 C   0  0  0  0  0  2  0  0  0  0  0  0
  -27.8560  -22.1910   21.5970 C   0  0  0  0  0  2  0  0  0  0  0  0
  -30.2900  -21.4530   21.3420 C   0  0  0  0  0  2  0  0  0  0  0  0
  -29.3220  -23.7810   20.6240 C   0  0  0  0  0  3  0  0  0  0  0  0
  -29.7570  -20.7250   20.1770 C   0  0  0  0  0  3  0  0  0  0  0  0
  -29.0720  -22.1520   20.7030 C   0  0  2  0  0  0  0  0  0  0  0  0
  -29.3310  -19.1640   20.4290 C   0  0  0  0  0  2  0  0  0  0  0  0
  -30.3000  -17.8470   20.1370 C   0  0  0  0  0  3  0  0  0  0  0  0
  -29.8810  -16.3100   20.5990 C   0  0  0  0  0  3  0  0  0  0  0  0
  -30.6820  -14.9510   20.1740 C   0  0  0  0  0  0  0  0  0  0  0  0
  -30.5070  -12.6440   19.1710 C   0  0  0  0  0  2  0  0  0  0  0  0
  -29.5490  -12.7150   17.9600 C   0  0  0  0  0  2  0  0  0  0  0  0
  -28.0860  -12.5190   18.4070 C   0  0  0  0  0  2  0  0  0  0  0  0
  -27.7240  -13.3990   19.6330 C   0  0  0  0  0  3  0  0  0  0  0  0
  -28.8030  -13.3350   20.7360 C   0  0  0  0  0  2  0  0  0  0  0  0
  -30.0900  -13.6980   20.1310 N   0  0  0  0  0  0  0  0  0  0  0  0
  -31.8440  -15.0560   19.7710 O   0  0  0  0  0  0  0  0  0  0  0  0
  -25.3580  -13.9800   20.4390 C   0  0  0  0  0  0  0  0  0  0  0  0
  -24.3040  -13.2040   20.8260 C   0  0  0  0  0  0  0  0  0  0  0  0
  -24.7620  -11.8510   20.7650 C   0  0  0  0  0  0  0  0  0  0  0  0
  -26.3940  -13.1030   20.1560 N   0  0  0  0  0  0  0  0  0  0  0  0
  -26.0440  -11.8160   20.4170 N   0  0  0  0  0  0  0  0  0  0  0  0
  -24.0360  -10.5900   20.9590 C   0  0  0  0  0  0  0  0  0  0  0  0
  -24.4650   -9.6290   21.9030 C   0  0  0  0  0  3  0  0  0  0  0  0
  -23.7400   -8.4320   22.0840 C   0  0  0  0  0  3  0  0  0  0  0  0
  -22.5710   -8.1870   21.3230 C   0  0  0  0  0  0  0  0  0  0  0  0
  -22.1610   -9.1360   20.3700 C   0  0  0  0  0  3  0  0  0  0  0  0
  -22.8870  -10.3260   20.1880 C   0  0  0  0  0  3  0  0  0  0  0  0
  -21.8160   -7.0410   21.4130 O   0  0  0  0  0  0  0  0  0  0  0  0
  -21.7340   -6.3240   22.5790 C   0  0  0  0  0  0  0  0  0  0  0  0
  -21.2450   -6.8970   23.7730 C   0  0  0  0  0  3  0  0  0  0  0  0
  -21.1100   -6.1050   24.9300 C   0  0  0  0  0  3  0  0  0  0  0  0
  -21.4550   -4.7390   24.8930 C   0  0  0  0  0  0  0  0  0  0  0  0
  -21.9360   -4.1660   23.7040 C   0  0  0  0  0  3  0  0  0  0  0  0
  -22.0710   -4.9560   22.5480 C   0  0  0  0  0  0  0  0  0  0  0  0
  -22.5160   -4.3930   21.3980 F   0  0  0  0  0  0  0  0  0  0  0  0
  -21.3190   -3.9760   26.0030 F   0  0  0  0  0  0  0  0  0  0  0  0
  -22.9140  -13.6790   21.1430 C   0  0  0  0  0  0  0  0  0  0  0  0
  -22.2090  -12.9740   22.0200 N   0  0  0  0  0  0  0  0  0  0  0  0
  -22.4660  -14.7130   20.6490 O   0  0  0  0  0  0  0  0  0  0  0  0
  -22.5870  -12.1390   22.4440 H   0  0  0  0  0  0  0  0  0  0  0  0
  -21.2780  -13.2750   22.2720 H   0  0  0  0  0  0  0  0  0  0  0  0
  -25.5130  -15.3560   20.2800 N   0  0  0  0  0  0  0  0  0  0  0  0
  -24.7350  -15.9890   20.4280 H   0  0  0  0  0  0  0  0  0  0  0  0
  -26.3450  -15.8190   19.9400 H   0  0  0  0  0  0  0  0  0  0  0  0
  -28.2270  -24.8940   20.0570 C   0  0  0  0  0  2  0  0  0  0  0  0
  -28.4110  -26.4050   20.2200 O   0  0  0  0  0  0  0  0  0  0  0  0
  -24.6690  -31.8700   23.2720 C   0  0  0  0  0  0  0  0  0  0  0  0
  -27.3060  -27.3080   20.1490 C   0  0  0  0  0  0  0  0  0  0  0  0
  -23.4730  -30.4760   21.6220 C   0  0  0  0  0  3  0  0  0  0  0  0
  -24.9330  -28.9510   20.1630 C   0  0  0  0  0  0  0  0  0  0  0  0
  -26.0130  -30.8130   21.4260 C   0  0  0  0  0  2  0  0  0  0  0  0
  -26.1050  -29.4360   20.7570 C   0  0  0  0  0  0  0  0  0  0  0  0
  -27.2920  -28.6260   20.7340 C   0  0  0  0  0  3  0  0  0  0  0  0
  -26.1160  -26.9170   19.4950 C   0  0  0  0  0  3  0  0  0  0  0  0
  -24.9440  -27.7040   19.5190 C   0  0  0  0  0  3  0  0  0  0  0  0
  -23.6890  -29.8140   20.2350 C   0  0  0  0  0  2  0  0  0  0  0  0
  -24.7370  -31.0730   22.1630 N   0  0  0  0  0  0  0  0  0  0  0  0
  -23.5850  -32.1300   23.8170 O   0  0  0  0  0  0  0  0  0  0  0  0
  -22.8190  -29.4480   22.5790 C   0  0  0  0  0  0  0  0  0  0  0  0
  -21.4950  -29.2480   22.4470 N   0  0  0  0  0  0  0  0  0  0  0  0
  -23.5030  -28.8310   23.3970 O   0  0  0  0  0  0  0  0  0  0  0  0
  -20.9990  -29.7980   21.7600 H   0  0  0  0  0  0  0  0  0  0  0  0
  -18.1410  -27.9650   22.9300 C   0  0  0  0  0  0  0  0  0  0  0  0
  -20.6920  -28.2870   23.2080 C   0  0  0  0  0  3  0  0  0  0  0  0
  -20.8320  -26.8610   22.6270 C   0  0  0  0  0  2  0  0  0  0  0  0
  -19.7420  -26.5180   21.6070 C   0  0  0  0  0  2  0  0  0  0  0  0
  -18.3530  -26.6260   22.2440 C   0  0  0  0  0  2  0  0  0  0  0  0
  -19.2390  -28.7530   23.3650 C   0  0  0  0  0  0  0  0  0  0  0  0
  -18.9880  -30.0060   23.9630 C   0  0  0  0  0  3  0  0  0  0  0  0
  -17.6700  -30.4710   24.1340 C   0  0  0  0  0  3  0  0  0  0  0  0
  -16.5870  -29.6810   23.7140 C   0  0  0  0  0  3  0  0  0  0  0  0
  -16.8230  -28.4310   23.1150 C   0  0  0  0  0  3  0  0  0  0  0  0
  -25.9470  -32.5110   23.8970 C   0  0  0  0  0  3  0  0  0  0  0  0
  -26.4590  -31.7520   25.1830 C   0  0  1  0  0  0  0  0  0  0  0  0
  -25.3620  -31.5240   26.2500 C   0  0  0  0  0  1  0  0  0  0  0  0
  -27.0490  -30.3730   24.8070 C   0  0  0  0  0  1  0  0  0  0  0  0
  -27.6020  -32.5560   25.8440 C   0  0  0  0  0  1  0  0  0  0  0  0
  -25.6370  -33.9120   24.2210 N   0  0  0  0  0  0  0  0  0  0  0  0
  -25.9510  -34.9610   23.4490 C   0  0  0  0  0  0  0  0  0  0  0  0
  -26.6010  -34.8520   22.4060 O   0  0  0  0  0  0  0  0  0  0  0  0
  -25.0710  -34.0730   25.0430 H   0  0  0  0  0  0  0  0  0  0  0  0
  -24.2030  -36.7410   23.1240 C   0  0  0  0  0  1  0  0  0  0  0  0
  -25.4670  -36.3500   23.9070 C   0  0  0  0  0  3  0  0  0  0  0  0
  -27.6120  -37.2590   24.6820 C   0  0  0  0  0  1  0  0  0  0  0  0
  -26.4900  -37.4090   23.7590 N   0  0  0  0  0  0  0  0  0  0  0  0
  -26.0810  -38.3280   23.9070 H   0  0  0  0  0  0  0  0  0  0  0  0
  2  1  1  0
  3  1  1  0
  5 47  1  0
  5  7  1  0
  5  2  1  0
  6  8  1  0
  6  7  1  0
  6  4  1  0
  7  4  1  1
  7  3  1  0
  9  8  1  0
  9 10  2  0
 11 10  1  0
 12 17  1  0
 13 14  1  0
 13 12  1  0
 15 14  1  0
 15 22  1  0
 15 16  1  0
 17 11  1  0
 17 16  1  0
 18 11  2  0
 19 20  2  0
 20 39  1  0
 21 20  1  0
 21 24  1  0
 22 23  1  0
 22 19  1  0
 23 21  2  0
 24 25  1  0
 25 26  2  0
 27 30  1  0
 27 26  1  0
 28 27  2  0
 29 28  1  0
 29 24  2  0
 30 31  1  0
 31 32  1  0
 32 33  2  0
 34 33  1  0
 34 38  1  0
 35 34  2  0
 36 31  2  0
 36 35  1  0
 37 36  1  0
 39 40  1  0
 40 43  1  0
 40 42  1  0
 41 39  2  0
 44 45  1  0
 44 19  1  0
 46 44  1  0
 47 48  1  0
 49 60  2  0
 50 48  1  0
 50 55  1  0
 51 59  1  0
 51 61  1  0
 52 58  1  0
 52 54  1  0
 53 59  1  0
 54 53  1  0
 55 54  2  0
 56 57  1  0
 56 50  2  0
 57 52  2  0
 58 51  1  0
 59 49  1  0
 61 63  2  0
 62 61  1  0
 64 62  1  0
 65 74  2  0
 65 70  1  0
 66 62  1  0
 66 70  1  0
 67 66  1  0
 68 69  1  0
 68 67  1  0
 69 65  1  0
 70 71  2  0
 71 72  1  0
 73 72  2  0
 74 73  1  0
 75 49  1  0
 75 80  1  0
 75 76  1  0
 76 79  1  1
 76 77  1  0
 78 76  1  0
 80 83  1  0
 81 85  1  0
 81 80  1  0
 82 81  2  0
 85 84  1  0
 87 88  1  0
 87 85  1  0
 87 86  1  0
M  ISO  4  10 100  11 100  47 101  48 101
M  END
>  <TORSDO>  (56) 
F 20

>  <SCORE>  (56) 
-13.263

>  <name>  (56) 
55

>  <ligand_id>  (56) 
55

>  <original_smiles>  (56) 
[H]c1c([H])c([H])c2c(c1[H])C([H])([H])C([H])([H])C([H])([H])C2([H])N([H])C(=O)C1([H])N(C(=O)C([H])(N([H])C(=O)C([H])(N([H])C([H])([H])[H])C([H])([H])[H])C(C([H])([H])[H])(C([H])([H])[H])C([H])([H])[H])C([H])([H])c2c([H])c(OC([H])([H])C3([H])C([H])([H])C([H])([H])C([H])([H])C34C([H])([H])C4([H])C([H])([H])C([H])([H])C([H])([H])C(=O)N3C([H])([H])C([H])([H])C([H])([H])C([H])(n4nc(-c5c([H])c([H])c(Oc6c([H])c([H])c(F)c([H])c6F)c([H])c5[H])c(C(=O)N([H])[H])c4N([H])[H])C3([H])[H])c([H])c([H])c2C1([H])[H]

>  <smiles>  (56) 
[H]c1c([H])c([H])c2c(c1[H])C([H])([H])C([H])([H])C([H])([H])C2([H])N([H])C(=O)C1([H])N(C(=O)C([H])(N([H])C(=O)C([H])(N([H])C([H])([H])[H])C([H])([H])[H])C(C([H])([H])[H])(C([H])([H])[H])C([H])([H])[H])C([H])([H])c2c([H])c(OC([H])([H])C3([H])C([H])([H])C([H])([H])C([H])([H])C34C([H])([H])C4([H])C([H])([H])C([H])([H])C([H])([H])C(=O)N3C([H])([H])C([H])([H])C([H])([H])C([H])(n4nc(-c5c([H])c([H])c(Oc6c([H])c([H])c(F)c([H])c6F)c([H])c5[H])c(C(=O)N([H])[H])c4N([H])[H])C3([H])[H])c([H])c([H])c2C1([H])[H]

$$$$
56:0:0
     RDKit          3D

 85 93  0  0  1  0  0  0  0  0999 V2000
  -29.0200  -18.7980   19.0890 C   0  0  0  0  0  2  0  0  0  0  0  0
  -30.6660  -20.0800   19.9520 C   0  0  0  0  0  2  0  0  0  0  0  0
  -28.8790  -20.6550   21.2690 C   0  0  0  0  0  2  0  0  0  0  0  0
  -29.4780  -17.6990   20.3170 C   0  0  0  0  0  3  0  0  0  0  0  0
  -29.4240  -20.4990   19.1500 C   0  0  0  0  0  3  0  0  0  0  0  0
  -29.8980  -19.2560   21.0010 C   0  0  0  0  0  3  0  0  0  0  0  0
  -28.6300  -21.7870   20.0260 C   0  0  0  0  0  2  0  0  0  0  0  0
  -30.3040  -15.9500   20.2230 C   0  0  0  0  0  0  0  0  0  0  0  0
  -30.5020  -13.3390   19.5160 C   0  0  0  0  0  2  0  0  0  0  0  0
  -29.6540  -12.8620   18.2960 C   0  0  0  0  0  2  0  0  0  0  0  0
  -28.2280  -12.4830   18.7210 C   0  0  0  0  0  2  0  0  0  0  0  0
  -27.6700  -13.5080   19.7310 C   0  0  0  0  0  3  0  0  0  0  0  0
  -28.6610  -13.8940   20.8560 C   0  0  0  0  0  2  0  0  0  0  0  0
  -29.8440  -14.5400   20.2280 N   0  0  0  0  0  0  0  0  0  0  0  0
  -31.5370  -15.8680   20.0420 O   0  0  0  0  0  0  0  0  0  0  0  0
  -25.2960  -14.0200   20.4600 C   0  0  0  0  0  0  0  0  0  0  0  0
  -24.2360  -13.2360   20.8150 C   0  0  0  0  0  0  0  0  0  0  0  0
  -24.7160  -11.8890   20.8010 C   0  0  0  0  0  0  0  0  0  0  0  0
  -26.3490  -13.1550   20.2350 N   0  0  0  0  0  0  0  0  0  0  0  0
  -26.0150  -11.8660   20.5090 N   0  0  0  0  0  0  0  0  0  0  0  0
  -23.9910  -10.6240   20.9880 C   0  0  0  0  0  0  0  0  0  0  0  0
  -24.3820   -9.6820   21.9660 C   0  0  0  0  0  3  0  0  0  0  0  0
  -23.6520   -8.4870   22.1410 C   0  0  0  0  0  3  0  0  0  0  0  0
  -22.5160   -8.2220   21.3400 C   0  0  0  0  0  0  0  0  0  0  0  0
  -22.1440   -9.1530   20.3530 C   0  0  0  0  0  3  0  0  0  0  0  0
  -22.8750  -10.3400   20.1750 C   0  0  0  0  0  3  0  0  0  0  0  0
  -21.7620   -7.0760   21.4210 O   0  0  0  0  0  0  0  0  0  0  0  0
  -21.6260   -6.3850   22.5990 C   0  0  0  0  0  0  0  0  0  0  0  0
  -21.0770   -6.9830   23.7540 C   0  0  0  0  0  3  0  0  0  0  0  0
  -20.8910   -6.2180   24.9220 C   0  0  0  0  0  3  0  0  0  0  0  0
  -21.2450   -4.8560   24.9360 C   0  0  0  0  0  0  0  0  0  0  0  0
  -21.7870   -4.2570   23.7860 C   0  0  0  0  0  3  0  0  0  0  0  0
  -21.9750   -5.0200   22.6200 C   0  0  0  0  0  0  0  0  0  0  0  0
  -22.4770   -4.4330   21.5070 F   0  0  0  0  0  0  0  0  0  0  0  0
  -21.0610   -4.1180   26.0560 F   0  0  0  0  0  0  0  0  0  0  0  0
  -22.8310  -13.7060   21.0520 C   0  0  0  0  0  0  0  0  0  0  0  0
  -22.0930  -13.0210   21.9150 N   0  0  0  0  0  0  0  0  0  0  0  0
  -22.3990  -14.7200   20.5050 O   0  0  0  0  0  0  0  0  0  0  0  0
  -22.4570  -12.2010   22.3800 H   0  0  0  0  0  0  0  0  0  0  0  0
  -21.1490  -13.3190   22.1180 H   0  0  0  0  0  0  0  0  0  0  0  0
  -25.4510  -15.3910   20.2780 N   0  0  0  0  0  0  0  0  0  0  0  0
  -24.6770  -16.0400   20.3780 H   0  0  0  0  0  0  0  0  0  0  0  0
  -26.3030  -15.8370   19.9630 H   0  0  0  0  0  0  0  0  0  0  0  0
  -28.0090  -23.7130   19.8400 C   0  0  0  0  0  1  0  0  0  0  0  0
  -28.1870  -25.5080   19.9780 O   0  0  0  0  0  0  0  0  0  0  0  0
  -24.6770  -31.8460   23.0220 C   0  0  0  0  0  0  0  0  0  0  0  0
  -27.2160  -26.7570   19.9430 C   0  0  0  0  0  0  0  0  0  0  0  0
  -23.4830  -30.4510   21.3900 C   0  0  0  0  0  3  0  0  0  0  0  0
  -24.9290  -28.8200   19.9400 C   0  0  0  0  0  0  0  0  0  0  0  0
  -26.0630  -30.6010   21.2390 C   0  0  0  0  0  2  0  0  0  0  0  0
  -26.1330  -29.1670   20.5650 C   0  0  0  0  0  0  0  0  0  0  0  0
  -27.2540  -28.1670   20.5310 C   0  0  0  0  0  3  0  0  0  0  0  0
  -25.9730  -26.6450   19.2620 C   0  0  0  0  0  3  0  0  0  0  0  0
  -24.8940  -27.5870   19.2630 C   0  0  0  0  0  3  0  0  0  0  0  0
  -23.7140  -29.7650   20.0110 C   0  0  0  0  0  2  0  0  0  0  0  0
  -24.7670  -31.0010   21.9360 N   0  0  0  0  0  0  0  0  0  0  0  0
  -23.5870  -32.1310   23.5490 O   0  0  0  0  0  0  0  0  0  0  0  0
  -22.7870  -29.4610   22.3650 C   0  0  0  0  0  0  0  0  0  0  0  0
  -21.4510  -29.3120   22.2740 N   0  0  0  0  0  0  0  0  0  0  0  0
  -23.4620  -28.8250   23.1770 O   0  0  0  0  0  0  0  0  0  0  0  0
  -20.9540  -29.8750   21.5990 H   0  0  0  0  0  0  0  0  0  0  0  0
  -18.0740  -28.1080   22.8850 C   0  0  0  0  0  0  0  0  0  0  0  0
  -20.6450  -28.3600   23.0520 C   0  0  0  0  0  3  0  0  0  0  0  0
  -20.7150  -26.9420   22.4380 C   0  0  0  0  0  2  0  0  0  0  0  0
  -19.5720  -26.6530   21.4580 C   0  0  0  0  0  2  0  0  0  0  0  0
  -18.2180  -26.7810   22.1590 C   0  0  0  0  0  2  0  0  0  0  0  0
  -19.2110  -28.8580   23.2900 C   0  0  0  0  0  0  0  0  0  0  0  0
  -19.0180  -30.0970   23.9370 C   0  0  0  0  0  3  0  0  0  0  0  0
  -17.7210  -30.5890   24.1790 C   0  0  0  0  0  3  0  0  0  0  0  0
  -16.6000  -29.8390   23.7850 C   0  0  0  0  0  3  0  0  0  0  0  0
  -16.7770  -28.5990   23.1450 C   0  0  0  0  0  3  0  0  0  0  0  0
  -25.9380  -32.5110   23.6530 C   0  0  0  0  0  3  0  0  0  0  0  0
  -25.5880  -33.8910   24.0490 N   0  0  0  0  0  0  0  0  0  0  0  0
  -25.8650  -34.9930   23.3400 C   0  0  0  0  0  0  0  0  0  0  0  0
  -26.4960  -34.9590   22.2810 O   0  0  0  0  0  0  0  0  0  0  0  0
  -25.0180  -33.9880   24.8760 H   0  0  0  0  0  0  0  0  0  0  0  0
  -24.0800  -36.7660   23.1560 C   0  0  0  0  0  1  0  0  0  0  0  0
  -25.3670  -36.3500   23.8870 C   0  0  0  0  0  3  0  0  0  0  0  0
  -27.5110  -37.2630   24.6670 C   0  0  0  0  0  1  0  0  0  0  0  0
  -26.3670  -37.4360   23.7770 N   0  0  0  0  0  0  0  0  0  0  0  0
  -25.9430  -38.3380   23.9770 H   0  0  0  0  0  0  0  0  0  0  0  0
  -26.4870  -31.7240   24.9090 C   0  0  1  0  0  0  0  0  0  0  0  0
  -25.4150  -31.4410   25.9870 C   0  0  0  0  0  1  0  0  0  0  0  0
  -27.0930  -30.3650   24.4920 C   0  0  0  0  0  1  0  0  0  0  0  0
  -27.6320  -32.5260   25.5710 C   0  0  0  0  0  1  0  0  0  0  0  0
  1  4  1  0
  4  8  1  0
  4  6  1  0
  5  1  1  0
  5  2  1  0
  5  7  1  0
  6  2  1  0
  6  3  1  0
  7  3  1  0
  8 14  1  0
  9 14  1  0
 10 11  1  0
 10  9  1  0
 12 11  1  0
 12 19  1  0
 12 13  1  0
 14 13  1  0
 15  8  2  0
 16 17  2  0
 17 36  1  0
 18 17  1  0
 18 21  1  0
 19 16  1  0
 19 20  1  0
 20 18  2  0
 21 22  1  0
 22 23  2  0
 24 27  1  0
 24 23  1  0
 25 24  2  0
 26 25  1  0
 26 21  2  0
 27 28  1  0
 28 33  2  0
 28 29  1  0
 29 30  2  0
 30 31  1  0
 31 35  1  0
 32 31  2  0
 33 32  1  0
 34 33  1  0
 36 37  1  0
 37 40  1  0
 37 39  1  0
 38 36  2  0
 41 42  1  0
 41 16  1  0
 43 41  1  0
 44 45  1  0
 46 57  2  0
 47 45  1  0
 47 52  1  0
 48 56  1  0
 48 58  1  0
 49 55  1  0
 49 51  1  0
 50 56  1  0
 51 50  1  0
 52 51  2  0
 53 54  1  0
 53 47  2  0
 54 49  2  0
 55 48  1  0
 56 46  1  0
 58 60  2  0
 59 58  1  0
 61 59  1  0
 62 71  2  0
 62 67  1  0
 63 59  1  0
 63 67  1  0
 64 63  1  0
 65 66  1  0
 65 64  1  0
 66 62  1  0
 67 68  2  0
 68 69  1  0
 70 69  2  0
 71 70  1  0
 72 46  1  0
 72 73  1  0
 72 82  1  0
 73 76  1  0
 74 78  1  0
 74 73  1  0
 75 74  2  0
 78 77  1  0
 80 78  1  0
 80 81  1  0
 80 79  1  0
 82 85  1  1
 82 83  1  0
 84 82  1  0
M  ISO  4   4 100   8 100  44 101  45 101
M  END
>  <TORSDO>  (57) 
F 17

>  <SCORE>  (57) 
-16.226

>  <name>  (57) 
56

>  <ligand_id>  (57) 
56

>  <original_smiles>  (57) 
[H]c1c([H])c([H])c2c(c1[H])C([H])([H])C([H])([H])C([H])([H])C2([H])N([H])C(=O)C1([H])N(C(=O)C([H])(N([H])C(=O)C([H])(N([H])C([H])([H])[H])C([H])([H])[H])C(C([H])([H])[H])(C([H])([H])[H])C([H])([H])[H])C([H])([H])c2c([H])c(OC([H])([H])C3([H])C([H])([H])C4([H])C([H])([H])C3([H])C([H])([H])C4([H])C(=O)N3C([H])([H])C([H])([H])C([H])([H])C([H])(n4nc(-c5c([H])c([H])c(Oc6c([H])c([H])c(F)c([H])c6F)c([H])c5[H])c(C(=O)N([H])[H])c4N([H])[H])C3([H])[H])c([H])c([H])c2C1([H])[H]

>  <smiles>  (57) 
[H]c1c([H])c([H])c2c(c1[H])C([H])([H])C([H])([H])C([H])([H])C2([H])N([H])C(=O)C1([H])N(C(=O)C([H])(N([H])C(=O)C([H])(N([H])C([H])([H])[H])C([H])([H])[H])C(C([H])([H])[H])(C([H])([H])[H])C([H])([H])[H])C([H])([H])c2c([H])c(OC([H])([H])C3([H])C([H])([H])C4([H])C([H])([H])C3([H])C([H])([H])C4([H])C(=O)N3C([H])([H])C([H])([H])C([H])([H])C([H])(n4nc(-c5c([H])c([H])c(Oc6c([H])c([H])c(F)c([H])c6F)c([H])c5[H])c(C(=O)N([H])[H])c4N([H])[H])C3([H])[H])c([H])c([H])c2C1([H])[H]

$$$$
57:0:0
     RDKit          3D

 85 89  0  0  1  0  0  0  0  0999 V2000
  -28.8220  -18.9050   17.7350 C   0  0  0  0  0  2  0  0  0  0  0  0
  -29.1900  -20.4110   17.6990 C   0  0  0  0  0  2  0  0  0  0  0  0
  -29.7740  -17.9850   18.5390 C   0  0  0  0  0  2  0  0  0  0  0  0
  -28.3270  -21.3560   18.5700 C   0  0  0  0  0  2  0  0  0  0  0  0
  -29.1500  -19.6510   20.6190 C   0  0  0  0  0 15  0  0  0  0  0  0
  -29.3710  -17.7160   20.0060 C   0  0  0  0  0  1  0  0  0  0  0  0
  -28.8420  -21.5770   20.0020 C   0  0  0  0  0  1  0  0  0  0  0  0
  -30.1560  -15.9210   20.2860 C   0  0  0  0  0  2  0  0  0  0  0  0
  -30.3730  -13.2930   19.5600 C   0  0  0  0  0  2  0  0  0  0  0  0
  -29.5330  -12.7620   18.3540 C   0  0  0  0  0  2  0  0  0  0  0  0
  -28.1160  -12.3570   18.7890 C   0  0  0  0  0  2  0  0  0  0  0  0
  -27.5450  -13.3810   19.7900 C   0  0  0  0  0  3  0  0  0  0  0  0
  -28.5340  -13.8140   20.8990 C   0  0  0  0  0  2  0  0  0  0  0  0
  -29.6890  -14.5010   20.2530 N   0  0  0  0  0  0  0  0  0  0  0  0
  -31.4010  -15.8000   20.2290 O   0  0  0  0  0  1  0  0  0  0  0  0
  -25.1760  -13.8780   20.5370 C   0  0  0  0  0  0  0  0  0  0  0  0
  -24.1210  -13.0900   20.8950 C   0  0  0  0  0  0  0  0  0  0  0  0
  -24.6040  -11.7440   20.8770 C   0  0  0  0  0  0  0  0  0  0  0  0
  -26.2310  -13.0180   20.3050 N   0  0  0  0  0  0  0  0  0  0  0  0
  -25.9030  -11.7250   20.5780 N   0  0  0  0  0  0  0  0  0  0  0  0
  -23.8820  -10.4770   21.0660 C   0  0  0  0  0  0  0  0  0  0  0  0
  -24.3160   -9.5090   21.9980 C   0  0  0  0  0  3  0  0  0  0  0  0
  -23.5880   -8.3110   22.1780 C   0  0  0  0  0  3  0  0  0  0  0  0
  -22.4130   -8.0740   21.4270 C   0  0  0  0  0  0  0  0  0  0  0  0
  -21.9970   -9.0320   20.4850 C   0  0  0  0  0  3  0  0  0  0  0  0
  -22.7250  -10.2200   20.3040 C   0  0  0  0  0  3  0  0  0  0  0  0
  -21.6590   -6.9290   21.5160 O   0  0  0  0  0  0  0  0  0  0  0  0
  -21.6280   -6.1720   22.6600 C   0  0  0  0  0  0  0  0  0  0  0  0
  -21.2330   -6.7140   23.9010 C   0  0  0  0  0  3  0  0  0  0  0  0
  -21.1490   -5.8850   25.0380 C   0  0  0  0  0  3  0  0  0  0  0  0
  -21.4500   -4.5140   24.9340 C   0  0  0  0  0  0  0  0  0  0  0  0
  -21.8370   -3.9700   23.6960 C   0  0  0  0  0  3  0  0  0  0  0  0
  -21.9230   -4.7960   22.5630 C   0  0  0  0  0  0  0  0  0  0  0  0
  -22.2760   -4.2630   21.3680 F   0  0  0  0  0  0  0  0  0  0  0  0
  -21.3620   -3.7150   26.0240 F   0  0  0  0  0  0  0  0  0  0  0  0
  -22.7150  -13.5550   21.1360 C   0  0  0  0  0  0  0  0  0  0  0  0
  -21.9800  -12.8690   22.0010 N   0  0  0  0  0  0  0  0  0  0  0  0
  -22.2780  -14.5680   20.5900 O   0  0  0  0  0  0  0  0  0  0  0  0
  -22.3460  -12.0530   22.4690 H   0  0  0  0  0  0  0  0  0  0  0  0
  -21.0350  -13.1660   22.2020 H   0  0  0  0  0  0  0  0  0  0  0  0
  -25.3260  -15.2500   20.3560 N   0  0  0  0  0  0  0  0  0  0  0  0
  -24.5520  -15.8960   20.4630 H   0  0  0  0  0  0  0  0  0  0  0  0
  -26.1760  -15.6980   20.0370 H   0  0  0  0  0  0  0  0  0  0  0  0
  -28.0990  -23.4400   20.4720 C   0  0  0  0  0  1  0  0  0  0  0  0
  -28.1480  -25.2770   20.2120 O   0  0  0  0  0  0  0  0  0  0  0  0
  -24.6670  -31.8220   23.1150 C   0  0  0  0  0  0  0  0  0  0  0  0
  -27.1750  -26.5550   20.2200 C   0  0  0  0  0  0  0  0  0  0  0  0
  -23.4780  -30.3960   21.5070 C   0  0  0  0  0  3  0  0  0  0  0  0
  -24.9210  -28.6930   20.1310 C   0  0  0  0  0  0  0  0  0  0  0  0
  -26.0650  -30.4910   21.3900 C   0  0  0  0  0  2  0  0  0  0  0  0
  -26.1260  -29.0290   20.7590 C   0  0  0  0  0  0  0  0  0  0  0  0
  -27.2300  -27.9960   20.7600 C   0  0  0  0  0  3  0  0  0  0  0  0
  -25.9300  -26.4710   19.5320 C   0  0  0  0  0  3  0  0  0  0  0  0
  -24.8720  -27.4410   19.4890 C   0  0  0  0  0  3  0  0  0  0  0  0
  -23.7220  -29.6640   20.1530 C   0  0  0  0  0  2  0  0  0  0  0  0
  -24.7630  -30.9410   22.0550 N   0  0  0  0  0  0  0  0  0  0  0  0
  -23.5720  -32.1350   23.6170 O   0  0  0  0  0  0  0  0  0  0  0  0
  -22.7510  -29.4480   22.4990 C   0  0  0  0  0  0  0  0  0  0  0  0
  -21.4150  -29.3080   22.3900 N   0  0  0  0  0  0  0  0  0  0  0  0
  -23.4050  -28.8300   23.3420 O   0  0  0  0  0  0  0  0  0  0  0  0
  -20.9350  -29.8550   21.6900 H   0  0  0  0  0  0  0  0  0  0  0  0
  -18.0240  -28.1180   22.9530 C   0  0  0  0  0  0  0  0  0  0  0  0
  -20.5880  -28.3860   23.1810 C   0  0  0  0  0  3  0  0  0  0  0  0
  -20.6780  -26.9450   22.6260 C   0  0  0  0  0  2  0  0  0  0  0  0
  -19.5650  -26.6140   21.6260 C   0  0  0  0  0  2  0  0  0  0  0  0
  -18.1910  -26.7660   22.2830 C   0  0  0  0  0  2  0  0  0  0  0  0
  -19.1480  -28.8860   23.3600 C   0  0  0  0  0  0  0  0  0  0  0  0
  -18.9310  -30.1490   23.9540 C   0  0  0  0  0  3  0  0  0  0  0  0
  -17.6270  -30.6450   24.1390 C   0  0  0  0  0  3  0  0  0  0  0  0
  -16.5190  -29.8760   23.7440 C   0  0  0  0  0  3  0  0  0  0  0  0
  -16.7180  -28.6140   23.1570 C   0  0  0  0  0  3  0  0  0  0  0  0
  -25.9240  -32.4910   23.7480 C   0  0  0  0  0  3  0  0  0  0  0  0
  -25.5820  -33.8840   24.1040 N   0  0  0  0  0  0  0  0  0  0  0  0
  -25.9000  -34.9690   23.3840 C   0  0  0  0  0  0  0  0  0  0  0  0
  -26.5640  -34.9030   22.3480 O   0  0  0  0  0  0  0  0  0  0  0  0
  -24.9870  -34.0070   24.9100 H   0  0  0  0  0  0  0  0  0  0  0  0
  -24.1540  -36.7680   23.1110 C   0  0  0  0  0  1  0  0  0  0  0  0
  -25.4100  -36.3450   23.8900 C   0  0  0  0  0  3  0  0  0  0  0  0
  -27.5480  -37.2330   24.7150 C   0  0  0  0  0  1  0  0  0  0  0  0
  -26.4320  -37.4120   23.7910 N   0  0  0  0  0  0  0  0  0  0  0  0
  -26.0190  -38.3240   23.9640 H   0  0  0  0  0  0  0  0  0  0  0  0
  -26.4460  -31.7320   25.0320 C   0  0  1  0  0  0  0  0  0  0  0  0
  -25.3560  -31.4940   26.1050 C   0  0  0  0  0  1  0  0  0  0  0  0
  -27.0380  -30.3540   24.6630 C   0  0  0  0  0  1  0  0  0  0  0  0
  -27.5940  -32.5370   25.6860 C   0  0  0  0  0  1  0  0  0  0  0  0
  1  3  1  0
  2  1  1  0
  2  4  1  0
  3  6  1  0
  4  7  1  0
  9 14  1  0
 10 11  1  0
 10  9  1  0
 12 11  1  0
 12 19  1  0
 12 13  1  0
 14  8  1  0
 14 13  1  0
 15  8  1  0
 16 17  2  0
 17 36  1  0
 18 17  1  0
 18 21  1  0
 19 16  1  0
 19 20  1  0
 20 18  2  0
 21 22  1  0
 22 23  2  0
 24 27  1  0
 24 23  1  0
 25 24  2  0
 26 25  1  0
 26 21  2  0
 27 28  1  0
 28 29  1  0
 29 30  2  0
 31 30  1  0
 31 35  1  0
 32 31  2  0
 33 28  2  0
 33 32  1  0
 34 33  1  0
 36 37  1  0
 37 40  1  0
 37 39  1  0
 38 36  2  0
 41 42  1  0
 41 16  1  0
 43 41  1  0
 45 47  1  0
 45 44  1  0
 46 57  2  0
 47 52  1  0
 48 56  1  0
 48 58  1  0
 49 55  1  0
 49 51  1  0
 50 56  1  0
 51 52  2  0
 51 50  1  0
 53 47  2  0
 54 53  1  0
 54 49  2  0
 55 48  1  0
 56 46  1  0
 58 60  2  0
 59 58  1  0
 61 59  1  0
 62 71  2  0
 62 67  1  0
 63 59  1  0
 63 67  1  0
 64 63  1  0
 65 66  1  0
 65 64  1  0
 66 62  1  0
 67 68  2  0
 68 69  1  0
 70 69  2  0
 71 70  1  0
 72 46  1  0
 72 73  1  0
 72 82  1  0
 73 76  1  0
 74 78  1  0
 74 73  1  0
 75 74  2  0
 78 77  1  0
 80 78  1  0
 80 81  1  0
 80 79  1  0
 82 85  1  1
 82 83  1  0
 84 82  1  0
M  ISO  4   6 100   8 100  44 101  45 101
M  END
>  <TORSDO>  (58) 
F 17

>  <SCORE>  (58) 
-16.386

>  <name>  (58) 
57

>  <ligand_id>  (58) 
57

>  <original_smiles>  (58) 
[H]c1c([H])c([H])c2c(c1[H])C([H])([H])C([H])([H])C([H])([H])C2([H])N([H])C(=O)C1([H])N(C(=O)C([H])(N([H])C(=O)C([H])(N([H])C([H])([H])[H])C([H])([H])[H])C(C([H])([H])[H])(C([H])([H])[H])C([H])([H])[H])C([H])([H])c2c([H])c(OC([H])([H])C3([H])C([H])([H])C([H])([H])C([H])([H])C([H])([H])C([H])(C(=O)N4C([H])([H])C([H])([H])C([H])([H])C([H])(n5nc(-c6c([H])c([H])c(Oc7c([H])c([H])c(F)c([H])c7F)c([H])c6[H])c(C(=O)N([H])[H])c5N([H])[H])C4([H])[H])C3([H])[H])c([H])c([H])c2C1([H])[H]

>  <smiles>  (58) 
[H]c1c([H])c([H])c2c(c1[H])C([H])([H])C([H])([H])C([H])([H])C2([H])N([H])C(=O)C1([H])N(C(=O)C([H])(N([H])C(=O)C([H])(N([H])C([H])([H])[H])C([H])([H])[H])C(C([H])([H])[H])(C([H])([H])[H])C([H])([H])[H])C([H])([H])c2c([H])c(OC([H])([H])C3([H])C([H])([H])C([H])([H])C([H])([H])C([H])([H])C([H])(C(=O)N4C([H])([H])C([H])([H])C([H])([H])C([H])(n5nc(-c6c([H])c([H])c(Oc7c([H])c([H])c(F)c([H])c7F)c([H])c6[H])c(C(=O)N([H])[H])c5N([H])[H])C4([H])[H])C3([H])[H])c([H])c([H])c2C1([H])[H]

$$$$
58:0:0
     RDKit          3D

 88 96  0  0  1  0  0  0  0  0999 V2000
  -29.1600  -21.9250   20.5630 C   0  0  0  0  0  2  0  0  0  0  0  0
  -28.4790  -23.3010   19.8790 C   0  0  0  0  0  2  0  0  0  0  0  0
  -28.2270  -24.7510   20.6880 C   0  0  0  0  0  2  0  0  0  0  0  0
  -28.3350  -26.2060   20.1760 O   0  0  0  0  0  0  0  0  0  0  0  0
  -24.6060  -31.8140   23.1650 C   0  0  0  0  0  0  0  0  0  0  0  0
  -27.2420  -27.1290   20.1900 C   0  0  0  0  0  0  0  0  0  0  0  0
  -23.4250  -30.3970   21.5260 C   0  0  0  0  0  3  0  0  0  0  0  0
  -24.8940  -28.8230   20.1280 C   0  0  0  0  0  0  0  0  0  0  0  0
  -25.9740  -30.6980   21.3660 C   0  0  0  0  0  2  0  0  0  0  0  0
  -26.0660  -29.3010   20.7310 C   0  0  0  0  0  0  0  0  0  0  0  0
  -27.2450  -28.4710   20.7370 C   0  0  0  0  0  3  0  0  0  0  0  0
  -26.0420  -26.7320   19.5690 C   0  0  0  0  0  3  0  0  0  0  0  0
  -24.8940  -27.5510   19.5310 C   0  0  0  0  0  3  0  0  0  0  0  0
  -23.6600  -29.7070   20.1550 C   0  0  0  0  0  2  0  0  0  0  0  0
  -24.6880  -30.9910   22.0750 N   0  0  0  0  0  0  0  0  0  0  0  0
  -23.5170  -32.0920   23.6880 O   0  0  0  0  0  0  0  0  0  0  0  0
  -22.7520  -29.3910   22.4920 C   0  0  0  0  0  0  0  0  0  0  0  0
  -21.4250  -29.2060   22.3580 N   0  0  0  0  0  0  0  0  0  0  0  0
  -23.4250  -28.7760   23.3230 O   0  0  0  0  0  0  0  0  0  0  0  0
  -20.9400  -29.7590   21.6640 H   0  0  0  0  0  0  0  0  0  0  0  0
  -18.0530  -27.9630   22.8180 C   0  0  0  0  0  0  0  0  0  0  0  0
  -20.6030  -28.2670   23.1250 C   0  0  0  0  0  3  0  0  0  0  0  0
  -20.7360  -26.8280   22.5770 C   0  0  0  0  0  2  0  0  0  0  0  0
  -19.6580  -26.4750   21.5460 C   0  0  0  0  0  2  0  0  0  0  0  0
  -18.2620  -26.6070   22.1640 C   0  0  0  0  0  2  0  0  0  0  0  0
  -19.1520  -28.7490   23.2540 C   0  0  0  0  0  0  0  0  0  0  0  0
  -18.9040  -30.0160   23.8240 C   0  0  0  0  0  3  0  0  0  0  0  0
  -17.5890  -30.4980   23.9640 C   0  0  0  0  0  3  0  0  0  0  0  0
  -16.5040  -29.7110   23.5440 C   0  0  0  0  0  3  0  0  0  0  0  0
  -16.7360  -28.4450   22.9770 C   0  0  0  0  0  3  0  0  0  0  0  0
  -25.8760  -32.4620   23.7950 C   0  0  0  0  0  3  0  0  0  0  0  0
  -25.5460  -33.8540   24.1340 N   0  0  0  0  0  0  0  0  0  0  0  0
  -25.8750  -34.9200   23.3910 C   0  0  0  0  0  0  0  0  0  0  0  0
  -26.5540  -34.8350   22.3650 O   0  0  0  0  0  0  0  0  0  0  0  0
  -24.9450  -33.9910   24.9330 H   0  0  0  0  0  0  0  0  0  0  0  0
  -24.1400  -36.7100   23.0360 C   0  0  0  0  0  1  0  0  0  0  0  0
  -25.3710  -36.3000   23.8590 C   0  0  0  0  0  3  0  0  0  0  0  0
  -27.4880  -37.1930   24.7300 C   0  0  0  0  0  1  0  0  0  0  0  0
  -26.3960  -37.3620   23.7740 N   0  0  0  0  0  0  0  0  0  0  0  0
  -25.9800  -38.2760   23.9310 H   0  0  0  0  0  0  0  0  0  0  0  0
  -26.3940  -31.6930   25.0720 C   0  0  1  0  0  0  0  0  0  0  0  0
  -25.3000  -31.4420   26.1360 C   0  0  0  0  0  1  0  0  0  0  0  0
  -26.9940  -30.3220   24.6830 C   0  0  0  0  0  1  0  0  0  0  0  0
  -27.5330  -32.4980   25.7450 C   0  0  0  0  0  1  0  0  0  0  0  0
  -29.0380  -20.3250   20.0400 C   0  0  0  0  0  2  0  0  0  0  0  0
  -30.8820  -18.9340   22.5050 C   0  0  0  0  0  2  0  0  0  0  0  0
  -30.5710  -17.5280   22.0090 C   0  0  0  0  0  2  0  0  0  0  0  0
  -31.2010  -19.6820   21.2120 C   0  0  0  0  0  2  0  0  0  0  0  0
  -29.9170  -17.7270   20.6290 C   0  0  0  0  0  3  0  0  0  0  0  0
  -30.1850  -19.2400   20.2250 N   0  0  1  0  0  4  0  0  0  0  0  0
  -30.6630  -19.2290   19.3350 H   0  0  0  0  0  0  0  0  0  0  0  0
  -30.1870  -16.3870   19.6640 C   0  0  0  0  0  2  0  0  0  0  0  0
  -30.9120  -14.9270   19.9460 C   0  0  0  0  0  0  0  0  0  0  0  0
  -30.6200  -12.6290   18.9700 C   0  0  0  0  0  2  0  0  0  0  0  0
  -29.6250  -12.6980   17.7870 C   0  0  0  0  0  2  0  0  0  0  0  0
  -28.1740  -12.5470   18.2830 C   0  0  0  0  0  2  0  0  0  0  0  0
  -27.8700  -13.4470   19.5090 C   0  0  0  0  0  3  0  0  0  0  0  0
  -28.9790  -13.3800   20.5750 C   0  0  0  0  0  2  0  0  0  0  0  0
  -30.2530  -13.7040   19.9250 N   0  0  0  0  0  0  0  0  0  0  0  0
  -32.1330  -14.8940   19.7680 O   0  0  0  0  0  0  0  0  0  0  0  0
  -25.5680  -14.1170   20.4020 C   0  0  0  0  0  0  0  0  0  0  0  0
  -24.4870  -13.3830   20.8040 C   0  0  0  0  0  0  0  0  0  0  0  0
  -24.8840  -12.0130   20.7100 C   0  0  0  0  0  0  0  0  0  0  0  0
  -26.5500  -13.1990   20.0740 N   0  0  0  0  0  0  0  0  0  0  0  0
  -26.1530  -11.9270   20.3290 N   0  0  0  0  0  0  0  0  0  0  0  0
  -24.1080  -10.7830   20.8990 C   0  0  0  0  0  0  0  0  0  0  0  0
  -24.5160   -9.7860   21.8120 C   0  0  0  0  0  3  0  0  0  0  0  0
  -23.7430   -8.6180   21.9910 C   0  0  0  0  0  3  0  0  0  0  0  0
  -22.5470   -8.4390   21.2550 C   0  0  0  0  0  0  0  0  0  0  0  0
  -22.1570   -9.4250   20.3300 C   0  0  0  0  0  3  0  0  0  0  0  0
  -22.9300  -10.5840   20.1510 C   0  0  0  0  0  3  0  0  0  0  0  0
  -21.7460   -7.3260   21.3420 O   0  0  0  0  0  0  0  0  0  0  0  0
  -21.6520   -6.5970   22.5010 C   0  0  0  0  0  0  0  0  0  0  0  0
  -21.2480   -7.1830   23.7200 C   0  0  0  0  0  3  0  0  0  0  0  0
  -21.0960   -6.3820   24.8700 C   0  0  0  0  0  3  0  0  0  0  0  0
  -21.3410   -4.9980   24.8020 C   0  0  0  0  0  0  0  0  0  0  0  0
  -21.7390   -4.4120   23.5880 C   0  0  0  0  0  3  0  0  0  0  0  0
  -21.8910   -5.2090   22.4400 C   0  0  0  0  0  0  0  0  0  0  0  0
  -22.2540   -4.6350   21.2660 F   0  0  0  0  0  0  0  0  0  0  0  0
  -21.1880   -4.2270   25.9040 F   0  0  0  0  0  0  0  0  0  0  0  0
  -23.1290  -13.9160   21.1540 C   0  0  0  0  0  0  0  0  0  0  0  0
  -22.4160  -13.2430   22.0490 N   0  0  0  0  0  0  0  0  0  0  0  0
  -22.7110  -14.9680   20.6710 O   0  0  0  0  0  0  0  0  0  0  0  0
  -22.7670  -12.3920   22.4650 H   0  0  0  0  0  0  0  0  0  0  0  0
  -21.5050  -13.5860   22.3210 H   0  0  0  0  0  0  0  0  0  0  0  0
  -25.7890  -15.4840   20.2570 N   0  0  0  0  0  0  0  0  0  0  0  0
  -25.0560  -16.1660   20.4270 H   0  0  0  0  0  0  0  0  0  0  0  0
  -26.6270  -15.8930   19.8670 H   0  0  0  0  0  0  0  0  0  0  0  0
  2  1  1  0
  2  3  1  0
  4  6  1  0
  4  3  1  0
  5 16  2  0
  6 11  1  0
  7 15  1  0
  7 17  1  0
  8 14  1  0
  8 10  1  0
  9 15  1  0
 10 11  2  0
 10  9  1  0
 12  6  2  0
 13 12  1  0
 13  8  2  0
 14  7  1  0
 15  5  1  0
 17 19  2  0
 18 17  1  0
 20 18  1  0
 21 30  2  0
 21 26  1  0
 22 18  1  0
 22 26  1  0
 23 22  1  0
 24 25  1  0
 24 23  1  0
 25 21  1  0
 26 27  2  0
 27 28  1  0
 29 28  2  0
 30 29  1  0
 31  5  1  0
 31 32  1  0
 31 41  1  0
 32 35  1  0
 33 37  1  0
 33 32  1  0
 34 33  2  0
 37 36  1  0
 39 37  1  0
 39 40  1  0
 39 38  1  0
 41 44  1  1
 41 42  1  0
 43 41  1  0
 45 50  1  0
 45  1  1  0
 47 46  1  0
 48 46  1  0
 49 52  1  0
 49 47  1  0
 50 49  1  0
 50 48  1  0
 50 51  1  6
 52 53  1  0
 54 59  1  0
 55 56  1  0
 55 54  1  0
 57 56  1  0
 57 64  1  0
 57 58  1  0
 59 53  1  0
 59 58  1  0
 60 53  2  0
 61 62  2  0
 62 81  1  0
 63 62  1  0
 63 66  1  0
 64 65  1  0
 64 61  1  0
 65 63  2  0
 66 67  1  0
 67 68  2  0
 69 72  1  0
 69 68  1  0
 70 69  2  0
 71 70  1  0
 71 66  2  0
 72 73  1  0
 73 74  1  0
 74 75  2  0
 76 75  1  0
 76 80  1  0
 77 76  2  0
 78 73  2  0
 78 77  1  0
 79 78  1  0
 81 82  1  0
 82 85  1  0
 82 84  1  0
 83 81  2  0
 86 61  1  0
 86 87  1  0
 88 86  1  0
M  ISO  4   3 101   4 101  52 100  53 100
M  END
>  <TORSDO>  (59) 
F 21

>  <SCORE>  (59) 
-12.996

>  <name>  (59) 
58

>  <ligand_id>  (59) 
58

>  <original_smiles>  (59) 
[H]c1c([H])c([H])c2c(c1[H])C([H])([H])C([H])([H])C([H])([H])C2([H])N([H])C(=O)C1([H])N(C(=O)C([H])(N([H])C(=O)C([H])(N([H])C([H])([H])[H])C([H])([H])[H])C(C([H])([H])[H])(C([H])([H])[H])C([H])([H])[H])C([H])([H])c2c([H])c(OC([H])([H])C([H])([H])C([H])([H])C([H])([H])[N+]3([H])C([H])([H])C([H])([H])C([H])([H])C3([H])C([H])([H])C(=O)N3C([H])([H])C([H])([H])C([H])([H])C([H])(n4nc(-c5c([H])c([H])c(Oc6c([H])c([H])c(F)c([H])c6F)c([H])c5[H])c(C(=O)N([H])[H])c4N([H])[H])C3([H])[H])c([H])c([H])c2C1([H])[H]

>  <smiles>  (59) 
[H]c1c([H])c([H])c2c(c1[H])C([H])([H])C([H])([H])C([H])([H])C2([H])N([H])C(=O)C1([H])N(C(=O)C([H])(N([H])C(=O)C([H])(N([H])C([H])([H])[H])C([H])([H])[H])C(C([H])([H])[H])(C([H])([H])[H])C([H])([H])[H])C([H])([H])c2c([H])c(OC([H])([H])C([H])([H])C([H])([H])C([H])([H])[N+]3([H])C([H])([H])C([H])([H])C([H])([H])C3([H])C([H])([H])C(=O)N3C([H])([H])C([H])([H])C([H])([H])C([H])(n4nc(-c5c([H])c([H])c(Oc6c([H])c([H])c(F)c([H])c6F)c([H])c5[H])c(C(=O)N([H])[H])c4N([H])[H])C3([H])[H])c([H])c([H])c2C1([H])[H]

$$$$
59:0:0
     RDKit          3D

 93103  0  0  1  0  0  0  0  0999 V2000
  -28.1540  -22.9160   22.7950 C   0  0  0  0  0  2  0  0  0  0  0  0
  -28.8680  -21.6150   23.1970 C   0  0  0  0  0  2  0  0  0  0  0  0
  -31.6470  -21.4480   21.7300 C   0  0  0  0  0  2  0  0  0  0  0  0
  -27.8940  -21.3600   21.0490 C   0  0  0  0  0  2  0  0  0  0  0  0
  -32.1140  -19.9650   21.7000 C   0  0  0  0  0  2  0  0  0  0  0  0
  -30.6410  -20.3990   19.9040 C   0  0  0  0  0  2  0  0  0  0  0  0
  -28.1870  -22.8310   21.2610 C   0  0  0  0  0  3  0  0  0  0  0  0
  -29.1090  -20.9040   21.8420 C   0  0  0  0  0  3  0  0  0  0  0  0
  -29.6590  -23.0140   20.7820 C   0  0  0  0  0  3  0  0  0  0  0  0
  -30.2870  -21.5060   20.9910 C   0  0  1  0  0  0  0  0  0  0  0  0
  -31.2650  -19.2670   20.7060 N   0  0  1  0  0  4  0  0  0  0  0  0
  -30.4790  -18.9230   21.2370 H   0  0  0  0  0  0  0  0  0  0  0  0
  -29.8060  -24.1310   19.6260 C   0  0  0  0  0  2  0  0  0  0  0  0
  -29.0050  -25.5100   19.9280 C   0  0  0  0  0  2  0  0  0  0  0  0
  -28.8820  -26.6730   19.0060 O   0  0  0  0  0  0  0  0  0  0  0  0
  -24.7110  -31.2530   22.7640 C   0  0  0  0  0  0  0  0  0  0  0  0
  -27.7000  -27.4270   19.1100 C   0  0  0  0  0  0  0  0  0  0  0  0
  -23.6150  -29.9610   20.9690 C   0  0  0  0  0  3  0  0  0  0  0  0
  -25.1820  -28.7670   19.3340 C   0  0  0  0  0  0  0  0  0  0  0  0
  -26.1000  -30.5690   20.7920 C   0  0  0  0  0  2  0  0  0  0  0  0
  -26.3090  -29.2980   19.9750 C   0  0  0  0  0  0  0  0  0  0  0  0
  -27.5740  -28.6420   19.8530 C   0  0  0  0  0  3  0  0  0  0  0  0
  -26.5480  -26.9530   18.4500 C   0  0  0  0  0  3  0  0  0  0  0  0
  -25.3020  -27.6000   18.5650 C   0  0  0  0  0  3  0  0  0  0  0  0
  -23.8610  -29.4920   19.5110 C   0  0  0  0  0  2  0  0  0  0  0  0
  -24.8290  -30.6040   21.5680 N   0  0  0  0  0  0  0  0  0  0  0  0
  -23.6190  -31.3460   23.3410 O   0  0  0  0  0  0  0  0  0  0  0  0
  -23.0820  -28.7670   21.7970 C   0  0  0  0  0  0  0  0  0  0  0  0
  -21.7760  -28.4750   21.6670 N   0  0  0  0  0  0  0  0  0  0  0  0
  -23.8410  -28.1110   22.5140 O   0  0  0  0  0  0  0  0  0  0  0  0
  -21.2160  -29.0660   21.0690 H   0  0  0  0  0  0  0  0  0  0  0  0
  -18.5440  -26.8980   22.0720 C   0  0  0  0  0  0  0  0  0  0  0  0
  -21.0750  -27.3680   22.3200 C   0  0  0  0  0  3  0  0  0  0  0  0
  -21.2920  -26.0430   21.5520 C   0  0  0  0  0  2  0  0  0  0  0  0
  -20.1900  -25.7550   20.5270 C   0  0  0  0  0  2  0  0  0  0  0  0
  -18.8210  -25.6760   21.2130 C   0  0  0  0  0  2  0  0  0  0  0  0
  -19.6010  -27.7020   22.5770 C   0  0  0  0  0  0  0  0  0  0  0  0
  -19.2870  -28.8450   23.3420 C   0  0  0  0  0  3  0  0  0  0  0  0
  -17.9490  -29.1930   23.6030 C   0  0  0  0  0  3  0  0  0  0  0  0
  -16.9060  -28.3860   23.1120 C   0  0  0  0  0  3  0  0  0  0  0  0
  -17.2050  -27.2400   22.3530 C   0  0  0  0  0  3  0  0  0  0  0  0
  -25.9360  -31.9330   23.4490 C   0  0  0  0  0  3  0  0  0  0  0  0
  -26.5270  -31.0860   24.6430 C   0  0  1  0  0  0  0  0  0  0  0  0
  -25.4630  -30.6190   25.6650 C   0  0  0  0  0  1  0  0  0  0  0  0
  -27.2540  -29.8280   24.1120 C   0  0  0  0  0  1  0  0  0  0  0  0
  -27.5900  -31.9180   25.4000 C   0  0  0  0  0  1  0  0  0  0  0  0
  -25.5080  -33.2590   23.9170 N   0  0  0  0  0  0  0  0  0  0  0  0
  -25.7620  -34.4100   23.2790 C   0  0  0  0  0  0  0  0  0  0  0  0
  -26.4510  -34.4710   22.2570 O   0  0  0  0  0  0  0  0  0  0  0  0
  -24.8910  -33.2800   24.7150 H   0  0  0  0  0  0  0  0  0  0  0  0
  -23.8920  -36.0830   23.0850 C   0  0  0  0  0  1  0  0  0  0  0  0
  -25.1580  -35.7000   23.8700 C   0  0  0  0  0  3  0  0  0  0  0  0
  -27.2120  -36.6600   24.8080 C   0  0  0  0  0  1  0  0  0  0  0  0
  -26.0990  -36.8400   23.8800 N   0  0  0  0  0  0  0  0  0  0  0  0
  -25.6200  -37.7010   24.1260 H   0  0  0  0  0  0  0  0  0  0  0  0
  -31.8600  -18.0180   20.0510 C   0  0  0  0  0  3  0  0  0  0  0  0
  -31.5650  -16.6110   20.7750 C   0  0  0  0  0  3  0  0  0  0  0  0
  -32.2200  -15.2730   20.2100 C   0  0  0  0  0  0  0  0  0  0  0  0
  -31.9190  -13.0160   19.1830 C   0  0  0  0  0  2  0  0  0  0  0  0
  -30.9810  -13.1310   17.9590 C   0  0  0  0  0  2  0  0  0  0  0  0
  -29.5030  -13.0390   18.3880 C   0  0  0  0  0  2  0  0  0  0  0  0
  -29.1750  -13.9470   19.6040 C   0  0  0  0  0  3  0  0  0  0  0  0
  -30.2270  -13.7900   20.7240 C   0  0  0  0  0  2  0  0  0  0  0  0
  -31.5470  -14.0770   20.1460 N   0  0  0  0  0  0  0  0  0  0  0  0
  -33.3640  -15.3530   19.7530 O   0  0  0  0  0  0  0  0  0  0  0  0
  -26.8160  -14.6500   20.3380 C   0  0  0  0  0  0  0  0  0  0  0  0
  -25.7160  -13.9250   20.7090 C   0  0  0  0  0  0  0  0  0  0  0  0
  -26.1150  -12.5530   20.6650 C   0  0  0  0  0  0  0  0  0  0  0  0
  -27.8170  -13.7230   20.0940 N   0  0  0  0  0  0  0  0  0  0  0  0
  -27.4000  -12.4560   20.3490 N   0  0  0  0  0  0  0  0  0  0  0  0
  -25.3300  -11.3250   20.8490 C   0  0  0  0  0  0  0  0  0  0  0  0
  -25.6180  -10.4130   21.8870 C   0  0  0  0  0  3  0  0  0  0  0  0
  -24.8390   -9.2480   22.0550 C   0  0  0  0  0  3  0  0  0  0  0  0
  -23.7560   -8.9880   21.1820 C   0  0  0  0  0  0  0  0  0  0  0  0
  -23.4870   -9.8870   20.1350 C   0  0  0  0  0  3  0  0  0  0  0  0
  -24.2680  -11.0430   19.9670 C   0  0  0  0  0  3  0  0  0  0  0  0
  -22.9590   -7.8710   21.2540 O   0  0  0  0  0  0  0  0  0  0  0  0
  -22.5350   -7.3630   22.4550 C   0  0  0  0  0  0  0  0  0  0  0  0
  -21.8270   -8.1520   23.3890 C   0  0  0  0  0  3  0  0  0  0  0  0
  -21.3500   -7.5730   24.5820 C   0  0  0  0  0  3  0  0  0  0  0  0
  -21.5700   -6.2060   24.8380 C   0  0  0  0  0  0  0  0  0  0  0  0
  -22.2700   -5.4180   23.9070 C   0  0  0  0  0  3  0  0  0  0  0  0
  -22.7470   -5.9950   22.7180 C   0  0  0  0  0  0  0  0  0  0  0  0
  -23.4020   -5.2260   21.8150 F   0  0  0  0  0  0  0  0  0  0  0  0
  -21.1060   -5.6470   25.9800 F   0  0  0  0  0  0  0  0  0  0  0  0
  -24.3440  -14.4640   20.9920 C   0  0  0  0  0  0  0  0  0  0  0  0
  -23.6040  -13.8200   21.8880 N   0  0  0  0  0  0  0  0  0  0  0  0
  -23.9390  -15.4930   20.4530 O   0  0  0  0  0  0  0  0  0  0  0  0
  -23.9420  -12.9840   22.3420 H   0  0  0  0  0  0  0  0  0  0  0  0
  -22.6840  -14.1660   22.1210 H   0  0  0  0  0  0  0  0  0  0  0  0
  -27.0480  -16.0120   20.1720 N   0  0  0  0  0  0  0  0  0  0  0  0
  -26.3130  -16.7030   20.2800 H   0  0  0  0  0  0  0  0  0  0  0  0
  -27.9100  -16.4040   19.8150 H   0  0  0  0  0  0  0  0  0  0  0  0
  1  2  1  0
  5  3  1  0
  6 11  1  0
  7  4  1  0
  7  1  1  0
  8  4  1  0
  8  2  1  0
  9 13  1  0
  9 10  1  0
  9  7  1  0
 10  6  1  6
 10  3  1  0
 10  8  1  0
 11 12  1  1
 11  5  1  0
 13 14  1  0
 15 17  1  0
 15 14  1  0
 16 27  2  0
 17 22  1  0
 18 26  1  0
 18 28  1  0
 19 25  1  0
 19 21  1  0
 20 26  1  0
 21 20  1  0
 22 21  2  0
 23 24  1  0
 23 17  2  0
 24 19  2  0
 25 18  1  0
 26 16  1  0
 28 30  2  0
 29 28  1  0
 31 29  1  0
 32 41  2  0
 32 37  1  0
 33 29  1  0
 33 37  1  0
 34 33  1  0
 35 36  1  0
 35 34  1  0
 36 32  1  0
 37 38  2  0
 38 39  1  0
 40 39  2  0
 41 40  1  0
 42 16  1  0
 42 47  1  0
 42 43  1  0
 43 46  1  1
 43 44  1  0
 45 43  1  0
 47 50  1  0
 48 52  1  0
 48 47  1  0
 49 48  2  0
 52 51  1  0
 52 54  1  0
 54 55  1  0
 54 53  1  0
 56 11  1  0
 56 57  2  0
 58 57  1  0
 59 64  1  0
 60 61  1  0
 60 59  1  0
 62 61  1  0
 62 69  1  0
 62 63  1  0
 64 58  1  0
 64 63  1  0
 65 58  2  0
 66 67  2  0
 67 86  1  0
 68 67  1  0
 68 71  1  0
 69 66  1  0
 69 70  1  0
 70 68  2  0
 71 72  1  0
 72 73  2  0
 74 77  1  0
 74 73  1  0
 75 74  2  0
 76 75  1  0
 76 71  2  0
 77 78  1  0
 78 83  2  0
 78 79  1  0
 79 80  2  0
 80 81  1  0
 81 85  1  0
 82 81  2  0
 83 82  1  0
 84 83  1  0
 86 87  1  0
 87 90  1  0
 87 89  1  0
 88 86  2  0
 91 92  1  0
 91 66  1  0
 93 91  1  0
M  ISO  4  14 101  15 101  57 100  58 100
M  END
>  <TORSDO>  (60) 
F 20

>  <SCORE>  (60) 
-7.583

>  <name>  (60) 
59

>  <ligand_id>  (60) 
59

>  <original_smiles>  (60) 
[H]c1c([H])c([H])c2c(c1[H])C([H])([H])C([H])([H])C([H])([H])C2([H])N([H])C(=O)C1([H])N(C(=O)C([H])(N([H])C(=O)C([H])(N([H])C([H])([H])[H])C([H])([H])[H])C(C([H])([H])[H])(C([H])([H])[H])C([H])([H])[H])C([H])([H])c2c([H])c(OC([H])([H])C([H])([H])C3([H])C4([H])C([H])([H])C([H])([H])C([H])(C4([H])[H])C34C([H])([H])C([H])([H])[N+]([H])(C([H])([H])C([H])([H])C(=O)N3C([H])([H])C([H])([H])C([H])([H])C([H])(n5nc(-c6c([H])c([H])c(Oc7c([H])c([H])c(F)c([H])c7F)c([H])c6[H])c(C(=O)N([H])[H])c5N([H])[H])C3([H])[H])C4([H])[H])c([H])c([H])c2C1([H])[H]

>  <smiles>  (60) 
[H]c1c([H])c([H])c2c(c1[H])C([H])([H])C([H])([H])C([H])([H])C2([H])N([H])C(=O)C1([H])N(C(=O)C([H])(N([H])C(=O)C([H])(N([H])C([H])([H])[H])C([H])([H])[H])C(C([H])([H])[H])(C([H])([H])[H])C([H])([H])[H])C([H])([H])c2c([H])c(OC([H])([H])C([H])([H])C3([H])C4([H])C([H])([H])C([H])([H])C([H])(C4([H])[H])C34C([H])([H])C([H])([H])[N+]([H])(C([H])([H])C([H])([H])C(=O)N3C([H])([H])C([H])([H])C([H])([H])C([H])(n5nc(-c6c([H])c([H])c(Oc7c([H])c([H])c(F)c([H])c7F)c([H])c6[H])c(C(=O)N([H])[H])c5N([H])[H])C3([H])[H])C4([H])[H])c([H])c([H])c2C1([H])[H]

$$$$
60:0:0
     RDKit          3D

 86 94  0  0  1  0  0  0  0  0999 V2000
  -30.4340  -22.7950   20.7670 C   0  0  0  0  0  2  0  0  0  0  0  0
  -30.2540  -22.7520   19.2570 C   0  0  0  0  0  2  0  0  0  0  0  0
  -28.9140  -20.7330   21.3480 C   0  0  0  0  0  2  0  0  0  0  0  0
  -28.6560  -20.6750   19.1640 C   0  0  0  0  0  2  0  0  0  0  0  0
  -29.0050  -22.5080   21.2440 C   0  0  0  0  0  3  0  0  0  0  0  0
  -28.7540  -22.4560   19.1500 C   0  0  0  0  0  3  0  0  0  0  0  0
  -29.4040  -19.5260   20.2170 C   0  0  0  0  0  2  0  0  0  0  0  0
  -28.1270  -23.6230   20.2630 C   0  0  0  0  0  3  0  0  0  0  0  0
  -28.2000  -25.4370   20.2850 O   0  0  0  0  0  0  0  0  0  0  0  0
  -24.7190  -31.8570   23.1910 C   0  0  0  0  0  0  0  0  0  0  0  0
  -27.2260  -26.6810   20.2410 C   0  0  0  0  0  0  0  0  0  0  0  0
  -23.5350  -30.4610   21.5510 C   0  0  0  0  0  3  0  0  0  0  0  0
  -24.9790  -28.7810   20.1600 C   0  0  0  0  0  0  0  0  0  0  0  0
  -26.1190  -30.5630   21.4540 C   0  0  0  0  0  2  0  0  0  0  0  0
  -26.1760  -29.1180   20.8030 C   0  0  0  0  0  0  0  0  0  0  0  0
  -27.2790  -28.0990   20.8040 C   0  0  0  0  0  3  0  0  0  0  0  0
  -25.9930  -26.5740   19.5430 C   0  0  0  0  0  3  0  0  0  0  0  0
  -24.9310  -27.5370   19.5060 C   0  0  0  0  0  3  0  0  0  0  0  0
  -23.7820  -29.7510   20.1870 C   0  0  0  0  0  2  0  0  0  0  0  0
  -24.8160  -30.9960   22.1180 N   0  0  0  0  0  0  0  0  0  0  0  0
  -23.6230  -32.1690   23.6900 O   0  0  0  0  0  0  0  0  0  0  0  0
  -22.7990  -29.5000   22.5240 C   0  0  0  0  0  0  0  0  0  0  0  0
  -21.4620  -29.3710   22.4010 N   0  0  0  0  0  0  0  0  0  0  0  0
  -23.4420  -28.8640   23.3610 O   0  0  0  0  0  0  0  0  0  0  0  0
  -20.9910  -29.9320   21.7060 H   0  0  0  0  0  0  0  0  0  0  0  0
  -18.0560  -28.2120   22.9240 C   0  0  0  0  0  0  0  0  0  0  0  0
  -20.6220  -28.4450   23.1740 C   0  0  0  0  0  3  0  0  0  0  0  0
  -20.6990  -27.0120   22.5960 C   0  0  0  0  0  2  0  0  0  0  0  0
  -19.5880  -26.7100   21.5830 C   0  0  0  0  0  2  0  0  0  0  0  0
  -18.2120  -26.8670   22.2340 C   0  0  0  0  0  2  0  0  0  0  0  0
  -19.1860  -28.9590   23.3500 C   0  0  0  0  0  0  0  0  0  0  0  0
  -18.9810  -30.2150   23.9620 C   0  0  0  0  0  3  0  0  0  0  0  0
  -17.6820  -30.7250   24.1450 C   0  0  0  0  0  3  0  0  0  0  0  0
  -16.5670  -29.9760   23.7300 C   0  0  0  0  0  3  0  0  0  0  0  0
  -16.7550  -28.7200   23.1270 C   0  0  0  0  0  3  0  0  0  0  0  0
  -25.9790  -32.5050   23.8430 C   0  0  0  0  0  3  0  0  0  0  0  0
  -25.6520  -33.9010   24.2000 N   0  0  0  0  0  0  0  0  0  0  0  0
  -25.9640  -34.9800   23.4690 C   0  0  0  0  0  0  0  0  0  0  0  0
  -26.6140  -34.9060   22.4240 O   0  0  0  0  0  0  0  0  0  0  0  0
  -25.0720  -34.0310   25.0160 H   0  0  0  0  0  0  0  0  0  0  0  0
  -24.2070  -36.7720   23.2240 C   0  0  0  0  0  1  0  0  0  0  0  0
  -25.4850  -36.3590   23.9740 C   0  0  0  0  0  3  0  0  0  0  0  0
  -27.6430  -37.2580   24.7320 C   0  0  0  0  0  1  0  0  0  0  0  0
  -26.5020  -37.4260   23.8360 N   0  0  0  0  0  0  0  0  0  0  0  0
  -26.0910  -38.3400   24.0130 H   0  0  0  0  0  0  0  0  0  0  0  0
  -26.4730  -31.7330   25.1290 C   0  0  1  0  0  0  0  0  0  0  0  0
  -25.3660  -31.5020   26.1840 C   0  0  0  0  0  1  0  0  0  0  0  0
  -27.0570  -30.3520   24.7590 C   0  0  0  0  0  1  0  0  0  0  0  0
  -27.6200  -32.5220   25.8070 C   0  0  0  0  0  1  0  0  0  0  0  0
  -29.3010  -17.5210   20.3270 C   0  0  0  0  0  1  0  0  0  0  0  0
  -30.1930  -15.8230   20.1460 C   0  0  0  0  0  0  0  0  0  0  0  0
  -30.3850  -13.2360   19.3550 C   0  0  0  0  0  2  0  0  0  0  0  0
  -29.4960  -12.7930   18.1510 C   0  0  0  0  0  2  0  0  0  0  0  0
  -28.0810  -12.4080   18.6080 C   0  0  0  0  0  2  0  0  0  0  0  0
  -27.5570  -13.4050   19.6650 C   0  0  0  0  0  3  0  0  0  0  0  0
  -28.5850  -13.7470   20.7680 C   0  0  0  0  0  2  0  0  0  0  0  0
  -29.7470  -14.4100   20.1230 N   0  0  0  0  0  0  0  0  0  0  0  0
  -31.4210  -15.7700   19.9180 O   0  0  0  0  0  0  0  0  0  0  0  0
  -25.1990  -13.9010   20.4560 C   0  0  0  0  0  0  0  0  0  0  0  0
  -24.1530  -13.1090   20.8320 C   0  0  0  0  0  0  0  0  0  0  0  0
  -24.6390  -11.7640   20.7970 C   0  0  0  0  0  0  0  0  0  0  0  0
  -26.2510  -13.0430   20.1990 N   0  0  0  0  0  0  0  0  0  0  0  0
  -25.9300  -11.7500   20.4720 N   0  0  0  0  0  0  0  0  0  0  0  0
  -23.9270  -10.4940   20.9940 C   0  0  0  0  0  0  0  0  0  0  0  0
  -24.3680   -9.5320   21.9290 C   0  0  0  0  0  3  0  0  0  0  0  0
  -23.6500   -8.3310   22.1160 C   0  0  0  0  0  3  0  0  0  0  0  0
  -22.4750   -8.0830   21.3680 C   0  0  0  0  0  0  0  0  0  0  0  0
  -22.0510   -9.0330   20.4230 C   0  0  0  0  0  3  0  0  0  0  0  0
  -22.7700  -10.2250   20.2340 C   0  0  0  0  0  3  0  0  0  0  0  0
  -21.7270   -6.9330   21.4640 O   0  0  0  0  0  0  0  0  0  0  0  0
  -21.6850   -6.1970   22.6210 C   0  0  0  0  0  0  0  0  0  0  0  0
  -21.2630   -6.7570   23.8460 C   0  0  0  0  0  3  0  0  0  0  0  0
  -21.1680   -5.9460   24.9950 C   0  0  0  0  0  3  0  0  0  0  0  0
  -21.4850   -4.5760   24.9200 C   0  0  0  0  0  0  0  0  0  0  0  0
  -21.9000   -4.0150   23.6990 C   0  0  0  0  0  3  0  0  0  0  0  0
  -21.9970   -4.8230   22.5520 C   0  0  0  0  0  0  0  0  0  0  0  0
  -22.3760   -4.2720   21.3740 F   0  0  0  0  0  0  0  0  0  0  0  0
  -21.3860   -3.7950   26.0210 F   0  0  0  0  0  0  0  0  0  0  0  0
  -22.7520  -13.5690   21.1070 C   0  0  0  0  0  0  0  0  0  0  0  0
  -22.0370  -12.8710   21.9820 N   0  0  0  0  0  0  0  0  0  0  0  0
  -22.3020  -14.5860   20.5820 O   0  0  0  0  0  0  0  0  0  0  0  0
  -22.4170  -12.0480   22.4270 H   0  0  0  0  0  0  0  0  0  0  0  0
  -21.0980  -13.1620   22.2090 H   0  0  0  0  0  0  0  0  0  0  0  0
  -25.3410  -15.2740   20.2790 N   0  0  0  0  0  0  0  0  0  0  0  0
  -24.5680  -15.9180   20.4030 H   0  0  0  0  0  0  0  0  0  0  0  0
  -26.1850  -15.7270   19.9520 H   0  0  0  0  0  0  0  0  0  0  0  0
  2  1  1  0
  4  7  1  0
  5  1  1  0
  5  3  1  0
  6  4  1  0
  6  2  1  0
  6  8  1  0
  7  3  1  0
  8  9  1  0
  8  5  1  0
 10 21  2  0
 11  9  1  0
 11 16  1  0
 12 20  1  0
 12 22  1  0
 13 19  1  0
 13 15  1  0
 14 20  1  0
 15 16  2  0
 15 14  1  0
 17 11  2  0
 18 17  1  0
 18 13  2  0
 19 12  1  0
 20 10  1  0
 22 24  2  0
 23 22  1  0
 25 23  1  0
 26 35  2  0
 26 31  1  0
 27 23  1  0
 27 31  1  0
 28 27  1  0
 29 30  1  0
 29 28  1  0
 30 26  1  0
 31 32  2  0
 32 33  1  0
 34 33  2  0
 35 34  1  0
 36 10  1  0
 36 37  1  0
 36 46  1  0
 37 40  1  0
 38 42  1  0
 38 37  1  0
 39 38  2  0
 42 41  1  0
 44 42  1  0
 44 45  1  0
 44 43  1  0
 46 49  1  1
 46 47  1  0
 48 46  1  0
 51 50  1  0
 52 57  1  0
 53 54  1  0
 53 52  1  0
 55 54  1  0
 55 62  1  0
 55 56  1  0
 57 51  1  0
 57 56  1  0
 58 51  2  0
 59 60  2  0
 60 79  1  0
 61 60  1  0
 61 64  1  0
 62 59  1  0
 62 63  1  0
 63 61  2  0
 64 65  1  0
 65 66  2  0
 67 70  1  0
 67 66  1  0
 68 67  2  0
 69 68  1  0
 69 64  2  0
 70 71  1  0
 71 72  1  0
 72 73  2  0
 74 73  1  0
 74 78  1  0
 75 74  2  0
 76 71  2  0
 76 75  1  0
 77 76  1  0
 79 80  1  0
 80 83  1  0
 80 82  1  0
 81 79  2  0
 84 85  1  0
 84 59  1  0
 86 84  1  0
M  ISO  4   8 101   9 101  50 100  51 100
M  END
>  <TORSDO>  (61) 
F 17

>  <SCORE>  (61) 
-16.469

>  <name>  (61) 
60

>  <ligand_id>  (61) 
60

>  <original_smiles>  (61) 
[H]c1c([H])c([H])c2c(c1[H])C([H])([H])C([H])([H])C([H])([H])C2([H])N([H])C(=O)C1([H])N(C(=O)C([H])(N([H])C(=O)C([H])(N([H])C([H])([H])[H])C([H])([H])[H])C(C([H])([H])[H])(C([H])([H])[H])C([H])([H])[H])C([H])([H])c2c([H])c(OC3([H])C4([H])C([H])([H])C([H])([H])C3([H])C([H])([H])C([H])(C([H])([H])C(=O)N3C([H])([H])C([H])([H])C([H])([H])C([H])(n5nc(-c6c([H])c([H])c(Oc7c([H])c([H])c(F)c([H])c7F)c([H])c6[H])c(C(=O)N([H])[H])c5N([H])[H])C3([H])[H])C4([H])[H])c([H])c([H])c2C1([H])[H]

>  <smiles>  (61) 
[H]c1c([H])c([H])c2c(c1[H])C([H])([H])C([H])([H])C([H])([H])C2([H])N([H])C(=O)C1([H])N(C(=O)C([H])(N([H])C(=O)C([H])(N([H])C([H])([H])[H])C([H])([H])[H])C(C([H])([H])[H])(C([H])([H])[H])C([H])([H])[H])C([H])([H])c2c([H])c(OC3([H])C4([H])C([H])([H])C([H])([H])C3([H])C([H])([H])C([H])(C([H])([H])C(=O)N3C([H])([H])C([H])([H])C([H])([H])C([H])(n5nc(-c6c([H])c([H])c(Oc7c([H])c([H])c(F)c([H])c7F)c([H])c6[H])c(C(=O)N([H])[H])c5N([H])[H])C3([H])[H])C4([H])[H])c([H])c([H])c2C1([H])[H]

$$$$
61:0:0
     RDKit          3D

 85 91  0  0  1  0  0  0  0  0999 V2000
  -30.5530  -20.3160   22.0620 C   0  0  0  0  0  2  0  0  0  0  0  0
  -30.8610  -20.2350   20.5700 C   0  0  0  0  0  2  0  0  0  0  0  0
  -29.0820  -22.5980   21.6140 C   0  0  0  0  0  2  0  0  0  0  0  0
  -28.5680  -21.6440   19.6090 C   0  0  0  0  0  2  0  0  0  0  0  0
  -29.2110  -20.9160   21.6480 C   0  0  0  0  0  3  0  0  0  0  0  0
  -28.2210  -23.3550   20.4570 C   0  0  0  0  0  2  0  0  0  0  0  0
  -29.3520  -20.0240   20.3050 C   0  0  0  0  0  3  0  0  0  0  0  0
  -28.1890  -25.2560   20.3370 O   0  0  0  0  0  1  0  0  0  0  0  0
  -24.6880  -31.9030   23.2340 C   0  0  0  0  0  0  0  0  0  0  0  0
  -27.2130  -26.5650   20.3410 C   0  0  0  0  0  0  0  0  0  0  0  0
  -23.5120  -30.4770   21.6150 C   0  0  0  0  0  3  0  0  0  0  0  0
  -24.9630  -28.7570   20.2500 C   0  0  0  0  0  0  0  0  0  0  0  0
  -26.1040  -30.5420   21.5300 C   0  0  0  0  0  2  0  0  0  0  0  0
  -26.1650  -29.0750   20.8900 C   0  0  0  0  0  0  0  0  0  0  0  0
  -27.2640  -28.0190   20.8880 C   0  0  0  0  0  3  0  0  0  0  0  0
  -25.9640  -26.5200   19.6470 C   0  0  0  0  0  3  0  0  0  0  0  0
  -24.9170  -27.5070   19.6010 C   0  0  0  0  0  3  0  0  0  0  0  0
  -23.7680  -29.7400   20.2660 C   0  0  0  0  0  2  0  0  0  0  0  0
  -24.7940  -31.0160   22.1760 N   0  0  0  0  0  0  0  0  0  0  0  0
  -23.5900  -32.2220   23.7230 O   0  0  0  0  0  0  0  0  0  0  0  0
  -22.7670  -29.5390   22.6060 C   0  0  0  0  0  0  0  0  0  0  0  0
  -21.4320  -29.3930   22.4730 N   0  0  0  0  0  0  0  0  0  0  0  0
  -23.4050  -28.9360   23.4700 O   0  0  0  0  0  0  0  0  0  0  0  0
  -20.9630  -29.9290   21.7570 H   0  0  0  0  0  0  0  0  0  0  0  0
  -18.0410  -28.1630   22.9760 C   0  0  0  0  0  0  0  0  0  0  0  0
  -20.5970  -28.4700   23.2560 C   0  0  0  0  0  3  0  0  0  0  0  0
  -20.7170  -27.0240   22.7180 C   0  0  0  0  0  2  0  0  0  0  0  0
  -19.6310  -26.6690   21.6970 C   0  0  0  0  0  2  0  0  0  0  0  0
  -18.2400  -26.8070   22.3220 C   0  0  0  0  0  2  0  0  0  0  0  0
  -19.1460  -28.9530   23.3990 C   0  0  0  0  0  0  0  0  0  0  0  0
  -18.9000  -30.2160   23.9750 C   0  0  0  0  0  3  0  0  0  0  0  0
  -17.5850  -30.6950   24.1310 C   0  0  0  0  0  3  0  0  0  0  0  0
  -16.4970  -29.9070   23.7190 C   0  0  0  0  0  3  0  0  0  0  0  0
  -16.7250  -28.6430   23.1480 C   0  0  0  0  0  3  0  0  0  0  0  0
  -25.9390  -32.5720   23.8820 C   0  0  0  0  0  3  0  0  0  0  0  0
  -25.6040  -33.9750   24.2080 N   0  0  0  0  0  0  0  0  0  0  0  0
  -25.9140  -35.0430   23.4580 C   0  0  0  0  0  0  0  0  0  0  0  0
  -26.5610  -34.9520   22.4140 O   0  0  0  0  0  0  0  0  0  0  0  0
  -25.0250  -34.1170   25.0210 H   0  0  0  0  0  0  0  0  0  0  0  0
  -24.1520  -36.8290   23.1890 C   0  0  0  0  0  1  0  0  0  0  0  0
  -25.4350  -36.4320   23.9390 C   0  0  0  0  0  3  0  0  0  0  0  0
  -27.5930  -37.3570   24.6680 C   0  0  0  0  0  1  0  0  0  0  0  0
  -26.4480  -37.5000   23.7730 N   0  0  0  0  0  0  0  0  0  0  0  0
  -26.0360  -38.4150   23.9280 H   0  0  0  0  0  0  0  0  0  0  0  0
  -26.4270  -31.8310   25.1890 C   0  0  1  0  0  0  0  0  0  0  0  0
  -25.3130  -31.6150   26.2410 C   0  0  0  0  0  1  0  0  0  0  0  0
  -27.0200  -30.4430   24.8610 C   0  0  0  0  0  1  0  0  0  0  0  0
  -27.5670  -32.6390   25.8510 C   0  0  0  0  0  1  0  0  0  0  0  0
  -29.2280  -17.9210   20.1120 C   0  0  0  0  0 15  0  0  0  0  0  0
  -30.1120  -16.1170   20.1060 C   0  0  0  0  0  2  0  0  0  0  0  0
  -30.3620  -13.4690   19.3450 C   0  0  0  0  0  2  0  0  0  0  0  0
  -29.4970  -12.9360   18.1560 C   0  0  0  0  0  2  0  0  0  0  0  0
  -28.0990  -12.4980   18.6160 C   0  0  0  0  0  2  0  0  0  0  0  0
  -27.5500  -13.4880   19.6600 C   0  0  0  0  0  3  0  0  0  0  0  0
  -28.5690  -13.9290   20.7430 C   0  0  0  0  0  2  0  0  0  0  0  0
  -29.6870  -14.6670   20.0790 N   0  0  0  0  0  0  0  0  0  0  0  0
  -31.3520  -16.0150   19.9390 O   0  0  0  0  0  1  0  0  0  0  0  0
  -25.2050  -13.9570   20.4850 C   0  0  0  0  0  0  0  0  0  0  0  0
  -24.1630  -13.1590   20.8600 C   0  0  0  0  0  0  0  0  0  0  0  0
  -24.6510  -11.8150   20.8080 C   0  0  0  0  0  0  0  0  0  0  0  0
  -26.2560  -13.1050   20.2100 N   0  0  0  0  0  0  0  0  0  0  0  0
  -25.9390  -11.8070   20.4690 N   0  0  0  0  0  0  0  0  0  0  0  0
  -23.9390  -10.5420   21.0010 C   0  0  0  0  0  0  0  0  0  0  0  0
  -24.3790   -9.5810   21.9380 C   0  0  0  0  0  3  0  0  0  0  0  0
  -23.6640   -8.3760   22.1190 C   0  0  0  0  0  3  0  0  0  0  0  0
  -22.4970   -8.1240   21.3620 C   0  0  0  0  0  0  0  0  0  0  0  0
  -22.0750   -9.0720   20.4130 C   0  0  0  0  0  3  0  0  0  0  0  0
  -22.7890  -10.2690   20.2320 C   0  0  0  0  0  3  0  0  0  0  0  0
  -21.7510   -6.9710   21.4520 O   0  0  0  0  0  0  0  0  0  0  0  0
  -21.6900   -6.2390   22.6110 C   0  0  0  0  0  0  0  0  0  0  0  0
  -21.2240   -6.8000   23.8210 C   0  0  0  0  0  3  0  0  0  0  0  0
  -21.1150   -5.9940   24.9730 C   0  0  0  0  0  3  0  0  0  0  0  0
  -21.4600   -4.6300   24.9150 C   0  0  0  0  0  0  0  0  0  0  0  0
  -21.9170   -4.0700   23.7100 C   0  0  0  0  0  3  0  0  0  0  0  0
  -22.0290   -4.8720   22.5610 C   0  0  0  0  0  0  0  0  0  0  0  0
  -22.4510   -4.3210   21.3960 F   0  0  0  0  0  0  0  0  0  0  0  0
  -21.3450   -3.8550   26.0200 F   0  0  0  0  0  0  0  0  0  0  0  0
  -22.7630  -13.6150   21.1480 C   0  0  0  0  0  0  0  0  0  0  0  0
  -22.0510  -12.9070   22.0180 N   0  0  0  0  0  0  0  0  0  0  0  0
  -22.3080  -14.6370   20.6380 O   0  0  0  0  0  0  0  0  0  0  0  0
  -22.4320  -12.0860   22.4630 H   0  0  0  0  0  0  0  0  0  0  0  0
  -21.1090  -13.1930   22.2440 H   0  0  0  0  0  0  0  0  0  0  0  0
  -25.3550  -15.3320   20.3160 N   0  0  0  0  0  0  0  0  0  0  0  0
  -24.6040  -16.0020   20.4380 H   0  0  0  0  0  0  0  0  0  0  0  0
  -26.2070  -15.7560   19.9670 H   0  0  0  0  0  0  0  0  0  0  0  0
  2  1  1  0
  4  6  1  0
  5  3  1  0
  5  1  1  0
  6  3  1  0
  7  4  1  0
  7  2  1  0
  7  5  1  0
  8 10  1  0
  9 20  2  0
 10 15  1  0
 11 19  1  0
 11 21  1  0
 12 18  1  0
 12 14  1  0
 13 19  1  0
 14 13  1  0
 15 14  2  0
 16 10  2  0
 17 16  1  0
 17 12  2  0
 18 11  1  0
 19  9  1  0
 21 23  2  0
 22 21  1  0
 24 22  1  0
 25 34  2  0
 25 30  1  0
 26 22  1  0
 26 30  1  0
 27 26  1  0
 28 29  1  0
 28 27  1  0
 29 25  1  0
 30 31  2  0
 31 32  1  0
 33 32  2  0
 34 33  1  0
 35  9  1  0
 35 36  1  0
 35 45  1  0
 36 39  1  0
 37 41  1  0
 37 36  1  0
 38 37  2  0
 41 40  1  0
 43 44  1  0
 43 41  1  0
 43 42  1  0
 45 48  1  1
 45 46  1  0
 47 45  1  0
 51 56  1  0
 52 53  1  0
 52 51  1  0
 54 53  1  0
 54 61  1  0
 54 55  1  0
 56 50  1  0
 56 55  1  0
 57 50  1  0
 58 59  2  0
 59 78  1  0
 60 59  1  0
 60 63  1  0
 61 62  1  0
 61 58  1  0
 62 60  2  0
 63 64  1  0
 64 65  2  0
 66 69  1  0
 66 65  1  0
 67 66  2  0
 68 67  1  0
 68 63  2  0
 69 70  1  0
 70 71  1  0
 71 72  2  0
 73 72  1  0
 73 77  1  0
 74 73  2  0
 75 70  2  0
 75 74  1  0
 76 75  1  0
 78 79  1  0
 79 82  1  0
 79 81  1  0
 80 78  2  0
 83 84  1  0
 83 58  1  0
 85 83  1  0
M  ISO  4   6 101   8 101  49 100  50 100
M  END
>  <TORSDO>  (62) 
F 17

>  <SCORE>  (62) 
-16.422

>  <name>  (62) 
61

>  <ligand_id>  (62) 
61

>  <original_smiles>  (62) 
[H]c1c([H])c([H])c2c(c1[H])C([H])([H])C([H])([H])C([H])([H])C2([H])N([H])C(=O)C1([H])N(C(=O)C([H])(N([H])C(=O)C([H])(N([H])C([H])([H])[H])C([H])([H])[H])C(C([H])([H])[H])(C([H])([H])[H])C([H])([H])[H])C([H])([H])c2c([H])c(OC3([H])C([H])([H])C4([H])C([H])([H])C([H])([H])C4(C([H])([H])C(=O)N4C([H])([H])C([H])([H])C([H])([H])C([H])(n5nc(-c6c([H])c([H])c(Oc7c([H])c([H])c(F)c([H])c7F)c([H])c6[H])c(C(=O)N([H])[H])c5N([H])[H])C4([H])[H])C3([H])[H])c([H])c([H])c2C1([H])[H]

>  <smiles>  (62) 
[H]c1c([H])c([H])c2c(c1[H])C([H])([H])C([H])([H])C([H])([H])C2([H])N([H])C(=O)C1([H])N(C(=O)C([H])(N([H])C(=O)C([H])(N([H])C([H])([H])[H])C([H])([H])[H])C(C([H])([H])[H])(C([H])([H])[H])C([H])([H])[H])C([H])([H])c2c([H])c(OC3([H])C([H])([H])C4([H])C([H])([H])C([H])([H])C4(C([H])([H])C(=O)N4C([H])([H])C([H])([H])C([H])([H])C([H])(n5nc(-c6c([H])c([H])c(Oc7c([H])c([H])c(F)c([H])c7F)c([H])c6[H])c(C(=O)N([H])[H])c5N([H])[H])C4([H])[H])C3([H])[H])c([H])c([H])c2C1([H])[H]

$$$$
62:0:0
     RDKit          3D

 90 95  0  0  1  0  0  0  0  0999 V2000
  -26.4610  -17.4220   19.3650 C   0  0  0  0  0  2  0  0  0  0  0  0
  -28.6750  -17.6300   20.7170 C   0  0  0  0  0  2  0  0  0  0  0  0
  -28.5970  -17.6540   18.1750 C   0  0  0  0  0  2  0  0  0  0  0  0
  -26.9530  -19.4970   20.3870 C   0  0  0  0  0  2  0  0  0  0  0  0
  -27.1620  -18.0150   20.6150 C   0  0  0  0  0  3  0  0  0  0  0  0
  -27.1530  -18.2600   18.3330 C   0  0  0  0  0  3  0  0  0  0  0  0
  -29.5500  -17.7330   19.4180 C   0  0  0  0  0  2  0  0  0  0  0  0
  -25.9570  -20.4560   18.3540 C   0  0  0  0  0  1  0  0  0  0  0  0
  -27.0370  -19.6210   18.9060 N   0  0  1  0  0  4  0  0  0  0  0  0
  -27.9170  -20.0820   18.6930 H   0  0  0  0  0  0  0  0  0  0  0  0
  -30.4180  -15.9210   19.4500 C   0  0  0  0  0  2  0  0  0  0  0  0
  -30.6230  -13.2240   18.9080 C   0  0  0  0  0  2  0  0  0  0  0  0
  -29.7040  -12.5950   17.8030 C   0  0  0  0  0  2  0  0  0  0  0  0
  -28.3280  -12.2030   18.3650 C   0  0  0  0  0  2  0  0  0  0  0  0
  -27.8240  -13.2780   19.3490 C   0  0  0  0  0  3  0  0  0  0  0  0
  -28.8990  -13.7840   20.3480 C   0  0  0  0  0  2  0  0  0  0  0  0
  -29.9880  -14.4790   19.5770 N   0  0  0  0  0  0  0  0  0  0  0  0
  -31.6430  -15.8000   19.2040 O   0  0  0  0  0  1  0  0  0  0  0  0
  -25.5790  -13.8100   20.3970 C   0  0  0  0  0  0  0  0  0  0  0  0
  -24.5110  -13.0980   20.8140 C   0  0  0  0  0  0  0  0  0  0  0  0
  -24.9100  -11.7430   20.6660 C   0  0  0  0  0  0  0  0  0  0  0  0
  -26.5550  -12.9360   19.9880 N   0  0  0  0  0  0  0  0  0  0  0  0
  -26.1680  -11.6590   20.2190 N   0  0  0  0  0  0  0  0  0  0  0  0
  -24.1250  -10.5350   20.8730 C   0  0  0  0  0  0  0  0  0  0  0  0
  -24.5340   -9.5530   21.7980 C   0  0  0  0  0  3  0  0  0  0  0  0
  -23.7420   -8.4060   21.9990 C   0  0  0  0  0  3  0  0  0  0  0  0
  -22.5370   -8.2430   21.2780 C   0  0  0  0  0  0  0  0  0  0  0  0
  -22.1440   -9.2220   20.3510 C   0  0  0  0  0  3  0  0  0  0  0  0
  -22.9340  -10.3600   20.1440 C   0  0  0  0  0  3  0  0  0  0  0  0
  -21.7200   -7.1460   21.3920 O   0  0  0  0  0  0  0  0  0  0  0  0
  -21.6260   -6.4470   22.5660 C   0  0  0  0  0  0  0  0  0  0  0  0
  -21.1880   -7.0560   23.7620 C   0  0  0  0  0  3  0  0  0  0  0  0
  -21.0380   -6.2830   24.9300 C   0  0  0  0  0  3  0  0  0  0  0  0
  -21.3170   -4.9040   24.9010 C   0  0  0  0  0  0  0  0  0  0  0  0
  -21.7530   -4.2960   23.7120 C   0  0  0  0  0  3  0  0  0  0  0  0
  -21.9050   -5.0660   22.5450 C   0  0  0  0  0  0  0  0  0  0  0  0
  -22.3080   -4.4740   21.3940 F   0  0  0  0  0  0  0  0  0  0  0  0
  -21.1620   -4.1590   26.0210 F   0  0  0  0  0  0  0  0  0  0  0  0
  -23.1820  -13.6700   21.2210 C   0  0  0  0  0  0  0  0  0  0  0  0
  -22.4870  -13.0100   22.1410 N   0  0  0  0  0  0  0  0  0  0  0  0
  -22.7790  -14.7460   20.7710 O   0  0  0  0  0  0  0  0  0  0  0  0
  -22.8300  -12.1460   22.5360 H   0  0  0  0  0  0  0  0  0  0  0  0
  -21.6020  -13.3810   22.4570 H   0  0  0  0  0  0  0  0  0  0  0  0
  -25.7510  -15.1410   20.3190 N   0  0  0  0  0  0  0  0  0  0  0  0
  -24.9690  -15.7620   20.4870 H   0  0  0  0  0  0  0  0  0  0  0  0
  -26.5560  -15.6020   19.9180 H   0  0  0  0  0  0  0  0  0  0  0  0
  -29.8860  -19.7700   19.2890 C   0  0  0  0  0 15  0  0  0  0  0  0
  -29.0130  -21.6320   19.0500 C   0  0  0  0  0 15  0  0  0  0  0  0
  -28.6190  -23.5500   19.6050 C   0  0  0  0  0  1  0  0  0  0  0  0
  -28.4200  -25.3260   19.2420 O   0  0  0  0  0  0  0  0  0  0  0  0
  -24.6630  -31.3540   22.7350 C   0  0  0  0  0  0  0  0  0  0  0  0
  -27.3530  -26.4920   19.3970 C   0  0  0  0  0  0  0  0  0  0  0  0
  -23.5040  -30.0170   21.0270 C   0  0  0  0  0  3  0  0  0  0  0  0
  -24.9780  -28.4830   19.5110 C   0  0  0  0  0  0  0  0  0  0  0  0
  -26.0700  -30.2390   20.8790 C   0  0  0  0  0  2  0  0  0  0  0  0
  -26.1800  -28.8360   20.1420 C   0  0  0  0  0  0  0  0  0  0  0  0
  -27.3380  -27.8800   20.0460 C   0  0  0  0  0  3  0  0  0  0  0  0
  -26.0890  -26.3650   18.7480 C   0  0  0  0  0  3  0  0  0  0  0  0
  -24.9760  -27.2710   18.7960 C   0  0  0  0  0  3  0  0  0  0  0  0
  -23.7350  -29.3870   19.6220 C   0  0  0  0  0  2  0  0  0  0  0  0
  -24.7700  -30.5700   21.6010 N   0  0  0  0  0  0  0  0  0  0  0  0
  -23.5720  -31.5850   23.2800 O   0  0  0  0  0  0  0  0  0  0  0  0
  -22.8330  -28.9650   21.9500 C   0  0  0  0  0  0  0  0  0  0  0  0
  -21.4960  -28.8070   21.8750 N   0  0  0  0  0  0  0  0  0  0  0  0
  -23.5290  -28.2930   22.7120 O   0  0  0  0  0  0  0  0  0  0  0  0
  -20.9800  -29.3860   21.2230 H   0  0  0  0  0  0  0  0  0  0  0  0
  -18.1360  -27.5820   22.5240 C   0  0  0  0  0  0  0  0  0  0  0  0
  -20.7120  -27.8180   22.6250 C   0  0  0  0  0  3  0  0  0  0  0  0
  -20.7710  -26.4160   21.9820 C   0  0  0  0  0  2  0  0  0  0  0  0
  -19.6090  -26.1240   21.0210 C   0  0  0  0  0  2  0  0  0  0  0  0
  -18.2420  -26.3160   21.6880 C   0  0  0  0  0  2  0  0  0  0  0  0
  -19.2950  -28.2940   22.9470 C   0  0  0  0  0  0  0  0  0  0  0  0
  -19.1350  -29.4480   23.7370 C   0  0  0  0  0  3  0  0  0  0  0  0
  -17.8570  -29.9100   24.0930 C   0  0  0  0  0  3  0  0  0  0  0  0
  -16.7120  -29.2150   23.6610 C   0  0  0  0  0  3  0  0  0  0  0  0
  -16.8570  -28.0590   22.8810 C   0  0  0  0  0  3  0  0  0  0  0  0
  -25.9140  -32.0120   23.3960 C   0  0  0  0  0  3  0  0  0  0  0  0
  -26.4930  -31.1740   24.6060 C   0  0  1  0  0  0  0  0  0  0  0  0
  -25.4400  -30.8180   25.6830 C   0  0  0  0  0  1  0  0  0  0  0  0
  -27.1260  -29.8500   24.1200 C   0  0  0  0  0  1  0  0  0  0  0  0
  -27.6300  -31.9670   25.2990 C   0  0  0  0  0  1  0  0  0  0  0  0
  -25.5390  -33.3600   23.8690 N   0  0  0  0  0  0  0  0  0  0  0  0
  -25.7910  -34.5050   23.2210 C   0  0  0  0  0  0  0  0  0  0  0  0
  -26.4250  -34.5450   22.1630 O   0  0  0  0  0  0  0  0  0  0  0  0
  -24.9730  -33.3970   24.7060 H   0  0  0  0  0  0  0  0  0  0  0  0
  -23.9590  -36.2360   23.1360 C   0  0  0  0  0  1  0  0  0  0  0  0
  -25.2610  -35.8180   23.8380 C   0  0  0  0  0  3  0  0  0  0  0  0
  -27.3850  -36.7490   24.6510 C   0  0  0  0  0  1  0  0  0  0  0  0
  -26.2300  -36.9340   23.7760 N   0  0  0  0  0  0  0  0  0  0  0  0
  -25.7830  -37.8120   24.0260 H   0  0  0  0  0  0  0  0  0  0  0  0
  3  7  1  0
  4  5  1  0
  5  1  1  0
  5  2  1  0
  6  3  1  0
  6  9  1  0
  6  1  1  0
  7  2  1  0
  8  9  1  0
  9  4  1  0
  9 10  1  1
 11 17  1  0
 12 17  1  0
 13 14  1  0
 13 12  1  0
 15 14  1  0
 15 22  1  0
 15 16  1  0
 17 16  1  0
 18 11  1  0
 19 20  2  0
 20 39  1  0
 21 20  1  0
 21 24  1  0
 22 23  1  0
 22 19  1  0
 23 21  2  0
 24 25  1  0
 25 26  2  0
 27 30  1  0
 27 26  1  0
 28 27  2  0
 29 28  1  0
 29 24  2  0
 30 31  1  0
 31 32  1  0
 32 33  2  0
 34 33  1  0
 34 38  1  0
 35 34  2  0
 36 31  2  0
 36 35  1  0
 37 36  1  0
 39 40  1  0
 40 43  1  0
 40 42  1  0
 41 39  2  0
 44 19  1  0
 44 45  1  0
 46 44  1  0
 50 52  1  0
 50 49  1  0
 51 62  2  0
 52 57  1  0
 53 61  1  0
 53 63  1  0
 54 60  1  0
 54 56  1  0
 55 61  1  0
 56 55  1  0
 57 56  2  0
 58 59  1  0
 58 52  2  0
 59 54  2  0
 60 53  1  0
 61 51  1  0
 63 65  2  0
 64 63  1  0
 66 64  1  0
 67 76  2  0
 67 72  1  0
 68 64  1  0
 68 72  1  0
 69 68  1  0
 70 71  1  0
 70 69  1  0
 71 67  1  0
 72 73  2  0
 73 74  1  0
 75 74  2  0
 76 75  1  0
 77 51  1  0
 77 82  1  0
 77 78  1  0
 78 81  1  1
 78 79  1  0
 80 78  1  0
 82 85  1  0
 83 87  1  0
 83 82  1  0
 84 83  2  0
 87 86  1  0
 89 87  1  0
 89 90  1  0
 89 88  1  0
M  ISO  4   7 100  11 100  49 101  50 101
M  END
>  <TORSDO>  (63) 
F 19

>  <SCORE>  (63) 
-13.182

>  <name>  (63) 
62

>  <ligand_id>  (63) 
62

>  <original_smiles>  (63) 
[H]c1c([H])c([H])c2c(c1[H])C([H])([H])C([H])([H])C([H])([H])C2([H])N([H])C(=O)C1([H])N(C(=O)C([H])(N([H])C(=O)C([H])(N([H])C([H])([H])[H])C([H])([H])[H])C(C([H])([H])[H])(C([H])([H])[H])C([H])([H])[H])C([H])([H])c2c([H])c(OC([H])([H])C([H])([H])C([H])([H])C3(C(=O)N4C([H])([H])C([H])([H])C([H])([H])C([H])(n5nc(-c6c([H])c([H])c(Oc7c([H])c([H])c(F)c([H])c7F)c([H])c6[H])c(C(=O)N([H])[H])c5N([H])[H])C4([H])[H])C([H])([H])C4([H])C([H])([H])C([H])(C3([H])[H])[N+]([H])(C([H])([H])[H])C4([H])[H])c([H])c([H])c2C1([H])[H]

>  <smiles>  (63) 
[H]c1c([H])c([H])c2c(c1[H])C([H])([H])C([H])([H])C([H])([H])C2([H])N([H])C(=O)C1([H])N(C(=O)C([H])(N([H])C(=O)C([H])(N([H])C([H])([H])[H])C([H])([H])[H])C(C([H])([H])[H])(C([H])([H])[H])C([H])([H])[H])C([H])([H])c2c([H])c(OC([H])([H])C([H])([H])C([H])([H])C3(C(=O)N4C([H])([H])C([H])([H])C([H])([H])C([H])(n5nc(-c6c([H])c([H])c(Oc7c([H])c([H])c(F)c([H])c7F)c([H])c6[H])c(C(=O)N([H])[H])c5N([H])[H])C4([H])[H])C([H])([H])C4([H])C([H])([H])C([H])(C3([H])[H])[N+]([H])(C([H])([H])[H])C4([H])[H])c([H])c([H])c2C1([H])[H]

$$$$
63:0:0
     RDKit          3D

 84 88  0  0  1  0  0  0  0  0999 V2000
  -27.0810  -20.2800   20.2190 C   0  0  0  0  0  2  0  0  0  0  0  0
  -27.9100  -19.6010   19.1030 C   0  0  0  0  0  2  0  0  0  0  0  0
  -27.9610  -21.2890   20.9900 C   0  0  0  0  0  2  0  0  0  0  0  0
  -29.3830  -19.7800   19.4690 C   0  0  0  0  0  1  0  0  0  0  0  0
  -29.0700  -21.7170   20.0360 C   0  0  0  0  0  1  0  0  0  0  0  0
  -29.8850  -17.8890   20.0970 C   0  0  0  0  0 15  0  0  0  0  0  0
  -30.5230  -16.0710   19.6840 C   0  0  0  0  0  2  0  0  0  0  0  0
  -30.6430  -13.4350   18.9460 C   0  0  0  0  0  2  0  0  0  0  0  0
  -29.7080  -12.9370   17.7980 C   0  0  0  0  0  2  0  0  0  0  0  0
  -28.3310  -12.5380   18.3420 C   0  0  0  0  0  2  0  0  0  0  0  0
  -27.8500  -13.5650   19.3870 C   0  0  0  0  0  3  0  0  0  0  0  0
  -28.9230  -13.9810   20.4280 C   0  0  0  0  0  2  0  0  0  0  0  0
  -30.0470  -14.6510   19.7120 N   0  0  0  0  0  0  0  0  0  0  0  0
  -31.7170  -15.9400   19.3260 O   0  0  0  0  0  1  0  0  0  0  0  0
  -25.5720  -14.0880   20.3660 C   0  0  0  0  0  0  0  0  0  0  0  0
  -24.5250  -13.3120   20.7740 C   0  0  0  0  0  0  0  0  0  0  0  0
  -24.9580  -11.9560   20.6370 C   0  0  0  0  0  0  0  0  0  0  0  0
  -26.5730  -13.2120   19.9940 N   0  0  0  0  0  0  0  0  0  0  0  0
  -26.2230  -11.9160   20.2210 N   0  0  0  0  0  0  0  0  0  0  0  0
  -24.2130  -10.7020   20.8210 C   0  0  0  0  0  0  0  0  0  0  0  0
  -24.6470   -9.7040   21.7210 C   0  0  0  0  0  3  0  0  0  0  0  0
  -23.8980   -8.5200   21.8960 C   0  0  0  0  0  3  0  0  0  0  0  0
  -22.6960   -8.3260   21.1740 C   0  0  0  0  0  0  0  0  0  0  0  0
  -22.2780   -9.3110   20.2630 C   0  0  0  0  0  3  0  0  0  0  0  0
  -23.0290  -10.4850   20.0840 C   0  0  0  0  0  3  0  0  0  0  0  0
  -21.9170   -7.1960   21.2610 O   0  0  0  0  0  0  0  0  0  0  0  0
  -21.8410   -6.4620   22.4170 C   0  0  0  0  0  0  0  0  0  0  0  0
  -21.3740   -7.0210   23.6270 C   0  0  0  0  0  3  0  0  0  0  0  0
  -21.2460   -6.2120   24.7740 C   0  0  0  0  0  3  0  0  0  0  0  0
  -21.5730   -4.8450   24.7120 C   0  0  0  0  0  0  0  0  0  0  0  0
  -22.0320   -4.2840   23.5070 C   0  0  0  0  0  3  0  0  0  0  0  0
  -22.1620   -5.0900   22.3620 C   0  0  0  0  0  0  0  0  0  0  0  0
  -22.5840   -4.5400   21.1980 F   0  0  0  0  0  0  0  0  0  0  0  0
  -21.4430   -4.0650   25.8110 F   0  0  0  0  0  0  0  0  0  0  0  0
  -23.1640  -13.8050   21.1680 C   0  0  0  0  0  0  0  0  0  0  0  0
  -22.4970  -13.1050   22.0770 N   0  0  0  0  0  0  0  0  0  0  0  0
  -22.7080  -14.8490   20.7040 O   0  0  0  0  0  0  0  0  0  0  0  0
  -22.8820  -12.2620   22.4740 H   0  0  0  0  0  0  0  0  0  0  0  0
  -21.5850  -13.4190   22.3810 H   0  0  0  0  0  0  0  0  0  0  0  0
  -25.7540  -15.4620   20.2470 N   0  0  0  0  0  0  0  0  0  0  0  0
  -25.0170  -16.1260   20.4590 H   0  0  0  0  0  0  0  0  0  0  0  0
  -26.5900  -15.9000   19.8810 H   0  0  0  0  0  0  0  0  0  0  0  0
  -28.4480  -23.5960   19.4750 C   0  0  0  0  0  1  0  0  0  0  0  0
  -28.3450  -25.4040   19.8660 O   0  0  0  0  0  0  0  0  0  0  0  0
  -24.6620  -31.6780   22.9840 C   0  0  0  0  0  0  0  0  0  0  0  0
  -27.3440  -26.6570   19.8120 C   0  0  0  0  0  0  0  0  0  0  0  0
  -23.5100  -30.2760   21.3250 C   0  0  0  0  0  3  0  0  0  0  0  0
  -25.0040  -28.6990   19.8470 C   0  0  0  0  0  0  0  0  0  0  0  0
  -26.0880  -30.4790   21.1880 C   0  0  0  0  0  2  0  0  0  0  0  0
  -26.1970  -29.0530   20.4860 C   0  0  0  0  0  0  0  0  0  0  0  0
  -27.3360  -28.0630   20.4380 C   0  0  0  0  0  3  0  0  0  0  0  0
  -26.1070  -26.5590   19.1120 C   0  0  0  0  0  3  0  0  0  0  0  0
  -25.0070  -27.4840   19.1340 C   0  0  0  0  0  3  0  0  0  0  0  0
  -23.7650  -29.6170   19.9340 C   0  0  0  0  0  2  0  0  0  0  0  0
  -24.7790  -30.8480   21.8840 N   0  0  0  0  0  0  0  0  0  0  0  0
  -23.5620  -31.9250   23.5110 O   0  0  0  0  0  0  0  0  0  0  0  0
  -22.8340  -29.2570   22.2830 C   0  0  0  0  0  0  0  0  0  0  0  0
  -21.5040  -29.0640   22.1780 N   0  0  0  0  0  0  0  0  0  0  0  0
  -23.5210  -28.6370   23.0980 O   0  0  0  0  0  0  0  0  0  0  0  0
  -20.9930  -29.6190   21.5050 H   0  0  0  0  0  0  0  0  0  0  0  0
  -18.1710  -27.7090   22.7200 C   0  0  0  0  0  0  0  0  0  0  0  0
  -20.7250  -28.0760   22.9360 C   0  0  0  0  0  3  0  0  0  0  0  0
  -20.8690  -26.6640   22.3200 C   0  0  0  0  0  2  0  0  0  0  0  0
  -19.7610  -26.3280   21.3160 C   0  0  0  0  0  2  0  0  0  0  0  0
  -18.3880  -26.3920   21.9900 C   0  0  0  0  0  2  0  0  0  0  0  0
  -19.2660  -28.5060   23.1480 C   0  0  0  0  0  0  0  0  0  0  0  0
  -19.0040  -29.7320   23.7970 C   0  0  0  0  0  3  0  0  0  0  0  0
  -17.6810  -30.1640   24.0150 C   0  0  0  0  0  3  0  0  0  0  0  0
  -16.6020  -29.3670   23.5970 C   0  0  0  0  0  3  0  0  0  0  0  0
  -16.8480  -28.1390   22.9560 C   0  0  0  0  0  3  0  0  0  0  0  0
  -25.9010  -32.3670   23.6320 C   0  0  0  0  0  3  0  0  0  0  0  0
  -25.5250  -33.7460   24.0080 N   0  0  0  0  0  0  0  0  0  0  0  0
  -25.8360  -34.8520   23.3180 C   0  0  0  0  0  0  0  0  0  0  0  0
  -26.5230  -34.8210   22.2960 O   0  0  0  0  0  0  0  0  0  0  0  0
  -24.9110  -33.8400   24.8050 H   0  0  0  0  0  0  0  0  0  0  0  0
  -24.0720  -36.6320   23.0310 C   0  0  0  0  0  1  0  0  0  0  0  0
  -25.3060  -36.2060   23.8420 C   0  0  0  0  0  3  0  0  0  0  0  0
  -27.3910  -37.1150   24.7760 C   0  0  0  0  0  1  0  0  0  0  0  0
  -26.3140  -37.2900   23.8050 N   0  0  0  0  0  0  0  0  0  0  0  0
  -25.8780  -38.1920   23.9760 H   0  0  0  0  0  0  0  0  0  0  0  0
  -26.4390  -31.6010   24.9050 C   0  0  1  0  0  0  0  0  0  0  0  0
  -25.3540  -31.3240   25.9730 C   0  0  0  0  0  1  0  0  0  0  0  0
  -27.0620  -30.2430   24.5170 C   0  0  0  0  0  1  0  0  0  0  0  0
  -27.5660  -32.4230   25.5750 C   0  0  0  0  0  1  0  0  0  0  0  0
  1  3  1  0
  2  4  1  0
  2  1  1  0
  5  3  1  0
  7 13  1  0
  8 13  1  0
  9 10  1  0
  9  8  1  0
 11 10  1  0
 11 18  1  0
 11 12  1  0
 13 12  1  0
 14  7  1  0
 15 16  2  0
 16 35  1  0
 17 16  1  0
 17 20  1  0
 18 19  1  0
 18 15  1  0
 19 17  2  0
 20 21  1  0
 21 22  2  0
 23 26  1  0
 23 22  1  0
 24 23  2  0
 25 24  1  0
 25 20  2  0
 26 27  1  0
 27 28  1  0
 28 29  2  0
 30 29  1  0
 30 34  1  0
 31 30  2  0
 32 27  2  0
 32 31  1  0
 33 32  1  0
 35 36  1  0
 36 39  1  0
 36 38  1  0
 37 35  2  0
 40 15  1  0
 40 41  1  0
 42 40  1  0
 43 44  1  0
 45 56  2  0
 46 44  1  0
 46 51  1  0
 47 55  1  0
 47 57  1  0
 48 54  1  0
 48 50  1  0
 49 55  1  0
 50 49  1  0
 51 50  2  0
 52 53  1  0
 52 46  2  0
 53 48  2  0
 54 47  1  0
 55 45  1  0
 57 59  2  0
 58 57  1  0
 60 58  1  0
 61 70  2  0
 61 66  1  0
 62 58  1  0
 62 66  1  0
 63 62  1  0
 64 65  1  0
 64 63  1  0
 65 61  1  0
 66 67  2  0
 67 68  1  0
 69 68  2  0
 70 69  1  0
 71 45  1  0
 71 72  1  0
 71 81  1  0
 72 75  1  0
 73 77  1  0
 73 72  1  0
 74 73  2  0
 77 76  1  0
 79 77  1  0
 79 80  1  0
 79 78  1  0
 81 84  1  1
 81 82  1  0
 83 81  1  0
M  ISO  4   6 100   7 100  43 101  44 101
M  END
>  <TORSDO>  (64) 
F 18

>  <SCORE>  (64) 
-14.834

>  <name>  (64) 
63

>  <ligand_id>  (64) 
63

>  <original_smiles>  (64) 
[H]c1c([H])c([H])c2c(c1[H])C([H])([H])C([H])([H])C([H])([H])C2([H])N([H])C(=O)C1([H])N(C(=O)C([H])(N([H])C(=O)C([H])(N([H])C([H])([H])[H])C([H])([H])[H])C(C([H])([H])[H])(C([H])([H])[H])C([H])([H])[H])C([H])([H])c2c([H])c(OC([H])([H])C3([H])C([H])([H])C([H])([H])C([H])([H])C3([H])C([H])([H])C(=O)N3C([H])([H])C([H])([H])C([H])([H])C([H])(n4nc(-c5c([H])c([H])c(Oc6c([H])c([H])c(F)c([H])c6F)c([H])c5[H])c(C(=O)N([H])[H])c4N([H])[H])C3([H])[H])c([H])c([H])c2C1([H])[H]

>  <smiles>  (64) 
[H]c1c([H])c([H])c2c(c1[H])C([H])([H])C([H])([H])C([H])([H])C2([H])N([H])C(=O)C1([H])N(C(=O)C([H])(N([H])C(=O)C([H])(N([H])C([H])([H])[H])C([H])([H])[H])C(C([H])([H])[H])(C([H])([H])[H])C([H])([H])[H])C([H])([H])c2c([H])c(OC([H])([H])C3([H])C([H])([H])C([H])([H])C([H])([H])C3([H])C([H])([H])C(=O)N3C([H])([H])C([H])([H])C([H])([H])C([H])(n4nc(-c5c([H])c([H])c(Oc6c([H])c([H])c(F)c([H])c6F)c([H])c5[H])c(C(=O)N([H])[H])c4N([H])[H])C3([H])[H])c([H])c([H])c2C1([H])[H]

$$$$
64:0:0
     RDKit          3D

 88 96  0  0  1  0  0  0  0  0999 V2000
  -29.5860  -22.7740   20.3410 C   0  0  0  0  0  0  0  0  0  0  0  0
  -29.0600  -23.8820   20.1350 C   0  0  0  0  0  0  0  0  0  0  0  0
  -30.8130  -20.1500   22.7850 C   0  0  0  0  0  3  0  0  0  0  0  0
  -30.4180  -21.3610   22.1860 C   0  0  0  0  0  3  0  0  0  0  0  0
  -30.8450  -18.9510   22.0500 C   0  0  0  0  0  3  0  0  0  0  0  0
  -30.0780  -20.1780   20.0880 C   0  0  0  0  0  3  0  0  0  0  0  0
  -30.0340  -21.4220   20.8300 C   0  0  0  0  0  0  0  0  0  0  0  0
  -30.4870  -18.9180   20.6850 C   0  0  0  0  0  0  0  0  0  0  0  0
  -30.5880  -17.5460   19.9020 C   0  0  0  0  0  2  0  0  0  0  0  0
  -30.4770  -16.1450   20.6920 C   0  0  0  0  0  2  0  0  0  0  0  0
  -31.1240  -14.8340   20.0620 C   0  0  0  0  0  0  0  0  0  0  0  0
  -30.8110  -12.6060   18.9750 C   0  0  0  0  0  2  0  0  0  0  0  0
  -29.8470  -12.7590   17.7780 C   0  0  0  0  0  2  0  0  0  0  0  0
  -28.3800  -12.6390   18.2350 C   0  0  0  0  0  2  0  0  0  0  0  0
  -28.0730  -13.5110   19.4810 C   0  0  0  0  0  3  0  0  0  0  0  0
  -29.1500  -13.3290   20.5750 C   0  0  0  0  0  2  0  0  0  0  0  0
  -30.4550  -13.6360   19.9760 N   0  0  0  0  0  0  0  0  0  0  0  0
  -32.2530  -14.9370   19.5740 O   0  0  0  0  0  0  0  0  0  0  0  0
  -25.7090  -14.1770   20.2380 C   0  0  0  0  0  0  0  0  0  0  0  0
  -24.6280  -13.4350   20.6310 C   0  0  0  0  0  0  0  0  0  0  0  0
  -25.0520  -12.0710   20.6000 C   0  0  0  0  0  0  0  0  0  0  0  0
  -26.7260  -13.2670   19.9920 N   0  0  0  0  0  0  0  0  0  0  0  0
  -26.3360  -11.9950   20.2680 N   0  0  0  0  0  0  0  0  0  0  0  0
  -24.2940  -10.8300   20.8110 C   0  0  0  0  0  0  0  0  0  0  0  0
  -24.6510   -9.9080   21.8190 C   0  0  0  0  0  3  0  0  0  0  0  0
  -23.8950   -8.7330   22.0140 C   0  0  0  0  0  3  0  0  0  0  0  0
  -22.7660   -8.4720   21.2010 C   0  0  0  0  0  0  0  0  0  0  0  0
  -22.4280   -9.3810   20.1840 C   0  0  0  0  0  3  0  0  0  0  0  0
  -23.1860  -10.5490   19.9870 C   0  0  0  0  0  3  0  0  0  0  0  0
  -21.9880   -7.3430   21.3020 O   0  0  0  0  0  0  0  0  0  0  0  0
  -21.7620   -6.7300   22.5080 C   0  0  0  0  0  0  0  0  0  0  0  0
  -21.1710   -7.4140   23.5920 C   0  0  0  0  0  3  0  0  0  0  0  0
  -20.8910   -6.7270   24.7910 C   0  0  0  0  0  3  0  0  0  0  0  0
  -21.1950   -5.3570   24.9040 C   0  0  0  0  0  0  0  0  0  0  0  0
  -21.7780   -4.6730   23.8240 C   0  0  0  0  0  3  0  0  0  0  0  0
  -22.0580   -5.3570   22.6280 C   0  0  0  0  0  0  0  0  0  0  0  0
  -22.6010   -4.6880   21.5830 F   0  0  0  0  0  0  0  0  0  0  0  0
  -20.9190   -4.6940   26.0520 F   0  0  0  0  0  0  0  0  0  0  0  0
  -23.2500  -13.9530   20.9240 C   0  0  0  0  0  0  0  0  0  0  0  0
  -22.5240  -13.2920   21.8200 N   0  0  0  0  0  0  0  0  0  0  0  0
  -22.8270  -14.9800   20.3940 O   0  0  0  0  0  0  0  0  0  0  0  0
  -22.8800  -12.4630   22.2700 H   0  0  0  0  0  0  0  0  0  0  0  0
  -21.5990  -13.6220   22.0580 H   0  0  0  0  0  0  0  0  0  0  0  0
  -25.9090  -15.5410   20.0510 N   0  0  0  0  0  0  0  0  0  0  0  0
  -25.1660  -16.2200   20.1750 H   0  0  0  0  0  0  0  0  0  0  0  0
  -26.7720  -15.9560   19.7200 H   0  0  0  0  0  0  0  0  0  0  0  0
  -28.0390  -24.9830   19.8990 C   0  0  0  0  0  2  0  0  0  0  0  0
  -28.3250  -26.4280   20.1390 O   0  0  0  0  0  0  0  0  0  0  0  0
  -24.6370  -31.8900   23.1610 C   0  0  0  0  0  0  0  0  0  0  0  0
  -27.2240  -27.3160   20.0720 C   0  0  0  0  0  0  0  0  0  0  0  0
  -23.4110  -30.4610   21.5700 C   0  0  0  0  0  3  0  0  0  0  0  0
  -24.8440  -28.9280   20.1120 C   0  0  0  0  0  0  0  0  0  0  0  0
  -25.9440  -30.8010   21.3240 C   0  0  0  0  0  2  0  0  0  0  0  0
  -26.0250  -29.4190   20.6860 C   0  0  0  0  0  0  0  0  0  0  0  0
  -27.2140  -28.6220   20.6660 C   0  0  0  0  0  3  0  0  0  0  0  0
  -26.0220  -26.9160   19.4360 C   0  0  0  0  0  3  0  0  0  0  0  0
  -24.8470  -27.6820   19.4790 C   0  0  0  0  0  3  0  0  0  0  0  0
  -23.5990  -29.7850   20.1880 C   0  0  0  0  0  2  0  0  0  0  0  0
  -24.6840  -31.0690   22.0740 N   0  0  0  0  0  0  0  0  0  0  0  0
  -23.5640  -32.1590   23.7210 O   0  0  0  0  0  0  0  0  0  0  0  0
  -22.7890  -29.4390   22.5520 C   0  0  0  0  0  0  0  0  0  0  0  0
  -21.4750  -29.1880   22.4150 N   0  0  0  0  0  0  0  0  0  0  0  0
  -23.4860  -28.8770   23.4010 O   0  0  0  0  0  0  0  0  0  0  0  0
  -20.9690  -29.6930   21.7020 H   0  0  0  0  0  0  0  0  0  0  0  0
  -18.1770  -27.7660   22.8510 C   0  0  0  0  0  0  0  0  0  0  0  0
  -20.6950  -28.2370   23.2080 C   0  0  0  0  0  3  0  0  0  0  0  0
  -20.9280  -26.7860   22.7290 C   0  0  0  0  0  2  0  0  0  0  0  0
  -19.9010  -26.3210   21.6920 C   0  0  0  0  0  2  0  0  0  0  0  0
  -18.4850  -26.3960   22.2690 C   0  0  0  0  0  2  0  0  0  0  0  0
  -19.2150  -28.6360   23.2780 C   0  0  0  0  0  0  0  0  0  0  0  0
  -18.8760  -29.9110   23.7800 C   0  0  0  0  0  3  0  0  0  0  0  0
  -17.5300  -30.3190   23.8600 C   0  0  0  0  0  3  0  0  0  0  0  0
  -16.5070  -29.4480   23.4500 C   0  0  0  0  0  3  0  0  0  0  0  0
  -16.8300  -28.1730   22.9510 C   0  0  0  0  0  3  0  0  0  0  0  0
  -25.9260  -32.5460   23.7430 C   0  0  0  0  0  3  0  0  0  0  0  0
  -26.5090  -31.7710   24.9880 C   0  0  1  0  0  0  0  0  0  0  0  0
  -25.4590  -31.4820   26.0860 C   0  0  0  0  0  1  0  0  0  0  0  0
  -27.1230  -30.4190   24.5570 C   0  0  0  0  0  1  0  0  0  0  0  0
  -27.6540  -32.5920   25.6260 C   0  0  0  0  0  1  0  0  0  0  0  0
  -25.5950  -33.9310   24.1030 N   0  0  0  0  0  0  0  0  0  0  0  0
  -25.9270  -35.0070   23.3770 C   0  0  0  0  0  0  0  0  0  0  0  0
  -26.6140  -34.9380   22.3540 O   0  0  0  0  0  0  0  0  0  0  0  0
  -24.9860  -34.0580   24.8980 H   0  0  0  0  0  0  0  0  0  0  0  0
  -24.1950  -36.7970   23.0270 C   0  0  0  0  0  1  0  0  0  0  0  0
  -25.4160  -36.3780   23.8620 C   0  0  0  0  0  3  0  0  0  0  0  0
  -27.5200  -37.2510   24.7770 C   0  0  0  0  0  1  0  0  0  0  0  0
  -26.4440  -37.4410   23.8090 N   0  0  0  0  0  0  0  0  0  0  0  0
  -26.0270  -38.3530   23.9750 H   0  0  0  0  0  0  0  0  0  0  0  0
  1  7  1  0
  2  1  3  0
  4  3  1  0
  5  3  2  0
  6  8  2  0
  6  7  1  0
  7  4  2  0
  8  5  1  0
  9  8  1  0
  9 10  1  0
 11 10  1  0
 12 17  1  0
 13 14  1  0
 13 12  1  0
 15 14  1  0
 15 22  1  0
 15 16  1  0
 17 11  1  0
 17 16  1  0
 18 11  2  0
 19 20  2  0
 20 39  1  0
 21 20  1  0
 21 24  1  0
 22 19  1  0
 22 23  1  0
 23 21  2  0
 24 25  1  0
 25 26  2  0
 27 30  1  0
 27 26  1  0
 28 27  2  0
 29 28  1  0
 29 24  2  0
 30 31  1  0
 31 36  2  0
 31 32  1  0
 32 33  2  0
 33 34  1  0
 34 38  1  0
 35 34  2  0
 36 35  1  0
 37 36  1  0
 39 40  1  0
 40 43  1  0
 40 42  1  0
 41 39  2  0
 44 45  1  0
 44 19  1  0
 46 44  1  0
 47  2  1  0
 47 48  1  0
 49 60  2  0
 50 48  1  0
 50 55  1  0
 51 59  1  0
 51 61  1  0
 52 58  1  0
 52 54  1  0
 53 59  1  0
 54 53  1  0
 55 54  2  0
 56 57  1  0
 56 50  2  0
 57 52  2  0
 58 51  1  0
 59 49  1  0
 61 63  2  0
 62 61  1  0
 64 62  1  0
 65 74  2  0
 65 70  1  0
 66 62  1  0
 66 70  1  0
 67 66  1  0
 68 69  1  0
 68 67  1  0
 69 65  1  0
 70 71  2  0
 71 72  1  0
 73 72  2  0
 74 73  1  0
 75 49  1  0
 75 80  1  0
 75 76  1  0
 76 79  1  1
 76 77  1  0
 78 76  1  0
 80 83  1  0
 81 85  1  0
 81 80  1  0
 82 81  2  0
 85 84  1  0
 87 85  1  0
 87 88  1  0
 87 86  1  0
M  ISO  4  10 100  11 100  47 101  48 101
M  END
>  <TORSDO>  (65) 
F 20

>  <SCORE>  (65) 
-12.955

>  <name>  (65) 
64

>  <ligand_id>  (65) 
64

>  <original_smiles>  (65) 
[H]c1c([H])c(C#CC([H])([H])Oc2c([H])c([H])c3c(c2[H])C([H])([H])N(C(=O)C([H])(N([H])C(=O)C([H])(N([H])C([H])([H])[H])C([H])([H])[H])C(C([H])([H])[H])(C([H])([H])[H])C([H])([H])[H])C([H])(C(=O)N([H])C2([H])c4c([H])c([H])c([H])c([H])c4C([H])([H])C([H])([H])C2([H])[H])C3([H])[H])c([H])c(C([H])([H])C([H])([H])C(=O)N2C([H])([H])C([H])([H])C([H])([H])C([H])(n3nc(-c4c([H])c([H])c(Oc5c([H])c([H])c(F)c([H])c5F)c([H])c4[H])c(C(=O)N([H])[H])c3N([H])[H])C2([H])[H])c1[H]

>  <smiles>  (65) 
[H]c1c([H])c(C#CC([H])([H])Oc2c([H])c([H])c3c(c2[H])C([H])([H])N(C(=O)C([H])(N([H])C(=O)C([H])(N([H])C([H])([H])[H])C([H])([H])[H])C(C([H])([H])[H])(C([H])([H])[H])C([H])([H])[H])C([H])(C(=O)N([H])C2([H])c4c([H])c([H])c([H])c([H])c4C([H])([H])C([H])([H])C2([H])[H])C3([H])[H])c([H])c(C([H])([H])C([H])([H])C(=O)N2C([H])([H])C([H])([H])C([H])([H])C([H])(n3nc(-c4c([H])c([H])c(Oc5c([H])c([H])c(F)c([H])c5F)c([H])c4[H])c(C(=O)N([H])[H])c3N([H])[H])C2([H])[H])c1[H]

$$$$
65:0:0
     RDKit          3D

 87 96  0  0  1  0  0  0  0  0999 V2000
  -28.7760  -17.3340   20.8210 C   0  0  0  0  0  3  0  0  0  0  0  0
  -28.1860  -18.6540   21.0380 C   0  0  0  0  0  3  0  0  0  0  0  0
  -30.2660  -18.3530   19.2940 C   0  0  0  0  0  3  0  0  0  0  0  0
  -29.8700  -17.0170   19.9350 C   0  0  0  0  0  0  0  0  0  0  0  0
  -28.6040  -19.8720   20.3960 C   0  0  0  0  0  0  0  0  0  0  0  0
  -29.6460  -19.7460   19.5060 C   0  0  0  0  0  0  0  0  0  0  0  0
  -28.0500  -21.3830   20.5220 C   0  0  0  0  0  2  0  0  0  0  0  0
  -29.8190  -21.3060   18.9550 C   0  0  0  0  0  2  0  0  0  0  0  0
  -28.9620  -22.5340   19.7950 C   0  0  0  0  0  3  0  0  0  0  0  0
  -30.5700  -15.4520   19.8110 C   0  0  0  0  0  0  0  0  0  0  0  0
  -30.5420  -12.9280   19.1110 C   0  0  0  0  0  2  0  0  0  0  0  0
  -29.5820  -12.6120   17.9320 C   0  0  0  0  0  2  0  0  0  0  0  0
  -28.1580  -12.3430   18.4470 C   0  0  0  0  0  2  0  0  0  0  0  0
  -27.7360  -13.3760   19.5190 C   0  0  0  0  0  3  0  0  0  0  0  0
  -28.8230  -13.6190   20.5870 C   0  0  0  0  0  2  0  0  0  0  0  0
  -30.0180  -14.1250   19.8880 N   0  0  0  0  0  0  0  0  0  0  0  0
  -31.7660  -15.3910   19.4810 O   0  0  0  0  0  0  0  0  0  0  0  0
  -25.4480  -13.9790   20.4550 C   0  0  0  0  0  0  0  0  0  0  0  0
  -24.3830  -13.2240   20.8620 C   0  0  0  0  0  0  0  0  0  0  0  0
  -24.7970  -11.8600   20.7500 C   0  0  0  0  0  0  0  0  0  0  0  0
  -26.4370  -13.0790   20.1050 N   0  0  0  0  0  0  0  0  0  0  0  0
  -26.0640  -11.7940   20.3500 N   0  0  0  0  0  0  0  0  0  0  0  0
  -24.0360  -10.6180   20.9400 C   0  0  0  0  0  0  0  0  0  0  0  0
  -24.4820   -9.6040   21.8170 C   0  0  0  0  0  3  0  0  0  0  0  0
  -23.7190   -8.4290   21.9990 C   0  0  0  0  0  3  0  0  0  0  0  0
  -22.4980   -8.2610   21.3030 C   0  0  0  0  0  0  0  0  0  0  0  0
  -22.0710   -9.2630   20.4150 C   0  0  0  0  0  3  0  0  0  0  0  0
  -22.8340  -10.4290   20.2310 C   0  0  0  0  0  3  0  0  0  0  0  0
  -21.7050   -7.1420   21.3980 O   0  0  0  0  0  0  0  0  0  0  0  0
  -21.6810   -6.3690   22.5320 C   0  0  0  0  0  0  0  0  0  0  0  0
  -21.3020   -6.8980   23.7860 C   0  0  0  0  0  3  0  0  0  0  0  0
  -21.2240   -6.0530   24.9110 C   0  0  0  0  0  3  0  0  0  0  0  0
  -21.5150   -4.6810   24.7840 C   0  0  0  0  0  0  0  0  0  0  0  0
  -21.8880   -4.1520   23.5350 C   0  0  0  0  0  3  0  0  0  0  0  0
  -21.9670   -4.9950   22.4110 C   0  0  0  0  0  0  0  0  0  0  0  0
  -22.3050   -4.4760   21.2060 F   0  0  0  0  0  0  0  0  0  0  0  0
  -21.4340   -3.8670   25.8620 F   0  0  0  0  0  0  0  0  0  0  0  0
  -23.0250  -13.7390   21.2370 C   0  0  0  0  0  0  0  0  0  0  0  0
  -22.3310  -13.0430   22.1310 N   0  0  0  0  0  0  0  0  0  0  0  0
  -22.5910  -14.7920   20.7720 O   0  0  0  0  0  0  0  0  0  0  0  0
  -22.6960  -12.1890   22.5250 H   0  0  0  0  0  0  0  0  0  0  0  0
  -21.4220  -13.3700   22.4250 H   0  0  0  0  0  0  0  0  0  0  0  0
  -25.6540  -15.3480   20.3240 N   0  0  0  0  0  0  0  0  0  0  0  0
  -24.9340  -16.0300   20.5380 H   0  0  0  0  0  0  0  0  0  0  0  0
  -26.5030  -15.7710   19.9720 H   0  0  0  0  0  0  0  0  0  0  0  0
  -28.2570  -24.1720   19.2760 C   0  0  0  0  0  2  0  0  0  0  0  0
  -28.3740  -25.8160   19.6210 O   0  0  0  0  0  0  0  0  0  0  0  0
  -24.5760  -31.5140   22.9290 C   0  0  0  0  0  0  0  0  0  0  0  0
  -27.3220  -26.8990   19.6070 C   0  0  0  0  0  0  0  0  0  0  0  0
  -23.4300  -30.1550   21.2260 C   0  0  0  0  0  3  0  0  0  0  0  0
  -24.9370  -28.7010   19.6930 C   0  0  0  0  0  0  0  0  0  0  0  0
  -25.9840  -30.4870   21.0670 C   0  0  0  0  0  2  0  0  0  0  0  0
  -26.1130  -29.1150   20.3290 C   0  0  0  0  0  0  0  0  0  0  0  0
  -27.2940  -28.2370   20.2650 C   0  0  0  0  0  3  0  0  0  0  0  0
  -26.1090  -26.6570   18.9230 C   0  0  0  0  0  3  0  0  0  0  0  0
  -24.9620  -27.4970   18.9690 C   0  0  0  0  0  3  0  0  0  0  0  0
  -23.6760  -29.5620   19.8090 C   0  0  0  0  0  2  0  0  0  0  0  0
  -24.6850  -30.7460   21.7950 N   0  0  0  0  0  0  0  0  0  0  0  0
  -23.4810  -31.7200   23.4760 O   0  0  0  0  0  0  0  0  0  0  0  0
  -22.7960  -29.0770   22.1420 C   0  0  0  0  0  0  0  0  0  0  0  0
  -21.4680  -28.8760   22.0470 N   0  0  0  0  0  0  0  0  0  0  0  0
  -23.5060  -28.4220   22.9100 O   0  0  0  0  0  0  0  0  0  0  0  0
  -20.9440  -29.4590   21.4100 H   0  0  0  0  0  0  0  0  0  0  0  0
  -18.1380  -27.5390   22.6050 C   0  0  0  0  0  0  0  0  0  0  0  0
  -20.7010  -27.8590   22.7760 C   0  0  0  0  0  3  0  0  0  0  0  0
  -20.8120  -26.4800   22.0860 C   0  0  0  0  0  2  0  0  0  0  0  0
  -19.6730  -26.2050   21.0990 C   0  0  0  0  0  2  0  0  0  0  0  0
  -18.3190  -26.2560   21.8120 C   0  0  0  0  0  2  0  0  0  0  0  0
  -19.2560  -28.3000   23.0440 C   0  0  0  0  0  0  0  0  0  0  0  0
  -19.0290  -29.4990   23.7530 C   0  0  0  0  0  3  0  0  0  0  0  0
  -17.7210  -29.9410   24.0240 C   0  0  0  0  0  3  0  0  0  0  0  0
  -16.6190  -29.1780   23.5970 C   0  0  0  0  0  3  0  0  0  0  0  0
  -16.8300  -27.9790   22.8950 C   0  0  0  0  0  3  0  0  0  0  0  0
  -25.8210  -32.1850   23.5850 C   0  0  0  0  0  3  0  0  0  0  0  0
  -25.4390  -33.5450   24.0060 N   0  0  0  0  0  0  0  0  0  0  0  0
  -25.6980  -34.6650   23.3180 C   0  0  0  0  0  0  0  0  0  0  0  0
  -26.3480  -34.6670   22.2710 O   0  0  0  0  0  0  0  0  0  0  0  0
  -24.8600  -33.6150   24.8310 H   0  0  0  0  0  0  0  0  0  0  0  0
  -23.8670  -36.3850   23.1350 C   0  0  0  0  0  1  0  0  0  0  0  0
  -25.1540  -35.9960   23.8810 C   0  0  0  0  0  3  0  0  0  0  0  0
  -27.2600  -36.9490   24.7100 C   0  0  0  0  0  1  0  0  0  0  0  0
  -26.1230  -37.1110   23.8070 N   0  0  0  0  0  0  0  0  0  0  0  0
  -25.6710  -37.9950   24.0210 H   0  0  0  0  0  0  0  0  0  0  0  0
  -26.3820  -31.3760   24.8200 C   0  0  1  0  0  0  0  0  0  0  0  0
  -25.3100  -31.0400   25.8850 C   0  0  0  0  0  1  0  0  0  0  0  0
  -27.0200  -30.0440   24.3660 C   0  0  0  0  0  1  0  0  0  0  0  0
  -27.5030  -32.1870   25.5120 C   0  0  0  0  0  1  0  0  0  0  0  0
  1  2  1  0
  3  6  2  0
  3  4  1  0
  4  1  2  0
  5  7  1  0
  5  2  2  0
  6  5  1  0
  8  6  1  0
  8  9  1  0
  9 46  1  0
  9  7  1  0
 10 16  1  0
 10  4  1  0
 11 16  1  0
 12 13  1  0
 12 11  1  0
 14 13  1  0
 14 21  1  0
 14 15  1  0
 16 15  1  0
 17 10  2  0
 18 19  2  0
 19 38  1  0
 20 19  1  0
 20 23  1  0
 21 22  1  0
 21 18  1  0
 22 20  2  0
 23 24  1  0
 24 25  2  0
 26 29  1  0
 26 25  1  0
 27 26  2  0
 28 27  1  0
 28 23  2  0
 29 30  1  0
 30 31  1  0
 31 32  2  0
 33 32  1  0
 33 37  1  0
 34 33  2  0
 35 30  2  0
 35 34  1  0
 36 35  1  0
 38 39  1  0
 39 42  1  0
 39 41  1  0
 40 38  2  0
 43 18  1  0
 43 44  1  0
 45 43  1  0
 46 47  1  0
 48 59  2  0
 49 47  1  0
 49 54  1  0
 50 58  1  0
 50 60  1  0
 51 57  1  0
 51 53  1  0
 52 58  1  0
 53 52  1  0
 54 53  2  0
 55 56  1  0
 55 49  2  0
 56 51  2  0
 57 50  1  0
 58 48  1  0
 60 62  2  0
 61 60  1  0
 63 61  1  0
 64 73  2  0
 64 69  1  0
 65 61  1  0
 65 69  1  0
 66 65  1  0
 67 68  1  0
 67 66  1  0
 68 64  1  0
 69 70  2  0
 70 71  1  0
 72 71  2  0
 73 72  1  0
 74 48  1  0
 74 75  1  0
 74 84  1  0
 75 78  1  0
 76 80  1  0
 76 75  1  0
 77 76  2  0
 80 79  1  0
 82 80  1  0
 82 83  1  0
 82 81  1  0
 84 87  1  1
 84 85  1  0
 86 84  1  0
M  ISO  4   4 100  10 100  46 101  47 101
M  END
>  <TORSDO>  (66) 
F 17

>  <SCORE>  (66) 
-14.930

>  <name>  (66) 
65

>  <ligand_id>  (66) 
65

>  <original_smiles>  (66) 
[H]c1c([H])c([H])c2c(c1[H])C([H])([H])C([H])([H])C([H])([H])C2([H])N([H])C(=O)C1([H])N(C(=O)C([H])(N([H])C(=O)C([H])(N([H])C([H])([H])[H])C([H])([H])[H])C(C([H])([H])[H])(C([H])([H])[H])C([H])([H])[H])C([H])([H])c2c([H])c(OC([H])([H])C3([H])C([H])([H])c4c([H])c([H])c(C(=O)N5C([H])([H])C([H])([H])C([H])([H])C([H])(n6nc(-c7c([H])c([H])c(Oc8c([H])c([H])c(F)c([H])c8F)c([H])c7[H])c(C(=O)N([H])[H])c6N([H])[H])C5([H])[H])c([H])c4C3([H])[H])c([H])c([H])c2C1([H])[H]

>  <smiles>  (66) 
[H]c1c([H])c([H])c2c(c1[H])C([H])([H])C([H])([H])C([H])([H])C2([H])N([H])C(=O)C1([H])N(C(=O)C([H])(N([H])C(=O)C([H])(N([H])C([H])([H])[H])C([H])([H])[H])C(C([H])([H])[H])(C([H])([H])[H])C([H])([H])[H])C([H])([H])c2c([H])c(OC([H])([H])C3([H])C([H])([H])c4c([H])c([H])c(C(=O)N5C([H])([H])C([H])([H])C([H])([H])C([H])(n6nc(-c7c([H])c([H])c(Oc8c([H])c([H])c(F)c([H])c8F)c([H])c7[H])c(C(=O)N([H])[H])c6N([H])[H])C5([H])[H])c([H])c4C3([H])[H])c([H])c([H])c2C1([H])[H]

$$$$
66:0:0
     RDKit          3D

 92101  0  0  1  0  0  0  0  0999 V2000
  -29.3250  -20.7250   20.8840 C   0  0  0  0  0  3  0  0  0  0  0  0
  -28.9710  -22.1500   20.8940 C   0  0  0  0  0  0  0  0  0  0  0  0
  -29.1850  -22.7600   22.2710 C   0  0  0  0  0  1  0  0  0  0  0  0
  -30.5410  -15.1040   20.3850 C   0  0  0  0  0  0  0  0  0  0  0  0
  -30.4190  -12.7250   19.4680 C   0  0  0  0  0  2  0  0  0  0  0  0
  -29.5160  -12.6170   18.2210 C   0  0  0  0  0  2  0  0  0  0  0  0
  -28.0450  -12.4020   18.6240 C   0  0  0  0  0  2  0  0  0  0  0  0
  -27.6030  -13.3400   19.7760 C   0  0  0  0  0  3  0  0  0  0  0  0
  -28.6420  -13.4150   20.9090 C   0  0  0  0  0  2  0  0  0  0  0  0
  -29.8960  -13.8610   20.2860 N   0  0  0  0  0  0  0  0  0  0  0  0
  -31.7740  -15.0390   20.3000 O   0  0  0  0  0  0  0  0  0  0  0  0
  -30.1500  -20.8460   17.5240 C   0  0  0  0  0  2  0  0  0  0  0  0
  -28.9940  -19.8270   17.4610 C   0  0  0  0  0  2  0  0  0  0  0  0
  -31.2250  -20.5300   18.5820 C   0  0  0  0  0  2  0  0  0  0  0  0
  -28.4130  -19.4280   18.8400 C   0  0  0  0  0  2  0  0  0  0  0  0
  -31.2860  -17.9730   18.5910 C   0  0  0  0  0  2  0  0  0  0  0  0
  -30.2940  -16.7780   18.6320 C   0  0  0  0  0  2  0  0  0  0  0  0
  -29.4270  -17.7170   20.7100 C   0  0  0  0  0  2  0  0  0  0  0  0
  -30.9080  -19.2610   19.3950 C   0  0  0  0  0  3  0  0  0  0  0  0
  -29.4630  -19.3030   19.9880 C   0  0  2  0  0  0  0  0  0  0  0  0
  -29.9070  -16.3560   19.9910 N   0  0  0  0  0  0  0  0  0  0  0  0
  -25.2070  -13.9010   20.4780 C   0  0  0  0  0  0  0  0  0  0  0  0
  -24.1420  -13.1180   20.8360 C   0  0  0  0  0  0  0  0  0  0  0  0
  -24.6220  -11.7720   20.8320 C   0  0  0  0  0  0  0  0  0  0  0  0
  -26.2630  -13.0290   20.2680 N   0  0  0  0  0  0  0  0  0  0  0  0
  -25.9190  -11.7440   20.5470 N   0  0  0  0  0  0  0  0  0  0  0  0
  -23.9000  -10.5040   21.0210 C   0  0  0  0  0  0  0  0  0  0  0  0
  -24.3210   -9.5460   21.9670 C   0  0  0  0  0  3  0  0  0  0  0  0
  -23.5960   -8.3460   22.1440 C   0  0  0  0  0  3  0  0  0  0  0  0
  -22.4360   -8.0980   21.3730 C   0  0  0  0  0  0  0  0  0  0  0  0
  -22.0360   -9.0430   20.4110 C   0  0  0  0  0  3  0  0  0  0  0  0
  -22.7630  -10.2330   20.2340 C   0  0  0  0  0  3  0  0  0  0  0  0
  -21.6820   -6.9510   21.4630 O   0  0  0  0  0  0  0  0  0  0  0  0
  -21.6180   -6.2160   22.6210 C   0  0  0  0  0  0  0  0  0  0  0  0
  -21.1680   -6.7760   23.8370 C   0  0  0  0  0  3  0  0  0  0  0  0
  -21.0560   -5.9680   24.9860 C   0  0  0  0  0  3  0  0  0  0  0  0
  -21.3820   -4.6000   24.9200 C   0  0  0  0  0  0  0  0  0  0  0  0
  -21.8210   -4.0380   23.7100 C   0  0  0  0  0  3  0  0  0  0  0  0
  -21.9380   -4.8430   22.5640 C   0  0  0  0  0  0  0  0  0  0  0  0
  -22.3430   -4.2920   21.3930 F   0  0  0  0  0  0  0  0  0  0  0  0
  -21.2650   -3.8220   26.0220 F   0  0  0  0  0  0  0  0  0  0  0  0
  -22.7340  -13.5850   21.0720 C   0  0  0  0  0  0  0  0  0  0  0  0
  -21.9920  -12.8900   21.9310 N   0  0  0  0  0  0  0  0  0  0  0  0
  -22.3000  -14.6000   20.5300 O   0  0  0  0  0  0  0  0  0  0  0  0
  -22.3530  -12.0730   22.3990 H   0  0  0  0  0  0  0  0  0  0  0  0
  -21.0440  -13.1820   22.1300 H   0  0  0  0  0  0  0  0  0  0  0  0
  -25.3640  -15.2700   20.2860 N   0  0  0  0  0  0  0  0  0  0  0  0
  -24.5970  -15.9280   20.3720 H   0  0  0  0  0  0  0  0  0  0  0  0
  -26.2270  -15.7080   19.9910 H   0  0  0  0  0  0  0  0  0  0  0  0
  -28.4180  -23.2270   19.8830 C   0  0  0  0  0  3  0  0  0  0  0  0
  -28.1120  -24.6470   19.7160 C   0  0  0  0  0  3  0  0  0  0  0  0
  -28.1890  -25.9950   20.3600 O   0  0  0  0  0  0  0  0  0  0  0  0
  -24.6290  -31.8740   23.2370 C   0  0  0  0  0  0  0  0  0  0  0  0
  -27.1890  -27.0660   20.2210 C   0  0  0  0  0  0  0  0  0  0  0  0
  -23.4300  -30.4730   21.6040 C   0  0  0  0  0  3  0  0  0  0  0  0
  -24.8770  -28.8870   20.1780 C   0  0  0  0  0  0  0  0  0  0  0  0
  -25.9920  -30.7080   21.4500 C   0  0  0  0  0  2  0  0  0  0  0  0
  -26.0610  -29.3080   20.7960 C   0  0  0  0  0  0  0  0  0  0  0  0
  -27.2100  -28.4140   20.8050 C   0  0  0  0  0  3  0  0  0  0  0  0
  -25.9730  -26.7780   19.5570 C   0  0  0  0  0  3  0  0  0  0  0  0
  -24.8520  -27.6390   19.5400 C   0  0  0  0  0  3  0  0  0  0  0  0
  -23.6570  -29.7950   20.2250 C   0  0  0  0  0  2  0  0  0  0  0  0
  -24.7040  -31.0440   22.1490 N   0  0  0  0  0  0  0  0  0  0  0  0
  -23.5410  -32.1600   23.7620 O   0  0  0  0  0  0  0  0  0  0  0  0
  -22.7460  -29.4730   22.5730 C   0  0  0  0  0  0  0  0  0  0  0  0
  -21.4170  -29.2960   22.4420 N   0  0  0  0  0  0  0  0  0  0  0  0
  -23.4170  -28.8570   23.4030 O   0  0  0  0  0  0  0  0  0  0  0  0
  -20.9300  -29.8460   21.7490 H   0  0  0  0  0  0  0  0  0  0  0  0
  -18.0460  -28.0480   22.9250 C   0  0  0  0  0  0  0  0  0  0  0  0
  -20.5980  -28.3580   23.2190 C   0  0  0  0  0  3  0  0  0  0  0  0
  -20.7310  -26.9190   22.6730 C   0  0  0  0  0  2  0  0  0  0  0  0
  -19.6490  -26.5590   21.6500 C   0  0  0  0  0  2  0  0  0  0  0  0
  -18.2540  -26.6920   22.2720 C   0  0  0  0  0  2  0  0  0  0  0  0
  -19.1460  -28.8370   23.3550 C   0  0  0  0  0  0  0  0  0  0  0  0
  -18.8970  -30.1020   23.9290 C   0  0  0  0  0  3  0  0  0  0  0  0
  -17.5820  -30.5800   24.0750 C   0  0  0  0  0  3  0  0  0  0  0  0
  -16.4960  -29.7900   23.6600 C   0  0  0  0  0  3  0  0  0  0  0  0
  -16.7280  -28.5270   23.0910 C   0  0  0  0  0  3  0  0  0  0  0  0
  -25.9040  -32.5180   23.8610 C   0  0  0  0  0  3  0  0  0  0  0  0
  -25.5860  -33.9190   24.1860 N   0  0  0  0  0  0  0  0  0  0  0  0
  -25.9150  -34.9750   23.4300 C   0  0  0  0  0  0  0  0  0  0  0  0
  -26.5770  -34.8730   22.3940 O   0  0  0  0  0  0  0  0  0  0  0  0
  -24.9970  -34.0720   24.9910 H   0  0  0  0  0  0  0  0  0  0  0  0
  -24.1840  -36.7750   23.0910 C   0  0  0  0  0  1  0  0  0  0  0  0
  -25.4310  -36.3650   23.8910 C   0  0  0  0  0  3  0  0  0  0  0  0
  -27.5690  -37.2570   24.7070 C   0  0  0  0  0  1  0  0  0  0  0  0
  -26.4600  -37.4200   23.7720 N   0  0  0  0  0  0  0  0  0  0  0  0
  -26.0520  -38.3400   23.9160 H   0  0  0  0  0  0  0  0  0  0  0  0
  -26.4100  -31.7610   25.1510 C   0  0  1  0  0  0  0  0  0  0  0  0
  -25.3130  -31.5440   26.2190 C   0  0  0  0  0  1  0  0  0  0  0  0
  -26.9930  -30.3750   24.7900 C   0  0  0  0  0  1  0  0  0  0  0  0
  -27.5560  -32.5640   25.8110 C   0  0  0  0  0  1  0  0  0  0  0  0
  1  2  2  0
  2  3  1  0
  5 10  1  0
  6  7  1  0
  6  5  1  0
  8  7  1  0
  8 25  1  0
  8  9  1  0
 10  4  1  0
 10  9  1  0
 11  4  2  0
 12 14  1  0
 13 12  1  0
 13 15  1  0
 15 20  1  0
 16 17  1  0
 16 19  1  0
 17 21  1  0
 19 14  1  0
 19 20  1  0
 20 18  1  0
 20  1  1  1
 21  4  1  0
 21 18  1  0
 22 23  2  0
 23 42  1  0
 24 23  1  0
 24 27  1  0
 25 22  1  0
 25 26  1  0
 26 24  2  0
 27 28  1  0
 28 29  2  0
 30 33  1  0
 30 29  1  0
 31 30  2  0
 32 31  1  0
 32 27  2  0
 33 34  1  0
 34 35  1  0
 35 36  2  0
 37 36  1  0
 37 41  1  0
 38 37  2  0
 39 34  2  0
 39 38  1  0
 40 39  1  0
 42 43  1  0
 43 46  1  0
 43 45  1  0
 44 42  2  0
 47 48  1  0
 47 22  1  0
 49 47  1  0
 50  2  1  0
 51 50  2  0
 51 52  1  0
 53 64  2  0
 54 52  1  0
 54 59  1  0
 55 63  1  0
 55 65  1  0
 56 62  1  0
 56 58  1  0
 57 63  1  0
 58 59  2  0
 58 57  1  0
 60 54  2  0
 61 60  1  0
 61 56  2  0
 62 55  1  0
 63 53  1  0
 65 67  2  0
 66 65  1  0
 68 66  1  0
 69 78  2  0
 69 74  1  0
 70 66  1  0
 70 74  1  0
 71 70  1  0
 72 73  1  0
 72 71  1  0
 73 69  1  0
 74 75  2  0
 75 76  1  0
 77 76  2  0
 78 77  1  0
 79 53  1  0
 79 80  1  0
 79 89  1  0
 80 83  1  0
 81 85  1  0
 81 80  1  0
 82 81  2  0
 85 84  1  0
 87 85  1  0
 87 88  1  0
 87 86  1  0
 89 92  1  1
 89 90  1  0
 91 89  1  0
M  ISO  4   4 100  21 100  51 101  52 101
M  END
>  <TORSDO>  (67) 
F 17

>  <SCORE>  (67) 
-15.255

>  <name>  (67) 
66

>  <ligand_id>  (67) 
66

>  <original_smiles>  (67) 
[H]C(Oc1c([H])c([H])c2c(c1[H])C([H])([H])N(C(=O)C([H])(N([H])C(=O)C([H])(N([H])C([H])([H])[H])C([H])([H])[H])C(C([H])([H])[H])(C([H])([H])[H])C([H])([H])[H])C([H])(C(=O)N([H])C1([H])c3c([H])c([H])c([H])c([H])c3C([H])([H])C([H])([H])C1([H])[H])C2([H])[H])=C([H])C(=C([H])C12C([H])([H])N(C(=O)N3C([H])([H])C([H])([H])C([H])([H])C([H])(n4nc(-c5c([H])c([H])c(Oc6c([H])c([H])c(F)c([H])c6F)c([H])c5[H])c(C(=O)N([H])[H])c4N([H])[H])C3([H])[H])C([H])([H])C([H])([H])C1([H])C([H])([H])C([H])([H])C([H])([H])C2([H])[H])C([H])([H])[H]

>  <smiles>  (67) 
[H]C(Oc1c([H])c([H])c2c(c1[H])C([H])([H])N(C(=O)C([H])(N([H])C(=O)C([H])(N([H])C([H])([H])[H])C([H])([H])[H])C(C([H])([H])[H])(C([H])([H])[H])C([H])([H])[H])C([H])(C(=O)N([H])C1([H])c3c([H])c([H])c([H])c([H])c3C([H])([H])C([H])([H])C1([H])[H])C2([H])[H])=C([H])C(=C([H])C12C([H])([H])N(C(=O)N3C([H])([H])C([H])([H])C([H])([H])C([H])(n4nc(-c5c([H])c([H])c(Oc6c([H])c([H])c(F)c([H])c6F)c([H])c5[H])c(C(=O)N([H])[H])c4N([H])[H])C3([H])[H])C([H])([H])C([H])([H])C1([H])C([H])([H])C([H])([H])C([H])([H])C2([H])[H])C([H])([H])[H]

$$$$
67:0:0
     RDKit          3D

 91100  0  0  1  0  0  0  0  0999 V2000
  -28.6470  -23.5280   17.6710 C   0  0  0  0  0  2  0  0  0  0  0  0
  -27.2350  -23.2530   18.2760 C   0  0  0  0  0  2  0  0  0  0  0  0
  -30.0960  -22.9510   19.6670 C   0  0  0  0  0  2  0  0  0  0  0  0
  -27.9040  -22.4860   20.6040 C   0  0  0  0  0  2  0  0  0  0  0  0
  -29.4470  -24.1640   18.8450 C   0  0  0  0  0  3  0  0  0  0  0  0
  -27.3400  -23.7340   19.7500 C   0  0  0  0  0  3  0  0  0  0  0  0
  -29.1310  -21.7260   19.9490 C   0  0  0  0  0  3  0  0  0  0  0  0
  -28.2700  -24.9920   19.4880 C   0  0  0  0  0  3  0  0  0  0  0  0
  -29.7560  -20.4770   20.6410 N   0  0  0  0  0  4  0  0  0  0  0  0
  -29.7930  -20.6370   21.6350 H   0  0  0  0  0  0  0  0  0  0  0  0
  -30.7140  -20.4660   20.3300 H   0  0  0  0  0  0  0  0  0  0  0  0
  -29.2500  -19.0290   20.3860 C   0  0  0  0  0  3  0  0  0  0  0  0
  -30.2300  -17.7270   20.6410 C   0  0  0  0  0  3  0  0  0  0  0  0
  -29.6510  -16.1890   20.6530 C   0  0  0  0  0  2  0  0  0  0  0  0
  -30.5450  -14.8490   20.4270 C   0  0  0  0  0  0  0  0  0  0  0  0
  -30.4280  -12.5540   19.4110 C   0  0  0  0  0  2  0  0  0  0  0  0
  -29.4940  -12.6180   18.1790 C   0  0  0  0  0  2  0  0  0  0  0  0
  -28.0210  -12.4190   18.5910 C   0  0  0  0  0  2  0  0  0  0  0  0
  -27.6260  -13.2940   19.8090 C   0  0  0  0  0  3  0  0  0  0  0  0
  -28.6760  -13.2090   20.9350 C   0  0  0  0  0  2  0  0  0  0  0  0
  -29.9770  -13.5900   20.3710 N   0  0  0  0  0  0  0  0  0  0  0  0
  -31.7340  -14.9740   20.1160 O   0  0  0  0  0  0  0  0  0  0  0  0
  -25.2250  -13.8620   20.5110 C   0  0  0  0  0  0  0  0  0  0  0  0
  -24.1640  -13.0780   20.8750 C   0  0  0  0  0  0  0  0  0  0  0  0
  -24.6430  -11.7330   20.8590 C   0  0  0  0  0  0  0  0  0  0  0  0
  -26.2810  -12.9920   20.2900 N   0  0  0  0  0  0  0  0  0  0  0  0
  -25.9380  -11.7070   20.5630 N   0  0  0  0  0  0  0  0  0  0  0  0
  -23.9290  -10.4640   21.0510 C   0  0  0  0  0  0  0  0  0  0  0  0
  -24.3660   -9.5050   21.9910 C   0  0  0  0  0  3  0  0  0  0  0  0
  -23.6520   -8.3000   22.1700 C   0  0  0  0  0  3  0  0  0  0  0  0
  -22.4860   -8.0470   21.4090 C   0  0  0  0  0  0  0  0  0  0  0  0
  -22.0670   -8.9950   20.4590 C   0  0  0  0  0  3  0  0  0  0  0  0
  -22.7830  -10.1900   20.2780 C   0  0  0  0  0  3  0  0  0  0  0  0
  -21.7420   -6.8950   21.4970 O   0  0  0  0  0  0  0  0  0  0  0  0
  -21.6980   -6.1540   22.6510 C   0  0  0  0  0  0  0  0  0  0  0  0
  -21.2640   -6.7050   23.8750 C   0  0  0  0  0  3  0  0  0  0  0  0
  -21.1670   -5.8900   25.0200 C   0  0  0  0  0  3  0  0  0  0  0  0
  -21.4940   -4.5220   24.9430 C   0  0  0  0  0  0  0  0  0  0  0  0
  -21.9220   -3.9710   23.7220 C   0  0  0  0  0  3  0  0  0  0  0  0
  -22.0200   -4.7840   22.5790 C   0  0  0  0  0  0  0  0  0  0  0  0
  -22.4130   -4.2410   21.4010 F   0  0  0  0  0  0  0  0  0  0  0  0
  -21.3950   -3.7370   26.0400 F   0  0  0  0  0  0  0  0  0  0  0  0
  -22.7580  -13.5410   21.1270 C   0  0  0  0  0  0  0  0  0  0  0  0
  -22.0280  -12.8420   21.9890 N   0  0  0  0  0  0  0  0  0  0  0  0
  -22.3150  -14.5580   20.5940 O   0  0  0  0  0  0  0  0  0  0  0  0
  -22.3990  -12.0200   22.4420 H   0  0  0  0  0  0  0  0  0  0  0  0
  -21.0840  -13.1350   22.2000 H   0  0  0  0  0  0  0  0  0  0  0  0
  -25.3760  -15.2340   20.3280 N   0  0  0  0  0  0  0  0  0  0  0  0
  -24.6030  -15.8810   20.4290 H   0  0  0  0  0  0  0  0  0  0  0  0
  -26.2280  -15.6800   20.0130 H   0  0  0  0  0  0  0  0  0  0  0  0
  -28.3180  -26.3410   20.1890 O   0  0  0  0  0  0  0  0  0  0  0  0
  -24.6560  -31.8850   23.2490 C   0  0  0  0  0  0  0  0  0  0  0  0
  -27.2180  -27.2580   20.1450 C   0  0  0  0  0  0  0  0  0  0  0  0
  -23.4360  -30.4950   21.6200 C   0  0  0  0  0  3  0  0  0  0  0  0
  -24.8660  -28.9430   20.1720 C   0  0  0  0  0  0  0  0  0  0  0  0
  -25.9820  -30.7860   21.4180 C   0  0  0  0  0  2  0  0  0  0  0  0
  -26.0500  -29.4040   20.7610 C   0  0  0  0  0  0  0  0  0  0  0  0
  -27.2240  -28.5730   20.7400 C   0  0  0  0  0  3  0  0  0  0  0  0
  -25.9960  -26.8790   19.5370 C   0  0  0  0  0  3  0  0  0  0  0  0
  -24.8470  -27.6900   19.5500 C   0  0  0  0  0  3  0  0  0  0  0  0
  -23.6360  -29.8280   20.2350 C   0  0  0  0  0  2  0  0  0  0  0  0
  -24.7120  -31.0740   22.1510 N   0  0  0  0  0  0  0  0  0  0  0  0
  -23.5780  -32.1650   23.7930 O   0  0  0  0  0  0  0  0  0  0  0  0
  -22.7770  -29.4770   22.5840 C   0  0  0  0  0  0  0  0  0  0  0  0
  -21.4500  -29.2950   22.4650 N   0  0  0  0  0  0  0  0  0  0  0  0
  -23.4610  -28.8550   23.4010 O   0  0  0  0  0  0  0  0  0  0  0  0
  -20.9570  -29.8490   21.7780 H   0  0  0  0  0  0  0  0  0  0  0  0
  -18.0840  -28.0640   22.9730 C   0  0  0  0  0  0  0  0  0  0  0  0
  -20.6390  -28.3540   23.2410 C   0  0  0  0  0  3  0  0  0  0  0  0
  -20.7570  -26.9200   22.6770 C   0  0  0  0  0  2  0  0  0  0  0  0
  -19.6590  -26.5780   21.6650 C   0  0  0  0  0  2  0  0  0  0  0  0
  -18.2750  -26.7120   22.3070 C   0  0  0  0  0  2  0  0  0  0  0  0
  -19.1930  -28.8420   23.3980 C   0  0  0  0  0  0  0  0  0  0  0  0
  -18.9600  -30.1060   23.9810 C   0  0  0  0  0  3  0  0  0  0  0  0
  -17.6490  -30.5930   24.1440 C   0  0  0  0  0  3  0  0  0  0  0  0
  -16.5540  -29.8130   23.7360 C   0  0  0  0  0  3  0  0  0  0  0  0
  -16.7720  -28.5510   23.1550 C   0  0  0  0  0  3  0  0  0  0  0  0
  -25.9440  -32.5180   23.8590 C   0  0  0  0  0  3  0  0  0  0  0  0
  -26.4670  -31.7500   25.1350 C   0  0  1  0  0  0  0  0  0  0  0  0
  -25.3810  -31.5210   26.2120 C   0  0  0  0  0  1  0  0  0  0  0  0
  -27.0410  -30.3680   24.7470 C   0  0  0  0  0  1  0  0  0  0  0  0
  -27.6260  -32.5430   25.7840 C   0  0  0  0  0  1  0  0  0  0  0  0
  -25.6380  -33.9180   24.1900 N   0  0  0  0  0  0  0  0  0  0  0  0
  -25.9670  -34.9710   23.4310 C   0  0  0  0  0  0  0  0  0  0  0  0
  -26.6300  -34.8670   22.3950 O   0  0  0  0  0  0  0  0  0  0  0  0
  -25.0490  -34.0730   24.9950 H   0  0  0  0  0  0  0  0  0  0  0  0
  -24.2460  -36.7750   23.0890 C   0  0  0  0  0  1  0  0  0  0  0  0
  -25.4890  -36.3620   23.8930 C   0  0  0  0  0  3  0  0  0  0  0  0
  -27.6310  -37.2370   24.7170 C   0  0  0  0  0  1  0  0  0  0  0  0
  -26.5260  -37.4100   23.7770 N   0  0  0  0  0  0  0  0  0  0  0  0
  -26.1250  -38.3330   23.9260 H   0  0  0  0  0  0  0  0  0  0  0  0
  1  2  1  0
  3  7  1  0
  5  1  1  0
  5  8  1  0
  5  3  1  0
  6  2  1  0
  6  4  1  0
  7  4  1  0
  7  9  1  0
  8  6  1  0
  8 51  1  0
  9 10  1  0
 11  9  1  0
 12  9  1  0
 12 13  2  0
 13 14  1  0
 15 14  1  0
 16 21  1  0
 17 18  1  0
 17 16  1  0
 19 18  1  0
 19 26  1  0
 19 20  1  0
 21 15  1  0
 21 20  1  0
 22 15  2  0
 23 24  2  0
 24 43  1  0
 25 24  1  0
 25 28  1  0
 26 23  1  0
 26 27  1  0
 27 25  2  0
 28 29  1  0
 29 30  2  0
 31 34  1  0
 31 30  1  0
 32 31  2  0
 33 32  1  0
 33 28  2  0
 34 35  1  0
 35 36  1  0
 36 37  2  0
 38 37  1  0
 38 42  1  0
 39 38  2  0
 40 35  2  0
 40 39  1  0
 41 40  1  0
 43 44  1  0
 44 47  1  0
 44 46  1  0
 45 43  2  0
 48 49  1  0
 48 23  1  0
 50 48  1  0
 52 63  2  0
 53 51  1  0
 53 58  1  0
 54 62  1  0
 54 64  1  0
 55 61  1  0
 55 57  1  0
 56 62  1  0
 57 56  1  0
 58 57  2  0
 59 60  1  0
 59 53  2  0
 60 55  2  0
 61 54  1  0
 62 52  1  0
 64 66  2  0
 65 64  1  0
 67 65  1  0
 68 77  2  0
 68 73  1  0
 69 65  1  0
 69 73  1  0
 70 69  1  0
 71 72  1  0
 71 70  1  0
 72 68  1  0
 73 74  2  0
 74 75  1  0
 76 75  2  0
 77 76  1  0
 78 52  1  0
 78 83  1  0
 78 79  1  0
 79 82  1  1
 79 80  1  0
 81 79  1  0
 83 86  1  0
 84 88  1  0
 84 83  1  0
 85 84  2  0
 88 87  1  0
 90 88  1  0
 90 91  1  0
 90 89  1  0
M  ISO  4   8 101  14 100  15 100  51 101
M  END
>  <TORSDO>  (68) 
F 20

>  <SCORE>  (68) 
-13.781

>  <name>  (68) 
67

>  <ligand_id>  (68) 
67

>  <original_smiles>  (68) 
[H]c1c([H])c([H])c2c(c1[H])C([H])([H])C([H])([H])C([H])([H])C2([H])N([H])C(=O)C1([H])N(C(=O)C([H])(N([H])C(=O)C([H])(N([H])C([H])([H])[H])C([H])([H])[H])C(C([H])([H])[H])(C([H])([H])[H])C([H])([H])[H])C([H])([H])c2c([H])c(OC3([H])C4([H])C([H])([H])C([H])([H])C3([H])C([H])([H])C([H])([N+]([H])([H])C([H])([H])C([H])([H])C([H])([H])C(=O)N3C([H])([H])C([H])([H])C([H])([H])C([H])(n5nc(-c6c([H])c([H])c(Oc7c([H])c([H])c(F)c([H])c7F)c([H])c6[H])c(C(=O)N([H])[H])c5N([H])[H])C3([H])[H])C4([H])[H])c([H])c([H])c2C1([H])[H]

>  <smiles>  (68) 
[H]c1c([H])c([H])c2c(c1[H])C([H])([H])C([H])([H])C([H])([H])C2([H])N([H])C(=O)C1([H])N(C(=O)C([H])(N([H])C(=O)C([H])(N([H])C([H])([H])[H])C([H])([H])[H])C(C([H])([H])[H])(C([H])([H])[H])C([H])([H])[H])C([H])([H])c2c([H])c(OC3([H])C4([H])C([H])([H])C([H])([H])C3([H])C([H])([H])C([H])([N+]([H])([H])C([H])([H])C([H])([H])C([H])([H])C(=O)N3C([H])([H])C([H])([H])C([H])([H])C([H])(n5nc(-c6c([H])c([H])c(Oc7c([H])c([H])c(F)c([H])c7F)c([H])c6[H])c(C(=O)N([H])[H])c5N([H])[H])C3([H])[H])C4([H])[H])c([H])c([H])c2C1([H])[H]

$$$$
68:0:0
     RDKit          3D

 86 94  0  0  1  0  0  0  0  0999 V2000
  -28.5130  -20.5490   19.8800 C   0  0  0  0  0  2  0  0  0  0  0  0
  -29.5570  -19.1170   20.2230 C   0  0  0  0  0  3  0  0  0  0  0  0
  -29.5220  -21.8290   21.5990 C   0  0  0  0  0  3  0  0  0  0  0  0
  -28.9100  -22.2880   20.2100 C   0  0  1  0  0  0  0  0  0  0  0  0
  -30.5260  -22.8310   22.1850 C   0  0  0  0  0  1  0  0  0  0  0  0
  -30.0420  -22.5800   19.2060 C   0  0  0  0  0  1  0  0  0  0  0  0
  -30.2570  -20.0440   21.6630 S   0  0  0  0  0  0  0  0  0  0  0  0
  -29.3520  -17.2200   20.3890 C   0  0  0  0  0  2  0  0  0  0  0  0
  -30.2410  -15.6100   20.1970 C   0  0  0  0  0  0  0  0  0  0  0  0
  -30.3450  -13.0900   19.3470 C   0  0  0  0  0  2  0  0  0  0  0  0
  -29.4230  -12.7790   18.1330 C   0  0  0  0  0  2  0  0  0  0  0  0
  -27.9930  -12.4430   18.5920 C   0  0  0  0  0  2  0  0  0  0  0  0
  -27.5170  -13.4090   19.7000 C   0  0  0  0  0  3  0  0  0  0  0  0
  -28.5680  -13.6440   20.8060 C   0  0  0  0  0  2  0  0  0  0  0  0
  -29.7630  -14.2360   20.1680 N   0  0  0  0  0  0  0  0  0  0  0  0
  -31.4610  -15.5950   19.9430 O   0  0  0  0  0  0  0  0  0  0  0  0
  -25.1620  -13.9230   20.5120 C   0  0  0  0  0  0  0  0  0  0  0  0
  -24.1130  -13.1320   20.8870 C   0  0  0  0  0  0  0  0  0  0  0  0
  -24.5920  -11.7860   20.8310 C   0  0  0  0  0  0  0  0  0  0  0  0
  -26.2070  -13.0610   20.2340 N   0  0  0  0  0  0  0  0  0  0  0  0
  -25.8790  -11.7670   20.4960 N   0  0  0  0  0  0  0  0  0  0  0  0
  -23.8760  -10.5170   21.0170 C   0  0  0  0  0  0  0  0  0  0  0  0
  -24.3090   -9.5500   21.9520 C   0  0  0  0  0  3  0  0  0  0  0  0
  -23.5880   -8.3490   22.1270 C   0  0  0  0  0  3  0  0  0  0  0  0
  -22.4190   -8.1050   21.3680 C   0  0  0  0  0  0  0  0  0  0  0  0
  -22.0040   -9.0580   20.4230 C   0  0  0  0  0  3  0  0  0  0  0  0
  -22.7260  -10.2510   20.2450 C   0  0  0  0  0  3  0  0  0  0  0  0
  -21.6710   -6.9550   21.4520 O   0  0  0  0  0  0  0  0  0  0  0  0
  -21.5960   -6.2270   22.6130 C   0  0  0  0  0  0  0  0  0  0  0  0
  -21.1100   -6.7890   23.8150 C   0  0  0  0  0  3  0  0  0  0  0  0
  -20.9850   -5.9870   24.9670 C   0  0  0  0  0  3  0  0  0  0  0  0
  -21.3360   -4.6250   24.9190 C   0  0  0  0  0  0  0  0  0  0  0  0
  -21.8160   -4.0630   23.7220 C   0  0  0  0  0  3  0  0  0  0  0  0
  -21.9420   -4.8620   22.5720 C   0  0  0  0  0  0  0  0  0  0  0  0
  -22.3840   -4.3100   21.4160 F   0  0  0  0  0  0  0  0  0  0  0  0
  -21.2100   -3.8520   26.0230 F   0  0  0  0  0  0  0  0  0  0  0  0
  -22.7180  -13.5950   21.1810 C   0  0  0  0  0  0  0  0  0  0  0  0
  -22.0080  -12.8910   22.0560 N   0  0  0  0  0  0  0  0  0  0  0  0
  -22.2650  -14.6190   20.6710 O   0  0  0  0  0  0  0  0  0  0  0  0
  -22.3890  -12.0620   22.4900 H   0  0  0  0  0  0  0  0  0  0  0  0
  -21.0730  -13.1850   22.2960 H   0  0  0  0  0  0  0  0  0  0  0  0
  -25.3100  -15.2970   20.3530 N   0  0  0  0  0  0  0  0  0  0  0  0
  -24.5410  -15.9430   20.4940 H   0  0  0  0  0  0  0  0  0  0  0  0
  -26.1540  -15.7520   20.0250 H   0  0  0  0  0  0  0  0  0  0  0  0
  -27.9320  -23.9390   20.1850 C   0  0  0  0  0  2  0  0  0  0  0  0
  -28.1370  -25.6590   20.2790 O   0  0  0  0  0  0  0  0  0  0  0  0
  -24.6280  -31.8750   23.2080 C   0  0  0  0  0  0  0  0  0  0  0  0
  -27.1520  -26.8400   20.2240 C   0  0  0  0  0  0  0  0  0  0  0  0
  -23.4350  -30.4790   21.5730 C   0  0  0  0  0  3  0  0  0  0  0  0
  -24.8780  -28.8360   20.1620 C   0  0  0  0  0  0  0  0  0  0  0  0
  -26.0100  -30.6330   21.4440 C   0  0  0  0  0  2  0  0  0  0  0  0
  -26.0730  -29.2050   20.7910 C   0  0  0  0  0  0  0  0  0  0  0  0
  -27.1980  -28.2340   20.7900 C   0  0  0  0  0  3  0  0  0  0  0  0
  -25.9220  -26.6630   19.5420 C   0  0  0  0  0  3  0  0  0  0  0  0
  -24.8370  -27.5890   19.5140 C   0  0  0  0  0  3  0  0  0  0  0  0
  -23.6710  -29.7820   20.2030 C   0  0  0  0  0  2  0  0  0  0  0  0
  -24.7140  -31.0270   22.1290 N   0  0  0  0  0  0  0  0  0  0  0  0
  -23.5360  -32.1770   23.7210 O   0  0  0  0  0  0  0  0  0  0  0  0
  -22.7210  -29.5010   22.5450 C   0  0  0  0  0  0  0  0  0  0  0  0
  -21.3880  -29.3500   22.4220 N   0  0  0  0  0  0  0  0  0  0  0  0
  -23.3770  -28.8760   23.3820 O   0  0  0  0  0  0  0  0  0  0  0  0
  -20.9100  -29.9040   21.7260 H   0  0  0  0  0  0  0  0  0  0  0  0
  -17.9970  -28.1570   22.9410 C   0  0  0  0  0  0  0  0  0  0  0  0
  -20.5590  -28.4180   23.1960 C   0  0  0  0  0  3  0  0  0  0  0  0
  -20.6540  -26.9840   22.6240 C   0  0  0  0  0  2  0  0  0  0  0  0
  -19.5480  -26.6640   21.6120 C   0  0  0  0  0  2  0  0  0  0  0  0
  -18.1680  -26.8100   22.2590 C   0  0  0  0  0  2  0  0  0  0  0  0
  -19.1180  -28.9190   23.3660 C   0  0  0  0  0  0  0  0  0  0  0  0
  -18.9000  -30.1770   23.9690 C   0  0  0  0  0  3  0  0  0  0  0  0
  -17.5950  -30.6740   24.1460 C   0  0  0  0  0  3  0  0  0  0  0  0
  -16.4890  -29.9110   23.7350 C   0  0  0  0  0  3  0  0  0  0  0  0
  -16.6910  -28.6540   23.1380 C   0  0  0  0  0  3  0  0  0  0  0  0
  -25.8950  -32.5210   23.8470 C   0  0  0  0  0  3  0  0  0  0  0  0
  -25.5790  -33.9240   24.1760 N   0  0  0  0  0  0  0  0  0  0  0  0
  -25.9090  -34.9860   23.4280 C   0  0  0  0  0  0  0  0  0  0  0  0
  -26.5700  -34.8860   22.3920 O   0  0  0  0  0  0  0  0  0  0  0  0
  -24.9900  -34.0740   24.9820 H   0  0  0  0  0  0  0  0  0  0  0  0
  -24.1800  -36.7930   23.1160 C   0  0  0  0  0  1  0  0  0  0  0  0
  -25.4340  -36.3770   23.9020 C   0  0  0  0  0  3  0  0  0  0  0  0
  -27.5820  -37.2610   24.7040 C   0  0  0  0  0  1  0  0  0  0  0  0
  -26.4680  -37.4280   23.7750 N   0  0  0  0  0  0  0  0  0  0  0  0
  -26.0640  -38.3490   23.9260 H   0  0  0  0  0  0  0  0  0  0  0  0
  -26.3870  -31.7640   25.1430 C   0  0  1  0  0  0  0  0  0  0  0  0
  -25.2780  -31.5510   26.2010 C   0  0  0  0  0  1  0  0  0  0  0  0
  -26.9660  -30.3760   24.7890 C   0  0  0  0  0  1  0  0  0  0  0  0
  -27.5350  -32.5590   25.8090 C   0  0  0  0  0  1  0  0  0  0  0  0
  1  4  1  0
  1  2  1  0
  2  8  1  0
  2  7  1  0
  3  7  1  0
  3  5  1  0
  4  6  1  6
  4  3  1  0
  9  8  1  0
 10 15  1  0
 11 12  1  0
 11 10  1  0
 13 12  1  0
 13 20  1  0
 13 14  1  0
 15  9  1  0
 15 14  1  0
 16  9  2  0
 17 18  2  0
 18 37  1  0
 19 18  1  0
 19 22  1  0
 20 21  1  0
 20 17  1  0
 21 19  2  0
 22 23  1  0
 23 24  2  0
 25 28  1  0
 25 24  1  0
 26 25  2  0
 27 26  1  0
 27 22  2  0
 28 29  1  0
 29 30  1  0
 30 31  2  0
 32 31  1  0
 32 36  1  0
 33 32  2  0
 34 29  2  0
 34 33  1  0
 35 34  1  0
 37 38  1  0
 38 41  1  0
 38 40  1  0
 39 37  2  0
 42 43  1  0
 42 17  1  0
 44 42  1  0
 45  4  1  0
 45 46  1  0
 47 58  2  0
 48 46  1  0
 48 53  1  0
 49 57  1  0
 49 59  1  0
 50 56  1  0
 50 52  1  0
 51 57  1  0
 52 51  1  0
 53 52  2  0
 54 48  2  0
 55 54  1  0
 55 50  2  0
 56 49  1  0
 57 47  1  0
 59 61  2  0
 60 59  1  0
 62 60  1  0
 63 72  2  0
 63 68  1  0
 64 60  1  0
 64 68  1  0
 65 64  1  0
 66 67  1  0
 66 65  1  0
 67 63  1  0
 68 69  2  0
 69 70  1  0
 71 70  2  0
 72 71  1  0
 73 47  1  0
 73 74  1  0
 73 83  1  0
 74 77  1  0
 75 79  1  0
 75 74  1  0
 76 75  2  0
 79 78  1  0
 81 79  1  0
 81 82  1  0
 81 80  1  0
 83 86  1  1
 83 84  1  0
 85 83  1  0
M  ISO  4   8 100   9 100  45 101  46 101
M  END
>  <TORSDO>  (69) 
F 18

>  <SCORE>  (69) 
-16.548

>  <name>  (69) 
68

>  <ligand_id>  (69) 
68

>  <original_smiles>  (69) 
[H]c1c([H])c([H])c2c(c1[H])C([H])([H])C([H])([H])C([H])([H])C2([H])N([H])C(=O)C1([H])N(C(=O)C([H])(N([H])C(=O)C([H])(N([H])C([H])([H])[H])C([H])([H])[H])C(C([H])([H])[H])(C([H])([H])[H])C([H])([H])[H])C([H])([H])c2c([H])c(OC([H])([H])C3(C([H])([H])[H])C([H])([H])C([H])(C([H])([H])C(=O)N4C([H])([H])C([H])([H])C([H])([H])C([H])(n5nc(-c6c([H])c([H])c(Oc7c([H])c([H])c(F)c([H])c7F)c([H])c6[H])c(C(=O)N([H])[H])c5N([H])[H])C4([H])[H])SC3([H])C([H])([H])[H])c([H])c([H])c2C1([H])[H]

>  <smiles>  (69) 
[H]c1c([H])c([H])c2c(c1[H])C([H])([H])C([H])([H])C([H])([H])C2([H])N([H])C(=O)C1([H])N(C(=O)C([H])(N([H])C(=O)C([H])(N([H])C([H])([H])[H])C([H])([H])[H])C(C([H])([H])[H])(C([H])([H])[H])C([H])([H])[H])C([H])([H])c2c([H])c(OC([H])([H])C3(C([H])([H])[H])C([H])([H])C([H])(C([H])([H])C(=O)N4C([H])([H])C([H])([H])C([H])([H])C([H])(n5nc(-c6c([H])c([H])c(Oc7c([H])c([H])c(F)c([H])c7F)c([H])c6[H])c(C(=O)N([H])[H])c5N([H])[H])C4([H])[H])SC3([H])C([H])([H])[H])c([H])c([H])c2C1([H])[H]

$$$$
69:0:0
     RDKit          3D

 91100  0  0  1  0  0  0  0  0999 V2000
  -28.9130  -21.3050   19.9690 C   0  0  0  0  0  2  0  0  0  0  0  0
  -32.0300  -18.3890   20.7990 C   0  0  0  0  0  2  0  0  0  0  0  0
  -31.0080  -18.8820   21.8520 C   0  0  0  0  0  2  0  0  0  0  0  0
  -30.6390  -19.5060   18.9860 C   0  0  0  0  0  2  0  0  0  0  0  0
  -31.1380  -18.1340   19.5600 C   0  0  0  0  0  3  0  0  0  0  0  0
  -29.8670  -17.5690   20.1860 C   0  0  0  0  0  3  0  0  0  0  0  0
  -29.7090  -18.9330   21.0260 C   0  0  0  0  0  3  0  0  0  0  0  0
  -29.9420  -20.1500   20.1330 N   0  0  2  0  0  4  0  0  0  0  0  0
  -30.6890  -20.6220   20.6200 H   0  0  0  0  0  0  0  0  0  0  0  0
  -29.9210  -16.1010   20.9280 C   0  0  0  0  0  2  0  0  0  0  0  0
  -30.6500  -14.7880   20.3420 C   0  0  0  0  0  0  0  0  0  0  0  0
  -30.4680  -12.5250   19.2790 C   0  0  0  0  0  2  0  0  0  0  0  0
  -29.5210  -12.6270   18.0620 C   0  0  0  0  0  2  0  0  0  0  0  0
  -28.0530  -12.4420   18.4940 C   0  0  0  0  0  2  0  0  0  0  0  0
  -27.6890  -13.3060   19.7310 C   0  0  0  0  0  3  0  0  0  0  0  0
  -28.7500  -13.1700   20.8440 C   0  0  0  0  0  2  0  0  0  0  0  0
  -30.0460  -13.5480   20.2650 N   0  0  0  0  0  0  0  0  0  0  0  0
  -31.7960  -14.9130   19.9040 O   0  0  0  0  0  0  0  0  0  0  0  0
  -25.2920  -13.8950   20.4320 C   0  0  0  0  0  0  0  0  0  0  0  0
  -24.2250  -13.1210   20.8020 C   0  0  0  0  0  0  0  0  0  0  0  0
  -24.6950  -11.7720   20.7880 C   0  0  0  0  0  0  0  0  0  0  0  0
  -26.3420  -13.0180   20.2130 N   0  0  0  0  0  0  0  0  0  0  0  0
  -25.9880  -11.7360   20.4880 N   0  0  0  0  0  0  0  0  0  0  0  0
  -23.9700  -10.5080   20.9880 C   0  0  0  0  0  0  0  0  0  0  0  0
  -24.4030   -9.5520   21.9330 C   0  0  0  0  0  3  0  0  0  0  0  0
  -23.6790   -8.3550   22.1210 C   0  0  0  0  0  3  0  0  0  0  0  0
  -22.5100   -8.1060   21.3640 C   0  0  0  0  0  0  0  0  0  0  0  0
  -22.0980   -9.0510   20.4070 C   0  0  0  0  0  3  0  0  0  0  0  0
  -22.8220  -10.2400   20.2170 C   0  0  0  0  0  3  0  0  0  0  0  0
  -21.7580   -6.9590   21.4600 O   0  0  0  0  0  0  0  0  0  0  0  0
  -21.7080   -6.2260   22.6190 C   0  0  0  0  0  0  0  0  0  0  0  0
  -21.2790   -6.7910   23.8390 C   0  0  0  0  0  3  0  0  0  0  0  0
  -21.1760   -5.9840   24.9900 C   0  0  0  0  0  3  0  0  0  0  0  0
  -21.4940   -4.6140   24.9210 C   0  0  0  0  0  0  0  0  0  0  0  0
  -21.9190   -4.0500   23.7060 C   0  0  0  0  0  3  0  0  0  0  0  0
  -22.0230   -4.8540   22.5570 C   0  0  0  0  0  0  0  0  0  0  0  0
  -22.4110   -4.3000   21.3820 F   0  0  0  0  0  0  0  0  0  0  0  0
  -21.3900   -3.8380   26.0250 F   0  0  0  0  0  0  0  0  0  0  0  0
  -22.8250  -13.5960   21.0610 C   0  0  0  0  0  0  0  0  0  0  0  0
  -22.0970  -12.9060   21.9330 N   0  0  0  0  0  0  0  0  0  0  0  0
  -22.3850  -14.6130   20.5280 O   0  0  0  0  0  0  0  0  0  0  0  0
  -22.4660  -12.0800   22.3830 H   0  0  0  0  0  0  0  0  0  0  0  0
  -21.1580  -13.2050   22.1530 H   0  0  0  0  0  0  0  0  0  0  0  0
  -25.4520  -15.2640   20.2400 N   0  0  0  0  0  0  0  0  0  0  0  0
  -24.6850  -15.9190   20.3410 H   0  0  0  0  0  0  0  0  0  0  0  0
  -26.3030  -15.7010   19.9120 H   0  0  0  0  0  0  0  0  0  0  0  0
  -29.0270  -24.0170   19.4260 C   0  0  0  0  0  3  0  0  0  0  0  0
  -29.3130  -22.6640   19.2180 C   0  0  0  0  0  0  0  0  0  0  0  0
  -30.1420  -22.3990   17.9680 C   0  0  0  0  0  1  0  0  0  0  0  0
  -28.1820  -24.9250   20.3940 C   0  0  0  0  0  2  0  0  0  0  0  0
  -28.3380  -26.4160   20.2120 O   0  0  0  0  0  0  0  0  0  0  0  0
  -24.6010  -31.8750   23.2410 C   0  0  0  0  0  0  0  0  0  0  0  0
  -27.2180  -27.2780   20.1970 C   0  0  0  0  0  0  0  0  0  0  0  0
  -23.4050  -30.4760   21.6000 C   0  0  0  0  0  3  0  0  0  0  0  0
  -24.8600  -28.9190   20.1800 C   0  0  0  0  0  0  0  0  0  0  0  0
  -25.9480  -30.7850   21.4270 C   0  0  0  0  0  2  0  0  0  0  0  0
  -26.0310  -29.4030   20.7780 C   0  0  0  0  0  0  0  0  0  0  0  0
  -27.2140  -28.5960   20.7720 C   0  0  0  0  0  3  0  0  0  0  0  0
  -26.0260  -26.8620   19.5690 C   0  0  0  0  0  3  0  0  0  0  0  0
  -24.8620  -27.6570   19.5660 C   0  0  0  0  0  3  0  0  0  0  0  0
  -23.6250  -29.8000   20.2210 C   0  0  0  0  0  2  0  0  0  0  0  0
  -24.6700  -31.0630   22.1450 N   0  0  0  0  0  0  0  0  0  0  0  0
  -23.5150  -32.1540   23.7710 O   0  0  0  0  0  0  0  0  0  0  0  0
  -22.7390  -29.4610   22.5610 C   0  0  0  0  0  0  0  0  0  0  0  0
  -21.4130  -29.2810   22.4290 N   0  0  0  0  0  0  0  0  0  0  0  0
  -23.4140  -28.8370   23.3830 O   0  0  0  0  0  0  0  0  0  0  0  0
  -20.9260  -29.8300   21.7350 H   0  0  0  0  0  0  0  0  0  0  0  0
  -18.0370  -28.0740   22.9230 C   0  0  0  0  0  0  0  0  0  0  0  0
  -20.5930  -28.3440   23.2010 C   0  0  0  0  0  3  0  0  0  0  0  0
  -20.7050  -26.9120   22.6310 C   0  0  0  0  0  2  0  0  0  0  0  0
  -19.6080  -26.5800   21.6150 C   0  0  0  0  0  2  0  0  0  0  0  0
  -18.2220  -26.7240   22.2510 C   0  0  0  0  0  2  0  0  0  0  0  0
  -19.1520  -28.8420   23.3540 C   0  0  0  0  0  0  0  0  0  0  0  0
  -18.9250  -30.1050   23.9420 C   0  0  0  0  0  3  0  0  0  0  0  0
  -17.6180  -30.6020   24.1020 C   0  0  0  0  0  3  0  0  0  0  0  0
  -16.5180  -29.8320   23.6870 C   0  0  0  0  0  3  0  0  0  0  0  0
  -16.7280  -28.5700   23.1020 C   0  0  0  0  0  3  0  0  0  0  0  0
  -25.8800  -32.5110   23.8660 C   0  0  0  0  0  3  0  0  0  0  0  0
  -26.3910  -31.7480   25.1490 C   0  0  1  0  0  0  0  0  0  0  0  0
  -25.2940  -31.5150   26.2130 C   0  0  0  0  0  1  0  0  0  0  0  0
  -26.9790  -30.3690   24.7710 C   0  0  0  0  0  1  0  0  0  0  0  0
  -27.5380  -32.5490   25.8100 C   0  0  0  0  0  1  0  0  0  0  0  0
  -25.5670  -33.9110   24.1880 N   0  0  0  0  0  0  0  0  0  0  0  0
  -25.9020  -34.9620   23.4270 C   0  0  0  0  0  0  0  0  0  0  0  0
  -26.5750  -34.8540   22.3990 O   0  0  0  0  0  0  0  0  0  0  0  0
  -24.9720  -34.0690   24.9880 H   0  0  0  0  0  0  0  0  0  0  0  0
  -24.1800  -36.7570   23.0640 C   0  0  0  0  0  1  0  0  0  0  0  0
  -25.4160  -36.3510   23.8820 C   0  0  0  0  0  3  0  0  0  0  0  0
  -27.5470  -37.2360   24.7220 C   0  0  0  0  0  1  0  0  0  0  0  0
  -26.4490  -37.4020   23.7730 N   0  0  0  0  0  0  0  0  0  0  0  0
  -26.0440  -38.3230   23.9180 H   0  0  0  0  0  0  0  0  0  0  0  0
  1  8  1  0
  2  3  1  0
  4  8  1  0
  5  4  1  0
  5  6  1  0
  5  2  1  0
  6 10  1  0
  6  7  1  0
  7  3  1  0
  8  9  1  1
  8  7  1  0
 11 10  1  0
 12 17  1  0
 13 14  1  0
 13 12  1  0
 15 14  1  0
 15 22  1  0
 15 16  1  0
 17 11  1  0
 17 16  1  0
 18 11  2  0
 19 20  2  0
 20 39  1  0
 21 20  1  0
 21 24  1  0
 22 19  1  0
 22 23  1  0
 23 21  2  0
 24 25  1  0
 25 26  2  0
 27 30  1  0
 27 26  1  0
 28 27  2  0
 29 28  1  0
 29 24  2  0
 30 31  1  0
 31 32  1  0
 32 33  2  0
 34 33  1  0
 34 38  1  0
 35 34  2  0
 36 31  2  0
 36 35  1  0
 37 36  1  0
 39 40  1  0
 40 43  1  0
 40 42  1  0
 41 39  2  0
 44 45  1  0
 44 19  1  0
 46 44  1  0
 47 50  1  0
 48 47  2  0
 48  1  1  0
 49 48  1  0
 51 50  1  0
 52 63  2  0
 53 51  1  0
 53 58  1  0
 54 62  1  0
 54 64  1  0
 55 61  1  0
 55 57  1  0
 56 62  1  0
 57 56  1  0
 58 57  2  0
 59 53  2  0
 60 59  1  0
 60 55  2  0
 61 54  1  0
 62 52  1  0
 64 66  2  0
 65 64  1  0
 67 65  1  0
 68 77  2  0
 68 73  1  0
 69 65  1  0
 69 73  1  0
 70 69  1  0
 71 72  1  0
 71 70  1  0
 72 68  1  0
 73 74  2  0
 74 75  1  0
 76 75  2  0
 77 76  1  0
 78 52  1  0
 78 83  1  0
 78 79  1  0
 79 82  1  1
 79 80  1  0
 81 79  1  0
 83 86  1  0
 84 88  1  0
 84 83  1  0
 85 84  2  0
 88 87  1  0
 90 88  1  0
 90 91  1  0
 90 89  1  0
M  ISO  4  10 100  11 100  50 101  51 101
M  END
>  <TORSDO>  (70) 
F 20

>  <SCORE>  (70) 
-13.889

>  <name>  (70) 
69

>  <ligand_id>  (70) 
69

>  <original_smiles>  (70) 
[H]C(=C(C([H])([H])[H])C([H])([H])[N+]1([H])C([H])([H])C2([H])C([H])([H])C([H])([H])C1([H])C2([H])C([H])([H])C(=O)N1C([H])([H])C([H])([H])C([H])([H])C([H])(n2nc(-c3c([H])c([H])c(Oc4c([H])c([H])c(F)c([H])c4F)c([H])c3[H])c(C(=O)N([H])[H])c2N([H])[H])C1([H])[H])C([H])([H])Oc1c([H])c([H])c2c(c1[H])C([H])([H])N(C(=O)C([H])(N([H])C(=O)C([H])(N([H])C([H])([H])[H])C([H])([H])[H])C(C([H])([H])[H])(C([H])([H])[H])C([H])([H])[H])C([H])(C(=O)N([H])C1([H])c3c([H])c([H])c([H])c([H])c3C([H])([H])C([H])([H])C1([H])[H])C2([H])[H]

>  <smiles>  (70) 
[H]C(=C(C([H])([H])[H])C([H])([H])[N+]1([H])C([H])([H])C2([H])C([H])([H])C([H])([H])C1([H])C2([H])C([H])([H])C(=O)N1C([H])([H])C([H])([H])C([H])([H])C([H])(n2nc(-c3c([H])c([H])c(Oc4c([H])c([H])c(F)c([H])c4F)c([H])c3[H])c(C(=O)N([H])[H])c2N([H])[H])C1([H])[H])C([H])([H])Oc1c([H])c([H])c2c(c1[H])C([H])([H])N(C(=O)C([H])(N([H])C(=O)C([H])(N([H])C([H])([H])[H])C([H])([H])[H])C(C([H])([H])[H])(C([H])([H])[H])C([H])([H])[H])C([H])(C(=O)N([H])C1([H])c3c([H])c([H])c([H])c([H])c3C([H])([H])C([H])([H])C1([H])[H])C2([H])[H]

$$$$
70:0:0
     RDKit          3D

 90 99  0  0  1  0  0  0  0  0999 V2000
  -29.3130  -20.6760   19.6970 C   0  0  0  0  0  0  0  0  0  0  0  0
  -29.1020  -19.8210   18.4710 C   0  0  0  0  0  2  0  0  0  0  0  0
  -28.5960  -18.4600   18.9770 C   0  0  0  0  0  2  0  0  0  0  0  0
  -31.1290  -19.4730   21.1080 C   0  0  0  0  0  2  0  0  0  0  0  0
  -31.2660  -17.9860   21.4820 C   0  0  0  0  0  2  0  0  0  0  0  0
  -29.6270  -19.6980   20.8460 C   0  0  0  0  0  3  0  0  0  0  0  0
  -29.1190  -18.2890   20.4150 C   0  0  0  0  0  3  0  0  0  0  0  0
  -30.2790  -17.2480   20.5620 C   0  0  0  0  0  3  0  0  0  0  0  0
  -29.1820  -21.9620   19.6720 N   0  0  0  0  0  0  0  0  0  0  0  0
  -29.8520  -15.8080   21.0500 C   0  0  0  0  0  2  0  0  0  0  0  0
  -30.6270  -14.5660   20.4890 C   0  0  0  0  0  0  0  0  0  0  0  0
  -30.3860  -12.3710   19.3520 C   0  0  0  0  0  2  0  0  0  0  0  0
  -29.4470  -12.5510   18.1400 C   0  0  0  0  0  2  0  0  0  0  0  0
  -27.9700  -12.4020   18.5580 C   0  0  0  0  0  2  0  0  0  0  0  0
  -27.6180  -13.2510   19.8080 C   0  0  0  0  0  3  0  0  0  0  0  0
  -28.6680  -13.0470   20.9250 C   0  0  0  0  0  2  0  0  0  0  0  0
  -29.9920  -13.3610   20.3690 N   0  0  0  0  0  0  0  0  0  0  0  0
  -31.7690  -14.7320   20.0500 O   0  0  0  0  0  0  0  0  0  0  0  0
  -25.2190  -13.8710   20.5030 C   0  0  0  0  0  0  0  0  0  0  0  0
  -24.1450  -13.1060   20.8670 C   0  0  0  0  0  0  0  0  0  0  0  0
  -24.6000  -11.7520   20.8450 C   0  0  0  0  0  0  0  0  0  0  0  0
  -26.2620  -12.9840   20.2820 N   0  0  0  0  0  0  0  0  0  0  0  0
  -25.8930  -11.7040   20.5470 N   0  0  0  0  0  0  0  0  0  0  0  0
  -23.8670  -10.4930   21.0350 C   0  0  0  0  0  0  0  0  0  0  0  0
  -24.2930   -9.5260   21.9720 C   0  0  0  0  0  3  0  0  0  0  0  0
  -23.5610   -8.3320   22.1490 C   0  0  0  0  0  3  0  0  0  0  0  0
  -22.3910   -8.0970   21.3890 C   0  0  0  0  0  0  0  0  0  0  0  0
  -21.9850   -9.0530   20.4410 C   0  0  0  0  0  3  0  0  0  0  0  0
  -22.7160  -10.2390   20.2620 C   0  0  0  0  0  3  0  0  0  0  0  0
  -21.6330   -6.9550   21.4750 O   0  0  0  0  0  0  0  0  0  0  0  0
  -21.5780   -6.2120   22.6270 C   0  0  0  0  0  0  0  0  0  0  0  0
  -21.1530   -6.7690   23.8530 C   0  0  0  0  0  3  0  0  0  0  0  0
  -21.0460   -5.9530   24.9980 C   0  0  0  0  0  3  0  0  0  0  0  0
  -21.3530   -4.5810   24.9170 C   0  0  0  0  0  0  0  0  0  0  0  0
  -21.7700   -4.0240   23.6950 C   0  0  0  0  0  3  0  0  0  0  0  0
  -21.8790   -4.8370   22.5530 C   0  0  0  0  0  0  0  0  0  0  0  0
  -22.2620   -4.2920   21.3740 F   0  0  0  0  0  0  0  0  0  0  0  0
  -21.2410   -3.7960   26.0130 F   0  0  0  0  0  0  0  0  0  0  0  0
  -22.7470  -13.5890   21.1250 C   0  0  0  0  0  0  0  0  0  0  0  0
  -22.0080  -12.8980   21.9870 N   0  0  0  0  0  0  0  0  0  0  0  0
  -22.3180  -14.6140   20.5990 O   0  0  0  0  0  0  0  0  0  0  0  0
  -22.3670  -12.0680   22.4360 H   0  0  0  0  0  0  0  0  0  0  0  0
  -21.0700  -13.2040   22.2020 H   0  0  0  0  0  0  0  0  0  0  0  0
  -25.3910  -15.2410   20.3210 N   0  0  0  0  0  0  0  0  0  0  0  0
  -24.6260  -15.8990   20.4220 H   0  0  0  0  0  0  0  0  0  0  0  0
  -26.2480  -15.6760   20.0030 H   0  0  0  0  0  0  0  0  0  0  0  0
  -29.2830  -22.7980   20.8720 C   0  0  0  0  0  2  0  0  0  0  0  0
  -29.4560  -24.3330   20.5620 C   0  0  0  0  0  2  0  0  0  0  0  0
  -28.1910  -25.1520   20.1480 C   0  0  0  0  0  2  0  0  0  0  0  0
  -28.3630  -26.6010   20.1790 O   0  0  0  0  0  0  0  0  0  0  0  0
  -24.6030  -31.8860   23.2160 C   0  0  0  0  0  0  0  0  0  0  0  0
  -27.2100  -27.3820   20.1440 C   0  0  0  0  0  0  0  0  0  0  0  0
  -23.3850  -30.4820   21.5890 C   0  0  0  0  0  3  0  0  0  0  0  0
  -24.8250  -28.9360   20.1560 C   0  0  0  0  0  0  0  0  0  0  0  0
  -25.9160  -30.8220   21.3780 C   0  0  0  0  0  2  0  0  0  0  0  0
  -25.9930  -29.4470   20.7350 C   0  0  0  0  0  0  0  0  0  0  0  0
  -27.1880  -28.6810   20.7190 C   0  0  0  0  0  3  0  0  0  0  0  0
  -26.0180  -26.9040   19.5500 C   0  0  0  0  0  3  0  0  0  0  0  0
  -24.8370  -27.6670   19.5580 C   0  0  0  0  0  3  0  0  0  0  0  0
  -23.5840  -29.8000   20.2100 C   0  0  0  0  0  2  0  0  0  0  0  0
  -24.6530  -31.0800   22.1180 N   0  0  0  0  0  0  0  0  0  0  0  0
  -23.5250  -32.1610   23.7640 O   0  0  0  0  0  0  0  0  0  0  0  0
  -22.7360  -29.4650   22.5560 C   0  0  0  0  0  0  0  0  0  0  0  0
  -21.4100  -29.2840   22.4380 N   0  0  0  0  0  0  0  0  0  0  0  0
  -23.4230  -28.8420   23.3690 O   0  0  0  0  0  0  0  0  0  0  0  0
  -20.9160  -29.8370   21.7520 H   0  0  0  0  0  0  0  0  0  0  0  0
  -18.0370  -28.0930   22.9570 C   0  0  0  0  0  0  0  0  0  0  0  0
  -20.5970  -28.3500   23.2180 C   0  0  0  0  0  3  0  0  0  0  0  0
  -20.6970  -26.9160   22.6470 C   0  0  0  0  0  2  0  0  0  0  0  0
  -19.5910  -26.5890   21.6400 C   0  0  0  0  0  2  0  0  0  0  0  0
  -18.2120  -26.7390   22.2880 C   0  0  0  0  0  2  0  0  0  0  0  0
  -19.1580  -28.8560   23.3800 C   0  0  0  0  0  0  0  0  0  0  0  0
  -18.9420  -30.1220   23.9640 C   0  0  0  0  0  3  0  0  0  0  0  0
  -17.6390  -30.6240   24.1340 C   0  0  0  0  0  3  0  0  0  0  0  0
  -16.5320  -29.8570   23.7300 C   0  0  0  0  0  3  0  0  0  0  0  0
  -16.7320  -28.5940   23.1450 C   0  0  0  0  0  3  0  0  0  0  0  0
  -25.8930  -32.5180   23.8250 C   0  0  0  0  0  3  0  0  0  0  0  0
  -26.4290  -31.7400   25.0890 C   0  0  1  0  0  0  0  0  0  0  0  0
  -25.3520  -31.4930   26.1690 C   0  0  0  0  0  1  0  0  0  0  0  0
  -27.0110  -30.3670   24.6790 C   0  0  0  0  0  1  0  0  0  0  0  0
  -27.5860  -32.5320   25.7400 C   0  0  0  0  0  1  0  0  0  0  0  0
  -25.5850  -33.9130   24.1680 N   0  0  0  0  0  0  0  0  0  0  0  0
  -25.9050  -34.9710   23.4120 C   0  0  0  0  0  0  0  0  0  0  0  0
  -26.5610  -34.8760   22.3720 O   0  0  0  0  0  0  0  0  0  0  0  0
  -25.0010  -34.0600   24.9790 H   0  0  0  0  0  0  0  0  0  0  0  0
  -24.1690  -36.7610   23.0870 C   0  0  0  0  0  1  0  0  0  0  0  0
  -25.4180  -36.3540   23.8840 C   0  0  0  0  0  3  0  0  0  0  0  0
  -27.5570  -37.2390   24.7020 C   0  0  0  0  0  1  0  0  0  0  0  0
  -26.4470  -37.4110   23.7690 N   0  0  0  0  0  0  0  0  0  0  0  0
  -26.0400  -38.3290   23.9270 H   0  0  0  0  0  0  0  0  0  0  0  0
  1  6  1  0
  2  3  1  0
  2  1  1  0
  4  5  1  0
  6  4  1  0
  7  3  1  0
  7  8  1  0
  7  6  1  0
  8 10  1  0
  8  5  1  0
  9  1  2  0
  9 47  1  0
 11 10  1  0
 12 17  1  0
 13 14  1  0
 13 12  1  0
 15 14  1  0
 15 22  1  0
 15 16  1  0
 17 11  1  0
 17 16  1  0
 18 11  2  0
 19 20  2  0
 20 39  1  0
 21 20  1  0
 21 24  1  0
 22 19  1  0
 22 23  1  0
 23 21  2  0
 24 25  1  0
 25 26  2  0
 27 30  1  0
 27 26  1  0
 28 27  2  0
 29 28  1  0
 29 24  2  0
 30 31  1  0
 31 32  1  0
 32 33  2  0
 34 33  1  0
 34 38  1  0
 35 34  2  0
 36 31  2  0
 36 35  1  0
 37 36  1  0
 39 40  1  0
 40 43  1  0
 40 42  1  0
 41 39  2  0
 44 45  1  0
 44 19  1  0
 46 44  1  0
 48 47  1  0
 49 50  1  0
 49 48  1  0
 51 62  2  0
 52 50  1  0
 52 57  1  0
 53 61  1  0
 53 63  1  0
 54 60  1  0
 54 56  1  0
 55 61  1  0
 56 55  1  0
 57 56  2  0
 58 59  1  0
 58 52  2  0
 59 54  2  0
 60 53  1  0
 61 51  1  0
 63 65  2  0
 64 63  1  0
 66 64  1  0
 67 76  2  0
 67 72  1  0
 68 64  1  0
 68 72  1  0
 69 68  1  0
 70 71  1  0
 70 69  1  0
 71 67  1  0
 72 73  2  0
 73 74  1  0
 75 74  2  0
 76 75  1  0
 77 51  1  0
 77 82  1  0
 77 78  1  0
 78 81  1  1
 78 79  1  0
 80 78  1  0
 82 85  1  0
 83 87  1  0
 83 82  1  0
 84 83  2  0
 87 86  1  0
 89 87  1  0
 89 90  1  0
 89 88  1  0
M  ISO  4  10 100  11 100  49 101  50 101
M  END
>  <TORSDO>  (71) 
F 20

>  <SCORE>  (71) 
-14.063

>  <name>  (71) 
70

>  <ligand_id>  (71) 
70

>  <original_smiles>  (71) 
[H]c1c([H])c([H])c2c(c1[H])C([H])([H])C([H])([H])C([H])([H])C2([H])N([H])C(=O)C1([H])N(C(=O)C([H])(N([H])C(=O)C([H])(N([H])C([H])([H])[H])C([H])([H])[H])C(C([H])([H])[H])(C([H])([H])[H])C([H])([H])[H])C([H])([H])c2c([H])c(OC([H])([H])C([H])([H])C([H])([H])N=C3C([H])([H])C([H])([H])C4([H])C3([H])C([H])([H])C([H])([H])C4([H])C([H])([H])C(=O)N3C([H])([H])C([H])([H])C([H])([H])C([H])(n4nc(-c5c([H])c([H])c(Oc6c([H])c([H])c(F)c([H])c6F)c([H])c5[H])c(C(=O)N([H])[H])c4N([H])[H])C3([H])[H])c([H])c([H])c2C1([H])[H]

>  <smiles>  (71) 
[H]c1c([H])c([H])c2c(c1[H])C([H])([H])C([H])([H])C([H])([H])C2([H])N([H])C(=O)C1([H])N(C(=O)C([H])(N([H])C(=O)C([H])(N([H])C([H])([H])[H])C([H])([H])[H])C(C([H])([H])[H])(C([H])([H])[H])C([H])([H])[H])C([H])([H])c2c([H])c(OC([H])([H])C([H])([H])C([H])([H])N=C3C([H])([H])C([H])([H])C4([H])C3([H])C([H])([H])C([H])([H])C4([H])C([H])([H])C(=O)N3C([H])([H])C([H])([H])C([H])([H])C([H])(n4nc(-c5c([H])c([H])c(Oc6c([H])c([H])c(F)c([H])c6F)c([H])c5[H])c(C(=O)N([H])[H])c4N([H])[H])C3([H])[H])c([H])c([H])c2C1([H])[H]

$$$$
71:0:0
     RDKit          3D

 90 98  0  0  1  0  0  0  0  0999 V2000
  -30.0970  -17.5850   21.6870 C   0  0  0  0  0  2  0  0  0  0  0  0
  -30.0210  -19.1950   21.6600 C   0  0  0  0  0  2  0  0  0  0  0  0
  -29.9640  -16.9120   20.2770 C   0  0  0  0  0  3  0  0  0  0  0  0
  -30.1150  -18.4060   19.4980 C   0  0  0  0  0  3  0  0  0  0  0  0
  -29.4760  -19.7740   20.3120 C   0  0  1  0  0  0  0  0  0  0  0  0
  -27.9440  -19.6450   20.3370 C   0  0  0  0  0  1  0  0  0  0  0  0
  -30.7750  -15.3960   19.9990 C   0  0  0  0  0  0  0  0  0  0  0  0
  -30.7360  -12.9560   19.1400 C   0  0  0  0  0  2  0  0  0  0  0  0
  -29.7820  -12.7960   17.9290 C   0  0  0  0  0  2  0  0  0  0  0  0
  -28.3370  -12.5490   18.3980 C   0  0  0  0  0  2  0  0  0  0  0  0
  -27.9270  -13.5120   19.5410 C   0  0  0  0  0  3  0  0  0  0  0  0
  -29.0010  -13.6210   20.6430 C   0  0  0  0  0  2  0  0  0  0  0  0
  -30.2380  -14.0870   20.0000 N   0  0  0  0  0  0  0  0  0  0  0  0
  -31.9710  -15.4180   19.6660 O   0  0  0  0  0  0  0  0  0  0  0  0
  -25.5880  -14.0890   20.3800 C   0  0  0  0  0  0  0  0  0  0  0  0
  -24.5280  -13.3190   20.7690 C   0  0  0  0  0  0  0  0  0  0  0  0
  -24.9750  -11.9620   20.6970 C   0  0  0  0  0  0  0  0  0  0  0  0
  -26.6100  -13.2050   20.0830 N   0  0  0  0  0  0  0  0  0  0  0  0
  -26.2550  -11.9180   20.3430 N   0  0  0  0  0  0  0  0  0  0  0  0
  -24.2390  -10.7050   20.8880 C   0  0  0  0  0  0  0  0  0  0  0  0
  -24.6470   -9.7440   21.8370 C   0  0  0  0  0  3  0  0  0  0  0  0
  -23.9080   -8.5550   22.0160 C   0  0  0  0  0  3  0  0  0  0  0  0
  -22.7460   -8.3180   21.2430 C   0  0  0  0  0  0  0  0  0  0  0  0
  -22.3550   -9.2680   20.2840 C   0  0  0  0  0  3  0  0  0  0  0  0
  -23.0960  -10.4500   20.1040 C   0  0  0  0  0  3  0  0  0  0  0  0
  -21.9810   -7.1800   21.3300 O   0  0  0  0  0  0  0  0  0  0  0  0
  -21.8550   -6.4850   22.5050 C   0  0  0  0  0  0  0  0  0  0  0  0
  -21.3110   -7.0760   23.6670 C   0  0  0  0  0  3  0  0  0  0  0  0
  -21.1350   -6.3050   24.8340 C   0  0  0  0  0  3  0  0  0  0  0  0
  -21.4930   -4.9440   24.8390 C   0  0  0  0  0  0  0  0  0  0  0  0
  -22.0310   -4.3520   23.6830 C   0  0  0  0  0  3  0  0  0  0  0  0
  -22.2080   -5.1200   22.5190 C   0  0  0  0  0  0  0  0  0  0  0  0
  -22.7050   -4.5390   21.4010 F   0  0  0  0  0  0  0  0  0  0  0  0
  -21.3180   -4.2010   25.9580 F   0  0  0  0  0  0  0  0  0  0  0  0
  -23.1470  -13.8080   21.0920 C   0  0  0  0  0  0  0  0  0  0  0  0
  -22.4460  -13.1190   21.9870 N   0  0  0  0  0  0  0  0  0  0  0  0
  -22.6990  -14.8370   20.5870 O   0  0  0  0  0  0  0  0  0  0  0  0
  -22.8230  -12.2870   22.4160 H   0  0  0  0  0  0  0  0  0  0  0  0
  -21.5220  -13.4310   22.2480 H   0  0  0  0  0  0  0  0  0  0  0  0
  -25.7630  -15.4620   20.2240 N   0  0  0  0  0  0  0  0  0  0  0  0
  -25.0090  -16.1220   20.3800 H   0  0  0  0  0  0  0  0  0  0  0  0
  -26.6070  -15.8960   19.8730 H   0  0  0  0  0  0  0  0  0  0  0  0
  -29.6320  -18.2640   18.0400 C   0  0  0  0  0  2  0  0  0  0  0  0
  -31.7570  -18.9250   16.7710 C   0  0  0  0  0  1  0  0  0  0  0  0
  -29.4870  -19.2020   15.7090 C   0  0  0  0  0  1  0  0  0  0  0  0
  -30.2690  -19.2370   17.0320 C   0  0  0  0  0  3  0  0  0  0  0  0
  -29.7390  -21.5090   19.9860 C   0  0  0  0  0  2  0  0  0  0  0  0
  -28.9630  -23.0130   20.5360 C   0  0  0  0  0  2  0  0  0  0  0  0
  -28.8980  -24.6520   19.8490 C   0  0  0  0  0  2  0  0  0  0  0  0
  -28.7270  -26.1740   20.4120 O   0  0  0  0  0  0  0  0  0  0  0  0
  -24.8090  -31.9010   23.2220 C   0  0  0  0  0  0  0  0  0  0  0  0
  -27.6670  -27.1940   20.2500 C   0  0  0  0  0  0  0  0  0  0  0  0
  -23.7340  -30.4820   21.5200 C   0  0  0  0  0  3  0  0  0  0  0  0
  -25.2990  -28.9600   20.1300 C   0  0  0  0  0  0  0  0  0  0  0  0
  -26.2910  -30.8010   21.4790 C   0  0  0  0  0  2  0  0  0  0  0  0
  -26.4390  -29.4080   20.8090 C   0  0  0  0  0  0  0  0  0  0  0  0
  -27.6150  -28.5410   20.8460 C   0  0  0  0  0  3  0  0  0  0  0  0
  -26.4940  -26.8850   19.5250 C   0  0  0  0  0  3  0  0  0  0  0  0
  -25.3480  -27.7200   19.4740 C   0  0  0  0  0  3  0  0  0  0  0  0
  -24.0400  -29.8270   20.1440 C   0  0  0  0  0  2  0  0  0  0  0  0
  -24.9630  -31.0840   22.1300 N   0  0  0  0  0  0  0  0  0  0  0  0
  -23.6900  -32.1420   23.7020 O   0  0  0  0  0  0  0  0  0  0  0  0
  -23.0420  -29.4460   22.4420 C   0  0  0  0  0  0  0  0  0  0  0  0
  -21.7150  -29.2740   22.2990 N   0  0  0  0  0  0  0  0  0  0  0  0
  -23.7050  -28.8000   23.2600 O   0  0  0  0  0  0  0  0  0  0  0  0
  -21.2340  -29.8460   21.6190 H   0  0  0  0  0  0  0  0  0  0  0  0
  -18.3260  -28.0870   22.7860 C   0  0  0  0  0  0  0  0  0  0  0  0
  -20.8910  -28.3050   23.0290 C   0  0  0  0  0  3  0  0  0  0  0  0
  -20.9670  -26.9060   22.3770 C   0  0  0  0  0  2  0  0  0  0  0  0
  -19.8490  -26.6520   21.3600 C   0  0  0  0  0  2  0  0  0  0  0  0
  -18.4770  -26.7750   22.0310 C   0  0  0  0  0  2  0  0  0  0  0  0
  -19.4610  -28.8110   23.2400 C   0  0  0  0  0  0  0  0  0  0  0  0
  -19.2640  -30.0370   23.9110 C   0  0  0  0  0  3  0  0  0  0  0  0
  -17.9680  -30.5420   24.1280 C   0  0  0  0  0  3  0  0  0  0  0  0
  -16.8480  -29.8130   23.6930 C   0  0  0  0  0  3  0  0  0  0  0  0
  -17.0280  -28.5860   23.0270 C   0  0  0  0  0  3  0  0  0  0  0  0
  -26.0310  -32.5800   23.9150 C   0  0  0  0  0  3  0  0  0  0  0  0
  -25.6600  -33.9730   24.2140 N   0  0  0  0  0  0  0  0  0  0  0  0
  -26.0110  -35.0360   23.4760 C   0  0  0  0  0  0  0  0  0  0  0  0
  -26.7380  -34.9470   22.4850 O   0  0  0  0  0  0  0  0  0  0  0  0
  -25.0150  -34.1130   24.9780 H   0  0  0  0  0  0  0  0  0  0  0  0
  -24.2700  -36.7990   23.0190 C   0  0  0  0  0  1  0  0  0  0  0  0
  -25.4660  -36.4150   23.9040 C   0  0  0  0  0  3  0  0  0  0  0  0
  -27.5180  -37.3550   24.8730 C   0  0  0  0  0  1  0  0  0  0  0  0
  -26.4810  -37.4900   23.8540 N   0  0  0  0  0  0  0  0  0  0  0  0
  -26.0470  -38.4010   23.9630 H   0  0  0  0  0  0  0  0  0  0  0  0
  -26.4820  -31.8410   25.2360 C   0  0  1  0  0  0  0  0  0  0  0  0
  -25.3280  -31.5870   26.2340 C   0  0  0  0  0  1  0  0  0  0  0  0
  -27.1290  -30.4760   24.9120 C   0  0  0  0  0  1  0  0  0  0  0  0
  -27.5610  -32.6800   25.9600 C   0  0  0  0  0  1  0  0  0  0  0  0
  2  1  1  0
  3  7  1  0
  3  1  1  0
  4 43  1  0
  4  3  1  0
  4  5  1  0
  5  6  1  1
  5  2  1  0
  7 13  1  0
  8 13  1  0
  9 10  1  0
  9  8  1  0
 11 10  1  0
 11 18  1  0
 11 12  1  0
 13 12  1  0
 14  7  2  0
 15 16  2  0
 16 35  1  0
 17 16  1  0
 17 20  1  0
 18 19  1  0
 18 15  1  0
 19 17  2  0
 20 21  1  0
 21 22  2  0
 23 26  1  0
 23 22  1  0
 24 23  2  0
 25 24  1  0
 25 20  2  0
 26 27  1  0
 27 32  2  0
 27 28  1  0
 28 29  2  0
 29 30  1  0
 30 34  1  0
 31 30  2  0
 32 31  1  0
 33 32  1  0
 35 36  1  0
 36 39  1  0
 36 38  1  0
 37 35  2  0
 40 41  1  0
 40 15  1  0
 42 40  1  0
 44 46  1  0
 45 46  1  0
 46 43  1  0
 47  5  1  0
 47 48  1  0
 49 50  1  0
 49 48  1  0
 51 62  2  0
 52 50  1  0
 52 57  1  0
 53 61  1  0
 53 63  1  0
 54 60  1  0
 54 56  1  0
 55 61  1  0
 56 57  2  0
 56 55  1  0
 58 52  2  0
 59 58  1  0
 59 54  2  0
 60 53  1  0
 61 51  1  0
 63 65  2  0
 64 63  1  0
 66 64  1  0
 67 76  2  0
 67 72  1  0
 68 64  1  0
 68 72  1  0
 69 68  1  0
 70 71  1  0
 70 69  1  0
 71 67  1  0
 72 73  2  0
 73 74  1  0
 75 74  2  0
 76 75  1  0
 77 51  1  0
 77 78  1  0
 77 87  1  0
 78 81  1  0
 79 83  1  0
 79 78  1  0
 80 79  2  0
 83 82  1  0
 85 83  1  0
 85 86  1  0
 85 84  1  0
 87 90  1  1
 87 88  1  0
 89 87  1  0
M  ISO  4   3 100   7 100  49 101  50 101
M  END
>  <TORSDO>  (72) 
F 21

>  <SCORE>  (72) 
-14.691

>  <name>  (72) 
71

>  <ligand_id>  (72) 
71

>  <original_smiles>  (72) 
[H]c1c([H])c([H])c2c(c1[H])C([H])([H])C([H])([H])C([H])([H])C2([H])N([H])C(=O)C1([H])N(C(=O)C([H])(N([H])C(=O)C([H])(N([H])C([H])([H])[H])C([H])([H])[H])C(C([H])([H])[H])(C([H])([H])[H])C([H])([H])[H])C([H])([H])c2c([H])c(OC([H])([H])C([H])([H])C([H])([H])C3(C([H])([H])[H])C([H])([H])C([H])([H])C([H])(C(=O)N4C([H])([H])C([H])([H])C([H])([H])C([H])(n5nc(-c6c([H])c([H])c(Oc7c([H])c([H])c(F)c([H])c7F)c([H])c6[H])c(C(=O)N([H])[H])c5N([H])[H])C4([H])[H])C3([H])C([H])([H])C([H])(C([H])([H])[H])C([H])([H])[H])c([H])c([H])c2C1([H])[H]

>  <smiles>  (72) 
[H]c1c([H])c([H])c2c(c1[H])C([H])([H])C([H])([H])C([H])([H])C2([H])N([H])C(=O)C1([H])N(C(=O)C([H])(N([H])C(=O)C([H])(N([H])C([H])([H])[H])C([H])([H])[H])C(C([H])([H])[H])(C([H])([H])[H])C([H])([H])[H])C([H])([H])c2c([H])c(OC([H])([H])C([H])([H])C([H])([H])C3(C([H])([H])[H])C([H])([H])C([H])([H])C([H])(C(=O)N4C([H])([H])C([H])([H])C([H])([H])C([H])(n5nc(-c6c([H])c([H])c(Oc7c([H])c([H])c(F)c([H])c7F)c([H])c6[H])c(C(=O)N([H])[H])c5N([H])[H])C4([H])[H])C3([H])C([H])([H])C([H])(C([H])([H])[H])C([H])([H])[H])c([H])c([H])c2C1([H])[H]

$$$$
72:0:0
     RDKit          3D

 93101  0  0  1  0  0  0  0  0999 V2000
  -29.5570  -21.3500   20.6820 N   0  0  0  0  0  4  0  0  0  0  0  0
  -30.5200  -21.5470   20.4570 H   0  0  0  0  0  0  0  0  0  0  0  0
  -29.4910  -21.3340   21.6870 H   0  0  0  0  0  0  0  0  0  0  0  0
  -29.2950  -19.8900   18.6220 C   0  0  0  0  0  2  0  0  0  0  0  0
  -30.0260  -18.7390   20.8390 C   0  0  0  0  0  2  0  0  0  0  0  0
  -29.1090  -18.4750   18.0260 C   0  0  0  0  0  3  0  0  0  0  0  0
  -30.0510  -17.4290   18.6880 C   0  0  0  0  0  3  0  0  0  0  0  0
  -29.2180  -19.9550   20.1710 C   0  0  0  0  0  3  0  0  0  0  0  0
  -29.7750  -17.2810   20.2220 C   0  0  2  0  0  0  0  0  0  0  0  0
  -29.2210  -18.4920   16.4920 C   0  0  0  0  0  1  0  0  0  0  0  0
  -31.5310  -17.7680   18.3730 C   0  0  0  0  0  1  0  0  0  0  0  0
  -28.3020  -16.9360   20.5160 C   0  0  0  0  0  1  0  0  0  0  0  0
  -30.5740  -16.0370   20.8920 C   0  0  0  0  0  2  0  0  0  0  0  0
  -30.9570  -14.7020   20.1140 C   0  0  0  0  0  0  0  0  0  0  0  0
  -30.5680  -12.4820   19.0560 C   0  0  0  0  0  2  0  0  0  0  0  0
  -29.5960  -12.6120   17.8660 C   0  0  0  0  0  2  0  0  0  0  0  0
  -28.1490  -12.4260   18.3530 C   0  0  0  0  0  2  0  0  0  0  0  0
  -27.8290  -13.3100   19.5840 C   0  0  0  0  0  3  0  0  0  0  0  0
  -28.9340  -13.2460   20.6700 C   0  0  0  0  0  2  0  0  0  0  0  0
  -30.2290  -13.5370   20.0420 N   0  0  0  0  0  0  0  0  0  0  0  0
  -32.0460  -14.7430   19.5430 O   0  0  0  0  0  0  0  0  0  0  0  0
  -25.4670  -13.8860   20.4330 C   0  0  0  0  0  0  0  0  0  0  0  0
  -24.4240  -13.1060   20.8430 C   0  0  0  0  0  0  0  0  0  0  0  0
  -24.8830  -11.7570   20.7530 C   0  0  0  0  0  0  0  0  0  0  0  0
  -26.5050  -13.0170   20.1310 N   0  0  0  0  0  0  0  0  0  0  0  0
  -26.1580  -11.7270   20.3860 N   0  0  0  0  0  0  0  0  0  0  0  0
  -24.1600  -10.4940   20.9380 C   0  0  0  0  0  0  0  0  0  0  0  0
  -24.5860   -9.5290   21.8770 C   0  0  0  0  0  3  0  0  0  0  0  0
  -23.8620   -8.3290   22.0480 C   0  0  0  0  0  3  0  0  0  0  0  0
  -22.6980   -8.0860   21.2800 C   0  0  0  0  0  0  0  0  0  0  0  0
  -22.2930   -9.0390   20.3290 C   0  0  0  0  0  3  0  0  0  0  0  0
  -23.0170  -10.2300   20.1560 C   0  0  0  0  0  3  0  0  0  0  0  0
  -21.9470   -6.9400   21.3620 O   0  0  0  0  0  0  0  0  0  0  0  0
  -21.8320   -6.2370   22.5340 C   0  0  0  0  0  0  0  0  0  0  0  0
  -21.2920   -6.8200   23.7030 C   0  0  0  0  0  3  0  0  0  0  0  0
  -21.1290   -6.0420   24.8660 C   0  0  0  0  0  3  0  0  0  0  0  0
  -21.4960   -4.6820   24.8620 C   0  0  0  0  0  0  0  0  0  0  0  0
  -22.0310   -4.1010   23.6990 C   0  0  0  0  0  3  0  0  0  0  0  0
  -22.1970   -4.8760   22.5380 C   0  0  0  0  0  0  0  0  0  0  0  0
  -22.6920   -4.3050   21.4130 F   0  0  0  0  0  0  0  0  0  0  0  0
  -21.3320   -3.9330   25.9760 F   0  0  0  0  0  0  0  0  0  0  0  0
  -23.0430  -13.5790   21.1950 C   0  0  0  0  0  0  0  0  0  0  0  0
  -22.3550  -12.8620   22.0760 N   0  0  0  0  0  0  0  0  0  0  0  0
  -22.5850  -14.6220   20.7290 O   0  0  0  0  0  0  0  0  0  0  0  0
  -22.7400  -12.0180   22.4740 H   0  0  0  0  0  0  0  0  0  0  0  0
  -21.4320  -13.1620   22.3590 H   0  0  0  0  0  0  0  0  0  0  0  0
  -25.6010  -15.2580   20.2640 N   0  0  0  0  0  0  0  0  0  0  0  0
  -24.8230  -15.8940   20.3920 H   0  0  0  0  0  0  0  0  0  0  0  0
  -26.4170  -15.7030   19.8690 H   0  0  0  0  0  0  0  0  0  0  0  0
  -28.7000  -22.5020   20.1870 C   0  0  0  0  0  2  0  0  0  0  0  0
  -29.0780  -23.9890   20.6170 C   0  0  0  0  0  2  0  0  0  0  0  0
  -28.0550  -25.0910   20.1170 C   0  0  0  0  0  2  0  0  0  0  0  0
  -28.3030  -26.5360   20.3090 O   0  0  0  0  0  0  0  0  0  0  0  0
  -24.5890  -31.9830   23.2000 C   0  0  0  0  0  0  0  0  0  0  0  0
  -27.1920  -27.3880   20.2160 C   0  0  0  0  0  0  0  0  0  0  0  0
  -23.3830  -30.5650   21.5790 C   0  0  0  0  0  3  0  0  0  0  0  0
  -24.8310  -29.0000   20.1720 C   0  0  0  0  0  0  0  0  0  0  0  0
  -25.9230  -30.8790   21.3930 C   0  0  0  0  0  2  0  0  0  0  0  0
  -26.0000  -29.4930   20.7660 C   0  0  0  0  0  0  0  0  0  0  0  0
  -27.1850  -28.7000   20.7770 C   0  0  0  0  0  3  0  0  0  0  0  0
  -26.0010  -26.9510   19.5840 C   0  0  0  0  0  3  0  0  0  0  0  0
  -24.8350  -27.7350   19.5690 C   0  0  0  0  0  3  0  0  0  0  0  0
  -23.5950  -29.8740   20.2080 C   0  0  0  0  0  2  0  0  0  0  0  0
  -24.6510  -31.1590   22.1140 N   0  0  0  0  0  0  0  0  0  0  0  0
  -23.5060  -32.2680   23.7300 O   0  0  0  0  0  0  0  0  0  0  0  0
  -22.7190  -29.5580   22.5510 C   0  0  0  0  0  0  0  0  0  0  0  0
  -21.3950  -29.3740   22.4180 N   0  0  0  0  0  0  0  0  0  0  0  0
  -23.3960  -28.9490   23.3840 O   0  0  0  0  0  0  0  0  0  0  0  0
  -20.9080  -29.9200   21.7200 H   0  0  0  0  0  0  0  0  0  0  0  0
  -18.0110  -28.2140   22.9470 C   0  0  0  0  0  0  0  0  0  0  0  0
  -20.5720  -28.4490   23.2000 C   0  0  0  0  0  3  0  0  0  0  0  0
  -20.6560  -27.0130   22.6330 C   0  0  0  0  0  2  0  0  0  0  0  0
  -19.5440  -26.6940   21.6280 C   0  0  0  0  0  2  0  0  0  0  0  0
  -18.1680  -26.8580   22.2790 C   0  0  0  0  0  2  0  0  0  0  0  0
  -19.1380  -28.9680   23.3650 C   0  0  0  0  0  0  0  0  0  0  0  0
  -18.9360  -30.2380   23.9480 C   0  0  0  0  0  3  0  0  0  0  0  0
  -17.6370  -30.7540   24.1160 C   0  0  0  0  0  3  0  0  0  0  0  0
  -16.5220  -29.9960   23.7140 C   0  0  0  0  0  3  0  0  0  0  0  0
  -16.7100  -28.7290   23.1360 C   0  0  0  0  0  3  0  0  0  0  0  0
  -25.8740  -32.6200   23.8140 C   0  0  0  0  0  3  0  0  0  0  0  0
  -25.5570  -34.0130   24.1540 N   0  0  0  0  0  0  0  0  0  0  0  0
  -25.8750  -35.0720   23.3960 C   0  0  0  0  0  0  0  0  0  0  0  0
  -26.5370  -34.9770   22.3590 O   0  0  0  0  0  0  0  0  0  0  0  0
  -24.9670  -34.1590   24.9600 H   0  0  0  0  0  0  0  0  0  0  0  0
  -24.1410  -36.8620   23.0560 C   0  0  0  0  0  1  0  0  0  0  0  0
  -25.3830  -36.4560   23.8640 C   0  0  0  0  0  3  0  0  0  0  0  0
  -27.5090  -37.3490   24.7090 C   0  0  0  0  0  1  0  0  0  0  0  0
  -26.4130  -37.5140   23.7590 N   0  0  0  0  0  0  0  0  0  0  0  0
  -26.0010  -38.4320   23.9040 H   0  0  0  0  0  0  0  0  0  0  0  0
  -26.4050  -31.8450   25.0820 C   0  0  1  0  0  0  0  0  0  0  0  0
  -25.3170  -31.5830   26.1510 C   0  0  0  0  0  1  0  0  0  0  0  0
  -27.0070  -30.4790   24.6770 C   0  0  0  0  0  1  0  0  0  0  0  0
  -27.5470  -32.6500   25.7440 C   0  0  0  0  0  1  0  0  0  0  0  0
  1  3  1  0
  2  1  1  0
  4  8  1  0
  6 10  1  0
  6  4  1  0
  6  7  1  0
  7 11  1  0
  7  9  1  0
  8  1  1  0
  8  5  1  0
  9 12  1  6
  9  5  1  0
  9 13  1  0
 14 13  1  0
 15 20  1  0
 16 17  1  0
 16 15  1  0
 18 17  1  0
 18 25  1  0
 18 19  1  0
 20 14  1  0
 20 19  1  0
 21 14  2  0
 22 23  2  0
 23 42  1  0
 24 23  1  0
 24 27  1  0
 25 26  1  0
 25 22  1  0
 26 24  2  0
 27 28  1  0
 28 29  2  0
 30 33  1  0
 30 29  1  0
 31 30  2  0
 32 31  1  0
 32 27  2  0
 33 34  1  0
 34 39  2  0
 34 35  1  0
 35 36  2  0
 37 36  1  0
 37 41  1  0
 38 37  2  0
 39 38  1  0
 40 39  1  0
 42 43  1  0
 43 46  1  0
 43 45  1  0
 44 42  2  0
 47 48  1  0
 47 22  1  0
 49 47  1  0
 50 51  1  0
 50  1  1  0
 52 53  1  0
 52 51  1  0
 54 65  2  0
 55 53  1  0
 55 60  1  0
 56 64  1  0
 56 66  1  0
 57 63  1  0
 57 59  1  0
 58 64  1  0
 59 60  2  0
 59 58  1  0
 61 55  2  0
 62 61  1  0
 62 57  2  0
 63 56  1  0
 64 54  1  0
 66 68  2  0
 67 66  1  0
 69 67  1  0
 70 79  2  0
 70 75  1  0
 71 67  1  0
 71 75  1  0
 72 71  1  0
 73 74  1  0
 73 72  1  0
 74 70  1  0
 75 76  2  0
 76 77  1  0
 78 77  2  0
 79 78  1  0
 80 54  1  0
 80 81  1  0
 80 90  1  0
 81 84  1  0
 82 86  1  0
 82 81  1  0
 83 82  2  0
 86 85  1  0
 88 86  1  0
 88 89  1  0
 88 87  1  0
 90 93  1  1
 90 91  1  0
 92 90  1  0
M  ISO  4  13 100  14 100  52 101  53 101
M  END
>  <TORSDO>  (73) 
F 21

>  <SCORE>  (73) 
-13.439

>  <name>  (73) 
72

>  <ligand_id>  (73) 
72

>  <original_smiles>  (73) 
[H]c1c([H])c([H])c2c(c1[H])C([H])([H])C([H])([H])C([H])([H])C2([H])N([H])C(=O)C1([H])N(C(=O)C([H])(N([H])C(=O)C([H])(N([H])C([H])([H])[H])C([H])([H])[H])C(C([H])([H])[H])(C([H])([H])[H])C([H])([H])[H])C([H])([H])c2c([H])c(OC([H])([H])C([H])([H])C([H])([H])[N+]([H])([H])C3([H])C([H])([H])C([H])(C([H])([H])[H])C([H])(C([H])([H])[H])C(C([H])([H])[H])(C([H])([H])C(=O)N4C([H])([H])C([H])([H])C([H])([H])C([H])(n5nc(-c6c([H])c([H])c(Oc7c([H])c([H])c(F)c([H])c7F)c([H])c6[H])c(C(=O)N([H])[H])c5N([H])[H])C4([H])[H])C3([H])[H])c([H])c([H])c2C1([H])[H]

>  <smiles>  (73) 
[H]c1c([H])c([H])c2c(c1[H])C([H])([H])C([H])([H])C([H])([H])C2([H])N([H])C(=O)C1([H])N(C(=O)C([H])(N([H])C(=O)C([H])(N([H])C([H])([H])[H])C([H])([H])[H])C(C([H])([H])[H])(C([H])([H])[H])C([H])([H])[H])C([H])([H])c2c([H])c(OC([H])([H])C([H])([H])C([H])([H])[N+]([H])([H])C3([H])C([H])([H])C([H])(C([H])([H])[H])C([H])(C([H])([H])[H])C(C([H])([H])[H])(C([H])([H])C(=O)N4C([H])([H])C([H])([H])C([H])([H])C([H])(n5nc(-c6c([H])c([H])c(Oc7c([H])c([H])c(F)c([H])c7F)c([H])c6[H])c(C(=O)N([H])[H])c5N([H])[H])C4([H])[H])C3([H])[H])c([H])c([H])c2C1([H])[H]

$$$$
73:0:0
     RDKit          3D

 88 97  0  0  1  0  0  0  0  0999 V2000
  -27.5090  -20.9910   20.2590 C   0  0  0  0  0  2  0  0  0  0  0  0
  -30.6500  -21.8520   19.4360 C   0  0  0  0  0  2  0  0  0  0  0  0
  -27.9870  -19.5130   20.4720 C   0  0  0  0  0  2  0  0  0  0  0  0
  -30.3140  -23.3450   19.7830 C   0  0  0  0  0  2  0  0  0  0  0  0
  -29.8880  -20.9550   20.4360 C   0  0  0  0  0  3  0  0  0  0  0  0
  -28.6470  -21.9280   20.7230 C   0  0  0  0  0  3  0  0  0  0  0  0
  -29.4530  -19.4240   20.0010 C   0  0  0  0  0  3  0  0  0  0  0  0
  -28.7970  -23.4360   20.0630 C   0  0  0  0  0  3  0  0  0  0  0  0
  -30.2950  -18.0120   20.3790 C   0  0  0  0  0  2  0  0  0  0  0  0
  -29.7520  -16.4360   20.1890 C   0  0  0  0  0  2  0  0  0  0  0  0
  -30.6540  -15.0510   20.0450 C   0  0  0  0  0  0  0  0  0  0  0  0
  -30.5220  -12.7180   19.0750 C   0  0  0  0  0  2  0  0  0  0  0  0
  -29.5310  -12.7330   17.8850 C   0  0  0  0  0  2  0  0  0  0  0  0
  -28.0800  -12.5330   18.3680 C   0  0  0  0  0  2  0  0  0  0  0  0
  -27.7370  -13.4200   19.5930 C   0  0  0  0  0  3  0  0  0  0  0  0
  -28.8400  -13.3690   20.6690 C   0  0  0  0  0  2  0  0  0  0  0  0
  -30.1000  -13.7740   20.0330 N   0  0  0  0  0  0  0  0  0  0  0  0
  -31.8450  -15.1460   19.7260 O   0  0  0  0  0  0  0  0  0  0  0  0
  -25.3920  -13.9940   20.4480 C   0  0  0  0  0  0  0  0  0  0  0  0
  -24.3400  -13.2160   20.8460 C   0  0  0  0  0  0  0  0  0  0  0  0
  -24.7980  -11.8640   20.7680 C   0  0  0  0  0  0  0  0  0  0  0  0
  -26.4200  -13.1170   20.1420 N   0  0  0  0  0  0  0  0  0  0  0  0
  -26.0740  -11.8290   20.4020 N   0  0  0  0  0  0  0  0  0  0  0  0
  -24.0730  -10.6010   20.9660 C   0  0  0  0  0  0  0  0  0  0  0  0
  -24.5120   -9.6330   21.8960 C   0  0  0  0  0  3  0  0  0  0  0  0
  -23.7850   -8.4360   22.0800 C   0  0  0  0  0  3  0  0  0  0  0  0
  -22.6070   -8.1990   21.3340 C   0  0  0  0  0  0  0  0  0  0  0  0
  -22.1880   -9.1550   20.3930 C   0  0  0  0  0  3  0  0  0  0  0  0
  -22.9140  -10.3420   20.2060 C   0  0  0  0  0  3  0  0  0  0  0  0
  -21.8520   -7.0540   21.4280 O   0  0  0  0  0  0  0  0  0  0  0  0
  -21.7810   -6.3330   22.5930 C   0  0  0  0  0  0  0  0  0  0  0  0
  -21.2770   -6.8930   23.7880 C   0  0  0  0  0  3  0  0  0  0  0  0
  -21.1560   -6.0970   24.9440 C   0  0  0  0  0  3  0  0  0  0  0  0
  -21.5280   -4.7390   24.9050 C   0  0  0  0  0  0  0  0  0  0  0  0
  -22.0270   -4.1780   23.7170 C   0  0  0  0  0  3  0  0  0  0  0  0
  -22.1490   -4.9720   22.5630 C   0  0  0  0  0  0  0  0  0  0  0  0
  -22.6080   -4.4220   21.4130 F   0  0  0  0  0  0  0  0  0  0  0  0
  -21.4050   -3.9710   26.0120 F   0  0  0  0  0  0  0  0  0  0  0  0
  -22.9580  -13.6920   21.1860 C   0  0  0  0  0  0  0  0  0  0  0  0
  -22.2640  -12.9800   22.0660 N   0  0  0  0  0  0  0  0  0  0  0  0
  -22.5050  -14.7310   20.7070 O   0  0  0  0  0  0  0  0  0  0  0  0
  -22.6470  -12.1390   22.4730 H   0  0  0  0  0  0  0  0  0  0  0  0
  -21.3380  -13.2790   22.3370 H   0  0  0  0  0  0  0  0  0  0  0  0
  -25.5540  -15.3680   20.2950 N   0  0  0  0  0  0  0  0  0  0  0  0
  -24.7980  -16.0230   20.4620 H   0  0  0  0  0  0  0  0  0  0  0  0
  -26.3950  -15.8150   19.9510 H   0  0  0  0  0  0  0  0  0  0  0  0
  -28.2250  -24.8520   20.7730 C   0  0  0  0  0  2  0  0  0  0  0  0
  -28.4310  -26.3310   20.3640 O   0  0  0  0  0  0  0  0  0  0  0  0
  -24.6500  -31.9500   23.2660 C   0  0  0  0  0  0  0  0  0  0  0  0
  -27.3470  -27.2700   20.3300 C   0  0  0  0  0  0  0  0  0  0  0  0
  -23.5000  -30.5300   21.6110 C   0  0  0  0  0  3  0  0  0  0  0  0
  -24.9940  -28.9600   20.2330 C   0  0  0  0  0  0  0  0  0  0  0  0
  -26.0510  -30.8330   21.4920 C   0  0  0  0  0  2  0  0  0  0  0  0
  -26.1540  -29.4380   20.8570 C   0  0  0  0  0  0  0  0  0  0  0  0
  -27.3360  -28.6100   20.8830 C   0  0  0  0  0  3  0  0  0  0  0  0
  -26.1600  -26.8810   19.6760 C   0  0  0  0  0  3  0  0  0  0  0  0
  -25.0080  -27.6940   19.6280 C   0  0  0  0  0  3  0  0  0  0  0  0
  -23.7560  -29.8430   20.2450 C   0  0  0  0  0  2  0  0  0  0  0  0
  -24.7520  -31.1260   22.1790 N   0  0  0  0  0  0  0  0  0  0  0  0
  -23.5500  -32.2260   23.7690 O   0  0  0  0  0  0  0  0  0  0  0  0
  -22.8140  -29.5210   22.5660 C   0  0  0  0  0  0  0  0  0  0  0  0
  -21.4860  -29.3540   22.4280 N   0  0  0  0  0  0  0  0  0  0  0  0
  -23.4780  -28.8920   23.3940 O   0  0  0  0  0  0  0  0  0  0  0  0
  -21.0080  -29.9110   21.7350 H   0  0  0  0  0  0  0  0  0  0  0  0
  -18.0920  -28.1920   22.9340 C   0  0  0  0  0  0  0  0  0  0  0  0
  -20.6560  -28.4180   23.1910 C   0  0  0  0  0  3  0  0  0  0  0  0
  -20.7350  -26.9920   22.5950 C   0  0  0  0  0  2  0  0  0  0  0  0
  -19.6230  -26.6970   21.5830 C   0  0  0  0  0  2  0  0  0  0  0  0
  -18.2470  -26.8510   22.2370 C   0  0  0  0  0  2  0  0  0  0  0  0
  -19.2230  -28.9350   23.3670 C   0  0  0  0  0  0  0  0  0  0  0  0
  -19.0230  -30.1900   23.9820 C   0  0  0  0  0  3  0  0  0  0  0  0
  -17.7250  -30.7040   24.1650 C   0  0  0  0  0  3  0  0  0  0  0  0
  -16.6090  -29.9590   23.7470 C   0  0  0  0  0  3  0  0  0  0  0  0
  -16.7940  -28.7050   23.1380 C   0  0  0  0  0  3  0  0  0  0  0  0
  -25.9080  -32.6040   23.9160 C   0  0  0  0  0  3  0  0  0  0  0  0
  -26.3890  -31.8610   25.2240 C   0  0  1  0  0  0  0  0  0  0  0  0
  -25.2630  -31.6260   26.2590 C   0  0  0  0  0  1  0  0  0  0  0  0
  -27.0030  -30.4840   24.8790 C   0  0  0  0  0  1  0  0  0  0  0  0
  -27.5060  -32.6810   25.9110 C   0  0  0  0  0  1  0  0  0  0  0  0
  -25.5800  -34.0060   24.2160 N   0  0  0  0  0  0  0  0  0  0  0  0
  -25.9170  -35.0510   23.4480 C   0  0  0  0  0  0  0  0  0  0  0  0
  -26.6060  -34.9370   22.4310 O   0  0  0  0  0  0  0  0  0  0  0  0
  -24.9700  -34.1690   25.0030 H   0  0  0  0  0  0  0  0  0  0  0  0
  -24.1900  -36.8340   23.0350 C   0  0  0  0  0  1  0  0  0  0  0  0
  -25.4150  -36.4430   23.8790 C   0  0  0  0  0  3  0  0  0  0  0  0
  -27.5180  -37.3560   24.7550 C   0  0  0  0  0  1  0  0  0  0  0  0
  -26.4440  -37.5000   23.7760 N   0  0  0  0  0  0  0  0  0  0  0  0
  -26.0290  -38.4200   23.8970 H   0  0  0  0  0  0  0  0  0  0  0  0
  1  3  1  0
  2  4  1  0
  4  8  1  0
  5  2  1  0
  5  6  1  0
  6  1  1  0
  7  9  1  0
  7  5  1  0
  7  3  1  0
  8  6  1  0
  8 47  1  0
 10  9  1  0
 11 10  1  0
 12 17  1  0
 13 14  1  0
 13 12  1  0
 15 14  1  0
 15 22  1  0
 15 16  1  0
 17 11  1  0
 17 16  1  0
 18 11  2  0
 19 20  2  0
 20 39  1  0
 21 20  1  0
 21 24  1  0
 22 23  1  0
 22 19  1  0
 23 21  2  0
 24 25  1  0
 25 26  2  0
 27 30  1  0
 27 26  1  0
 28 27  2  0
 29 28  1  0
 29 24  2  0
 30 31  1  0
 31 32  1  0
 32 33  2  0
 34 33  1  0
 34 38  1  0
 35 34  2  0
 36 31  2  0
 36 35  1  0
 37 36  1  0
 39 40  1  0
 40 43  1  0
 40 42  1  0
 41 39  2  0
 44 19  1  0
 44 45  1  0
 46 44  1  0
 48 47  1  0
 49 60  2  0
 50 48  1  0
 50 55  1  0
 51 59  1  0
 51 61  1  0
 52 58  1  0
 52 54  1  0
 53 59  1  0
 54 55  2  0
 54 53  1  0
 56 50  2  0
 57 56  1  0
 57 52  2  0
 58 51  1  0
 59 49  1  0
 61 63  2  0
 62 61  1  0
 64 62  1  0
 65 74  2  0
 65 70  1  0
 66 62  1  0
 66 70  1  0
 67 66  1  0
 68 69  1  0
 68 67  1  0
 69 65  1  0
 70 71  2  0
 71 72  1  0
 73 72  2  0
 74 73  1  0
 75 49  1  0
 75 80  1  0
 75 76  1  0
 76 79  1  1
 76 77  1  0
 78 76  1  0
 80 83  1  0
 81 85  1  0
 81 80  1  0
 82 81  2  0
 85 84  1  0
 87 85  1  0
 87 88  1  0
 87 86  1  0
M  ISO  4  10 100  11 100  47 101  48 101
M  END
>  <TORSDO>  (74) 
F 19

>  <SCORE>  (74) 
-13.768

>  <name>  (74) 
73

>  <ligand_id>  (74) 
73

>  <original_smiles>  (74) 
[H]c1c([H])c([H])c2c(c1[H])C([H])([H])C([H])([H])C([H])([H])C2([H])N([H])C(=O)C1([H])N(C(=O)C([H])(N([H])C(=O)C([H])(N([H])C([H])([H])[H])C([H])([H])[H])C(C([H])([H])[H])(C([H])([H])[H])C([H])([H])[H])C([H])([H])c2c([H])c(OC([H])([H])C3([H])C([H])([H])C([H])([H])C4([H])C([H])(C([H])([H])C([H])([H])C(=O)N5C([H])([H])C([H])([H])C([H])([H])C([H])(n6nc(-c7c([H])c([H])c(Oc8c([H])c([H])c(F)c([H])c8F)c([H])c7[H])c(C(=O)N([H])[H])c6N([H])[H])C5([H])[H])C([H])([H])C([H])([H])C34[H])c([H])c([H])c2C1([H])[H]

>  <smiles>  (74) 
[H]c1c([H])c([H])c2c(c1[H])C([H])([H])C([H])([H])C([H])([H])C2([H])N([H])C(=O)C1([H])N(C(=O)C([H])(N([H])C(=O)C([H])(N([H])C([H])([H])[H])C([H])([H])[H])C(C([H])([H])[H])(C([H])([H])[H])C([H])([H])[H])C([H])([H])c2c([H])c(OC([H])([H])C3([H])C([H])([H])C([H])([H])C4([H])C([H])(C([H])([H])C([H])([H])C(=O)N5C([H])([H])C([H])([H])C([H])([H])C([H])(n6nc(-c7c([H])c([H])c(Oc8c([H])c([H])c(F)c([H])c8F)c([H])c7[H])c(C(=O)N([H])[H])c6N([H])[H])C5([H])[H])C([H])([H])C([H])([H])C34[H])c([H])c([H])c2C1([H])[H]

$$$$
74:0:0
     RDKit          3D

 89 97  0  0  1  0  0  0  0  0999 V2000
  -29.0830  -22.6950   18.3700 C   0  0  0  0  0  2  0  0  0  0  0  0
  -30.1690  -23.6690   18.7800 C   0  0  0  0  0  3  0  0  0  0  0  0
  -29.7960  -22.5210   19.6930 C   0  0  0  0  0  3  0  0  0  0  0  0
  -30.9800  -25.9130   19.3940 C   0  0  0  0  0  2  0  0  0  0  0  0
  -29.9370  -25.0860   19.2010 C   0  0  0  0  0  0  0  0  0  0  0  0
  -28.4950  -25.5450   19.3860 C   0  0  0  0  0  2  0  0  0  0  0  0
  -28.4150  -26.7870   20.0880 O   0  0  0  0  0  0  0  0  0  0  0  0
  -24.5760  -31.8790   23.2320 C   0  0  0  0  0  0  0  0  0  0  0  0
  -27.2070  -27.4510   20.1180 C   0  0  0  0  0  0  0  0  0  0  0  0
  -23.3590  -30.4800   21.5950 C   0  0  0  0  0  3  0  0  0  0  0  0
  -24.8020  -28.9400   20.1680 C   0  0  0  0  0  0  0  0  0  0  0  0
  -25.8830  -30.8390   21.3830 C   0  0  0  0  0  2  0  0  0  0  0  0
  -25.9640  -29.4680   20.7450 C   0  0  0  0  0  0  0  0  0  0  0  0
  -27.1650  -28.7290   20.7210 C   0  0  0  0  0  3  0  0  0  0  0  0
  -26.0160  -26.9240   19.5630 C   0  0  0  0  0  3  0  0  0  0  0  0
  -24.8210  -27.6640   19.5850 C   0  0  0  0  0  3  0  0  0  0  0  0
  -23.5590  -29.7980   20.2170 C   0  0  0  0  0  2  0  0  0  0  0  0
  -24.6250  -31.0790   22.1290 N   0  0  0  0  0  0  0  0  0  0  0  0
  -23.4980  -32.1540   23.7760 O   0  0  0  0  0  0  0  0  0  0  0  0
  -22.7120  -29.4590   22.5580 C   0  0  0  0  0  0  0  0  0  0  0  0
  -21.3870  -29.2750   22.4330 N   0  0  0  0  0  0  0  0  0  0  0  0
  -23.3970  -28.8370   23.3730 O   0  0  0  0  0  0  0  0  0  0  0  0
  -20.8950  -29.8270   21.7460 H   0  0  0  0  0  0  0  0  0  0  0  0
  -18.0160  -28.0750   22.9250 C   0  0  0  0  0  0  0  0  0  0  0  0
  -20.5720  -28.3390   23.2060 C   0  0  0  0  0  3  0  0  0  0  0  0
  -20.6800  -26.9050   22.6360 C   0  0  0  0  0  2  0  0  0  0  0  0
  -19.5810  -26.5760   21.6200 C   0  0  0  0  0  2  0  0  0  0  0  0
  -18.1970  -26.7230   22.2590 C   0  0  0  0  0  2  0  0  0  0  0  0
  -19.1320  -28.8410   23.3570 C   0  0  0  0  0  0  0  0  0  0  0  0
  -18.9080  -30.1090   23.9390 C   0  0  0  0  0  3  0  0  0  0  0  0
  -17.6020  -30.6090   24.0940 C   0  0  0  0  0  3  0  0  0  0  0  0
  -16.5020  -29.8400   23.6800 C   0  0  0  0  0  3  0  0  0  0  0  0
  -16.7090  -28.5750   23.1010 C   0  0  0  0  0  3  0  0  0  0  0  0
  -25.8680  -32.5070   23.8450 C   0  0  0  0  0  3  0  0  0  0  0  0
  -25.5650  -33.9040   24.1750 N   0  0  0  0  0  0  0  0  0  0  0  0
  -25.9010  -34.9560   23.4160 C   0  0  0  0  0  0  0  0  0  0  0  0
  -26.5700  -34.8500   22.3840 O   0  0  0  0  0  0  0  0  0  0  0  0
  -24.9700  -34.0620   24.9760 H   0  0  0  0  0  0  0  0  0  0  0  0
  -24.1810  -36.7540   23.0550 C   0  0  0  0  0  1  0  0  0  0  0  0
  -25.4180  -36.3460   23.8710 C   0  0  0  0  0  3  0  0  0  0  0  0
  -27.5530  -37.2190   24.7070 C   0  0  0  0  0  1  0  0  0  0  0  0
  -26.4550  -37.3930   23.7610 N   0  0  0  0  0  0  0  0  0  0  0  0
  -26.0520  -38.3150   23.9110 H   0  0  0  0  0  0  0  0  0  0  0  0
  -26.3930  -31.7320   25.1160 C   0  0  1  0  0  0  0  0  0  0  0  0
  -25.3070  -31.4930   26.1890 C   0  0  0  0  0  1  0  0  0  0  0  0
  -26.9700  -30.3550   24.7140 C   0  0  0  0  0  1  0  0  0  0  0  0
  -27.5500  -32.5220   25.7710 C   0  0  0  0  0  1  0  0  0  0  0  0
  -30.7950  -21.4080   19.9360 C   0  0  0  0  0  2  0  0  0  0  0  0
  -30.1380  -20.1070   20.3430 C   0  0  0  0  0  3  0  0  0  0  0  0
  -30.5650  -18.9000   19.9390 C   0  0  0  0  0  3  0  0  0  0  0  0
  -29.9370  -17.5830   20.3410 C   0  0  0  0  0  2  0  0  0  0  0  0
  -30.8360  -16.7910   21.3060 C   0  0  0  0  0  2  0  0  0  0  0  0
  -30.3570  -15.3380   21.5180 C   0  0  0  0  0  2  0  0  0  0  0  0
  -30.7850  -14.3520   20.4110 C   0  0  0  0  0  0  0  0  0  0  0  0
  -30.3690  -12.3140   19.0740 C   0  0  0  0  0  2  0  0  0  0  0  0
  -29.3960  -12.6100   17.9180 C   0  0  0  0  0  2  0  0  0  0  0  0
  -27.9330  -12.4850   18.3840 C   0  0  0  0  0  2  0  0  0  0  0  0
  -27.6600  -13.2590   19.7020 C   0  0  0  0  0  3  0  0  0  0  0  0
  -28.7370  -12.9250   20.7580 C   0  0  0  0  0  2  0  0  0  0  0  0
  -30.0540  -13.2310   20.1780 N   0  0  0  0  0  0  0  0  0  0  0  0
  -31.8060  -14.6100   19.7620 O   0  0  0  0  0  0  0  0  0  0  0  0
  -25.2770  -13.8940   20.4410 C   0  0  0  0  0  0  0  0  0  0  0  0
  -24.2080  -13.1310   20.8310 C   0  0  0  0  0  0  0  0  0  0  0  0
  -24.6560  -11.7750   20.7940 C   0  0  0  0  0  0  0  0  0  0  0  0
  -26.3110  -13.0020   20.2010 N   0  0  0  0  0  0  0  0  0  0  0  0
  -25.9410  -11.7230   20.4640 N   0  0  0  0  0  0  0  0  0  0  0  0
  -23.9260  -10.5190   21.0010 C   0  0  0  0  0  0  0  0  0  0  0  0
  -24.3730   -9.5450   21.9200 C   0  0  0  0  0  3  0  0  0  0  0  0
  -23.6410   -8.3540   22.1140 C   0  0  0  0  0  3  0  0  0  0  0  0
  -22.4470   -8.1290   21.3900 C   0  0  0  0  0  0  0  0  0  0  0  0
  -22.0180   -9.0910   20.4590 C   0  0  0  0  0  3  0  0  0  0  0  0
  -22.7500  -10.2740   20.2630 C   0  0  0  0  0  3  0  0  0  0  0  0
  -21.6850   -6.9910   21.4950 O   0  0  0  0  0  0  0  0  0  0  0  0
  -21.6660   -6.2410   22.6430 C   0  0  0  0  0  0  0  0  0  0  0  0
  -21.2910   -6.7920   23.8870 C   0  0  0  0  0  3  0  0  0  0  0  0
  -21.2170   -5.9690   25.0290 C   0  0  0  0  0  3  0  0  0  0  0  0
  -21.5090   -4.5940   24.9270 C   0  0  0  0  0  0  0  0  0  0  0  0
  -21.8740   -4.0430   23.6870 C   0  0  0  0  0  3  0  0  0  0  0  0
  -21.9500   -4.8640   22.5480 C   0  0  0  0  0  0  0  0  0  0  0  0
  -22.2830   -4.3210   21.3520 F   0  0  0  0  0  0  0  0  0  0  0  0
  -21.4290   -3.8010   26.0220 F   0  0  0  0  0  0  0  0  0  0  0  0
  -22.8190  -13.6190   21.1290 C   0  0  0  0  0  0  0  0  0  0  0  0
  -22.1030  -12.9300   22.0090 N   0  0  0  0  0  0  0  0  0  0  0  0
  -22.3790  -14.6470   20.6160 O   0  0  0  0  0  0  0  0  0  0  0  0
  -22.4720  -12.0980   22.4470 H   0  0  0  0  0  0  0  0  0  0  0  0
  -21.1720  -13.2390   22.2480 H   0  0  0  0  0  0  0  0  0  0  0  0
  -25.4510  -15.2610   20.2560 N   0  0  0  0  0  0  0  0  0  0  0  0
  -24.6970  -15.9290   20.3750 H   0  0  0  0  0  0  0  0  0  0  0  0
  -26.3090  -15.6900   19.9350 H   0  0  0  0  0  0  0  0  0  0  0  0
  1  2  1  0
  1  3  1  0
  2  5  1  0
  2  3  1  0
  3 48  1  0
  5  6  1  0
  5  4  2  0
  6  7  1  0
  7  9  1  0
  8 19  2  0
  9 14  1  0
 10 18  1  0
 10 20  1  0
 11 17  1  0
 11 13  1  0
 12 18  1  0
 13 12  1  0
 14 13  2  0
 15 16  1  0
 15  9  2  0
 16 11  2  0
 17 10  1  0
 18  8  1  0
 20 22  2  0
 21 20  1  0
 23 21  1  0
 24 33  2  0
 24 29  1  0
 25 21  1  0
 25 29  1  0
 26 25  1  0
 27 28  1  0
 27 26  1  0
 28 24  1  0
 29 30  2  0
 30 31  1  0
 32 31  2  0
 33 32  1  0
 34  8  1  0
 34 35  1  0
 34 44  1  0
 35 38  1  0
 36 40  1  0
 36 35  1  0
 37 36  2  0
 40 39  1  0
 42 40  1  0
 42 43  1  0
 42 41  1  0
 44 47  1  1
 44 45  1  0
 46 44  1  0
 48 49  1  0
 50 51  1  0
 50 49  2  0
 51 52  1  0
 52 53  1  0
 54 53  1  0
 55 60  1  0
 56 57  1  0
 56 55  1  0
 58 57  1  0
 58 65  1  0
 58 59  1  0
 60 54  1  0
 60 59  1  0
 61 54  2  0
 62 63  2  0
 63 82  1  0
 64 63  1  0
 64 67  1  0
 65 62  1  0
 65 66  1  0
 66 64  2  0
 67 68  1  0
 68 69  2  0
 70 73  1  0
 70 69  1  0
 71 70  2  0
 72 71  1  0
 72 67  2  0
 73 74  1  0
 74 75  1  0
 75 76  2  0
 77 76  1  0
 77 81  1  0
 78 77  2  0
 79 74  2  0
 79 78  1  0
 80 79  1  0
 82 83  1  0
 83 86  1  0
 83 85  1  0
 84 82  2  0
 87 88  1  0
 87 62  1  0
 89 87  1  0
M  ISO  4   6 101   7 101  53 100  54 100
M  END
>  <TORSDO>  (75) 
F 23

>  <SCORE>  (75) 
-12.663

>  <name>  (75) 
74

>  <ligand_id>  (75) 
74

>  <original_smiles>  (75) 
[H]C([H])=C(C([H])([H])Oc1c([H])c([H])c2c(c1[H])C([H])([H])N(C(=O)C([H])(N([H])C(=O)C([H])(N([H])C([H])([H])[H])C([H])([H])[H])C(C([H])([H])[H])(C([H])([H])[H])C([H])([H])[H])C([H])(C(=O)N([H])C1([H])c3c([H])c([H])c([H])c([H])c3C([H])([H])C([H])([H])C1([H])[H])C2([H])[H])C1([H])C([H])([H])C1([H])C([H])([H])C([H])=C([H])C([H])([H])C([H])([H])C([H])([H])C(=O)N1C([H])([H])C([H])([H])C([H])([H])C([H])(n2nc(-c3c([H])c([H])c(Oc4c([H])c([H])c(F)c([H])c4F)c([H])c3[H])c(C(=O)N([H])[H])c2N([H])[H])C1([H])[H]

>  <smiles>  (75) 
[H]C([H])=C(C([H])([H])Oc1c([H])c([H])c2c(c1[H])C([H])([H])N(C(=O)C([H])(N([H])C(=O)C([H])(N([H])C([H])([H])[H])C([H])([H])[H])C(C([H])([H])[H])(C([H])([H])[H])C([H])([H])[H])C([H])(C(=O)N([H])C1([H])c3c([H])c([H])c([H])c([H])c3C([H])([H])C([H])([H])C1([H])[H])C2([H])[H])C1([H])C([H])([H])C1([H])C([H])([H])C([H])=C([H])C([H])([H])C([H])([H])C([H])([H])C(=O)N1C([H])([H])C([H])([H])C([H])([H])C([H])(n2nc(-c3c([H])c([H])c(Oc4c([H])c([H])c(F)c([H])c4F)c([H])c3[H])c(C(=O)N([H])[H])c2N([H])[H])C1([H])[H]

$$$$
75:0:0
     RDKit          3D

 87 96  0  0  1  0  0  0  0  0999 V2000
  -30.9050  -20.8720   18.9280 C   0  0  0  0  0  2  0  0  0  0  0  0
  -30.8590  -23.2950   19.9220 C   0  0  0  0  0  2  0  0  0  0  0  0
  -30.2040  -19.4640   18.9320 C   0  0  0  0  0  2  0  0  0  0  0  0
  -30.1870  -22.7300   21.1740 C   0  0  0  0  0  2  0  0  0  0  0  0
  -28.5680  -20.5680   20.5240 C   0  0  0  0  0  2  0  0  0  0  0  0
  -30.0910  -22.2070   19.1690 C   0  0  0  0  0  3  0  0  0  0  0  0
  -29.5910  -19.0410   20.2880 C   0  0  0  0  0  3  0  0  0  0  0  0
  -28.9920  -22.3480   20.2790 C   0  0  2  0  0  0  0  0  0  0  0  0
  -29.3400  -17.1580   20.4300 C   0  0  0  0  0  2  0  0  0  0  0  0
  -30.2330  -15.5540   20.2820 C   0  0  0  0  0  0  0  0  0  0  0  0
  -30.3560  -13.0300   19.4660 C   0  0  0  0  0  2  0  0  0  0  0  0
  -29.4690  -12.7160   18.2270 C   0  0  0  0  0  2  0  0  0  0  0  0
  -28.0250  -12.3910   18.6440 C   0  0  0  0  0  2  0  0  0  0  0  0
  -27.5190  -13.3700   19.7280 C   0  0  0  0  0  3  0  0  0  0  0  0
  -28.5370  -13.6070   20.8640 C   0  0  0  0  0  2  0  0  0  0  0  0
  -29.7540  -14.1840   20.2570 N   0  0  0  0  0  0  0  0  0  0  0  0
  -31.4580  -15.5420   20.0650 O   0  0  0  0  0  0  0  0  0  0  0  0
  -25.1350  -13.8970   20.4410 C   0  0  0  0  0  0  0  0  0  0  0  0
  -24.0770  -13.1120   20.8010 C   0  0  0  0  0  0  0  0  0  0  0  0
  -24.5620  -11.7670   20.7980 C   0  0  0  0  0  0  0  0  0  0  0  0
  -26.1920  -13.0330   20.2250 N   0  0  0  0  0  0  0  0  0  0  0  0
  -25.8600  -11.7450   20.5080 N   0  0  0  0  0  0  0  0  0  0  0  0
  -23.8450  -10.5000   20.9930 C   0  0  0  0  0  0  0  0  0  0  0  0
  -24.2670   -9.5480   21.9480 C   0  0  0  0  0  3  0  0  0  0  0  0
  -23.5450   -8.3490   22.1310 C   0  0  0  0  0  3  0  0  0  0  0  0
  -22.3870   -8.0910   21.3600 C   0  0  0  0  0  0  0  0  0  0  0  0
  -21.9840   -9.0310   20.3940 C   0  0  0  0  0  3  0  0  0  0  0  0
  -22.7060  -10.2220   20.2100 C   0  0  0  0  0  3  0  0  0  0  0  0
  -21.6380   -6.9430   21.4520 O   0  0  0  0  0  0  0  0  0  0  0  0
  -21.5740   -6.2160   22.6130 C   0  0  0  0  0  0  0  0  0  0  0  0
  -21.1170   -6.7820   23.8230 C   0  0  0  0  0  3  0  0  0  0  0  0
  -21.0010   -5.9810   24.9770 C   0  0  0  0  0  3  0  0  0  0  0  0
  -21.3320   -4.6140   24.9220 C   0  0  0  0  0  0  0  0  0  0  0  0
  -21.7830   -4.0470   23.7170 C   0  0  0  0  0  3  0  0  0  0  0  0
  -21.9010   -4.8450   22.5650 C   0  0  0  0  0  0  0  0  0  0  0  0
  -22.3140   -4.2880   21.4010 F   0  0  0  0  0  0  0  0  0  0  0  0
  -21.2140   -3.8410   26.0270 F   0  0  0  0  0  0  0  0  0  0  0  0
  -22.6690  -13.5770   21.0340 C   0  0  0  0  0  0  0  0  0  0  0  0
  -21.9350  -12.8920   21.9030 N   0  0  0  0  0  0  0  0  0  0  0  0
  -22.2310  -14.5840   20.4810 O   0  0  0  0  0  0  0  0  0  0  0  0
  -22.3030  -12.0780   22.3720 H   0  0  0  0  0  0  0  0  0  0  0  0
  -20.9890  -13.1860   22.1010 H   0  0  0  0  0  0  0  0  0  0  0  0
  -25.2850  -15.2680   20.2500 N   0  0  0  0  0  0  0  0  0  0  0  0
  -24.5090  -15.9150   20.3460 H   0  0  0  0  0  0  0  0  0  0  0  0
  -26.1380  -15.7160   19.9420 H   0  0  0  0  0  0  0  0  0  0  0  0
  -27.9470  -23.9440   20.1820 C   0  0  0  0  0  2  0  0  0  0  0  0
  -28.1580  -25.6590   20.2500 O   0  0  0  0  0  0  0  0  0  0  0  0
  -24.6480  -31.8640   23.1640 C   0  0  0  0  0  0  0  0  0  0  0  0
  -27.1730  -26.8340   20.1930 C   0  0  0  0  0  0  0  0  0  0  0  0
  -23.4610  -30.4730   21.5200 C   0  0  0  0  0  3  0  0  0  0  0  0
  -24.9070  -28.8290   20.1160 C   0  0  0  0  0  0  0  0  0  0  0  0
  -26.0360  -30.6240   21.4070 C   0  0  0  0  0  2  0  0  0  0  0  0
  -26.0990  -29.1970   20.7530 C   0  0  0  0  0  0  0  0  0  0  0  0
  -27.2210  -28.2260   20.7590 C   0  0  0  0  0  3  0  0  0  0  0  0
  -25.9490  -26.6540   19.5060 C   0  0  0  0  0  3  0  0  0  0  0  0
  -24.8670  -27.5810   19.4710 C   0  0  0  0  0  3  0  0  0  0  0  0
  -23.7010  -29.7770   20.1510 C   0  0  0  0  0  2  0  0  0  0  0  0
  -24.7380  -31.0170   22.0830 N   0  0  0  0  0  0  0  0  0  0  0  0
  -23.5540  -32.1670   23.6710 O   0  0  0  0  0  0  0  0  0  0  0  0
  -22.7380  -29.4960   22.4860 C   0  0  0  0  0  0  0  0  0  0  0  0
  -21.4030  -29.3650   22.3660 N   0  0  0  0  0  0  0  0  0  0  0  0
  -23.3880  -28.8530   23.3130 O   0  0  0  0  0  0  0  0  0  0  0  0
  -20.9290  -29.9310   21.6760 H   0  0  0  0  0  0  0  0  0  0  0  0
  -17.9940  -28.2300   22.9030 C   0  0  0  0  0  0  0  0  0  0  0  0
  -20.5630  -28.4390   23.1360 C   0  0  0  0  0  3  0  0  0  0  0  0
  -20.6240  -27.0110   22.5450 C   0  0  0  0  0  2  0  0  0  0  0  0
  -19.5030  -26.7270   21.5400 C   0  0  0  0  0  2  0  0  0  0  0  0
  -18.1330  -26.8890   22.2020 C   0  0  0  0  0  2  0  0  0  0  0  0
  -19.1340  -28.9650   23.3270 C   0  0  0  0  0  0  0  0  0  0  0  0
  -18.9460  -30.2190   23.9480 C   0  0  0  0  0  3  0  0  0  0  0  0
  -17.6520  -30.7390   24.1450 C   0  0  0  0  0  3  0  0  0  0  0  0
  -16.5270  -30.0020   23.7330 C   0  0  0  0  0  3  0  0  0  0  0  0
  -16.7000  -28.7490   23.1190 C   0  0  0  0  0  3  0  0  0  0  0  0
  -25.9140  -32.5040   23.8110 C   0  0  0  0  0  3  0  0  0  0  0  0
  -25.5940  -33.9020   24.1590 N   0  0  0  0  0  0  0  0  0  0  0  0
  -25.9130  -34.9730   23.4200 C   0  0  0  0  0  0  0  0  0  0  0  0
  -26.5690  -34.8890   22.3780 O   0  0  0  0  0  0  0  0  0  0  0  0
  -25.0080  -34.0400   24.9690 H   0  0  0  0  0  0  0  0  0  0  0  0
  -24.1680  -36.7690   23.1440 C   0  0  0  0  0  1  0  0  0  0  0  0
  -25.4350  -36.3560   23.9110 C   0  0  0  0  0  3  0  0  0  0  0  0
  -27.5890  -37.2460   24.6890 C   0  0  0  0  0  1  0  0  0  0  0  0
  -26.4590  -37.4170   23.7780 N   0  0  0  0  0  0  0  0  0  0  0  0
  -26.0520  -38.3330   23.9460 H   0  0  0  0  0  0  0  0  0  0  0  0
  -26.4070  -31.7330   25.0980 C   0  0  1  0  0  0  0  0  0  0  0  0
  -25.2990  -31.5060   26.1530 C   0  0  0  0  0  1  0  0  0  0  0  0
  -26.9880  -30.3500   24.7270 C   0  0  0  0  0  1  0  0  0  0  0  0
  -27.5540  -32.5220   25.7740 C   0  0  0  0  0  1  0  0  0  0  0  0
  1  3  1  0
  2  4  1  0
  3  7  1  0
  6  1  1  0
  6  2  1  0
  6  8  1  0
  7  9  1  0
  7  5  1  0
  8 46  1  6
  8  5  1  0
  8  4  1  0
 10  9  1  0
 11 16  1  0
 12 13  1  0
 12 11  1  0
 14 13  1  0
 14 21  1  0
 14 15  1  0
 16 10  1  0
 16 15  1  0
 17 10  2  0
 18 19  2  0
 19 38  1  0
 20 19  1  0
 20 23  1  0
 21 18  1  0
 21 22  1  0
 22 20  2  0
 23 24  1  0
 24 25  2  0
 26 29  1  0
 26 25  1  0
 27 26  2  0
 28 27  1  0
 28 23  2  0
 29 30  1  0
 30 31  1  0
 31 32  2  0
 33 32  1  0
 33 37  1  0
 34 33  2  0
 35 30  2  0
 35 34  1  0
 36 35  1  0
 38 39  1  0
 39 42  1  0
 39 41  1  0
 40 38  2  0
 43 44  1  0
 43 18  1  0
 45 43  1  0
 46 47  1  0
 48 59  2  0
 49 47  1  0
 49 54  1  0
 50 58  1  0
 50 60  1  0
 51 57  1  0
 51 53  1  0
 52 58  1  0
 53 54  2  0
 53 52  1  0
 55 49  2  0
 56 55  1  0
 56 51  2  0
 57 50  1  0
 58 48  1  0
 60 62  2  0
 61 60  1  0
 63 61  1  0
 64 73  2  0
 64 69  1  0
 65 61  1  0
 65 69  1  0
 66 65  1  0
 67 68  1  0
 67 66  1  0
 68 64  1  0
 69 70  2  0
 70 71  1  0
 72 71  2  0
 73 72  1  0
 74 48  1  0
 74 75  1  0
 74 84  1  0
 75 78  1  0
 76 80  1  0
 76 75  1  0
 77 76  2  0
 80 79  1  0
 82 80  1  0
 82 83  1  0
 82 81  1  0
 84 87  1  1
 84 85  1  0
 86 84  1  0
M  ISO  4   9 100  10 100  46 101  47 101
M  END
>  <TORSDO>  (76) 
F 18

>  <SCORE>  (76) 
-16.530

>  <name>  (76) 
75

>  <ligand_id>  (76) 
75

>  <original_smiles>  (76) 
[H]c1c([H])c([H])c2c(c1[H])C([H])([H])C([H])([H])C([H])([H])C2([H])N([H])C(=O)C1([H])N(C(=O)C([H])(N([H])C(=O)C([H])(N([H])C([H])([H])[H])C([H])([H])[H])C(C([H])([H])[H])(C([H])([H])[H])C([H])([H])[H])C([H])([H])c2c([H])c(OC([H])([H])C34C([H])([H])C([H])([H])C3([H])C([H])([H])C([H])([H])C([H])(C([H])([H])C(=O)N3C([H])([H])C([H])([H])C([H])([H])C([H])(n5nc(-c6c([H])c([H])c(Oc7c([H])c([H])c(F)c([H])c7F)c([H])c6[H])c(C(=O)N([H])[H])c5N([H])[H])C3([H])[H])C4([H])[H])c([H])c([H])c2C1([H])[H]

>  <smiles>  (76) 
[H]c1c([H])c([H])c2c(c1[H])C([H])([H])C([H])([H])C([H])([H])C2([H])N([H])C(=O)C1([H])N(C(=O)C([H])(N([H])C(=O)C([H])(N([H])C([H])([H])[H])C([H])([H])[H])C(C([H])([H])[H])(C([H])([H])[H])C([H])([H])[H])C([H])([H])c2c([H])c(OC([H])([H])C34C([H])([H])C([H])([H])C3([H])C([H])([H])C([H])([H])C([H])(C([H])([H])C(=O)N3C([H])([H])C([H])([H])C([H])([H])C([H])(n5nc(-c6c([H])c([H])c(Oc7c([H])c([H])c(F)c([H])c7F)c([H])c6[H])c(C(=O)N([H])[H])c5N([H])[H])C3([H])[H])C4([H])[H])c([H])c([H])c2C1([H])[H]

$$$$
76:0:0
     RDKit          3D

 88 97  0  0  1  0  0  0  0  0999 V2000
  -29.4050  -19.0060   20.2220 C   0  0  0  0  0  0  0  0  0  0  0  0
  -29.5240  -17.4400   20.3860 C   0  0  0  0  0  0  0  0  0  0  0  0
  -30.3060  -20.0130   19.3530 C   0  0  0  0  0  2  0  0  0  0  0  0
  -28.4240  -20.3100   20.8990 C   0  0  0  0  0  2  0  0  0  0  0  0
  -30.3230  -21.6840   19.5830 C   0  0  0  0  0  2  0  0  0  0  0  0
  -27.7820  -21.9590   20.3110 C   0  0  0  0  0  3  0  0  0  0  0  0
  -27.8860  -21.9100   18.7680 C   0  0  0  0  0  3  0  0  0  0  0  0
  -28.1900  -23.7300   19.9470 C   0  0  0  0  0  3  0  0  0  0  0  0
  -29.1730  -22.7550   19.0150 C   0  0  1  0  0  0  0  0  0  0  0  0
  -26.7300  -22.3320   17.8350 C   0  0  0  0  0  1  0  0  0  0  0  0
  -29.7660  -23.4460   17.7880 C   0  0  0  0  0  1  0  0  0  0  0  0
  -30.2850  -15.8640   20.2400 C   0  0  0  0  0  0  0  0  0  0  0  0
  -30.4150  -13.2680   19.5140 C   0  0  0  0  0  2  0  0  0  0  0  0
  -29.5570  -12.8220   18.2930 C   0  0  0  0  0  2  0  0  0  0  0  0
  -28.1350  -12.4430   18.7320 C   0  0  0  0  0  2  0  0  0  0  0  0
  -27.5940  -13.4550   19.7660 C   0  0  0  0  0  3  0  0  0  0  0  0
  -28.5980  -13.8380   20.8800 C   0  0  0  0  0  2  0  0  0  0  0  0
  -29.7770  -14.4740   20.2390 N   0  0  0  0  0  0  0  0  0  0  0  0
  -31.5130  -15.7330   20.0370 O   0  0  0  0  0  0  0  0  0  0  0  0
  -25.2340  -13.9520   20.5460 C   0  0  0  0  0  0  0  0  0  0  0  0
  -24.1800  -13.1600   20.9010 C   0  0  0  0  0  0  0  0  0  0  0  0
  -24.6600  -11.8140   20.8510 C   0  0  0  0  0  0  0  0  0  0  0  0
  -26.2830  -13.0920   20.2850 N   0  0  0  0  0  0  0  0  0  0  0  0
  -25.9530  -11.7960   20.5370 N   0  0  0  0  0  0  0  0  0  0  0  0
  -23.9370  -10.5440   21.0220 C   0  0  0  0  0  0  0  0  0  0  0  0
  -24.3490   -9.5770   21.9660 C   0  0  0  0  0  3  0  0  0  0  0  0
  -23.6210   -8.3790   22.1300 C   0  0  0  0  0  3  0  0  0  0  0  0
  -22.4650   -8.1380   21.3490 C   0  0  0  0  0  0  0  0  0  0  0  0
  -22.0710   -9.0940   20.3960 C   0  0  0  0  0  3  0  0  0  0  0  0
  -22.8000  -10.2830   20.2310 C   0  0  0  0  0  3  0  0  0  0  0  0
  -21.7100   -6.9930   21.4210 O   0  0  0  0  0  0  0  0  0  0  0  0
  -21.6100   -6.2670   22.5820 C   0  0  0  0  0  0  0  0  0  0  0  0
  -21.0870   -6.8270   23.7670 C   0  0  0  0  0  3  0  0  0  0  0  0
  -20.9370   -6.0260   24.9170 C   0  0  0  0  0  3  0  0  0  0  0  0
  -21.3010   -4.6660   24.8820 C   0  0  0  0  0  0  0  0  0  0  0  0
  -21.8180   -4.1070   23.7000 C   0  0  0  0  0  3  0  0  0  0  0  0
  -21.9690   -4.9040   22.5520 C   0  0  0  0  0  0  0  0  0  0  0  0
  -22.4470   -4.3540   21.4100 F   0  0  0  0  0  0  0  0  0  0  0  0
  -21.1510   -3.8950   25.9840 F   0  0  0  0  0  0  0  0  0  0  0  0
  -22.7800  -13.6260   21.1700 C   0  0  0  0  0  0  0  0  0  0  0  0
  -22.0570  -12.9260   22.0350 N   0  0  0  0  0  0  0  0  0  0  0  0
  -22.3390  -14.6490   20.6480 O   0  0  0  0  0  0  0  0  0  0  0  0
  -22.4280  -12.0990   22.4790 H   0  0  0  0  0  0  0  0  0  0  0  0
  -21.1180  -13.2230   22.2610 H   0  0  0  0  0  0  0  0  0  0  0  0
  -25.3840  -15.3270   20.3900 N   0  0  0  0  0  0  0  0  0  0  0  0
  -24.6110  -15.9700   20.5260 H   0  0  0  0  0  0  0  0  0  0  0  0
  -26.2340  -15.7870   20.0910 H   0  0  0  0  0  0  0  0  0  0  0  0
  -28.1570  -25.5040   20.2720 O   0  0  0  0  0  0  0  0  0  0  0  0
  -24.6650  -31.8570   23.2020 C   0  0  0  0  0  0  0  0  0  0  0  0
  -27.1850  -26.7420   20.1770 C   0  0  0  0  0  0  0  0  0  0  0  0
  -23.4700  -30.4580   21.5700 C   0  0  0  0  0  3  0  0  0  0  0  0
  -24.9130  -28.8080   20.1400 C   0  0  0  0  0  0  0  0  0  0  0  0
  -26.0500  -30.5910   21.4370 C   0  0  0  0  0  2  0  0  0  0  0  0
  -26.1120  -29.1540   20.7730 C   0  0  0  0  0  0  0  0  0  0  0  0
  -27.2240  -28.1490   20.7610 C   0  0  0  0  0  3  0  0  0  0  0  0
  -25.9530  -26.6270   19.4760 C   0  0  0  0  0  3  0  0  0  0  0  0
  -24.8760  -27.5720   19.4670 C   0  0  0  0  0  3  0  0  0  0  0  0
  -23.7050  -29.7610   20.1960 C   0  0  0  0  0  2  0  0  0  0  0  0
  -24.7530  -31.0030   22.1210 N   0  0  0  0  0  0  0  0  0  0  0  0
  -23.5740  -32.1530   23.7190 O   0  0  0  0  0  0  0  0  0  0  0  0
  -22.7610  -29.4800   22.5460 C   0  0  0  0  0  0  0  0  0  0  0  0
  -21.4290  -29.3160   22.4250 N   0  0  0  0  0  0  0  0  0  0  0  0
  -23.4220  -28.8680   23.3870 O   0  0  0  0  0  0  0  0  0  0  0  0
  -20.9420  -29.8620   21.7270 H   0  0  0  0  0  0  0  0  0  0  0  0
  -18.0550  -28.0660   22.9480 C   0  0  0  0  0  0  0  0  0  0  0  0
  -20.6120  -28.3730   23.2020 C   0  0  0  0  0  3  0  0  0  0  0  0
  -20.7310  -26.9380   22.6360 C   0  0  0  0  0  2  0  0  0  0  0  0
  -19.6330  -26.5960   21.6240 C   0  0  0  0  0  2  0  0  0  0  0  0
  -18.2510  -26.7200   22.2700 C   0  0  0  0  0  2  0  0  0  0  0  0
  -19.1620  -28.8480   23.3720 C   0  0  0  0  0  0  0  0  0  0  0  0
  -18.9220  -30.1030   23.9720 C   0  0  0  0  0  3  0  0  0  0  0  0
  -17.6080  -30.5770   24.1500 C   0  0  0  0  0  3  0  0  0  0  0  0
  -16.5160  -29.7940   23.7380 C   0  0  0  0  0  3  0  0  0  0  0  0
  -16.7400  -28.5390   23.1450 C   0  0  0  0  0  3  0  0  0  0  0  0
  -25.9280  -32.5140   23.8360 C   0  0  0  0  0  3  0  0  0  0  0  0
  -25.6040  -33.9170   24.1650 N   0  0  0  0  0  0  0  0  0  0  0  0
  -25.9200  -34.9810   23.4130 C   0  0  0  0  0  0  0  0  0  0  0  0
  -26.5690  -34.8840   22.3690 O   0  0  0  0  0  0  0  0  0  0  0  0
  -25.0220  -34.0630   24.9760 H   0  0  0  0  0  0  0  0  0  0  0  0
  -24.1780  -36.7810   23.1240 C   0  0  0  0  0  1  0  0  0  0  0  0
  -25.4460  -36.3710   23.8920 C   0  0  0  0  0  3  0  0  0  0  0  0
  -27.5980  -37.2720   24.6640 C   0  0  0  0  0  1  0  0  0  0  0  0
  -26.4700  -37.4290   23.7480 N   0  0  0  0  0  0  0  0  0  0  0  0
  -26.0640  -38.3480   23.9000 H   0  0  0  0  0  0  0  0  0  0  0  0
  -26.4260  -31.7650   25.1360 C   0  0  1  0  0  0  0  0  0  0  0  0
  -25.3210  -31.5520   26.1960 C   0  0  0  0  0  1  0  0  0  0  0  0
  -27.0100  -30.3780   24.7910 C   0  0  0  0  0  1  0  0  0  0  0  0
  -27.5710  -32.5690   25.7960 C   0  0  0  0  0  1  0  0  0  0  0  0
  1  2  2  0
  1  4  1  0
  3  5  1  0
  3  1  1  0
  6  4  1  0
  7 10  1  0
  7  9  1  0
  7  6  1  0
  8 48  1  0
  8  6  1  0
  9 11  1  6
  9  5  1  0
  9  8  1  0
 12  2  2  0
 13 18  1  0
 14 15  1  0
 14 13  1  0
 16 15  1  0
 16 23  1  0
 16 17  1  0
 18 12  1  0
 18 17  1  0
 19 12  2  0
 20 21  2  0
 21 40  1  0
 22 21  1  0
 22 25  1  0
 23 24  1  0
 23 20  1  0
 24 22  2  0
 25 26  1  0
 26 27  2  0
 28 31  1  0
 28 27  1  0
 29 28  2  0
 30 29  1  0
 30 25  2  0
 31 32  1  0
 32 33  1  0
 33 34  2  0
 35 34  1  0
 35 39  1  0
 36 35  2  0
 37 32  2  0
 37 36  1  0
 38 37  1  0
 40 41  1  0
 41 44  1  0
 41 43  1  0
 42 40  2  0
 45 46  1  0
 45 20  1  0
 47 45  1  0
 49 60  2  0
 50 48  1  0
 50 55  1  0
 51 59  1  0
 51 61  1  0
 52 58  1  0
 52 54  1  0
 53 59  1  0
 54 53  1  0
 55 54  2  0
 56 50  2  0
 57 56  1  0
 57 52  2  0
 58 51  1  0
 59 49  1  0
 61 63  2  0
 62 61  1  0
 64 62  1  0
 65 74  2  0
 65 70  1  0
 66 62  1  0
 66 70  1  0
 67 66  1  0
 68 69  1  0
 68 67  1  0
 69 65  1  0
 70 71  2  0
 71 72  1  0
 73 72  2  0
 74 73  1  0
 75 49  1  0
 75 76  1  0
 75 85  1  0
 76 79  1  0
 77 81  1  0
 77 76  1  0
 78 77  2  0
 81 80  1  0
 83 81  1  0
 83 84  1  0
 83 82  1  0
 85 88  1  1
 85 86  1  0
 87 85  1  0
M  ISO  4   2 100   8 101  12 100  48 101
M  END
>  <TORSDO>  (77) 
F 16

>  <SCORE>  (77) 
-16.373

>  <name>  (77) 
76

>  <ligand_id>  (77) 
76

>  <original_smiles>  (77) 
[H]C(C(=O)N1C([H])([H])C([H])([H])C([H])([H])C([H])(n2nc(-c3c([H])c([H])c(Oc4c([H])c([H])c(F)c([H])c4F)c([H])c3[H])c(C(=O)N([H])[H])c2N([H])[H])C1([H])[H])=C1C([H])([H])C([H])([H])C2(C([H])([H])[H])C([H])(Oc3c([H])c([H])c4c(c3[H])C([H])([H])N(C(=O)C([H])(N([H])C(=O)C([H])(N([H])C([H])([H])[H])C([H])([H])[H])C(C([H])([H])[H])(C([H])([H])[H])C([H])([H])[H])C([H])(C(=O)N([H])C3([H])c5c([H])c([H])c([H])c([H])c5C([H])([H])C([H])([H])C3([H])[H])C4([H])[H])C([H])(C1([H])[H])C2([H])C([H])([H])[H]

>  <smiles>  (77) 
[H]C(C(=O)N1C([H])([H])C([H])([H])C([H])([H])C([H])(n2nc(-c3c([H])c([H])c(Oc4c([H])c([H])c(F)c([H])c4F)c([H])c3[H])c(C(=O)N([H])[H])c2N([H])[H])C1([H])[H])=C1C([H])([H])C([H])([H])C2(C([H])([H])[H])C([H])(Oc3c([H])c([H])c4c(c3[H])C([H])([H])N(C(=O)C([H])(N([H])C(=O)C([H])(N([H])C([H])([H])[H])C([H])([H])[H])C(C([H])([H])[H])(C([H])([H])[H])C([H])([H])[H])C([H])(C(=O)N([H])C3([H])c5c([H])c([H])c([H])c([H])c5C([H])([H])C([H])([H])C3([H])[H])C4([H])[H])C([H])(C1([H])[H])C2([H])C([H])([H])[H]

$$$$
77:0:0
     RDKit          3D

 90 99  0  0  1  0  0  0  0  0999 V2000
  -28.4060  -20.7030   19.5530 C   0  0  0  0  0  2  0  0  0  0  0  0
  -30.3340  -20.1690   20.9040 C   0  0  0  0  0  2  0  0  0  0  0  0
  -28.7870  -19.2370   19.3780 C   0  0  0  0  0  3  0  0  0  0  0  0
  -30.1570  -18.9080   19.9460 C   0  0  0  0  0  3  0  0  0  0  0  0
  -28.2470  -18.1860   20.3650 C   0  0  0  0  0  3  0  0  0  0  0  0
  -29.5570  -17.3940   20.1230 C   0  0  0  0  0  3  0  0  0  0  0  0
  -26.8830  -17.6510   20.0550 C   0  0  0  0  0  1  0  0  0  0  0  0
  -29.2700  -21.2400   20.6250 N   0  0  1  0  0  4  0  0  0  0  0  0
  -28.7060  -21.2310   21.4610 H   0  0  0  0  0  0  0  0  0  0  0  0
  -29.9710  -16.1160   21.0350 C   0  0  0  0  0  2  0  0  0  0  0  0
  -30.5810  -14.7550   20.4030 C   0  0  0  0  0  0  0  0  0  0  0  0
  -30.3720  -12.4680   19.3770 C   0  0  0  0  0  2  0  0  0  0  0  0
  -29.4390  -12.5400   18.1480 C   0  0  0  0  0  2  0  0  0  0  0  0
  -27.9710  -12.3530   18.5710 C   0  0  0  0  0  2  0  0  0  0  0  0
  -27.5870  -13.2310   19.7950 C   0  0  0  0  0  3  0  0  0  0  0  0
  -28.6460  -13.1530   20.9140 C   0  0  0  0  0  2  0  0  0  0  0  0
  -29.9470  -13.5240   20.3350 N   0  0  0  0  0  0  0  0  0  0  0  0
  -31.7130  -14.8480   19.9180 O   0  0  0  0  0  0  0  0  0  0  0  0
  -25.1790  -13.7650   20.5130 C   0  0  0  0  0  0  0  0  0  0  0  0
  -24.1230  -12.9900   20.8850 C   0  0  0  0  0  0  0  0  0  0  0  0
  -24.6070  -11.6500   20.8480 C   0  0  0  0  0  0  0  0  0  0  0  0
  -26.2440  -12.9140   20.2820 N   0  0  0  0  0  0  0  0  0  0  0  0
  -25.9010  -11.6260   20.5390 N   0  0  0  0  0  0  0  0  0  0  0  0
  -23.8890  -10.3880   21.0340 C   0  0  0  0  0  0  0  0  0  0  0  0
  -24.3200   -9.4260   21.9720 C   0  0  0  0  0  3  0  0  0  0  0  0
  -23.5960   -8.2280   22.1470 C   0  0  0  0  0  3  0  0  0  0  0  0
  -22.4290   -7.9880   21.3820 C   0  0  0  0  0  0  0  0  0  0  0  0
  -22.0170   -8.9410   20.4360 C   0  0  0  0  0  3  0  0  0  0  0  0
  -22.7420  -10.1310   20.2590 C   0  0  0  0  0  3  0  0  0  0  0  0
  -21.6760   -6.8420   21.4650 O   0  0  0  0  0  0  0  0  0  0  0  0
  -21.6210   -6.1030   22.6200 C   0  0  0  0  0  0  0  0  0  0  0  0
  -21.1630   -6.6560   23.8360 C   0  0  0  0  0  3  0  0  0  0  0  0
  -21.0570   -5.8430   24.9810 C   0  0  0  0  0  3  0  0  0  0  0  0
  -21.3970   -4.4780   24.9110 C   0  0  0  0  0  0  0  0  0  0  0  0
  -21.8480   -3.9250   23.6990 C   0  0  0  0  0  3  0  0  0  0  0  0
  -21.9570   -4.7360   22.5560 C   0  0  0  0  0  0  0  0  0  0  0  0
  -22.3710   -4.1940   21.3860 F   0  0  0  0  0  0  0  0  0  0  0  0
  -21.2870   -3.6940   26.0090 F   0  0  0  0  0  0  0  0  0  0  0  0
  -22.7270  -13.4680   21.1620 C   0  0  0  0  0  0  0  0  0  0  0  0
  -22.0080  -12.7740   22.0350 N   0  0  0  0  0  0  0  0  0  0  0  0
  -22.2860  -14.4940   20.6460 O   0  0  0  0  0  0  0  0  0  0  0  0
  -22.3810  -11.9460   22.4730 H   0  0  0  0  0  0  0  0  0  0  0  0
  -21.0720  -13.0760   22.2710 H   0  0  0  0  0  0  0  0  0  0  0  0
  -25.2920  -15.1230   20.3340 N   0  0  0  0  0  0  0  0  0  0  0  0
  -24.5110  -15.7560   20.4720 H   0  0  0  0  0  0  0  0  0  0  0  0
  -26.1500  -15.5950   20.0850 H   0  0  0  0  0  0  0  0  0  0  0  0
  -29.6660  -22.7080   20.4110 C   0  0  0  0  0  2  0  0  0  0  0  0
  -28.5170  -23.8450   20.5200 C   0  0  0  0  0  2  0  0  0  0  0  0
  -28.6760  -25.2370   19.7320 C   0  0  0  0  0  2  0  0  0  0  0  0
  -28.4130  -26.5580   20.3550 O   0  0  0  0  0  0  0  0  0  0  0  0
  -24.5870  -31.8980   23.2440 C   0  0  0  0  0  0  0  0  0  0  0  0
  -27.2380  -27.3230   20.2410 C   0  0  0  0  0  0  0  0  0  0  0  0
  -23.3840  -30.4810   21.6100 C   0  0  0  0  0  3  0  0  0  0  0  0
  -24.8440  -28.9070   20.2030 C   0  0  0  0  0  0  0  0  0  0  0  0
  -25.9190  -30.8050   21.4280 C   0  0  0  0  0  2  0  0  0  0  0  0
  -26.0030  -29.4190   20.7960 C   0  0  0  0  0  0  0  0  0  0  0  0
  -27.1920  -28.6360   20.8060 C   0  0  0  0  0  3  0  0  0  0  0  0
  -26.0560  -26.8520   19.6260 C   0  0  0  0  0  3  0  0  0  0  0  0
  -24.8720  -27.6300   19.6090 C   0  0  0  0  0  3  0  0  0  0  0  0
  -23.6000  -29.7770   20.2410 C   0  0  0  0  0  2  0  0  0  0  0  0
  -24.6480  -31.0810   22.1510 N   0  0  0  0  0  0  0  0  0  0  0  0
  -23.5050  -32.1820   23.7770 O   0  0  0  0  0  0  0  0  0  0  0  0
  -22.7170  -29.4830   22.5860 C   0  0  0  0  0  0  0  0  0  0  0  0
  -21.3900  -29.3120   22.4640 N   0  0  0  0  0  0  0  0  0  0  0  0
  -23.3930  -28.8610   23.4090 O   0  0  0  0  0  0  0  0  0  0  0  0
  -20.9040  -29.8670   21.7740 H   0  0  0  0  0  0  0  0  0  0  0  0
  -18.0070  -28.1450   22.9870 C   0  0  0  0  0  0  0  0  0  0  0  0
  -20.5680  -28.3860   23.2440 C   0  0  0  0  0  3  0  0  0  0  0  0
  -20.6560  -26.9510   22.6740 C   0  0  0  0  0  2  0  0  0  0  0  0
  -19.5480  -26.6320   21.6650 C   0  0  0  0  0  2  0  0  0  0  0  0
  -18.1710  -26.7910   22.3150 C   0  0  0  0  0  2  0  0  0  0  0  0
  -19.1340  -28.9000   23.4080 C   0  0  0  0  0  0  0  0  0  0  0  0
  -18.9290  -30.1670   23.9970 C   0  0  0  0  0  3  0  0  0  0  0  0
  -17.6290  -30.6800   24.1650 C   0  0  0  0  0  3  0  0  0  0  0  0
  -16.5160  -29.9210   23.7600 C   0  0  0  0  0  3  0  0  0  0  0  0
  -16.7060  -28.6540   23.1790 C   0  0  0  0  0  3  0  0  0  0  0  0
  -25.8720  -32.5330   23.8630 C   0  0  0  0  0  3  0  0  0  0  0  0
  -26.3970  -31.7640   25.1390 C   0  0  1  0  0  0  0  0  0  0  0  0
  -25.3090  -31.5240   26.2110 C   0  0  0  0  0  1  0  0  0  0  0  0
  -26.9840  -30.3880   24.7470 C   0  0  0  0  0  1  0  0  0  0  0  0
  -27.5490  -32.5610   25.7950 C   0  0  0  0  0  1  0  0  0  0  0  0
  -25.5630  -33.9320   24.1960 N   0  0  0  0  0  0  0  0  0  0  0  0
  -25.8940  -34.9860   23.4370 C   0  0  0  0  0  0  0  0  0  0  0  0
  -26.5590  -34.8840   22.4020 O   0  0  0  0  0  0  0  0  0  0  0  0
  -24.9730  -34.0860   25.0000 H   0  0  0  0  0  0  0  0  0  0  0  0
  -24.1690  -36.7830   23.0860 C   0  0  0  0  0  1  0  0  0  0  0  0
  -25.4080  -36.3740   23.8980 C   0  0  0  0  0  3  0  0  0  0  0  0
  -27.5420  -37.2550   24.7360 C   0  0  0  0  0  1  0  0  0  0  0  0
  -26.4430  -37.4250   23.7890 N   0  0  0  0  0  0  0  0  0  0  0  0
  -26.0390  -38.3460   23.9360 H   0  0  0  0  0  0  0  0  0  0  0  0
  1  8  1  0
  3  1  1  0
  3  4  1  0
  3  5  1  0
  4  6  1  0
  4  2  1  0
  5  7  1  0
  6  5  1  0
  6 10  1  0
  8  2  1  0
  8  9  1  1
 11 10  1  0
 12 17  1  0
 13 14  1  0
 13 12  1  0
 15 14  1  0
 15 22  1  0
 15 16  1  0
 17 11  1  0
 17 16  1  0
 18 11  2  0
 19 20  2  0
 20 39  1  0
 21 20  1  0
 21 24  1  0
 22 19  1  0
 22 23  1  0
 23 21  2  0
 24 25  1  0
 25 26  2  0
 27 30  1  0
 27 26  1  0
 28 27  2  0
 29 28  1  0
 29 24  2  0
 30 31  1  0
 31 32  1  0
 32 33  2  0
 34 33  1  0
 34 38  1  0
 35 34  2  0
 36 31  2  0
 36 35  1  0
 37 36  1  0
 39 40  1  0
 40 43  1  0
 40 42  1  0
 41 39  2  0
 44 45  1  0
 44 19  1  0
 46 44  1  0
 47 48  1  0
 47  8  1  0
 49 50  1  0
 49 48  1  0
 51 62  2  0
 52 50  1  0
 52 57  1  0
 53 61  1  0
 53 63  1  0
 54 60  1  0
 54 56  1  0
 55 61  1  0
 56 57  2  0
 56 55  1  0
 58 52  2  0
 59 58  1  0
 59 54  2  0
 60 53  1  0
 61 51  1  0
 63 65  2  0
 64 63  1  0
 66 64  1  0
 67 76  2  0
 67 72  1  0
 68 64  1  0
 68 72  1  0
 69 68  1  0
 70 71  1  0
 70 69  1  0
 71 67  1  0
 72 73  2  0
 73 74  1  0
 75 74  2  0
 76 75  1  0
 77 51  1  0
 77 82  1  0
 77 78  1  0
 78 81  1  1
 78 79  1  0
 80 78  1  0
 82 85  1  0
 83 87  1  0
 83 82  1  0
 84 83  2  0
 87 86  1  0
 89 87  1  0
 89 90  1  0
 89 88  1  0
M  ISO  4  10 100  11 100  49 101  50 101
M  END
>  <TORSDO>  (78) 
F 20

>  <SCORE>  (78) 
-14.078

>  <name>  (78) 
77

>  <ligand_id>  (78) 
77

>  <original_smiles>  (78) 
[H]c1c([H])c([H])c2c(c1[H])C([H])([H])C([H])([H])C([H])([H])C2([H])N([H])C(=O)C1([H])N(C(=O)C([H])(N([H])C(=O)C([H])(N([H])C([H])([H])[H])C([H])([H])[H])C(C([H])([H])[H])(C([H])([H])[H])C([H])([H])[H])C([H])([H])c2c([H])c(OC([H])([H])C([H])([H])C([H])([H])[N+]3([H])C([H])([H])C4([H])C([H])(C([H])([H])[H])C([H])(C([H])([H])C(=O)N5C([H])([H])C([H])([H])C([H])([H])C([H])(n6nc(-c7c([H])c([H])c(Oc8c([H])c([H])c(F)c([H])c8F)c([H])c7[H])c(C(=O)N([H])[H])c6N([H])[H])C5([H])[H])C4([H])C3([H])[H])c([H])c([H])c2C1([H])[H]

>  <smiles>  (78) 
[H]c1c([H])c([H])c2c(c1[H])C([H])([H])C([H])([H])C([H])([H])C2([H])N([H])C(=O)C1([H])N(C(=O)C([H])(N([H])C(=O)C([H])(N([H])C([H])([H])[H])C([H])([H])[H])C(C([H])([H])[H])(C([H])([H])[H])C([H])([H])[H])C([H])([H])c2c([H])c(OC([H])([H])C([H])([H])C([H])([H])[N+]3([H])C([H])([H])C4([H])C([H])(C([H])([H])[H])C([H])(C([H])([H])C(=O)N5C([H])([H])C([H])([H])C([H])([H])C([H])(n6nc(-c7c([H])c([H])c(Oc8c([H])c([H])c(F)c([H])c8F)c([H])c7[H])c(C(=O)N([H])[H])c6N([H])[H])C5([H])[H])C4([H])C3([H])[H])c([H])c([H])c2C1([H])[H]

$$$$
78:0:0
     RDKit          3D

 87 92  0  0  1  0  0  0  0  0999 V2000
  -28.5070  -18.7070   20.1290 C   0  0  0  0  0  2  0  0  0  0  0  0
  -30.3560  -20.0670   20.0030 C   0  0  0  0  0  3  0  0  0  0  0  0
  -29.9930  -18.1820   19.7960 C   0  0  0  0  0  2  0  0  0  0  0  0
  -28.1660  -20.3640   20.3010 C   0  0  0  0  0  3  0  0  0  0  0  0
  -29.1590  -21.5520   19.7620 C   0  0  0  0  0  2  0  0  0  0  0  0
  -26.7220  -20.6350   19.8530 C   0  0  0  0  0  1  0  0  0  0  0  0
  -30.7140  -16.3020   19.9850 C   0  0  0  0  0  2  0  0  0  0  0  0
  -30.9120  -13.6110   19.3740 C   0  0  0  0  0  2  0  0  0  0  0  0
  -30.0790  -12.9820   18.2080 C   0  0  0  0  0  2  0  0  0  0  0  0
  -28.6760  -12.5750   18.6750 C   0  0  0  0  0  2  0  0  0  0  0  0
  -28.0910  -13.6630   19.5950 C   0  0  0  0  0  3  0  0  0  0  0  0
  -29.0750  -14.1900   20.6770 C   0  0  0  0  0  2  0  0  0  0  0  0
  -30.2280  -14.8670   20.0020 N   0  0  0  0  0  0  0  0  0  0  0  0
  -31.9530  -16.1230   19.9110 O   0  0  0  0  0  1  0  0  0  0  0  0
  -25.7560  -14.2210   20.4010 C   0  0  0  0  0  0  0  0  0  0  0  0
  -24.6720  -13.4660   20.7460 C   0  0  0  0  0  0  0  0  0  0  0  0
  -25.0990  -12.1020   20.6720 C   0  0  0  0  0  0  0  0  0  0  0  0
  -26.7720  -13.3290   20.1240 N   0  0  0  0  0  0  0  0  0  0  0  0
  -26.3910  -12.0420   20.3520 N   0  0  0  0  0  0  0  0  0  0  0  0
  -24.3250  -10.8600   20.8270 C   0  0  0  0  0  0  0  0  0  0  0  0
  -24.6930   -9.8680   21.7640 C   0  0  0  0  0  3  0  0  0  0  0  0
  -23.9160   -8.6990   21.9130 C   0  0  0  0  0  3  0  0  0  0  0  0
  -22.7570   -8.5100   21.1230 C   0  0  0  0  0  0  0  0  0  0  0  0
  -22.4050   -9.4890   20.1790 C   0  0  0  0  0  3  0  0  0  0  0  0
  -23.1820  -10.6510   20.0280 C   0  0  0  0  0  3  0  0  0  0  0  0
  -21.9590   -7.3910   21.1800 O   0  0  0  0  0  0  0  0  0  0  0  0
  -21.8200   -6.6610   22.3340 C   0  0  0  0  0  0  0  0  0  0  0  0
  -21.2790   -7.2240   23.5100 C   0  0  0  0  0  3  0  0  0  0  0  0
  -21.0890   -6.4200   24.6520 C   0  0  0  0  0  3  0  0  0  0  0  0
  -21.4310   -5.0550   24.6190 C   0  0  0  0  0  0  0  0  0  0  0  0
  -21.9650   -4.4900   23.4470 C   0  0  0  0  0  3  0  0  0  0  0  0
  -22.1550   -5.2910   22.3060 C   0  0  0  0  0  0  0  0  0  0  0  0
  -22.6500   -4.7380   21.1720 F   0  0  0  0  0  0  0  0  0  0  0  0
  -21.2420   -4.2810   25.7120 F   0  0  0  0  0  0  0  0  0  0  0  0
  -23.2920  -13.9800   21.0260 C   0  0  0  0  0  0  0  0  0  0  0  0
  -22.5430  -13.3020   21.8860 N   0  0  0  0  0  0  0  0  0  0  0  0
  -22.8890  -15.0270   20.5170 O   0  0  0  0  0  0  0  0  0  0  0  0
  -22.8790  -12.4560   22.3230 H   0  0  0  0  0  0  0  0  0  0  0  0
  -21.6170  -13.6340   22.1140 H   0  0  0  0  0  0  0  0  0  0  0  0
  -25.9590  -15.5920   20.2640 N   0  0  0  0  0  0  0  0  0  0  0  0
  -25.2130  -16.2640   20.4030 H   0  0  0  0  0  0  0  0  0  0  0  0
  -26.8270  -16.0150   19.9600 H   0  0  0  0  0  0  0  0  0  0  0  0
  -31.9180  -21.4550   18.5480 C   0  0  0  0  0  2  0  0  0  0  0  0
  -31.7120  -20.4140   19.3750 C   0  0  0  0  0  0  0  0  0  0  0  0
  -32.8670  -19.5100   19.7470 C   0  0  0  0  0  1  0  0  0  0  0  0
  -28.6570  -23.5670   20.1450 C   0  0  0  0  0 15  0  0  0  0  0  0
  -28.5300  -25.4170   19.7840 O   0  0  0  0  0  1  0  0  0  0  0  0
  -24.6410  -31.6960   22.9270 C   0  0  0  0  0  0  0  0  0  0  0  0
  -27.4900  -26.6640   19.8530 C   0  0  0  0  0  0  0  0  0  0  0  0
  -23.5640  -30.2890   21.2280 C   0  0  0  0  0  3  0  0  0  0  0  0
  -25.1250  -28.7180   19.8110 C   0  0  0  0  0  0  0  0  0  0  0  0
  -26.1460  -30.5100   21.1730 C   0  0  0  0  0  2  0  0  0  0  0  0
  -26.3010  -29.0780   20.4810 C   0  0  0  0  0  0  0  0  0  0  0  0
  -27.4570  -28.0920   20.4560 C   0  0  0  0  0  3  0  0  0  0  0  0
  -26.2570  -26.5720   19.1400 C   0  0  0  0  0  3  0  0  0  0  0  0
  -25.1530  -27.4950   19.1150 C   0  0  0  0  0  3  0  0  0  0  0  0
  -23.8770  -29.6310   19.8510 C   0  0  0  0  0  2  0  0  0  0  0  0
  -24.8080  -30.8690   21.8330 N   0  0  0  0  0  0  0  0  0  0  0  0
  -23.5210  -31.9310   23.4150 O   0  0  0  0  0  0  0  0  0  0  0  0
  -22.8660  -29.2630   22.1630 C   0  0  0  0  0  0  0  0  0  0  0  0
  -21.5340  -29.0800   22.0370 N   0  0  0  0  0  0  0  0  0  0  0  0
  -23.5370  -28.6230   22.9770 O   0  0  0  0  0  0  0  0  0  0  0  0
  -21.0360  -29.6430   21.3620 H   0  0  0  0  0  0  0  0  0  0  0  0
  -18.1710  -27.8200   22.6110 C   0  0  0  0  0  0  0  0  0  0  0  0
  -20.7420  -28.0820   22.7710 C   0  0  0  0  0  3  0  0  0  0  0  0
  -20.8160  -26.6980   22.0810 C   0  0  0  0  0  2  0  0  0  0  0  0
  -19.6690  -26.4560   21.0970 C   0  0  0  0  0  2  0  0  0  0  0  0
  -18.3190  -26.5360   21.8120 C   0  0  0  0  0  2  0  0  0  0  0  0
  -19.3050  -28.5550   23.0470 C   0  0  0  0  0  0  0  0  0  0  0  0
  -19.1070  -29.7550   23.7640 C   0  0  0  0  0  3  0  0  0  0  0  0
  -17.8080  -30.2190   24.0450 C   0  0  0  0  0  3  0  0  0  0  0  0
  -16.6900  -29.4830   23.6200 C   0  0  0  0  0  3  0  0  0  0  0  0
  -16.8700  -28.2840   22.9070 C   0  0  0  0  0  3  0  0  0  0  0  0
  -25.8470  -32.4040   23.6180 C   0  0  0  0  0  3  0  0  0  0  0  0
  -25.4370  -33.7740   23.9980 N   0  0  0  0  0  0  0  0  0  0  0  0
  -25.7270  -34.8880   23.3120 C   0  0  0  0  0  0  0  0  0  0  0  0
  -26.4190  -34.8750   22.2920 O   0  0  0  0  0  0  0  0  0  0  0  0
  -24.8220  -33.8530   24.7940 H   0  0  0  0  0  0  0  0  0  0  0  0
  -23.9120  -36.6180   23.0350 C   0  0  0  0  0  1  0  0  0  0  0  0
  -25.1640  -36.2270   23.8360 C   0  0  0  0  0  3  0  0  0  0  0  0
  -27.2290  -37.1980   24.7530 C   0  0  0  0  0  1  0  0  0  0  0  0
  -26.1410  -37.3390   23.7890 N   0  0  0  0  0  0  0  0  0  0  0  0
  -25.6780  -38.2280   23.9600 H   0  0  0  0  0  0  0  0  0  0  0  0
  -26.3550  -31.6340   24.8990 C   0  0  1  0  0  0  0  0  0  0  0  0
  -25.2380  -31.3270   25.9240 C   0  0  0  0  0  1  0  0  0  0  0  0
  -27.0190  -30.2910   24.5180 C   0  0  0  0  0  1  0  0  0  0  0  0
  -27.4460  -32.4680   25.6120 C   0  0  0  0  0  1  0  0  0  0  0  0
  1  4  1  0
  2 44  1  0
  3  2  1  0
  3  1  1  0
  4  6  1  0
  5  2  1  0
  5  4  1  0
  7 13  1  0
  8 13  1  0
  9 10  1  0
  9  8  1  0
 11 10  1  0
 11 18  1  0
 11 12  1  0
 13 12  1  0
 14  7  1  0
 15 16  2  0
 16 35  1  0
 17 16  1  0
 17 20  1  0
 18 19  1  0
 18 15  1  0
 19 17  2  0
 20 21  1  0
 21 22  2  0
 23 26  1  0
 23 22  1  0
 24 23  2  0
 25 24  1  0
 25 20  2  0
 26 27  1  0
 27 28  1  0
 28 29  2  0
 30 29  1  0
 30 34  1  0
 31 30  2  0
 32 27  2  0
 32 31  1  0
 33 32  1  0
 35 36  1  0
 36 39  1  0
 36 38  1  0
 37 35  2  0
 40 15  1  0
 40 41  1  0
 42 40  1  0
 43 44  2  0
 44 45  1  0
 47 49  1  0
 48 59  2  0
 49 54  1  0
 50 58  1  0
 50 60  1  0
 51 57  1  0
 51 53  1  0
 52 58  1  0
 53 52  1  0
 54 53  2  0
 55 49  2  0
 56 55  1  0
 56 51  2  0
 57 50  1  0
 58 48  1  0
 60 62  2  0
 61 60  1  0
 63 61  1  0
 64 73  2  0
 64 69  1  0
 65 61  1  0
 65 69  1  0
 66 65  1  0
 67 68  1  0
 67 66  1  0
 68 64  1  0
 69 70  2  0
 70 71  1  0
 72 71  2  0
 73 72  1  0
 74 48  1  0
 74 75  1  0
 74 84  1  0
 75 78  1  0
 76 80  1  0
 76 75  1  0
 77 76  2  0
 80 79  1  0
 82 80  1  0
 82 83  1  0
 82 81  1  0
 84 87  1  1
 84 85  1  0
 86 84  1  0
M  ISO  4   3 100   7 100  46 101  47 101
M  END
>  <TORSDO>  (79) 
F 18

>  <SCORE>  (79) 
-14.633

>  <name>  (79) 
78

>  <ligand_id>  (79) 
78

>  <original_smiles>  (79) 
[H]C([H])=C(C([H])([H])[H])C1([H])C([H])(C(=O)N2C([H])([H])C([H])([H])C([H])([H])C([H])(n3nc(-c4c([H])c([H])c(Oc5c([H])c([H])c(F)c([H])c5F)c([H])c4[H])c(C(=O)N([H])[H])c3N([H])[H])C2([H])[H])C([H])([H])C([H])(C([H])([H])[H])C1([H])C([H])([H])Oc1c([H])c([H])c2c(c1[H])C([H])([H])N(C(=O)C([H])(N([H])C(=O)C([H])(N([H])C([H])([H])[H])C([H])([H])[H])C(C([H])([H])[H])(C([H])([H])[H])C([H])([H])[H])C([H])(C(=O)N([H])C1([H])c3c([H])c([H])c([H])c([H])c3C([H])([H])C([H])([H])C1([H])[H])C2([H])[H]

>  <smiles>  (79) 
[H]C([H])=C(C([H])([H])[H])C1([H])C([H])(C(=O)N2C([H])([H])C([H])([H])C([H])([H])C([H])(n3nc(-c4c([H])c([H])c(Oc5c([H])c([H])c(F)c([H])c5F)c([H])c4[H])c(C(=O)N([H])[H])c3N([H])[H])C2([H])[H])C([H])([H])C([H])(C([H])([H])[H])C1([H])C([H])([H])Oc1c([H])c([H])c2c(c1[H])C([H])([H])N(C(=O)C([H])(N([H])C(=O)C([H])(N([H])C([H])([H])[H])C([H])([H])[H])C(C([H])([H])[H])(C([H])([H])[H])C([H])([H])[H])C([H])(C(=O)N([H])C1([H])c3c([H])c([H])c([H])c([H])c3C([H])([H])C([H])([H])C1([H])[H])C2([H])[H]

$$$$
79:0:0
     RDKit          3D

 91100  0  0  1  0  0  0  0  0999 V2000
  -30.2480  -20.7200   20.2610 C   0  0  0  0  0  0  0  0  0  0  0  0
  -29.8000  -22.0710   20.4610 C   0  0  0  0  0  3  0  0  0  0  0  0
  -29.8240  -19.2000   19.8660 C   0  0  0  0  0  2  0  0  0  0  0  0
  -31.6520  -20.4160   20.7070 C   0  0  0  0  0  2  0  0  0  0  0  0
  -30.0440  -17.4430   22.8030 C   0  0  0  0  0  2  0  0  0  0  0  0
  -29.8270  -16.4570   21.5930 C   0  0  0  0  0  2  0  0  0  0  0  0
  -30.7850  -18.8140   22.5650 C   0  0  0  0  0  2  0  0  0  0  0  0
  -31.0720  -18.0790   20.1660 C   0  0  0  0  0  3  0  0  0  0  0  0
  -31.0290  -16.4010   20.6050 C   0  0  1  0  0  0  0  0  0  0  0  0
  -31.7020  -18.9650   21.2840 C   0  0  1  0  0  0  0  0  0  0  0  0
  -32.2520  -16.0000   21.5010 C   0  0  0  0  0  1  0  0  0  0  0  0
  -33.2220  -18.7780   21.5650 C   0  0  0  0  0  1  0  0  0  0  0  0
  -31.2950  -15.0710   19.5800 C   0  0  0  0  0  0  0  0  0  0  0  0
  -30.9160  -12.8320   18.3900 C   0  0  0  0  0  2  0  0  0  0  0  0
  -29.8290  -12.9550   17.2920 C   0  0  0  0  0  2  0  0  0  0  0  0
  -28.4110  -12.7920   17.8830 C   0  0  0  0  0  2  0  0  0  0  0  0
  -28.2340  -13.5910   19.1990 C   0  0  0  0  0  3  0  0  0  0  0  0
  -29.4170  -13.3450   20.1560 C   0  0  0  0  0  2  0  0  0  0  0  0
  -30.6260  -13.8320   19.4710 N   0  0  0  0  0  0  0  0  0  0  0  0
  -32.3270  -15.1420   18.8950 O   0  0  0  0  0  0  0  0  0  0  0  0
  -26.0290  -14.2610   20.3150 C   0  0  0  0  0  0  0  0  0  0  0  0
  -24.9650  -13.5250   20.7730 C   0  0  0  0  0  0  0  0  0  0  0  0
  -25.3080  -12.1560   20.5520 C   0  0  0  0  0  0  0  0  0  0  0  0
  -26.9510  -13.3380   19.8430 N   0  0  0  0  0  0  0  0  0  0  0  0
  -26.5340  -12.0610   20.0460 N   0  0  0  0  0  0  0  0  0  0  0  0
  -24.5100  -10.9350   20.7380 C   0  0  0  0  0  0  0  0  0  0  0  0
  -24.9060   -9.9250   21.6420 C   0  0  0  0  0  3  0  0  0  0  0  0
  -24.1120   -8.7720   21.8200 C   0  0  0  0  0  3  0  0  0  0  0  0
  -22.9090   -8.6220   21.0920 C   0  0  0  0  0  0  0  0  0  0  0  0
  -22.5310   -9.6160   20.1740 C   0  0  0  0  0  3  0  0  0  0  0  0
  -23.3240  -10.7620   19.9930 C   0  0  0  0  0  3  0  0  0  0  0  0
  -22.0870   -7.5210   21.1790 O   0  0  0  0  0  0  0  0  0  0  0  0
  -21.8940   -6.8600   22.3650 C   0  0  0  0  0  0  0  0  0  0  0  0
  -21.3980   -7.5130   23.5130 C   0  0  0  0  0  3  0  0  0  0  0  0
  -21.1470   -6.7780   24.6910 C   0  0  0  0  0  3  0  0  0  0  0  0
  -21.3840   -5.3910   24.7200 C   0  0  0  0  0  0  0  0  0  0  0  0
  -21.8710   -4.7350   23.5750 C   0  0  0  0  0  3  0  0  0  0  0  0
  -22.1240   -5.4670   22.4020 C   0  0  0  0  0  0  0  0  0  0  0  0
  -22.5740   -4.8270   21.2960 F   0  0  0  0  0  0  0  0  0  0  0  0
  -21.1360   -4.6840   25.8480 F   0  0  0  0  0  0  0  0  0  0  0  0
  -23.6620  -14.0720   21.2830 C   0  0  0  0  0  0  0  0  0  0  0  0
  -23.0150  -13.3720   22.2110 N   0  0  0  0  0  0  0  0  0  0  0  0
  -23.2240  -15.1510   20.8900 O   0  0  0  0  0  0  0  0  0  0  0  0
  -23.3850  -12.5040   22.5660 H   0  0  0  0  0  0  0  0  0  0  0  0
  -22.1350  -13.7170   22.5750 H   0  0  0  0  0  0  0  0  0  0  0  0
  -26.2740  -15.6250   20.2450 N   0  0  0  0  0  0  0  0  0  0  0  0
  -25.5760  -16.3050   20.5280 H   0  0  0  0  0  0  0  0  0  0  0  0
  -27.1180  -16.0440   19.8710 H   0  0  0  0  0  0  0  0  0  0  0  0
  -28.5100  -23.0740   20.5710 C   0  0  0  0  0  2  0  0  0  0  0  0
  -28.2400  -24.5330   19.7640 C   0  0  0  0  0  2  0  0  0  0  0  0
  -28.1710  -26.0060   20.2630 O   0  0  0  0  0  0  0  0  0  0  0  0
  -24.6160  -31.7880   23.0940 C   0  0  0  0  0  0  0  0  0  0  0  0
  -27.0920  -26.9580   20.1420 C   0  0  0  0  0  0  0  0  0  0  0  0
  -23.3690  -30.3660   21.5100 C   0  0  0  0  0  3  0  0  0  0  0  0
  -24.7710  -28.7230   20.1000 C   0  0  0  0  0  0  0  0  0  0  0  0
  -25.9180  -30.5780   21.3030 C   0  0  0  0  0  2  0  0  0  0  0  0
  -25.9610  -29.1680   20.6910 C   0  0  0  0  0  0  0  0  0  0  0  0
  -27.1090  -28.2930   20.7150 C   0  0  0  0  0  3  0  0  0  0  0  0
  -25.8810  -26.6150   19.5000 C   0  0  0  0  0  3  0  0  0  0  0  0
  -24.7430  -27.4560   19.4940 C   0  0  0  0  0  3  0  0  0  0  0  0
  -23.5550  -29.6420   20.1480 C   0  0  0  0  0  2  0  0  0  0  0  0
  -24.6540  -30.9380   22.0210 N   0  0  0  0  0  0  0  0  0  0  0  0
  -23.5440  -32.1010   23.6360 O   0  0  0  0  0  0  0  0  0  0  0  0
  -22.7030  -29.3940   22.5130 C   0  0  0  0  0  0  0  0  0  0  0  0
  -21.3820  -29.1870   22.3730 N   0  0  0  0  0  0  0  0  0  0  0  0
  -23.3780  -28.8200   23.3710 O   0  0  0  0  0  0  0  0  0  0  0  0
  -20.8930  -29.6900   21.6450 H   0  0  0  0  0  0  0  0  0  0  0  0
  -18.0390  -27.8910   22.8390 C   0  0  0  0  0  0  0  0  0  0  0  0
  -20.5720  -28.2740   23.1790 C   0  0  0  0  0  3  0  0  0  0  0  0
  -20.7550  -26.8140   22.7070 C   0  0  0  0  0  2  0  0  0  0  0  0
  -19.7040  -26.3780   21.6800 C   0  0  0  0  0  2  0  0  0  0  0  0
  -18.2920  -26.5100   22.2610 C   0  0  0  0  0  2  0  0  0  0  0  0
  -19.1100  -28.7270   23.2540 C   0  0  0  0  0  0  0  0  0  0  0  0
  -18.8180  -30.0180   23.7500 C   0  0  0  0  0  3  0  0  0  0  0  0
  -17.4880  -30.4700   23.8410 C   0  0  0  0  0  3  0  0  0  0  0  0
  -16.4320  -29.6350   23.4380 C   0  0  0  0  0  3  0  0  0  0  0  0
  -16.7080  -28.3480   22.9420 C   0  0  0  0  0  3  0  0  0  0  0  0
  -25.9140  -32.4230   23.6800 C   0  0  0  0  0  3  0  0  0  0  0  0
  -25.6010  -33.8020   24.0860 N   0  0  0  0  0  0  0  0  0  0  0  0
  -25.8870  -34.8930   23.3620 C   0  0  0  0  0  0  0  0  0  0  0  0
  -26.5130  -34.8450   22.3000 O   0  0  0  0  0  0  0  0  0  0  0  0
  -25.0570  -33.9200   24.9270 H   0  0  0  0  0  0  0  0  0  0  0  0
  -24.1200  -36.6680   23.1610 C   0  0  0  0  0  1  0  0  0  0  0  0
  -25.4010  -36.2510   23.9030 C   0  0  0  0  0  3  0  0  0  0  0  0
  -27.5530  -37.1320   24.6860 C   0  0  0  0  0  1  0  0  0  0  0  0
  -26.4120  -37.3270   23.7940 N   0  0  0  0  0  0  0  0  0  0  0  0
  -25.9980  -38.2330   24.0000 H   0  0  0  0  0  0  0  0  0  0  0  0
  -26.4980  -31.6120   24.9020 C   0  0  1  0  0  0  0  0  0  0  0  0
  -25.4450  -31.2960   25.9900 C   0  0  0  0  0  1  0  0  0  0  0  0
  -27.1110  -30.2740   24.4330 C   0  0  0  0  0  1  0  0  0  0  0  0
  -27.6440  -32.4160   25.5580 C   0  0  0  0  0  1  0  0  0  0  0  0
  1  2  2  0
  1  4  1  0
  2 49  1  0
  3  1  1  0
  4 10  1  0
  6  5  1  0
  7  5  1  0
  8  3  1  0
  8  9  1  0
  8 10  1  0
  9 11  1  1
  9  6  1  0
 10 12  1  1
 10  7  1  0
 13  9  1  0
 14 19  1  0
 15 16  1  0
 15 14  1  0
 17 16  1  0
 17 24  1  0
 17 18  1  0
 19 13  1  0
 19 18  1  0
 20 13  2  0
 21 22  2  0
 22 41  1  0
 23 26  1  0
 23 22  1  0
 24 25  1  0
 24 21  1  0
 25 23  2  0
 26 27  1  0
 27 28  2  0
 29 32  1  0
 29 28  1  0
 30 29  2  0
 31 30  1  0
 31 26  2  0
 32 33  1  0
 33 38  2  0
 33 34  1  0
 34 35  2  0
 35 36  1  0
 36 40  1  0
 37 36  2  0
 38 37  1  0
 39 38  1  0
 41 42  1  0
 42 44  1  0
 42 45  1  0
 43 41  2  0
 46 21  1  0
 46 47  1  0
 48 46  1  0
 50 51  1  0
 50 49  1  0
 52 63  2  0
 53 51  1  0
 53 58  1  0
 54 62  1  0
 54 64  1  0
 55 61  1  0
 55 57  1  0
 56 62  1  0
 57 58  2  0
 57 56  1  0
 59 53  2  0
 60 59  1  0
 60 55  2  0
 61 54  1  0
 62 52  1  0
 64 66  2  0
 65 64  1  0
 67 65  1  0
 68 77  2  0
 68 73  1  0
 69 65  1  0
 69 73  1  0
 70 69  1  0
 71 72  1  0
 71 70  1  0
 72 68  1  0
 73 74  2  0
 74 75  1  0
 76 75  2  0
 77 76  1  0
 78 52  1  0
 78 79  1  0
 78 88  1  0
 79 82  1  0
 80 84  1  0
 80 79  1  0
 81 80  2  0
 84 83  1  0
 86 84  1  0
 86 87  1  0
 86 85  1  0
 88 91  1  1
 88 89  1  0
 90 88  1  0
M  ISO  4   9 100  13 100  50 101  51 101
M  END
>  <TORSDO>  (80) 
F 18

>  <SCORE>  (80) 
-10.744

>  <name>  (80) 
79

>  <ligand_id>  (80) 
79

>  <original_smiles>  (80) 
[H]C(=C1C([H])([H])C2([H])C(C(=O)N3C([H])([H])C([H])([H])C([H])([H])C([H])(n4nc(-c5c([H])c([H])c(Oc6c([H])c([H])c(F)c([H])c6F)c([H])c5[H])c(C(=O)N([H])[H])c4N([H])[H])C3([H])[H])(C([H])([H])[H])C([H])([H])C([H])([H])C([H])([H])C2(C([H])([H])[H])C1([H])[H])C([H])([H])C([H])([H])Oc1c([H])c([H])c2c(c1[H])C([H])([H])N(C(=O)C([H])(N([H])C(=O)C([H])(N([H])C([H])([H])[H])C([H])([H])[H])C(C([H])([H])[H])(C([H])([H])[H])C([H])([H])[H])C([H])(C(=O)N([H])C1([H])c3c([H])c([H])c([H])c([H])c3C([H])([H])C([H])([H])C1([H])[H])C2([H])[H]

>  <smiles>  (80) 
[H]C(=C1C([H])([H])C2([H])C(C(=O)N3C([H])([H])C([H])([H])C([H])([H])C([H])(n4nc(-c5c([H])c([H])c(Oc6c([H])c([H])c(F)c([H])c6F)c([H])c5[H])c(C(=O)N([H])[H])c4N([H])[H])C3([H])[H])(C([H])([H])[H])C([H])([H])C([H])([H])C([H])([H])C2(C([H])([H])[H])C1([H])[H])C([H])([H])C([H])([H])Oc1c([H])c([H])c2c(c1[H])C([H])([H])N(C(=O)C([H])(N([H])C(=O)C([H])(N([H])C([H])([H])[H])C([H])([H])[H])C(C([H])([H])[H])(C([H])([H])[H])C([H])([H])[H])C([H])(C(=O)N([H])C1([H])c3c([H])c([H])c([H])c([H])c3C([H])([H])C([H])([H])C1([H])[H])C2([H])[H]

$$$$
80:0:0
     RDKit          3D

 85 91  0  0  1  0  0  0  0  0999 V2000
  -29.1440  -21.0240   18.5500 C   0  0  0  0  0  3  0  0  0  0  0  0
  -29.5970  -19.8050   17.9310 C   0  0  0  0  0  3  0  0  0  0  0  0
  -29.0910  -19.5950   20.4780 C   0  0  0  0  0  3  0  0  0  0  0  0
  -29.5740  -18.0670   19.8470 C   0  0  0  0  0  0  0  0  0  0  0  0
  -28.8110  -21.2070   19.9210 C   0  0  0  0  0  3  0  0  0  0  0  0
  -29.8120  -18.4820   18.4810 C   0  0  0  0  0  0  0  0  0  0  0  0
  -30.4060  -17.4900   17.4770 C   0  0  0  0  0  1  0  0  0  0  0  0
  -30.1330  -16.2480   20.2230 C   0  0  0  0  0  0  0  0  0  0  0  0
  -30.3770  -13.5640   19.4900 C   0  0  0  0  0  2  0  0  0  0  0  0
  -29.5810  -12.8620   18.3390 C   0  0  0  0  0  2  0  0  0  0  0  0
  -28.1860  -12.4120   18.7890 C   0  0  0  0  0  2  0  0  0  0  0  0
  -27.5710  -13.4470   19.7520 C   0  0  0  0  0  3  0  0  0  0  0  0
  -28.5560  -14.0220   20.8120 C   0  0  0  0  0  2  0  0  0  0  0  0
  -29.6390  -14.8030   20.1090 N   0  0  0  0  0  0  0  0  0  0  0  0
  -31.3710  -16.0280   20.2900 O   0  0  0  0  0  0  0  0  0  0  0  0
  -25.2070  -13.8940   20.5220 C   0  0  0  0  0  0  0  0  0  0  0  0
  -24.1580  -13.0950   20.8720 C   0  0  0  0  0  0  0  0  0  0  0  0
  -24.6540  -11.7520   20.8510 C   0  0  0  0  0  0  0  0  0  0  0  0
  -26.2740  -13.0500   20.2930 N   0  0  0  0  0  0  0  0  0  0  0  0
  -25.9570  -11.7520   20.5570 N   0  0  0  0  0  0  0  0  0  0  0  0
  -23.9370  -10.4790   21.0360 C   0  0  0  0  0  0  0  0  0  0  0  0
  -24.3600   -9.5210   21.9830 C   0  0  0  0  0  3  0  0  0  0  0  0
  -23.6350   -8.3220   22.1660 C   0  0  0  0  0  3  0  0  0  0  0  0
  -22.4690   -8.0740   21.4040 C   0  0  0  0  0  0  0  0  0  0  0  0
  -22.0600   -9.0210   20.4490 C   0  0  0  0  0  3  0  0  0  0  0  0
  -22.7870  -10.2100   20.2650 C   0  0  0  0  0  3  0  0  0  0  0  0
  -21.7240   -6.9190   21.4920 O   0  0  0  0  0  0  0  0  0  0  0  0
  -21.6790   -6.1750   22.6420 C   0  0  0  0  0  0  0  0  0  0  0  0
  -21.2520   -6.7280   23.8710 C   0  0  0  0  0  3  0  0  0  0  0  0
  -21.1520   -5.9120   25.0140 C   0  0  0  0  0  3  0  0  0  0  0  0
  -21.4660   -4.5410   24.9330 C   0  0  0  0  0  0  0  0  0  0  0  0
  -21.8880   -3.9870   23.7110 C   0  0  0  0  0  3  0  0  0  0  0  0
  -21.9880   -4.8000   22.5690 C   0  0  0  0  0  0  0  0  0  0  0  0
  -22.3730   -4.2570   21.3870 F   0  0  0  0  0  0  0  0  0  0  0  0
  -21.3630   -3.7560   26.0280 F   0  0  0  0  0  0  0  0  0  0  0  0
  -22.7470  -13.5500   21.1020 C   0  0  0  0  0  0  0  0  0  0  0  0
  -22.0090  -12.8590   21.9610 N   0  0  0  0  0  0  0  0  0  0  0  0
  -22.3070  -14.5620   20.5560 O   0  0  0  0  0  0  0  0  0  0  0  0
  -22.3790  -12.0490   22.4380 H   0  0  0  0  0  0  0  0  0  0  0  0
  -21.0600  -13.1510   22.1470 H   0  0  0  0  0  0  0  0  0  0  0  0
  -25.3380  -15.2680   20.3400 N   0  0  0  0  0  0  0  0  0  0  0  0
  -24.5490  -15.8990   20.4280 H   0  0  0  0  0  0  0  0  0  0  0  0
  -26.1830  -15.7280   20.0250 H   0  0  0  0  0  0  0  0  0  0  0  0
  -28.0370  -23.0640   20.3610 C   0  0  0  0  0 15  0  0  0  0  0  0
  -28.1000  -25.0070   20.1570 O   0  0  0  0  0  1  0  0  0  0  0  0
  -24.5620  -31.7890   23.0670 C   0  0  0  0  0  0  0  0  0  0  0  0
  -27.1430  -26.3740   20.1940 C   0  0  0  0  0  0  0  0  0  0  0  0
  -23.4070  -30.3380   21.4580 C   0  0  0  0  0  3  0  0  0  0  0  0
  -24.8770  -28.6070   20.1040 C   0  0  0  0  0  0  0  0  0  0  0  0
  -26.0020  -30.4030   21.3840 C   0  0  0  0  0  2  0  0  0  0  0  0
  -26.0800  -28.9210   20.7510 C   0  0  0  0  0  0  0  0  0  0  0  0
  -27.1800  -27.8430   20.7490 C   0  0  0  0  0  3  0  0  0  0  0  0
  -25.8920  -26.3650   19.5000 C   0  0  0  0  0  3  0  0  0  0  0  0
  -24.8440  -27.3580   19.4530 C   0  0  0  0  0  3  0  0  0  0  0  0
  -23.6770  -29.5880   20.1140 C   0  0  0  0  0  2  0  0  0  0  0  0
  -24.6850  -30.8850   22.0220 N   0  0  0  0  0  0  0  0  0  0  0  0
  -23.4540  -32.1050   23.5420 O   0  0  0  0  0  0  0  0  0  0  0  0
  -22.6590  -29.4070   22.4560 C   0  0  0  0  0  0  0  0  0  0  0  0
  -21.3210  -29.2790   22.3480 N   0  0  0  0  0  0  0  0  0  0  0  0
  -23.3020  -28.7910   23.3080 O   0  0  0  0  0  0  0  0  0  0  0  0
  -20.8440  -29.8330   21.6510 H   0  0  0  0  0  0  0  0  0  0  0  0
  -17.9190  -28.0970   22.9290 C   0  0  0  0  0  0  0  0  0  0  0  0
  -20.4890  -28.3540   23.1330 C   0  0  0  0  0  3  0  0  0  0  0  0
  -20.5640  -26.9160   22.5650 C   0  0  0  0  0  2  0  0  0  0  0  0
  -19.4410  -26.6010   21.5700 C   0  0  0  0  0  2  0  0  0  0  0  0
  -18.0740  -26.7500   22.2410 C   0  0  0  0  0  2  0  0  0  0  0  0
  -19.0510  -28.8570   23.3310 C   0  0  0  0  0  0  0  0  0  0  0  0
  -18.8430  -30.1130   23.9420 C   0  0  0  0  0  3  0  0  0  0  0  0
  -17.5420  -30.6120   24.1420 C   0  0  0  0  0  3  0  0  0  0  0  0
  -16.4280  -29.8510   23.7440 C   0  0  0  0  0  3  0  0  0  0  0  0
  -16.6180  -28.5930   23.1480 C   0  0  0  0  0  3  0  0  0  0  0  0
  -25.7960  -32.4810   23.7220 C   0  0  0  0  0  3  0  0  0  0  0  0
  -25.4320  -33.8750   24.0700 N   0  0  0  0  0  0  0  0  0  0  0  0
  -25.7480  -34.9660   23.3570 C   0  0  0  0  0  0  0  0  0  0  0  0
  -26.4250  -34.9070   22.3290 O   0  0  0  0  0  0  0  0  0  0  0  0
  -24.8250  -33.9920   24.8680 H   0  0  0  0  0  0  0  0  0  0  0  0
  -23.9930  -36.7550   23.0580 C   0  0  0  0  0  1  0  0  0  0  0  0
  -25.2400  -36.3390   23.8560 C   0  0  0  0  0  3  0  0  0  0  0  0
  -27.3650  -37.2420   24.7050 C   0  0  0  0  0  1  0  0  0  0  0  0
  -26.2550  -37.4140   23.7700 N   0  0  0  0  0  0  0  0  0  0  0  0
  -25.8370  -38.3270   23.9320 H   0  0  0  0  0  0  0  0  0  0  0  0
  -26.3020  -31.7370   25.0220 C   0  0  1  0  0  0  0  0  0  0  0  0
  -25.1980  -31.5050   26.0830 C   0  0  0  0  0  1  0  0  0  0  0  0
  -26.9120  -30.3620   24.6770 C   0  0  0  0  0  1  0  0  0  0  0  0
  -27.4380  -32.5560   25.6830 C   0  0  0  0  0  1  0  0  0  0  0  0
  1  5  1  0
  2  6  1  0
  2  1  2  0
  4  8  1  0
  4  3  1  0
  5  3  2  0
  6  4  2  0
  7  6  1  0
  8 15  2  0
  9 14  1  0
 10 11  1  0
 10  9  1  0
 12 11  1  0
 12 19  1  0
 12 13  1  0
 14  8  1  0
 14 13  1  0
 16 17  2  0
 17 36  1  0
 18 17  1  0
 18 21  1  0
 19 16  1  0
 19 20  1  0
 20 18  2  0
 21 22  1  0
 22 23  2  0
 24 27  1  0
 24 23  1  0
 25 24  2  0
 26 25  1  0
 26 21  2  0
 27 28  1  0
 28 29  1  0
 29 30  2  0
 31 30  1  0
 31 35  1  0
 32 31  2  0
 33 28  2  0
 33 32  1  0
 34 33  1  0
 36 37  1  0
 37 40  1  0
 37 39  1  0
 38 36  2  0
 41 42  1  0
 41 16  1  0
 43 41  1  0
 45 47  1  0
 46 57  2  0
 47 52  1  0
 48 56  1  0
 48 58  1  0
 49 55  1  0
 49 51  1  0
 50 56  1  0
 51 50  1  0
 52 51  2  0
 53 47  2  0
 54 53  1  0
 54 49  2  0
 55 48  1  0
 56 46  1  0
 58 60  2  0
 59 58  1  0
 61 59  1  0
 62 71  2  0
 62 67  1  0
 63 59  1  0
 63 67  1  0
 64 63  1  0
 65 66  1  0
 65 64  1  0
 66 62  1  0
 67 68  2  0
 68 69  1  0
 70 69  2  0
 71 70  1  0
 72 46  1  0
 72 73  1  0
 72 82  1  0
 73 76  1  0
 74 78  1  0
 74 73  1  0
 75 74  2  0
 78 77  1  0
 80 78  1  0
 80 81  1  0
 80 79  1  0
 82 85  1  1
 82 83  1  0
 84 82  1  0
M  ISO  4   4 100   8 100  44 101  45 101
M  END
>  <TORSDO>  (81) 
F 17

>  <SCORE>  (81) 
-16.230

>  <name>  (81) 
80

>  <ligand_id>  (81) 
80

>  <original_smiles>  (81) 
[H]c1c([H])c([H])c2c(c1[H])C([H])([H])C([H])([H])C([H])([H])C2([H])N([H])C(=O)C1([H])N(C(=O)C([H])(N([H])C(=O)C([H])(N([H])C([H])([H])[H])C([H])([H])[H])C(C([H])([H])[H])(C([H])([H])[H])C([H])([H])[H])C([H])([H])c2c([H])c(OC([H])([H])c3c([H])c([H])c(C([H])([H])[H])c(C(=O)N4C([H])([H])C([H])([H])C([H])([H])C([H])(n5nc(-c6c([H])c([H])c(Oc7c([H])c([H])c(F)c([H])c7F)c([H])c6[H])c(C(=O)N([H])[H])c5N([H])[H])C4([H])[H])c3[H])c([H])c([H])c2C1([H])[H]

>  <smiles>  (81) 
[H]c1c([H])c([H])c2c(c1[H])C([H])([H])C([H])([H])C([H])([H])C2([H])N([H])C(=O)C1([H])N(C(=O)C([H])(N([H])C(=O)C([H])(N([H])C([H])([H])[H])C([H])([H])[H])C(C([H])([H])[H])(C([H])([H])[H])C([H])([H])[H])C([H])([H])c2c([H])c(OC([H])([H])c3c([H])c([H])c(C([H])([H])[H])c(C(=O)N4C([H])([H])C([H])([H])C([H])([H])C([H])(n5nc(-c6c([H])c([H])c(Oc7c([H])c([H])c(F)c([H])c7F)c([H])c6[H])c(C(=O)N([H])[H])c5N([H])[H])C4([H])[H])c3[H])c([H])c([H])c2C1([H])[H]

$$$$
81:0:0
     RDKit          3D

 93101  0  0  1  0  0  0  0  0999 V2000
  -27.4660  -23.2280   19.0730 C   0  0  0  0  0  2  0  0  0  0  0  0
  -29.5450  -22.2470   18.3210 C   0  0  0  0  0  2  0  0  0  0  0  0
  -28.4760  -23.4240   20.1990 C   0  0  0  0  0  3  0  0  0  0  0  0
  -28.3050  -23.0090   17.8080 C   0  0  2  0  0  0  0  0  0  0  0  0
  -28.7280  -24.3450   17.1670 C   0  0  0  0  0  1  0  0  0  0  0  0
  -27.5160  -22.1870   16.7710 C   0  0  0  0  0  1  0  0  0  0  0  0
  -29.6430  -22.4400   19.7900 N   0  0  1  0  0  4  0  0  0  0  0  0
  -30.4510  -23.0420   19.8790 H   0  0  0  0  0  0  0  0  0  0  0  0
  -28.6720  -25.0610   20.5980 C   0  0  0  0  0  2  0  0  0  0  0  0
  -28.4900  -26.4030   19.8420 O   0  0  0  0  0  0  0  0  0  0  0  0
  -24.6330  -31.7690   23.1720 C   0  0  0  0  0  0  0  0  0  0  0  0
  -27.3680  -27.2940   19.9520 C   0  0  0  0  0  0  0  0  0  0  0  0
  -23.4850  -30.4260   21.4530 C   0  0  0  0  0  3  0  0  0  0  0  0
  -24.9870  -28.9570   19.9800 C   0  0  0  0  0  0  0  0  0  0  0  0
  -26.0320  -30.7700   21.3290 C   0  0  0  0  0  2  0  0  0  0  0  0
  -26.1490  -29.4130   20.6180 C   0  0  0  0  0  0  0  0  0  0  0  0
  -27.3420  -28.5990   20.5840 C   0  0  0  0  0  3  0  0  0  0  0  0
  -26.1780  -26.9360   19.2900 C   0  0  0  0  0  3  0  0  0  0  0  0
  -25.0120  -27.7300   19.3060 C   0  0  0  0  0  3  0  0  0  0  0  0
  -23.7380  -29.8190   20.0490 C   0  0  0  0  0  2  0  0  0  0  0  0
  -24.7360  -31.0080   22.0410 N   0  0  0  0  0  0  0  0  0  0  0  0
  -23.5350  -32.0000   23.7000 O   0  0  0  0  0  0  0  0  0  0  0  0
  -22.8230  -29.3550   22.3560 C   0  0  0  0  0  0  0  0  0  0  0  0
  -21.4990  -29.1710   22.2160 N   0  0  0  0  0  0  0  0  0  0  0  0
  -23.5050  -28.6950   23.1420 O   0  0  0  0  0  0  0  0  0  0  0  0
  -21.0040  -29.7580   21.5590 H   0  0  0  0  0  0  0  0  0  0  0  0
  -18.1400  -27.8790   22.6270 C   0  0  0  0  0  0  0  0  0  0  0  0
  -20.6910  -28.1790   22.9310 C   0  0  0  0  0  3  0  0  0  0  0  0
  -20.8270  -26.7800   22.2840 C   0  0  0  0  0  2  0  0  0  0  0  0
  -19.7400  -26.4860   21.2460 C   0  0  0  0  0  2  0  0  0  0  0  0
  -18.3500  -26.5700   21.8850 C   0  0  0  0  0  2  0  0  0  0  0  0
  -19.2390  -28.6440   23.1040 C   0  0  0  0  0  0  0  0  0  0  0  0
  -18.9880  -29.8690   23.7580 C   0  0  0  0  0  3  0  0  0  0  0  0
  -17.6720  -30.3310   23.9400 C   0  0  0  0  0  3  0  0  0  0  0  0
  -16.5880  -29.5650   23.4790 C   0  0  0  0  0  3  0  0  0  0  0  0
  -16.8220  -28.3400   22.8280 C   0  0  0  0  0  3  0  0  0  0  0  0
  -25.8890  -32.4020   23.8450 C   0  0  0  0  0  3  0  0  0  0  0  0
  -25.5480  -33.7840   24.2150 N   0  0  0  0  0  0  0  0  0  0  0  0
  -25.9080  -34.8730   23.5200 C   0  0  0  0  0  0  0  0  0  0  0  0
  -26.6260  -34.8170   22.5170 O   0  0  0  0  0  0  0  0  0  0  0  0
  -24.9130  -33.9030   24.9910 H   0  0  0  0  0  0  0  0  0  0  0  0
  -24.1900  -36.6760   23.1560 C   0  0  0  0  0  1  0  0  0  0  0  0
  -25.3900  -36.2380   24.0120 C   0  0  0  0  0  3  0  0  0  0  0  0
  -27.4730  -37.0920   24.9950 C   0  0  0  0  0  1  0  0  0  0  0  0
  -26.4220  -37.2980   24.0010 N   0  0  0  0  0  0  0  0  0  0  0  0
  -26.0020  -38.2100   24.1660 H   0  0  0  0  0  0  0  0  0  0  0  0
  -26.3840  -31.5990   25.1100 C   0  0  1  0  0  0  0  0  0  0  0  0
  -25.2710  -31.3280   26.1510 C   0  0  0  0  0  1  0  0  0  0  0  0
  -26.9810  -30.2330   24.6970 C   0  0  0  0  0  1  0  0  0  0  0  0
  -27.5180  -32.3800   25.8150 C   0  0  0  0  0  1  0  0  0  0  0  0
  -30.1740  -21.1370   20.5440 C   0  0  0  0  0  3  0  0  0  0  0  0
  -29.8200  -20.7120   23.0900 C   0  0  0  0  0  1  0  0  0  0  0  0
  -32.1060  -21.3480   22.2290 C   0  0  0  0  0  1  0  0  0  0  0  0
  -30.5890  -21.4860   22.0070 C   0  0  0  0  0  3  0  0  0  0  0  0
  -29.6580  -19.5370   20.3330 C   0  0  0  0  0  2  0  0  0  0  0  0
  -30.6090  -18.1670   20.5600 C   0  0  0  0  0  3  0  0  0  0  0  0
  -30.0640  -16.5820   20.5660 C   0  0  0  0  0  3  0  0  0  0  0  0
  -30.9520  -15.1950   20.3770 C   0  0  0  0  0  0  0  0  0  0  0  0
  -30.8270  -12.8660   19.3860 C   0  0  0  0  0  2  0  0  0  0  0  0
  -29.8810  -12.9040   18.1590 C   0  0  0  0  0  2  0  0  0  0  0  0
  -28.4090  -12.7300   18.5840 C   0  0  0  0  0  2  0  0  0  0  0  0
  -28.0360  -13.6110   19.8030 C   0  0  0  0  0  3  0  0  0  0  0  0
  -29.0970  -13.5330   20.9200 C   0  0  0  0  0  2  0  0  0  0  0  0
  -30.3850  -13.9250   20.3360 N   0  0  0  0  0  0  0  0  0  0  0  0
  -32.1460  -15.2870   20.0700 O   0  0  0  0  0  0  0  0  0  0  0  0
  -25.6690  -14.2250   20.5710 C   0  0  0  0  0  0  0  0  0  0  0  0
  -24.5900  -13.4670   20.9280 C   0  0  0  0  0  0  0  0  0  0  0  0
  -25.0250  -12.1060   20.8600 C   0  0  0  0  0  0  0  0  0  0  0  0
  -26.6910  -13.3320   20.2990 N   0  0  0  0  0  0  0  0  0  0  0  0
  -26.3120  -12.0490   20.5380 N   0  0  0  0  0  0  0  0  0  0  0  0
  -24.2720  -10.8560   21.0290 C   0  0  0  0  0  0  0  0  0  0  0  0
  -24.6830   -9.8620   21.9440 C   0  0  0  0  0  3  0  0  0  0  0  0
  -23.9320   -8.6760   22.0980 C   0  0  0  0  0  3  0  0  0  0  0  0
  -22.7540   -8.4770   21.3390 C   0  0  0  0  0  0  0  0  0  0  0  0
  -22.3640   -9.4590   20.4110 C   0  0  0  0  0  3  0  0  0  0  0  0
  -23.1160  -10.6350   20.2530 C   0  0  0  0  0  3  0  0  0  0  0  0
  -21.9760   -7.3460   21.4020 O   0  0  0  0  0  0  0  0  0  0  0  0
  -21.8760   -6.6080   22.5560 C   0  0  0  0  0  0  0  0  0  0  0  0
  -21.4320   -7.1770   23.7690 C   0  0  0  0  0  3  0  0  0  0  0  0
  -21.2760   -6.3660   24.9110 C   0  0  0  0  0  3  0  0  0  0  0  0
  -21.5560   -4.9880   24.8410 C   0  0  0  0  0  0  0  0  0  0  0  0
  -21.9940   -4.4190   23.6330 C   0  0  0  0  0  3  0  0  0  0  0  0
  -22.1510   -5.2270   22.4930 C   0  0  0  0  0  0  0  0  0  0  0  0
  -22.5540   -4.6700   21.3250 F   0  0  0  0  0  0  0  0  0  0  0  0
  -21.3990   -4.2080   25.9350 F   0  0  0  0  0  0  0  0  0  0  0  0
  -23.2060  -13.9650   21.2230 C   0  0  0  0  0  0  0  0  0  0  0  0
  -22.4840  -13.2800   22.1010 N   0  0  0  0  0  0  0  0  0  0  0  0
  -22.7760  -14.9990   20.7100 O   0  0  0  0  0  0  0  0  0  0  0  0
  -22.8500  -12.4470   22.5380 H   0  0  0  0  0  0  0  0  0  0  0  0
  -21.5540  -13.5900   22.3440 H   0  0  0  0  0  0  0  0  0  0  0  0
  -25.8620  -15.5970   20.4290 N   0  0  0  0  0  0  0  0  0  0  0  0
  -25.1110  -16.2650   20.5660 H   0  0  0  0  0  0  0  0  0  0  0  0
  -26.7230  -16.0260   20.1160 H   0  0  0  0  0  0  0  0  0  0  0  0
  1  3  1  0
  2  7  1  0
  3  9  1  0
  4  2  1  0
  4  1  1  0
  4  5  1  6
  6  4  1  0
  7  8  1  6
  7  3  1  0
  7 51  1  0
 10 12  1  0
 10  9  1  0
 11 22  2  0
 12 17  1  0
 13 21  1  0
 13 23  1  0
 14 20  1  0
 14 16  1  0
 15 21  1  0
 16 15  1  0
 17 16  2  0
 18 19  1  0
 18 12  2  0
 19 14  2  0
 20 13  1  0
 21 11  1  0
 23 25  2  0
 24 23  1  0
 26 24  1  0
 27 36  2  0
 27 32  1  0
 28 24  1  0
 28 32  1  0
 29 28  1  0
 30 31  1  0
 30 29  1  0
 31 27  1  0
 32 33  2  0
 33 34  1  0
 35 34  2  0
 36 35  1  0
 37 11  1  0
 37 38  1  0
 37 47  1  0
 38 41  1  0
 39 43  1  0
 39 38  1  0
 40 39  2  0
 43 42  1  0
 45 43  1  0
 45 46  1  0
 45 44  1  0
 47 50  1  1
 47 48  1  0
 49 47  1  0
 51 55  1  0
 51 54  1  0
 54 53  1  0
 54 52  1  0
 55 56  1  0
 56 57  2  0
 58 57  1  0
 59 64  1  0
 60 61  1  0
 60 59  1  0
 62 61  1  0
 62 69  1  0
 62 63  1  0
 64 58  1  0
 64 63  1  0
 65 58  2  0
 66 67  2  0
 67 86  1  0
 68 67  1  0
 68 71  1  0
 69 70  1  0
 69 66  1  0
 70 68  2  0
 71 72  1  0
 72 73  2  0
 74 77  1  0
 74 73  1  0
 75 74  2  0
 76 75  1  0
 76 71  2  0
 77 78  1  0
 78 79  1  0
 79 80  2  0
 81 80  1  0
 81 85  1  0
 82 81  2  0
 83 78  2  0
 83 82  1  0
 84 83  1  0
 86 87  1  0
 87 90  1  0
 87 89  1  0
 88 86  2  0
 91 92  1  0
 91 66  1  0
 93 91  1  0
M  ISO  4   9 101  10 101  57 100  58 100
M  END
>  <TORSDO>  (82) 
F 22

>  <SCORE>  (82) 
-12.225

>  <name>  (82) 
81

>  <ligand_id>  (82) 
81

>  <original_smiles>  (82) 
[H]c1c([H])c([H])c2c(c1[H])C([H])([H])C([H])([H])C([H])([H])C2([H])N([H])C(=O)C1([H])N(C(=O)C([H])(N([H])C(=O)C([H])(N([H])C([H])([H])[H])C([H])([H])[H])C(C([H])([H])[H])(C([H])([H])[H])C([H])([H])[H])C([H])([H])c2c([H])c(OC([H])([H])C3([H])C([H])([H])C(C([H])([H])[H])(C([H])([H])[H])C([H])([H])[N+]3([H])C([H])(C([H])([H])C([H])([H])C([H])([H])C(=O)N3C([H])([H])C([H])([H])C([H])([H])C([H])(n4nc(-c5c([H])c([H])c(Oc6c([H])c([H])c(F)c([H])c6F)c([H])c5[H])c(C(=O)N([H])[H])c4N([H])[H])C3([H])[H])C([H])(C([H])([H])[H])C([H])([H])[H])c([H])c([H])c2C1([H])[H]

>  <smiles>  (82) 
[H]c1c([H])c([H])c2c(c1[H])C([H])([H])C([H])([H])C([H])([H])C2([H])N([H])C(=O)C1([H])N(C(=O)C([H])(N([H])C(=O)C([H])(N([H])C([H])([H])[H])C([H])([H])[H])C(C([H])([H])[H])(C([H])([H])[H])C([H])([H])[H])C([H])([H])c2c([H])c(OC([H])([H])C3([H])C([H])([H])C(C([H])([H])[H])(C([H])([H])[H])C([H])([H])[N+]3([H])C([H])(C([H])([H])C([H])([H])C([H])([H])C(=O)N3C([H])([H])C([H])([H])C([H])([H])C([H])(n4nc(-c5c([H])c([H])c(Oc6c([H])c([H])c(F)c([H])c6F)c([H])c5[H])c(C(=O)N([H])[H])c4N([H])[H])C3([H])[H])C([H])(C([H])([H])[H])C([H])([H])[H])c([H])c([H])c2C1([H])[H]

$$$$
82:0:0
     RDKit          3D

 87 90  0  0  1  0  0  0  0  0999 V2000
  -27.6560  -21.3790   18.9280 C   0  0  0  0  0  3  0  0  0  0  0  0
  -28.7000  -21.5770   19.7500 C   0  0  0  0  0  3  0  0  0  0  0  0
  -30.6890  -20.2090   21.0750 C   0  0  0  0  0  2  0  0  0  0  0  0
  -31.4240  -18.9980   21.6840 C   0  0  0  0  0  2  0  0  0  0  0  0
  -29.2040  -17.7380   21.5760 C   0  0  0  0  0  2  0  0  0  0  0  0
  -29.6800  -19.8720   19.9540 C   0  0  0  0  0  1  0  0  0  0  0  0
  -29.4790  -17.7990   20.0560 C   0  0  0  0  0  1  0  0  0  0  0  0
  -30.4800  -18.0190   22.4190 C   0  0  0  0  0  3  0  0  0  0  0  0
  -31.2420  -16.7600   22.8810 C   0  0  0  0  0  1  0  0  0  0  0  0
  -30.3120  -16.0020   19.7730 C   0  0  0  0  0  2  0  0  0  0  0  0
  -30.4430  -13.3860   18.9110 C   0  0  0  0  0  2  0  0  0  0  0  0
  -29.4730  -12.9080   17.7770 C   0  0  0  0  0  2  0  0  0  0  0  0
  -28.1060  -12.4900   18.3330 C   0  0  0  0  0  2  0  0  0  0  0  0
  -27.6620  -13.4780   19.4280 C   0  0  0  0  0  3  0  0  0  0  0  0
  -28.7650  -13.8450   20.4520 C   0  0  0  0  0  2  0  0  0  0  0  0
  -29.8540  -14.5700   19.7330 N   0  0  0  0  0  0  0  0  0  0  0  0
  -31.5190  -15.8980   19.4570 O   0  0  0  0  0  1  0  0  0  0  0  0
  -25.3940  -13.9920   20.4190 C   0  0  0  0  0  0  0  0  0  0  0  0
  -24.3570  -13.2120   20.8480 C   0  0  0  0  0  0  0  0  0  0  0  0
  -24.8010  -11.8600   20.7260 C   0  0  0  0  0  0  0  0  0  0  0  0
  -26.3970  -13.1190   20.0520 N   0  0  0  0  0  0  0  0  0  0  0  0
  -26.0620  -11.8240   20.2970 N   0  0  0  0  0  0  0  0  0  0  0  0
  -24.0690  -10.6010   20.9340 C   0  0  0  0  0  0  0  0  0  0  0  0
  -24.5200   -9.6230   21.8470 C   0  0  0  0  0  3  0  0  0  0  0  0
  -23.7840   -8.4330   22.0440 C   0  0  0  0  0  3  0  0  0  0  0  0
  -22.5800   -8.2170   21.3310 C   0  0  0  0  0  0  0  0  0  0  0  0
  -22.1470   -9.1830   20.4060 C   0  0  0  0  0  3  0  0  0  0  0  0
  -22.8850  -10.3620   20.2070 C   0  0  0  0  0  3  0  0  0  0  0  0
  -21.8090   -7.0830   21.4420 O   0  0  0  0  0  0  0  0  0  0  0  0
  -21.7350   -6.3750   22.6110 C   0  0  0  0  0  0  0  0  0  0  0  0
  -21.3130   -6.9700   23.8210 C   0  0  0  0  0  3  0  0  0  0  0  0
  -21.1880   -6.1870   24.9840 C   0  0  0  0  0  3  0  0  0  0  0  0
  -21.4710   -4.8070   24.9400 C   0  0  0  0  0  0  0  0  0  0  0  0
  -21.8870   -4.2120   23.7360 C   0  0  0  0  0  3  0  0  0  0  0  0
  -22.0150   -4.9930   22.5760 C   0  0  0  0  0  0  0  0  0  0  0  0
  -22.3950   -4.4100   21.4130 F   0  0  0  0  0  0  0  0  0  0  0  0
  -21.3420   -4.0530   26.0560 F   0  0  0  0  0  0  0  0  0  0  0  0
  -22.9980  -13.7010   21.2490 C   0  0  0  0  0  0  0  0  0  0  0  0
  -22.3490  -13.0020   22.1740 N   0  0  0  0  0  0  0  0  0  0  0  0
  -22.5260  -14.7340   20.7780 O   0  0  0  0  0  0  0  0  0  0  0  0
  -22.7520  -12.1670   22.5710 H   0  0  0  0  0  0  0  0  0  0  0  0
  -21.4400  -13.3060   22.4920 H   0  0  0  0  0  0  0  0  0  0  0  0
  -25.5660  -15.3660   20.2800 N   0  0  0  0  0  0  0  0  0  0  0  0
  -24.8300  -16.0330   20.4860 H   0  0  0  0  0  0  0  0  0  0  0  0
  -26.3960  -15.8000   19.8980 H   0  0  0  0  0  0  0  0  0  0  0  0
  -28.6820  -23.4580   20.3380 C   0  0  0  0  0 15  0  0  0  0  0  0
  -28.4050  -25.2510   19.8580 O   0  0  0  0  0  1  0  0  0  0  0  0
  -24.6580  -31.6120   23.0020 C   0  0  0  0  0  0  0  0  0  0  0  0
  -27.3890  -26.5020   19.9840 C   0  0  0  0  0  0  0  0  0  0  0  0
  -23.5470  -30.1980   21.3350 C   0  0  0  0  0  3  0  0  0  0  0  0
  -25.0670  -28.5870   19.9290 C   0  0  0  0  0  0  0  0  0  0  0  0
  -26.1310  -30.3780   21.2630 C   0  0  0  0  0  2  0  0  0  0  0  0
  -26.2500  -28.9350   20.5890 C   0  0  0  0  0  0  0  0  0  0  0  0
  -27.3920  -27.9370   20.5650 C   0  0  0  0  0  3  0  0  0  0  0  0
  -26.1580  -26.4200   19.2720 C   0  0  0  0  0  3  0  0  0  0  0  0
  -25.0720  -27.3600   19.2440 C   0  0  0  0  0  3  0  0  0  0  0  0
  -23.8360  -29.5200   19.9620 C   0  0  0  0  0  2  0  0  0  0  0  0
  -24.8040  -30.7680   21.9170 N   0  0  0  0  0  0  0  0  0  0  0  0
  -23.5460  -31.8710   23.4960 O   0  0  0  0  0  0  0  0  0  0  0  0
  -22.8350  -29.1940   22.2850 C   0  0  0  0  0  0  0  0  0  0  0  0
  -21.5020  -29.0310   22.1640 N   0  0  0  0  0  0  0  0  0  0  0  0
  -23.4980  -28.5600   23.1080 O   0  0  0  0  0  0  0  0  0  0  0  0
  -21.0120  -29.5940   21.4840 H   0  0  0  0  0  0  0  0  0  0  0  0
  -18.1340  -27.7610   22.6830 C   0  0  0  0  0  0  0  0  0  0  0  0
  -20.6940  -28.0580   22.9120 C   0  0  0  0  0  3  0  0  0  0  0  0
  -20.8050  -26.6490   22.2850 C   0  0  0  0  0  2  0  0  0  0  0  0
  -19.6940  -26.3500   21.2740 C   0  0  0  0  0  2  0  0  0  0  0  0
  -18.3190  -26.4450   21.9450 C   0  0  0  0  0  2  0  0  0  0  0  0
  -19.2460  -28.5280   23.1220 C   0  0  0  0  0  0  0  0  0  0  0  0
  -19.0150  -29.7550   23.7780 C   0  0  0  0  0  3  0  0  0  0  0  0
  -17.7050  -30.2200   23.9960 C   0  0  0  0  0  3  0  0  0  0  0  0
  -16.6060  -29.4530   23.5680 C   0  0  0  0  0  3  0  0  0  0  0  0
  -16.8220  -28.2250   22.9180 C   0  0  0  0  0  3  0  0  0  0  0  0
  -25.8810  -32.3040   23.6770 C   0  0  0  0  0  3  0  0  0  0  0  0
  -25.4910  -33.6820   24.0420 N   0  0  0  0  0  0  0  0  0  0  0  0
  -25.7810  -34.7850   23.3380 C   0  0  0  0  0  0  0  0  0  0  0  0
  -26.4540  -34.7520   22.3060 O   0  0  0  0  0  0  0  0  0  0  0  0
  -24.8810  -33.7760   24.8400 H   0  0  0  0  0  0  0  0  0  0  0  0
  -23.9710  -36.5280   23.0850 C   0  0  0  0  0  1  0  0  0  0  0  0
  -25.2430  -36.1370   23.8560 C   0  0  0  0  0  3  0  0  0  0  0  0
  -27.3480  -37.0980   24.6860 C   0  0  0  0  0  1  0  0  0  0  0  0
  -26.2250  -37.2410   23.7650 N   0  0  0  0  0  0  0  0  0  0  0  0
  -25.7780  -38.1350   23.9490 H   0  0  0  0  0  0  0  0  0  0  0  0
  -26.3870  -31.5400   24.9660 C   0  0  1  0  0  0  0  0  0  0  0  0
  -25.2750  -31.2660   26.0060 C   0  0  0  0  0  1  0  0  0  0  0  0
  -27.0210  -30.1820   24.5950 C   0  0  0  0  0  1  0  0  0  0  0  0
  -27.4930  -32.3670   25.6630 C   0  0  0  0  0  1  0  0  0  0  0  0
  1  2  3  0
  3  4  1  0
  4  8  1  0
  5  8  1  0
  6  3  1  0
  7  5  1  0
  8  9  1  0
 11 16  1  0
 12 13  1  0
 12 11  1  0
 14 13  1  0
 14 21  1  0
 14 15  1  0
 16 10  1  0
 16 15  1  0
 17 10  1  0
 18 19  2  0
 19 38  1  0
 20 19  1  0
 20 23  1  0
 21 22  1  0
 21 18  1  0
 22 20  2  0
 23 24  1  0
 24 25  2  0
 26 29  1  0
 26 25  1  0
 27 26  2  0
 28 27  1  0
 28 23  2  0
 29 30  1  0
 30 31  1  0
 31 32  2  0
 33 32  1  0
 33 37  1  0
 34 33  2  0
 35 30  2  0
 35 34  1  0
 36 35  1  0
 38 39  1  0
 39 42  1  0
 39 41  1  0
 40 38  2  0
 43 18  1  0
 43 44  1  0
 45 43  1  0
 47 49  1  0
 48 59  2  0
 49 54  1  0
 50 58  1  0
 50 60  1  0
 51 57  1  0
 51 53  1  0
 52 58  1  0
 53 52  1  0
 54 53  2  0
 55 49  2  0
 56 55  1  0
 56 51  2  0
 57 50  1  0
 58 48  1  0
 60 62  2  0
 61 60  1  0
 63 61  1  0
 64 73  2  0
 64 69  1  0
 65 61  1  0
 65 69  1  0
 66 65  1  0
 67 68  1  0
 67 66  1  0
 68 64  1  0
 69 70  2  0
 70 71  1  0
 72 71  2  0
 73 72  1  0
 74 48  1  0
 74 75  1  0
 74 84  1  0
 75 78  1  0
 76 80  1  0
 76 75  1  0
 77 76  2  0
 80 79  1  0
 82 80  1  0
 82 83  1  0
 82 81  1  0
 84 87  1  1
 84 85  1  0
 86 84  1  0
M  ISO  4   7 100  10 100  46 101  47 101
M  END
>  <TORSDO>  (83) 
F 18

>  <SCORE>  (83) 
-14.567

>  <name>  (83) 
82

>  <ligand_id>  (83) 
82

>  <original_smiles>  (83) 
[H]C([H])=C(C([H])([H])Oc1c([H])c([H])c2c(c1[H])C([H])([H])N(C(=O)C([H])(N([H])C(=O)C([H])(N([H])C([H])([H])[H])C([H])([H])[H])C(C([H])([H])[H])(C([H])([H])[H])C([H])([H])[H])C([H])(C(=O)N([H])C1([H])c3c([H])c([H])c([H])c([H])c3C([H])([H])C([H])([H])C1([H])[H])C2([H])[H])C1([H])C([H])([H])C([H])([H])C([H])(C([H])([H])[H])C([H])([H])C1([H])C(=O)N1C([H])([H])C([H])([H])C([H])([H])C([H])(n2nc(-c3c([H])c([H])c(Oc4c([H])c([H])c(F)c([H])c4F)c([H])c3[H])c(C(=O)N([H])[H])c2N([H])[H])C1([H])[H]

>  <smiles>  (83) 
[H]C([H])=C(C([H])([H])Oc1c([H])c([H])c2c(c1[H])C([H])([H])N(C(=O)C([H])(N([H])C(=O)C([H])(N([H])C([H])([H])[H])C([H])([H])[H])C(C([H])([H])[H])(C([H])([H])[H])C([H])([H])[H])C([H])(C(=O)N([H])C1([H])c3c([H])c([H])c([H])c([H])c3C([H])([H])C([H])([H])C1([H])[H])C2([H])[H])C1([H])C([H])([H])C([H])([H])C([H])(C([H])([H])[H])C([H])([H])C1([H])C(=O)N1C([H])([H])C([H])([H])C([H])([H])C([H])(n2nc(-c3c([H])c([H])c(Oc4c([H])c([H])c(F)c([H])c4F)c([H])c3[H])c(C(=O)N([H])[H])c2N([H])[H])C1([H])[H]

$$$$
83:0:0
     RDKit          3D

 84 93  0  0  1  0  0  0  0  0999 V2000
  -30.2920  -21.7660   20.0930 C   0  0  0  0  0  2  0  0  0  0  0  0
  -29.9820  -20.2520   19.7090 C   0  0  0  0  0  3  0  0  0  0  0  0
  -28.5490  -20.5360   20.1460 C   0  0  0  0  0  3  0  0  0  0  0  0
  -28.8400  -22.3030   20.0060 C   0  0  0  0  0  3  0  0  0  0  0  0
  -29.4570  -19.0120   20.5220 C   0  0  0  0  0  3  0  0  0  0  0  0
  -29.3400  -17.1800   20.1130 C   0  0  0  0  0  2  0  0  0  0  0  0
  -30.2380  -15.5710   20.1510 C   0  0  0  0  0  0  0  0  0  0  0  0
  -30.3240  -13.0450   19.3400 C   0  0  0  0  0  2  0  0  0  0  0  0
  -29.3960  -12.7260   18.1310 C   0  0  0  0  0  2  0  0  0  0  0  0
  -27.9660  -12.4060   18.5970 C   0  0  0  0  0  2  0  0  0  0  0  0
  -27.4970  -13.3890   19.6950 C   0  0  0  0  0  3  0  0  0  0  0  0
  -28.5530  -13.6290   20.7930 C   0  0  0  0  0  2  0  0  0  0  0  0
  -29.7480  -14.2050   20.1440 N   0  0  0  0  0  0  0  0  0  0  0  0
  -31.4670  -15.5450   19.9570 O   0  0  0  0  0  0  0  0  0  0  0  0
  -25.1520  -13.9270   20.5210 C   0  0  0  0  0  0  0  0  0  0  0  0
  -24.1000  -13.1460   20.9040 C   0  0  0  0  0  0  0  0  0  0  0  0
  -24.5650  -11.7960   20.8480 C   0  0  0  0  0  0  0  0  0  0  0  0
  -26.1880  -13.0540   20.2390 N   0  0  0  0  0  0  0  0  0  0  0  0
  -25.8500  -11.7650   20.5040 N   0  0  0  0  0  0  0  0  0  0  0  0
  -23.8380  -10.5330   21.0410 C   0  0  0  0  0  0  0  0  0  0  0  0
  -24.2850   -9.5520   21.9530 C   0  0  0  0  0  3  0  0  0  0  0  0
  -23.5540   -8.3580   22.1360 C   0  0  0  0  0  3  0  0  0  0  0  0
  -22.3620   -8.1360   21.4070 C   0  0  0  0  0  0  0  0  0  0  0  0
  -21.9330   -9.1050   20.4830 C   0  0  0  0  0  3  0  0  0  0  0  0
  -22.6640  -10.2900   20.2990 C   0  0  0  0  0  3  0  0  0  0  0  0
  -21.6020   -6.9940   21.5000 O   0  0  0  0  0  0  0  0  0  0  0  0
  -21.5790   -6.2350   22.6430 C   0  0  0  0  0  0  0  0  0  0  0  0
  -21.1840   -6.7740   23.8860 C   0  0  0  0  0  3  0  0  0  0  0  0
  -21.1070   -5.9420   25.0220 C   0  0  0  0  0  3  0  0  0  0  0  0
  -21.4170   -4.5740   24.9140 C   0  0  0  0  0  0  0  0  0  0  0  0
  -21.8040   -4.0340   23.6750 C   0  0  0  0  0  3  0  0  0  0  0  0
  -21.8820   -4.8630   22.5420 C   0  0  0  0  0  0  0  0  0  0  0  0
  -22.2350   -4.3330   21.3460 F   0  0  0  0  0  0  0  0  0  0  0  0
  -21.3360   -3.7720   26.0020 F   0  0  0  0  0  0  0  0  0  0  0  0
  -22.7090  -13.6240   21.2060 C   0  0  0  0  0  0  0  0  0  0  0  0
  -21.9970  -12.9240   22.0810 N   0  0  0  0  0  0  0  0  0  0  0  0
  -22.2640  -14.6540   20.6990 O   0  0  0  0  0  0  0  0  0  0  0  0
  -22.3720  -12.0910   22.5120 H   0  0  0  0  0  0  0  0  0  0  0  0
  -21.0640  -13.2250   22.3250 H   0  0  0  0  0  0  0  0  0  0  0  0
  -25.3140  -15.3000   20.3580 N   0  0  0  0  0  0  0  0  0  0  0  0
  -24.5520  -15.9540   20.5020 H   0  0  0  0  0  0  0  0  0  0  0  0
  -26.1570  -15.7440   20.0190 H   0  0  0  0  0  0  0  0  0  0  0  0
  -28.0530  -23.9700   20.4980 C   0  0  0  0  0  2  0  0  0  0  0  0
  -28.2240  -25.6780   20.2800 O   0  0  0  0  0  0  0  0  0  0  0  0
  -24.6830  -31.8880   23.2040 C   0  0  0  0  0  0  0  0  0  0  0  0
  -27.2200  -26.8410   20.2690 C   0  0  0  0  0  0  0  0  0  0  0  0
  -23.4920  -30.4710   21.5850 C   0  0  0  0  0  3  0  0  0  0  0  0
  -24.9380  -28.8190   20.1920 C   0  0  0  0  0  0  0  0  0  0  0  0
  -26.0670  -30.6380   21.4480 C   0  0  0  0  0  2  0  0  0  0  0  0
  -26.1330  -29.2030   20.8110 C   0  0  0  0  0  0  0  0  0  0  0  0
  -27.2640  -28.2420   20.8140 C   0  0  0  0  0  3  0  0  0  0  0  0
  -25.9880  -26.6450   19.5990 C   0  0  0  0  0  3  0  0  0  0  0  0
  -24.8990  -27.5640   19.5630 C   0  0  0  0  0  3  0  0  0  0  0  0
  -23.7270  -29.7610   20.2210 C   0  0  0  0  0  2  0  0  0  0  0  0
  -24.7710  -31.0300   22.1310 N   0  0  0  0  0  0  0  0  0  0  0  0
  -23.5910  -32.1890   23.7160 O   0  0  0  0  0  0  0  0  0  0  0  0
  -22.7850  -29.4980   22.5670 C   0  0  0  0  0  0  0  0  0  0  0  0
  -21.4530  -29.3350   22.4430 N   0  0  0  0  0  0  0  0  0  0  0  0
  -23.4440  -28.8880   23.4120 O   0  0  0  0  0  0  0  0  0  0  0  0
  -20.9720  -29.8780   21.7390 H   0  0  0  0  0  0  0  0  0  0  0  0
  -18.0710  -28.1190   22.9660 C   0  0  0  0  0  0  0  0  0  0  0  0
  -20.6300  -28.4070   23.2260 C   0  0  0  0  0  3  0  0  0  0  0  0
  -20.7380  -26.9650   22.6740 C   0  0  0  0  0  2  0  0  0  0  0  0
  -19.6400  -26.6220   21.6630 C   0  0  0  0  0  2  0  0  0  0  0  0
  -18.2570  -26.7650   22.3040 C   0  0  0  0  0  2  0  0  0  0  0  0
  -19.1840  -28.8970   23.3840 C   0  0  0  0  0  0  0  0  0  0  0  0
  -18.9530  -30.1620   23.9680 C   0  0  0  0  0  3  0  0  0  0  0  0
  -17.6430  -30.6490   24.1340 C   0  0  0  0  0  3  0  0  0  0  0  0
  -16.5460  -29.8710   23.7290 C   0  0  0  0  0  3  0  0  0  0  0  0
  -16.7610  -28.6070   23.1510 C   0  0  0  0  0  3  0  0  0  0  0  0
  -25.9490  -32.5440   23.8330 C   0  0  0  0  0  3  0  0  0  0  0  0
  -25.6230  -33.9450   24.1630 N   0  0  0  0  0  0  0  0  0  0  0  0
  -25.9470  -35.0080   23.4130 C   0  0  0  0  0  0  0  0  0  0  0  0
  -26.6090  -34.9120   22.3770 O   0  0  0  0  0  0  0  0  0  0  0  0
  -25.0320  -34.0910   24.9670 H   0  0  0  0  0  0  0  0  0  0  0  0
  -24.2080  -36.8050   23.0960 C   0  0  0  0  0  1  0  0  0  0  0  0
  -25.4630  -36.3960   23.8860 C   0  0  0  0  0  3  0  0  0  0  0  0
  -27.6050  -37.2910   24.6910 C   0  0  0  0  0  1  0  0  0  0  0  0
  -26.4900  -37.4530   23.7610 N   0  0  0  0  0  0  0  0  0  0  0  0
  -26.0830  -38.3720   23.9130 H   0  0  0  0  0  0  0  0  0  0  0  0
  -26.4560  -31.7920   25.1280 C   0  0  1  0  0  0  0  0  0  0  0  0
  -25.3550  -31.5720   26.1930 C   0  0  0  0  0  1  0  0  0  0  0  0
  -27.0420  -30.4080   24.7720 C   0  0  0  0  0  1  0  0  0  0  0  0
  -27.6020  -32.5960   25.7850 C   0  0  0  0  0  1  0  0  0  0  0  0
  2  1  1  0
  2  3  1  0
  2  5  1  0
  3  5  1  0
  4  1  1  0
  4  3  1  0
  4 43  1  0
  6  7  1  0
  6  5  1  0
  8 13  1  0
  9 10  1  0
  9  8  1  0
 10 11  1  0
 11 18  1  0
 11 12  1  0
 13  7  1  0
 13 12  1  0
 14  7  2  0
 15 16  2  0
 16 35  1  0
 17 16  1  0
 17 20  1  0
 18 19  1  0
 18 15  1  0
 19 17  2  0
 20 21  1  0
 21 22  2  0
 23 26  1  0
 23 22  1  0
 24 23  2  0
 25 24  1  0
 25 20  2  0
 26 27  1  0
 27 28  1  0
 28 29  2  0
 30 29  1  0
 30 34  1  0
 31 30  2  0
 32 27  2  0
 32 31  1  0
 33 32  1  0
 35 36  1  0
 36 39  1  0
 36 38  1  0
 37 35  2  0
 40 41  1  0
 40 15  1  0
 42 40  1  0
 44 43  1  0
 45 56  2  0
 45 71  1  0
 46 44  1  0
 46 51  1  0
 47 55  1  0
 47 57  1  0
 48 54  1  0
 48 50  1  0
 49 55  1  0
 50 51  2  0
 50 49  1  0
 52 46  2  0
 53 52  1  0
 53 48  2  0
 54 47  1  0
 55 45  1  0
 57 59  2  0
 58 57  1  0
 58 62  1  0
 60 58  1  0
 61 70  2  0
 61 66  1  0
 62 66  1  0
 63 62  1  0
 64 65  1  0
 64 63  1  0
 65 61  1  0
 66 67  2  0
 67 68  1  0
 69 68  2  0
 70 69  1  0
 71 72  1  0
 71 81  1  0
 72 75  1  0
 73 77  1  0
 73 72  1  0
 74 73  2  0
 76 77  1  0
 79 77  1  0
 79 80  1  0
 79 78  1  0
 81 84  1  1
 81 82  1  0
 83 81  1  0
M  ISO  4   6 100   7 100  43 101  44 101
M  END
>  <TORSDO>  (84) 
F 18

>  <SCORE>  (84) 
-16.423

>  <name>  (84) 
83

>  <ligand_id>  (84) 
83

>  <original_smiles>  (84) 
[H]c1c([H])c([H])c2c(c1[H])C([H])([H])C([H])([H])C([H])([H])C2([H])N([H])C(=O)C1([H])N(C(=O)C([H])(N([H])C(=O)C([H])(N([H])C([H])([H])[H])C([H])([H])[H])C(C([H])([H])[H])(C([H])([H])[H])C([H])([H])[H])C([H])([H])c2c([H])c(OC([H])([H])C3([H])C([H])([H])C4([H])C([H])(C([H])([H])C(=O)N5C([H])([H])C([H])([H])C([H])([H])C([H])(n6nc(-c7c([H])c([H])c(Oc8c([H])c([H])c(F)c([H])c8F)c([H])c7[H])c(C(=O)N([H])[H])c6N([H])[H])C5([H])[H])C34[H])c([H])c([H])c2C1([H])[H]

>  <smiles>  (84) 
[H]c1c([H])c([H])c2c(c1[H])C([H])([H])C([H])([H])C([H])([H])C2([H])N([H])C(=O)C1([H])N(C(=O)C([H])(N([H])C(=O)C([H])(N([H])C([H])([H])[H])C([H])([H])[H])C(C([H])([H])[H])(C([H])([H])[H])C([H])([H])[H])C([H])([H])c2c([H])c(OC([H])([H])C3([H])C([H])([H])C4([H])C([H])(C([H])([H])C(=O)N5C([H])([H])C([H])([H])C([H])([H])C([H])(n6nc(-c7c([H])c([H])c(Oc8c([H])c([H])c(F)c([H])c8F)c([H])c7[H])c(C(=O)N([H])[H])c6N([H])[H])C5([H])[H])C34[H])c([H])c([H])c2C1([H])[H]

$$$$
84:0:0
     RDKit          3D

 92101  0  0  1  0  0  0  0  0999 V2000
  -29.4140  -21.4740   20.5520 C   0  0  0  0  0  3  0  0  0  0  0  0
  -29.2400  -20.6460   23.1080 C   0  0  0  0  0  2  0  0  0  0  0  0
  -30.6790  -20.3310   23.4640 C   0  0  0  0  0  3  0  0  0  0  0  0
  -31.1550  -21.3300   22.4330 C   0  0  0  0  0  3  0  0  0  0  0  0
  -29.7170  -21.6530   22.0550 C   0  0  0  0  0  3  0  0  0  0  0  0
  -31.6970  -21.3870   23.8500 C   0  0  1  0  0  0  0  0  0  0  0  0
  -31.3150  -22.5310   24.7740 C   0  0  0  0  0  1  0  0  0  0  0  0
  -33.1340  -20.9680   24.1030 C   0  0  0  0  0  1  0  0  0  0  0  0
  -29.1730  -19.8610   20.2710 N   0  0  0  0  0  4  0  0  0  0  0  0
  -29.7000  -20.0980   19.4450 H   0  0  0  0  0  0  0  0  0  0  0  0
  -29.5180  -19.8350   21.2170 H   0  0  0  0  0  0  0  0  0  0  0  0
  -30.0810  -18.4790   20.1700 C   0  0  0  0  0  3  0  0  0  0  0  0
  -29.6460  -16.7830   20.4290 C   0  0  0  0  0  3  0  0  0  0  0  0
  -30.5140  -15.2990   20.1960 C   0  0  0  0  0  0  0  0  0  0  0  0
  -30.4800  -12.8910   19.2580 C   0  0  0  0  0  2  0  0  0  0  0  0
  -29.5410  -12.7870   18.0270 C   0  0  0  0  0  2  0  0  0  0  0  0
  -28.0850  -12.5390   18.4670 C   0  0  0  0  0  2  0  0  0  0  0  0
  -27.6680  -13.4630   19.6370 C   0  0  0  0  0  3  0  0  0  0  0  0
  -28.7250  -13.5170   20.7570 C   0  0  0  0  0  2  0  0  0  0  0  0
  -29.9790  -13.9900   20.1530 N   0  0  0  0  0  0  0  0  0  0  0  0
  -31.7200  -15.3370   19.9100 O   0  0  0  0  0  0  0  0  0  0  0  0
  -25.2940  -14.0290   20.3880 C   0  0  0  0  0  0  0  0  0  0  0  0
  -24.2350  -13.2540   20.7660 C   0  0  0  0  0  0  0  0  0  0  0  0
  -24.7040  -11.9040   20.7460 C   0  0  0  0  0  0  0  0  0  0  0  0
  -26.3380  -13.1530   20.1480 N   0  0  0  0  0  0  0  0  0  0  0  0
  -25.9940  -11.8690   20.4320 N   0  0  0  0  0  0  0  0  0  0  0  0
  -23.9810  -10.6410   20.9500 C   0  0  0  0  0  0  0  0  0  0  0  0
  -24.4130   -9.6850   21.8950 C   0  0  0  0  0  3  0  0  0  0  0  0
  -23.6870   -8.4900   22.0870 C   0  0  0  0  0  3  0  0  0  0  0  0
  -22.5150   -8.2410   21.3320 C   0  0  0  0  0  0  0  0  0  0  0  0
  -22.1030   -9.1860   20.3770 C   0  0  0  0  0  3  0  0  0  0  0  0
  -22.8290  -10.3740   20.1830 C   0  0  0  0  0  3  0  0  0  0  0  0
  -21.7610   -7.0960   21.4320 O   0  0  0  0  0  0  0  0  0  0  0  0
  -21.7000   -6.3750   22.5970 C   0  0  0  0  0  0  0  0  0  0  0  0
  -21.2720   -6.9540   23.8110 C   0  0  0  0  0  3  0  0  0  0  0  0
  -21.1570   -6.1590   24.9680 C   0  0  0  0  0  3  0  0  0  0  0  0
  -21.4600   -4.7860   24.9130 C   0  0  0  0  0  0  0  0  0  0  0  0
  -21.8800   -4.2050   23.7030 C   0  0  0  0  0  3  0  0  0  0  0  0
  -21.9970   -4.9970   22.5480 C   0  0  0  0  0  0  0  0  0  0  0  0
  -22.3810   -4.4290   21.3800 F   0  0  0  0  0  0  0  0  0  0  0  0
  -21.3420   -4.0190   26.0220 F   0  0  0  0  0  0  0  0  0  0  0  0
  -22.8370  -13.7290   21.0340 C   0  0  0  0  0  0  0  0  0  0  0  0
  -22.1180  -13.0500   21.9200 N   0  0  0  0  0  0  0  0  0  0  0  0
  -22.3910  -14.7390   20.4910 O   0  0  0  0  0  0  0  0  0  0  0  0
  -22.4920  -12.2330   22.3800 H   0  0  0  0  0  0  0  0  0  0  0  0
  -21.1790  -13.3520   22.1430 H   0  0  0  0  0  0  0  0  0  0  0  0
  -25.4550  -15.3990   20.1990 N   0  0  0  0  0  0  0  0  0  0  0  0
  -24.6870  -16.0530   20.3070 H   0  0  0  0  0  0  0  0  0  0  0  0
  -26.3020  -15.8360   19.8600 H   0  0  0  0  0  0  0  0  0  0  0  0
  -28.4900  -22.8850   19.9820 C   0  0  0  0  0  2  0  0  0  0  0  0
  -28.2470  -24.5150   20.6560 C   0  0  0  0  0  2  0  0  0  0  0  0
  -28.3580  -26.0500   20.1330 O   0  0  0  0  0  0  0  0  0  0  0  0
  -24.7260  -31.8350   23.2810 C   0  0  0  0  0  0  0  0  0  0  0  0
  -27.3160  -27.0950   20.1670 C   0  0  0  0  0  0  0  0  0  0  0  0
  -23.5500  -30.4940   21.5840 C   0  0  0  0  0  3  0  0  0  0  0  0
  -25.0140  -28.9350   20.1370 C   0  0  0  0  0  0  0  0  0  0  0  0
  -26.1140  -30.7250   21.4690 C   0  0  0  0  0  2  0  0  0  0  0  0
  -26.1920  -29.3380   20.7790 C   0  0  0  0  0  0  0  0  0  0  0  0
  -27.3450  -28.4400   20.7660 C   0  0  0  0  0  3  0  0  0  0  0  0
  -26.1080  -26.8230   19.4910 C   0  0  0  0  0  3  0  0  0  0  0  0
  -24.9920  -27.6960   19.4750 C   0  0  0  0  0  3  0  0  0  0  0  0
  -23.7940  -29.8520   20.1900 C   0  0  0  0  0  2  0  0  0  0  0  0
  -24.8170  -31.0420   22.1680 N   0  0  0  0  0  0  0  0  0  0  0  0
  -23.6300  -32.1070   23.7990 O   0  0  0  0  0  0  0  0  0  0  0  0
  -22.8480  -29.4650   22.5090 C   0  0  0  0  0  0  0  0  0  0  0  0
  -21.5240  -29.2870   22.3460 N   0  0  0  0  0  0  0  0  0  0  0  0
  -23.5000  -28.8290   23.3390 O   0  0  0  0  0  0  0  0  0  0  0  0
  -21.0510  -29.8550   21.6570 H   0  0  0  0  0  0  0  0  0  0  0  0
  -18.1540  -27.9880   22.6940 C   0  0  0  0  0  0  0  0  0  0  0  0
  -20.6920  -28.3210   23.0730 C   0  0  0  0  0  3  0  0  0  0  0  0
  -20.8570  -26.8960   22.4970 C   0  0  0  0  0  2  0  0  0  0  0  0
  -19.8100  -26.5500   21.4330 C   0  0  0  0  0  2  0  0  0  0  0  0
  -18.3980  -26.6500   22.0160 C   0  0  0  0  0  2  0  0  0  0  0  0
  -19.2310  -28.7790   23.1750 C   0  0  0  0  0  0  0  0  0  0  0  0
  -18.9480  -30.0280   23.7710 C   0  0  0  0  0  3  0  0  0  0  0  0
  -17.6230  -30.4870   23.8860 C   0  0  0  0  0  3  0  0  0  0  0  0
  -16.5610  -29.6940   23.4180 C   0  0  0  0  0  3  0  0  0  0  0  0
  -16.8280  -28.4460   22.8280 C   0  0  0  0  0  3  0  0  0  0  0  0
  -25.9900  -32.4550   23.9480 C   0  0  0  0  0  3  0  0  0  0  0  0
  -25.6670  -33.8400   24.3290 N   0  0  0  0  0  0  0  0  0  0  0  0
  -26.0130  -34.9290   23.6300 C   0  0  0  0  0  0  0  0  0  0  0  0
  -26.7030  -34.8730   22.6090 O   0  0  0  0  0  0  0  0  0  0  0  0
  -25.0570  -33.9550   25.1240 H   0  0  0  0  0  0  0  0  0  0  0  0
  -24.2870  -36.7400   23.3400 C   0  0  0  0  0  1  0  0  0  0  0  0
  -25.5210  -36.2970   24.1450 C   0  0  0  0  0  3  0  0  0  0  0  0
  -27.6470  -37.1500   25.0330 C   0  0  0  0  0  1  0  0  0  0  0  0
  -26.5530  -37.3560   24.0870 N   0  0  0  0  0  0  0  0  0  0  0  0
  -26.1440  -38.2680   24.2690 H   0  0  0  0  0  0  0  0  0  0  0  0
  -26.4830  -31.6450   25.2100 C   0  0  1  0  0  0  0  0  0  0  0  0
  -25.3720  -31.3800   26.2550 C   0  0  0  0  0  1  0  0  0  0  0  0
  -27.0660  -30.2750   24.7920 C   0  0  0  0  0  1  0  0  0  0  0  0
  -27.6250  -32.4150   25.9130 C   0  0  0  0  0  1  0  0  0  0  0  0
  1 50  1  0
  3  2  1  0
  3  6  1  0
  4  3  1  0
  4  6  1  0
  5  1  1  0
  5  4  1  0
  5  2  1  0
  6  8  1  6
  6  7  1  0
  9  1  1  0
  9 11  1  0
 10  9  1  0
 12  9  1  0
 12 13  2  0
 14 13  1  0
 15 20  1  0
 16 17  1  0
 16 15  1  0
 18 17  1  0
 18 25  1  0
 18 19  1  0
 20 14  1  0
 20 19  1  0
 21 14  2  0
 22 23  2  0
 23 42  1  0
 24 23  1  0
 24 27  1  0
 25 22  1  0
 25 26  1  0
 26 24  2  0
 27 28  1  0
 28 29  2  0
 30 33  1  0
 30 29  1  0
 31 30  2  0
 32 31  1  0
 32 27  2  0
 33 34  1  0
 34 35  1  0
 35 36  2  0
 37 36  1  0
 37 41  1  0
 38 37  2  0
 39 34  2  0
 39 38  1  0
 40 39  1  0
 42 43  1  0
 43 46  1  0
 43 45  1  0
 44 42  2  0
 47 48  1  0
 47 22  1  0
 49 47  1  0
 50 51  1  0
 52 54  1  0
 52 51  1  0
 53 64  2  0
 54 59  1  0
 55 63  1  0
 55 65  1  0
 56 62  1  0
 56 58  1  0
 57 63  1  0
 58 57  1  0
 59 58  2  0
 60 54  2  0
 61 60  1  0
 61 56  2  0
 62 55  1  0
 63 53  1  0
 65 67  2  0
 66 65  1  0
 68 66  1  0
 69 78  2  0
 69 74  1  0
 70 66  1  0
 70 74  1  0
 71 70  1  0
 72 73  1  0
 72 71  1  0
 73 69  1  0
 74 75  2  0
 75 76  1  0
 77 76  2  0
 78 77  1  0
 79 53  1  0
 79 80  1  0
 79 89  1  0
 80 83  1  0
 81 85  1  0
 81 80  1  0
 82 81  2  0
 85 84  1  0
 87 85  1  0
 87 88  1  0
 87 86  1  0
 89 92  1  1
 89 90  1  0
 91 89  1  0
M  ISO  4  13 100  14 100  51 101  52 101
M  END
>  <TORSDO>  (85) 
F 22

>  <SCORE>  (85) 
-12.370

>  <name>  (85) 
84

>  <ligand_id>  (85) 
84

>  <original_smiles>  (85) 
[H]c1c([H])c([H])c2c(c1[H])C([H])([H])C([H])([H])C([H])([H])C2([H])N([H])C(=O)C1([H])N(C(=O)C([H])(N([H])C(=O)C([H])(N([H])C([H])([H])[H])C([H])([H])[H])C(C([H])([H])[H])(C([H])([H])[H])C([H])([H])[H])C([H])([H])c2c([H])c(OC([H])([H])C([H])([H])C([H])(C3([H])C([H])([H])C4([H])C3([H])C4(C([H])([H])[H])C([H])([H])[H])[N+]([H])([H])C([H])([H])C([H])([H])C(=O)N3C([H])([H])C([H])([H])C([H])([H])C([H])(n4nc(-c5c([H])c([H])c(Oc6c([H])c([H])c(F)c([H])c6F)c([H])c5[H])c(C(=O)N([H])[H])c4N([H])[H])C3([H])[H])c([H])c([H])c2C1([H])[H]

>  <smiles>  (85) 
[H]c1c([H])c([H])c2c(c1[H])C([H])([H])C([H])([H])C([H])([H])C2([H])N([H])C(=O)C1([H])N(C(=O)C([H])(N([H])C(=O)C([H])(N([H])C([H])([H])[H])C([H])([H])[H])C(C([H])([H])[H])(C([H])([H])[H])C([H])([H])[H])C([H])([H])c2c([H])c(OC([H])([H])C([H])([H])C([H])(C3([H])C([H])([H])C4([H])C3([H])C4(C([H])([H])[H])C([H])([H])[H])[N+]([H])([H])C([H])([H])C([H])([H])C(=O)N3C([H])([H])C([H])([H])C([H])([H])C([H])(n4nc(-c5c([H])c([H])c(Oc6c([H])c([H])c(F)c([H])c6F)c([H])c5[H])c(C(=O)N([H])[H])c4N([H])[H])C3([H])[H])c([H])c([H])c2C1([H])[H]

$$$$
85:0:0
     RDKit          3D

 96105  0  0  1  0  0  0  0  0999 V2000
  -25.3620  -19.7320   18.1640 C   0  0  0  0  0  3  0  0  0  0  0  0
  -26.5060  -18.8550   18.7080 C   0  0  0  0  0  2  0  0  0  0  0  0
  -25.5450  -21.2920   18.0520 C   0  0  0  0  0  3  0  0  0  0  0  0
  -29.3450  -21.3520   19.1530 C   0  0  0  0  0  2  0  0  0  0  0  0
  -27.8110  -19.5750   18.3620 C   0  0  0  0  0  3  0  0  0  0  0  0
  -27.8670  -20.9160   19.1490 C   0  0  0  0  0  3  0  0  0  0  0  0
  -26.9050  -21.9070   18.4510 C   0  0  0  0  0  3  0  0  0  0  0  0
  -29.9360  -20.4490   18.0720 C   0  0  0  0  0  3  0  0  0  0  0  0
  -29.2350  -18.9920   18.0780 C   0  0  0  0  0  3  0  0  0  0  0  0
  -26.7300  -23.2080   19.2890 C   0  0  0  0  0  1  0  0  0  0  0  0
  -29.6150  -17.4470   18.5670 C   0  0  0  0  0  2  0  0  0  0  0  0
  -30.2740  -16.7600   19.8950 C   0  0  0  0  0  2  0  0  0  0  0  0
  -31.3220  -15.4830   19.8100 C   0  0  0  0  0  0  0  0  0  0  0  0
  -31.5920  -12.9640   19.6720 C   0  0  0  0  0  2  0  0  0  0  0  0
  -30.7410  -12.3990   18.4970 C   0  0  0  0  0  2  0  0  0  0  0  0
  -29.2470  -12.3020   18.8680 C   0  0  0  0  0  2  0  0  0  0  0  0
  -28.7450  -13.5710   19.6060 C   0  0  0  0  0  3  0  0  0  0  0  0
  -29.6780  -13.8710   20.7910 C   0  0  0  0  0  2  0  0  0  0  0  0
  -30.9580  -14.2090   20.1810 N   0  0  0  0  0  0  0  0  0  0  0  0
  -32.4710  -15.6270   19.3610 O   0  0  0  0  0  0  0  0  0  0  0  0
  -26.4560  -14.4560   20.2960 C   0  0  0  0  0  0  0  0  0  0  0  0
  -25.3090  -13.8150   20.6470 C   0  0  0  0  0  0  0  0  0  0  0  0
  -25.6030  -12.4220   20.6130 C   0  0  0  0  0  0  0  0  0  0  0  0
  -27.3780  -13.4600   20.0570 N   0  0  0  0  0  0  0  0  0  0  0  0
  -26.8770  -12.2260   20.3130 N   0  0  0  0  0  0  0  0  0  0  0  0
  -24.7450  -11.2450   20.7760 C   0  0  0  0  0  0  0  0  0  0  0  0
  -25.0400  -10.2400   21.7220 C   0  0  0  0  0  3  0  0  0  0  0  0
  -24.1870   -9.1280   21.8660 C   0  0  0  0  0  3  0  0  0  0  0  0
  -23.0260   -9.0150   21.0620 C   0  0  0  0  0  0  0  0  0  0  0  0
  -22.7530  -10.0080   20.1070 C   0  0  0  0  0  3  0  0  0  0  0  0
  -23.6070  -11.1130   19.9600 C   0  0  0  0  0  3  0  0  0  0  0  0
  -22.1520   -7.9630   21.1210 O   0  0  0  0  0  0  0  0  0  0  0  0
  -21.9400   -7.2680   22.2880 C   0  0  0  0  0  0  0  0  0  0  0  0
  -21.4860   -7.9050   23.4620 C   0  0  0  0  0  3  0  0  0  0  0  0
  -21.2140   -7.1420   24.6160 C   0  0  0  0  0  3  0  0  0  0  0  0
  -21.3890   -5.7450   24.5940 C   0  0  0  0  0  0  0  0  0  0  0  0
  -21.8400   -5.1090   23.4230 C   0  0  0  0  0  3  0  0  0  0  0  0
  -22.1120   -5.8700   22.2720 C   0  0  0  0  0  0  0  0  0  0  0  0
  -22.5260   -5.2490   21.1410 F   0  0  0  0  0  0  0  0  0  0  0  0
  -21.1200   -5.0120   25.6980 F   0  0  0  0  0  0  0  0  0  0  0  0
  -23.9710  -14.4520   20.9120 C   0  0  0  0  0  0  0  0  0  0  0  0
  -23.1750  -13.8510   21.7840 N   0  0  0  0  0  0  0  0  0  0  0  0
  -23.6540  -15.5110   20.3790 O   0  0  0  0  0  0  0  0  0  0  0  0
  -23.4510  -12.9870   22.2320 H   0  0  0  0  0  0  0  0  0  0  0  0
  -22.2700  -14.2580   22.0040 H   0  0  0  0  0  0  0  0  0  0  0  0
  -26.8100  -15.7950   20.1210 N   0  0  0  0  0  0  0  0  0  0  0  0
  -26.1420  -16.5540   20.1500 H   0  0  0  0  0  0  0  0  0  0  0  0
  -27.7090  -16.0580   19.7420 H   0  0  0  0  0  0  0  0  0  0  0  0
  -31.1430  -20.9110   17.1620 C   0  0  0  0  0  2  0  0  0  0  0  0
  -31.3930  -22.4100   17.1580 N   0  0  0  0  0  4  0  0  0  0  0  0
  -32.3860  -22.5840   17.3030 H   0  0  0  0  0  0  0  0  0  0  0  0
  -30.8610  -22.8050   17.9260 H   0  0  0  0  0  0  0  0  0  0  0  0
  -31.0110  -23.1870   15.9210 C   0  0  0  0  0  2  0  0  0  0  0  0
  -30.5650  -24.7300   16.0310 C   0  0  0  0  0  3  0  0  0  0  0  0
  -29.1440  -25.2490   15.5080 C   0  0  0  0  0  3  0  0  0  0  0  0
  -28.7570  -26.6940   15.6670 O   0  0  0  0  0  0  0  0  0  0  0  0
  -25.4510  -27.9660   21.7910 C   0  0  0  0  0  0  0  0  0  0  0  0
  -27.5190  -27.1010   16.1970 C   0  0  0  0  0  0  0  0  0  0  0  0
  -23.9550  -27.6000   19.8580 C   0  0  0  0  0  3  0  0  0  0  0  0
  -25.0750  -27.6950   17.5400 C   0  0  0  0  0  0  0  0  0  0  0  0
  -26.2580  -28.6550   19.5310 C   0  0  0  0  0  2  0  0  0  0  0  0
  -26.2870  -28.0400   18.1320 C   0  0  0  0  0  0  0  0  0  0  0  0
  -27.5030  -27.7880   17.4480 C   0  0  0  0  0  3  0  0  0  0  0  0
  -26.2800  -26.8200   15.5920 C   0  0  0  0  0  3  0  0  0  0  0  0
  -25.0530  -27.1120   16.2490 C   0  0  0  0  0  3  0  0  0  0  0  0
  -23.8230  -27.9660   18.3480 C   0  0  0  0  0  2  0  0  0  0  0  0
  -25.2460  -28.0610   20.4400 N   0  0  0  0  0  0  0  0  0  0  0  0
  -24.5500  -27.5590   22.5330 O   0  0  0  0  0  0  0  0  0  0  0  0
  -23.7060  -26.0840   20.0320 C   0  0  0  0  0  0  0  0  0  0  0  0
  -22.4350  -25.6670   19.8970 N   0  0  0  0  0  0  0  0  0  0  0  0
  -24.6510  -25.3100   20.2350 O   0  0  0  0  0  0  0  0  0  0  0  0
  -21.7720  -26.3450   19.5570 H   0  0  0  0  0  0  0  0  0  0  0  0
  -19.5730  -23.5260   19.4630 C   0  0  0  0  0  0  0  0  0  0  0  0
  -22.0020  -24.2690   19.9480 C   0  0  0  0  0  3  0  0  0  0  0  0
  -22.3690  -23.5790   18.6060 C   0  0  0  0  0  2  0  0  0  0  0  0
  -21.2440  -23.6210   17.5870 C   0  0  0  0  0  2  0  0  0  0  0  0
  -19.9620  -22.9880   18.1050 C   0  0  0  0  0  2  0  0  0  0  0  0
  -20.5180  -24.1450   20.3140 C   0  0  0  0  0  0  0  0  0  0  0  0
  -20.0800  -24.6580   21.5440 C   0  0  0  0  0  3  0  0  0  0  0  0
  -18.7340  -24.5970   21.9080 C   0  0  0  0  0  3  0  0  0  0  0  0
  -17.8000  -23.9620   21.0600 C   0  0  0  0  0  3  0  0  0  0  0  0
  -18.2410  -23.4030   19.8530 C   0  0  0  0  0  3  0  0  0  0  0  0
  -26.7880  -28.4050   22.4530 C   0  0  0  0  0  3  0  0  0  0  0  0
  -26.4520  -29.0960   23.7060 N   0  0  0  0  0  0  0  0  0  0  0  0
  -26.5240  -30.4190   23.8910 C   0  0  0  0  0  0  0  0  0  0  0  0
  -26.9430  -31.1940   23.0270 O   0  0  0  0  0  0  0  0  0  0  0  0
  -26.0430  -28.5270   24.4270 H   0  0  0  0  0  0  0  0  0  0  0  0
  -24.6490  -31.5770   25.1090 C   0  0  0  0  0  1  0  0  0  0  0  0
  -26.0550  -30.9710   25.2560 C   0  0  0  0  0  3  0  0  0  0  0  0
  -28.2560  -31.4080   26.2470 C   0  0  0  0  0  1  0  0  0  0  0  0
  -26.9760  -31.9730   25.8300 N   0  0  0  0  0  0  0  0  0  0  0  0
  -26.5540  -32.4270   26.6330 H   0  0  0  0  0  0  0  0  0  0  0  0
  -27.7660  -27.2020   22.7170 C   0  0  1  0  0  0  0  0  0  0  0  0
  -27.1090  -26.0360   23.4840 C   0  0  0  0  0  1  0  0  0  0  0  0
  -28.3170  -26.6430   21.3850 C   0  0  0  0  0  1  0  0  0  0  0  0
  -28.9830  -27.6870   23.5320 C   0  0  0  0  0  1  0  0  0  0  0  0
  1  2  1  0
  3  1  2  0
  3  7  1  0
  5  2  1  0
  5  6  1  0
  6  4  1  0
  7  6  1  0
  7 10  1  0
  8 49  1  0
  8  9  1  0
  8  4  1  0
  9  5  1  0
  9 11  1  0
 11 12  1  0
 13 12  1  0
 13 19  1  0
 14 19  1  0
 15 16  1  0
 15 14  1  0
 17 16  1  0
 17 24  1  0
 17 18  1  0
 19 18  1  0
 20 13  2  0
 21 22  2  0
 22 41  1  0
 23 22  1  0
 23 26  1  0
 24 21  1  0
 24 25  1  0
 25 23  2  0
 26 27  1  0
 27 28  2  0
 29 32  1  0
 29 28  1  0
 30 29  2  0
 31 30  1  0
 31 26  2  0
 32 33  1  0
 33 34  1  0
 34 35  2  0
 36 35  1  0
 36 40  1  0
 37 36  2  0
 38 33  2  0
 38 37  1  0
 39 38  1  0
 41 42  1  0
 42 45  1  0
 42 44  1  0
 43 41  2  0
 46 47  1  0
 46 21  1  0
 48 46  1  0
 50 49  1  0
 50 51  1  0
 50 52  1  0
 53 54  1  0
 53 50  1  0
 55 56  1  0
 55 54  2  0
 56 58  1  0
 57 68  2  0
 58 63  1  0
 59 69  1  0
 59 67  1  0
 60 62  1  0
 60 66  1  0
 61 67  1  0
 62 61  1  0
 63 62  2  0
 64 58  2  0
 64 65  1  0
 65 60  2  0
 66 59  1  0
 67 57  1  0
 69 71  2  0
 70 69  1  0
 72 70  1  0
 73 82  2  0
 73 78  1  0
 74 70  1  0
 74 78  1  0
 75 74  1  0
 76 77  1  0
 76 75  1  0
 77 73  1  0
 78 79  2  0
 79 80  1  0
 81 80  2  0
 82 81  1  0
 83 57  1  0
 83 93  1  0
 83 84  1  0
 84 85  1  0
 84 87  1  0
 85 89  1  0
 86 85  2  0
 89 88  1  0
 89 91  1  0
 91 90  1  0
 91 92  1  0
 93 94  1  1
 93 96  1  0
 95 93  1  0
M  ISO  4  12 100  13 100  55 101  56 101
M  END
>  <TORSDO>  (86) 
F 23

>  <SCORE>  (86) 
-8.283

>  <name>  (86) 
85

>  <ligand_id>  (86) 
85

>  <original_smiles>  (86) 
[H]c1c([H])c([H])c2c(c1[H])C([H])([H])C([H])([H])C([H])([H])C2([H])N([H])C(=O)C1([H])N(C(=O)C([H])(N([H])C(=O)C([H])(N([H])C([H])([H])[H])C([H])([H])[H])C(C([H])([H])[H])(C([H])([H])[H])C([H])([H])[H])C([H])([H])c2c([H])c(OC([H])([H])C([H])([H])C([H])([H])[N+]([H])([H])C([H])([H])C3([H])C([H])([H])C4([H])C([H])(C([H])([H])[H])C([H])([H])C([H])([H])C([H])([H])C4([H])C3([H])C([H])([H])C([H])([H])C(=O)N3C([H])([H])C([H])([H])C([H])([H])C([H])(n4nc(-c5c([H])c([H])c(Oc6c([H])c([H])c(F)c([H])c6F)c([H])c5[H])c(C(=O)N([H])[H])c4N([H])[H])C3([H])[H])c([H])c([H])c2C1([H])[H]

>  <smiles>  (86) 
[H]c1c([H])c([H])c2c(c1[H])C([H])([H])C([H])([H])C([H])([H])C2([H])N([H])C(=O)C1([H])N(C(=O)C([H])(N([H])C(=O)C([H])(N([H])C([H])([H])[H])C([H])([H])[H])C(C([H])([H])[H])(C([H])([H])[H])C([H])([H])[H])C([H])([H])c2c([H])c(OC([H])([H])C([H])([H])C([H])([H])[N+]([H])([H])C([H])([H])C3([H])C([H])([H])C4([H])C([H])(C([H])([H])[H])C([H])([H])C([H])([H])C([H])([H])C4([H])C3([H])C([H])([H])C([H])([H])C(=O)N3C([H])([H])C([H])([H])C([H])([H])C([H])(n4nc(-c5c([H])c([H])c(Oc6c([H])c([H])c(F)c([H])c6F)c([H])c5[H])c(C(=O)N([H])[H])c4N([H])[H])C3([H])[H])c([H])c([H])c2C1([H])[H]

$$$$
86:0:0
     RDKit          3D

 92101  0  0  1  0  0  0  0  0999 V2000
  -30.3160  -22.5750   18.7610 C   0  0  0  0  0  2  0  0  0  0  0  0
  -31.0260  -23.2620   19.9570 C   0  0  0  0  0  2  0  0  0  0  0  0
  -29.0750  -21.9580   19.4540 C   0  0  0  0  0  3  0  0  0  0  0  0
  -28.6740  -23.2830   20.3440 C   0  0  0  0  0  3  0  0  0  0  0  0
  -29.9740  -21.5580   21.6090 C   0  0  0  0  0  3  0  0  0  0  0  0
  -29.7390  -20.7100   20.3160 C   0  0  0  0  0  3  0  0  0  0  0  0
  -30.0030  -23.0880   21.1190 C   0  0  1  0  0  0  0  0  0  0  0  0
  -31.2170  -21.1190   22.4100 C   0  0  0  0  0  1  0  0  0  0  0  0
  -30.1830  -24.0840   22.2830 C   0  0  0  0  0  1  0  0  0  0  0  0
  -29.1880  -19.2270   20.4190 N   0  0  0  0  0  4  0  0  0  0  0  0
  -28.6530  -19.0860   19.5780 H   0  0  0  0  0  0  0  0  0  0  0  0
  -28.5210  -19.1990   21.1750 H   0  0  0  0  0  0  0  0  0  0  0  0
  -30.1320  -17.9490   20.5350 C   0  0  0  0  0  3  0  0  0  0  0  0
  -29.5670  -16.3590   20.5570 C   0  0  0  0  0  3  0  0  0  0  0  0
  -30.4420  -14.9640   20.3260 C   0  0  0  0  0  0  0  0  0  0  0  0
  -30.3540  -12.6180   19.3620 C   0  0  0  0  0  2  0  0  0  0  0  0
  -29.3960  -12.5720   18.1450 C   0  0  0  0  0  2  0  0  0  0  0  0
  -27.9450  -12.3340   18.6000 C   0  0  0  0  0  2  0  0  0  0  0  0
  -27.5390  -13.2700   19.7650 C   0  0  0  0  0  3  0  0  0  0  0  0
  -28.6050  -13.2750   20.8820 C   0  0  0  0  0  2  0  0  0  0  0  0
  -29.8820  -13.6870   20.2860 N   0  0  0  0  0  0  0  0  0  0  0  0
  -31.6380  -15.0500   20.0150 O   0  0  0  0  0  0  0  0  0  0  0  0
  -25.1610  -13.8360   20.5360 C   0  0  0  0  0  0  0  0  0  0  0  0
  -24.1060  -13.0520   20.9160 C   0  0  0  0  0  0  0  0  0  0  0  0
  -24.5800  -11.7010   20.8720 C   0  0  0  0  0  0  0  0  0  0  0  0
  -26.2080  -12.9640   20.2790 N   0  0  0  0  0  0  0  0  0  0  0  0
  -25.8670  -11.6770   20.5480 N   0  0  0  0  0  0  0  0  0  0  0  0
  -23.8640  -10.4340   21.0610 C   0  0  0  0  0  0  0  0  0  0  0  0
  -24.3180   -9.4620   21.9790 C   0  0  0  0  0  3  0  0  0  0  0  0
  -23.6050   -8.2580   22.1600 C   0  0  0  0  0  3  0  0  0  0  0  0
  -22.4210   -8.0180   21.4220 C   0  0  0  0  0  0  0  0  0  0  0  0
  -21.9850   -8.9790   20.4920 C   0  0  0  0  0  3  0  0  0  0  0  0
  -22.6990  -10.1740   20.3100 C   0  0  0  0  0  3  0  0  0  0  0  0
  -21.6770   -6.8670   21.5130 O   0  0  0  0  0  0  0  0  0  0  0  0
  -21.6590   -6.1100   22.6560 C   0  0  0  0  0  0  0  0  0  0  0  0
  -21.2600   -6.6470   23.9020 C   0  0  0  0  0  3  0  0  0  0  0  0
  -21.1910   -5.8150   25.0360 C   0  0  0  0  0  3  0  0  0  0  0  0
  -21.5070   -4.4470   24.9290 C   0  0  0  0  0  0  0  0  0  0  0  0
  -21.8970   -3.9090   23.6890 C   0  0  0  0  0  3  0  0  0  0  0  0
  -21.9680   -4.7390   22.5560 C   0  0  0  0  0  0  0  0  0  0  0  0
  -22.3240   -4.2090   21.3600 F   0  0  0  0  0  0  0  0  0  0  0  0
  -21.4320   -3.6470   26.0190 F   0  0  0  0  0  0  0  0  0  0  0  0
  -22.7080  -13.5150   21.2070 C   0  0  0  0  0  0  0  0  0  0  0  0
  -21.9960  -12.8020   22.0740 N   0  0  0  0  0  0  0  0  0  0  0  0
  -22.2560  -14.5390   20.6980 O   0  0  0  0  0  0  0  0  0  0  0  0
  -22.3750  -11.9730   22.5020 H   0  0  0  0  0  0  0  0  0  0  0  0
  -21.0570  -13.0860   22.3110 H   0  0  0  0  0  0  0  0  0  0  0  0
  -25.3180  -15.2070   20.3620 N   0  0  0  0  0  0  0  0  0  0  0  0
  -24.5550  -15.8660   20.4770 H   0  0  0  0  0  0  0  0  0  0  0  0
  -26.1650  -15.6400   20.0170 H   0  0  0  0  0  0  0  0  0  0  0  0
  -28.3140  -24.7930   19.6380 C   0  0  0  0  0  2  0  0  0  0  0  0
  -28.2490  -26.2280   20.2280 O   0  0  0  0  0  0  0  0  0  0  0  0
  -24.6010  -31.8690   23.1620 C   0  0  0  0  0  0  0  0  0  0  0  0
  -27.1660  -27.1750   20.1070 C   0  0  0  0  0  0  0  0  0  0  0  0
  -23.3890  -30.4790   21.5250 C   0  0  0  0  0  3  0  0  0  0  0  0
  -24.8240  -28.9120   20.0840 C   0  0  0  0  0  0  0  0  0  0  0  0
  -25.9380  -30.7520   21.3350 C   0  0  0  0  0  2  0  0  0  0  0  0
  -26.0090  -29.3590   20.6860 C   0  0  0  0  0  0  0  0  0  0  0  0
  -27.1700  -28.5040   20.6900 C   0  0  0  0  0  3  0  0  0  0  0  0
  -25.9540  -26.8240   19.4630 C   0  0  0  0  0  3  0  0  0  0  0  0
  -24.8110  -27.6530   19.4610 C   0  0  0  0  0  3  0  0  0  0  0  0
  -23.5980  -29.8090   20.1420 C   0  0  0  0  0  2  0  0  0  0  0  0
  -24.6650  -31.0560   22.0630 N   0  0  0  0  0  0  0  0  0  0  0  0
  -23.5190  -32.1500   23.6990 O   0  0  0  0  0  0  0  0  0  0  0  0
  -22.7130  -29.4740   22.4900 C   0  0  0  0  0  0  0  0  0  0  0  0
  -21.3830  -29.3150   22.3820 N   0  0  0  0  0  0  0  0  0  0  0  0
  -23.3900  -28.8330   23.2990 O   0  0  0  0  0  0  0  0  0  0  0  0
  -20.8920  -29.8830   21.7060 H   0  0  0  0  0  0  0  0  0  0  0  0
  -17.9930  -28.1530   22.9190 C   0  0  0  0  0  0  0  0  0  0  0  0
  -20.5600  -28.3820   23.1570 C   0  0  0  0  0  3  0  0  0  0  0  0
  -20.6400  -26.9540   22.5680 C   0  0  0  0  0  2  0  0  0  0  0  0
  -19.5210  -26.6540   21.5670 C   0  0  0  0  0  2  0  0  0  0  0  0
  -18.1460  -26.8110   22.2240 C   0  0  0  0  0  2  0  0  0  0  0  0
  -19.1250  -28.8980   23.3390 C   0  0  0  0  0  0  0  0  0  0  0  0
  -18.9240  -30.1580   23.9450 C   0  0  0  0  0  3  0  0  0  0  0  0
  -17.6280  -30.6740   24.1280 C   0  0  0  0  0  3  0  0  0  0  0  0
  -16.5100  -29.9250   23.7200 C   0  0  0  0  0  3  0  0  0  0  0  0
  -16.6930  -28.6650   23.1230 C   0  0  0  0  0  3  0  0  0  0  0  0
  -25.8830  -32.5010   23.7860 C   0  0  0  0  0  3  0  0  0  0  0  0
  -26.4050  -31.7190   25.0520 C   0  0  1  0  0  0  0  0  0  0  0  0
  -25.3200  -31.4790   26.1260 C   0  0  0  0  0  1  0  0  0  0  0  0
  -26.9850  -30.3480   24.6410 C   0  0  0  0  0  1  0  0  0  0  0  0
  -27.5620  -32.5040   25.7120 C   0  0  0  0  0  1  0  0  0  0  0  0
  -25.5730  -33.8950   24.1340 N   0  0  0  0  0  0  0  0  0  0  0  0
  -25.9010  -34.9610   23.3900 C   0  0  0  0  0  0  0  0  0  0  0  0
  -26.5590  -34.8720   22.3490 O   0  0  0  0  0  0  0  0  0  0  0  0
  -25.0010  -34.0400   24.9540 H   0  0  0  0  0  0  0  0  0  0  0  0
  -24.1730  -36.7580   23.0690 C   0  0  0  0  0  1  0  0  0  0  0  0
  -25.4190  -36.3440   23.8700 C   0  0  0  0  0  3  0  0  0  0  0  0
  -27.5620  -37.2080   24.6970 C   0  0  0  0  0  1  0  0  0  0  0  0
  -26.4530  -37.3980   23.7660 N   0  0  0  0  0  0  0  0  0  0  0  0
  -26.0490  -38.3160   23.9290 H   0  0  0  0  0  0  0  0  0  0  0  0
  1  2  1  0
  2  7  1  0
  3  1  1  0
  3  6  1  0
  3  4  1  0
  4 51  1  0
  4  7  1  0
  5  8  1  0
  6 10  1  0
  6  5  1  0
  7  5  1  0
  7  9  1  1
 10 13  1  0
 10 12  1  0
 11 10  1  0
 13 14  2  0
 15 14  1  0
 16 21  1  0
 17 18  1  0
 17 16  1  0
 19 18  1  0
 19 26  1  0
 19 20  1  0
 21 15  1  0
 21 20  1  0
 22 15  2  0
 23 24  2  0
 24 43  1  0
 25 24  1  0
 25 28  1  0
 26 23  1  0
 26 27  1  0
 27 25  2  0
 28 29  1  0
 29 30  2  0
 31 34  1  0
 31 30  1  0
 32 31  2  0
 33 32  1  0
 33 28  2  0
 34 35  1  0
 35 36  1  0
 36 37  2  0
 38 37  1  0
 38 42  1  0
 39 38  2  0
 40 35  2  0
 40 39  1  0
 41 40  1  0
 43 44  1  0
 44 47  1  0
 44 46  1  0
 45 43  2  0
 48 49  1  0
 48 23  1  0
 50 48  1  0
 51 52  1  0
 53 64  2  0
 54 52  1  0
 54 59  1  0
 55 63  1  0
 55 65  1  0
 56 62  1  0
 56 58  1  0
 57 63  1  0
 58 59  2  0
 58 57  1  0
 60 54  2  0
 61 60  1  0
 61 56  2  0
 62 55  1  0
 63 53  1  0
 65 67  2  0
 66 65  1  0
 68 66  1  0
 69 78  2  0
 69 74  1  0
 70 66  1  0
 70 74  1  0
 71 70  1  0
 72 73  1  0
 72 71  1  0
 73 69  1  0
 74 75  2  0
 75 76  1  0
 77 76  2  0
 78 77  1  0
 79 53  1  0
 79 84  1  0
 79 80  1  0
 80 83  1  1
 80 81  1  0
 82 80  1  0
 84 87  1  0
 85 89  1  0
 85 84  1  0
 86 85  2  0
 89 88  1  0
 91 89  1  0
 91 92  1  0
 91 90  1  0
M  ISO  4  14 100  15 100  51 101  52 101
M  END
>  <TORSDO>  (87) 
F 20

>  <SCORE>  (87) 
-14.517

>  <name>  (87) 
86

>  <ligand_id>  (87) 
86

>  <original_smiles>  (87) 
[H]c1c([H])c([H])c2c(c1[H])C([H])([H])C([H])([H])C([H])([H])C2([H])N([H])C(=O)C1([H])N(C(=O)C([H])(N([H])C(=O)C([H])(N([H])C([H])([H])[H])C([H])([H])[H])C(C([H])([H])[H])(C([H])([H])[H])C([H])([H])[H])C([H])([H])c2c([H])c(OC([H])([H])C3([H])C4([H])C([H])([H])C([H])([H])C3(C([H])([H])[H])C([H])(C([H])([H])[H])C4([H])[N+]([H])([H])C([H])([H])C([H])([H])C(=O)N3C([H])([H])C([H])([H])C([H])([H])C([H])(n4nc(-c5c([H])c([H])c(Oc6c([H])c([H])c(F)c([H])c6F)c([H])c5[H])c(C(=O)N([H])[H])c4N([H])[H])C3([H])[H])c([H])c([H])c2C1([H])[H]

>  <smiles>  (87) 
[H]c1c([H])c([H])c2c(c1[H])C([H])([H])C([H])([H])C([H])([H])C2([H])N([H])C(=O)C1([H])N(C(=O)C([H])(N([H])C(=O)C([H])(N([H])C([H])([H])[H])C([H])([H])[H])C(C([H])([H])[H])(C([H])([H])[H])C([H])([H])[H])C([H])([H])c2c([H])c(OC([H])([H])C3([H])C4([H])C([H])([H])C([H])([H])C3(C([H])([H])[H])C([H])(C([H])([H])[H])C4([H])[N+]([H])([H])C([H])([H])C([H])([H])C(=O)N3C([H])([H])C([H])([H])C([H])([H])C([H])(n4nc(-c5c([H])c([H])c(Oc6c([H])c([H])c(F)c([H])c6F)c([H])c5[H])c(C(=O)N([H])[H])c4N([H])[H])C3([H])[H])c([H])c([H])c2C1([H])[H]

$$$$
87:0:0
     RDKit          3D

 92102  0  0  1  0  0  0  0  0999 V2000
  -31.2120  -23.1990   21.7980 C   0  0  0  0  0  2  0  0  0  0  0  0
  -31.3490  -17.4170   21.3260 C   0  0  0  0  0  2  0  0  0  0  0  0
  -32.1890  -22.3290   20.9400 C   0  0  0  0  0  2  0  0  0  0  0  0
  -29.6910  -22.8030   21.7560 C   0  0  0  0  0  2  0  0  0  0  0  0
  -32.0100  -18.6750   20.6950 C   0  0  0  0  0  2  0  0  0  0  0  0
  -30.3160  -22.1570   19.4490 C   0  0  0  0  0  2  0  0  0  0  0  0
  -28.7170  -20.6290   20.2850 C   0  0  0  0  0  2  0  0  0  0  0  0
  -29.9290  -17.2090   20.6870 C   0  0  0  0  0  3  0  0  0  0  0  0
  -31.4330  -21.2340   20.1390 C   0  0  0  0  0  3  0  0  0  0  0  0
  -29.0930  -22.4390   20.3750 C   0  0  1  0  0  0  0  0  0  0  0  0
  -31.1080  -19.8720   21.0260 C   0  0  1  0  0  0  0  0  0  0  0  0
  -29.6920  -19.1550   20.7930 C   0  0  1  0  0  0  0  0  0  0  0  0
  -31.5080  -20.1310   22.5460 C   0  0  0  0  0  1  0  0  0  0  0  0
  -28.9130  -19.0620   22.1560 C   0  0  0  0  0  1  0  0  0  0  0  0
  -30.3150  -15.5940   19.8390 C   0  0  0  0  0  0  0  0  0  0  0  0
  -30.2430  -13.0860   18.9180 C   0  0  0  0  0  2  0  0  0  0  0  0
  -29.2430  -12.8140   17.7590 C   0  0  0  0  0  2  0  0  0  0  0  0
  -27.8580  -12.4580   18.3130 C   0  0  0  0  0  2  0  0  0  0  0  0
  -27.4730  -13.3680   19.5070 C   0  0  0  0  0  3  0  0  0  0  0  0
  -28.6170  -13.6120   20.5330 C   0  0  0  0  0  2  0  0  0  0  0  0
  -29.7690  -14.2340   19.8240 N   0  0  0  0  0  0  0  0  0  0  0  0
  -31.3800  -15.5440   19.1960 O   0  0  0  0  0  0  0  0  0  0  0  0
  -25.1720  -13.7890   20.5160 C   0  0  0  0  0  0  0  0  0  0  0  0
  -24.1760  -12.9660   20.9460 C   0  0  0  0  0  0  0  0  0  0  0  0
  -24.6580  -11.6290   20.7820 C   0  0  0  0  0  0  0  0  0  0  0  0
  -26.2080  -12.9660   20.1190 N   0  0  0  0  0  0  0  0  0  0  0  0
  -25.9160  -11.6530   20.3400 N   0  0  0  0  0  0  0  0  0  0  0  0
  -23.9710  -10.3410   20.9680 C   0  0  0  0  0  0  0  0  0  0  0  0
  -24.4400   -9.3700   21.8770 C   0  0  0  0  0  3  0  0  0  0  0  0
  -23.7390   -8.1600   22.0670 C   0  0  0  0  0  3  0  0  0  0  0  0
  -22.5530   -7.9020   21.3390 C   0  0  0  0  0  0  0  0  0  0  0  0
  -22.1000   -8.8630   20.4200 C   0  0  0  0  0  3  0  0  0  0  0  0
  -22.8040  -10.0650   20.2310 C   0  0  0  0  0  3  0  0  0  0  0  0
  -21.8290   -6.7370   21.4320 O   0  0  0  0  0  0  0  0  0  0  0  0
  -21.7290   -6.0410   22.6100 C   0  0  0  0  0  0  0  0  0  0  0  0
  -21.1910   -6.6240   23.7790 C   0  0  0  0  0  3  0  0  0  0  0  0
  -21.0460   -5.8520   24.9470 C   0  0  0  0  0  3  0  0  0  0  0  0
  -21.4260   -4.4970   24.9490 C   0  0  0  0  0  0  0  0  0  0  0  0
  -21.9510   -3.9100   23.7830 C   0  0  0  0  0  3  0  0  0  0  0  0
  -22.0990   -4.6790   22.6180 C   0  0  0  0  0  0  0  0  0  0  0  0
  -22.5860   -4.1050   21.4910 F   0  0  0  0  0  0  0  0  0  0  0  0
  -21.2800   -3.7520   26.0690 F   0  0  0  0  0  0  0  0  0  0  0  0
  -22.8100  -13.3890   21.4030 C   0  0  0  0  0  0  0  0  0  0  0  0
  -22.1960  -12.6380   22.3050 N   0  0  0  0  0  0  0  0  0  0  0  0
  -22.3030  -14.4290   20.9830 O   0  0  0  0  0  0  0  0  0  0  0  0
  -22.6220  -11.7960   22.6670 H   0  0  0  0  0  0  0  0  0  0  0  0
  -21.2860  -12.9160   22.6480 H   0  0  0  0  0  0  0  0  0  0  0  0
  -25.2850  -15.1760   20.4020 N   0  0  0  0  0  0  0  0  0  0  0  0
  -24.5260  -15.7990   20.6540 H   0  0  0  0  0  0  0  0  0  0  0  0
  -26.0920  -15.6630   20.0360 H   0  0  0  0  0  0  0  0  0  0  0  0
  -28.0890  -24.0310   20.0750 C   0  0  0  0  0  2  0  0  0  0  0  0
  -28.1920  -25.7410   20.2710 O   0  0  0  0  0  0  0  0  0  0  0  0
  -24.6790  -31.8560   23.2730 C   0  0  0  0  0  0  0  0  0  0  0  0
  -27.1690  -26.8850   20.1990 C   0  0  0  0  0  0  0  0  0  0  0  0
  -23.4600  -30.4980   21.6250 C   0  0  0  0  0  3  0  0  0  0  0  0
  -24.8790  -28.8640   20.1720 C   0  0  0  0  0  0  0  0  0  0  0  0
  -26.0320  -30.6430   21.4580 C   0  0  0  0  0  2  0  0  0  0  0  0
  -26.0820  -29.2270   20.7900 C   0  0  0  0  0  0  0  0  0  0  0  0
  -27.2100  -28.2720   20.7640 C   0  0  0  0  0  3  0  0  0  0  0  0
  -25.9310  -26.7000   19.5250 C   0  0  0  0  0  3  0  0  0  0  0  0
  -24.8360  -27.6200   19.5130 C   0  0  0  0  0  3  0  0  0  0  0  0
  -23.6690  -29.8120   20.2420 C   0  0  0  0  0  2  0  0  0  0  0  0
  -24.7490  -31.0260   22.1730 N   0  0  0  0  0  0  0  0  0  0  0  0
  -23.5990  -32.1460   23.8140 O   0  0  0  0  0  0  0  0  0  0  0  0
  -22.7430  -29.5120   22.5840 C   0  0  0  0  0  0  0  0  0  0  0  0
  -21.4160  -29.3340   22.4390 N   0  0  0  0  0  0  0  0  0  0  0  0
  -23.3950  -28.8990   23.4320 O   0  0  0  0  0  0  0  0  0  0  0  0
  -20.9360  -29.8710   21.7310 H   0  0  0  0  0  0  0  0  0  0  0  0
  -18.0520  -28.0310   22.8720 C   0  0  0  0  0  0  0  0  0  0  0  0
  -20.5920  -28.3880   23.2020 C   0  0  0  0  0  3  0  0  0  0  0  0
  -20.7530  -26.9460   22.6650 C   0  0  0  0  0  2  0  0  0  0  0  0
  -19.6980  -26.5680   21.6220 C   0  0  0  0  0  2  0  0  0  0  0  0
  -18.2930  -26.6780   22.2210 C   0  0  0  0  0  2  0  0  0  0  0  0
  -19.1310  -28.8410   23.3160 C   0  0  0  0  0  0  0  0  0  0  0  0
  -18.8480  -30.0990   23.8900 C   0  0  0  0  0  3  0  0  0  0  0  0
  -17.5220  -30.5560   24.0120 C   0  0  0  0  0  3  0  0  0  0  0  0
  -16.4580  -29.7460   23.5770 C   0  0  0  0  0  3  0  0  0  0  0  0
  -16.7230  -28.4850   23.0140 C   0  0  0  0  0  3  0  0  0  0  0  0
  -25.9550  -32.4910   23.9040 C   0  0  0  0  0  3  0  0  0  0  0  0
  -25.6740  -33.9120   24.1950 N   0  0  0  0  0  0  0  0  0  0  0  0
  -26.0220  -34.9460   23.4130 C   0  0  0  0  0  0  0  0  0  0  0  0
  -26.6740  -34.7990   22.3750 O   0  0  0  0  0  0  0  0  0  0  0  0
  -25.0940  -34.0920   25.0030 H   0  0  0  0  0  0  0  0  0  0  0  0
  -24.3170  -36.7680   23.0770 C   0  0  0  0  0  1  0  0  0  0  0  0
  -25.5860  -36.3620   23.8460 C   0  0  0  0  0  3  0  0  0  0  0  0
  -27.7670  -37.2310   24.5660 C   0  0  0  0  0  1  0  0  0  0  0  0
  -26.6360  -37.3880   23.6540 N   0  0  0  0  0  0  0  0  0  0  0  0
  -26.2560  -38.3230   23.7750 H   0  0  0  0  0  0  0  0  0  0  0  0
  -26.4140  -31.7540   25.2230 C   0  0  1  0  0  0  0  0  0  0  0  0
  -25.2870  -31.5830   26.2700 C   0  0  0  0  0  1  0  0  0  0  0  0
  -26.9610  -30.3490   24.8990 C   0  0  0  0  0  1  0  0  0  0  0  0
  -27.5810  -32.5280   25.8800 C   0  0  0  0  0  1  0  0  0  0  0  0
  3  1  1  0
  4  1  1  0
  5 11  1  0
  5  2  1  0
  6 10  1  0
  7 10  1  0
  7 12  1  0
  8 15  1  0
  8 12  1  0
  8  2  1  0
  9  6  1  0
  9  3  1  0
  9 11  1  0
 10 51  1  6
 10  4  1  0
 11 13  1  1
 12 11  1  0
 12 14  1  1
 16 21  1  0
 17 18  1  0
 17 16  1  0
 19 18  1  0
 19 26  1  0
 19 20  1  0
 21 15  1  0
 21 20  1  0
 22 15  2  0
 23 24  2  0
 24 43  1  0
 25 24  1  0
 25 28  1  0
 26 27  1  0
 26 23  1  0
 27 25  2  0
 28 29  1  0
 29 30  2  0
 31 34  1  0
 31 30  1  0
 32 31  2  0
 33 32  1  0
 33 28  2  0
 34 35  1  0
 35 40  2  0
 35 36  1  0
 36 37  2  0
 37 38  1  0
 38 42  1  0
 39 38  2  0
 40 39  1  0
 41 40  1  0
 43 44  1  0
 44 47  1  0
 44 46  1  0
 45 43  2  0
 48 23  1  0
 48 49  1  0
 50 48  1  0
 51 52  1  0
 53 64  2  0
 54 52  1  0
 54 59  1  0
 55 63  1  0
 55 65  1  0
 56 62  1  0
 56 58  1  0
 57 63  1  0
 58 57  1  0
 59 58  2  0
 60 54  2  0
 61 60  1  0
 61 56  2  0
 62 55  1  0
 63 53  1  0
 65 67  2  0
 66 65  1  0
 68 66  1  0
 69 78  2  0
 69 74  1  0
 70 66  1  0
 70 74  1  0
 71 70  1  0
 72 73  1  0
 72 71  1  0
 73 69  1  0
 74 75  2  0
 75 76  1  0
 77 76  2  0
 78 77  1  0
 79 53  1  0
 79 80  1  0
 79 89  1  0
 80 83  1  0
 81 85  1  0
 81 80  1  0
 82 81  2  0
 85 84  1  0
 87 88  1  0
 87 85  1  0
 87 86  1  0
 89 92  1  1
 89 90  1  0
 91 89  1  0
M  ISO  4   8 100  15 100  51 101  52 101
M  END
>  <TORSDO>  (88) 
F 17

>  <SCORE>  (88) 
-13.597

>  <name>  (88) 
87

>  <ligand_id>  (88) 
87

>  <original_smiles>  (88) 
[H]c1c([H])c([H])c2c(c1[H])C([H])([H])C([H])([H])C([H])([H])C2([H])N([H])C(=O)C1([H])N(C(=O)C([H])(N([H])C(=O)C([H])(N([H])C([H])([H])[H])C([H])([H])[H])C(C([H])([H])[H])(C([H])([H])[H])C([H])([H])[H])C([H])([H])c2c([H])c(OC([H])([H])C34C([H])([H])C([H])([H])C([H])([H])C([H])(C3([H])[H])C3(C([H])([H])[H])C([H])([H])C([H])([H])C([H])(C(=O)N5C([H])([H])C([H])([H])C([H])([H])C([H])(n6nc(-c7c([H])c([H])c(Oc8c([H])c([H])c(F)c([H])c8F)c([H])c7[H])c(C(=O)N([H])[H])c6N([H])[H])C5([H])[H])C3(C([H])([H])[H])C4([H])[H])c([H])c([H])c2C1([H])[H]

>  <smiles>  (88) 
[H]c1c([H])c([H])c2c(c1[H])C([H])([H])C([H])([H])C([H])([H])C2([H])N([H])C(=O)C1([H])N(C(=O)C([H])(N([H])C(=O)C([H])(N([H])C([H])([H])[H])C([H])([H])[H])C(C([H])([H])[H])(C([H])([H])[H])C([H])([H])[H])C([H])([H])c2c([H])c(OC([H])([H])C34C([H])([H])C([H])([H])C([H])([H])C([H])(C3([H])[H])C3(C([H])([H])[H])C([H])([H])C([H])([H])C([H])(C(=O)N5C([H])([H])C([H])([H])C([H])([H])C([H])(n6nc(-c7c([H])c([H])c(Oc8c([H])c([H])c(F)c([H])c8F)c([H])c7[H])c(C(=O)N([H])[H])c6N([H])[H])C5([H])[H])C3(C([H])([H])[H])C4([H])[H])c([H])c([H])c2C1([H])[H]

$$$$
88:0:0
     RDKit          3D

 92102  0  0  1  0  0  0  0  0999 V2000
  -29.7940  -19.8720   17.6250 C   0  0  0  0  0  0  0  0  0  0  0  0
  -30.5940  -19.3080   16.7040 C   0  0  0  0  0  2  0  0  0  0  0  0
  -26.0990  -19.9910   17.2100 C   0  0  0  0  0  2  0  0  0  0  0  0
  -27.4420  -19.5310   16.6430 C   0  0  0  0  0  2  0  0  0  0  0  0
  -28.5520  -18.0240   20.3140 C   0  0  0  0  0  2  0  0  0  0  0  0
  -26.4380  -20.3710   18.6520 C   0  0  0  0  0  2  0  0  0  0  0  0
  -28.4840  -19.6770   20.7480 C   0  0  0  0  0  2  0  0  0  0  0  0
  -30.7760  -18.5690   19.6990 C   0  0  0  0  0  2  0  0  0  0  0  0
  -28.4660  -20.4890   17.2680 C   0  0  0  0  0  3  0  0  0  0  0  0
  -30.1190  -20.0350   19.1070 C   0  0  0  0  0  3  0  0  0  0  0  0
  -29.9790  -17.2280   20.2540 C   0  0  0  0  0  3  0  0  0  0  0  0
  -27.8340  -21.0220   18.5500 C   0  0  0  0  0  3  0  0  0  0  0  0
  -28.8560  -20.9390   19.7310 C   0  0  1  0  0  0  0  0  0  0  0  0
  -30.5200  -15.5300   19.9820 C   0  0  0  0  0  0  0  0  0  0  0  0
  -30.4840  -13.0300   19.2140 C   0  0  0  0  0  2  0  0  0  0  0  0
  -29.5500  -12.7680   18.0060 C   0  0  0  0  0  2  0  0  0  0  0  0
  -28.1220  -12.4730   18.4900 C   0  0  0  0  0  2  0  0  0  0  0  0
  -27.6810  -13.4590   19.5990 C   0  0  0  0  0  3  0  0  0  0  0  0
  -28.7490  -13.7000   20.6880 C   0  0  0  0  0  2  0  0  0  0  0  0
  -29.9540  -14.2100   20.0140 N   0  0  0  0  0  0  0  0  0  0  0  0
  -31.7150  -15.4370   19.6540 O   0  0  0  0  0  0  0  0  0  0  0  0
  -25.3450  -13.9880   20.4560 C   0  0  0  0  0  0  0  0  0  0  0  0
  -24.3000  -13.2000   20.8470 C   0  0  0  0  0  0  0  0  0  0  0  0
  -24.7680  -11.8520   20.7750 C   0  0  0  0  0  0  0  0  0  0  0  0
  -26.3800  -13.1200   20.1580 N   0  0  0  0  0  0  0  0  0  0  0  0
  -26.0480  -11.8280   20.4180 N   0  0  0  0  0  0  0  0  0  0  0  0
  -24.0500  -10.5840   20.9670 C   0  0  0  0  0  0  0  0  0  0  0  0
  -24.4910   -9.6160   21.8960 C   0  0  0  0  0  3  0  0  0  0  0  0
  -23.7650   -8.4190   22.0800 C   0  0  0  0  0  3  0  0  0  0  0  0
  -22.5860   -8.1790   21.3360 C   0  0  0  0  0  0  0  0  0  0  0  0
  -22.1650   -9.1370   20.3970 C   0  0  0  0  0  3  0  0  0  0  0  0
  -22.8890  -10.3260   20.2100 C   0  0  0  0  0  3  0  0  0  0  0  0
  -21.8330   -7.0330   21.4280 O   0  0  0  0  0  0  0  0  0  0  0  0
  -21.7750   -6.3020   22.5870 C   0  0  0  0  0  0  0  0  0  0  0  0
  -21.2760   -6.8490   23.7890 C   0  0  0  0  0  3  0  0  0  0  0  0
  -21.1680   -6.0420   24.9400 C   0  0  0  0  0  3  0  0  0  0  0  0
  -21.5480   -4.6880   24.8890 C   0  0  0  0  0  0  0  0  0  0  0  0
  -22.0400   -4.1400   23.6910 C   0  0  0  0  0  3  0  0  0  0  0  0
  -22.1500   -4.9430   22.5430 C   0  0  0  0  0  0  0  0  0  0  0  0
  -22.6020   -4.4040   21.3860 F   0  0  0  0  0  0  0  0  0  0  0  0
  -21.4390   -3.9110   25.9910 F   0  0  0  0  0  0  0  0  0  0  0  0
  -22.9130  -13.6710   21.1750 C   0  0  0  0  0  0  0  0  0  0  0  0
  -22.2180  -12.9580   22.0530 N   0  0  0  0  0  0  0  0  0  0  0  0
  -22.4580  -14.7050   20.6870 O   0  0  0  0  0  0  0  0  0  0  0  0
  -22.6000  -12.1200   22.4630 H   0  0  0  0  0  0  0  0  0  0  0  0
  -21.2920  -13.2570   22.3240 H   0  0  0  0  0  0  0  0  0  0  0  0
  -25.5000  -15.3620   20.2980 N   0  0  0  0  0  0  0  0  0  0  0  0
  -24.7390  -16.0140   20.4500 H   0  0  0  0  0  0  0  0  0  0  0  0
  -26.3390  -15.8070   19.9470 H   0  0  0  0  0  0  0  0  0  0  0  0
  -29.0110  -22.7280   20.1770 C   0  0  0  0  0  3  0  0  0  0  0  0
  -28.0980  -24.2980   19.8670 C   0  0  0  0  0  3  0  0  0  0  0  0
  -28.3030  -25.9320   20.1740 O   0  0  0  0  0  0  0  0  0  0  0  0
  -24.7450  -31.8650   23.2980 C   0  0  0  0  0  0  0  0  0  0  0  0
  -27.3000  -27.0530   20.1320 C   0  0  0  0  0  0  0  0  0  0  0  0
  -23.5500  -30.5070   21.6320 C   0  0  0  0  0  3  0  0  0  0  0  0
  -24.9980  -28.9480   20.1520 C   0  0  0  0  0  0  0  0  0  0  0  0
  -26.1170  -30.7290   21.4740 C   0  0  0  0  0  2  0  0  0  0  0  0
  -26.1900  -29.3350   20.7760 C   0  0  0  0  0  0  0  0  0  0  0  0
  -27.3350  -28.4100   20.7410 C   0  0  0  0  0  3  0  0  0  0  0  0
  -26.0790  -26.8310   19.4580 C   0  0  0  0  0  3  0  0  0  0  0  0
  -24.9700  -27.7190   19.4710 C   0  0  0  0  0  3  0  0  0  0  0  0
  -23.7760  -29.8630   20.2350 C   0  0  0  0  0  2  0  0  0  0  0  0
  -24.8270  -31.0610   22.1880 N   0  0  0  0  0  0  0  0  0  0  0  0
  -23.6570  -32.1350   23.8330 O   0  0  0  0  0  0  0  0  0  0  0  0
  -22.8660  -29.4830   22.5740 C   0  0  0  0  0  0  0  0  0  0  0  0
  -21.5380  -29.3000   22.4400 N   0  0  0  0  0  0  0  0  0  0  0  0
  -23.5370  -28.8530   23.3950 O   0  0  0  0  0  0  0  0  0  0  0  0
  -21.0500  -29.8630   21.7580 H   0  0  0  0  0  0  0  0  0  0  0  0
  -18.1760  -28.0130   22.9030 C   0  0  0  0  0  0  0  0  0  0  0  0
  -20.7280  -28.3330   23.1890 C   0  0  0  0  0  3  0  0  0  0  0  0
  -20.8650  -26.9110   22.5940 C   0  0  0  0  0  2  0  0  0  0  0  0
  -19.7770  -26.5820   21.5650 C   0  0  0  0  0  2  0  0  0  0  0  0
  -18.3880  -26.6820   22.2010 C   0  0  0  0  0  2  0  0  0  0  0  0
  -19.2730  -28.7950   23.3520 C   0  0  0  0  0  0  0  0  0  0  0  0
  -19.0180  -30.0370   23.9720 C   0  0  0  0  0  3  0  0  0  0  0  0
  -17.6990  -30.4990   24.1440 C   0  0  0  0  0  3  0  0  0  0  0  0
  -16.6180  -29.7160   23.7080 C   0  0  0  0  0  3  0  0  0  0  0  0
  -16.8560  -28.4730   23.0940 C   0  0  0  0  0  3  0  0  0  0  0  0
  -26.0150  -32.5010   23.9420 C   0  0  0  0  0  3  0  0  0  0  0  0
  -25.7130  -33.9130   24.2470 N   0  0  0  0  0  0  0  0  0  0  0  0
  -26.0550  -34.9560   23.4800 C   0  0  0  0  0  0  0  0  0  0  0  0
  -26.7190  -34.8320   22.4470 O   0  0  0  0  0  0  0  0  0  0  0  0
  -25.1260  -34.0830   25.0500 H   0  0  0  0  0  0  0  0  0  0  0  0
  -24.3430  -36.7700   23.1250 C   0  0  0  0  0  1  0  0  0  0  0  0
  -25.5910  -36.3580   23.9240 C   0  0  0  0  0  3  0  0  0  0  0  0
  -27.7360  -37.2440   24.7290 C   0  0  0  0  0  1  0  0  0  0  0  0
  -26.6330  -37.3990   23.7850 N   0  0  0  0  0  0  0  0  0  0  0  0
  -26.2360  -38.3250   23.9130 H   0  0  0  0  0  0  0  0  0  0  0  0
  -26.4860  -31.7550   25.2510 C   0  0  1  0  0  0  0  0  0  0  0  0
  -25.3620  -31.5570   26.2960 C   0  0  0  0  0  1  0  0  0  0  0  0
  -27.0580  -30.3590   24.9160 C   0  0  0  0  0  1  0  0  0  0  0  0
  -27.6300  -32.5480   25.9240 C   0  0  0  0  0  1  0  0  0  0  0  0
  1 10  1  0
  2  1  2  0
  3  6  1  0
  4  3  1  0
  5  7  1  0
  8 11  1  0
  9  4  1  0
  9  1  1  0
  9 12  1  0
 10  8  1  0
 10 13  1  0
 11 14  1  0
 11  5  1  0
 12  6  1  0
 12 13  1  0
 13 50  1  1
 13  7  1  0
 14 20  1  0
 15 20  1  0
 16 17  1  0
 16 15  1  0
 18 17  1  0
 18 25  1  0
 18 19  1  0
 20 19  1  0
 21 14  2  0
 22 23  2  0
 23 42  1  0
 24 23  1  0
 24 27  1  0
 25 26  1  0
 25 22  1  0
 26 24  2  0
 27 28  1  0
 28 29  2  0
 30 33  1  0
 30 29  1  0
 31 30  2  0
 32 31  1  0
 32 27  2  0
 33 34  1  0
 34 35  1  0
 35 36  2  0
 37 36  1  0
 37 41  1  0
 38 37  2  0
 39 34  2  0
 39 38  1  0
 40 39  1  0
 42 43  1  0
 43 46  1  0
 43 45  1  0
 44 42  2  0
 47 48  1  0
 47 22  1  0
 49 47  1  0
 51 52  1  0
 51 50  2  0
 53 64  2  0
 54 52  1  0
 54 59  1  0
 55 63  1  0
 55 65  1  0
 56 62  1  0
 56 58  1  0
 57 63  1  0
 58 57  1  0
 59 58  2  0
 60 61  1  0
 60 54  2  0
 61 56  2  0
 62 55  1  0
 63 53  1  0
 65 67  2  0
 66 65  1  0
 68 66  1  0
 69 78  2  0
 69 74  1  0
 70 66  1  0
 70 74  1  0
 71 70  1  0
 72 73  1  0
 72 71  1  0
 73 69  1  0
 74 75  2  0
 75 76  1  0
 77 76  2  0
 78 77  1  0
 79 53  1  0
 79 80  1  0
 79 89  1  0
 80 83  1  0
 81 85  1  0
 81 80  1  0
 82 81  2  0
 85 84  1  0
 87 88  1  0
 87 85  1  0
 87 86  1  0
 89 92  1  1
 89 90  1  0
 91 89  1  0
M  ISO  4  11 100  14 100  51 101  52 101
M  END
>  <TORSDO>  (89) 
F 18

>  <SCORE>  (89) 
-16.523

>  <name>  (89) 
88

>  <ligand_id>  (89) 
88

>  <original_smiles>  (89) 
[H]C([H])=C1C2([H])C([H])([H])C([H])([H])C([H])([H])C2([H])C2(C([H])([H])C([H])([H])Oc3c([H])c([H])c4c(c3[H])C([H])([H])N(C(=O)C([H])(N([H])C(=O)C([H])(N([H])C([H])([H])[H])C([H])([H])[H])C(C([H])([H])[H])(C([H])([H])[H])C([H])([H])[H])C([H])(C(=O)N([H])C3([H])c5c([H])c([H])c([H])c([H])c5C([H])([H])C([H])([H])C3([H])[H])C4([H])[H])C([H])([H])C([H])([H])C([H])(C(=O)N3C([H])([H])C([H])([H])C([H])([H])C([H])(n4nc(-c5c([H])c([H])c(Oc6c([H])c([H])c(F)c([H])c6F)c([H])c5[H])c(C(=O)N([H])[H])c4N([H])[H])C3([H])[H])C([H])([H])C12[H]

>  <smiles>  (89) 
[H]C([H])=C1C2([H])C([H])([H])C([H])([H])C([H])([H])C2([H])C2(C([H])([H])C([H])([H])Oc3c([H])c([H])c4c(c3[H])C([H])([H])N(C(=O)C([H])(N([H])C(=O)C([H])(N([H])C([H])([H])[H])C([H])([H])[H])C(C([H])([H])[H])(C([H])([H])[H])C([H])([H])[H])C([H])(C(=O)N([H])C3([H])c5c([H])c([H])c([H])c([H])c5C([H])([H])C([H])([H])C3([H])[H])C4([H])[H])C([H])([H])C([H])([H])C([H])(C(=O)N3C([H])([H])C([H])([H])C([H])([H])C([H])(n4nc(-c5c([H])c([H])c(Oc6c([H])c([H])c(F)c([H])c6F)c([H])c5[H])c(C(=O)N([H])[H])c4N([H])[H])C3([H])[H])C([H])([H])C12[H]

$$$$
89:0:0
     RDKit          3D

 90 98  0  0  1  0  0  0  0  0999 V2000
  -29.5410  -21.5790   19.8410 C   0  0  0  0  0  3  0  0  0  0  0  0
  -31.2850  -23.4460   20.3010 C   0  0  0  0  0  1  0  0  0  0  0  0
  -31.3060  -21.4340   21.7340 C   0  0  0  0  0  1  0  0  0  0  0  0
  -32.0480  -21.3430   19.3020 C   0  0  0  0  0  1  0  0  0  0  0  0
  -31.0130  -21.9220   20.3000 C   0  0  1  0  0  0  0  0  0  0  0  0
  -28.2310  -19.8270   21.1460 C   0  0  0  0  0  1  0  0  0  0  0  0
  -29.1220  -19.9730   19.9740 N   0  0  2  0  0  4  0  0  0  0  0  0
  -28.4950  -19.8600   19.1910 H   0  0  0  0  0  0  0  0  0  0  0  0
  -29.8670  -17.8020   18.6250 C   0  0  0  0  0  2  0  0  0  0  0  0
  -29.7020  -16.8980   19.8490 C   0  0  0  0  0  3  0  0  0  0  0  0
  -30.0870  -18.6180   19.8700 C   0  0  0  0  0  3  0  0  0  0  0  0
  -30.5880  -15.4260   19.7290 C   0  0  0  0  0  0  0  0  0  0  0  0
  -30.5430  -12.9700   18.9280 C   0  0  0  0  0  2  0  0  0  0  0  0
  -29.5420  -12.7750   17.7610 C   0  0  0  0  0  2  0  0  0  0  0  0
  -28.1280  -12.4940   18.2960 C   0  0  0  0  0  2  0  0  0  0  0  0
  -27.7420  -13.4770   19.4280 C   0  0  0  0  0  3  0  0  0  0  0  0
  -28.8560  -13.6360   20.4840 C   0  0  0  0  0  2  0  0  0  0  0  0
  -30.0610  -14.1100   19.7870 N   0  0  0  0  0  0  0  0  0  0  0  0
  -31.7840  -15.4380   19.3990 O   0  0  0  0  0  0  0  0  0  0  0  0
  -25.4480  -14.0400   20.3950 C   0  0  0  0  0  0  0  0  0  0  0  0
  -24.4060  -13.2610   20.8200 C   0  0  0  0  0  0  0  0  0  0  0  0
  -24.8470  -11.9070   20.7020 C   0  0  0  0  0  0  0  0  0  0  0  0
  -26.4510  -13.1600   20.0310 N   0  0  0  0  0  0  0  0  0  0  0  0
  -26.1080  -11.8700   20.2810 N   0  0  0  0  0  0  0  0  0  0  0  0
  -24.1170  -10.6470   20.9030 C   0  0  0  0  0  0  0  0  0  0  0  0
  -24.5620   -9.6740   21.8260 C   0  0  0  0  0  3  0  0  0  0  0  0
  -23.8330   -8.4800   22.0140 C   0  0  0  0  0  3  0  0  0  0  0  0
  -22.6470   -8.2480   21.2780 C   0  0  0  0  0  0  0  0  0  0  0  0
  -22.2220   -9.2080   20.3440 C   0  0  0  0  0  3  0  0  0  0  0  0
  -22.9500  -10.3930   20.1530 C   0  0  0  0  0  3  0  0  0  0  0  0
  -21.8900   -7.1050   21.3790 O   0  0  0  0  0  0  0  0  0  0  0  0
  -21.8110   -6.3910   22.5480 C   0  0  0  0  0  0  0  0  0  0  0  0
  -21.2760   -6.9520   23.7270 C   0  0  0  0  0  3  0  0  0  0  0  0
  -21.1500   -6.1640   24.8880 C   0  0  0  0  0  3  0  0  0  0  0  0
  -21.5490   -4.8130   24.8680 C   0  0  0  0  0  0  0  0  0  0  0  0
  -22.0770   -4.2500   23.6930 C   0  0  0  0  0  3  0  0  0  0  0  0
  -22.2040   -5.0380   22.5340 C   0  0  0  0  0  0  0  0  0  0  0  0
  -22.6930   -4.4850   21.3990 F   0  0  0  0  0  0  0  0  0  0  0  0
  -21.4190   -4.0520   25.9800 F   0  0  0  0  0  0  0  0  0  0  0  0
  -23.0400  -13.7440   21.2160 C   0  0  0  0  0  0  0  0  0  0  0  0
  -22.3690  -13.0190   22.1040 N   0  0  0  0  0  0  0  0  0  0  0  0
  -22.5810  -14.7960   20.7730 O   0  0  0  0  0  0  0  0  0  0  0  0
  -22.7540  -12.1660   22.4820 H   0  0  0  0  0  0  0  0  0  0  0  0
  -21.4550  -13.3220   22.4100 H   0  0  0  0  0  0  0  0  0  0  0  0
  -25.6230  -15.4130   20.2570 N   0  0  0  0  0  0  0  0  0  0  0  0
  -24.8860  -16.0810   20.4530 H   0  0  0  0  0  0  0  0  0  0  0  0
  -26.4430  -15.8370   19.8430 H   0  0  0  0  0  0  0  0  0  0  0  0
  -28.4770  -23.0160   19.7530 C   0  0  0  0  0  2  0  0  0  0  0  0
  -28.2490  -24.5990   20.5370 C   0  0  0  0  0  2  0  0  0  0  0  0
  -28.3980  -26.1780   20.1990 O   0  0  0  0  0  0  0  0  0  0  0  0
  -24.6380  -31.9330   23.2480 C   0  0  0  0  0  0  0  0  0  0  0  0
  -27.3390  -27.2030   20.2150 C   0  0  0  0  0  0  0  0  0  0  0  0
  -23.4980  -30.5450   21.5650 C   0  0  0  0  0  3  0  0  0  0  0  0
  -25.0010  -28.9940   20.1530 C   0  0  0  0  0  0  0  0  0  0  0  0
  -26.0590  -30.8230   21.4640 C   0  0  0  0  0  2  0  0  0  0  0  0
  -26.1690  -29.4290   20.7920 C   0  0  0  0  0  0  0  0  0  0  0  0
  -27.3400  -28.5580   20.7920 C   0  0  0  0  0  3  0  0  0  0  0  0
  -26.1400  -26.8980   19.5390 C   0  0  0  0  0  3  0  0  0  0  0  0
  -25.0070  -27.7470   19.5080 C   0  0  0  0  0  3  0  0  0  0  0  0
  -23.7620  -29.8840   20.1850 C   0  0  0  0  0  2  0  0  0  0  0  0
  -24.7510  -31.1250   22.1470 N   0  0  0  0  0  0  0  0  0  0  0  0
  -23.5360  -32.1940   23.7560 O   0  0  0  0  0  0  0  0  0  0  0  0
  -22.8050  -29.5190   22.5000 C   0  0  0  0  0  0  0  0  0  0  0  0
  -21.4780  -29.3480   22.3580 N   0  0  0  0  0  0  0  0  0  0  0  0
  -23.4690  -28.8790   23.3190 O   0  0  0  0  0  0  0  0  0  0  0  0
  -20.9960  -29.9140   21.6740 H   0  0  0  0  0  0  0  0  0  0  0  0
  -18.0910  -28.1530   22.8510 C   0  0  0  0  0  0  0  0  0  0  0  0
  -20.6550  -28.3900   23.1010 C   0  0  0  0  0  3  0  0  0  0  0  0
  -20.7410  -26.9790   22.4720 C   0  0  0  0  0  2  0  0  0  0  0  0
  -19.6270  -26.7020   21.4570 C   0  0  0  0  0  2  0  0  0  0  0  0
  -18.2530  -26.8320   22.1190 C   0  0  0  0  0  2  0  0  0  0  0  0
  -19.2190  -28.8920   23.2980 C   0  0  0  0  0  0  0  0  0  0  0  0
  -19.0110  -30.1310   23.9440 C   0  0  0  0  0  3  0  0  0  0  0  0
  -17.7110  -30.6280   24.1490 C   0  0  0  0  0  3  0  0  0  0  0  0
  -16.5970  -29.8850   23.7170 C   0  0  0  0  0  3  0  0  0  0  0  0
  -16.7890  -28.6480   23.0750 C   0  0  0  0  0  3  0  0  0  0  0  0
  -25.8890  -32.5860   23.9130 C   0  0  0  0  0  3  0  0  0  0  0  0
  -25.5610  -33.9900   24.2110 N   0  0  0  0  0  0  0  0  0  0  0  0
  -25.9090  -35.0370   23.4510 C   0  0  0  0  0  0  0  0  0  0  0  0
  -26.6000  -34.9220   22.4360 O   0  0  0  0  0  0  0  0  0  0  0  0
  -24.9510  -34.1510   24.9980 H   0  0  0  0  0  0  0  0  0  0  0  0
  -24.1930  -36.8310   23.0340 C   0  0  0  0  0  1  0  0  0  0  0  0
  -25.4110  -36.4320   23.8820 C   0  0  0  0  0  3  0  0  0  0  0  0
  -27.5130  -37.3390   24.7740 C   0  0  0  0  0  1  0  0  0  0  0  0
  -26.4470  -37.4840   23.7850 N   0  0  0  0  0  0  0  0  0  0  0  0
  -26.0340  -38.4070   23.8990 H   0  0  0  0  0  0  0  0  0  0  0  0
  -26.3490  -31.8430   25.2290 C   0  0  1  0  0  0  0  0  0  0  0  0
  -25.2090  -31.6170   26.2500 C   0  0  0  0  0  1  0  0  0  0  0  0
  -26.9600  -30.4620   24.9000 C   0  0  0  0  0  1  0  0  0  0  0  0
  -27.4620  -32.6580   25.9280 C   0  0  0  0  0  1  0  0  0  0  0  0
  1 48  1  0
  1  7  1  0
  1  5  1  0
  5  4  1  6
  5  2  1  0
  5  3  1  0
  7  6  1  0
  7  8  1  6
  9 10  1  0
  9 11  1  0
 10 12  1  0
 10 11  1  0
 11  7  1  0
 12 18  1  0
 13 18  1  0
 14 15  1  0
 14 13  1  0
 16 15  1  0
 16 23  1  0
 16 17  1  0
 18 17  1  0
 19 12  2  0
 20 21  2  0
 21 40  1  0
 22 21  1  0
 22 25  1  0
 23 24  1  0
 23 20  1  0
 24 22  2  0
 25 26  1  0
 26 27  2  0
 28 31  1  0
 28 27  1  0
 29 28  2  0
 30 29  1  0
 30 25  2  0
 31 32  1  0
 32 33  1  0
 33 34  2  0
 35 34  1  0
 35 39  1  0
 36 35  2  0
 37 32  2  0
 37 36  1  0
 38 37  1  0
 40 41  1  0
 41 44  1  0
 41 43  1  0
 42 40  2  0
 45 20  1  0
 45 46  1  0
 47 45  1  0
 48 49  1  0
 50 52  1  0
 50 49  1  0
 51 62  2  0
 52 57  1  0
 53 61  1  0
 53 63  1  0
 54 60  1  0
 54 56  1  0
 55 61  1  0
 56 55  1  0
 57 56  2  0
 58 52  2  0
 59 58  1  0
 59 54  2  0
 60 53  1  0
 61 51  1  0
 63 65  2  0
 64 63  1  0
 66 64  1  0
 67 76  2  0
 67 72  1  0
 68 64  1  0
 68 72  1  0
 69 68  1  0
 70 71  1  0
 70 69  1  0
 71 67  1  0
 72 73  2  0
 73 74  1  0
 75 74  2  0
 76 75  1  0
 77 51  1  0
 77 78  1  0
 77 87  1  0
 78 81  1  0
 79 83  1  0
 79 78  1  0
 80 79  2  0
 83 82  1  0
 85 83  1  0
 85 86  1  0
 85 84  1  0
 87 90  1  1
 87 88  1  0
 89 87  1  0
M  ISO  4  10 100  12 100  49 101  50 101
M  END
>  <TORSDO>  (90) 
F 21

>  <SCORE>  (90) 
-14.004

>  <name>  (90) 
89

>  <ligand_id>  (90) 
89

>  <original_smiles>  (90) 
[H]c1c([H])c([H])c2c(c1[H])C([H])([H])C([H])([H])C([H])([H])C2([H])N([H])C(=O)C1([H])N(C(=O)C([H])(N([H])C(=O)C([H])(N([H])C([H])([H])[H])C([H])([H])[H])C(C([H])([H])[H])(C([H])([H])[H])C([H])([H])[H])C([H])([H])c2c([H])c(OC([H])([H])C([H])([H])C([H])(C(C([H])([H])[H])(C([H])([H])[H])C([H])([H])[H])[N+]([H])(C([H])([H])[H])C3([H])C([H])([H])C3([H])C(=O)N3C([H])([H])C([H])([H])C([H])([H])C([H])(n4nc(-c5c([H])c([H])c(Oc6c([H])c([H])c(F)c([H])c6F)c([H])c5[H])c(C(=O)N([H])[H])c4N([H])[H])C3([H])[H])c([H])c([H])c2C1([H])[H]

>  <smiles>  (90) 
[H]c1c([H])c([H])c2c(c1[H])C([H])([H])C([H])([H])C([H])([H])C2([H])N([H])C(=O)C1([H])N(C(=O)C([H])(N([H])C(=O)C([H])(N([H])C([H])([H])[H])C([H])([H])[H])C(C([H])([H])[H])(C([H])([H])[H])C([H])([H])[H])C([H])([H])c2c([H])c(OC([H])([H])C([H])([H])C([H])(C(C([H])([H])[H])(C([H])([H])[H])C([H])([H])[H])[N+]([H])(C([H])([H])[H])C3([H])C([H])([H])C3([H])C(=O)N3C([H])([H])C([H])([H])C([H])([H])C([H])(n4nc(-c5c([H])c([H])c(Oc6c([H])c([H])c(F)c([H])c6F)c([H])c5[H])c(C(=O)N([H])[H])c4N([H])[H])C3([H])[H])c([H])c([H])c2C1([H])[H]

$$$$
90:0:0
     RDKit          3D

 95104  0  0  1  0  0  0  0  0999 V2000
  -31.1560  -20.9270   19.0440 N   0  0  0  0  0  4  0  0  0  0  0  0
  -31.7230  -20.5990   18.2790 H   0  0  0  0  0  0  0  0  0  0  0  0
  -30.2680  -20.4580   18.9590 H   0  0  0  0  0  0  0  0  0  0  0  0
  -30.9410  -22.3780   18.8200 C   0  0  0  0  0  2  0  0  0  0  0  0
  -29.7050  -22.9470   19.5410 C   0  0  0  0  0  2  0  0  0  0  0  0
  -29.7480  -24.4820   19.6690 C   0  0  0  0  0  2  0  0  0  0  0  0
  -28.3500  -25.0790   19.8530 C   0  0  0  0  0  2  0  0  0  0  0  0
  -28.4250  -26.4400   20.2790 O   0  0  0  0  0  0  0  0  0  0  0  0
  -24.6920  -31.6600   23.3740 C   0  0  0  0  0  0  0  0  0  0  0  0
  -27.2520  -27.1680   20.2870 C   0  0  0  0  0  0  0  0  0  0  0  0
  -23.4750  -30.3130   21.6970 C   0  0  0  0  0  3  0  0  0  0  0  0
  -24.9030  -28.7450   20.2910 C   0  0  0  0  0  0  0  0  0  0  0  0
  -26.0160  -30.5920   21.5540 C   0  0  0  0  0  2  0  0  0  0  0  0
  -26.0680  -29.2250   20.9010 C   0  0  0  0  0  0  0  0  0  0  0  0
  -27.2450  -28.4430   20.9000 C   0  0  0  0  0  3  0  0  0  0  0  0
  -26.0570  -26.6970   19.6920 C   0  0  0  0  0  3  0  0  0  0  0  0
  -24.8910  -27.4780   19.6900 C   0  0  0  0  0  3  0  0  0  0  0  0
  -23.6900  -29.6440   20.3160 C   0  0  0  0  0  2  0  0  0  0  0  0
  -24.7450  -30.8680   22.2670 N   0  0  0  0  0  0  0  0  0  0  0  0
  -23.6090  -31.9650   23.8920 O   0  0  0  0  0  0  0  0  0  0  0  0
  -22.7740  -29.3030   22.6320 C   0  0  0  0  0  0  0  0  0  0  0  0
  -21.4570  -29.1220   22.4370 N   0  0  0  0  0  0  0  0  0  0  0  0
  -23.4120  -28.6830   23.4870 O   0  0  0  0  0  0  0  0  0  0  0  0
  -21.0050  -29.6750   21.7220 H   0  0  0  0  0  0  0  0  0  0  0  0
  -18.0690  -27.9080   22.7330 C   0  0  0  0  0  0  0  0  0  0  0  0
  -20.5990  -28.1970   23.1750 C   0  0  0  0  0  3  0  0  0  0  0  0
  -20.7520  -26.7520   22.6460 C   0  0  0  0  0  2  0  0  0  0  0  0
  -19.7270  -26.3920   21.5670 C   0  0  0  0  0  2  0  0  0  0  0  0
  -18.3020  -26.5430   22.1090 C   0  0  0  0  0  2  0  0  0  0  0  0
  -19.1490  -28.6910   23.2190 C   0  0  0  0  0  0  0  0  0  0  0  0
  -18.8800  -29.9690   23.7570 C   0  0  0  0  0  3  0  0  0  0  0  0
  -17.5650  -30.4630   23.8180 C   0  0  0  0  0  3  0  0  0  0  0  0
  -16.4970  -29.6760   23.3490 C   0  0  0  0  0  3  0  0  0  0  0  0
  -16.7500  -28.4010   22.8120 C   0  0  0  0  0  3  0  0  0  0  0  0
  -25.9850  -32.2430   24.0260 C   0  0  0  0  0  3  0  0  0  0  0  0
  -26.4540  -31.4450   25.3050 C   0  0  1  0  0  0  0  0  0  0  0  0
  -25.3340  -31.2350   26.3490 C   0  0  0  0  0  1  0  0  0  0  0  0
  -26.9990  -30.0530   24.9100 C   0  0  0  0  0  1  0  0  0  0  0  0
  -27.6140  -32.1980   25.9980 C   0  0  0  0  0  1  0  0  0  0  0  0
  -25.7190  -33.6480   24.3560 N   0  0  0  0  0  0  0  0  0  0  0  0
  -26.0990  -34.6910   23.6050 C   0  0  0  0  0  0  0  0  0  0  0  0
  -26.7830  -34.5680   22.5860 O   0  0  0  0  0  0  0  0  0  0  0  0
  -25.1180  -33.8220   25.1490 H   0  0  0  0  0  0  0  0  0  0  0  0
  -24.4310  -36.5350   23.2300 C   0  0  0  0  0  1  0  0  0  0  0  0
  -25.6470  -36.0920   24.0580 C   0  0  0  0  0  3  0  0  0  0  0  0
  -27.7910  -36.9130   24.9250 C   0  0  0  0  0  1  0  0  0  0  0  0
  -26.7110  -37.1130   23.9630 N   0  0  0  0  0  0  0  0  0  0  0  0
  -26.3300  -38.0440   24.1050 H   0  0  0  0  0  0  0  0  0  0  0  0
  -31.8120  -20.4760   20.3020 C   0  0  0  0  0  3  0  0  0  0  0  0
  -35.4600  -21.4250   19.4870 C   0  0  0  0  0  2  0  0  0  0  0  0
  -34.7440  -22.7730   19.6080 C   0  0  0  0  0  2  0  0  0  0  0  0
  -34.3370  -20.3870   19.5170 C   0  0  0  0  0  2  0  0  0  0  0  0
  -33.5100  -22.5080   20.4840 C   0  0  0  0  0  2  0  0  0  0  0  0
  -33.2840  -20.9770   20.4770 C   0  0  0  0  0  3  0  0  0  0  0  0
  -31.8310  -18.1930   21.6390 C   0  0  0  0  0  2  0  0  0  0  0  0
  -30.5850  -18.1230   20.7860 C   0  0  0  0  0  3  0  0  0  0  0  0
  -31.7850  -18.9480   20.3320 C   0  0  0  0  0  3  0  0  0  0  0  0
  -30.2300  -16.8540   20.0290 C   0  0  0  0  0  2  0  0  0  0  0  0
  -30.1310  -15.5750   20.9070 C   0  0  0  0  0  2  0  0  0  0  0  0
  -30.7100  -14.3350   20.1920 C   0  0  0  0  0  0  0  0  0  0  0  0
  -30.2870  -12.2190   19.0060 C   0  0  0  0  0  2  0  0  0  0  0  0
  -29.2950  -12.4900   17.8570 C   0  0  0  0  0  2  0  0  0  0  0  0
  -27.8420  -12.3740   18.3600 C   0  0  0  0  0  2  0  0  0  0  0  0
  -27.5900  -13.1850   19.6620 C   0  0  0  0  0  3  0  0  0  0  0  0
  -28.6960  -12.9060   20.7050 C   0  0  0  0  0  2  0  0  0  0  0  0
  -29.9940  -13.1850   20.0740 N   0  0  0  0  0  0  0  0  0  0  0  0
  -31.8080  -14.4690   19.6450 O   0  0  0  0  0  0  0  0  0  0  0  0
  -25.2340  -13.8200   20.4900 C   0  0  0  0  0  0  0  0  0  0  0  0
  -24.1720  -13.0570   20.9000 C   0  0  0  0  0  0  0  0  0  0  0  0
  -24.6110  -11.6990   20.8280 C   0  0  0  0  0  0  0  0  0  0  0  0
  -26.2550  -12.9260   20.1990 N   0  0  0  0  0  0  0  0  0  0  0  0
  -25.8840  -11.6450   20.4570 N   0  0  0  0  0  0  0  0  0  0  0  0
  -23.8740  -10.4450   21.0390 C   0  0  0  0  0  0  0  0  0  0  0  0
  -24.3340   -9.4620   21.9430 C   0  0  0  0  0  3  0  0  0  0  0  0
  -23.5990   -8.2730   22.1400 C   0  0  0  0  0  3  0  0  0  0  0  0
  -22.3920   -8.0590   21.4340 C   0  0  0  0  0  0  0  0  0  0  0  0
  -21.9510   -9.0320   20.5200 C   0  0  0  0  0  3  0  0  0  0  0  0
  -22.6850  -10.2120   20.3200 C   0  0  0  0  0  3  0  0  0  0  0  0
  -21.6270   -6.9220   21.5420 O   0  0  0  0  0  0  0  0  0  0  0  0
  -21.6240   -6.1620   22.6850 C   0  0  0  0  0  0  0  0  0  0  0  0
  -21.2550   -6.7020   23.9370 C   0  0  0  0  0  3  0  0  0  0  0  0
  -21.1950   -5.8690   25.0720 C   0  0  0  0  0  3  0  0  0  0  0  0
  -21.4980   -4.4990   24.9580 C   0  0  0  0  0  0  0  0  0  0  0  0
  -21.8620   -3.9600   23.7120 C   0  0  0  0  0  3  0  0  0  0  0  0
  -21.9210   -4.7890   22.5770 C   0  0  0  0  0  0  0  0  0  0  0  0
  -22.2520   -4.2590   21.3750 F   0  0  0  0  0  0  0  0  0  0  0  0
  -21.4350   -3.6980   26.0470 F   0  0  0  0  0  0  0  0  0  0  0  0
  -22.7980  -13.5520   21.2460 C   0  0  0  0  0  0  0  0  0  0  0  0
  -22.1030  -12.8580   22.1400 N   0  0  0  0  0  0  0  0  0  0  0  0
  -22.3520  -14.5910   20.7610 O   0  0  0  0  0  0  0  0  0  0  0  0
  -22.4770  -12.0180   22.5550 H   0  0  0  0  0  0  0  0  0  0  0  0
  -21.1830  -13.1720   22.4130 H   0  0  0  0  0  0  0  0  0  0  0  0
  -25.4110  -15.1910   20.3260 N   0  0  0  0  0  0  0  0  0  0  0  0
  -24.6590  -15.8530   20.4870 H   0  0  0  0  0  0  0  0  0  0  0  0
  -26.2570  -15.6260   19.9770 H   0  0  0  0  0  0  0  0  0  0  0  0
  2  1  1  0
  3  1  1  0
  4  1  1  0
  4  5  1  0
  5  6  1  0
  6  7  1  0
  7  8  1  0
  8 10  1  0
  9 20  2  0
 10 15  1  0
 11 19  1  0
 11 21  1  0
 12 18  1  0
 12 14  1  0
 13 19  1  0
 14 13  1  0
 15 14  2  0
 16 10  2  0
 17 16  1  0
 17 12  2  0
 18 11  1  0
 19  9  1  0
 21 23  2  0
 22 21  1  0
 24 22  1  0
 25 34  2  0
 25 30  1  0
 26 22  1  0
 26 30  1  0
 27 26  1  0
 28 29  1  0
 28 27  1  0
 29 25  1  0
 30 31  2  0
 31 32  1  0
 33 32  2  0
 34 33  1  0
 35  9  1  0
 35 40  1  0
 35 36  1  0
 36 39  1  1
 36 37  1  0
 38 36  1  0
 40 43  1  0
 41 45  1  0
 41 40  1  0
 42 41  2  0
 45 44  1  0
 47 45  1  0
 47 48  1  0
 47 46  1  0
 49  1  1  0
 49 54  1  0
 50 52  1  0
 50 51  1  0
 51 53  1  0
 52 54  1  0
 54 53  1  0
 56 58  1  0
 56 55  1  0
 57 49  1  0
 57 56  1  0
 57 55  1  0
 58 59  1  0
 60 59  1  0
 61 66  1  0
 62 63  1  0
 62 61  1  0
 64 63  1  0
 64 71  1  0
 64 65  1  0
 66 60  1  0
 66 65  1  0
 67 60  2  0
 68 69  2  0
 69 88  1  0
 70 69  1  0
 70 73  1  0
 71 72  1  0
 71 68  1  0
 72 70  2  0
 73 74  1  0
 74 75  2  0
 76 79  1  0
 76 75  1  0
 77 76  2  0
 78 77  1  0
 78 73  2  0
 79 80  1  0
 80 81  1  0
 81 82  2  0
 83 82  1  0
 83 87  1  0
 84 83  2  0
 85 80  2  0
 85 84  1  0
 86 85  1  0
 88 89  1  0
 89 92  1  0
 89 91  1  0
 90 88  2  0
 93 94  1  0
 93 68  1  0
 95 93  1  0
M  ISO  4   7 101   8 101  59 100  60 100
M  END
>  <TORSDO>  (91) 
F 25

>  <SCORE>  (91) 
-11.510

>  <name>  (91) 
90

>  <ligand_id>  (91) 
90

>  <original_smiles>  (91) 
[H]c1c([H])c([H])c2c(c1[H])C([H])([H])C([H])([H])C([H])([H])C2([H])N([H])C(=O)C1([H])N(C(=O)C([H])(N([H])C(=O)C([H])(N([H])C([H])([H])[H])C([H])([H])[H])C(C([H])([H])[H])(C([H])([H])[H])C([H])([H])[H])C([H])([H])c2c([H])c(OC([H])([H])C([H])([H])C([H])([H])C([H])([H])[N+]([H])([H])C([H])(C3([H])C([H])([H])C([H])([H])C([H])([H])C3([H])[H])C3([H])C([H])([H])C3([H])C([H])([H])C([H])([H])C(=O)N3C([H])([H])C([H])([H])C([H])([H])C([H])(n4nc(-c5c([H])c([H])c(Oc6c([H])c([H])c(F)c([H])c6F)c([H])c5[H])c(C(=O)N([H])[H])c4N([H])[H])C3([H])[H])c([H])c([H])c2C1([H])[H]

>  <smiles>  (91) 
[H]c1c([H])c([H])c2c(c1[H])C([H])([H])C([H])([H])C([H])([H])C2([H])N([H])C(=O)C1([H])N(C(=O)C([H])(N([H])C(=O)C([H])(N([H])C([H])([H])[H])C([H])([H])[H])C(C([H])([H])[H])(C([H])([H])[H])C([H])([H])[H])C([H])([H])c2c([H])c(OC([H])([H])C([H])([H])C([H])([H])C([H])([H])[N+]([H])([H])C([H])(C3([H])C([H])([H])C([H])([H])C([H])([H])C3([H])[H])C3([H])C([H])([H])C3([H])C([H])([H])C([H])([H])C(=O)N3C([H])([H])C([H])([H])C([H])([H])C([H])(n4nc(-c5c([H])c([H])c(Oc6c([H])c([H])c(F)c([H])c6F)c([H])c5[H])c(C(=O)N([H])[H])c4N([H])[H])C3([H])[H])c([H])c([H])c2C1([H])[H]

$$$$
91:0:0
     RDKit          3D

 86 93  0  0  1  0  0  0  0  0999 V2000
  -29.5190  -18.1190   20.0400 C   0  0  0  0  0  3  0  0  0  0  0  0
  -28.4160  -19.0700   20.2960 C   0  0  1  0  0  0  0  0  0  0  0  0
  -30.1820  -19.7630   19.9280 C   0  0  0  0  0  3  0  0  0  0  0  0
  -28.7580  -20.8330   19.8130 C   0  0  0  0  0  3  0  0  0  0  0  0
  -30.1400  -16.3240   20.0750 C   0  0  0  0  0  0  0  0  0  0  0  0
  -30.3740  -13.5950   19.4330 C   0  0  0  0  0  2  0  0  0  0  0  0
  -29.5770  -12.8770   18.2810 C   0  0  0  0  0  2  0  0  0  0  0  0
  -28.2100  -12.3910   18.7630 C   0  0  0  0  0  2  0  0  0  0  0  0
  -27.5860  -13.4640   19.6680 C   0  0  0  0  0  3  0  0  0  0  0  0
  -28.5390  -14.0950   20.7320 C   0  0  0  0  0  2  0  0  0  0  0  0
  -29.6480  -14.8590   20.0540 N   0  0  0  0  0  0  0  0  0  0  0  0
  -31.3740  -16.0640   19.9700 O   0  0  0  0  0  0  0  0  0  0  0  0
  -25.2410  -13.9510   20.4560 C   0  0  0  0  0  0  0  0  0  0  0  0
  -24.1860  -13.1690   20.8160 C   0  0  0  0  0  0  0  0  0  0  0  0
  -24.6550  -11.8180   20.7780 C   0  0  0  0  0  0  0  0  0  0  0  0
  -26.2880  -13.0880   20.2070 N   0  0  0  0  0  0  0  0  0  0  0  0
  -25.9500  -11.7910   20.4610 N   0  0  0  0  0  0  0  0  0  0  0  0
  -23.9170  -10.5570   20.9580 C   0  0  0  0  0  0  0  0  0  0  0  0
  -24.3270   -9.5870   21.8990 C   0  0  0  0  0  3  0  0  0  0  0  0
  -23.5830   -8.4000   22.0760 C   0  0  0  0  0  3  0  0  0  0  0  0
  -22.4100   -8.1760   21.3170 C   0  0  0  0  0  0  0  0  0  0  0  0
  -22.0160   -9.1360   20.3690 C   0  0  0  0  0  3  0  0  0  0  0  0
  -22.7600  -10.3140   20.1900 C   0  0  0  0  0  3  0  0  0  0  0  0
  -21.6380   -7.0430   21.4050 O   0  0  0  0  0  0  0  0  0  0  0  0
  -21.5630   -6.3080   22.5610 C   0  0  0  0  0  0  0  0  0  0  0  0
  -21.1040   -6.8680   23.7720 C   0  0  0  0  0  3  0  0  0  0  0  0
  -20.9780   -6.0580   24.9180 C   0  0  0  0  0  3  0  0  0  0  0  0
  -21.3030   -4.6910   24.8530 C   0  0  0  0  0  0  0  0  0  0  0  0
  -21.7540   -4.1300   23.6460 C   0  0  0  0  0  3  0  0  0  0  0  0
  -21.8790   -4.9370   22.5010 C   0  0  0  0  0  0  0  0  0  0  0  0
  -22.2960   -4.3850   21.3340 F   0  0  0  0  0  0  0  0  0  0  0  0
  -21.1750   -3.9120   25.9530 F   0  0  0  0  0  0  0  0  0  0  0  0
  -22.7880  -13.6490   21.0770 C   0  0  0  0  0  0  0  0  0  0  0  0
  -22.0600  -12.9650   21.9500 N   0  0  0  0  0  0  0  0  0  0  0  0
  -22.3550  -14.6710   20.5430 O   0  0  0  0  0  0  0  0  0  0  0  0
  -22.4260  -12.1410   22.4040 H   0  0  0  0  0  0  0  0  0  0  0  0
  -21.1210  -13.2640   22.1700 H   0  0  0  0  0  0  0  0  0  0  0  0
  -25.4000  -15.3240   20.2790 N   0  0  0  0  0  0  0  0  0  0  0  0
  -24.6300  -15.9740   20.4010 H   0  0  0  0  0  0  0  0  0  0  0  0
  -26.2580  -15.7760   19.9880 H   0  0  0  0  0  0  0  0  0  0  0  0
  -26.6150  -20.8130   18.2950 C   0  0  0  0  0  1  0  0  0  0  0  0
  -28.1670  -20.8380   18.3870 C   0  0  0  0  0  2  0  0  0  0  0  0
  -27.1820  -18.7810   20.7240 O   0  0  0  0  0  0  0  0  0  0  0  0
  -26.6080  -19.4690   20.4120 H   0  0  0  0  0  0  0  0  0  0  0  0
  -28.1610  -22.9430   20.2720 C   0  0  0  0  0 15  0  0  0  0  0  0
  -28.1080  -24.9180   20.0110 O   0  0  0  0  0  1  0  0  0  0  0  0
  -24.6060  -31.7170   22.9920 C   0  0  0  0  0  0  0  0  0  0  0  0
  -27.1580  -26.3080   20.0510 C   0  0  0  0  0  0  0  0  0  0  0  0
  -23.4470  -30.2990   21.3620 C   0  0  0  0  0  3  0  0  0  0  0  0
  -24.9110  -28.5820   19.9790 C   0  0  0  0  0  0  0  0  0  0  0  0
  -26.0410  -30.3560   21.2740 C   0  0  0  0  0  2  0  0  0  0  0  0
  -26.1160  -28.8760   20.6270 C   0  0  0  0  0  0  0  0  0  0  0  0
  -27.2050  -27.7850   20.6140 C   0  0  0  0  0  3  0  0  0  0  0  0
  -25.9080  -26.3350   19.3450 C   0  0  0  0  0  3  0  0  0  0  0  0
  -24.8720  -27.3430   19.3140 C   0  0  0  0  0  3  0  0  0  0  0  0
  -23.7080  -29.5670   20.0090 C   0  0  0  0  0  2  0  0  0  0  0  0
  -24.7270  -30.8350   21.9270 N   0  0  0  0  0  0  0  0  0  0  0  0
  -23.5010  -32.0160   23.4860 O   0  0  0  0  0  0  0  0  0  0  0  0
  -22.7080  -29.3470   22.3460 C   0  0  0  0  0  0  0  0  0  0  0  0
  -21.3710  -29.2180   22.2420 N   0  0  0  0  0  0  0  0  0  0  0  0
  -23.3610  -28.7130   23.1810 O   0  0  0  0  0  0  0  0  0  0  0  0
  -20.8900  -29.7810   21.5550 H   0  0  0  0  0  0  0  0  0  0  0  0
  -17.9820  -28.0270   22.8450 C   0  0  0  0  0  0  0  0  0  0  0  0
  -20.5520  -28.2710   23.0170 C   0  0  0  0  0  3  0  0  0  0  0  0
  -20.6180  -26.8510   22.4010 C   0  0  0  0  0  2  0  0  0  0  0  0
  -19.4740  -26.5690   21.4210 C   0  0  0  0  0  2  0  0  0  0  0  0
  -18.1210  -26.7000   22.1190 C   0  0  0  0  0  2  0  0  0  0  0  0
  -19.1200  -28.7720   23.2530 C   0  0  0  0  0  0  0  0  0  0  0  0
  -18.9290  -30.0100   23.9020 C   0  0  0  0  0  3  0  0  0  0  0  0
  -17.6330  -30.5050   24.1480 C   0  0  0  0  0  3  0  0  0  0  0  0
  -16.5100  -29.7590   23.7500 C   0  0  0  0  0  3  0  0  0  0  0  0
  -16.6850  -28.5230   23.1020 C   0  0  0  0  0  3  0  0  0  0  0  0
  -25.8380  -32.4060   23.6480 C   0  0  0  0  0  3  0  0  0  0  0  0
  -26.3600  -31.6390   24.9290 C   0  0  1  0  0  0  0  0  0  0  0  0
  -25.2620  -31.3530   25.9820 C   0  0  0  0  0  1  0  0  0  0  0  0
  -26.9960  -30.2860   24.5460 C   0  0  0  0  0  1  0  0  0  0  0  0
  -27.4730  -32.4650   25.6160 C   0  0  0  0  0  1  0  0  0  0  0  0
  -25.4660  -33.7880   24.0300 N   0  0  0  0  0  0  0  0  0  0  0  0
  -25.7740  -34.8980   23.3420 C   0  0  0  0  0  0  0  0  0  0  0  0
  -26.4470  -34.8640   22.3080 O   0  0  0  0  0  0  0  0  0  0  0  0
  -24.8580  -33.8810   24.8310 H   0  0  0  0  0  0  0  0  0  0  0  0
  -24.0040  -36.6820   23.1060 C   0  0  0  0  0  1  0  0  0  0  0  0
  -25.2630  -36.2540   23.8780 C   0  0  0  0  0  3  0  0  0  0  0  0
  -27.3660  -37.1770   24.7510 C   0  0  0  0  0  1  0  0  0  0  0  0
  -26.2750  -37.3310   23.7950 N   0  0  0  0  0  0  0  0  0  0  0  0
  -25.8530  -38.2430   23.9330 H   0  0  0  0  0  0  0  0  0  0  0  0
  1  5  1  0
  1  2  1  0
  2 43  1  1
  3  1  1  0
  3  2  1  0
  4  3  1  0
  4  2  1  0
  6 11  1  0
  7  8  1  0
  7  6  1  0
  8  9  1  0
  9 16  1  0
  9 10  1  0
 11  5  1  0
 11 10  1  0
 12  5  2  0
 13 14  2  0
 14 33  1  0
 15 14  1  0
 15 18  1  0
 16 13  1  0
 16 17  1  0
 17 15  2  0
 18 19  1  0
 19 20  2  0
 21 24  1  0
 21 20  1  0
 22 21  2  0
 23 22  1  0
 23 18  2  0
 24 25  1  0
 25 26  1  0
 26 27  2  0
 28 27  1  0
 28 32  1  0
 29 28  2  0
 30 25  2  0
 30 29  1  0
 31 30  1  0
 33 34  1  0
 34 37  1  0
 34 36  1  0
 35 33  2  0
 38 39  1  0
 38 13  1  0
 40 38  1  0
 41 42  1  0
 42  4  1  0
 44 43  1  0
 46 48  1  0
 47 58  2  0
 47 73  1  0
 48 53  1  0
 49 57  1  0
 49 59  1  0
 50 56  1  0
 50 52  1  0
 51 57  1  0
 52 51  1  0
 53 52  2  0
 54 48  2  0
 55 54  1  0
 55 50  2  0
 56 49  1  0
 57 47  1  0
 59 61  2  0
 60 59  1  0
 60 64  1  0
 62 60  1  0
 63 72  2  0
 63 68  1  0
 64 68  1  0
 65 64  1  0
 66 67  1  0
 66 65  1  0
 67 63  1  0
 68 69  2  0
 69 70  1  0
 71 70  2  0
 72 71  1  0
 73 78  1  0
 73 74  1  0
 74 77  1  1
 74 75  1  0
 76 74  1  0
 78 81  1  0
 79 83  1  0
 79 78  1  0
 80 79  2  0
 82 83  1  0
 85 83  1  0
 85 86  1  0
 85 84  1  0
M  ISO  4   1 100   5 100  45 101  46 101
M  END
>  <TORSDO>  (92) 
F 19

>  <SCORE>  (92) 
-16.277

>  <name>  (92) 
91

>  <ligand_id>  (92) 
91

>  <original_smiles>  (92) 
[H]OC1=C(C(=O)N2C([H])([H])C([H])([H])C([H])([H])C([H])(n3nc(-c4c([H])c([H])c(Oc5c([H])c([H])c(F)c([H])c5F)c([H])c4[H])c(C(=O)N([H])[H])c3N([H])[H])C2([H])[H])C([H])([H])C1(C([H])([H])Oc1c([H])c([H])c2c(c1[H])C([H])([H])N(C(=O)C([H])(N([H])C(=O)C([H])(N([H])C([H])([H])[H])C([H])([H])[H])C(C([H])([H])[H])(C([H])([H])[H])C([H])([H])[H])C([H])(C(=O)N([H])C1([H])c3c([H])c([H])c([H])c([H])c3C([H])([H])C([H])([H])C1([H])[H])C2([H])[H])C([H])([H])C([H])([H])[H]

>  <smiles>  (92) 
[H]OC1=C(C(=O)N2C([H])([H])C([H])([H])C([H])([H])C([H])(n3nc(-c4c([H])c([H])c(Oc5c([H])c([H])c(F)c([H])c5F)c([H])c4[H])c(C(=O)N([H])[H])c3N([H])[H])C2([H])[H])C([H])([H])C1(C([H])([H])Oc1c([H])c([H])c2c(c1[H])C([H])([H])N(C(=O)C([H])(N([H])C(=O)C([H])(N([H])C([H])([H])[H])C([H])([H])[H])C(C([H])([H])[H])(C([H])([H])[H])C([H])([H])[H])C([H])(C(=O)N([H])C1([H])c3c([H])c([H])c([H])c([H])c3C([H])([H])C([H])([H])C1([H])[H])C2([H])[H])C([H])([H])C([H])([H])[H]

$$$$
92:0:0
     RDKit          3D

 91100  0  0  1  0  0  0  0  0999 V2000
  -29.9150  -19.0400   18.1760 C   0  0  0  0  0  2  0  0  0  0  0  0
  -27.4120  -18.8470   17.7400 C   0  0  0  0  0  2  0  0  0  0  0  0
  -27.2390  -18.0170   20.0650 C   0  0  0  0  0  2  0  0  0  0  0  0
  -29.9920  -19.2790   19.6680 C   0  0  0  0  0  3  0  0  0  0  0  0
  -29.8360  -17.4660   20.2400 C   0  0  0  0  0  3  0  0  0  0  0  0
  -28.7090  -18.0790   18.0560 C   0  0  0  0  0  3  0  0  0  0  0  0
  -28.5010  -17.3540   19.4230 C   0  0  0  0  0  3  0  0  0  0  0  0
  -26.4450  -18.7460   18.9410 C   0  0  1  0  0  0  0  0  0  0  0  0
  -26.0000  -20.1360   19.4290 C   0  0  0  0  0  1  0  0  0  0  0  0
  -25.1730  -18.0090   18.4830 C   0  0  0  0  0  1  0  0  0  0  0  0
  -30.6450  -15.7810   20.0590 C   0  0  0  0  0  0  0  0  0  0  0  0
  -30.7540  -13.1980   19.3750 C   0  0  0  0  0  2  0  0  0  0  0  0
  -29.8540  -12.7790   18.1760 C   0  0  0  0  0  2  0  0  0  0  0  0
  -28.4380  -12.4140   18.6490 C   0  0  0  0  0  2  0  0  0  0  0  0
  -27.9210  -13.4440   19.6710 C   0  0  0  0  0  3  0  0  0  0  0  0
  -28.9540  -13.8280   20.7620 C   0  0  0  0  0  2  0  0  0  0  0  0
  -30.1510  -14.4030   20.1020 N   0  0  0  0  0  0  0  0  0  0  0  0
  -31.8640  -15.7160   19.8110 O   0  0  0  0  0  0  0  0  0  0  0  0
  -25.5960  -13.9900   20.5340 C   0  0  0  0  0  0  0  0  0  0  0  0
  -24.5210  -13.2510   20.9010 C   0  0  0  0  0  0  0  0  0  0  0  0
  -24.9500  -11.8960   20.7880 C   0  0  0  0  0  0  0  0  0  0  0  0
  -26.6100  -13.1160   20.2170 N   0  0  0  0  0  0  0  0  0  0  0  0
  -26.2330  -11.8320   20.4350 N   0  0  0  0  0  0  0  0  0  0  0  0
  -24.1840  -10.6610   20.9300 C   0  0  0  0  0  0  0  0  0  0  0  0
  -24.5420   -9.6850   21.8820 C   0  0  0  0  0  3  0  0  0  0  0  0
  -23.7750   -8.5100   22.0150 C   0  0  0  0  0  3  0  0  0  0  0  0
  -22.6380   -8.3100   21.1980 C   0  0  0  0  0  0  0  0  0  0  0  0
  -22.2980   -9.2780   20.2370 C   0  0  0  0  0  3  0  0  0  0  0  0
  -23.0660  -10.4450   20.1010 C   0  0  0  0  0  3  0  0  0  0  0  0
  -21.8480   -7.1870   21.2410 O   0  0  0  0  0  0  0  0  0  0  0  0
  -21.6560   -6.4920   22.4070 C   0  0  0  0  0  0  0  0  0  0  0  0
  -20.9940   -7.0620   23.5160 C   0  0  0  0  0  3  0  0  0  0  0  0
  -20.7590   -6.2890   24.6690 C   0  0  0  0  0  3  0  0  0  0  0  0
  -21.1760   -4.9440   24.7120 C   0  0  0  0  0  0  0  0  0  0  0  0
  -21.8320   -4.3740   23.6080 C   0  0  0  0  0  3  0  0  0  0  0  0
  -22.0700   -5.1460   22.4570 C   0  0  0  0  0  0  0  0  0  0  0  0
  -22.6840   -4.5860   21.3870 F   0  0  0  0  0  0  0  0  0  0  0  0
  -20.9410   -4.1970   25.8160 F   0  0  0  0  0  0  0  0  0  0  0  0
  -23.1530  -13.7760   21.2270 C   0  0  0  0  0  0  0  0  0  0  0  0
  -22.4090  -13.0640   22.0640 N   0  0  0  0  0  0  0  0  0  0  0  0
  -22.7560  -14.8550   20.7820 O   0  0  0  0  0  0  0  0  0  0  0  0
  -22.7460  -12.1920   22.4460 H   0  0  0  0  0  0  0  0  0  0  0  0
  -21.4910  -13.3940   22.3270 H   0  0  0  0  0  0  0  0  0  0  0  0
  -25.7710  -15.3400   20.4050 N   0  0  0  0  0  0  0  0  0  0  0  0
  -25.0000  -15.9830   20.5380 H   0  0  0  0  0  0  0  0  0  0  0  0
  -26.5970  -15.7870   20.0340 H   0  0  0  0  0  0  0  0  0  0  0  0
  -31.2190  -21.3610   20.6980 C   0  0  0  0  0  2  0  0  0  0  0  0
  -30.0500  -21.0280   20.1340 C   0  0  0  0  0  0  0  0  0  0  0  0
  -28.9340  -22.4470   20.0170 C   0  0  0  0  0  2  0  0  0  0  0  0
  -28.9390  -24.3020   19.6650 C   0  0  0  0  0  2  0  0  0  0  0  0
  -28.6370  -25.8760   20.2620 O   0  0  0  0  0  0  0  0  0  0  0  0
  -24.7680  -31.7640   23.2160 C   0  0  0  0  0  0  0  0  0  0  0  0
  -27.5790  -26.9700   20.1280 C   0  0  0  0  0  0  0  0  0  0  0  0
  -23.6610  -30.3700   21.5160 C   0  0  0  0  0  3  0  0  0  0  0  0
  -25.2010  -28.8270   20.0850 C   0  0  0  0  0  0  0  0  0  0  0  0
  -26.2270  -30.6360   21.4480 C   0  0  0  0  0  2  0  0  0  0  0  0
  -26.3610  -29.2380   20.7530 C   0  0  0  0  0  0  0  0  0  0  0  0
  -27.5270  -28.3290   20.7530 C   0  0  0  0  0  3  0  0  0  0  0  0
  -26.3800  -26.7370   19.4070 C   0  0  0  0  0  3  0  0  0  0  0  0
  -25.2420  -27.6000   19.3950 C   0  0  0  0  0  3  0  0  0  0  0  0
  -23.9500  -29.7160   20.1310 C   0  0  0  0  0  2  0  0  0  0  0  0
  -24.9050  -30.9530   22.1140 N   0  0  0  0  0  0  0  0  0  0  0  0
  -23.6570  -32.0090   23.7160 O   0  0  0  0  0  0  0  0  0  0  0  0
  -22.9640  -29.3410   22.4450 C   0  0  0  0  0  0  0  0  0  0  0  0
  -21.6390  -29.1540   22.2970 N   0  0  0  0  0  0  0  0  0  0  0  0
  -23.6280  -28.7080   23.2710 O   0  0  0  0  0  0  0  0  0  0  0  0
  -21.1540  -29.7180   21.6120 H   0  0  0  0  0  0  0  0  0  0  0  0
  -18.2640  -27.9070   22.7850 C   0  0  0  0  0  0  0  0  0  0  0  0
  -20.8260  -28.1750   23.0290 C   0  0  0  0  0  3  0  0  0  0  0  0
  -20.9270  -26.7750   22.3780 C   0  0  0  0  0  2  0  0  0  0  0  0
  -19.8140  -26.5010   21.3620 C   0  0  0  0  0  2  0  0  0  0  0  0
  -18.4400  -26.6000   22.0300 C   0  0  0  0  0  2  0  0  0  0  0  0
  -19.3840  -28.6540   23.2390 C   0  0  0  0  0  0  0  0  0  0  0  0
  -19.1620  -29.8750   23.9100 C   0  0  0  0  0  3  0  0  0  0  0  0
  -17.8560  -30.3520   24.1280 C   0  0  0  0  0  3  0  0  0  0  0  0
  -16.7520  -29.6020   23.6870 C   0  0  0  0  0  3  0  0  0  0  0  0
  -16.9560  -28.3820   23.0210 C   0  0  0  0  0  3  0  0  0  0  0  0
  -26.0000  -32.4340   23.8990 C   0  0  0  0  0  3  0  0  0  0  0  0
  -26.4230  -31.7240   25.2460 C   0  0  1  0  0  0  0  0  0  0  0  0
  -25.2560  -31.5310   26.2440 C   0  0  0  0  0  1  0  0  0  0  0  0
  -27.0340  -30.3310   24.9700 C   0  0  0  0  0  1  0  0  0  0  0  0
  -27.5230  -32.5520   25.9510 C   0  0  0  0  0  1  0  0  0  0  0  0
  -25.6660  -33.8470   24.1630 N   0  0  0  0  0  0  0  0  0  0  0  0
  -26.0660  -34.8850   23.4160 C   0  0  0  0  0  0  0  0  0  0  0  0
  -26.8120  -34.7540   22.4430 O   0  0  0  0  0  0  0  0  0  0  0  0
  -25.0110  -34.0220   24.9110 H   0  0  0  0  0  0  0  0  0  0  0  0
  -24.4230  -36.7150   22.8640 C   0  0  0  0  0  1  0  0  0  0  0  0
  -25.5610  -36.2900   23.8060 C   0  0  0  0  0  3  0  0  0  0  0  0
  -27.5950  -37.1670   24.8700 C   0  0  0  0  0  1  0  0  0  0  0  0
  -26.6210  -37.3230   23.7940 N   0  0  0  0  0  0  0  0  0  0  0  0
  -26.2180  -38.2550   23.8630 H   0  0  0  0  0  0  0  0  0  0  0  0
  1  4  1  0
  2  8  1  0
  4 48  1  0
  4  5  1  0
  5 11  1  0
  6  2  1  0
  6  1  1  0
  6  7  1  0
  7  3  1  0
  7  5  1  0
  8  9  1  1
  8  3  1  0
 10  8  1  0
 11 17  1  0
 12 17  1  0
 13 14  1  0
 13 12  1  0
 15 14  1  0
 15 22  1  0
 15 16  1  0
 17 16  1  0
 18 11  2  0
 19 20  2  0
 20 39  1  0
 21 20  1  0
 21 24  1  0
 22 23  1  0
 22 19  1  0
 23 21  2  0
 24 25  1  0
 25 26  2  0
 27 30  1  0
 27 26  1  0
 28 27  2  0
 29 28  1  0
 29 24  2  0
 30 31  1  0
 31 36  2  0
 31 32  1  0
 32 33  2  0
 33 34  1  0
 34 38  1  0
 35 34  2  0
 36 35  1  0
 37 36  1  0
 39 40  1  0
 40 43  1  0
 40 42  1  0
 41 39  2  0
 44 19  1  0
 44 45  1  0
 46 44  1  0
 48 47  2  0
 49 48  1  0
 50 49  1  0
 50 51  1  0
 52 63  2  0
 53 51  1  0
 53 58  1  0
 54 62  1  0
 54 64  1  0
 55 61  1  0
 55 57  1  0
 56 62  1  0
 57 58  2  0
 57 56  1  0
 59 53  2  0
 60 59  1  0
 60 55  2  0
 61 54  1  0
 62 52  1  0
 64 66  2  0
 65 64  1  0
 67 65  1  0
 68 77  2  0
 68 73  1  0
 69 65  1  0
 69 73  1  0
 70 69  1  0
 71 72  1  0
 71 70  1  0
 72 68  1  0
 73 74  2  0
 74 75  1  0
 76 75  2  0
 77 76  1  0
 78 52  1  0
 78 83  1  0
 78 79  1  0
 79 82  1  1
 79 80  1  0
 81 79  1  0
 83 86  1  0
 84 88  1  0
 84 83  1  0
 85 84  2  0
 88 87  1  0
 90 88  1  0
 90 91  1  0
 90 89  1  0
M  ISO  4   5 100  11 100  50 101  51 101
M  END
>  <TORSDO>  (93) 
F 19

>  <SCORE>  (93) 
-12.720

>  <name>  (93) 
92

>  <ligand_id>  (93) 
92

>  <original_smiles>  (93) 
[H]C([H])=C(C([H])([H])C([H])([H])Oc1c([H])c([H])c2c(c1[H])C([H])([H])N(C(=O)C([H])(N([H])C(=O)C([H])(N([H])C([H])([H])[H])C([H])([H])[H])C(C([H])([H])[H])(C([H])([H])[H])C([H])([H])[H])C([H])(C(=O)N([H])C1([H])c3c([H])c([H])c([H])c([H])c3C([H])([H])C([H])([H])C1([H])[H])C2([H])[H])C1([H])C([H])([H])C2([H])C([H])([H])C(C([H])([H])[H])(C([H])([H])[H])C([H])([H])C2([H])C1([H])C(=O)N1C([H])([H])C([H])([H])C([H])([H])C([H])(n2nc(-c3c([H])c([H])c(Oc4c([H])c([H])c(F)c([H])c4F)c([H])c3[H])c(C(=O)N([H])[H])c2N([H])[H])C1([H])[H]

>  <smiles>  (93) 
[H]C([H])=C(C([H])([H])C([H])([H])Oc1c([H])c([H])c2c(c1[H])C([H])([H])N(C(=O)C([H])(N([H])C(=O)C([H])(N([H])C([H])([H])[H])C([H])([H])[H])C(C([H])([H])[H])(C([H])([H])[H])C([H])([H])[H])C([H])(C(=O)N([H])C1([H])c3c([H])c([H])c([H])c([H])c3C([H])([H])C([H])([H])C1([H])[H])C2([H])[H])C1([H])C([H])([H])C2([H])C([H])([H])C(C([H])([H])[H])(C([H])([H])[H])C([H])([H])C2([H])C1([H])C(=O)N1C([H])([H])C([H])([H])C([H])([H])C([H])(n2nc(-c3c([H])c([H])c(Oc4c([H])c([H])c(F)c([H])c4F)c([H])c3[H])c(C(=O)N([H])[H])c2N([H])[H])C1([H])[H]

$$$$
93:0:0
     RDKit          3D

 93102  0  0  1  0  0  0  0  0999 V2000
  -30.6640  -23.3680   21.0600 C   0  0  0  0  0  2  0  0  0  0  0  0
  -29.5170  -24.0450   21.8140 C   0  0  0  0  0  2  0  0  0  0  0  0
  -27.2850  -23.0650   20.7610 C   0  0  0  0  0  2  0  0  0  0  0  0
  -29.0040  -21.2670   20.8080 C   0  0  0  0  0  3  0  0  0  0  0  0
  -29.5950  -22.6260   20.2510 C   0  0  0  0  0  3  0  0  0  0  0  0
  -28.6210  -23.8230   20.5740 C   0  0  2  0  0  0  0  0  0  0  0  0
  -27.5560  -21.5840   20.8520 N   0  0  0  0  0  4  0  0  0  0  0  0
  -27.1500  -21.1330   20.0470 H   0  0  0  0  0  0  0  0  0  0  0  0
  -27.1370  -21.1750   21.6700 H   0  0  0  0  0  0  0  0  0  0  0  0
  -29.3330  -19.9040   20.0430 C   0  0  0  0  0  0  0  0  0  0  0  0
  -29.5960  -18.7220   20.7080 N   0  0  0  0  0  0  0  0  0  0  0  0
  -29.3340  -19.9220   18.8100 O   0  0  0  0  0  0  0  0  0  0  0  0
  -29.5700  -18.7660   21.7190 H   0  0  0  0  0  0  0  0  0  0  0  0
  -30.0380  -17.3910   20.1140 C   0  0  0  0  0  3  0  0  0  0  0  0
  -29.8380  -16.0320   20.9550 C   0  0  0  0  0  3  0  0  0  0  0  0
  -30.5870  -14.7030   20.4760 C   0  0  0  0  0  0  0  0  0  0  0  0
  -30.3970  -12.4420   19.4350 C   0  0  0  0  0  2  0  0  0  0  0  0
  -29.4740  -12.5490   18.1990 C   0  0  0  0  0  2  0  0  0  0  0  0
  -27.9960  -12.3880   18.6050 C   0  0  0  0  0  2  0  0  0  0  0  0
  -27.6160  -13.2670   19.8270 C   0  0  0  0  0  3  0  0  0  0  0  0
  -28.6550  -13.1370   20.9610 C   0  0  0  0  0  2  0  0  0  0  0  0
  -29.9700  -13.4760   20.4030 N   0  0  0  0  0  0  0  0  0  0  0  0
  -31.7490  -14.8180   20.0730 O   0  0  0  0  0  0  0  0  0  0  0  0
  -25.2120  -13.8730   20.5020 C   0  0  0  0  0  0  0  0  0  0  0  0
  -24.1380  -13.1050   20.8640 C   0  0  0  0  0  0  0  0  0  0  0  0
  -24.6000  -11.7540   20.8580 C   0  0  0  0  0  0  0  0  0  0  0  0
  -26.2600  -12.9900   20.2950 N   0  0  0  0  0  0  0  0  0  0  0  0
  -25.8950  -11.7100   20.5700 N   0  0  0  0  0  0  0  0  0  0  0  0
  -23.8690  -10.4950   21.0520 C   0  0  0  0  0  0  0  0  0  0  0  0
  -24.3020   -9.5260   21.9850 C   0  0  0  0  0  3  0  0  0  0  0  0
  -23.5710   -8.3320   22.1680 C   0  0  0  0  0  3  0  0  0  0  0  0
  -22.3950   -8.0980   21.4160 C   0  0  0  0  0  0  0  0  0  0  0  0
  -21.9820   -9.0550   20.4720 C   0  0  0  0  0  3  0  0  0  0  0  0
  -22.7120  -10.2400   20.2880 C   0  0  0  0  0  3  0  0  0  0  0  0
  -21.6360   -6.9560   21.5080 O   0  0  0  0  0  0  0  0  0  0  0  0
  -21.6070   -6.2010   22.6530 C   0  0  0  0  0  0  0  0  0  0  0  0
  -21.2280   -6.7500   23.8980 C   0  0  0  0  0  3  0  0  0  0  0  0
  -21.1440   -5.9220   25.0360 C   0  0  0  0  0  3  0  0  0  0  0  0
  -21.4300   -4.5480   24.9300 C   0  0  0  0  0  0  0  0  0  0  0  0
  -21.8020   -3.9990   23.6910 C   0  0  0  0  0  3  0  0  0  0  0  0
  -21.8880   -4.8230   22.5550 C   0  0  0  0  0  0  0  0  0  0  0  0
  -22.2270   -4.2860   21.3580 F   0  0  0  0  0  0  0  0  0  0  0  0
  -21.3420   -3.7510   26.0210 F   0  0  0  0  0  0  0  0  0  0  0  0
  -22.7370  -13.5890   21.1050 C   0  0  0  0  0  0  0  0  0  0  0  0
  -21.9930  -12.9060   21.9700 N   0  0  0  0  0  0  0  0  0  0  0  0
  -22.3100  -14.6060   20.5620 O   0  0  0  0  0  0  0  0  0  0  0  0
  -22.3510  -12.0850   22.4340 H   0  0  0  0  0  0  0  0  0  0  0  0
  -21.0510  -13.2130   22.1710 H   0  0  0  0  0  0  0  0  0  0  0  0
  -25.3810  -15.2410   20.3110 N   0  0  0  0  0  0  0  0  0  0  0  0
  -24.6150  -15.8990   20.4000 H   0  0  0  0  0  0  0  0  0  0  0  0
  -26.2400  -15.6730   19.9920 H   0  0  0  0  0  0  0  0  0  0  0  0
  -28.4820  -25.1270   19.6410 C   0  0  0  0  0  2  0  0  0  0  0  0
  -28.3670  -26.4950   20.2240 O   0  0  0  0  0  0  0  0  0  0  0  0
  -24.6220  -31.8780   23.2300 C   0  0  0  0  0  0  0  0  0  0  0  0
  -27.2180  -27.3060   20.1590 C   0  0  0  0  0  0  0  0  0  0  0  0
  -23.4060  -30.4760   21.6010 C   0  0  0  0  0  3  0  0  0  0  0  0
  -24.8460  -28.9200   20.1680 C   0  0  0  0  0  0  0  0  0  0  0  0
  -25.9440  -30.7940   21.3960 C   0  0  0  0  0  2  0  0  0  0  0  0
  -26.0180  -29.4130   20.7510 C   0  0  0  0  0  0  0  0  0  0  0  0
  -27.2030  -28.6160   20.7380 C   0  0  0  0  0  3  0  0  0  0  0  0
  -26.0160  -26.8630   19.5630 C   0  0  0  0  0  3  0  0  0  0  0  0
  -24.8480  -27.6510   19.5660 C   0  0  0  0  0  3  0  0  0  0  0  0
  -23.6100  -29.7960   20.2220 C   0  0  0  0  0  2  0  0  0  0  0  0
  -24.6770  -31.0680   22.1320 N   0  0  0  0  0  0  0  0  0  0  0  0
  -23.5420  -32.1560   23.7710 O   0  0  0  0  0  0  0  0  0  0  0  0
  -22.7520  -29.4610   22.5680 C   0  0  0  0  0  0  0  0  0  0  0  0
  -21.4250  -29.2810   22.4480 N   0  0  0  0  0  0  0  0  0  0  0  0
  -23.4350  -28.8390   23.3860 O   0  0  0  0  0  0  0  0  0  0  0  0
  -20.9320  -29.8350   21.7620 H   0  0  0  0  0  0  0  0  0  0  0  0
  -18.0570  -28.0630   22.9530 C   0  0  0  0  0  0  0  0  0  0  0  0
  -20.6130  -28.3440   23.2250 C   0  0  0  0  0  3  0  0  0  0  0  0
  -20.7250  -26.9080   22.6630 C   0  0  0  0  0  2  0  0  0  0  0  0
  -19.6280  -26.5690   21.6490 C   0  0  0  0  0  2  0  0  0  0  0  0
  -18.2440  -26.7100   22.2900 C   0  0  0  0  0  2  0  0  0  0  0  0
  -19.1690  -28.8370   23.3780 C   0  0  0  0  0  0  0  0  0  0  0  0
  -18.9390  -30.1050   23.9590 C   0  0  0  0  0  3  0  0  0  0  0  0
  -17.6300  -30.5970   24.1170 C   0  0  0  0  0  3  0  0  0  0  0  0
  -16.5320  -29.8210   23.7080 C   0  0  0  0  0  3  0  0  0  0  0  0
  -16.7460  -28.5560   23.1310 C   0  0  0  0  0  3  0  0  0  0  0  0
  -25.9080  -32.5120   23.8420 C   0  0  0  0  0  3  0  0  0  0  0  0
  -26.4400  -31.7380   25.1110 C   0  0  1  0  0  0  0  0  0  0  0  0
  -25.3580  -31.4970   26.1900 C   0  0  0  0  0  1  0  0  0  0  0  0
  -27.0190  -30.3610   24.7080 C   0  0  0  0  0  1  0  0  0  0  0  0
  -27.5960  -32.5310   25.7640 C   0  0  0  0  0  1  0  0  0  0  0  0
  -25.5970  -33.9080   24.1820 N   0  0  0  0  0  0  0  0  0  0  0  0
  -25.9170  -34.9670   23.4270 C   0  0  0  0  0  0  0  0  0  0  0  0
  -26.5770  -34.8720   22.3880 O   0  0  0  0  0  0  0  0  0  0  0  0
  -25.0120  -34.0550   24.9920 H   0  0  0  0  0  0  0  0  0  0  0  0
  -24.1780  -36.7560   23.1060 C   0  0  0  0  0  1  0  0  0  0  0  0
  -25.4310  -36.3510   23.8990 C   0  0  0  0  0  3  0  0  0  0  0  0
  -27.5750  -37.2390   24.7030 C   0  0  0  0  0  1  0  0  0  0  0  0
  -26.4580  -37.4090   23.7780 N   0  0  0  0  0  0  0  0  0  0  0  0
  -26.0500  -38.3260   23.9370 H   0  0  0  0  0  0  0  0  0  0  0  0
  1  2  1  0
  3  7  1  0
  4 10  1  0
  4  7  1  0
  5  6  1  0
  5  4  1  0
  5  1  1  0
  6 52  1  6
  6  3  1  0
  6  2  1  0
  7  9  1  0
  8  7  1  0
 10 11  1  0
 11 13  1  0
 12 10  2  0
 14 11  1  0
 14 15  2  0
 16 15  1  0
 17 22  1  0
 18 19  1  0
 18 17  1  0
 20 19  1  0
 20 27  1  0
 20 21  1  0
 22 16  1  0
 22 21  1  0
 23 16  2  0
 24 25  2  0
 25 44  1  0
 26 25  1  0
 26 29  1  0
 27 24  1  0
 27 28  1  0
 28 26  2  0
 29 30  1  0
 30 31  2  0
 32 35  1  0
 32 31  1  0
 33 32  2  0
 34 33  1  0
 34 29  2  0
 35 36  1  0
 36 37  1  0
 37 38  2  0
 39 38  1  0
 39 43  1  0
 40 39  2  0
 41 36  2  0
 41 40  1  0
 42 41  1  0
 44 45  1  0
 45 48  1  0
 45 47  1  0
 46 44  2  0
 49 50  1  0
 49 24  1  0
 51 49  1  0
 52 53  1  0
 54 65  2  0
 55 53  1  0
 55 60  1  0
 56 64  1  0
 56 66  1  0
 57 63  1  0
 57 59  1  0
 58 64  1  0
 59 58  1  0
 60 59  2  0
 61 62  1  0
 61 55  2  0
 62 57  2  0
 63 56  1  0
 64 54  1  0
 66 68  2  0
 67 66  1  0
 69 67  1  0
 70 79  2  0
 70 75  1  0
 71 67  1  0
 71 75  1  0
 72 71  1  0
 73 74  1  0
 73 72  1  0
 74 70  1  0
 75 76  2  0
 76 77  1  0
 78 77  2  0
 79 78  1  0
 80 54  1  0
 80 85  1  0
 80 81  1  0
 81 84  1  1
 81 82  1  0
 83 81  1  0
 85 88  1  0
 86 90  1  0
 86 85  1  0
 87 86  2  0
 90 89  1  0
 92 90  1  0
 92 93  1  0
 92 91  1  0
M  ISO  4  15 100  16 100  52 101  53 101
M  END
>  <TORSDO>  (94) 
F 20

>  <SCORE>  (94) 
-14.207

>  <name>  (94) 
93

>  <ligand_id>  (94) 
93

>  <original_smiles>  (94) 
[H]c1c([H])c([H])c2c(c1[H])C([H])([H])C([H])([H])C([H])([H])C2([H])N([H])C(=O)C1([H])N(C(=O)C([H])(N([H])C(=O)C([H])(N([H])C([H])([H])[H])C([H])([H])[H])C(C([H])([H])[H])(C([H])([H])[H])C([H])([H])[H])C([H])([H])c2c([H])c(OC([H])([H])C34C([H])([H])C([H])([H])C3([H])C([H])(C(=O)N([H])C([H])([H])C([H])([H])C(=O)N3C([H])([H])C([H])([H])C([H])([H])C([H])(n5nc(-c6c([H])c([H])c(Oc7c([H])c([H])c(F)c([H])c7F)c([H])c6[H])c(C(=O)N([H])[H])c5N([H])[H])C3([H])[H])[N+]([H])([H])C4([H])[H])c([H])c([H])c2C1([H])[H]

>  <smiles>  (94) 
[H]c1c([H])c([H])c2c(c1[H])C([H])([H])C([H])([H])C([H])([H])C2([H])N([H])C(=O)C1([H])N(C(=O)C([H])(N([H])C(=O)C([H])(N([H])C([H])([H])[H])C([H])([H])[H])C(C([H])([H])[H])(C([H])([H])[H])C([H])([H])[H])C([H])([H])c2c([H])c(OC([H])([H])C34C([H])([H])C([H])([H])C3([H])C([H])(C(=O)N([H])C([H])([H])C([H])([H])C(=O)N3C([H])([H])C([H])([H])C([H])([H])C([H])(n5nc(-c6c([H])c([H])c(Oc7c([H])c([H])c(F)c([H])c7F)c([H])c6[H])c(C(=O)N([H])[H])c5N([H])[H])C3([H])[H])[N+]([H])([H])C4([H])[H])c([H])c([H])c2C1([H])[H]

$$$$
94:0:0
     RDKit          3D

102101  0  0  1  0  0  0  0  0999 V2000
  -17.1880  -24.3200   18.7410 C   0  0  0  0  0  2  0  0  0  0  0  0
  -18.7810  -24.0000   22.0330 C   0  0  0  0  0  3  0  0  0  0  0  0
  -18.5470  -23.3720   18.5020 C   0  0  0  0  0  2  0  0  0  0  0  0
  -17.8220  -25.4790   22.0020 C   0  0  0  0  0  3  0  0  0  0  0  0
  -18.0100  -26.8650   17.3150 C   0  0  0  0  0 15  0  0  0  0  0  0
  -19.7540  -27.9870   17.6560 C   0  0  0  0  0 15  0  0  0  0  0  0
  -22.7410  -23.9390   20.6300 C   0  0  0  0  0  2  0  0  0  0  0  0
  -17.0130  -26.0000   18.9000 C   0  0  0  0  0  1  0  0  0  0  0  0
  -19.9750  -23.4620   20.9050 C   0  0  0  0  0  3  0  0  0  0  0  0
  -19.9400  -23.5640   19.3330 C   0  0  0  0  0  3  0  0  0  0  0  0
  -17.7570  -26.6540   20.7230 C   0  0  0  0  0  1  0  0  0  0  0  0
  -21.4900  -23.0680   20.5090 C   0  0  0  0  0  3  0  0  0  0  0  0
  -22.7310  -24.8380   19.2520 C   0  0  0  0  0  2  0  0  0  0  0  0
  -21.5640  -23.5500   18.9910 C   0  0  2  0  0  0  0  0  0  0  0  0
  -20.8850  -27.8100   19.5560 C   0  0  0  0  0  1  0  0  0  0  0  0
  -21.9400  -22.5740   17.8610 C   0  0  0  0  0  1  0  0  0  0  0  0
  -21.8150  -28.0080   18.3810 C   0  0  0  0  0  1  0  0  0  0  0  0
  -23.2420  -28.0820   21.6180 C   0  0  0  0  0  1  0  0  0  0  0  0
  -23.0100  -26.8530   20.7270 C   0  0  0  0  0  1  0  0  0  0  0  0
  -24.9190  -25.7010   21.0570 N   0  0  0  0  0  2  0  0  0  0  0  0
  -25.4790  -26.4690   20.7200 H   0  0  0  0  0  0  0  0  0  0  0  0
  -25.0010  -25.8210   22.0580 H   0  0  0  0  0  0  0  0  0  0  0  0
  -26.5370  -24.2120   20.8350 C   0  0  0  0  0 15  0  0  0  0  0  0
  -28.3960  -22.6240   21.5710 C   0  0  0  0  0 15  0  0  0  0  0  0
  -30.4580  -21.3930   21.6840 C   0  0  0  0  0  2  0  0  0  0  0  0
  -32.7230  -19.3550   21.4280 C   0  0  0  0  0  2  0  0  0  0  0  0
  -33.0160  -18.3120   20.2330 C   0  0  0  0  0  2  0  0  0  0  0  0
  -32.0170  -17.1540   20.2010 C   0  0  0  0  0  2  0  0  0  0  0  0
  -30.6960  -17.7440   20.6970 C   0  0  0  0  0  3  0  0  0  0  0  0
  -30.7250  -18.5600   22.0130 C   0  0  0  0  0  2  0  0  0  0  0  0
  -31.1880  -19.9380   21.6690 N   0  0  0  0  0  0  0  0  0  0  0  0
  -31.6500  -21.8810   21.8700 O   0  0  0  0  0  1  0  0  0  0  0  0
  -28.2840  -17.2420   20.5240 C   0  0  0  0  0  0  0  0  0  0  0  0
  -27.5510  -16.1000   20.5930 C   0  0  0  0  0  0  0  0  0  0  0  0
  -28.4800  -15.0460   20.8590 C   0  0  0  0  0  0  0  0  0  0  0  0
  -29.5850  -16.8510   20.7250 N   0  0  0  0  0  0  0  0  0  0  0  0
  -29.7100  -15.5310   21.0000 N   0  0  0  0  0  0  0  0  0  0  0  0
  -28.2710  -13.5990   20.9070 C   0  0  0  0  0  0  0  0  0  0  0  0
  -29.1450  -12.7470   21.6140 C   0  0  0  0  0  3  0  0  0  0  0  0
  -28.8990  -11.3590   21.6650 C   0  0  0  0  0  3  0  0  0  0  0  0
  -27.7660  -10.8160   21.0170 C   0  0  0  0  0  0  0  0  0  0  0  0
  -26.9060  -11.6680   20.3030 C   0  0  0  0  0  3  0  0  0  0  0  0
  -27.1550  -13.0490   20.2460 C   0  0  0  0  0  3  0  0  0  0  0  0
  -27.4570   -9.4790   20.9940 O   0  0  0  0  0  0  0  0  0  0  0  0
  -28.2820   -8.5410   21.5590 C   0  0  0  0  0  0  0  0  0  0  0  0
  -28.8920   -8.7430   22.8160 C   0  0  0  0  0  3  0  0  0  0  0  0
  -29.6770   -7.7230   23.3890 C   0  0  0  0  0  3  0  0  0  0  0  0
  -29.8470   -6.4990   22.7110 C   0  0  0  0  0  0  0  0  0  0  0  0
  -29.2350   -6.2950   21.4610 C   0  0  0  0  0  3  0  0  0  0  0  0
  -28.4520   -7.3130   20.8880 C   0  0  0  0  0  0  0  0  0  0  0  0
  -27.8480   -7.1010   19.6940 F   0  0  0  0  0  0  0  0  0  0  0  0
  -30.5950   -5.5160   23.2650 F   0  0  0  0  0  0  0  0  0  0  0  0
  -26.0860  -16.0030   20.3170 C   0  0  0  0  0  0  0  0  0  0  0  0
  -25.4040  -15.0600   20.9520 N   0  0  0  0  0  0  0  0  0  0  0  0
  -25.5300  -16.8050   19.5690 O   0  0  0  0  0  0  0  0  0  0  0  0
  -25.8560  -14.4170   21.5850 H   0  0  0  0  0  0  0  0  0  0  0  0
  -24.4060  -14.9840   20.8020 H   0  0  0  0  0  0  0  0  0  0  0  0
  -27.9650  -18.5810   20.2830 N   0  0  0  0  0  0  0  0  0  0  0  0
  -27.0220  -18.8650   20.0410 H   0  0  0  0  0  0  0  0  0  0  0  0
  -28.6500  -19.3150   20.1500 H   0  0  0  0  0  0  0  0  0  0  0  0
  -24.2070  -25.9870   18.5180 C   0  0  0  0  0  1  0  0  0  0  0  0
  -25.7350  -26.8480   18.9790 O   0  0  0  0  0  0  0  0  0  0  0  0
  -24.9600  -32.5070   23.5740 C   0  0  0  0  0  0  0  0  0  0  0  0
  -25.9870  -28.3080   19.1100 C   0  0  0  0  0  0  0  0  0  0  0  0
  -23.5040  -31.5620   21.8630 C   0  0  0  0  0  3  0  0  0  0  0  0
  -24.6240  -30.6690   19.6920 C   0  0  0  0  0  0  0  0  0  0  0  0
  -26.0390  -31.6260   21.4510 C   0  0  0  0  0  2  0  0  0  0  0  0
  -25.8100  -30.5150   20.3910 C   0  0  0  0  0  0  0  0  0  0  0  0
  -26.5280  -29.2650   20.1330 C   0  0  0  0  0  3  0  0  0  0  0  0
  -25.2270  -28.8970   18.1410 C   0  0  0  0  0  3  0  0  0  0  0  0
  -24.4310  -29.9730   18.4990 C   0  0  0  0  0  3  0  0  0  0  0  0
  -23.5240  -31.5190   20.3080 C   0  0  0  0  0  2  0  0  0  0  0  0
  -24.8620  -31.9400   22.3290 N   0  0  0  0  0  0  0  0  0  0  0  0
  -23.9560  -32.7150   24.2790 O   0  0  0  0  0  0  0  0  0  0  0  0
  -23.0990  -30.2380   22.6150 C   0  0  0  0  0  0  0  0  0  0  0  0
  -21.8530  -30.0420   23.0330 N   0  0  0  0  0  0  0  0  0  0  0  0
  -23.8970  -29.3530   22.8740 O   0  0  0  0  0  0  0  0  0  0  0  0
  -21.2030  -30.7870   22.8020 H   0  0  0  0  0  0  0  0  0  0  0  0
  -19.5020  -28.5450   22.5510 C   0  0  0  0  0  3  0  0  0  0  0  0
  -21.3180  -28.9230   23.9200 C   0  0  0  0  0  3  0  0  0  0  0  0
  -21.6260  -27.1950   24.0080 C   0  0  0  0  0  2  0  0  0  0  0  0
  -21.6150  -25.8110   22.7400 C   0  0  0  0  0  2  0  0  0  0  0  0
  -20.6060  -26.6890   21.4040 C   0  0  0  0  0  1  0  0  0  0  0  0
  -19.9520  -29.2920   23.6820 C   0  0  0  0  0  0  0  0  0  0  0  0
  -19.3820  -30.3820   24.4870 C   0  0  0  0  0  3  0  0  0  0  0  0
  -18.0280  -30.7690   24.4710 C   0  0  0  0  0  3  0  0  0  0  0  0
  -17.2960  -29.9610   23.6170 C   0  0  0  0  0  3  0  0  0  0  0  0
  -17.9980  -29.0190   22.7180 C   0  0  0  0  0  3  0  0  0  0  0  0
  -26.3400  -32.9270   24.1570 C   0  0  0  0  0  3  0  0  0  0  0  0
  -26.2210  -34.3360   24.5830 N   0  0  0  0  0  0  0  0  0  0  0  0
  -26.7580  -35.3820   23.9370 C   0  0  0  0  0  0  0  0  0  0  0  0
  -27.4730  -35.2560   22.9400 O   0  0  0  0  0  0  0  0  0  0  0  0
  -25.6040  -34.5190   25.3620 H   0  0  0  0  0  0  0  0  0  0  0  0
  -25.3700  -37.4630   23.6520 C   0  0  0  0  0  1  0  0  0  0  0  0
  -26.4650  -36.7910   24.4960 C   0  0  0  0  0  3  0  0  0  0  0  0
  -28.6320  -37.2320   25.5560 C   0  0  0  0  0  1  0  0  0  0  0  0
  -27.6580  -37.6630   24.5560 N   0  0  0  0  0  0  0  0  0  0  0  0
  -27.3870  -38.6170   24.7740 H   0  0  0  0  0  0  0  0  0  0  0  0
  -26.7950  -32.0240   25.3680 C   0  0  1  0  0  0  0  0  0  0  0  0
  -25.7140  -31.8730   26.4640 C   0  0  0  0  0  1  0  0  0  0  0  0
  -27.1750  -30.6000   24.9080 C   0  0  0  0  0  1  0  0  0  0  0  0
  -28.0580  -32.6290   26.0200 C   0  0  0  0  0  1  0  0  0  0  0  0
  1  8  1  0
  3  1  1  0
  4  2  2  0
  9  2  1  0
 10  3  1  0
 10  9  1  0
 11  4  1  0
 12  7  1  0
 12  9  1  0
 13  7  1  0
 14 16  1  6
 14 13  1  0
 14 10  1  0
 14 12  1  0
 17 15  1  0
 19 18  1  0
 20 22  1  0
 21 20  1  0
 25 32  1  0
 26 31  1  0
 27 26  1  0
 28 27  1  0
 29 28  1  0
 29 36  1  0
 29 30  1  0
 31 25  1  0
 31 30  1  0
 33 34  2  0
 33 36  1  0
 34 35  1  0
 35 38  1  0
 35 37  2  0
 36 37  1  0
 38 39  1  0
 39 40  2  0
 41 40  1  0
 42 41  2  0
 43 42  1  0
 43 38  2  0
 44 41  1  0
 44 45  1  0
 45 46  1  0
 46 47  2  0
 48 52  1  0
 48 47  1  0
 49 48  2  0
 50 49  1  0
 50 45  2  0
 51 50  1  0
 53 34  1  0
 53 54  1  0
 54 56  1  0
 55 53  2  0
 57 54  1  0
 58 33  1  0
 59 58  1  0
 60 58  1  0
 61 62  1  0
 62 64  1  0
 63 74  2  0
 64 69  1  0
 65 73  1  0
 65 75  1  0
 66 72  1  0
 66 68  1  0
 67 73  1  0
 68 67  1  0
 69 68  2  0
 70 71  1  0
 70 64  2  0
 71 66  2  0
 72 65  1  0
 73 63  1  0
 75 77  2  0
 75 76  1  0
 76 80  1  0
 78 76  1  0
 79 88  2  0
 79 84  1  0
 80 81  1  0
 82 81  1  0
 83 82  1  0
 84 80  1  0
 84 85  2  0
 86 85  1  0
 87 86  2  0
 88 87  1  0
 89 63  1  0
 89 90  1  0
 89 99  1  0
 90 93  1  0
 91 95  1  0
 91 90  1  0
 92 91  2  0
 95 94  1  0
 95 97  1  0
 97 98  1  0
 97 96  1  0
 99102  1  1
 99100  1  0
101 99  1  0
M  ISO  4  24 100  25 100  61 101  62 101
M  END
>  <TORSDO>  (95) 
F 21

>  <SCORE>  (95) 
-7.246

>  <name>  (95) 
94

>  <ligand_id>  (95) 
94

>  <original_smiles>  (95) 
[H]c1c([H])c([H])c2c(c1[H])C([H])([H])C([H])([H])C([H])([H])C2([H])N([H])C(=O)C1([H])N(C(=O)C([H])(N([H])C(=O)C([H])(N([H])C([H])([H])[H])C([H])([H])[H])C(C([H])([H])[H])(C([H])([H])[H])C([H])([H])[H])C([H])([H])c2c([H])c(OC([H])([H])C3([H])C([H])([H])C4([H])C5([H])C([H])([H])C([H])([H])C6([H])C([H])(C([H])([H])C([H])([H])C5([H])C34C([H])([H])[H])C([H])([H])C([H])([H])C6(C([H])([H])[H])C([H])(C([H])([H])[H])[N+]([H])([H])C([H])([H])C([H])([H])C(=O)N3C([H])([H])C([H])([H])C([H])([H])C([H])(n4nc(-c5c([H])c([H])c(Oc6c([H])c([H])c(F)c([H])c6F)c([H])c5[H])c(C(=O)N([H])[H])c4N([H])[H])C3([H])[H])c([H])c([H])c2C1([H])[H]

>  <smiles>  (95) 
[H]c1c([H])c([H])c2c(c1[H])C([H])([H])C([H])([H])C([H])([H])C2([H])N([H])C(=O)C1([H])N(C(=O)C([H])(N([H])C(=O)C([H])(N([H])C([H])([H])[H])C([H])([H])[H])C(C([H])([H])[H])(C([H])([H])[H])C([H])([H])[H])C([H])([H])c2c([H])c(OC([H])([H])C3([H])C([H])([H])C4([H])C5([H])C([H])([H])C([H])([H])C6([H])C([H])(C([H])([H])C([H])([H])C5([H])C34C([H])([H])[H])C([H])([H])C([H])([H])C6(C([H])([H])[H])C([H])(C([H])([H])[H])[N+]([H])([H])C([H])([H])C([H])([H])C(=O)N3C([H])([H])C([H])([H])C([H])([H])C([H])(n4nc(-c5c([H])c([H])c(Oc6c([H])c([H])c(F)c([H])c6F)c([H])c5[H])c(C(=O)N([H])[H])c4N([H])[H])C3([H])[H])c([H])c([H])c2C1([H])[H]

$$$$
95:0:0
     RDKit          3D

 91 99  0  0  1  0  0  0  0  0999 V2000
  -30.7050  -19.3880   20.1790 C   0  0  0  0  0  0  0  0  0  0  0  0
  -32.2210  -19.3640   20.2830 C   0  0  0  0  0  1  0  0  0  0  0  0
  -30.2780  -20.6720   20.3380 N   0  0  0  0  0  0  0  0  0  0  0  0
  -29.1370  -22.3830   18.9040 C   0  0  0  0  0  2  0  0  0  0  0  0
  -29.1910  -23.2800   20.1310 C   0  0  0  0  0  3  0  0  0  0  0  0
  -29.0390  -21.6010   20.1860 C   0  0  0  0  0  3  0  0  0  0  0  0
  -28.1100  -24.5510   20.1890 C   0  0  0  0  0  2  0  0  0  0  0  0
  -28.3680  -26.0880   20.0820 O   0  0  0  0  0  0  0  0  0  0  0  0
  -24.6370  -31.7200   23.0390 C   0  0  0  0  0  0  0  0  0  0  0  0
  -27.2870  -27.0430   20.0290 C   0  0  0  0  0  0  0  0  0  0  0  0
  -23.4560  -30.2990   21.4020 C   0  0  0  0  0  3  0  0  0  0  0  0
  -24.9310  -28.7530   19.9780 C   0  0  0  0  0  0  0  0  0  0  0  0
  -26.0040  -30.6120   21.2370 C   0  0  0  0  0  2  0  0  0  0  0  0
  -26.1010  -29.2200   20.5890 C   0  0  0  0  0  0  0  0  0  0  0  0
  -27.2800  -28.3810   20.5960 C   0  0  0  0  0  3  0  0  0  0  0  0
  -26.0880  -26.6820   19.3740 C   0  0  0  0  0  3  0  0  0  0  0  0
  -24.9370  -27.4980   19.3530 C   0  0  0  0  0  3  0  0  0  0  0  0
  -23.6880  -29.6260   20.0230 C   0  0  0  0  0  2  0  0  0  0  0  0
  -24.7190  -30.8990   21.9470 N   0  0  0  0  0  0  0  0  0  0  0  0
  -23.5460  -31.9860   23.5670 O   0  0  0  0  0  0  0  0  0  0  0  0
  -22.7970  -29.2820   22.3650 C   0  0  0  0  0  0  0  0  0  0  0  0
  -21.4670  -29.1090   22.2590 N   0  0  0  0  0  0  0  0  0  0  0  0
  -23.4830  -28.6530   23.1740 O   0  0  0  0  0  0  0  0  0  0  0  0
  -20.9690  -29.6700   21.5810 H   0  0  0  0  0  0  0  0  0  0  0  0
  -18.0940  -27.9090   22.8160 C   0  0  0  0  0  0  0  0  0  0  0  0
  -20.6570  -28.1660   23.0350 C   0  0  0  0  0  3  0  0  0  0  0  0
  -20.7480  -26.7400   22.4440 C   0  0  0  0  0  2  0  0  0  0  0  0
  -19.6260  -26.4280   21.4500 C   0  0  0  0  0  2  0  0  0  0  0  0
  -18.2570  -26.5670   22.1190 C   0  0  0  0  0  2  0  0  0  0  0  0
  -19.2210  -28.6660   23.2330 C   0  0  0  0  0  0  0  0  0  0  0  0
  -19.0140  -29.9210   23.8460 C   0  0  0  0  0  3  0  0  0  0  0  0
  -17.7130  -30.4210   24.0420 C   0  0  0  0  0  3  0  0  0  0  0  0
  -16.6000  -29.6590   23.6440 C   0  0  0  0  0  3  0  0  0  0  0  0
  -16.7910  -28.4050   23.0370 C   0  0  0  0  0  3  0  0  0  0  0  0
  -25.9050  -32.3770   23.6620 C   0  0  0  0  0  3  0  0  0  0  0  0
  -25.5550  -33.7570   24.0330 N   0  0  0  0  0  0  0  0  0  0  0  0
  -25.8690  -34.8450   23.3160 C   0  0  0  0  0  0  0  0  0  0  0  0
  -26.5480  -34.7930   22.2870 O   0  0  0  0  0  0  0  0  0  0  0  0
  -24.9470  -33.8670   24.8300 H   0  0  0  0  0  0  0  0  0  0  0  0
  -24.1120  -36.6220   23.0100 C   0  0  0  0  0  1  0  0  0  0  0  0
  -25.3500  -36.2060   23.8180 C   0  0  0  0  0  3  0  0  0  0  0  0
  -27.4570  -37.1010   24.7140 C   0  0  0  0  0  1  0  0  0  0  0  0
  -26.3630  -37.2830   23.7630 N   0  0  0  0  0  0  0  0  0  0  0  0
  -25.9350  -38.1870   23.9430 H   0  0  0  0  0  0  0  0  0  0  0  0
  -26.4580  -31.5920   24.9160 C   0  0  1  0  0  0  0  0  0  0  0  0
  -25.3830  -31.2950   25.9880 C   0  0  0  0  0  1  0  0  0  0  0  0
  -27.0810  -30.2420   24.4960 C   0  0  0  0  0  1  0  0  0  0  0  0
  -27.5870  -32.4100   25.5880 C   0  0  0  0  0  1  0  0  0  0  0  0
  -30.1800  -17.8490   19.7760 C   0  0  0  0  0  2  0  0  0  0  0  0
  -32.0610  -16.5030   21.1040 C   0  0  0  0  0  1  0  0  0  0  0  0
  -30.6310  -16.3490   20.4890 C   0  0  2  0  0  0  0  0  0  0  0  0
  -30.8430  -14.9270   19.5760 C   0  0  0  0  0  0  0  0  0  0  0  0
  -30.4360  -12.6870   18.4150 C   0  0  0  0  0  2  0  0  0  0  0  0
  -29.3690  -12.7910   17.2950 C   0  0  0  0  0  2  0  0  0  0  0  0
  -27.9560  -12.5800   17.8610 C   0  0  0  0  0  2  0  0  0  0  0  0
  -27.7320  -13.3840   19.1650 C   0  0  0  0  0  3  0  0  0  0  0  0
  -28.9130  -13.2240   20.1530 C   0  0  0  0  0  2  0  0  0  0  0  0
  -30.1390  -13.7050   19.4840 N   0  0  0  0  0  0  0  0  0  0  0  0
  -31.8600  -14.9480   18.8720 O   0  0  0  0  0  0  0  0  0  0  0  0
  -25.4160  -13.9320   20.1260 C   0  0  0  0  0  0  0  0  0  0  0  0
  -24.4090  -13.1470   20.6050 C   0  0  0  0  0  0  0  0  0  0  0  0
  -24.8730  -11.8000   20.4990 C   0  0  0  0  0  0  0  0  0  0  0  0
  -26.4460  -13.0710   19.7820 N   0  0  0  0  0  0  0  0  0  0  0  0
  -26.1280  -11.7790   20.0630 N   0  0  0  0  0  0  0  0  0  0  0  0
  -24.1690  -10.5340   20.7320 C   0  0  0  0  0  0  0  0  0  0  0  0
  -24.6370   -9.5900   21.6720 C   0  0  0  0  0  3  0  0  0  0  0  0
  -23.9290   -8.3880   21.8920 C   0  0  0  0  0  3  0  0  0  0  0  0
  -22.7390   -8.1230   21.1740 C   0  0  0  0  0  0  0  0  0  0  0  0
  -22.2890   -9.0560   20.2230 C   0  0  0  0  0  3  0  0  0  0  0  0
  -22.9980  -10.2480   20.0010 C   0  0  0  0  0  3  0  0  0  0  0  0
  -22.0000   -6.9720   21.3050 O   0  0  0  0  0  0  0  0  0  0  0  0
  -21.9230   -6.2980   22.4980 C   0  0  0  0  0  0  0  0  0  0  0  0
  -21.4540   -6.9190   23.6750 C   0  0  0  0  0  3  0  0  0  0  0  0
  -21.3250   -6.1710   24.8630 C   0  0  0  0  0  3  0  0  0  0  0  0
  -21.6550   -4.8020   24.8730 C   0  0  0  0  0  0  0  0  0  0  0  0
  -22.1160   -4.1810   23.7000 C   0  0  0  0  0  3  0  0  0  0  0  0
  -22.2470   -4.9260   22.5150 C   0  0  0  0  0  0  0  0  0  0  0  0
  -22.6730   -4.3170   21.3820 F   0  0  0  0  0  0  0  0  0  0  0  0
  -21.5240   -4.0820   26.0110 F   0  0  0  0  0  0  0  0  0  0  0  0
  -23.0470  -13.6140   21.0320 C   0  0  0  0  0  0  0  0  0  0  0  0
  -22.4300  -12.9210   21.9810 N   0  0  0  0  0  0  0  0  0  0  0  0
  -22.5450  -14.6340   20.5600 O   0  0  0  0  0  0  0  0  0  0  0  0
  -22.8530  -12.0990   22.3850 H   0  0  0  0  0  0  0  0  0  0  0  0
  -21.5220  -13.2160   22.3110 H   0  0  0  0  0  0  0  0  0  0  0  0
  -25.5130  -15.3020   19.9220 N   0  0  0  0  0  0  0  0  0  0  0  0
  -24.7420  -15.9330   20.1190 H   0  0  0  0  0  0  0  0  0  0  0  0
  -26.3020  -15.7630   19.4900 H   0  0  0  0  0  0  0  0  0  0  0  0
  -28.2190  -16.2330   21.5050 C   0  0  0  0  0  1  0  0  0  0  0  0
  -29.7210  -16.1060   21.7480 C   0  0  0  0  0  3  0  0  0  0  0  0
  -29.9870  -16.9620   22.8550 O   0  0  0  0  0  0  0  0  0  0  0  0
  -29.9620  -17.8650   22.5550 H   0  0  0  0  0  0  0  0  0  0  0  0
  1  2  1  0
  1  3  2  0
  4  5  1  0
  4  6  1  0
  5  6  1  0
  5  7  1  0
  6  3  1  0
  8  7  1  0
  9 20  2  0
 10  8  1  0
 10 15  1  0
 11 19  1  0
 11 21  1  0
 12 18  1  0
 12 14  1  0
 13 19  1  0
 14 15  2  0
 14 13  1  0
 16 10  2  0
 17 16  1  0
 17 12  2  0
 18 11  1  0
 19  9  1  0
 21 23  2  0
 22 21  1  0
 24 22  1  0
 25 34  2  0
 25 30  1  0
 26 22  1  0
 26 30  1  0
 27 26  1  0
 28 29  1  0
 28 27  1  0
 29 25  1  0
 30 31  2  0
 31 32  1  0
 33 32  2  0
 34 33  1  0
 35  9  1  0
 35 36  1  0
 35 45  1  0
 36 39  1  0
 37 41  1  0
 37 36  1  0
 38 37  2  0
 41 40  1  0
 43 41  1  0
 43 44  1  0
 43 42  1  0
 45 48  1  1
 45 46  1  0
 47 45  1  0
 49  1  1  0
 49 51  1  0
 51 50  1  1
 51 89  1  0
 52 51  1  0
 53 58  1  0
 54 55  1  0
 54 53  1  0
 56 55  1  0
 56 63  1  0
 56 57  1  0
 58 52  1  0
 58 57  1  0
 59 52  2  0
 60 61  2  0
 61 80  1  0
 62 61  1  0
 62 65  1  0
 63 64  1  0
 63 60  1  0
 64 62  2  0
 65 66  1  0
 66 67  2  0
 68 71  1  0
 68 67  1  0
 69 68  2  0
 70 69  1  0
 70 65  2  0
 71 72  1  0
 72 77  2  0
 72 73  1  0
 73 74  2  0
 74 75  1  0
 75 79  1  0
 76 75  2  0
 77 76  1  0
 78 77  1  0
 80 81  1  0
 81 84  1  0
 81 83  1  0
 82 80  2  0
 85 86  1  0
 85 60  1  0
 87 85  1  0
 89 88  1  0
 89 90  1  0
 91 90  1  0
M  ISO  4   7 101   8 101  51 100  52 100
M  END
>  <TORSDO>  (96) 
F 22

>  <SCORE>  (96) 
-11.329

>  <name>  (96) 
95

>  <ligand_id>  (96) 
95

>  <original_smiles>  (96) 
[H]OC([H])(C([H])([H])[H])C(C(=O)N1C([H])([H])C([H])([H])C([H])([H])C([H])(n2nc(-c3c([H])c([H])c(Oc4c([H])c([H])c(F)c([H])c4F)c([H])c3[H])c(C(=O)N([H])[H])c2N([H])[H])C1([H])[H])(C([H])([H])[H])C([H])([H])C(=NC1([H])C([H])([H])C1([H])C([H])([H])Oc1c([H])c([H])c2c(c1[H])C([H])([H])N(C(=O)C([H])(N([H])C(=O)C([H])(N([H])C([H])([H])[H])C([H])([H])[H])C(C([H])([H])[H])(C([H])([H])[H])C([H])([H])[H])C([H])(C(=O)N([H])C1([H])c3c([H])c([H])c([H])c([H])c3C([H])([H])C([H])([H])C1([H])[H])C2([H])[H])C([H])([H])[H]

>  <smiles>  (96) 
[H]OC([H])(C([H])([H])[H])C(C(=O)N1C([H])([H])C([H])([H])C([H])([H])C([H])(n2nc(-c3c([H])c([H])c(Oc4c([H])c([H])c(F)c([H])c4F)c([H])c3[H])c(C(=O)N([H])[H])c2N([H])[H])C1([H])[H])(C([H])([H])[H])C([H])([H])C(=NC1([H])C([H])([H])C1([H])C([H])([H])Oc1c([H])c([H])c2c(c1[H])C([H])([H])N(C(=O)C([H])(N([H])C(=O)C([H])(N([H])C([H])([H])[H])C([H])([H])[H])C(C([H])([H])[H])(C([H])([H])[H])C([H])([H])[H])C([H])(C(=O)N([H])C1([H])c3c([H])c([H])c([H])c([H])c3C([H])([H])C([H])([H])C1([H])[H])C2([H])[H])C([H])([H])[H]

$$$$
96:0:0
     RDKit          3D

 87 95  0  0  1  0  0  0  0  0999 V2000
  -31.2040  -21.8020   20.9650 C   0  0  0  0  0  2  0  0  0  0  0  0
  -31.0220  -20.4210   20.2160 C   0  0  0  0  0  2  0  0  0  0  0  0
  -29.9540  -22.7180   21.2510 C   0  0  0  0  0  2  0  0  0  0  0  0
  -29.6230  -19.7930   20.3730 C   0  0  0  0  0  0  0  0  0  0  0  0
  -29.0050  -22.8330   20.0470 C   0  0  0  0  0  3  0  0  0  0  0  0
  -28.5790  -21.1320   19.9220 C   0  0  0  0  0  3  0  0  0  0  0  0
  -27.2620  -20.9400   20.6830 C   0  0  0  0  0  1  0  0  0  0  0  0
  -29.6060  -16.6130   20.0040 C   0  0  0  0  0  3  0  0  0  0  0  0
  -29.4320  -18.0740   20.1360 C   0  0  0  0  0  0  0  0  0  0  0  0
  -30.6090  -15.3440   20.0340 C   0  0  0  0  0  0  0  0  0  0  0  0
  -30.6710  -12.8510   19.3000 C   0  0  0  0  0  2  0  0  0  0  0  0
  -29.7520  -12.5940   18.0770 C   0  0  0  0  0  2  0  0  0  0  0  0
  -28.3040  -12.3250   18.5290 C   0  0  0  0  0  2  0  0  0  0  0  0
  -27.8370  -13.3370   19.6020 C   0  0  0  0  0  3  0  0  0  0  0  0
  -28.8790  -13.5400   20.7220 C   0  0  0  0  0  2  0  0  0  0  0  0
  -30.1160  -14.0120   20.0840 N   0  0  0  0  0  0  0  0  0  0  0  0
  -31.8280  -15.4000   19.8150 O   0  0  0  0  0  0  0  0  0  0  0  0
  -25.4810  -13.9140   20.3950 C   0  0  0  0  0  0  0  0  0  0  0  0
  -24.4160  -13.1420   20.7710 C   0  0  0  0  0  0  0  0  0  0  0  0
  -24.8740  -11.7890   20.7230 C   0  0  0  0  0  0  0  0  0  0  0  0
  -26.5120  -13.0300   20.1270 N   0  0  0  0  0  0  0  0  0  0  0  0
  -26.1590  -11.7450   20.3890 N   0  0  0  0  0  0  0  0  0  0  0  0
  -24.1390  -10.5290   20.9040 C   0  0  0  0  0  0  0  0  0  0  0  0
  -24.5260   -9.5780   21.8730 C   0  0  0  0  0  3  0  0  0  0  0  0
  -23.7870   -8.3870   22.0410 C   0  0  0  0  0  3  0  0  0  0  0  0
  -22.6460   -8.1410   21.2410 C   0  0  0  0  0  0  0  0  0  0  0  0
  -22.2780   -9.0820   20.2630 C   0  0  0  0  0  3  0  0  0  0  0  0
  -23.0200  -10.2620   20.0910 C   0  0  0  0  0  3  0  0  0  0  0  0
  -21.8820   -7.0010   21.3190 O   0  0  0  0  0  0  0  0  0  0  0  0
  -21.7220   -6.3210   22.5000 C   0  0  0  0  0  0  0  0  0  0  0  0
  -21.1580   -6.9320   23.6420 C   0  0  0  0  0  3  0  0  0  0  0  0
  -20.9460   -6.1780   24.8130 C   0  0  0  0  0  3  0  0  0  0  0  0
  -21.2870   -4.8110   24.8420 C   0  0  0  0  0  0  0  0  0  0  0  0
  -21.8430   -4.2000   23.7050 C   0  0  0  0  0  3  0  0  0  0  0  0
  -22.0560   -4.9520   22.5370 C   0  0  0  0  0  0  0  0  0  0  0  0
  -22.5710   -4.3520   21.4360 F   0  0  0  0  0  0  0  0  0  0  0  0
  -21.0770   -4.0840   25.9630 F   0  0  0  0  0  0  0  0  0  0  0  0
  -23.0280  -13.6300   21.0620 C   0  0  0  0  0  0  0  0  0  0  0  0
  -22.3020  -12.9310   21.9280 N   0  0  0  0  0  0  0  0  0  0  0  0
  -22.5980  -14.6690   20.5630 O   0  0  0  0  0  0  0  0  0  0  0  0
  -22.6560  -12.0880   22.3540 H   0  0  0  0  0  0  0  0  0  0  0  0
  -21.3750  -13.2480   22.1670 H   0  0  0  0  0  0  0  0  0  0  0  0
  -25.6520  -15.2840   20.2260 N   0  0  0  0  0  0  0  0  0  0  0  0
  -24.8890  -15.9440   20.3360 H   0  0  0  0  0  0  0  0  0  0  0  0
  -26.4940  -15.7180   19.8660 H   0  0  0  0  0  0  0  0  0  0  0  0
  -28.0150  -24.3380   19.9880 C   0  0  0  0  0  2  0  0  0  0  0  0
  -28.3030  -25.9560   20.0280 O   0  0  0  0  0  0  0  0  0  0  0  0
  -24.6890  -31.7670   23.1710 C   0  0  0  0  0  0  0  0  0  0  0  0
  -27.2890  -27.0430   19.9990 C   0  0  0  0  0  0  0  0  0  0  0  0
  -23.5160  -30.4410   21.4580 C   0  0  0  0  0  3  0  0  0  0  0  0
  -24.9870  -28.9060   19.9890 C   0  0  0  0  0  0  0  0  0  0  0  0
  -26.0820  -30.6700   21.3520 C   0  0  0  0  0  2  0  0  0  0  0  0
  -26.1640  -29.2910   20.6420 C   0  0  0  0  0  0  0  0  0  0  0  0
  -27.3120  -28.3820   20.6250 C   0  0  0  0  0  3  0  0  0  0  0  0
  -26.0850  -26.8080   19.2990 C   0  0  0  0  0  3  0  0  0  0  0  0
  -24.9720  -27.6870   19.2970 C   0  0  0  0  0  3  0  0  0  0  0  0
  -23.7630  -29.8190   20.0560 C   0  0  0  0  0  2  0  0  0  0  0  0
  -24.7820  -30.9840   22.0490 N   0  0  0  0  0  0  0  0  0  0  0  0
  -23.5920  -32.0310   23.6900 O   0  0  0  0  0  0  0  0  0  0  0  0
  -22.8170  -29.4000   22.3710 C   0  0  0  0  0  0  0  0  0  0  0  0
  -21.4880  -29.2490   22.2350 N   0  0  0  0  0  0  0  0  0  0  0  0
  -23.4790  -28.7300   23.1660 O   0  0  0  0  0  0  0  0  0  0  0  0
  -21.0080  -29.8390   21.5690 H   0  0  0  0  0  0  0  0  0  0  0  0
  -18.0890  -28.0900   22.7400 C   0  0  0  0  0  0  0  0  0  0  0  0
  -20.6600  -28.2790   22.9590 C   0  0  0  0  0  3  0  0  0  0  0  0
  -20.7120  -26.8880   22.2850 C   0  0  0  0  0  2  0  0  0  0  0  0
  -19.5790  -26.6640   21.2770 C   0  0  0  0  0  2  0  0  0  0  0  0
  -18.2170  -26.7920   21.9620 C   0  0  0  0  0  2  0  0  0  0  0  0
  -19.2350  -28.7980   23.1940 C   0  0  0  0  0  0  0  0  0  0  0  0
  -19.0560  -30.0160   23.8840 C   0  0  0  0  0  3  0  0  0  0  0  0
  -17.7660  -30.5290   24.1200 C   0  0  0  0  0  3  0  0  0  0  0  0
  -16.6360  -29.8190   23.6790 C   0  0  0  0  0  3  0  0  0  0  0  0
  -16.7990  -28.6000   22.9970 C   0  0  0  0  0  3  0  0  0  0  0  0
  -25.9530  -32.3840   23.8450 C   0  0  0  0  0  3  0  0  0  0  0  0
  -25.6400  -33.7800   24.1970 N   0  0  0  0  0  0  0  0  0  0  0  0
  -25.9620  -34.8490   23.4570 C   0  0  0  0  0  0  0  0  0  0  0  0
  -26.6180  -34.7630   22.4150 O   0  0  0  0  0  0  0  0  0  0  0  0
  -25.0570  -33.9220   25.0090 H   0  0  0  0  0  0  0  0  0  0  0  0
  -24.2100  -36.6380   23.1890 C   0  0  0  0  0  1  0  0  0  0  0  0
  -25.4850  -36.2320   23.9460 C   0  0  0  0  0  3  0  0  0  0  0  0
  -27.6370  -37.1330   24.7120 C   0  0  0  0  0  1  0  0  0  0  0  0
  -26.5060  -37.2930   23.8010 N   0  0  0  0  0  0  0  0  0  0  0  0
  -26.0980  -38.2110   23.9580 H   0  0  0  0  0  0  0  0  0  0  0  0
  -26.4190  -31.5920   25.1280 C   0  0  1  0  0  0  0  0  0  0  0  0
  -25.2890  -31.3510   26.1580 C   0  0  0  0  0  1  0  0  0  0  0  0
  -27.0030  -30.2130   24.7450 C   0  0  0  0  0  1  0  0  0  0  0  0
  -27.5530  -32.3680   25.8400 C   0  0  0  0  0  1  0  0  0  0  0  0
  1  3  1  0
  2  4  1  0
  2  1  1  0
  5 46  1  0
  5  3  1  0
  6  5  1  0
  6  4  1  0
  6  7  1  0
  8 10  1  0
  8  9  2  0
  9  4  2  0
 10 16  1  0
 11 16  1  0
 12 13  1  0
 12 11  1  0
 14 13  1  0
 14 21  1  0
 14 15  1  0
 16 15  1  0
 17 10  2  0
 18 19  2  0
 19 38  1  0
 20 19  1  0
 20 23  1  0
 21 22  1  0
 21 18  1  0
 22 20  2  0
 23 24  1  0
 24 25  2  0
 26 29  1  0
 26 25  1  0
 27 26  2  0
 28 27  1  0
 28 23  2  0
 29 30  1  0
 30 35  2  0
 30 31  1  0
 31 32  2  0
 32 33  1  0
 33 37  1  0
 34 33  2  0
 35 34  1  0
 36 35  1  0
 38 39  1  0
 39 42  1  0
 39 41  1  0
 40 38  2  0
 43 44  1  0
 43 18  1  0
 45 43  1  0
 46 47  1  0
 48 59  2  0
 49 47  1  0
 49 54  1  0
 50 58  1  0
 50 60  1  0
 51 57  1  0
 51 53  1  0
 52 58  1  0
 53 52  1  0
 54 53  2  0
 55 49  2  0
 56 55  1  0
 56 51  2  0
 57 50  1  0
 58 48  1  0
 60 62  2  0
 61 60  1  0
 63 61  1  0
 64 73  2  0
 64 69  1  0
 65 61  1  0
 65 69  1  0
 66 65  1  0
 67 68  1  0
 67 66  1  0
 68 64  1  0
 69 70  2  0
 70 71  1  0
 72 71  2  0
 73 72  1  0
 74 48  1  0
 74 75  1  0
 74 84  1  0
 75 78  1  0
 76 80  1  0
 76 75  1  0
 77 76  2  0
 80 79  1  0
 82 80  1  0
 82 83  1  0
 82 81  1  0
 84 87  1  1
 84 85  1  0
 86 84  1  0
M  ISO  4   8 100  10 100  46 101  47 101
M  END
>  <TORSDO>  (97) 
F 18

>  <SCORE>  (97) 
-14.684

>  <name>  (97) 
96

>  <ligand_id>  (97) 
96

>  <original_smiles>  (97) 
[H]C(C(=O)N1C([H])([H])C([H])([H])C([H])([H])C([H])(n2nc(-c3c([H])c([H])c(Oc4c([H])c([H])c(F)c([H])c4F)c([H])c3[H])c(C(=O)N([H])[H])c2N([H])[H])C1([H])[H])=C([H])C1([H])C([H])([H])C([H])([H])C([H])([H])C([H])(C([H])([H])Oc2c([H])c([H])c3c(c2[H])C([H])([H])N(C(=O)C([H])(N([H])C(=O)C([H])(N([H])C([H])([H])[H])C([H])([H])[H])C(C([H])([H])[H])(C([H])([H])[H])C([H])([H])[H])C([H])(C(=O)N([H])C2([H])c4c([H])c([H])c([H])c([H])c4C([H])([H])C([H])([H])C2([H])[H])C3([H])[H])C1([H])C([H])([H])[H]

>  <smiles>  (97) 
[H]C(C(=O)N1C([H])([H])C([H])([H])C([H])([H])C([H])(n2nc(-c3c([H])c([H])c(Oc4c([H])c([H])c(F)c([H])c4F)c([H])c3[H])c(C(=O)N([H])[H])c2N([H])[H])C1([H])[H])=C([H])C1([H])C([H])([H])C([H])([H])C([H])([H])C([H])(C([H])([H])Oc2c([H])c([H])c3c(c2[H])C([H])([H])N(C(=O)C([H])(N([H])C(=O)C([H])(N([H])C([H])([H])[H])C([H])([H])[H])C(C([H])([H])[H])(C([H])([H])[H])C([H])([H])[H])C([H])(C(=O)N([H])C2([H])c4c([H])c([H])c([H])c([H])c4C([H])([H])C([H])([H])C2([H])[H])C3([H])[H])C1([H])C([H])([H])[H]

$$$$
97:0:0
     RDKit          3D

 95104  0  0  1  0  0  0  0  0999 V2000
  -29.4020  -21.4070   17.4590 C   0  0  0  0  0  2  0  0  0  0  0  0
  -29.1780  -18.2680   20.4310 C   0  0  0  0  0  0  0  0  0  0  0  0
  -28.1600  -16.8000   17.2050 C   0  0  0  0  0  2  0  0  0  0  0  0
  -29.4010  -19.1070   16.2460 C   0  0  0  0  0  2  0  0  0  0  0  0
  -28.0880  -16.7250   18.7530 C   0  0  0  0  0  2  0  0  0  0  0  0
  -29.1330  -17.9230   17.1490 C   0  0  0  0  0  3  0  0  0  0  0  0
  -29.6260  -19.8910   17.5920 C   0  0  0  0  0  3  0  0  0  0  0  0
  -28.5160  -18.9340   18.1050 C   0  0  0  0  0  3  0  0  0  0  0  0
  -28.5230  -18.0550   19.2740 N   0  0  0  0  0  0  0  0  0  0  0  0
  -28.9570  -19.2540   21.1450 O   0  0  0  0  0  0  0  0  0  0  0  0
  -30.4010  -17.3900   20.7160 C   0  0  0  0  0  2  0  0  0  0  0  0
  -30.1860  -16.1460   21.6270 C   0  0  0  0  0  2  0  0  0  0  0  0
  -31.0130  -14.9440   21.1180 C   0  0  0  0  0  0  0  0  0  0  0  0
  -30.8590  -12.8630   19.8180 C   0  0  0  0  0  2  0  0  0  0  0  0
  -30.0340  -13.2020   18.5610 C   0  0  0  0  0  2  0  0  0  0  0  0
  -28.5290  -13.0180   18.8460 C   0  0  0  0  0  2  0  0  0  0  0  0
  -28.0770  -13.7360   20.1490 C   0  0  0  0  0  3  0  0  0  0  0  0
  -29.0330  -13.4100   21.3150 C   0  0  0  0  0  2  0  0  0  0  0  0
  -30.3970  -13.7540   20.8900 N   0  0  0  0  0  0  0  0  0  0  0  0
  -32.1860  -15.1510   20.7970 O   0  0  0  0  0  0  0  0  0  0  0  0
  -25.6070  -14.2920   20.5730 C   0  0  0  0  0  0  0  0  0  0  0  0
  -24.5260  -13.4960   20.8490 C   0  0  0  0  0  0  0  0  0  0  0  0
  -25.0220  -12.1580   20.9000 C   0  0  0  0  0  0  0  0  0  0  0  0
  -26.6920  -13.4340   20.4850 N   0  0  0  0  0  0  0  0  0  0  0  0
  -26.3380  -12.1470   20.7270 N   0  0  0  0  0  0  0  0  0  0  0  0
  -24.3130  -10.8810   21.0520 C   0  0  0  0  0  0  0  0  0  0  0  0
  -24.6630   -9.9570   22.0600 C   0  0  0  0  0  3  0  0  0  0  0  0
  -23.9560   -8.7430   22.1940 C   0  0  0  0  0  3  0  0  0  0  0  0
  -22.8870   -8.4480   21.3170 C   0  0  0  0  0  0  0  0  0  0  0  0
  -22.5560   -9.3620   20.3010 C   0  0  0  0  0  3  0  0  0  0  0  0
  -23.2640  -10.5660   20.1670 C   0  0  0  0  0  3  0  0  0  0  0  0
  -22.1660   -7.2810   21.3600 O   0  0  0  0  0  0  0  0  0  0  0  0
  -21.9630   -6.6010   22.5340 C   0  0  0  0  0  0  0  0  0  0  0  0
  -21.3510   -7.2080   23.6520 C   0  0  0  0  0  3  0  0  0  0  0  0
  -21.1050   -6.4520   24.8180 C   0  0  0  0  0  3  0  0  0  0  0  0
  -21.4510   -5.0880   24.8560 C   0  0  0  0  0  0  0  0  0  0  0  0
  -22.0460   -4.4780   23.7380 C   0  0  0  0  0  3  0  0  0  0  0  0
  -22.2990   -5.2330   22.5810 C   0  0  0  0  0  0  0  0  0  0  0  0
  -22.8600   -4.6390   21.4990 F   0  0  0  0  0  0  0  0  0  0  0  0
  -21.2030   -4.3570   25.9660 F   0  0  0  0  0  0  0  0  0  0  0  0
  -23.0970  -13.9410   20.9670 C   0  0  0  0  0  0  0  0  0  0  0  0
  -22.3120  -13.2520   21.7900 N   0  0  0  0  0  0  0  0  0  0  0  0
  -22.6760  -14.9280   20.3650 O   0  0  0  0  0  0  0  0  0  0  0  0
  -22.6670  -12.4590   22.3030 H   0  0  0  0  0  0  0  0  0  0  0  0
  -21.3460  -13.5230   21.9130 H   0  0  0  0  0  0  0  0  0  0  0  0
  -25.7500  -15.6630   20.3830 N   0  0  0  0  0  0  0  0  0  0  0  0
  -24.9490  -16.2870   20.3730 H   0  0  0  0  0  0  0  0  0  0  0  0
  -26.6140  -16.1310   20.1460 H   0  0  0  0  0  0  0  0  0  0  0  0
  -29.4530  -22.1970   18.7170 N   0  0  0  0  0  4  0  0  0  0  0  0
  -30.2990  -21.9800   19.2180 H   0  0  0  0  0  0  0  0  0  0  0  0
  -28.6700  -21.9290   19.2940 H   0  0  0  0  0  0  0  0  0  0  0  0
  -29.4120  -23.6640   18.4430 C   0  0  0  0  0  2  0  0  0  0  0  0
  -29.0630  -24.6190   19.6280 C   0  0  0  0  0  2  0  0  0  0  0  0
  -28.8470  -26.0600   19.0730 C   0  0  0  0  0  2  0  0  0  0  0  0
  -28.6180  -27.1170   20.0250 O   0  0  0  0  0  0  0  0  0  0  0  0
  -24.7440  -32.0080   23.4480 C   0  0  0  0  0  0  0  0  0  0  0  0
  -27.4280  -27.8230   20.0280 C   0  0  0  0  0  0  0  0  0  0  0  0
  -23.5430  -30.7110   21.7160 C   0  0  0  0  0  3  0  0  0  0  0  0
  -25.0060  -29.3020   20.1650 C   0  0  0  0  0  0  0  0  0  0  0  0
  -26.0610  -31.1150   21.5270 C   0  0  0  0  0  2  0  0  0  0  0  0
  -26.1580  -29.7940   20.7870 C   0  0  0  0  0  0  0  0  0  0  0  0
  -27.3660  -29.0560   20.7250 C   0  0  0  0  0  3  0  0  0  0  0  0
  -26.2490  -27.3480   19.4090 C   0  0  0  0  0  3  0  0  0  0  0  0
  -25.0450  -28.0780   19.4740 C   0  0  0  0  0  3  0  0  0  0  0  0
  -23.7470  -30.1330   20.2890 C   0  0  0  0  0  2  0  0  0  0  0  0
  -24.8010  -31.2890   22.2890 N   0  0  0  0  0  0  0  0  0  0  0  0
  -23.6660  -32.2220   24.0160 O   0  0  0  0  0  0  0  0  0  0  0  0
  -22.9140  -29.6160   22.6070 C   0  0  0  0  0  0  0  0  0  0  0  0
  -21.5960  -29.4100   22.4600 N   0  0  0  0  0  0  0  0  0  0  0  0
  -23.6090  -28.9550   23.3830 O   0  0  0  0  0  0  0  0  0  0  0  0
  -21.0930  -29.9960   21.8090 H   0  0  0  0  0  0  0  0  0  0  0  0
  -18.2580  -28.0700   22.8260 C   0  0  0  0  0  0  0  0  0  0  0  0
  -20.8010  -28.4020   23.1620 C   0  0  0  0  0  3  0  0  0  0  0  0
  -20.9650  -27.0110   22.5070 C   0  0  0  0  0  2  0  0  0  0  0  0
  -19.8930  -26.7090   21.4550 C   0  0  0  0  0  2  0  0  0  0  0  0
  -18.4960  -26.7690   22.0800 C   0  0  0  0  0  2  0  0  0  0  0  0
  -19.3410  -28.8440   23.3200 C   0  0  0  0  0  0  0  0  0  0  0  0
  -19.0680  -30.0650   23.9760 C   0  0  0  0  0  3  0  0  0  0  0  0
  -17.7440  -30.5110   24.1450 C   0  0  0  0  0  3  0  0  0  0  0  0
  -16.6750  -29.7320   23.6680 C   0  0  0  0  0  3  0  0  0  0  0  0
  -16.9330  -28.5140   23.0150 C   0  0  0  0  0  3  0  0  0  0  0  0
  -26.0280  -32.6080   24.1050 C   0  0  0  0  0  3  0  0  0  0  0  0
  -25.7080  -33.9780   24.5280 N   0  0  0  0  0  0  0  0  0  0  0  0
  -26.0460  -35.0830   23.8510 C   0  0  0  0  0  0  0  0  0  0  0  0
  -26.7300  -35.0550   22.8250 O   0  0  0  0  0  0  0  0  0  0  0  0
  -25.1020  -34.0730   25.3310 H   0  0  0  0  0  0  0  0  0  0  0  0
  -24.3120  -36.8880   23.6010 C   0  0  0  0  0  1  0  0  0  0  0  0
  -25.5440  -36.4330   24.4000 C   0  0  0  0  0  3  0  0  0  0  0  0
  -27.6620  -37.2660   25.3180 C   0  0  0  0  0  1  0  0  0  0  0  0
  -26.5730  -37.4950   24.3720 N   0  0  0  0  0  0  0  0  0  0  0  0
  -26.1610  -38.4020   24.5760 H   0  0  0  0  0  0  0  0  0  0  0  0
  -26.5620  -31.7590   25.3240 C   0  0  1  0  0  0  0  0  0  0  0  0
  -25.4780  -31.4430   26.3800 C   0  0  0  0  0  1  0  0  0  0  0  0
  -27.1550  -30.4160   24.8360 C   0  0  0  0  0  1  0  0  0  0  0  0
  -27.7090  -32.5190   26.0300 C   0  0  0  0  0  1  0  0  0  0  0  0
  1 49  1  0
  2 11  1  0
  2 10  2  0
  3  5  1  0
  4  7  1  0
  5  9  1  0
  6  4  1  0
  6  3  1  0
  6  8  1  0
  7  1  1  0
  7  8  1  0
  8  9  1  0
  9  2  1  0
 11 12  1  0
 13 12  1  0
 14 19  1  0
 15 16  1  0
 15 14  1  0
 17 16  1  0
 17 24  1  0
 17 18  1  0
 19 13  1  0
 19 18  1  0
 20 13  2  0
 21 22  2  0
 22 23  1  0
 22 41  1  0
 23 26  1  0
 24 21  1  0
 24 25  1  0
 25 23  2  0
 26 27  1  0
 27 28  2  0
 29 32  1  0
 29 28  1  0
 30 29  2  0
 31 30  1  0
 31 26  2  0
 32 33  1  0
 33 38  2  0
 33 34  1  0
 34 35  2  0
 35 36  1  0
 36 40  1  0
 37 36  2  0
 38 37  1  0
 39 38  1  0
 41 42  1  0
 42 45  1  0
 42 44  1  0
 43 41  2  0
 46 21  1  0
 47 46  1  0
 48 46  1  0
 49 50  1  0
 49 51  1  0
 52 49  1  0
 52 53  1  0
 54 53  1  0
 54 55  1  0
 55 57  1  0
 56 67  2  0
 57 62  1  0
 58 66  1  0
 58 68  1  0
 59 65  1  0
 59 61  1  0
 60 66  1  0
 61 60  1  0
 62 61  2  0
 63 64  1  0
 63 57  2  0
 64 59  2  0
 65 58  1  0
 66 56  1  0
 68 70  2  0
 69 68  1  0
 71 69  1  0
 72 81  2  0
 72 77  1  0
 73 69  1  0
 73 77  1  0
 74 73  1  0
 75 76  1  0
 75 74  1  0
 76 72  1  0
 77 78  2  0
 78 79  1  0
 80 79  2  0
 81 80  1  0
 82 56  1  0
 82 83  1  0
 82 92  1  0
 83 86  1  0
 84 88  1  0
 84 83  1  0
 85 84  2  0
 88 87  1  0
 90 88  1  0
 90 91  1  0
 90 89  1  0
 92 95  1  1
 92 93  1  0
 94 92  1  0
M  ISO  4  12 100  13 100  54 101  55 101
M  END
>  <TORSDO>  (98) 
F 23

>  <SCORE>  (98) 
-9.480

>  <name>  (98) 
97

>  <ligand_id>  (98) 
97

>  <original_smiles>  (98) 
[H]c1c([H])c([H])c2c(c1[H])C([H])([H])C([H])([H])C([H])([H])C2([H])N([H])C(=O)C1([H])N(C(=O)C([H])(N([H])C(=O)C([H])(N([H])C([H])([H])[H])C([H])([H])[H])C(C([H])([H])[H])(C([H])([H])[H])C([H])([H])[H])C([H])([H])c2c([H])c(OC([H])([H])C([H])([H])C([H])([H])[N+]([H])([H])C([H])([H])C3([H])C([H])([H])C4([H])C([H])([H])C([H])([H])N(C(=O)C([H])([H])C([H])([H])C(=O)N5C([H])([H])C([H])([H])C([H])([H])C([H])(n6nc(-c7c([H])c([H])c(Oc8c([H])c([H])c(F)c([H])c8F)c([H])c7[H])c(C(=O)N([H])[H])c6N([H])[H])C5([H])[H])C43[H])c([H])c([H])c2C1([H])[H]

>  <smiles>  (98) 
[H]c1c([H])c([H])c2c(c1[H])C([H])([H])C([H])([H])C([H])([H])C2([H])N([H])C(=O)C1([H])N(C(=O)C([H])(N([H])C(=O)C([H])(N([H])C([H])([H])[H])C([H])([H])[H])C(C([H])([H])[H])(C([H])([H])[H])C([H])([H])[H])C([H])([H])c2c([H])c(OC([H])([H])C([H])([H])C([H])([H])[N+]([H])([H])C([H])([H])C3([H])C([H])([H])C4([H])C([H])([H])C([H])([H])N(C(=O)C([H])([H])C([H])([H])C(=O)N5C([H])([H])C([H])([H])C([H])([H])C([H])(n6nc(-c7c([H])c([H])c(Oc8c([H])c([H])c(F)c([H])c8F)c([H])c7[H])c(C(=O)N([H])[H])c6N([H])[H])C5([H])[H])C43[H])c([H])c([H])c2C1([H])[H]

$$$$
