0:0:0
     RDKit          3D

 89 97  0  0  1  0  0  0  0  0999 V2000
  -27.3950  -21.7240   19.5860 C   0  0  0  0  0  2  0  0  0  0  0  0
  -29.5320  -21.4530   20.5070 C   0  0  0  0  0  2  0  0  0  0  0  0
  -27.6540  -20.1390   19.7820 C   0  0  0  0  0  3  0  0  0  0  0  0
  -29.2050  -19.8590   19.9290 C   0  0  0  0  0  3  0  0  0  0  0  0
  -28.3390  -22.6910   20.4050 C   0  0  0  0  0  3  0  0  0  0  0  0
  -27.2430  -19.4610   17.3610 C   0  0  0  0  0  2  0  0  0  0  0  0
  -26.9120  -19.3850   18.6620 C   0  0  0  0  0  0  0  0  0  0  0  0
  -25.7150  -18.5520   19.0820 C   0  0  0  0  0  1  0  0  0  0  0  0
  -29.7170  -16.8780   20.1450 C   0  0  0  0  0  3  0  0  0  0  0  0
  -29.9620  -18.3260   20.3700 C   0  0  0  0  0  0  0  0  0  0  0  0
  -31.2360  -18.6450   21.1480 C   0  0  0  0  0  1  0  0  0  0  0  0
  -30.5840  -15.5030   20.3650 C   0  0  0  0  0  0  0  0  0  0  0  0
  -30.6510  -13.0180   19.6070 C   0  0  0  0  0  2  0  0  0  0  0  0
  -29.8030  -12.8340   18.3260 C   0  0  0  0  0  2  0  0  0  0  0  0
  -28.3390  -12.5230   18.7040 C   0  0  0  0  0  2  0  0  0  0  0  0
  -27.8100  -13.4910   19.7920 C   0  0  0  0  0  3  0  0  0  0  0  0
  -28.8060  -13.6990   20.9460 C   0  0  0  0  0  2  0  0  0  0  0  0
  -30.0560  -14.1810   20.3600 N   0  0  0  0  0  0  0  0  0  0  0  0
  -31.8220  -15.4680   20.2990 O   0  0  0  0  0  0  0  0  0  0  0  0
  -25.4240  -14.0070   20.5190 C   0  0  0  0  0  0  0  0  0  0  0  0
  -24.3570  -13.2240   20.8450 C   0  0  0  0  0  0  0  0  0  0  0  0
  -24.8430  -11.8810   20.8260 C   0  0  0  0  0  0  0  0  0  0  0  0
  -26.4800  -13.1490   20.2800 N   0  0  0  0  0  0  0  0  0  0  0  0
  -26.1410  -11.8610   20.5460 N   0  0  0  0  0  0  0  0  0  0  0  0
  -24.1210  -10.6170   20.9980 C   0  0  0  0  0  0  0  0  0  0  0  0
  -24.5110   -9.6750   21.9790 C   0  0  0  0  0  3  0  0  0  0  0  0
  -23.7800   -8.4760   22.1390 C   0  0  0  0  0  3  0  0  0  0  0  0
  -22.6530   -8.2140   21.3250 C   0  0  0  0  0  0  0  0  0  0  0  0
  -22.2860   -9.1420   20.3360 C   0  0  0  0  0  3  0  0  0  0  0  0
  -23.0130  -10.3350   20.1690 C   0  0  0  0  0  3  0  0  0  0  0  0
  -21.9100   -7.0590   21.3810 O   0  0  0  0  0  0  0  0  0  0  0  0
  -21.7760   -6.3580   22.5520 C   0  0  0  0  0  0  0  0  0  0  0  0
  -21.1950   -6.9340   23.7030 C   0  0  0  0  0  3  0  0  0  0  0  0
  -21.0000   -6.1550   24.8620 C   0  0  0  0  0  3  0  0  0  0  0  0
  -21.3810   -4.8010   24.8700 C   0  0  0  0  0  0  0  0  0  0  0  0
  -21.9610   -4.2220   23.7260 C   0  0  0  0  0  3  0  0  0  0  0  0
  -22.1500   -5.0000   22.5690 C   0  0  0  0  0  0  0  0  0  0  0  0
  -22.6900   -4.4350   21.4620 F   0  0  0  0  0  0  0  0  0  0  0  0
  -21.1880   -4.0520   25.9800 F   0  0  0  0  0  0  0  0  0  0  0  0
  -22.9460  -13.6960   21.0590 C   0  0  0  0  0  0  0  0  0  0  0  0
  -22.1870  -13.0130   21.9080 N   0  0  0  0  0  0  0  0  0  0  0  0
  -22.5220  -14.7070   20.5020 O   0  0  0  0  0  0  0  0  0  0  0  0
  -22.5380  -12.2050   22.4020 H   0  0  0  0  0  0  0  0  0  0  0  0
  -21.2380  -13.3160   22.0830 H   0  0  0  0  0  0  0  0  0  0  0  0
  -25.5670  -15.3770   20.3800 N   0  0  0  0  0  0  0  0  0  0  0  0
  -24.7710  -16.0000   20.4580 H   0  0  0  0  0  0  0  0  0  0  0  0
  -26.4200  -15.8530   20.1210 H   0  0  0  0  0  0  0  0  0  0  0  0
  -28.2390  -24.4310   19.8830 C   0  0  0  0  0  2  0  0  0  0  0  0
  -28.2500  -25.9820   20.4610 O   0  0  0  0  0  0  0  0  0  0  0  0
  -24.5890  -31.9610   23.2680 C   0  0  0  0  0  0  0  0  0  0  0  0
  -27.2540  -27.0910   20.3240 C   0  0  0  0  0  0  0  0  0  0  0  0
  -23.4480  -30.5330   21.6220 C   0  0  0  0  0  3  0  0  0  0  0  0
  -24.9400  -28.9480   20.2360 C   0  0  0  0  0  0  0  0  0  0  0  0
  -26.0130  -30.7790   21.5270 C   0  0  0  0  0  2  0  0  0  0  0  0
  -26.1080  -29.3670   20.8810 C   0  0  0  0  0  0  0  0  0  0  0  0
  -27.2550  -28.4510   20.9170 C   0  0  0  0  0  3  0  0  0  0  0  0
  -26.0640  -26.8450   19.6050 C   0  0  0  0  0  3  0  0  0  0  0  0
  -24.9390  -27.7080   19.5840 C   0  0  0  0  0  3  0  0  0  0  0  0
  -23.7100  -29.8480   20.2540 C   0  0  0  0  0  2  0  0  0  0  0  0
  -24.7020  -31.1190   22.1920 N   0  0  0  0  0  0  0  0  0  0  0  0
  -23.4880  -32.2370   23.7710 O   0  0  0  0  0  0  0  0  0  0  0  0
  -22.7570  -29.5320   22.5850 C   0  0  0  0  0  0  0  0  0  0  0  0
  -21.4330  -29.3410   22.4360 N   0  0  0  0  0  0  0  0  0  0  0  0
  -23.4180  -28.9310   23.4340 O   0  0  0  0  0  0  0  0  0  0  0  0
  -20.9500  -29.8720   21.7250 H   0  0  0  0  0  0  0  0  0  0  0  0
  -18.0650  -28.0880   22.9160 C   0  0  0  0  0  0  0  0  0  0  0  0
  -20.6160  -28.3970   23.2070 C   0  0  0  0  0  3  0  0  0  0  0  0
  -20.7490  -26.9620   22.6470 C   0  0  0  0  0  2  0  0  0  0  0  0
  -19.6660  -26.6150   21.6230 C   0  0  0  0  0  2  0  0  0  0  0  0
  -18.2730  -26.7390   22.2490 C   0  0  0  0  0  2  0  0  0  0  0  0
  -19.1640  -28.8730   23.3530 C   0  0  0  0  0  0  0  0  0  0  0  0
  -18.9150  -30.1310   23.9430 C   0  0  0  0  0  3  0  0  0  0  0  0
  -17.5990  -30.6060   24.0990 C   0  0  0  0  0  3  0  0  0  0  0  0
  -16.5150  -29.8190   23.6750 C   0  0  0  0  0  3  0  0  0  0  0  0
  -16.7460  -28.5630   23.0880 C   0  0  0  0  0  3  0  0  0  0  0  0
  -25.8430  -32.6300   23.9120 C   0  0  0  0  0  3  0  0  0  0  0  0
  -26.3140  -31.9090   25.2370 C   0  0  1  0  0  0  0  0  0  0  0  0
  -25.1810  -31.7010   26.2690 C   0  0  0  0  0  1  0  0  0  0  0  0
  -26.9230  -30.5240   24.9300 C   0  0  0  0  0  1  0  0  0  0  0  0
  -27.4330  -32.7370   25.9120 C   0  0  0  0  0  1  0  0  0  0  0  0
  -25.5060  -34.0360   24.1980 N   0  0  0  0  0  0  0  0  0  0  0  0
  -25.8630  -35.0800   23.4360 C   0  0  0  0  0  0  0  0  0  0  0  0
  -26.5690  -34.9580   22.4340 O   0  0  0  0  0  0  0  0  0  0  0  0
  -24.8670  -34.2010   24.9610 H   0  0  0  0  0  0  0  0  0  0  0  0
  -24.1580  -36.8790   22.9840 C   0  0  0  0  0  1  0  0  0  0  0  0
  -25.3590  -36.4780   23.8540 C   0  0  0  0  0  3  0  0  0  0  0  0
  -27.4490  -37.3840   24.7740 C   0  0  0  0  0  1  0  0  0  0  0  0
  -26.3990  -37.5280   23.7680 N   0  0  0  0  0  0  0  0  0  0  0  0
  -25.9880  -38.4510   23.8720 H   0  0  0  0  0  0  0  0  0  0  0  0
  1  3  1  0
  1  5  1  0
  3  7  1  0
  3  4  1  0
  4 10  1  0
  4  2  1  0
  5 48  1  0
  5  2  1  0
  6  7  2  0
  7  8  1  0
  9 12  1  0
  9 10  2  0
 10 11  1  0
 13 18  1  0
 14 15  1  0
 14 13  1  0
 16 15  1  0
 16 23  1  0
 16 17  1  0
 18 12  1  0
 18 17  1  0
 19 12  2  0
 20 21  2  0
 21 40  1  0
 22 21  1  0
 22 25  1  0
 23 20  1  0
 23 24  1  0
 24 22  2  0
 25 26  1  0
 26 27  2  0
 28 31  1  0
 28 27  1  0
 29 28  2  0
 30 29  1  0
 30 25  2  0
 31 32  1  0
 32 37  2  0
 32 33  1  0
 33 34  2  0
 34 35  1  0
 35 39  1  0
 36 35  2  0
 37 36  1  0
 38 37  1  0
 40 41  1  0
 41 44  1  0
 41 43  1  0
 42 40  2  0
 45 46  1  0
 45 20  1  0
 47 45  1  0
 48 49  1  0
 50 61  2  0
 51 49  1  0
 51 56  1  0
 52 60  1  0
 52 62  1  0
 53 59  1  0
 53 55  1  0
 54 60  1  0
 55 56  2  0
 55 54  1  0
 57 51  2  0
 58 57  1  0
 58 53  2  0
 59 52  1  0
 60 50  1  0
 62 64  2  0
 63 62  1  0
 65 63  1  0
 66 75  2  0
 66 71  1  0
 67 63  1  0
 67 71  1  0
 68 67  1  0
 69 70  1  0
 69 68  1  0
 70 66  1  0
 71 72  2  0
 72 73  1  0
 74 73  2  0
 75 74  1  0
 76 50  1  0
 76 81  1  0
 76 77  1  0
 77 80  1  1
 77 78  1  0
 79 77  1  0
 81 84  1  0
 82 86  1  0
 82 81  1  0
 83 82  2  0
 86 85  1  0
 88 86  1  0
 88 89  1  0
 88 87  1  0
M  ISO  4   9 100  12 100  48 101  49 101
M  END
>  <TORSDO>  (1) 
F 19

>  <SCORE>  (1) 
-14.816

>  <name>  (1) 
0

>  <ligand_id>  (1) 
0

>  <original_smiles>  (1) 
[H]C([H])=C(C([H])([H])[H])C1([H])C([H])([H])C([H])(C([H])([H])Oc2c([H])c([H])c3c(c2[H])C([H])([H])N(C(=O)C([H])(N([H])C(=O)C([H])(N([H])C([H])([H])[H])C([H])([H])[H])C(C([H])([H])[H])(C([H])([H])[H])C([H])([H])[H])C([H])(C(=O)N([H])C2([H])c4c([H])c([H])c([H])c([H])c4C([H])([H])C([H])([H])C2([H])[H])C3([H])[H])C([H])([H])C1([H])C(=C([H])C(=O)N1C([H])([H])C([H])([H])C([H])([H])C([H])(n2nc(-c3c([H])c([H])c(Oc4c([H])c([H])c(F)c([H])c4F)c([H])c3[H])c(C(=O)N([H])[H])c2N([H])[H])C1([H])[H])C([H])([H])[H]

>  <smiles>  (1) 
[H]C([H])=C(C([H])([H])[H])C1([H])C([H])([H])C([H])(C([H])([H])Oc2c([H])c([H])c3c(c2[H])C([H])([H])N(C(=O)C([H])(N([H])C(=O)C([H])(N([H])C([H])([H])[H])C([H])([H])[H])C(C([H])([H])[H])(C([H])([H])[H])C([H])([H])[H])C([H])(C(=O)N([H])C2([H])c4c([H])c([H])c([H])c([H])c4C([H])([H])C([H])([H])C2([H])[H])C3([H])[H])C([H])([H])C1([H])C(=C([H])C(=O)N1C([H])([H])C([H])([H])C([H])([H])C([H])(n2nc(-c3c([H])c([H])c(Oc4c([H])c([H])c(F)c([H])c4F)c([H])c3[H])c(C(=O)N([H])[H])c2N([H])[H])C1([H])[H])C([H])([H])[H]

$$$$
1:0:0
     RDKit          3D

 92102  0  0  1  0  0  0  0  0999 V2000
  -29.0030  -16.7150   19.2120 C   0  0  0  0  0  3  0  0  0  0  0  0
  -28.4950  -18.0460   19.0070 C   0  0  0  0  0  3  0  0  0  0  0  0
  -30.5520  -17.5530   20.8450 C   0  0  0  0  0  3  0  0  0  0  0  0
  -30.0380  -16.3900   20.1500 C   0  0  0  0  0  0  0  0  0  0  0  0
  -29.0230  -19.1570   19.7150 C   0  0  0  0  0  0  0  0  0  0  0  0
  -30.0380  -18.8940   20.6300 C   0  0  0  0  0  0  0  0  0  0  0  0
  -28.2770  -23.0920   18.8690 C   0  0  0  0  0  3  0  0  0  0  0  0
  -28.8260  -23.7250   19.9320 C   0  0  0  0  0  0  0  0  0  0  0  0
  -30.4030  -20.2140   21.3350 C   0  0  0  0  0  2  0  0  0  0  0  0
  -28.5590  -21.5920   18.5400 C   0  0  0  0  0  2  0  0  0  0  0  0
  -29.7510  -22.7970   20.7760 C   0  0  0  0  0  2  0  0  0  0  0  0
  -28.5030  -20.6380   19.7900 C   0  0  0  0  0  3  0  0  0  0  0  0
  -29.2660  -21.2810   21.0020 C   0  0  1  0  0  0  0  0  0  0  0  0
  -28.2960  -21.3220   22.2050 C   0  0  0  0  0  1  0  0  0  0  0  0
  -30.7210  -14.9570   20.1910 C   0  0  0  0  0  0  0  0  0  0  0  0
  -30.5010  -12.6230   19.3050 C   0  0  0  0  0  2  0  0  0  0  0  0
  -29.5840  -12.6190   18.0640 C   0  0  0  0  0  2  0  0  0  0  0  0
  -28.1170  -12.4300   18.4920 C   0  0  0  0  0  2  0  0  0  0  0  0
  -27.7130  -13.3730   19.6550 C   0  0  0  0  0  3  0  0  0  0  0  0
  -28.7630  -13.4160   20.7790 C   0  0  0  0  0  2  0  0  0  0  0  0
  -30.0570  -13.7410   20.1730 N   0  0  0  0  0  0  0  0  0  0  0  0
  -31.9410  -14.9420   20.0050 O   0  0  0  0  0  0  0  0  0  0  0  0
  -25.3500  -13.9930   20.4120 C   0  0  0  0  0  0  0  0  0  0  0  0
  -24.2740  -13.2330   20.7770 C   0  0  0  0  0  0  0  0  0  0  0  0
  -24.7230  -11.8730   20.7480 C   0  0  0  0  0  0  0  0  0  0  0  0
  -26.3770  -13.0970   20.1650 N   0  0  0  0  0  0  0  0  0  0  0  0
  -26.0100  -11.8190   20.4350 N   0  0  0  0  0  0  0  0  0  0  0  0
  -23.9830  -10.6190   20.9400 C   0  0  0  0  0  0  0  0  0  0  0  0
  -24.3930   -9.6550   21.8870 C   0  0  0  0  0  3  0  0  0  0  0  0
  -23.6540   -8.4660   22.0640 C   0  0  0  0  0  3  0  0  0  0  0  0
  -22.4910   -8.2330   21.2930 C   0  0  0  0  0  0  0  0  0  0  0  0
  -22.1010   -9.1850   20.3330 C   0  0  0  0  0  3  0  0  0  0  0  0
  -22.8400  -10.3650   20.1550 C   0  0  0  0  0  3  0  0  0  0  0  0
  -21.7220   -7.0980   21.3770 O   0  0  0  0  0  0  0  0  0  0  0  0
  -21.6260   -6.3820   22.5420 C   0  0  0  0  0  0  0  0  0  0  0  0
  -21.1750   -6.9690   23.7450 C   0  0  0  0  0  3  0  0  0  0  0  0
  -21.0260   -6.1770   24.9010 C   0  0  0  0  0  3  0  0  0  0  0  0
  -21.3190   -4.8000   24.8540 C   0  0  0  0  0  0  0  0  0  0  0  0
  -21.7610   -4.2140   23.6550 C   0  0  0  0  0  3  0  0  0  0  0  0
  -21.9120   -5.0020   22.5010 C   0  0  0  0  0  0  0  0  0  0  0  0
  -22.3210   -4.4300   21.3430 F   0  0  0  0  0  0  0  0  0  0  0  0
  -21.1670   -4.0350   25.9600 F   0  0  0  0  0  0  0  0  0  0  0  0
  -22.8820  -13.7260   21.0470 C   0  0  0  0  0  0  0  0  0  0  0  0
  -22.1540  -13.0370   21.9170 N   0  0  0  0  0  0  0  0  0  0  0  0
  -22.4520  -14.7540   20.5240 O   0  0  0  0  0  0  0  0  0  0  0  0
  -22.5190  -12.1980   22.3440 H   0  0  0  0  0  0  0  0  0  0  0  0
  -21.2240  -13.3480   22.1560 H   0  0  0  0  0  0  0  0  0  0  0  0
  -25.5410  -15.3600   20.2410 N   0  0  0  0  0  0  0  0  0  0  0  0
  -24.8010  -16.0390   20.3810 H   0  0  0  0  0  0  0  0  0  0  0  0
  -26.4140  -15.7740   19.9360 H   0  0  0  0  0  0  0  0  0  0  0  0
  -28.4860  -25.2090   20.4600 C   0  0  0  0  0  2  0  0  0  0  0  0
  -28.4920  -26.4540   19.6190 O   0  0  0  0  0  0  0  0  0  0  0  0
  -24.6180  -31.6580   22.9690 C   0  0  0  0  0  0  0  0  0  0  0  0
  -27.3670  -27.3080   19.6910 C   0  0  0  0  0  0  0  0  0  0  0  0
  -23.4540  -30.2910   21.2740 C   0  0  0  0  0  3  0  0  0  0  0  0
  -24.9500  -28.8620   19.7680 C   0  0  0  0  0  0  0  0  0  0  0  0
  -25.9790  -30.7130   21.0810 C   0  0  0  0  0  2  0  0  0  0  0  0
  -26.1100  -29.3610   20.3750 C   0  0  0  0  0  0  0  0  0  0  0  0
  -27.3240  -28.5970   20.3260 C   0  0  0  0  0  3  0  0  0  0  0  0
  -26.1770  -26.8680   19.0770 C   0  0  0  0  0  3  0  0  0  0  0  0
  -24.9870  -27.6210   19.1110 C   0  0  0  0  0  3  0  0  0  0  0  0
  -23.6830  -29.6930   19.8600 C   0  0  0  0  0  2  0  0  0  0  0  0
  -24.7040  -30.9050   21.8320 N   0  0  0  0  0  0  0  0  0  0  0  0
  -23.5290  -31.8630   23.5250 O   0  0  0  0  0  0  0  0  0  0  0  0
  -22.8430  -29.2030   22.1910 C   0  0  0  0  0  0  0  0  0  0  0  0
  -21.5170  -29.0040   22.0930 N   0  0  0  0  0  0  0  0  0  0  0  0
  -23.5590  -28.5450   22.9500 O   0  0  0  0  0  0  0  0  0  0  0  0
  -20.9910  -29.6040   21.4710 H   0  0  0  0  0  0  0  0  0  0  0  0
  -18.1860  -27.6910   22.6060 C   0  0  0  0  0  0  0  0  0  0  0  0
  -20.7440  -27.9970   22.8250 C   0  0  0  0  0  3  0  0  0  0  0  0
  -20.8680  -26.6080   22.1560 C   0  0  0  0  0  2  0  0  0  0  0  0
  -19.7470  -26.3220   21.1550 C   0  0  0  0  0  2  0  0  0  0  0  0
  -18.3780  -26.3900   21.8430 C   0  0  0  0  0  2  0  0  0  0  0  0
  -19.2980  -28.4540   23.0520 C   0  0  0  0  0  0  0  0  0  0  0  0
  -19.0680  -29.6740   23.7230 C   0  0  0  0  0  3  0  0  0  0  0  0
  -17.7570  -30.1330   23.9530 C   0  0  0  0  0  3  0  0  0  0  0  0
  -16.6600  -29.3650   23.5280 C   0  0  0  0  0  3  0  0  0  0  0  0
  -16.8740  -28.1470   22.8590 C   0  0  0  0  0  3  0  0  0  0  0  0
  -25.8770  -32.3140   23.6100 C   0  0  0  0  0  3  0  0  0  0  0  0
  -25.5020  -33.6670   24.0470 N   0  0  0  0  0  0  0  0  0  0  0  0
  -25.7610  -34.7870   23.3620 C   0  0  0  0  0  0  0  0  0  0  0  0
  -26.4070  -34.7940   22.3110 O   0  0  0  0  0  0  0  0  0  0  0  0
  -24.9170  -33.7310   24.8660 H   0  0  0  0  0  0  0  0  0  0  0  0
  -23.9280  -36.5050   23.1900 C   0  0  0  0  0  1  0  0  0  0  0  0
  -25.2150  -36.1100   23.9320 C   0  0  0  0  0  3  0  0  0  0  0  0
  -27.3260  -37.0550   24.7580 C   0  0  0  0  0  1  0  0  0  0  0  0
  -26.1840  -37.2260   23.8640 N   0  0  0  0  0  0  0  0  0  0  0  0
  -25.7330  -38.1100   24.0890 H   0  0  0  0  0  0  0  0  0  0  0  0
  -26.4630  -31.4820   24.8180 C   0  0  1  0  0  0  0  0  0  0  0  0
  -25.4140  -31.1210   25.8940 C   0  0  0  0  0  1  0  0  0  0  0  0
  -27.1000  -30.1660   24.3180 C   0  0  0  0  0  1  0  0  0  0  0  0
  -27.5930  -32.2830   25.5100 C   0  0  0  0  0  1  0  0  0  0  0  0
  1  4  1  0
  2  1  2  0
  2  5  1  0
  4 15  1  0
  4  3  2  0
  5 12  1  0
  5  6  2  0
  6  3  1  0
  6  9  1  0
  7  8  2  0
  8 51  1  0
  8 11  1  0
 10  7  1  0
 11 13  1  0
 12 10  1  0
 12 13  1  0
 13  9  1  0
 13 14  1  1
 16 21  1  0
 17 18  1  0
 17 16  1  0
 19 18  1  0
 19 26  1  0
 19 20  1  0
 21 15  1  0
 21 20  1  0
 22 15  2  0
 23 24  2  0
 24 43  1  0
 25 24  1  0
 25 28  1  0
 26 23  1  0
 26 27  1  0
 27 25  2  0
 28 29  1  0
 29 30  2  0
 31 34  1  0
 31 30  1  0
 32 31  2  0
 33 32  1  0
 33 28  2  0
 34 35  1  0
 35 36  1  0
 36 37  2  0
 38 37  1  0
 38 42  1  0
 39 38  2  0
 40 35  2  0
 40 39  1  0
 41 40  1  0
 43 44  1  0
 44 47  1  0
 44 46  1  0
 45 43  2  0
 48 49  1  0
 48 23  1  0
 50 48  1  0
 52 54  1  0
 52 51  1  0
 53 64  2  0
 54 59  1  0
 55 63  1  0
 55 65  1  0
 56 62  1  0
 56 58  1  0
 57 63  1  0
 58 57  1  0
 59 58  2  0
 60 61  1  0
 60 54  2  0
 61 56  2  0
 62 55  1  0
 63 53  1  0
 65 67  2  0
 66 65  1  0
 68 66  1  0
 69 78  2  0
 69 74  1  0
 70 66  1  0
 70 74  1  0
 71 70  1  0
 72 73  1  0
 72 71  1  0
 73 69  1  0
 74 75  2  0
 75 76  1  0
 77 76  2  0
 78 77  1  0
 79 53  1  0
 79 80  1  0
 79 89  1  0
 80 83  1  0
 81 85  1  0
 81 80  1  0
 82 81  2  0
 85 84  1  0
 87 85  1  0
 87 88  1  0
 87 86  1  0
 89 92  1  1
 89 90  1  0
 91 89  1  0
M  ISO  4   4 100  15 100  51 101  52 101
M  END
>  <TORSDO>  (2) 
F 17

>  <SCORE>  (2) 
-14.221

>  <name>  (2) 
1

>  <ligand_id>  (2) 
1

>  <original_smiles>  (2) 
[H]C1=C(C([H])([H])Oc2c([H])c([H])c3c(c2[H])C([H])([H])N(C(=O)C([H])(N([H])C(=O)C([H])(N([H])C([H])([H])[H])C([H])([H])[H])C(C([H])([H])[H])(C([H])([H])[H])C([H])([H])[H])C([H])(C(=O)N([H])C2([H])c4c([H])c([H])c([H])c([H])c4C([H])([H])C([H])([H])C2([H])[H])C3([H])[H])C([H])([H])C2(C([H])([H])[H])C([H])([H])c3c([H])c(C(=O)N4C([H])([H])C([H])([H])C([H])([H])C([H])(n5nc(-c6c([H])c([H])c(Oc7c([H])c([H])c(F)c([H])c7F)c([H])c6[H])c(C(=O)N([H])[H])c5N([H])[H])C4([H])[H])c([H])c([H])c3C2([H])C1([H])[H]

>  <smiles>  (2) 
[H]C1=C(C([H])([H])Oc2c([H])c([H])c3c(c2[H])C([H])([H])N(C(=O)C([H])(N([H])C(=O)C([H])(N([H])C([H])([H])[H])C([H])([H])[H])C(C([H])([H])[H])(C([H])([H])[H])C([H])([H])[H])C([H])(C(=O)N([H])C2([H])c4c([H])c([H])c([H])c([H])c4C([H])([H])C([H])([H])C2([H])[H])C3([H])[H])C([H])([H])C2(C([H])([H])[H])C([H])([H])c3c([H])c(C(=O)N4C([H])([H])C([H])([H])C([H])([H])C([H])(n5nc(-c6c([H])c([H])c(Oc7c([H])c([H])c(F)c([H])c7F)c([H])c6[H])c(C(=O)N([H])[H])c5N([H])[H])C4([H])[H])c([H])c([H])c3C2([H])C1([H])[H]

$$$$
2:0:0
     RDKit          3D

 96 98  0  0  1  0  0  0  0  0999 V2000
  -25.5660  -24.9150   22.6870 C   0  0  0  0  0  0  0  0  0  0  0  0
  -24.1390  -25.5300   22.9230 N   0  0  0  0  0  0  0  0  0  0  0  0
  -26.4260  -25.4660   23.3760 O   0  0  0  0  0  0  0  0  0  0  0  0
  -23.5150  -25.0140   22.3150 H   0  0  0  0  0  0  0  0  0  0  0  0
  -25.3920  -22.3510   22.0920 C   0  0  0  0  0  1  0  0  0  0  0  0
  -26.3330  -23.5050   21.6930 C   0  0  0  0  0  3  0  0  0  0  0  0
  -27.9430  -22.7470   21.5130 N   0  0  0  0  0  4  0  0  0  0  0  0
  -28.1900  -22.5250   22.4650 H   0  0  0  0  0  0  0  0  0  0  0  0
  -28.5240  -23.5420   21.2980 H   0  0  0  0  0  0  0  0  0  0  0  0
  -27.5290  -20.5450   20.0620 C   0  0  0  0  0  1  0  0  0  0  0  0
  -28.6800  -21.4350   20.5440 C   0  0  0  0  0  3  0  0  0  0  0  0
  -31.3930  -20.9260   20.1870 C   0  0  0  0  0  1  0  0  0  0  0  0
  -30.1660  -20.1540   20.6940 C   0  0  0  0  0  2  0  0  0  0  0  0
  -30.5330  -18.2450   20.3630 C   0  0  0  0  0  1  0  0  0  0  0  0
  -31.7850  -16.8070   20.4610 C   0  0  0  0  0  0  0  0  0  0  0  0
  -32.3620  -14.1610   20.1670 C   0  0  0  0  0  2  0  0  0  0  0  0
  -31.7340  -13.4450   18.9200 C   0  0  0  0  0  2  0  0  0  0  0  0
  -30.2330  -13.1670   19.1130 C   0  0  0  0  0  2  0  0  0  0  0  0
  -29.5590  -14.3690   19.8070 C   0  0  0  0  0  3  0  0  0  0  0  0
  -30.2900  -14.8190   21.0760 C   0  0  0  0  0  2  0  0  0  0  0  0
  -31.5380  -15.3860   20.6090 N   0  0  0  0  0  0  0  0  0  0  0  0
  -33.0270  -16.9090   20.2750 O   0  0  0  0  0  0  0  0  0  0  0  0
  -27.1900  -15.1500   20.1750 C   0  0  0  0  0  0  0  0  0  0  0  0
  -26.0340  -14.4810   20.4540 C   0  0  0  0  0  0  0  0  0  0  0  0
  -26.3900  -13.1010   20.5540 C   0  0  0  0  0  0  0  0  0  0  0  0
  -28.1650  -14.1770   20.1010 N   0  0  0  0  0  0  0  0  0  0  0  0
  -27.6980  -12.9430   20.4020 N   0  0  0  0  0  0  0  0  0  0  0  0
  -25.5490  -11.9150   20.7220 C   0  0  0  0  0  0  0  0  0  0  0  0
  -25.7640  -10.9970   21.7740 C   0  0  0  0  0  3  0  0  0  0  0  0
  -24.9250   -9.8710   21.9210 C   0  0  0  0  0  3  0  0  0  0  0  0
  -23.8570   -9.6610   21.0150 C   0  0  0  0  0  0  0  0  0  0  0  0
  -23.6650  -10.5650   19.9560 C   0  0  0  0  0  3  0  0  0  0  0  0
  -24.5040  -11.6800   19.8070 C   0  0  0  0  0  3  0  0  0  0  0  0
  -23.0050   -8.5860   21.0660 O   0  0  0  0  0  0  0  0  0  0  0  0
  -22.5880   -8.0560   22.2600 C   0  0  0  0  0  0  0  0  0  0  0  0
  -21.9330   -8.8380   23.2360 C   0  0  0  0  0  3  0  0  0  0  0  0
  -21.4570   -8.2360   24.4170 C   0  0  0  0  0  3  0  0  0  0  0  0
  -21.6300   -6.8530   24.6230 C   0  0  0  0  0  0  0  0  0  0  0  0
  -22.2780   -6.0720   23.6500 C   0  0  0  0  0  3  0  0  0  0  0  0
  -22.7530   -6.6720   22.4700 C   0  0  0  0  0  0  0  0  0  0  0  0
  -23.3600   -5.9120   21.5260 F   0  0  0  0  0  0  0  0  0  0  0  0
  -21.1670   -6.2720   25.7540 F   0  0  0  0  0  0  0  0  0  0  0  0
  -24.6640  -15.0830   20.5160 C   0  0  0  0  0  0  0  0  0  0  0  0
  -23.7980  -14.5370   21.3610 N   0  0  0  0  0  0  0  0  0  0  0  0
  -24.3730  -16.0780   19.8520 O   0  0  0  0  0  0  0  0  0  0  0  0
  -24.0510  -13.7360   21.9200 H   0  0  0  0  0  0  0  0  0  0  0  0
  -22.8680  -14.9210   21.4470 H   0  0  0  0  0  0  0  0  0  0  0  0
  -27.4880  -16.4930   19.9590 N   0  0  0  0  0  0  0  0  0  0  0  0
  -26.7610  -17.2010   19.9380 H   0  0  0  0  0  0  0  0  0  0  0  0
  -28.3940  -16.8460   19.6770 H   0  0  0  0  0  0  0  0  0  0  0  0
  -23.1130  -26.5290   24.0310 C   0  0  0  0  0  1  0  0  0  0  0  0
  -21.9170  -28.1920   24.1410 C   0  0  0  0  0 15  0  0  0  0  0  0
  -21.2700  -29.6020   22.7450 C   0  0  0  0  0 15  0  0  0  0  0  0
  -21.0720  -29.2910   20.6850 C   0  0  0  0  0 15  0  0  0  0  0  0
  -22.2660  -28.0920   19.4460 C   0  0  0  0  0  1  0  0  0  0  0  0
  -24.0540  -27.5560   19.3890 O   0  0  0  0  0  0  0  0  0  0  0  0
  -25.1930  -30.9740   23.3800 C   0  0  0  0  0  0  0  0  0  0  0  0
  -25.3060  -27.8410   18.7060 C   0  0  0  0  0  3  0  0  0  0  0  0
  -23.7540  -29.9690   21.6420 C   0  0  0  0  0  3  0  0  0  0  0  0
  -24.4210  -30.1380   19.2230 C   0  0  0  0  0  3  0  0  0  0  0  0
  -26.0300  -30.6380   21.0540 C   0  0  0  0  0  2  0  0  0  0  0  0
  -25.6450  -29.8600   19.8130 C   0  0  0  0  0  3  0  0  0  0  0  0
  -26.2380  -28.6660   19.4080 C   0  0  0  0  0  2  0  0  0  0  0  0
  -24.8040  -28.3950   17.5710 C   0  0  0  0  0  2  0  0  0  0  0  0
  -24.0790  -29.5290   17.9740 C   0  0  0  0  0  2  0  0  0  0  0  0
  -23.4660  -30.6770   20.2180 C   0  0  0  0  0  2  0  0  0  0  0  0
  -25.0110  -30.5330   22.1100 N   0  0  0  0  0  0  0  0  0  0  0  0
  -24.2910  -31.0860   24.2220 O   0  0  0  0  0  0  0  0  0  0  0  0
  -23.7220  -28.2420   21.9140 C   0  0  0  0  0  0  0  0  0  0  0  0
  -22.6320  -27.1580   21.5920 N   0  0  0  0  0  0  0  0  0  0  0  0
  -24.5980  -27.8900   22.6320 O   0  0  0  0  0  0  0  0  0  0  0  0
  -23.1320  -26.2800   21.6770 H   0  0  0  0  0  0  0  0  0  0  0  0
  -18.1660  -27.0620   21.5440 C   0  0  0  0  0  0  0  0  0  0  0  0
  -20.9170  -26.7510   21.7990 C   0  0  0  0  0  3  0  0  0  0  0  0
  -20.7210  -25.7080   20.7790 C   0  0  0  0  0  2  0  0  0  0  0  0
  -19.6110  -26.0010   19.8040 C   0  0  0  0  0  2  0  0  0  0  0  0
  -18.2660  -25.9880   20.5080 C   0  0  0  0  0  2  0  0  0  0  0  0
  -19.3550  -27.4850   22.2210 C   0  0  0  0  0  0  0  0  0  0  0  0
  -18.9350  -28.3810   23.3110 C   0  0  0  0  0  3  0  0  0  0  0  0
  -17.6560  -28.9910   23.4810 C   0  0  0  0  0  3  0  0  0  0  0  0
  -16.5740  -28.5490   22.7160 C   0  0  0  0  0  3  0  0  0  0  0  0
  -16.8390  -27.5340   21.7940 C   0  0  0  0  0  3  0  0  0  0  0  0
  -26.6150  -31.3600   23.8330 C   0  0  0  0  0  3  0  0  0  0  0  0
  -27.2280  -30.2800   24.7960 C   0  0  1  0  0  0  0  0  0  0  0  0
  -26.2950  -29.8460   25.9500 C   0  0  0  0  0  1  0  0  0  0  0  0
  -27.6470  -29.0070   24.0300 C   0  0  0  0  0  1  0  0  0  0  0  0
  -28.5280  -30.8410   25.4060 C   0  0  0  0  0  1  0  0  0  0  0  0
  -26.5350  -32.6720   24.4870 N   0  0  0  0  0  0  0  0  0  0  0  0
  -26.7980  -33.8340   23.8780 C   0  0  0  0  0  0  0  0  0  0  0  0
  -27.2040  -33.9010   22.7150 O   0  0  0  0  0  0  0  0  0  0  0  0
  -26.1690  -32.6860   25.4290 H   0  0  0  0  0  0  0  0  0  0  0  0
  -25.3200  -35.8390   24.2420 C   0  0  0  0  0  1  0  0  0  0  0  0
  -26.6000  -35.1250   24.6960 C   0  0  0  0  0  3  0  0  0  0  0  0
  -28.9530  -35.5520   25.2640 C   0  0  0  0  0  1  0  0  0  0  0  0
  -27.7490  -36.0530   24.6070 N   0  0  0  0  0  0  0  0  0  0  0  0
  -27.5140  -36.9550   25.0140 H   0  0  0  0  0  0  0  0  0  0  0  0
  1  2  1  0
  1  3  2  0
  2 51  1  0
  4  2  1  0
  6  5  1  0
  6  1  1  0
  7  6  1  0
  7  8  1  0
  9  7  1  0
 11 10  1  0
 11 13  1  0
 11  7  1  0
 12 13  1  0
 14 15  1  0
 15 21  1  0
 16 21  1  0
 17 18  1  0
 17 16  1  0
 19 18  1  0
 19 26  1  0
 19 20  1  0
 21 20  1  0
 22 15  2  0
 23 24  2  0
 24 43  1  0
 24 25  1  0
 25 28  1  0
 26 23  1  0
 26 27  1  0
 27 25  2  0
 28 29  1  0
 29 30  2  0
 31 34  1  0
 31 30  1  0
 32 31  2  0
 33 32  1  0
 33 28  2  0
 34 35  1  0
 35 40  2  0
 35 36  1  0
 36 37  2  0
 37 38  1  0
 38 42  1  0
 39 38  2  0
 40 39  1  0
 41 40  1  0
 43 44  1  0
 44 47  1  0
 44 46  1  0
 45 43  2  0
 48 23  1  0
 49 48  1  0
 50 48  1  0
 56 55  1  0
 57 68  2  0
 58 56  1  0
 58 63  1  0
 59 69  1  0
 59 67  1  0
 60 65  1  0
 60 62  1  0
 60 66  1  0
 61 67  1  0
 62 63  1  0
 62 61  1  0
 64 65  1  0
 64 58  1  0
 66 59  1  0
 67 57  1  0
 69 71  2  0
 70 72  1  0
 70 69  1  0
 73 82  2  0
 73 78  1  0
 74 70  1  0
 74 78  1  0
 75 74  1  0
 76 77  1  0
 76 75  1  0
 77 73  1  0
 78 79  2  0
 79 80  1  0
 81 80  2  0
 82 81  1  0
 83 57  1  0
 83 88  1  0
 83 84  1  0
 84 87  1  1
 84 85  1  0
 86 84  1  0
 88 91  1  0
 89 88  1  0
 89 93  1  0
 90 89  2  0
 93 92  1  0
 95 93  1  0
 95 96  1  0
 95 94  1  0
M  ISO  4  14 100  15 100  55 101  56 101
M  END
>  <TORSDO>  (3) 
F 26

>  <SCORE>  (3) 
-6.180

>  <name>  (3) 
2

>  <ligand_id>  (3) 
2

>  <original_smiles>  (3) 
[H]c1c([H])c([H])c2c(c1[H])C([H])([H])C([H])([H])C([H])([H])C2([H])N([H])C(=O)C1([H])N(C(=O)C([H])(N([H])C(=O)C([H])(N([H])C([H])([H])[H])C([H])([H])[H])C(C([H])([H])[H])(C([H])([H])[H])C([H])([H])[H])C([H])([H])c2c([H])c(OC([H])([H])C([H])([H])C([H])([H])C([H])([H])C([H])([H])N([H])C(=O)C([H])(C([H])([H])[H])[N+]([H])([H])C([H])(C([H])([H])[H])C([H])(C([H])([H])[H])C([H])([H])C(=O)N3C([H])([H])C([H])([H])C([H])([H])C([H])(n4nc(-c5c([H])c([H])c(Oc6c([H])c([H])c(F)c([H])c6F)c([H])c5[H])c(C(=O)N([H])[H])c4N([H])[H])C3([H])[H])c([H])c([H])c2C1([H])[H]

>  <smiles>  (3) 
[H]c1c([H])c([H])c2c(c1[H])C([H])([H])C([H])([H])C([H])([H])C2([H])N([H])C(=O)C1([H])N(C(=O)C([H])(N([H])C(=O)C([H])(N([H])C([H])([H])[H])C([H])([H])[H])C(C([H])([H])[H])(C([H])([H])[H])C([H])([H])[H])C([H])([H])c2c([H])c(OC([H])([H])C([H])([H])C([H])([H])C([H])([H])C([H])([H])N([H])C(=O)C([H])(C([H])([H])[H])[N+]([H])([H])C([H])(C([H])([H])[H])C([H])(C([H])([H])[H])C([H])([H])C(=O)N3C([H])([H])C([H])([H])C([H])([H])C([H])(n4nc(-c5c([H])c([H])c(Oc6c([H])c([H])c(F)c([H])c6F)c([H])c5[H])c(C(=O)N([H])[H])c4N([H])[H])C3([H])[H])c([H])c([H])c2C1([H])[H]

$$$$
3:0:0
     RDKit          3D

 90 98  0  0  1  0  0  0  0  0999 V2000
  -28.6950  -21.3900   18.7600 C   0  0  0  0  0  2  0  0  0  0  0  0
  -28.8340  -19.7770   18.9500 C   0  0  0  0  0  2  0  0  0  0  0  0
  -29.3740  -20.9010   20.8480 C   0  0  0  0  0  2  0  0  0  0  0  0
  -28.4730  -22.2600   20.0700 C   0  0  2  0  0  0  0  0  0  0  0  0
  -29.8070  -19.2990   20.1020 C   0  0  2  0  0  0  0  0  0  0  0  0
  -27.0210  -22.0580   20.5420 C   0  0  0  0  0  1  0  0  0  0  0  0
  -31.7710  -18.5500   18.6180 C   0  0  0  0  0  1  0  0  0  0  0  0
  -31.3130  -19.5010   19.7400 C   0  0  0  0  0  3  0  0  0  0  0  0
  -32.1870  -19.4120   21.0250 C   0  0  0  0  0  2  0  0  0  0  0  0
  -34.3830  -19.7860   22.2590 C   0  0  0  0  0  1  0  0  0  0  0  0
  -33.6010  -20.0150   20.9530 C   0  0  0  0  0  2  0  0  0  0  0  0
  -29.7370  -17.4380   20.6030 C   0  0  0  0  0  2  0  0  0  0  0  0
  -30.5610  -15.8020   20.3010 C   0  0  0  0  0  0  0  0  0  0  0  0
  -30.6670  -13.2800   19.4430 C   0  0  0  0  0  2  0  0  0  0  0  0
  -29.7870  -12.9990   18.1920 C   0  0  0  0  0  2  0  0  0  0  0  0
  -28.3410  -12.6670   18.5950 C   0  0  0  0  0  2  0  0  0  0  0  0
  -27.8410  -13.6220   19.7040 C   0  0  0  0  0  3  0  0  0  0  0  0
  -28.8540  -13.8410   20.8460 C   0  0  0  0  0  2  0  0  0  0  0  0
  -30.0700  -14.4310   20.2540 N   0  0  0  0  0  0  0  0  0  0  0  0
  -31.7780  -15.7560   20.0400 O   0  0  0  0  0  0  0  0  0  0  0  0
  -25.4670  -14.1520   20.4300 C   0  0  0  0  0  0  0  0  0  0  0  0
  -24.4050  -13.3690   20.7840 C   0  0  0  0  0  0  0  0  0  0  0  0
  -24.8810  -12.0220   20.7600 C   0  0  0  0  0  0  0  0  0  0  0  0
  -26.5140  -13.2830   20.1960 N   0  0  0  0  0  0  0  0  0  0  0  0
  -26.1780  -11.9940   20.4650 N   0  0  0  0  0  0  0  0  0  0  0  0
  -24.1580  -10.7560   20.9440 C   0  0  0  0  0  0  0  0  0  0  0  0
  -24.5630   -9.8050   21.9070 C   0  0  0  0  0  3  0  0  0  0  0  0
  -23.8330   -8.6100   22.0840 C   0  0  0  0  0  3  0  0  0  0  0  0
  -22.6840   -8.3550   21.2960 C   0  0  0  0  0  0  0  0  0  0  0  0
  -22.2980   -9.2960   20.3240 C   0  0  0  0  0  3  0  0  0  0  0  0
  -23.0290  -10.4840   20.1470 C   0  0  0  0  0  3  0  0  0  0  0  0
  -21.9340   -7.2080   21.3740 O   0  0  0  0  0  0  0  0  0  0  0  0
  -21.8010   -6.5140   22.5490 C   0  0  0  0  0  0  0  0  0  0  0  0
  -21.2890   -7.1180   23.7180 C   0  0  0  0  0  3  0  0  0  0  0  0
  -21.1050   -6.3490   24.8830 C   0  0  0  0  0  3  0  0  0  0  0  0
  -21.4200   -4.9770   24.8820 C   0  0  0  0  0  0  0  0  0  0  0  0
  -21.9240   -4.3730   23.7170 C   0  0  0  0  0  3  0  0  0  0  0  0
  -22.1110   -5.1390   22.5530 C   0  0  0  0  0  0  0  0  0  0  0  0
  -22.5750   -4.5460   21.4270 F   0  0  0  0  0  0  0  0  0  0  0  0
  -21.2370   -4.2370   26.0010 F   0  0  0  0  0  0  0  0  0  0  0  0
  -23.0020  -13.8400   21.0280 C   0  0  0  0  0  0  0  0  0  0  0  0
  -22.2720  -13.1570   21.8990 N   0  0  0  0  0  0  0  0  0  0  0  0
  -22.5630  -14.8500   20.4770 O   0  0  0  0  0  0  0  0  0  0  0  0
  -22.6470  -12.3440   22.3650 H   0  0  0  0  0  0  0  0  0  0  0  0
  -21.3270  -13.4490   22.1010 H   0  0  0  0  0  0  0  0  0  0  0  0
  -25.6270  -15.5250   20.2540 N   0  0  0  0  0  0  0  0  0  0  0  0
  -24.8580  -16.1760   20.3630 H   0  0  0  0  0  0  0  0  0  0  0  0
  -26.4810  -15.9700   19.9420 H   0  0  0  0  0  0  0  0  0  0  0  0
  -28.4960  -24.1530   19.6940 C   0  0  0  0  0  2  0  0  0  0  0  0
  -28.2910  -25.8160   20.1540 O   0  0  0  0  0  0  0  0  0  0  0  0
  -24.6540  -31.8840   23.1120 C   0  0  0  0  0  0  0  0  0  0  0  0
  -27.2900  -26.9770   20.0090 C   0  0  0  0  0  0  0  0  0  0  0  0
  -23.4910  -30.4980   21.4440 C   0  0  0  0  0  3  0  0  0  0  0  0
  -24.9710  -28.9230   19.9840 C   0  0  0  0  0  0  0  0  0  0  0  0
  -26.0590  -30.7120   21.3210 C   0  0  0  0  0  2  0  0  0  0  0  0
  -26.1510  -29.3010   20.6330 C   0  0  0  0  0  0  0  0  0  0  0  0
  -27.2900  -28.3500   20.6230 C   0  0  0  0  0  3  0  0  0  0  0  0
  -26.0830  -26.7970   19.2880 C   0  0  0  0  0  3  0  0  0  0  0  0
  -24.9730  -27.6990   19.2880 C   0  0  0  0  0  3  0  0  0  0  0  0
  -23.7390  -29.8370   20.0560 C   0  0  0  0  0  2  0  0  0  0  0  0
  -24.7580  -31.0630   22.0120 N   0  0  0  0  0  0  0  0  0  0  0  0
  -23.5570  -32.1480   23.6330 O   0  0  0  0  0  0  0  0  0  0  0  0
  -22.8040  -29.4820   22.3950 C   0  0  0  0  0  0  0  0  0  0  0  0
  -21.4700  -29.3240   22.2910 N   0  0  0  0  0  0  0  0  0  0  0  0
  -23.4790  -28.8350   23.1980 O   0  0  0  0  0  0  0  0  0  0  0  0
  -20.9730  -29.8980   21.6230 H   0  0  0  0  0  0  0  0  0  0  0  0
  -18.0980  -28.0890   22.8400 C   0  0  0  0  0  0  0  0  0  0  0  0
  -20.6640  -28.3580   23.0470 C   0  0  0  0  0  3  0  0  0  0  0  0
  -20.7520  -26.9460   22.4200 C   0  0  0  0  0  2  0  0  0  0  0  0
  -19.6270  -26.6580   21.4210 C   0  0  0  0  0  2  0  0  0  0  0  0
  -18.2610  -26.7710   22.1040 C   0  0  0  0  0  2  0  0  0  0  0  0
  -19.2250  -28.8430   23.2690 C   0  0  0  0  0  0  0  0  0  0  0  0
  -19.0130  -30.0760   23.9220 C   0  0  0  0  0  3  0  0  0  0  0  0
  -17.7090  -30.5560   24.1470 C   0  0  0  0  0  3  0  0  0  0  0  0
  -16.5990  -29.8010   23.7310 C   0  0  0  0  0  3  0  0  0  0  0  0
  -16.7940  -28.5690   23.0820 C   0  0  0  0  0  3  0  0  0  0  0  0
  -25.9060  -32.5450   23.7630 C   0  0  0  0  0  3  0  0  0  0  0  0
  -25.5670  -33.9400   24.1030 N   0  0  0  0  0  0  0  0  0  0  0  0
  -25.9060  -35.0150   23.3790 C   0  0  0  0  0  0  0  0  0  0  0  0
  -26.5980  -34.9380   22.3610 O   0  0  0  0  0  0  0  0  0  0  0  0
  -24.9510  -34.0720   24.8930 H   0  0  0  0  0  0  0  0  0  0  0  0
  -24.1720  -36.8120   23.0380 C   0  0  0  0  0  1  0  0  0  0  0  0
  -25.4030  -36.3940   23.8580 C   0  0  0  0  0  3  0  0  0  0  0  0
  -27.5150  -37.2850   24.7390 C   0  0  0  0  0  1  0  0  0  0  0  0
  -26.4290  -37.4590   23.7800 N   0  0  0  0  0  0  0  0  0  0  0  0
  -26.0110  -38.3720   23.9360 H   0  0  0  0  0  0  0  0  0  0  0  0
  -26.4050  -31.7870   25.0570 C   0  0  1  0  0  0  0  0  0  0  0  0
  -25.2950  -31.5570   26.1120 C   0  0  0  0  0  1  0  0  0  0  0  0
  -26.9990  -30.4080   24.6990 C   0  0  0  0  0  1  0  0  0  0  0  0
  -27.5440  -32.5910   25.7300 C   0  0  0  0  0  1  0  0  0  0  0  0
  1  2  1  0
  1  4  1  0
  2  5  1  0
  4  6  1  1
  4  3  1  0
  5 12  1  1
  5  3  1  0
  8  7  1  0
  8  5  1  0
  8  9  1  0
 11  9  1  0
 11 10  1  0
 13 12  1  0
 14 19  1  0
 15 16  1  0
 15 14  1  0
 17 16  1  0
 17 24  1  0
 17 18  1  0
 19 13  1  0
 19 18  1  0
 20 13  2  0
 21 22  2  0
 22 41  1  0
 23 22  1  0
 23 26  1  0
 24 21  1  0
 24 25  1  0
 25 23  2  0
 26 27  1  0
 27 28  2  0
 29 32  1  0
 29 28  1  0
 30 29  2  0
 31 30  1  0
 31 26  2  0
 32 33  1  0
 33 38  2  0
 33 34  1  0
 34 35  2  0
 36 35  1  0
 36 40  1  0
 37 36  2  0
 38 37  1  0
 39 38  1  0
 41 42  1  0
 42 45  1  0
 42 44  1  0
 43 41  2  0
 46 47  1  0
 46 21  1  0
 48 46  1  0
 49  4  1  0
 49 50  1  0
 51 62  2  0
 52 50  1  0
 52 57  1  0
 53 61  1  0
 53 63  1  0
 54 60  1  0
 54 56  1  0
 55 61  1  0
 56 55  1  0
 57 56  2  0
 58 52  2  0
 59 58  1  0
 59 54  2  0
 60 53  1  0
 61 51  1  0
 63 65  2  0
 64 63  1  0
 66 64  1  0
 67 76  2  0
 67 72  1  0
 68 64  1  0
 68 72  1  0
 69 68  1  0
 70 71  1  0
 70 69  1  0
 71 67  1  0
 72 73  2  0
 73 74  1  0
 75 74  2  0
 76 75  1  0
 77 51  1  0
 77 78  1  0
 77 87  1  0
 78 81  1  0
 79 83  1  0
 79 78  1  0
 80 79  2  0
 83 82  1  0
 85 83  1  0
 85 86  1  0
 85 84  1  0
 87 90  1  1
 87 88  1  0
 89 87  1  0
M  ISO  4  12 100  13 100  49 101  50 101
M  END
>  <TORSDO>  (4) 
F 21

>  <SCORE>  (4) 
-15.108

>  <name>  (4) 
3

>  <ligand_id>  (4) 
3

>  <original_smiles>  (4) 
[H]c1c([H])c([H])c2c(c1[H])C([H])([H])C([H])([H])C([H])([H])C2([H])N([H])C(=O)C1([H])N(C(=O)C([H])(N([H])C(=O)C([H])(N([H])C([H])([H])[H])C([H])([H])[H])C(C([H])([H])[H])(C([H])([H])[H])C([H])([H])[H])C([H])([H])c2c([H])c(OC([H])([H])C3(C([H])([H])[H])C([H])([H])C([H])([H])C(C([H])([H])C(=O)N4C([H])([H])C([H])([H])C([H])([H])C([H])(n5nc(-c6c([H])c([H])c(Oc7c([H])c([H])c(F)c([H])c7F)c([H])c6[H])c(C(=O)N([H])[H])c5N([H])[H])C4([H])[H])(C([H])(C([H])([H])[H])C([H])([H])C([H])([H])C([H])([H])[H])C3([H])[H])c([H])c([H])c2C1([H])[H]

>  <smiles>  (4) 
[H]c1c([H])c([H])c2c(c1[H])C([H])([H])C([H])([H])C([H])([H])C2([H])N([H])C(=O)C1([H])N(C(=O)C([H])(N([H])C(=O)C([H])(N([H])C([H])([H])[H])C([H])([H])[H])C(C([H])([H])[H])(C([H])([H])[H])C([H])([H])[H])C([H])([H])c2c([H])c(OC([H])([H])C3(C([H])([H])[H])C([H])([H])C([H])([H])C(C([H])([H])C(=O)N4C([H])([H])C([H])([H])C([H])([H])C([H])(n5nc(-c6c([H])c([H])c(Oc7c([H])c([H])c(F)c([H])c7F)c([H])c6[H])c(C(=O)N([H])[H])c5N([H])[H])C4([H])[H])(C([H])(C([H])([H])[H])C([H])([H])C([H])([H])C([H])([H])[H])C3([H])[H])c([H])c([H])c2C1([H])[H]

$$$$
4:0:0
     RDKit          3D

 90 98  0  0  1  0  0  0  0  0999 V2000
  -29.1730  -20.0340   20.2420 C   0  0  0  0  0  3  0  0  0  0  0  0
  -28.1970  -17.0840   21.6710 C   0  0  0  0  0  2  0  0  0  0  0  0
  -29.6490  -16.6010   21.5630 C   0  0  0  0  0  2  0  0  0  0  0  0
  -27.8650  -17.8130   20.3440 C   0  0  0  0  0  2  0  0  0  0  0  0
  -29.9310  -16.7050   20.0690 C   0  0  0  0  0  3  0  0  0  0  0  0
  -29.2210  -18.3080   19.6760 C   0  0  0  0  0  3  0  0  0  0  0  0
  -30.5590  -15.2370   19.3830 C   0  0  0  0  0  0  0  0  0  0  0  0
  -30.3330  -12.8590   18.3820 C   0  0  0  0  0  2  0  0  0  0  0  0
  -29.2260  -12.8070   17.2990 C   0  0  0  0  0  2  0  0  0  0  0  0
  -27.8520  -12.5340   17.9370 C   0  0  0  0  0  2  0  0  0  0  0  0
  -27.6100  -13.4340   19.1750 C   0  0  0  0  0  3  0  0  0  0  0  0
  -28.8200  -13.4490   20.1340 C   0  0  0  0  0  2  0  0  0  0  0  0
  -29.9890  -13.9340   19.3760 N   0  0  0  0  0  0  0  0  0  0  0  0
  -31.6540  -15.2820   18.8080 O   0  0  0  0  0  0  0  0  0  0  0  0
  -25.3860  -13.9870   20.3200 C   0  0  0  0  0  0  0  0  0  0  0  0
  -24.3780  -13.2110   20.8120 C   0  0  0  0  0  0  0  0  0  0  0  0
  -24.7910  -11.8610   20.6090 C   0  0  0  0  0  0  0  0  0  0  0  0
  -26.3570  -13.1160   19.8570 N   0  0  0  0  0  0  0  0  0  0  0  0
  -26.0150  -11.8210   20.0890 N   0  0  0  0  0  0  0  0  0  0  0  0
  -24.0570  -10.6080   20.8250 C   0  0  0  0  0  0  0  0  0  0  0  0
  -24.5410   -9.6120   21.7000 C   0  0  0  0  0  3  0  0  0  0  0  0
  -23.8060   -8.4250   21.9090 C   0  0  0  0  0  3  0  0  0  0  0  0
  -22.5730   -8.2280   21.2460 C   0  0  0  0  0  0  0  0  0  0  0  0
  -22.1060   -9.2120   20.3570 C   0  0  0  0  0  3  0  0  0  0  0  0
  -22.8410  -10.3910   20.1440 C   0  0  0  0  0  3  0  0  0  0  0  0
  -21.8020   -7.0970   21.3680 O   0  0  0  0  0  0  0  0  0  0  0  0
  -21.7380   -6.3970   22.5450 C   0  0  0  0  0  0  0  0  0  0  0  0
  -21.3180   -7.0000   23.7520 C   0  0  0  0  0  3  0  0  0  0  0  0
  -21.2030   -6.2250   24.9230 C   0  0  0  0  0  3  0  0  0  0  0  0
  -21.4940   -4.8480   24.8890 C   0  0  0  0  0  0  0  0  0  0  0  0
  -21.9050   -4.2440   23.6870 C   0  0  0  0  0  3  0  0  0  0  0  0
  -22.0250   -5.0170   22.5190 C   0  0  0  0  0  0  0  0  0  0  0  0
  -22.4020   -4.4260   21.3590 F   0  0  0  0  0  0  0  0  0  0  0  0
  -21.3740   -4.1020   26.0120 F   0  0  0  0  0  0  0  0  0  0  0  0
  -23.0610  -13.7030   21.3390 C   0  0  0  0  0  0  0  0  0  0  0  0
  -22.4710  -12.9770   22.2850 N   0  0  0  0  0  0  0  0  0  0  0  0
  -22.5730  -14.7650   20.9500 O   0  0  0  0  0  0  0  0  0  0  0  0
  -22.8830  -12.1200   22.6220 H   0  0  0  0  0  0  0  0  0  0  0  0
  -21.5930  -13.2840   22.6810 H   0  0  0  0  0  0  0  0  0  0  0  0
  -25.5340  -15.3580   20.2040 N   0  0  0  0  0  0  0  0  0  0  0  0
  -24.8140  -16.0120   20.4950 H   0  0  0  0  0  0  0  0  0  0  0  0
  -26.3150  -15.8030   19.7450 H   0  0  0  0  0  0  0  0  0  0  0  0
  -27.2050  -21.4410   20.8720 C   0  0  0  0  0  1  0  0  0  0  0  0
  -27.8450  -20.5610   19.8690 N   0  0  0  0  0  4  0  0  0  0  0  0
  -27.9280  -21.0390   18.9870 H   0  0  0  0  0  0  0  0  0  0  0  0
  -27.2460  -19.7630   19.7320 H   0  0  0  0  0  0  0  0  0  0  0  0
  -30.0030  -21.5410   20.0190 C   0  0  0  0  0  2  0  0  0  0  0  0
  -29.4570  -23.1790   19.6020 C   0  0  0  0  0  2  0  0  0  0  0  0
  -28.8720  -24.6090   20.4230 C   0  0  0  0  0  2  0  0  0  0  0  0
  -28.8220  -26.1640   20.0080 O   0  0  0  0  0  0  0  0  0  0  0  0
  -24.6220  -31.5710   23.0150 C   0  0  0  0  0  0  0  0  0  0  0  0
  -27.6650  -27.0670   20.0110 C   0  0  0  0  0  0  0  0  0  0  0  0
  -23.5820  -30.1060   21.3260 C   0  0  0  0  0  3  0  0  0  0  0  0
  -25.1940  -28.6610   19.9240 C   0  0  0  0  0  0  0  0  0  0  0  0
  -26.1110  -30.5710   21.2300 C   0  0  0  0  0  2  0  0  0  0  0  0
  -26.3210  -29.1880   20.5660 C   0  0  0  0  0  0  0  0  0  0  0  0
  -27.5520  -28.4140   20.5820 C   0  0  0  0  0  3  0  0  0  0  0  0
  -26.4980  -26.6540   19.3340 C   0  0  0  0  0  3  0  0  0  0  0  0
  -25.2980  -27.4110   19.2910 C   0  0  0  0  0  3  0  0  0  0  0  0
  -23.8940  -29.4610   19.9470 C   0  0  0  0  0  2  0  0  0  0  0  0
  -24.7890  -30.7740   21.9120 N   0  0  0  0  0  0  0  0  0  0  0  0
  -23.5040  -31.7570   23.5210 O   0  0  0  0  0  0  0  0  0  0  0  0
  -22.9610  -29.0380   22.2630 C   0  0  0  0  0  0  0  0  0  0  0  0
  -21.6540  -28.7600   22.1030 N   0  0  0  0  0  0  0  0  0  0  0  0
  -23.6620  -28.4580   23.0960 O   0  0  0  0  0  0  0  0  0  0  0  0
  -21.1390  -29.2810   21.4060 H   0  0  0  0  0  0  0  0  0  0  0  0
  -18.3740  -27.2790   22.5290 C   0  0  0  0  0  0  0  0  0  0  0  0
  -20.9000  -27.7420   22.8410 C   0  0  0  0  0  3  0  0  0  0  0  0
  -21.1240  -26.3350   22.2390 C   0  0  0  0  0  2  0  0  0  0  0  0
  -20.0670  -25.9500   21.2000 C   0  0  0  0  0  2  0  0  0  0  0  0
  -18.6680  -25.9660   21.8240 C   0  0  0  0  0  2  0  0  0  0  0  0
  -19.4200  -28.1210   22.9930 C   0  0  0  0  0  0  0  0  0  0  0  0
  -19.0900  -29.3450   23.6120 C   0  0  0  0  0  3  0  0  0  0  0  0
  -17.7460  -29.7320   23.7730 C   0  0  0  0  0  3  0  0  0  0  0  0
  -16.7140  -28.8890   23.3260 C   0  0  0  0  0  3  0  0  0  0  0  0
  -17.0280  -27.6640   22.7100 C   0  0  0  0  0  3  0  0  0  0  0  0
  -25.8270  -32.3020   23.6820 C   0  0  0  0  0  3  0  0  0  0  0  0
  -25.3890  -33.6630   24.0360 N   0  0  0  0  0  0  0  0  0  0  0  0
  -25.6330  -34.7610   23.3090 C   0  0  0  0  0  0  0  0  0  0  0  0
  -26.3150  -34.7420   22.2810 O   0  0  0  0  0  0  0  0  0  0  0  0
  -24.7800  -33.7450   24.8360 H   0  0  0  0  0  0  0  0  0  0  0  0
  -23.7520  -36.4060   22.9930 C   0  0  0  0  0  1  0  0  0  0  0  0
  -25.0240  -36.0910   23.7980 C   0  0  0  0  0  3  0  0  0  0  0  0
  -27.0680  -37.1470   24.6580 C   0  0  0  0  0  1  0  0  0  0  0  0
  -25.9590  -37.2340   23.7120 N   0  0  0  0  0  0  0  0  0  0  0  0
  -25.4710  -38.1100   23.8780 H   0  0  0  0  0  0  0  0  0  0  0  0
  -26.3760  -31.5550   24.9610 C   0  0  1  0  0  0  0  0  0  0  0  0
  -25.2810  -31.2060   25.9950 C   0  0  0  0  0  1  0  0  0  0  0  0
  -27.0890  -30.2390   24.5700 C   0  0  0  0  0  1  0  0  0  0  0  0
  -27.4350  -32.4350   25.6670 C   0  0  0  0  0  1  0  0  0  0  0  0
  1 47  1  0
  3  2  1  0
  4  2  1  0
  5  7  1  0
  5  3  1  0
  6  5  1  0
  6  1  1  0
  6  4  1  0
  8 13  1  0
  9 10  1  0
  9  8  1  0
 11 10  1  0
 11 18  1  0
 11 12  1  0
 13  7  1  0
 13 12  1  0
 14  7  2  0
 15 16  2  0
 16 35  1  0
 17 16  1  0
 17 20  1  0
 18 19  1  0
 18 15  1  0
 19 17  2  0
 20 21  1  0
 21 22  2  0
 23 26  1  0
 23 22  1  0
 24 23  2  0
 25 24  1  0
 25 20  2  0
 26 27  1  0
 27 28  1  0
 28 29  2  0
 30 29  1  0
 30 34  1  0
 31 30  2  0
 32 27  2  0
 32 31  1  0
 33 32  1  0
 35 36  1  0
 36 38  1  0
 36 39  1  0
 37 35  2  0
 40 15  1  0
 40 41  1  0
 42 40  1  0
 44  1  1  0
 44 43  1  0
 45 44  1  0
 46 44  1  0
 48 47  1  0
 48 49  1  0
 50 52  1  0
 50 49  1  0
 51 62  2  0
 52 57  1  0
 53 61  1  0
 53 63  1  0
 54 60  1  0
 54 56  1  0
 55 61  1  0
 56 57  2  0
 56 55  1  0
 58 52  2  0
 59 58  1  0
 59 54  2  0
 60 53  1  0
 61 51  1  0
 63 65  2  0
 64 63  1  0
 66 64  1  0
 67 76  2  0
 67 72  1  0
 68 64  1  0
 68 72  1  0
 69 68  1  0
 70 71  1  0
 70 69  1  0
 71 67  1  0
 72 73  2  0
 73 74  1  0
 75 74  2  0
 76 75  1  0
 77 51  1  0
 77 78  1  0
 77 87  1  0
 78 81  1  0
 79 83  1  0
 79 78  1  0
 80 79  2  0
 83 82  1  0
 85 83  1  0
 85 86  1  0
 85 84  1  0
 87 90  1  1
 87 88  1  0
 89 87  1  0
M  ISO  4   5 100   7 100  49 101  50 101
M  END
>  <TORSDO>  (5) 
F 21

>  <SCORE>  (5) 
-11.266

>  <name>  (5) 
4

>  <ligand_id>  (5) 
4

>  <original_smiles>  (5) 
[H]c1c([H])c([H])c2c(c1[H])C([H])([H])C([H])([H])C([H])([H])C2([H])N([H])C(=O)C1([H])N(C(=O)C([H])(N([H])C(=O)C([H])(N([H])C([H])([H])[H])C([H])([H])[H])C(C([H])([H])[H])(C([H])([H])[H])C([H])([H])[H])C([H])([H])c2c([H])c(OC([H])([H])C([H])([H])C([H])([H])C([H])(C3([H])C([H])([H])C([H])([H])C([H])([H])C3([H])C(=O)N3C([H])([H])C([H])([H])C([H])([H])C([H])(n4nc(-c5c([H])c([H])c(Oc6c([H])c([H])c(F)c([H])c6F)c([H])c5[H])c(C(=O)N([H])[H])c4N([H])[H])C3([H])[H])[N+]([H])([H])C([H])([H])[H])c([H])c([H])c2C1([H])[H]

>  <smiles>  (5) 
[H]c1c([H])c([H])c2c(c1[H])C([H])([H])C([H])([H])C([H])([H])C2([H])N([H])C(=O)C1([H])N(C(=O)C([H])(N([H])C(=O)C([H])(N([H])C([H])([H])[H])C([H])([H])[H])C(C([H])([H])[H])(C([H])([H])[H])C([H])([H])[H])C([H])([H])c2c([H])c(OC([H])([H])C([H])([H])C([H])([H])C([H])(C3([H])C([H])([H])C([H])([H])C([H])([H])C3([H])C(=O)N3C([H])([H])C([H])([H])C([H])([H])C([H])(n4nc(-c5c([H])c([H])c(Oc6c([H])c([H])c(F)c([H])c6F)c([H])c5[H])c(C(=O)N([H])[H])c4N([H])[H])C3([H])[H])[N+]([H])([H])C([H])([H])[H])c([H])c([H])c2C1([H])[H]

$$$$
5:0:0
     RDKit          3D

 98100  0  0  1  0  0  0  0  0999 V2000
  -31.2870  -16.9120   17.1550 C   0  0  0  0  0  1  0  0  0  0  0  0
  -30.3050  -16.9520   18.3560 C   0  0  0  0  0  3  0  0  0  0  0  0
  -27.5730  -16.0680   18.8910 C   0  0  0  0  0  3  0  0  0  0  0  0
  -28.2430  -14.9800   18.0190 C   0  0  0  0  0  3  0  0  0  0  0  0
  -28.3770  -15.9560   20.2190 C   0  0  0  0  0  2  0  0  0  0  0  0
  -29.3240  -12.1630   20.5760 C   0  0  0  0  0  1  0  0  0  0  0  0
  -29.4430  -14.1160   18.9420 C   0  0  0  0  0  3  0  0  0  0  0  0
  -30.3740  -15.3730   19.0330 C   0  0  0  0  0  3  0  0  0  0  0  0
  -29.5130  -14.7150   20.0930 C   0  0  2  0  0  0  0  0  0  0  0  0
  -29.5790  -11.6140   19.8730 C   0  0  0  0  0  3  0  0  0  0  0  0
  -28.6840  -10.2210   19.5640 C   0  0  0  0  0  1  0  0  0  0  0  0
  -30.8530  -10.5770   20.2530 C   0  0  0  0  0  1  0  0  0  0  0  0
  -30.4120  -15.5670   21.2020 C   0  0  0  0  0  2  0  0  0  0  0  0
  -31.4890  -14.6490   21.5250 C   0  0  0  0  0  3  0  0  0  0  0  0
  -31.5800  -13.0370   19.4290 C   0  0  0  0  0 15  0  0  0  0  0  0
  -30.2950  -12.4440   17.6060 C   0  0  0  0  0 15  0  0  0  0  0  0
  -28.1010  -12.6240   18.1650 C   0  0  0  0  0 15  0  0  0  0  0  0
  -27.5300  -13.4550   20.0770 C   0  0  0  0  0  1  0  0  0  0  0  0
  -28.8920  -13.6940   21.8580 C   0  0  0  0  0 15  0  0  0  0  0  0
  -30.9040  -13.5470   21.2690 N   0  0  0  0  0  1  0  0  0  0  0  0
  -32.6070  -14.9510   21.1380 O   0  0  0  0  0  1  0  0  0  0  0  0
  -25.3090  -13.9100   20.8890 C   0  0  0  0  0  0  0  0  0  0  0  0
  -24.3000  -13.0710   21.1700 C   0  0  0  0  0  0  0  0  0  0  0  0
  -24.8310  -11.7450   21.1180 C   0  0  0  0  0  0  0  0  0  0  0  0
  -26.3280  -13.0550   20.5820 N   0  0  0  0  0  0  0  0  0  0  0  0
  -26.1050  -11.7600   20.8170 N   0  0  0  0  0  0  0  0  0  0  0  0
  -24.1800  -10.4520   21.2300 C   0  0  0  0  0  0  0  0  0  0  0  0
  -24.5940   -9.4850   22.1720 C   0  0  0  0  0  3  0  0  0  0  0  0
  -23.8950   -8.2650   22.2740 C   0  0  0  0  0  3  0  0  0  0  0  0
  -22.7840   -8.0160   21.4330 C   0  0  0  0  0  0  0  0  0  0  0  0
  -22.4160   -8.9660   20.4670 C   0  0  0  0  0  3  0  0  0  0  0  0
  -23.1130  -10.1750   20.3620 C   0  0  0  0  0  3  0  0  0  0  0  0
  -22.0420   -6.8660   21.4570 O   0  0  0  0  0  0  0  0  0  0  0  0
  -21.8740   -6.1560   22.6140 C   0  0  0  0  0  0  0  0  0  0  0  0
  -21.3130   -6.7350   23.7750 C   0  0  0  0  0  3  0  0  0  0  0  0
  -21.1010   -5.9440   24.9220 C   0  0  0  0  0  3  0  0  0  0  0  0
  -21.4340   -4.5760   24.9040 C   0  0  0  0  0  0  0  0  0  0  0  0
  -21.9870   -3.9990   23.7480 C   0  0  0  0  0  3  0  0  0  0  0  0
  -22.2070   -4.7870   22.6070 C   0  0  0  0  0  0  0  0  0  0  0  0
  -22.7290   -4.2280   21.4890 F   0  0  0  0  0  0  0  0  0  0  0  0
  -21.2180   -3.8120   26.0010 F   0  0  0  0  0  0  0  0  0  0  0  0
  -22.8990  -13.5080   21.3530 C   0  0  0  0  0  0  0  0  0  0  0  0
  -22.1590  -12.8040   22.1930 N   0  0  0  0  0  0  0  0  0  0  0  0
  -22.4790  -14.5190   20.7880 O   0  0  0  0  0  0  0  0  0  0  0  0
  -22.5280  -11.9840   22.6540 H   0  0  0  0  0  0  0  0  0  0  0  0
  -21.2070  -13.0850   22.3750 H   0  0  0  0  0  0  0  0  0  0  0  0
  -25.4090  -15.3030   20.7970 N   0  0  0  0  0  0  0  0  0  0  0  0
  -24.6100  -15.9200   20.8790 H   0  0  0  0  0  0  0  0  0  0  0  0
  -26.2230  -15.7690   20.4130 H   0  0  0  0  0  0  0  0  0  0  0  0
  -30.5450  -18.2540   19.1850 N   0  0  0  0  0  4  0  0  0  0  0  0
  -30.2850  -18.0330   20.1320 H   0  0  0  0  0  0  0  0  0  0  0  0
  -31.5360  -18.4460   19.1850 H   0  0  0  0  0  0  0  0  0  0  0  0
  -29.8150  -19.5860   18.8530 C   0  0  0  0  0  3  0  0  0  0  0  0
  -30.0370  -20.9470   19.7540 C   0  0  0  0  0  3  0  0  0  0  0  0
  -29.1870  -22.3000   19.3980 C   0  0  0  0  0  2  0  0  0  0  0  0
  -29.3340  -23.7310   20.1810 C   0  0  0  0  0  3  0  0  0  0  0  0
  -28.3350  -24.9690   19.8270 C   0  0  0  0  0  3  0  0  0  0  0  0
  -28.4810  -26.3920   20.3380 O   0  0  0  0  0  0  0  0  0  0  0  0
  -24.7070  -31.9060   23.3460 C   0  0  0  0  0  0  0  0  0  0  0  0
  -27.3780  -27.2930   20.3010 C   0  0  0  0  0  0  0  0  0  0  0  0
  -23.5430  -30.5200   21.6740 C   0  0  0  0  0  3  0  0  0  0  0  0
  -25.0190  -28.9580   20.2880 C   0  0  0  0  0  0  0  0  0  0  0  0
  -26.0980  -30.7990   21.5690 C   0  0  0  0  0  2  0  0  0  0  0  0
  -26.1840  -29.4210   20.9100 C   0  0  0  0  0  0  0  0  0  0  0  0
  -27.3620  -28.6000   20.9110 C   0  0  0  0  0  3  0  0  0  0  0  0
  -26.1760  -26.9070   19.6600 C   0  0  0  0  0  3  0  0  0  0  0  0
  -25.0170  -27.7020   19.6680 C   0  0  0  0  0  3  0  0  0  0  0  0
  -23.7910  -29.8450   20.3020 C   0  0  0  0  0  2  0  0  0  0  0  0
  -24.8020  -31.0940   22.2510 N   0  0  0  0  0  0  0  0  0  0  0  0
  -23.6100  -32.1910   23.8480 O   0  0  0  0  0  0  0  0  0  0  0  0
  -22.8430  -29.5080   22.6120 C   0  0  0  0  0  0  0  0  0  0  0  0
  -21.5160  -29.3520   22.4600 N   0  0  0  0  0  0  0  0  0  0  0  0
  -23.4960  -28.8640   23.4380 O   0  0  0  0  0  0  0  0  0  0  0  0
  -21.0490  -29.9250   21.7720 H   0  0  0  0  0  0  0  0  0  0  0  0
  -18.1110  -28.2060   22.9000 C   0  0  0  0  0  0  0  0  0  0  0  0
  -20.6700  -28.4190   23.2070 C   0  0  0  0  0  3  0  0  0  0  0  0
  -20.7550  -26.9930   22.6160 C   0  0  0  0  0  2  0  0  0  0  0  0
  -19.6630  -26.7010   21.5820 C   0  0  0  0  0  2  0  0  0  0  0  0
  -18.2750  -26.8620   22.2100 C   0  0  0  0  0  2  0  0  0  0  0  0
  -19.2370  -28.9430   23.3540 C   0  0  0  0  0  0  0  0  0  0  0  0
  -19.0310  -30.2020   23.9600 C   0  0  0  0  0  3  0  0  0  0  0  0
  -17.7340  -30.7240   24.1140 C   0  0  0  0  0  3  0  0  0  0  0  0
  -16.6230  -29.9840   23.6760 C   0  0  0  0  0  3  0  0  0  0  0  0
  -16.8120  -28.7260   23.0760 C   0  0  0  0  0  3  0  0  0  0  0  0
  -25.9740  -32.5300   24.0070 C   0  0  0  0  0  3  0  0  0  0  0  0
  -25.6660  -33.9360   24.3140 N   0  0  0  0  0  0  0  0  0  0  0  0
  -26.0390  -34.9800   23.5630 C   0  0  0  0  0  0  0  0  0  0  0  0
  -26.7460  -34.8620   22.5590 O   0  0  0  0  0  0  0  0  0  0  0  0
  -25.0410  -34.1010   25.0890 H   0  0  0  0  0  0  0  0  0  0  0  0
  -24.3480  -36.7950   23.1350 C   0  0  0  0  0  1  0  0  0  0  0  0
  -25.5530  -36.3780   23.9940 C   0  0  0  0  0  3  0  0  0  0  0  0
  -27.6660  -37.2430   24.8970 C   0  0  0  0  0  1  0  0  0  0  0  0
  -26.6020  -37.4180   23.9120 N   0  0  0  0  0  0  0  0  0  0  0  0
  -26.2040  -38.3440   24.0340 H   0  0  0  0  0  0  0  0  0  0  0  0
  -26.4330  -31.7690   25.3110 C   0  0  1  0  0  0  0  0  0  0  0  0
  -25.3020  -31.5630   26.3450 C   0  0  0  0  0  1  0  0  0  0  0  0
  -27.0070  -30.3760   24.9640 C   0  0  0  0  0  1  0  0  0  0  0  0
  -27.5700  -32.5570   26.0040 C   0  0  0  0  0  1  0  0  0  0  0  0
  2  1  1  0
  2 50  1  0
  3  5  1  0
  4  3  2  0
  7  4  1  0
  7  8  1  0
  7  9  1  0
  8  2  1  0
  8  9  1  0
  9  5  1  0
  9 13  1  1
 10 12  1  0
 10  6  1  0
 11 10  1  0
 13 14  1  0
 14 21  1  0
 18 25  1  0
 20 14  1  0
 22 23  2  0
 23 42  1  0
 24 23  1  0
 24 27  1  0
 25 26  1  0
 25 22  1  0
 26 24  2  0
 27 28  1  0
 28 29  2  0
 30 33  1  0
 30 29  1  0
 31 30  2  0
 32 31  1  0
 32 27  2  0
 33 34  1  0
 34 35  1  0
 35 36  2  0
 37 36  1  0
 37 41  1  0
 38 37  2  0
 39 34  2  0
 39 38  1  0
 40 39  1  0
 42 43  1  0
 43 46  1  0
 43 45  1  0
 44 42  2  0
 47 48  1  0
 47 22  1  0
 49 47  1  0
 50 52  1  0
 50 51  1  0
 53 50  1  0
 53 54  2  0
 55 54  1  0
 55 56  1  0
 57 56  2  0
 57 58  1  0
 59 70  2  0
 60 58  1  0
 60 65  1  0
 61 69  1  0
 61 71  1  0
 62 68  1  0
 62 64  1  0
 63 69  1  0
 64 65  2  0
 64 63  1  0
 66 67  1  0
 66 60  2  0
 67 62  2  0
 68 61  1  0
 69 59  1  0
 71 73  2  0
 72 71  1  0
 74 72  1  0
 75 84  2  0
 75 80  1  0
 76 72  1  0
 76 80  1  0
 77 76  1  0
 78 79  1  0
 78 77  1  0
 79 75  1  0
 80 81  2  0
 81 82  1  0
 83 82  2  0
 84 83  1  0
 85 59  1  0
 85 86  1  0
 85 95  1  0
 86 89  1  0
 87 91  1  0
 87 86  1  0
 88 87  2  0
 91 90  1  0
 93 91  1  0
 93 94  1  0
 93 92  1  0
 95 98  1  1
 95 96  1  0
 97 95  1  0
M  ISO  4  13 100  14 100  57 101  58 101
M  END
>  <TORSDO>  (6) 
F 24

>  <SCORE>  (6) 
-10.579

>  <name>  (6) 
5

>  <ligand_id>  (6) 
5

>  <original_smiles>  (6) 
[H]c1c([H])c([H])c2c(c1[H])C([H])([H])C([H])([H])C([H])([H])C2([H])N([H])C(=O)C1([H])N(C(=O)C([H])(N([H])C(=O)C([H])(N([H])C([H])([H])[H])C([H])([H])[H])C(C([H])([H])[H])(C([H])([H])[H])C([H])([H])[H])C([H])([H])c2c([H])c(OC([H])([H])C([H])([H])C([H])([H])C([H])([H])C([H])([H])[N+]([H])([H])C([H])(C([H])([H])[H])C3([H])C4([H])C([H])([H])C([H])([H])C([H])([H])C3(C([H])([H])C(=O)N3C([H])([H])C([H])([H])C([H])([H])C([H])(n5nc(-c6c([H])c([H])c(Oc7c([H])c([H])c(F)c([H])c7F)c([H])c6[H])c(C(=O)N([H])[H])c5N([H])[H])C3([H])[H])C([H])([H])C4(C([H])([H])[H])C([H])([H])[H])c([H])c([H])c2C1([H])[H]

>  <smiles>  (6) 
[H]c1c([H])c([H])c2c(c1[H])C([H])([H])C([H])([H])C([H])([H])C2([H])N([H])C(=O)C1([H])N(C(=O)C([H])(N([H])C(=O)C([H])(N([H])C([H])([H])[H])C([H])([H])[H])C(C([H])([H])[H])(C([H])([H])[H])C([H])([H])[H])C([H])([H])c2c([H])c(OC([H])([H])C([H])([H])C([H])([H])C([H])([H])C([H])([H])[N+]([H])([H])C([H])(C([H])([H])[H])C3([H])C4([H])C([H])([H])C([H])([H])C([H])([H])C3(C([H])([H])C(=O)N3C([H])([H])C([H])([H])C([H])([H])C([H])(n5nc(-c6c([H])c([H])c(Oc7c([H])c([H])c(F)c([H])c7F)c([H])c6[H])c(C(=O)N([H])[H])c5N([H])[H])C3([H])[H])C([H])([H])C4(C([H])([H])[H])C([H])([H])[H])c([H])c([H])c2C1([H])[H]

$$$$
6:0:0
     RDKit          3D

 93102  0  0  1  0  0  0  0  0999 V2000
  -30.1200  -22.5450   21.2620 N   0  0  0  0  0  4  0  0  0  0  0  0
  -30.3560  -22.9150   22.1700 H   0  0  0  0  0  0  0  0  0  0  0  0
  -29.1140  -22.4240   21.2420 H   0  0  0  0  0  0  0  0  0  0  0  0
  -30.7930  -21.2200   21.1080 C   0  0  0  0  0  2  0  0  0  0  0  0
  -29.2880  -16.4970   19.8880 C   0  0  0  0  0  2  0  0  0  0  0  0
  -29.0100  -17.9480   20.2850 C   0  0  0  0  0  2  0  0  0  0  0  0
  -30.9280  -16.2420   21.8110 C   0  0  0  0  0  2  0  0  0  0  0  0
  -29.0510  -19.6070   22.2160 C   0  0  0  0  0  2  0  0  0  0  0  0
  -31.3760  -18.8680   22.0420 C   0  0  0  0  0  2  0  0  0  0  0  0
  -30.6990  -16.0460   20.2930 C   0  0  0  0  0  3  0  0  0  0  0  0
  -29.1100  -18.1240   21.8110 C   0  0  0  0  0  3  0  0  0  0  0  0
  -30.4710  -17.6490   22.3380 C   0  0  0  0  0  3  0  0  0  0  0  0
  -30.5000  -20.1460   22.2010 C   0  0  0  0  0  3  0  0  0  0  0  0
  -31.1910  -14.7150   19.6330 C   0  0  0  0  0  0  0  0  0  0  0  0
  -30.6640  -12.5840   18.4870 C   0  0  0  0  0  2  0  0  0  0  0  0
  -29.5540  -12.8080   17.4370 C   0  0  0  0  0  2  0  0  0  0  0  0
  -28.1690  -12.6080   18.0820 C   0  0  0  0  0  2  0  0  0  0  0  0
  -28.0140  -13.4250   19.3850 C   0  0  0  0  0  3  0  0  0  0  0  0
  -29.2350  -13.2510   20.3250 C   0  0  0  0  0  2  0  0  0  0  0  0
  -30.4570  -13.5640   19.5720 N   0  0  0  0  0  0  0  0  0  0  0  0
  -32.2460  -14.8150   19.0020 O   0  0  0  0  0  0  0  0  0  0  0  0
  -25.8500  -14.0180   20.6470 C   0  0  0  0  0  0  0  0  0  0  0  0
  -24.8110  -13.2470   21.0890 C   0  0  0  0  0  0  0  0  0  0  0  0
  -25.1540  -11.9000   20.7550 C   0  0  0  0  0  0  0  0  0  0  0  0
  -26.7600  -13.1420   20.0750 N   0  0  0  0  0  0  0  0  0  0  0  0
  -26.3590  -11.8530   20.2020 N   0  0  0  0  0  0  0  0  0  0  0  0
  -24.3810  -10.6610   20.8770 C   0  0  0  0  0  0  0  0  0  0  0  0
  -24.8330   -9.5830   21.6700 C   0  0  0  0  0  3  0  0  0  0  0  0
  -24.0610   -8.4070   21.7840 C   0  0  0  0  0  3  0  0  0  0  0  0
  -22.8260   -8.3000   21.1010 C   0  0  0  0  0  0  0  0  0  0  0  0
  -22.3930   -9.3680   20.2950 C   0  0  0  0  0  3  0  0  0  0  0  0
  -23.1650  -10.5360   20.1790 C   0  0  0  0  0  3  0  0  0  0  0  0
  -22.0230   -7.1850   21.1340 O   0  0  0  0  0  0  0  0  0  0  0  0
  -21.9140   -6.4110   22.2610 C   0  0  0  0  0  0  0  0  0  0  0  0
  -21.5040   -6.9520   23.5000 C   0  0  0  0  0  3  0  0  0  0  0  0
  -21.3320   -6.1070   24.6140 C   0  0  0  0  0  3  0  0  0  0  0  0
  -21.5670   -4.7240   24.4940 C   0  0  0  0  0  0  0  0  0  0  0  0
  -21.9650   -4.1820   23.2570 C   0  0  0  0  0  3  0  0  0  0  0  0
  -22.1390   -5.0230   22.1460 C   0  0  0  0  0  0  0  0  0  0  0  0
  -22.5050   -4.4950   20.9530 F   0  0  0  0  0  0  0  0  0  0  0  0
  -21.3940   -3.9110   25.5610 F   0  0  0  0  0  0  0  0  0  0  0  0
  -23.5290  -13.7360   21.6970 C   0  0  0  0  0  0  0  0  0  0  0  0
  -22.9410  -12.9570   22.5990 N   0  0  0  0  0  0  0  0  0  0  0  0
  -23.0650  -14.8390   21.4090 O   0  0  0  0  0  0  0  0  0  0  0  0
  -23.3340  -12.0590   22.8500 H   0  0  0  0  0  0  0  0  0  0  0  0
  -22.0870  -13.2600   23.0430 H   0  0  0  0  0  0  0  0  0  0  0  0
  -26.0780  -15.3930   20.6570 N   0  0  0  0  0  0  0  0  0  0  0  0
  -25.3950  -16.0500   21.0180 H   0  0  0  0  0  0  0  0  0  0  0  0
  -26.8910  -15.8440   20.2590 H   0  0  0  0  0  0  0  0  0  0  0  0
  -30.5370  -23.5330   20.2250 C   0  0  0  0  0  2  0  0  0  0  0  0
  -30.2770  -25.0270   20.5540 C   0  0  0  0  0  2  0  0  0  0  0  0
  -28.8170  -25.5160   20.4290 C   0  0  0  0  0  2  0  0  0  0  0  0
  -28.7470  -26.7970   19.7790 O   0  0  0  0  0  0  0  0  0  0  0  0
  -24.7790  -31.6660   23.1060 C   0  0  0  0  0  0  0  0  0  0  0  0
  -27.5360  -27.4620   19.8220 C   0  0  0  0  0  0  0  0  0  0  0  0
  -23.5830  -30.2860   21.4330 C   0  0  0  0  0  3  0  0  0  0  0  0
  -25.0680  -28.8530   19.9250 C   0  0  0  0  0  0  0  0  0  0  0  0
  -26.0810  -30.7660   21.1830 C   0  0  0  0  0  2  0  0  0  0  0  0
  -26.2160  -29.4220   20.4940 C   0  0  0  0  0  0  0  0  0  0  0  0
  -27.4510  -28.7420   20.4240 C   0  0  0  0  0  3  0  0  0  0  0  0
  -26.3800  -26.9150   19.2220 C   0  0  0  0  0  3  0  0  0  0  0  0
  -25.1460  -27.6000   19.2860 C   0  0  0  0  0  3  0  0  0  0  0  0
  -23.7860  -29.6570   20.0270 C   0  0  0  0  0  2  0  0  0  0  0  0
  -24.8340  -30.9180   21.9690 N   0  0  0  0  0  0  0  0  0  0  0  0
  -23.7030  -31.8770   23.6840 O   0  0  0  0  0  0  0  0  0  0  0  0
  -22.9850  -29.2140   22.3680 C   0  0  0  0  0  0  0  0  0  0  0  0
  -21.6620  -28.9970   22.2620 N   0  0  0  0  0  0  0  0  0  0  0  0
  -23.7050  -28.5830   23.1440 O   0  0  0  0  0  0  0  0  0  0  0  0
  -21.1400  -29.5620   21.6080 H   0  0  0  0  0  0  0  0  0  0  0  0
  -18.3410  -27.6750   22.7750 C   0  0  0  0  0  0  0  0  0  0  0  0
  -20.8930  -28.0020   23.0060 C   0  0  0  0  0  3  0  0  0  0  0  0
  -21.0270  -26.6010   22.3660 C   0  0  0  0  0  2  0  0  0  0  0  0
  -19.9150  -26.2880   21.3610 C   0  0  0  0  0  2  0  0  0  0  0  0
  -18.5430  -26.3620   22.0400 C   0  0  0  0  0  2  0  0  0  0  0  0
  -19.4430  -28.4540   23.2170 C   0  0  0  0  0  0  0  0  0  0  0  0
  -19.2000  -29.6830   23.8670 C   0  0  0  0  0  3  0  0  0  0  0  0
  -17.8830  -30.1370   24.0780 C   0  0  0  0  0  3  0  0  0  0  0  0
  -16.7950  -29.3550   23.6560 C   0  0  0  0  0  3  0  0  0  0  0  0
  -17.0230  -28.1260   23.0110 C   0  0  0  0  0  3  0  0  0  0  0  0
  -26.0560  -32.3140   23.7270 C   0  0  0  0  0  3  0  0  0  0  0  0
  -25.7170  -33.6930   24.1070 N   0  0  0  0  0  0  0  0  0  0  0  0
  -26.0390  -34.7780   23.3880 C   0  0  0  0  0  0  0  0  0  0  0  0
  -26.7180  -34.7220   22.3610 O   0  0  0  0  0  0  0  0  0  0  0  0
  -25.1090  -33.8070   24.9030 H   0  0  0  0  0  0  0  0  0  0  0  0
  -24.2900  -36.5560   23.0750 C   0  0  0  0  0  1  0  0  0  0  0  0
  -25.5230  -36.1390   23.8910 C   0  0  0  0  0  3  0  0  0  0  0  0
  -27.6300  -37.0210   24.7920 C   0  0  0  0  0  1  0  0  0  0  0  0
  -26.5410  -37.2090   23.8370 N   0  0  0  0  0  0  0  0  0  0  0  0
  -26.1190  -38.1180   24.0110 H   0  0  0  0  0  0  0  0  0  0  0  0
  -26.6200  -31.5140   24.9670 C   0  0  1  0  0  0  0  0  0  0  0  0
  -25.5510  -31.1960   26.0380 C   0  0  0  0  0  1  0  0  0  0  0  0
  -27.2510  -30.1780   24.5120 C   0  0  0  0  0  1  0  0  0  0  0  0
  -27.7450  -32.3280   25.6470 C   0  0  0  0  0  1  0  0  0  0  0  0
  1  2  1  0
  3  1  1  0
  4  1  1  0
  5  6  1  0
  5 10  1  0
  9 13  1  0
  9 12  1  0
 10 14  1  0
 10  7  1  0
 11  6  1  0
 11  8  1  0
 11 12  1  0
 12  7  1  0
 13  4  1  0
 13  8  1  0
 15 20  1  0
 16 17  1  0
 16 15  1  0
 18 17  1  0
 18 25  1  0
 18 19  1  0
 20 14  1  0
 20 19  1  0
 21 14  2  0
 22 47  1  0
 22 23  2  0
 23 42  1  0
 24 27  1  0
 24 23  1  0
 25 26  1  0
 25 22  1  0
 26 24  2  0
 27 28  1  0
 28 29  2  0
 30 33  1  0
 30 29  1  0
 31 30  2  0
 32 31  1  0
 32 27  2  0
 33 34  1  0
 34 35  1  0
 35 36  2  0
 37 36  1  0
 37 41  1  0
 38 37  2  0
 39 34  2  0
 39 38  1  0
 40 39  1  0
 42 43  1  0
 43 45  1  0
 43 46  1  0
 44 42  2  0
 47 48  1  0
 49 47  1  0
 50 51  1  0
 50  1  1  0
 52 51  1  0
 53 55  1  0
 53 52  1  0
 54 65  2  0
 55 60  1  0
 56 64  1  0
 56 66  1  0
 57 63  1  0
 57 59  1  0
 58 64  1  0
 59 58  1  0
 60 59  2  0
 61 62  1  0
 61 55  2  0
 62 57  2  0
 63 56  1  0
 64 54  1  0
 66 68  2  0
 67 66  1  0
 69 67  1  0
 70 79  2  0
 70 75  1  0
 71 67  1  0
 71 75  1  0
 72 71  1  0
 73 74  1  0
 73 72  1  0
 74 70  1  0
 75 76  2  0
 76 77  1  0
 78 77  2  0
 79 78  1  0
 80 54  1  0
 80 81  1  0
 80 90  1  0
 81 84  1  0
 82 86  1  0
 82 81  1  0
 83 82  2  0
 86 85  1  0
 88 86  1  0
 88 89  1  0
 88 87  1  0
 90 93  1  1
 90 91  1  0
 92 90  1  0
M  ISO  4  10 100  14 100  52 101  53 101
M  END
>  <TORSDO>  (7) 
F 21

>  <SCORE>  (7) 
-8.218

>  <name>  (7) 
6

>  <ligand_id>  (7) 
6

>  <original_smiles>  (7) 
[H]c1c([H])c([H])c2c(c1[H])C([H])([H])C([H])([H])C([H])([H])C2([H])N([H])C(=O)C1([H])N(C(=O)C([H])(N([H])C(=O)C([H])(N([H])C([H])([H])[H])C([H])([H])[H])C(C([H])([H])[H])(C([H])([H])[H])C([H])([H])[H])C([H])([H])c2c([H])c(OC([H])([H])C([H])([H])C([H])([H])[N+]([H])([H])C([H])([H])C3([H])C([H])([H])C4([H])C([H])([H])C([H])([H])C([H])(C(=O)N5C([H])([H])C([H])([H])C([H])([H])C([H])(n6nc(-c7c([H])c([H])c(Oc8c([H])c([H])c(F)c([H])c8F)c([H])c7[H])c(C(=O)N([H])[H])c6N([H])[H])C5([H])[H])C([H])([H])C4([H])C3([H])[H])c([H])c([H])c2C1([H])[H]

>  <smiles>  (7) 
[H]c1c([H])c([H])c2c(c1[H])C([H])([H])C([H])([H])C([H])([H])C2([H])N([H])C(=O)C1([H])N(C(=O)C([H])(N([H])C(=O)C([H])(N([H])C([H])([H])[H])C([H])([H])[H])C(C([H])([H])[H])(C([H])([H])[H])C([H])([H])[H])C([H])([H])c2c([H])c(OC([H])([H])C([H])([H])C([H])([H])[N+]([H])([H])C([H])([H])C3([H])C([H])([H])C4([H])C([H])([H])C([H])([H])C([H])(C(=O)N5C([H])([H])C([H])([H])C([H])([H])C([H])(n6nc(-c7c([H])c([H])c(Oc8c([H])c([H])c(F)c([H])c8F)c([H])c7[H])c(C(=O)N([H])[H])c6N([H])[H])C5([H])[H])C([H])([H])C4([H])C3([H])[H])c([H])c([H])c2C1([H])[H]

$$$$
7:0:0
     RDKit          3D

 94103  0  0  1  0  0  0  0  0999 V2000
  -27.8560  -21.0910   20.3470 C   0  0  0  0  0  2  0  0  0  0  0  0
  -29.9420  -22.2830   20.0540 C   0  0  0  0  0  2  0  0  0  0  0  0
  -27.0600  -22.8280   18.6100 C   0  0  0  0  0  2  0  0  0  0  0  0
  -27.5500  -22.5810   20.0430 C   0  0  0  0  0  3  0  0  0  0  0  0
  -28.8520  -23.3920   20.1440 C   0  0  0  0  0  3  0  0  0  0  0  0
  -29.3500  -21.0020   20.7100 C   0  0  0  0  0  3  0  0  0  0  0  0
  -28.7910  -24.4430   18.9790 C   0  0  0  0  0  3  0  0  0  0  0  0
  -27.6130  -24.3690   16.7660 C   0  0  0  0  0  1  0  0  0  0  0  0
  -27.5310  -24.1750   18.2350 N   0  0  1  0  0  4  0  0  0  0  0  0
  -26.8330  -24.8150   18.5810 H   0  0  0  0  0  0  0  0  0  0  0  0
  -30.0200  -19.7210   20.2900 N   0  0  0  0  0  4  0  0  0  0  0  0
  -30.9970  -19.8110   20.5190 H   0  0  0  0  0  0  0  0  0  0  0  0
  -29.9590  -19.6360   19.2890 H   0  0  0  0  0  0  0  0  0  0  0  0
  -29.5420  -18.4370   20.9030 C   0  0  0  0  0  2  0  0  0  0  0  0
  -30.3550  -17.1800   20.4320 C   0  0  0  0  0  3  0  0  0  0  0  0
  -29.9280  -15.7910   21.0270 C   0  0  0  0  0  3  0  0  0  0  0  0
  -30.6520  -14.5490   20.4080 C   0  0  0  0  0  0  0  0  0  0  0  0
  -30.3680  -12.3890   19.2310 C   0  0  0  0  0  2  0  0  0  0  0  0
  -29.4080  -12.6120   18.0410 C   0  0  0  0  0  2  0  0  0  0  0  0
  -27.9380  -12.4710   18.4860 C   0  0  0  0  0  2  0  0  0  0  0  0
  -27.6210  -13.2860   19.7680 C   0  0  0  0  0  3  0  0  0  0  0  0
  -28.6900  -13.0430   20.8570 C   0  0  0  0  0  2  0  0  0  0  0  0
  -30.0040  -13.3560   20.2800 N   0  0  0  0  0  0  0  0  0  0  0  0
  -31.7810  -14.7160   19.9340 O   0  0  0  0  0  0  0  0  0  0  0  0
  -25.2360  -13.9050   20.5060 C   0  0  0  0  0  0  0  0  0  0  0  0
  -24.1660  -13.1380   20.8810 C   0  0  0  0  0  0  0  0  0  0  0  0
  -24.6160  -11.7830   20.8370 C   0  0  0  0  0  0  0  0  0  0  0  0
  -26.2720  -13.0180   20.2590 N   0  0  0  0  0  0  0  0  0  0  0  0
  -25.9030  -11.7370   20.5150 N   0  0  0  0  0  0  0  0  0  0  0  0
  -23.8820  -10.5260   21.0260 C   0  0  0  0  0  0  0  0  0  0  0  0
  -24.3100   -9.5560   21.9580 C   0  0  0  0  0  3  0  0  0  0  0  0
  -23.5790   -8.3600   22.1350 C   0  0  0  0  0  3  0  0  0  0  0  0
  -22.4060   -8.1280   21.3780 C   0  0  0  0  0  0  0  0  0  0  0  0
  -21.9990   -9.0870   20.4320 C   0  0  0  0  0  3  0  0  0  0  0  0
  -22.7300  -10.2720   20.2540 C   0  0  0  0  0  3  0  0  0  0  0  0
  -21.6470   -6.9850   21.4630 O   0  0  0  0  0  0  0  0  0  0  0  0
  -21.5820   -6.2490   22.6180 C   0  0  0  0  0  0  0  0  0  0  0  0
  -21.1280   -6.8070   23.8340 C   0  0  0  0  0  3  0  0  0  0  0  0
  -21.0140   -5.9960   24.9810 C   0  0  0  0  0  3  0  0  0  0  0  0
  -21.3410   -4.6280   24.9130 C   0  0  0  0  0  0  0  0  0  0  0  0
  -21.7870   -4.0690   23.7020 C   0  0  0  0  0  3  0  0  0  0  0  0
  -21.9040   -4.8780   22.5570 C   0  0  0  0  0  0  0  0  0  0  0  0
  -22.3140   -4.3310   21.3870 F   0  0  0  0  0  0  0  0  0  0  0  0
  -21.2240   -3.8460   26.0110 F   0  0  0  0  0  0  0  0  0  0  0  0
  -22.7740  -13.6240   21.1700 C   0  0  0  0  0  0  0  0  0  0  0  0
  -22.0470  -12.9230   22.0360 N   0  0  0  0  0  0  0  0  0  0  0  0
  -22.3400  -14.6600   20.6690 O   0  0  0  0  0  0  0  0  0  0  0  0
  -22.4080  -12.0830   22.4630 H   0  0  0  0  0  0  0  0  0  0  0  0
  -21.1140  -13.2290   22.2710 H   0  0  0  0  0  0  0  0  0  0  0  0
  -25.4080  -15.2740   20.3350 N   0  0  0  0  0  0  0  0  0  0  0  0
  -24.6430  -15.9300   20.4530 H   0  0  0  0  0  0  0  0  0  0  0  0
  -26.2530  -15.7080   19.9890 H   0  0  0  0  0  0  0  0  0  0  0  0
  -29.0400  -25.9830   19.2460 C   0  0  0  0  0  2  0  0  0  0  0  0
  -28.4960  -26.6670   20.3970 O   0  0  0  0  0  0  0  0  0  0  0  0
  -24.6150  -31.9320   23.2760 C   0  0  0  0  0  0  0  0  0  0  0  0
  -27.3420  -27.4330   20.2940 C   0  0  0  0  0  0  0  0  0  0  0  0
  -23.4460  -30.4920   21.6410 C   0  0  0  0  0  3  0  0  0  0  0  0
  -24.9350  -28.9440   20.2540 C   0  0  0  0  0  0  0  0  0  0  0  0
  -25.9760  -30.8560   21.4800 C   0  0  0  0  0  2  0  0  0  0  0  0
  -26.0800  -29.4740   20.8620 C   0  0  0  0  0  0  0  0  0  0  0  0
  -27.2790  -28.7180   20.8930 C   0  0  0  0  0  3  0  0  0  0  0  0
  -26.1750  -26.9290   19.6820 C   0  0  0  0  0  3  0  0  0  0  0  0
  -24.9790  -27.6710   19.6630 C   0  0  0  0  0  3  0  0  0  0  0  0
  -23.6820  -29.7930   20.2740 C   0  0  0  0  0  2  0  0  0  0  0  0
  -24.6960  -31.1110   22.1890 N   0  0  0  0  0  0  0  0  0  0  0  0
  -23.5220  -32.2020   23.7950 O   0  0  0  0  0  0  0  0  0  0  0  0
  -22.7880  -29.4810   22.6100 C   0  0  0  0  0  0  0  0  0  0  0  0
  -21.4670  -29.2820   22.4640 N   0  0  0  0  0  0  0  0  0  0  0  0
  -23.4640  -28.8790   23.4480 O   0  0  0  0  0  0  0  0  0  0  0  0
  -20.9840  -29.8200   21.7580 H   0  0  0  0  0  0  0  0  0  0  0  0
  -18.0950  -28.0680   22.9320 C   0  0  0  0  0  0  0  0  0  0  0  0
  -20.6480  -28.3510   23.2390 C   0  0  0  0  0  3  0  0  0  0  0  0
  -20.7690  -26.9120   22.6890 C   0  0  0  0  0  2  0  0  0  0  0  0
  -19.6860  -26.5640   21.6640 C   0  0  0  0  0  2  0  0  0  0  0  0
  -18.2930  -26.7090   22.2810 C   0  0  0  0  0  2  0  0  0  0  0  0
  -19.2010  -28.8460   23.3670 C   0  0  0  0  0  0  0  0  0  0  0  0
  -18.9630  -30.1170   23.9350 C   0  0  0  0  0  3  0  0  0  0  0  0
  -17.6520  -30.6080   24.0730 C   0  0  0  0  0  3  0  0  0  0  0  0
  -16.5600  -29.8280   23.6550 C   0  0  0  0  0  3  0  0  0  0  0  0
  -16.7810  -28.5600   23.0900 C   0  0  0  0  0  3  0  0  0  0  0  0
  -25.8850  -32.5840   23.9030 C   0  0  0  0  0  3  0  0  0  0  0  0
  -25.5570  -33.9830   24.2120 N   0  0  0  0  0  0  0  0  0  0  0  0
  -25.8810  -35.0310   23.4440 C   0  0  0  0  0  0  0  0  0  0  0  0
  -26.5610  -34.9240   22.4200 O   0  0  0  0  0  0  0  0  0  0  0  0
  -24.9530  -34.1400   25.0070 H   0  0  0  0  0  0  0  0  0  0  0  0
  -24.1320  -36.7950   23.0520 C   0  0  0  0  0  1  0  0  0  0  0  0
  -25.3710  -36.4180   23.8800 C   0  0  0  0  0  3  0  0  0  0  0  0
  -27.4850  -37.3420   24.7210 C   0  0  0  0  0  1  0  0  0  0  0  0
  -26.3900  -37.4830   23.7640 N   0  0  0  0  0  0  0  0  0  0  0  0
  -25.9700  -38.3990   23.8950 H   0  0  0  0  0  0  0  0  0  0  0  0
  -26.3990  -31.8320   25.1920 C   0  0  1  0  0  0  0  0  0  0  0  0
  -25.2950  -31.5900   26.2480 C   0  0  0  0  0  1  0  0  0  0  0  0
  -27.0030  -30.4580   24.8190 C   0  0  0  0  0  1  0  0  0  0  0  0
  -27.5310  -32.6490   25.8570 C   0  0  0  0  0  1  0  0  0  0  0  0
  1  6  1  0
  2  6  1  0
  4  3  1  0
  4  5  1  0
  4  1  1  0
  5  2  1  0
  6 11  1  0
  7 53  1  0
  7  5  1  0
  8  9  1  0
  9 10  1  1
  9  3  1  0
  9  7  1  0
 11 12  1  0
 11 14  1  0
 13 11  1  0
 15 14  1  0
 15 16  2  0
 17 16  1  0
 18 23  1  0
 19 20  1  0
 19 18  1  0
 21 20  1  0
 21 28  1  0
 21 22  1  0
 23 17  1  0
 23 22  1  0
 24 17  2  0
 25 26  2  0
 26 45  1  0
 27 26  1  0
 27 30  1  0
 28 25  1  0
 28 29  1  0
 29 27  2  0
 30 31  1  0
 31 32  2  0
 33 36  1  0
 33 32  1  0
 34 33  2  0
 35 34  1  0
 35 30  2  0
 36 37  1  0
 37 38  1  0
 38 39  2  0
 40 39  1  0
 40 44  1  0
 41 40  2  0
 42 37  2  0
 42 41  1  0
 43 42  1  0
 45 46  1  0
 46 49  1  0
 46 48  1  0
 47 45  2  0
 50 51  1  0
 50 25  1  0
 52 50  1  0
 53 54  1  0
 55 66  2  0
 56 54  1  0
 56 61  1  0
 57 65  1  0
 57 67  1  0
 58 64  1  0
 58 60  1  0
 59 65  1  0
 60 61  2  0
 60 59  1  0
 62 56  2  0
 63 62  1  0
 63 58  2  0
 64 57  1  0
 65 55  1  0
 67 69  2  0
 68 67  1  0
 70 68  1  0
 71 80  2  0
 71 76  1  0
 72 68  1  0
 72 76  1  0
 73 72  1  0
 74 75  1  0
 74 73  1  0
 75 71  1  0
 76 77  2  0
 77 78  1  0
 79 78  2  0
 80 79  1  0
 81 55  1  0
 81 82  1  0
 81 91  1  0
 82 85  1  0
 83 87  1  0
 83 82  1  0
 84 83  2  0
 87 86  1  0
 89 87  1  0
 89 90  1  0
 89 88  1  0
 91 94  1  1
 91 92  1  0
 93 91  1  0
M  ISO  4  16 100  17 100  53 101  54 101
M  END
>  <TORSDO>  (8) 
F 21

>  <SCORE>  (8) 
-13.281

>  <name>  (8) 
7

>  <ligand_id>  (8) 
7

>  <original_smiles>  (8) 
[H]c1c([H])c([H])c2c(c1[H])C([H])([H])C([H])([H])C([H])([H])C2([H])N([H])C(=O)C1([H])N(C(=O)C([H])(N([H])C(=O)C([H])(N([H])C([H])([H])[H])C([H])([H])[H])C(C([H])([H])[H])(C([H])([H])[H])C([H])([H])[H])C([H])([H])c2c([H])c(OC([H])([H])C3([H])C4([H])C([H])([H])C([H])([N+]([H])([H])C([H])([H])C([H])([H])C([H])([H])C(=O)N5C([H])([H])C([H])([H])C([H])([H])C([H])(n6nc(-c7c([H])c([H])c(Oc8c([H])c([H])c(F)c([H])c8F)c([H])c7[H])c(C(=O)N([H])[H])c6N([H])[H])C5([H])[H])C([H])([H])C4([H])C([H])([H])[N+]3([H])C([H])([H])[H])c([H])c([H])c2C1([H])[H]

>  <smiles>  (8) 
[H]c1c([H])c([H])c2c(c1[H])C([H])([H])C([H])([H])C([H])([H])C2([H])N([H])C(=O)C1([H])N(C(=O)C([H])(N([H])C(=O)C([H])(N([H])C([H])([H])[H])C([H])([H])[H])C(C([H])([H])[H])(C([H])([H])[H])C([H])([H])[H])C([H])([H])c2c([H])c(OC([H])([H])C3([H])C4([H])C([H])([H])C([H])([N+]([H])([H])C([H])([H])C([H])([H])C([H])([H])C(=O)N5C([H])([H])C([H])([H])C([H])([H])C([H])(n6nc(-c7c([H])c([H])c(Oc8c([H])c([H])c(F)c([H])c8F)c([H])c7[H])c(C(=O)N([H])[H])c6N([H])[H])C5([H])[H])C([H])([H])C4([H])C([H])([H])[N+]3([H])C([H])([H])[H])c([H])c([H])c2C1([H])[H]

$$$$
8:0:0
     RDKit          3D

 92100  0  0  1  0  0  0  0  0999 V2000
  -29.4580  -20.4890   19.9990 N   0  0  0  0  0  4  0  0  0  0  0  0
  -28.7070  -20.3380   20.6550 H   0  0  0  0  0  0  0  0  0  0  0  0
  -29.0610  -20.4190   19.0760 H   0  0  0  0  0  0  0  0  0  0  0  0
  -29.8620  -17.9720   19.8220 C   0  0  0  0  0  2  0  0  0  0  0  0
  -31.0450  -19.2480   21.5600 C   0  0  0  0  0  2  0  0  0  0  0  0
  -29.9690  -17.1630   21.1310 C   0  0  0  0  0  3  0  0  0  0  0  0
  -30.4520  -19.3810   20.1370 C   0  0  0  0  0  3  0  0  0  0  0  0
  -31.2080  -17.7370   21.8570 C   0  0  2  0  0  0  0  0  0  0  0  0
  -31.1650  -17.4680   23.3730 C   0  0  0  0  0  1  0  0  0  0  0  0
  -32.5510  -17.2280   21.2990 C   0  0  0  0  0  1  0  0  0  0  0  0
  -29.6540  -15.6250   21.1330 C   0  0  0  0  0  2  0  0  0  0  0  0
  -30.2960  -14.6030   20.1500 C   0  0  0  0  0  0  0  0  0  0  0  0
  -30.0330  -12.4820   18.8780 C   0  0  0  0  0  2  0  0  0  0  0  0
  -28.9870  -12.6730   17.7600 C   0  0  0  0  0  2  0  0  0  0  0  0
  -27.5540  -12.4540   18.2920 C   0  0  0  0  0  2  0  0  0  0  0  0
  -27.2830  -13.2300   19.6080 C   0  0  0  0  0  3  0  0  0  0  0  0
  -28.4250  -12.9810   20.6180 C   0  0  0  0  0  2  0  0  0  0  0  0
  -29.6870  -13.3930   19.9800 N   0  0  0  0  0  0  0  0  0  0  0  0
  -31.3080  -14.9080   19.5130 O   0  0  0  0  0  0  0  0  0  0  0  0
  -24.9080  -13.7330   20.4710 C   0  0  0  0  0  0  0  0  0  0  0  0
  -23.8970  -12.9140   20.8980 C   0  0  0  0  0  0  0  0  0  0  0  0
  -24.4100  -11.5830   20.8200 C   0  0  0  0  0  0  0  0  0  0  0  0
  -25.9730  -12.8980   20.1660 N   0  0  0  0  0  0  0  0  0  0  0  0
  -25.6780  -11.5990   20.4290 N   0  0  0  0  0  0  0  0  0  0  0  0
  -23.7510  -10.2900   21.0410 C   0  0  0  0  0  0  0  0  0  0  0  0
  -24.2510   -9.3580   21.9760 C   0  0  0  0  0  3  0  0  0  0  0  0
  -23.5890   -8.1270   22.1840 C   0  0  0  0  0  3  0  0  0  0  0  0
  -22.4150   -7.8220   21.4580 C   0  0  0  0  0  0  0  0  0  0  0  0
  -21.9340   -8.7440   20.5130 C   0  0  0  0  0  3  0  0  0  0  0  0
  -22.5960   -9.9650   20.3020 C   0  0  0  0  0  3  0  0  0  0  0  0
  -21.7200   -6.6420   21.5760 O   0  0  0  0  0  0  0  0  0  0  0  0
  -21.7040   -5.9300   22.7490 C   0  0  0  0  0  0  0  0  0  0  0  0
  -21.2300   -6.4940   23.9540 C   0  0  0  0  0  3  0  0  0  0  0  0
  -21.1640   -5.7060   25.1200 C   0  0  0  0  0  3  0  0  0  0  0  0
  -21.5630   -4.3560   25.0840 C   0  0  0  0  0  0  0  0  0  0  0  0
  -22.0290   -3.7930   23.8830 C   0  0  0  0  0  3  0  0  0  0  0  0
  -22.0970   -4.5770   22.7180 C   0  0  0  0  0  0  0  0  0  0  0  0
  -22.5270   -4.0240   21.5590 F   0  0  0  0  0  0  0  0  0  0  0  0
  -21.4920   -3.5970   26.2010 F   0  0  0  0  0  0  0  0  0  0  0  0
  -22.5030  -13.3300   21.2690 C   0  0  0  0  0  0  0  0  0  0  0  0
  -21.8650  -12.5970   22.1760 N   0  0  0  0  0  0  0  0  0  0  0  0
  -21.9870  -14.3380   20.7890 O   0  0  0  0  0  0  0  0  0  0  0  0
  -22.2960  -11.7810   22.5840 H   0  0  0  0  0  0  0  0  0  0  0  0
  -20.9330  -12.8570   22.4660 H   0  0  0  0  0  0  0  0  0  0  0  0
  -25.0040  -15.1110   20.2990 N   0  0  0  0  0  0  0  0  0  0  0  0
  -24.2210  -15.7340   20.4660 H   0  0  0  0  0  0  0  0  0  0  0  0
  -25.8170  -15.5880   19.9310 H   0  0  0  0  0  0  0  0  0  0  0  0
  -29.9550  -21.8890   20.1600 C   0  0  0  0  0  2  0  0  0  0  0  0
  -28.8520  -22.9450   19.8490 C   0  0  0  0  0  2  0  0  0  0  0  0
  -29.2110  -24.4460   20.0800 C   0  0  0  0  0  2  0  0  0  0  0  0
  -28.0260  -25.3770   19.7120 C   0  0  0  0  0  2  0  0  0  0  0  0
  -28.1740  -26.7780   20.0370 O   0  0  0  0  0  0  0  0  0  0  0  0
  -24.4730  -31.9840   23.2550 C   0  0  0  0  0  0  0  0  0  0  0  0
  -27.0090  -27.5400   20.0500 C   0  0  0  0  0  0  0  0  0  0  0  0
  -23.2150  -30.6010   21.6390 C   0  0  0  0  0  3  0  0  0  0  0  0
  -24.6210  -29.0770   20.1550 C   0  0  0  0  0  0  0  0  0  0  0  0
  -25.7390  -30.9470   21.3710 C   0  0  0  0  0  2  0  0  0  0  0  0
  -25.8020  -29.5820   20.7120 C   0  0  0  0  0  0  0  0  0  0  0  0
  -26.9970  -28.8220   20.6560 C   0  0  0  0  0  3  0  0  0  0  0  0
  -25.8000  -27.0660   19.4810 C   0  0  0  0  0  3  0  0  0  0  0  0
  -24.6160  -27.8180   19.5370 C   0  0  0  0  0  3  0  0  0  0  0  0
  -23.3820  -29.9390   20.2470 C   0  0  0  0  0  2  0  0  0  0  0  0
  -24.4960  -31.1920   22.1460 N   0  0  0  0  0  0  0  0  0  0  0  0
  -23.4080  -32.2540   23.8280 O   0  0  0  0  0  0  0  0  0  0  0  0
  -22.5900  -29.5710   22.6080 C   0  0  0  0  0  0  0  0  0  0  0  0
  -21.2690  -29.3560   22.4850 N   0  0  0  0  0  0  0  0  0  0  0  0
  -23.2890  -28.9670   23.4260 O   0  0  0  0  0  0  0  0  0  0  0  0
  -20.7650  -29.8950   21.7970 H   0  0  0  0  0  0  0  0  0  0  0  0
  -17.9320  -28.0590   22.9730 C   0  0  0  0  0  0  0  0  0  0  0  0
  -20.4770  -28.4060   23.2650 C   0  0  0  0  0  3  0  0  0  0  0  0
  -20.6320  -26.9680   22.7150 C   0  0  0  0  0  2  0  0  0  0  0  0
  -19.5500  -26.5920   21.6970 C   0  0  0  0  0  2  0  0  0  0  0  0
  -18.1580  -26.7030   22.3260 C   0  0  0  0  0  2  0  0  0  0  0  0
  -19.0200  -28.8650   23.4010 C   0  0  0  0  0  0  0  0  0  0  0  0
  -18.7550  -30.1320   23.9650 C   0  0  0  0  0  3  0  0  0  0  0  0
  -17.4330  -30.5930   24.1080 C   0  0  0  0  0  3  0  0  0  0  0  0
  -16.3590  -29.7860   23.6990 C   0  0  0  0  0  3  0  0  0  0  0  0
  -16.6080  -28.5200   23.1370 C   0  0  0  0  0  3  0  0  0  0  0  0
  -25.7770  -32.6070   23.8410 C   0  0  0  0  0  3  0  0  0  0  0  0
  -25.4920  -34.0130   24.1580 N   0  0  0  0  0  0  0  0  0  0  0  0
  -25.8020  -35.0480   23.3660 C   0  0  0  0  0  0  0  0  0  0  0  0
  -26.4300  -34.9210   22.3110 O   0  0  0  0  0  0  0  0  0  0  0  0
  -24.9310  -34.1870   24.9780 H   0  0  0  0  0  0  0  0  0  0  0  0
  -24.0620  -36.8380   23.0600 C   0  0  0  0  0  1  0  0  0  0  0  0
  -25.3420  -36.4480   23.8160 C   0  0  0  0  0  3  0  0  0  0  0  0
  -27.5150  -37.3470   24.5200 C   0  0  0  0  0  1  0  0  0  0  0  0
  -26.3700  -37.4940   23.6260 N   0  0  0  0  0  0  0  0  0  0  0  0
  -25.9730  -38.4190   23.7690 H   0  0  0  0  0  0  0  0  0  0  0  0
  -26.3130  -31.8450   25.1140 C   0  0  1  0  0  0  0  0  0  0  0  0
  -25.2380  -31.6270   26.2060 C   0  0  0  0  0  1  0  0  0  0  0  0
  -26.8770  -30.4590   24.7250 C   0  0  0  0  0  1  0  0  0  0  0  0
  -27.4810  -32.6370   25.7470 C   0  0  0  0  0  1  0  0  0  0  0  0
  1 48  1  0
  1  2  1  0
  3  1  1  0
  4  7  1  0
  4  6  1  0
  5  8  1  0
  6 11  1  0
  6  8  1  0
  7  1  1  0
  7  5  1  0
  8  9  1  1
 10  8  1  0
 12 11  1  0
 13 18  1  0
 14 15  1  0
 14 13  1  0
 16 15  1  0
 16 23  1  0
 16 17  1  0
 18 12  1  0
 18 17  1  0
 19 12  2  0
 20 21  2  0
 21 40  1  0
 22 21  1  0
 22 25  1  0
 23 24  1  0
 23 20  1  0
 24 22  2  0
 25 26  1  0
 26 27  2  0
 28 31  1  0
 28 27  1  0
 29 28  2  0
 30 29  1  0
 30 25  2  0
 31 32  1  0
 32 33  1  0
 33 34  2  0
 35 34  1  0
 35 39  1  0
 36 35  2  0
 37 32  2  0
 37 36  1  0
 38 37  1  0
 40 41  1  0
 41 44  1  0
 41 43  1  0
 42 40  2  0
 45 46  1  0
 45 20  1  0
 47 45  1  0
 49 50  1  0
 49 48  1  0
 51 52  1  0
 51 50  1  0
 52 54  1  0
 53 64  2  0
 54 59  1  0
 55 63  1  0
 55 65  1  0
 56 62  1  0
 56 58  1  0
 57 63  1  0
 58 57  1  0
 59 58  2  0
 60 61  1  0
 60 54  2  0
 61 56  2  0
 62 55  1  0
 63 53  1  0
 65 67  2  0
 66 65  1  0
 68 66  1  0
 69 78  2  0
 69 74  1  0
 70 66  1  0
 70 74  1  0
 71 70  1  0
 72 73  1  0
 72 71  1  0
 73 69  1  0
 74 75  2  0
 75 76  1  0
 77 76  2  0
 78 77  1  0
 79 53  1  0
 79 80  1  0
 79 89  1  0
 80 83  1  0
 81 85  1  0
 81 80  1  0
 82 81  2  0
 85 84  1  0
 87 88  1  0
 87 85  1  0
 87 86  1  0
 89 92  1  1
 89 90  1  0
 91 89  1  0
M  ISO  4  11 100  12 100  51 101  52 101
M  END
>  <TORSDO>  (9) 
F 22

>  <SCORE>  (9) 
-11.362

>  <name>  (9) 
8

>  <ligand_id>  (9) 
8

>  <original_smiles>  (9) 
[H]c1c([H])c([H])c2c(c1[H])C([H])([H])C([H])([H])C([H])([H])C2([H])N([H])C(=O)C1([H])N(C(=O)C([H])(N([H])C(=O)C([H])(N([H])C([H])([H])[H])C([H])([H])[H])C(C([H])([H])[H])(C([H])([H])[H])C([H])([H])[H])C([H])([H])c2c([H])c(OC([H])([H])C([H])([H])C([H])([H])C([H])([H])[N+]([H])([H])C3([H])C([H])([H])C([H])(C([H])([H])C(=O)N4C([H])([H])C([H])([H])C([H])([H])C([H])(n5nc(-c6c([H])c([H])c(Oc7c([H])c([H])c(F)c([H])c7F)c([H])c6[H])c(C(=O)N([H])[H])c5N([H])[H])C4([H])[H])C(C([H])([H])[H])(C([H])([H])[H])C3([H])[H])c([H])c([H])c2C1([H])[H]

>  <smiles>  (9) 
[H]c1c([H])c([H])c2c(c1[H])C([H])([H])C([H])([H])C([H])([H])C2([H])N([H])C(=O)C1([H])N(C(=O)C([H])(N([H])C(=O)C([H])(N([H])C([H])([H])[H])C([H])([H])[H])C(C([H])([H])[H])(C([H])([H])[H])C([H])([H])[H])C([H])([H])c2c([H])c(OC([H])([H])C([H])([H])C([H])([H])C([H])([H])[N+]([H])([H])C3([H])C([H])([H])C([H])(C([H])([H])C(=O)N4C([H])([H])C([H])([H])C([H])([H])C([H])(n5nc(-c6c([H])c([H])c(Oc7c([H])c([H])c(F)c([H])c7F)c([H])c6[H])c(C(=O)N([H])[H])c5N([H])[H])C4([H])[H])C(C([H])([H])[H])(C([H])([H])[H])C3([H])[H])c([H])c([H])c2C1([H])[H]

$$$$
9:0:0
     RDKit          3D

 94102  0  0  1  0  0  0  0  0999 V2000
  -27.1590  -21.3020   21.8830 C   0  0  0  0  0  1  0  0  0  0  0  0
  -28.3140  -21.7000   20.9450 C   0  0  0  0  0  3  0  0  0  0  0  0
  -28.6690  -23.1310   21.1180 N   0  0  0  0  0  4  0  0  0  0  0  0
  -27.8210  -23.6610   21.0160 H   0  0  0  0  0  0  0  0  0  0  0  0
  -29.0070  -23.2930   22.0560 H   0  0  0  0  0  0  0  0  0  0  0  0
  -29.6660  -23.6490   20.1440 C   0  0  0  0  0  2  0  0  0  0  0  0
  -29.6210  -25.1810   19.9830 C   0  0  0  0  0  2  0  0  0  0  0  0
  -28.3950  -25.6690   19.1960 C   0  0  0  0  0  2  0  0  0  0  0  0
  -28.4030  -27.0950   19.1280 O   0  0  0  0  0  0  0  0  0  0  0  0
  -24.6160  -31.6000   23.0620 C   0  0  0  0  0  0  0  0  0  0  0  0
  -27.1900  -27.7280   19.2730 C   0  0  0  0  0  0  0  0  0  0  0  0
  -23.3370  -30.3300   21.3700 C   0  0  0  0  0  3  0  0  0  0  0  0
  -24.7290  -29.0610   19.6540 C   0  0  0  0  0  0  0  0  0  0  0  0
  -25.8050  -30.8750   20.9950 C   0  0  0  0  0  2  0  0  0  0  0  0
  -25.9050  -29.5910   20.1990 C   0  0  0  0  0  0  0  0  0  0  0  0
  -27.1390  -28.9340   20.0030 C   0  0  0  0  0  3  0  0  0  0  0  0
  -25.9970  -27.2110   18.7150 C   0  0  0  0  0  3  0  0  0  0  0  0
  -24.7690  -27.8700   18.9080 C   0  0  0  0  0  3  0  0  0  0  0  0
  -23.4510  -29.8270   19.9070 C   0  0  0  0  0  2  0  0  0  0  0  0
  -24.6100  -30.9410   21.8690 N   0  0  0  0  0  0  0  0  0  0  0  0
  -23.5750  -31.7410   23.7200 O   0  0  0  0  0  0  0  0  0  0  0  0
  -22.8280  -29.1660   22.2480 C   0  0  0  0  0  0  0  0  0  0  0  0
  -21.5300  -28.8480   22.1240 N   0  0  0  0  0  0  0  0  0  0  0  0
  -23.5970  -28.5540   22.9950 O   0  0  0  0  0  0  0  0  0  0  0  0
  -20.9640  -29.3990   21.4940 H   0  0  0  0  0  0  0  0  0  0  0  0
  -18.3470  -27.1770   22.4770 C   0  0  0  0  0  0  0  0  0  0  0  0
  -20.8380  -27.7670   22.8250 C   0  0  0  0  0  3  0  0  0  0  0  0
  -21.1490  -26.3980   22.1760 C   0  0  0  0  0  2  0  0  0  0  0  0
  -20.1190  -25.9850   21.1190 C   0  0  0  0  0  2  0  0  0  0  0  0
  -18.7200  -25.9040   21.7360 C   0  0  0  0  0  2  0  0  0  0  0  0
  -19.3420  -28.0580   22.9740 C   0  0  0  0  0  0  0  0  0  0  0  0
  -18.9420  -29.2460   23.6250 C   0  0  0  0  0  3  0  0  0  0  0  0
  -17.5800  -29.5590   23.7800 C   0  0  0  0  0  3  0  0  0  0  0  0
  -16.5980  -28.6770   23.2980 C   0  0  0  0  0  3  0  0  0  0  0  0
  -16.9820  -27.4850   22.6570 C   0  0  0  0  0  3  0  0  0  0  0  0
  -25.9200  -32.2300   23.6440 C   0  0  0  0  0  3  0  0  0  0  0  0
  -25.5940  -33.5900   24.0890 N   0  0  0  0  0  0  0  0  0  0  0  0
  -25.8870  -34.7030   23.4030 C   0  0  0  0  0  0  0  0  0  0  0  0
  -26.5330  -34.6920   22.3510 O   0  0  0  0  0  0  0  0  0  0  0  0
  -25.0140  -33.6710   24.9120 H   0  0  0  0  0  0  0  0  0  0  0  0
  -24.1230  -36.4840   23.2070 C   0  0  0  0  0  1  0  0  0  0  0  0
  -25.3810  -36.0420   23.9720 C   0  0  0  0  0  3  0  0  0  0  0  0
  -27.5140  -36.8910   24.8450 C   0  0  0  0  0  1  0  0  0  0  0  0
  -26.3950  -37.1190   23.9330 N   0  0  0  0  0  0  0  0  0  0  0  0
  -25.9760  -38.0160   24.1650 H   0  0  0  0  0  0  0  0  0  0  0  0
  -26.5440  -31.3860   24.8220 C   0  0  1  0  0  0  0  0  0  0  0  0
  -25.5260  -31.0120   25.9250 C   0  0  0  0  0  1  0  0  0  0  0  0
  -27.1540  -30.0720   24.2800 C   0  0  0  0  0  1  0  0  0  0  0  0
  -27.7000  -32.1760   25.4810 C   0  0  0  0  0  1  0  0  0  0  0  0
  -29.5390  -20.7740   21.1480 C   0  0  0  0  0  2  0  0  0  0  0  0
  -29.7320  -18.3160   18.1420 C   0  0  0  0  0  2  0  0  0  0  0  0
  -30.8510  -17.4400   18.6890 C   0  0  0  0  0  2  0  0  0  0  0  0
  -29.6950  -19.6180   18.9260 C   0  0  0  0  0  2  0  0  0  0  0  0
  -30.6270  -17.0830   20.1810 C   0  0  0  0  0  3  0  0  0  0  0  0
  -29.4370  -19.3990   20.4350 C   0  0  0  0  0  3  0  0  0  0  0  0
  -30.4130  -18.3550   21.0600 C   0  0  0  0  0  3  0  0  0  0  0  0
  -29.9370  -17.9300   22.4710 C   0  0  0  0  0  1  0  0  0  0  0  0
  -31.7700  -16.2050   20.7690 C   0  0  0  0  0  2  0  0  0  0  0  0
  -32.1620  -15.0050   19.9040 C   0  0  0  0  0  0  0  0  0  0  0  0
  -31.6510  -12.8270   18.8740 C   0  0  0  0  0  2  0  0  0  0  0  0
  -30.6720  -12.9890   17.6960 C   0  0  0  0  0  2  0  0  0  0  0  0
  -29.2160  -12.9550   18.1930 C   0  0  0  0  0  2  0  0  0  0  0  0
  -28.9710  -13.9200   19.3810 C   0  0  0  0  0  3  0  0  0  0  0  0
  -30.0540  -13.7400   20.4670 C   0  0  0  0  0  2  0  0  0  0  0  0
  -31.3780  -13.8990   19.8420 N   0  0  0  0  0  0  0  0  0  0  0  0
  -33.1990  -15.1180   19.2430 O   0  0  0  0  0  0  0  0  0  0  0  0
  -26.6860  -14.7210   20.2680 C   0  0  0  0  0  0  0  0  0  0  0  0
  -25.5690  -14.0350   20.6630 C   0  0  0  0  0  0  0  0  0  0  0  0
  -25.8920  -12.6490   20.5400 C   0  0  0  0  0  0  0  0  0  0  0  0
  -27.6250  -13.7570   19.9290 N   0  0  0  0  0  0  0  0  0  0  0  0
  -27.1520  -12.5020   20.1490 N   0  0  0  0  0  0  0  0  0  0  0  0
  -25.0560  -11.4540   20.7130 C   0  0  0  0  0  0  0  0  0  0  0  0
  -25.3590  -10.4770   21.6870 C   0  0  0  0  0  3  0  0  0  0  0  0
  -24.5320   -9.3440   21.8470 C   0  0  0  0  0  3  0  0  0  0  0  0
  -23.3860   -9.1810   21.0320 C   0  0  0  0  0  0  0  0  0  0  0  0
  -23.1030  -10.1450   20.0480 C   0  0  0  0  0  3  0  0  0  0  0  0
  -23.9300  -11.2690   19.8880 C   0  0  0  0  0  3  0  0  0  0  0  0
  -22.5390   -8.1020   21.0990 O   0  0  0  0  0  0  0  0  0  0  0  0
  -22.2570   -7.4800   22.2900 C   0  0  0  0  0  0  0  0  0  0  0  0
  -21.7060   -8.1810   23.3840 C   0  0  0  0  0  3  0  0  0  0  0  0
  -21.3680   -7.4900   24.5650 C   0  0  0  0  0  3  0  0  0  0  0  0
  -21.5710   -6.0990   24.6500 C   0  0  0  0  0  0  0  0  0  0  0  0
  -22.1160   -5.3980   23.5600 C   0  0  0  0  0  3  0  0  0  0  0  0
  -22.4550   -6.0880   22.3820 C   0  0  0  0  0  0  0  0  0  0  0  0
  -22.9600   -5.4040   21.3260 F   0  0  0  0  0  0  0  0  0  0  0  0
  -21.2410   -5.4330   25.7810 F   0  0  0  0  0  0  0  0  0  0  0  0
  -24.2430  -14.6270   21.0460 C   0  0  0  0  0  0  0  0  0  0  0  0
  -23.5200  -13.9780   21.9530 N   0  0  0  0  0  0  0  0  0  0  0  0
  -23.8600  -15.6970   20.5750 O   0  0  0  0  0  0  0  0  0  0  0  0
  -23.8400  -13.1090   22.3520 H   0  0  0  0  0  0  0  0  0  0  0  0
  -22.6300  -14.3550   22.2480 H   0  0  0  0  0  0  0  0  0  0  0  0
  -26.9740  -16.0770   20.1450 N   0  0  0  0  0  0  0  0  0  0  0  0
  -26.2840  -16.7960   20.3330 H   0  0  0  0  0  0  0  0  0  0  0  0
  -27.8490  -16.4470   19.7980 H   0  0  0  0  0  0  0  0  0  0  0  0
  2  3  1  0
  2 50  1  0
  2  1  1  0
  3  5  1  0
  4  3  1  0
  6  3  1  0
  7  6  1  0
  8  7  1  0
  9  8  1  0
  9 11  1  0
 10 21  2  0
 11 16  1  0
 12 20  1  0
 12 22  1  0
 13 19  1  0
 13 15  1  0
 14 20  1  0
 15 14  1  0
 16 15  2  0
 17 18  1  0
 17 11  2  0
 18 13  2  0
 19 12  1  0
 20 10  1  0
 22 24  2  0
 23 22  1  0
 25 23  1  0
 26 35  2  0
 26 31  1  0
 27 23  1  0
 27 31  1  0
 28 27  1  0
 29 30  1  0
 29 28  1  0
 30 26  1  0
 31 32  2  0
 32 33  1  0
 34 33  2  0
 35 34  1  0
 36 10  1  0
 36 37  1  0
 36 46  1  0
 37 40  1  0
 38 42  1  0
 38 37  1  0
 39 38  2  0
 42 41  1  0
 44 42  1  0
 44 45  1  0
 44 43  1  0
 46 49  1  1
 46 47  1  0
 48 46  1  0
 51 52  1  0
 51 53  1  0
 52 54  1  0
 53 55  1  0
 54 58  1  0
 54 56  1  0
 55 56  1  0
 55 50  1  0
 56 57  1  0
 59 58  1  0
 60 65  1  0
 61 62  1  0
 61 60  1  0
 63 62  1  0
 63 70  1  0
 63 64  1  0
 65 59  1  0
 65 64  1  0
 66 59  2  0
 67 68  2  0
 68 87  1  0
 69 68  1  0
 69 72  1  0
 70 71  1  0
 70 67  1  0
 71 69  2  0
 72 73  1  0
 73 74  2  0
 75 78  1  0
 75 74  1  0
 76 75  2  0
 77 76  1  0
 77 72  2  0
 78 79  1  0
 79 84  2  0
 79 80  1  0
 80 81  2  0
 81 82  1  0
 82 86  1  0
 83 82  2  0
 84 83  1  0
 85 84  1  0
 87 88  1  0
 88 91  1  0
 88 90  1  0
 89 87  2  0
 92 67  1  0
 92 93  1  0
 94 92  1  0
M  ISO  4   8 101   9 101  58 100  59 100
M  END
>  <TORSDO>  (10) 
F 23

>  <SCORE>  (10) 
-7.537

>  <name>  (10) 
9

>  <ligand_id>  (10) 
9

>  <original_smiles>  (10) 
[H]c1c([H])c([H])c2c(c1[H])C([H])([H])C([H])([H])C([H])([H])C2([H])N([H])C(=O)C1([H])N(C(=O)C([H])(N([H])C(=O)C([H])(N([H])C([H])([H])[H])C([H])([H])[H])C(C([H])([H])[H])(C([H])([H])[H])C([H])([H])[H])C([H])([H])c2c([H])c(OC([H])([H])C([H])([H])C([H])([H])[N+]([H])([H])C([H])(C([H])([H])[H])C([H])([H])C3([H])C([H])([H])C([H])([H])C([H])([H])C([H])(C([H])([H])C(=O)N4C([H])([H])C([H])([H])C([H])([H])C([H])(n5nc(-c6c([H])c([H])c(Oc7c([H])c([H])c(F)c([H])c7F)c([H])c6[H])c(C(=O)N([H])[H])c5N([H])[H])C4([H])[H])C3([H])C([H])([H])[H])c([H])c([H])c2C1([H])[H]

>  <smiles>  (10) 
[H]c1c([H])c([H])c2c(c1[H])C([H])([H])C([H])([H])C([H])([H])C2([H])N([H])C(=O)C1([H])N(C(=O)C([H])(N([H])C(=O)C([H])(N([H])C([H])([H])[H])C([H])([H])[H])C(C([H])([H])[H])(C([H])([H])[H])C([H])([H])[H])C([H])([H])c2c([H])c(OC([H])([H])C([H])([H])C([H])([H])[N+]([H])([H])C([H])(C([H])([H])[H])C([H])([H])C3([H])C([H])([H])C([H])([H])C([H])([H])C([H])(C([H])([H])C(=O)N4C([H])([H])C([H])([H])C([H])([H])C([H])(n5nc(-c6c([H])c([H])c(Oc7c([H])c([H])c(F)c([H])c7F)c([H])c6[H])c(C(=O)N([H])[H])c5N([H])[H])C4([H])[H])C3([H])C([H])([H])[H])c([H])c([H])c2C1([H])[H]

$$$$
10:0:0
     RDKit          3D

 92100  0  0  1  0  0  0  0  0999 V2000
  -29.5850  -20.9260   19.6710 C   0  0  0  0  0  0  0  0  0  0  0  0
  -30.2950  -21.3810   18.4050 C   0  0  0  0  0  1  0  0  0  0  0  0
  -29.5900  -19.6700   20.0890 N   0  0  0  0  0  2  0  0  0  0  0  0
  -28.9980  -18.6220   17.9580 C   0  0  0  0  0  2  0  0  0  0  0  0
  -27.4820  -18.7210   18.2770 C   0  0  0  0  0  2  0  0  0  0  0  0
  -27.9270  -16.9100   20.1210 C   0  0  0  0  0  2  0  0  0  0  0  0
  -29.4360  -16.9460   19.7030 C   0  0  0  0  0  3  0  0  0  0  0  0
  -29.8790  -18.4480   19.2250 C   0  0  0  0  0  3  0  0  0  0  0  0
  -26.9540  -18.0150   19.5760 C   0  0  1  0  0  0  0  0  0  0  0  0
  -26.6260  -19.0270   20.7080 C   0  0  0  0  0  1  0  0  0  0  0  0
  -25.5580  -17.4230   19.2740 C   0  0  0  0  0  1  0  0  0  0  0  0
  -30.3010  -15.8810   20.5760 C   0  0  0  0  0  2  0  0  0  0  0  0
  -30.8500  -14.4500   20.0780 C   0  0  0  0  0  0  0  0  0  0  0  0
  -30.6910  -12.0020   19.5270 C   0  0  0  0  0  2  0  0  0  0  0  0
  -29.7880  -11.7960   18.2910 C   0  0  0  0  0  2  0  0  0  0  0  0
  -28.3190  -11.6630   18.7260 C   0  0  0  0  0  2  0  0  0  0  0  0
  -27.8980  -12.7800   19.7140 C   0  0  0  0  0  3  0  0  0  0  0  0
  -28.9230  -12.9810   20.8520 C   0  0  0  0  0  2  0  0  0  0  0  0
  -30.2320  -13.2250   20.2380 N   0  0  0  0  0  0  0  0  0  0  0  0
  -31.9670  -14.4640   19.5520 O   0  0  0  0  0  0  0  0  0  0  0  0
  -25.5510  -13.4920   20.4400 C   0  0  0  0  0  0  0  0  0  0  0  0
  -24.4590  -12.7930   20.8640 C   0  0  0  0  0  0  0  0  0  0  0  0
  -24.8510  -11.4180   20.8530 C   0  0  0  0  0  0  0  0  0  0  0  0
  -26.5490  -12.5620   20.2250 N   0  0  0  0  0  0  0  0  0  0  0  0
  -26.1350  -11.3060   20.5280 N   0  0  0  0  0  0  0  0  0  0  0  0
  -24.0600  -10.2040   21.0720 C   0  0  0  0  0  0  0  0  0  0  0  0
  -24.4800   -9.2030   21.9760 C   0  0  0  0  0  3  0  0  0  0  0  0
  -23.6920   -8.0500   22.1830 C   0  0  0  0  0  3  0  0  0  0  0  0
  -22.4710   -7.8900   21.4860 C   0  0  0  0  0  0  0  0  0  0  0  0
  -22.0680   -8.8790   20.5710 C   0  0  0  0  0  3  0  0  0  0  0  0
  -22.8540  -10.0240   20.3630 C   0  0  0  0  0  3  0  0  0  0  0  0
  -21.6530   -6.7910   21.6050 O   0  0  0  0  0  0  0  0  0  0  0  0
  -21.6470   -6.0200   22.7390 C   0  0  0  0  0  0  0  0  0  0  0  0
  -21.3670   -6.5680   24.0100 C   0  0  0  0  0  3  0  0  0  0  0  0
  -21.3010   -5.7280   25.1400 C   0  0  0  0  0  3  0  0  0  0  0  0
  -21.5060   -4.3430   25.0000 C   0  0  0  0  0  0  0  0  0  0  0  0
  -21.7800   -3.7950   23.7350 C   0  0  0  0  0  3  0  0  0  0  0  0
  -21.8470   -4.6320   22.6070 C   0  0  0  0  0  0  0  0  0  0  0  0
  -22.0900   -4.0970   21.3850 F   0  0  0  0  0  0  0  0  0  0  0  0
  -21.4340   -3.5330   26.0820 F   0  0  0  0  0  0  0  0  0  0  0  0
  -23.0980  -13.3520   21.1580 C   0  0  0  0  0  0  0  0  0  0  0  0
  -22.3570  -12.7200   22.0610 N   0  0  0  0  0  0  0  0  0  0  0  0
  -22.7030  -14.3870   20.6210 O   0  0  0  0  0  0  0  0  0  0  0  0
  -22.6880  -11.8810   22.5140 H   0  0  0  0  0  0  0  0  0  0  0  0
  -21.4450  -13.0790   22.3020 H   0  0  0  0  0  0  0  0  0  0  0  0
  -25.7750  -14.8330   20.1810 N   0  0  0  0  0  0  0  0  0  0  0  0
  -25.0380  -15.5210   20.2710 H   0  0  0  0  0  0  0  0  0  0  0  0
  -26.6440  -15.2250   19.8440 H   0  0  0  0  0  0  0  0  0  0  0  0
  -28.7980  -22.1190   20.3960 C   0  0  0  0  0  3  0  0  0  0  0  0
  -28.8330  -23.6430   19.8340 C   0  0  0  0  0  3  0  0  0  0  0  0
  -27.9880  -24.7930   20.5880 C   0  0  0  0  0  3  0  0  0  0  0  0
  -28.2230  -26.2480   20.3410 O   0  0  0  0  0  0  0  0  0  0  0  0
  -24.5910  -31.7840   23.3020 C   0  0  0  0  0  0  0  0  0  0  0  0
  -27.1240  -27.1280   20.3200 C   0  0  0  0  0  0  0  0  0  0  0  0
  -23.3720  -30.4090   21.6520 C   0  0  0  0  0  3  0  0  0  0  0  0
  -24.8020  -28.8060   20.2570 C   0  0  0  0  0  0  0  0  0  0  0  0
  -25.9220  -30.6570   21.5010 C   0  0  0  0  0  2  0  0  0  0  0  0
  -25.9750  -29.2710   20.8640 C   0  0  0  0  0  0  0  0  0  0  0  0
  -27.1420  -28.4450   20.8790 C   0  0  0  0  0  3  0  0  0  0  0  0
  -25.9300  -26.7150   19.6910 C   0  0  0  0  0  3  0  0  0  0  0  0
  -24.7810  -27.5330   19.6600 C   0  0  0  0  0  3  0  0  0  0  0  0
  -23.5880  -29.7140   20.2800 C   0  0  0  0  0  2  0  0  0  0  0  0
  -24.6460  -30.9680   22.2090 N   0  0  0  0  0  0  0  0  0  0  0  0
  -23.5080  -32.0940   23.8200 O   0  0  0  0  0  0  0  0  0  0  0  0
  -22.6670  -29.4190   22.6110 C   0  0  0  0  0  0  0  0  0  0  0  0
  -21.3370  -29.2890   22.4740 N   0  0  0  0  0  0  0  0  0  0  0  0
  -23.3180  -28.7710   23.4340 O   0  0  0  0  0  0  0  0  0  0  0  0
  -20.8730  -29.8600   21.7830 H   0  0  0  0  0  0  0  0  0  0  0  0
  -17.9160  -28.2120   22.9530 C   0  0  0  0  0  0  0  0  0  0  0  0
  -20.4800  -28.3800   23.2380 C   0  0  0  0  0  3  0  0  0  0  0  0
  -20.5350  -26.9470   22.6620 C   0  0  0  0  0  2  0  0  0  0  0  0
  -19.4290  -26.6660   21.6400 C   0  0  0  0  0  2  0  0  0  0  0  0
  -18.0500  -26.8580   22.2770 C   0  0  0  0  0  2  0  0  0  0  0  0
  -19.0580  -28.9330   23.3900 C   0  0  0  0  0  0  0  0  0  0  0  0
  -18.8810  -30.2020   23.9830 C   0  0  0  0  0  3  0  0  0  0  0  0
  -17.5940  -30.7490   24.1420 C   0  0  0  0  0  3  0  0  0  0  0  0
  -16.4650  -30.0250   23.7210 C   0  0  0  0  0  3  0  0  0  0  0  0
  -16.6270  -28.7580   23.1320 C   0  0  0  0  0  3  0  0  0  0  0  0
  -25.8820  -32.3840   23.9410 C   0  0  0  0  0  3  0  0  0  0  0  0
  -25.6140  -33.7990   24.2400 N   0  0  0  0  0  0  0  0  0  0  0  0
  -25.9930  -34.8260   23.4670 C   0  0  0  0  0  0  0  0  0  0  0  0
  -26.6730  -34.6810   22.4490 O   0  0  0  0  0  0  0  0  0  0  0  0
  -25.0160  -33.9880   25.0300 H   0  0  0  0  0  0  0  0  0  0  0  0
  -24.3250  -36.6640   23.0650 C   0  0  0  0  0  1  0  0  0  0  0  0
  -25.5480  -36.2380   23.8940 C   0  0  0  0  0  3  0  0  0  0  0  0
  -27.7070  -37.0690   24.7170 C   0  0  0  0  0  1  0  0  0  0  0  0
  -26.6120  -37.2550   23.7660 N   0  0  0  0  0  0  0  0  0  0  0  0
  -26.2370  -38.1910   23.8940 H   0  0  0  0  0  0  0  0  0  0  0  0
  -26.3450  -31.6210   25.2430 C   0  0  1  0  0  0  0  0  0  0  0  0
  -25.2200  -31.4410   26.2890 C   0  0  0  0  0  1  0  0  0  0  0  0
  -26.8890  -30.2170   24.8900 C   0  0  0  0  0  1  0  0  0  0  0  0
  -27.5070  -32.3890   25.9170 C   0  0  0  0  0  1  0  0  0  0  0  0
  1  3  1  0
  1 49  2  0
  2  1  1  0
  4  5  1  0
  4  8  1  0
  5  9  1  0
  7  6  1  0
  7 12  1  0
  8  7  1  0
  8  3  1  0
  9  6  1  0
  9 10  1  1
 11  9  1  0
 13 19  1  0
 13 12  1  0
 14 19  1  0
 15 16  1  0
 15 14  1  0
 17 16  1  0
 17 24  1  0
 17 18  1  0
 19 18  1  0
 20 13  2  0
 21 22  2  0
 22 41  1  0
 23 22  1  0
 23 26  1  0
 24 21  1  0
 24 25  1  0
 25 23  2  0
 26 27  1  0
 27 28  2  0
 29 32  1  0
 29 28  1  0
 30 29  2  0
 31 30  1  0
 31 26  2  0
 32 33  1  0
 33 34  1  0
 34 35  2  0
 36 35  1  0
 36 40  1  0
 37 36  2  0
 38 33  2  0
 38 37  1  0
 39 38  1  0
 41 42  1  0
 42 45  1  0
 42 44  1  0
 43 41  2  0
 46 47  1  0
 46 21  1  0
 48 46  1  0
 50 49  1  0
 50 51  2  0
 52 51  1  0
 53 64  2  0
 54 52  1  0
 54 59  1  0
 55 63  1  0
 55 65  1  0
 56 62  1  0
 56 58  1  0
 57 63  1  0
 58 59  2  0
 58 57  1  0
 60 54  2  0
 61 60  1  0
 61 56  2  0
 62 55  1  0
 63 53  1  0
 65 67  2  0
 66 65  1  0
 68 66  1  0
 69 78  2  0
 69 74  1  0
 70 66  1  0
 70 74  1  0
 71 70  1  0
 72 73  1  0
 72 71  1  0
 73 69  1  0
 74 75  2  0
 75 76  1  0
 77 76  2  0
 78 77  1  0
 79 53  1  0
 79 80  1  0
 79 89  1  0
 80 83  1  0
 81 85  1  0
 81 80  1  0
 82 81  2  0
 85 84  1  0
 87 85  1  0
 87 88  1  0
 87 86  1  0
 89 92  1  1
 89 90  1  0
 91 89  1  0
M  ISO  4  12 100  13 100  51 101  52 101
M  END
>  <TORSDO>  (11) 
F 21

>  <SCORE>  (11) 
-11.149

>  <name>  (11) 
10

>  <ligand_id>  (11) 
10

>  <original_smiles>  (11) 
[H]c1c([H])c([H])c2c(c1[H])C([H])([H])C([H])([H])C([H])([H])C2([H])N([H])C(=O)C1([H])N(C(=O)C([H])(N([H])C(=O)C([H])(N([H])C([H])([H])[H])C([H])([H])[H])C(C([H])([H])[H])(C([H])([H])[H])C([H])([H])[H])C([H])([H])c2c([H])c(OC([H])([H])C([H])([H])C([H])([H])C(=NC3([H])C([H])([H])C([H])([H])C(C([H])([H])[H])(C([H])([H])[H])C([H])([H])C3([H])C([H])([H])C(=O)N3C([H])([H])C([H])([H])C([H])([H])C([H])(n4nc(-c5c([H])c([H])c(Oc6c([H])c([H])c(F)c([H])c6F)c([H])c5[H])c(C(=O)N([H])[H])c4N([H])[H])C3([H])[H])C([H])([H])[H])c([H])c([H])c2C1([H])[H]

>  <smiles>  (11) 
[H]c1c([H])c([H])c2c(c1[H])C([H])([H])C([H])([H])C([H])([H])C2([H])N([H])C(=O)C1([H])N(C(=O)C([H])(N([H])C(=O)C([H])(N([H])C([H])([H])[H])C([H])([H])[H])C(C([H])([H])[H])(C([H])([H])[H])C([H])([H])[H])C([H])([H])c2c([H])c(OC([H])([H])C([H])([H])C([H])([H])C(=NC3([H])C([H])([H])C([H])([H])C(C([H])([H])[H])(C([H])([H])[H])C([H])([H])C3([H])C([H])([H])C(=O)N3C([H])([H])C([H])([H])C([H])([H])C([H])(n4nc(-c5c([H])c([H])c(Oc6c([H])c([H])c(F)c([H])c6F)c([H])c5[H])c(C(=O)N([H])[H])c4N([H])[H])C3([H])[H])C([H])([H])[H])c([H])c([H])c2C1([H])[H]

$$$$
11:0:0
     RDKit          3D

 86 94  0  0  1  0  0  0  0  0999 V2000
  -29.2330  -19.0440   19.1940 C   0  0  0  0  0  2  0  0  0  0  0  0
  -29.7030  -19.2440   21.5200 C   0  0  0  0  0  2  0  0  0  0  0  0
  -29.3410  -20.6760   19.0440 C   0  0  0  0  0  2  0  0  0  0  0  0
  -29.8270  -20.8600   21.3620 C   0  0  0  0  0  2  0  0  0  0  0  0
  -30.0590  -18.2480   20.3170 C   0  0  0  0  0  3  0  0  0  0  0  0
  -28.9770  -21.6560   20.2640 C   0  0  0  0  0  3  0  0  0  0  0  0
  -29.8160  -16.5630   20.6040 C   0  0  0  0  0  2  0  0  0  0  0  0
  -30.6630  -15.1690   20.1770 C   0  0  0  0  0  0  0  0  0  0  0  0
  -30.5370  -12.8330   19.1450 C   0  0  0  0  0  2  0  0  0  0  0  0
  -29.5640  -12.8450   17.9400 C   0  0  0  0  0  2  0  0  0  0  0  0
  -28.1090  -12.6300   18.3990 C   0  0  0  0  0  2  0  0  0  0  0  0
  -27.7490  -13.5090   19.6240 C   0  0  0  0  0  3  0  0  0  0  0  0
  -28.8350  -13.4570   20.7190 C   0  0  0  0  0  2  0  0  0  0  0  0
  -30.0990  -13.8890   20.1080 N   0  0  0  0  0  0  0  0  0  0  0  0
  -31.8420  -15.2540   19.8100 O   0  0  0  0  0  0  0  0  0  0  0  0
  -25.3900  -14.0930   20.4250 C   0  0  0  0  0  0  0  0  0  0  0  0
  -24.3290  -13.3210   20.8100 C   0  0  0  0  0  0  0  0  0  0  0  0
  -24.7840  -11.9670   20.7550 C   0  0  0  0  0  0  0  0  0  0  0  0
  -26.4210  -13.2110   20.1500 N   0  0  0  0  0  0  0  0  0  0  0  0
  -26.0670  -11.9260   20.4150 N   0  0  0  0  0  0  0  0  0  0  0  0
  -24.0520  -10.7080   20.9480 C   0  0  0  0  0  0  0  0  0  0  0  0
  -24.4740   -9.7450   21.8900 C   0  0  0  0  0  3  0  0  0  0  0  0
  -23.7410   -8.5520   22.0730 C   0  0  0  0  0  3  0  0  0  0  0  0
  -22.5710   -8.3140   21.3130 C   0  0  0  0  0  0  0  0  0  0  0  0
  -22.1680   -9.2660   20.3590 C   0  0  0  0  0  3  0  0  0  0  0  0
  -22.9020  -10.4510   20.1760 C   0  0  0  0  0  3  0  0  0  0  0  0
  -21.8120   -7.1730   21.4040 O   0  0  0  0  0  0  0  0  0  0  0  0
  -21.7180   -6.4610   22.5720 C   0  0  0  0  0  0  0  0  0  0  0  0
  -21.2100   -7.0380   23.7560 C   0  0  0  0  0  3  0  0  0  0  0  0
  -21.0650   -6.2520   24.9170 C   0  0  0  0  0  3  0  0  0  0  0  0
  -21.4190   -4.8900   24.8940 C   0  0  0  0  0  0  0  0  0  0  0  0
  -21.9190   -4.3120   23.7130 C   0  0  0  0  0  3  0  0  0  0  0  0
  -22.0660   -5.0950   22.5550 C   0  0  0  0  0  0  0  0  0  0  0  0
  -22.5290   -4.5290   21.4150 F   0  0  0  0  0  0  0  0  0  0  0  0
  -21.2720   -4.1310   26.0040 F   0  0  0  0  0  0  0  0  0  0  0  0
  -22.9400  -13.8050   21.1150 C   0  0  0  0  0  0  0  0  0  0  0  0
  -22.2320  -13.1140   22.0010 N   0  0  0  0  0  0  0  0  0  0  0  0
  -22.4950  -14.8310   20.6040 O   0  0  0  0  0  0  0  0  0  0  0  0
  -22.6080  -12.2850   22.4380 H   0  0  0  0  0  0  0  0  0  0  0  0
  -21.3010  -13.4190   22.2470 H   0  0  0  0  0  0  0  0  0  0  0  0
  -25.5580  -15.4650   20.2600 N   0  0  0  0  0  0  0  0  0  0  0  0
  -24.7980  -16.1210   20.4010 H   0  0  0  0  0  0  0  0  0  0  0  0
  -26.4040  -15.9050   19.9220 H   0  0  0  0  0  0  0  0  0  0  0  0
  -29.2030  -23.3670   20.1530 C   0  0  0  0  0  3  0  0  0  0  0  0
  -28.0880  -24.6590   20.0000 C   0  0  0  0  0  3  0  0  0  0  0  0
  -28.3350  -26.2170   20.1180 O   0  0  0  0  0  0  0  0  0  0  0  0
  -24.6850  -31.8760   23.2230 C   0  0  0  0  0  0  0  0  0  0  0  0
  -27.2720  -27.2090   20.0830 C   0  0  0  0  0  0  0  0  0  0  0  0
  -23.4820  -30.4980   21.5710 C   0  0  0  0  0  3  0  0  0  0  0  0
  -24.9290  -28.9580   20.1030 C   0  0  0  0  0  0  0  0  0  0  0  0
  -26.0340  -30.7820   21.3870 C   0  0  0  0  0  2  0  0  0  0  0  0
  -26.1140  -29.3990   20.7070 C   0  0  0  0  0  0  0  0  0  0  0  0
  -27.2840  -28.5420   20.6750 C   0  0  0  0  0  3  0  0  0  0  0  0
  -26.0560  -26.8780   19.4440 C   0  0  0  0  0  3  0  0  0  0  0  0
  -24.9160  -27.7130   19.4550 C   0  0  0  0  0  3  0  0  0  0  0  0
  -23.6960  -29.8470   20.1780 C   0  0  0  0  0  2  0  0  0  0  0  0
  -24.7540  -31.0730   22.1140 N   0  0  0  0  0  0  0  0  0  0  0  0
  -23.6020  -32.1410   23.7650 O   0  0  0  0  0  0  0  0  0  0  0  0
  -22.8190  -29.4700   22.5220 C   0  0  0  0  0  0  0  0  0  0  0  0
  -21.4910  -29.2900   22.4060 N   0  0  0  0  0  0  0  0  0  0  0  0
  -23.5030  -28.8370   23.3310 O   0  0  0  0  0  0  0  0  0  0  0  0
  -20.9940  -29.8530   21.7280 H   0  0  0  0  0  0  0  0  0  0  0  0
  -18.1270  -28.0400   22.9120 C   0  0  0  0  0  0  0  0  0  0  0  0
  -20.6850  -28.3330   23.1680 C   0  0  0  0  0  3  0  0  0  0  0  0
  -20.8010  -26.9100   22.5720 C   0  0  0  0  0  2  0  0  0  0  0  0
  -19.6970  -26.5880   21.5600 C   0  0  0  0  0  2  0  0  0  0  0  0
  -18.3170  -26.7040   22.2140 C   0  0  0  0  0  2  0  0  0  0  0  0
  -19.2380  -28.8120   23.3450 C   0  0  0  0  0  0  0  0  0  0  0  0
  -19.0050  -30.0600   23.9610 C   0  0  0  0  0  3  0  0  0  0  0  0
  -17.6940  -30.5390   24.1460 C   0  0  0  0  0  3  0  0  0  0  0  0
  -16.5980  -29.7660   23.7270 C   0  0  0  0  0  3  0  0  0  0  0  0
  -16.8160  -28.5170   23.1170 C   0  0  0  0  0  3  0  0  0  0  0  0
  -25.9620  -32.5120   23.8490 C   0  0  0  0  0  3  0  0  0  0  0  0
  -26.4830  -31.7340   25.1210 C   0  0  1  0  0  0  0  0  0  0  0  0
  -25.3930  -31.4860   26.1900 C   0  0  0  0  0  1  0  0  0  0  0  0
  -27.0700  -30.3600   24.7230 C   0  0  0  0  0  1  0  0  0  0  0  0
  -27.6330  -32.5280   25.7860 C   0  0  0  0  0  1  0  0  0  0  0  0
  -25.6430  -33.9060   24.1990 N   0  0  0  0  0  0  0  0  0  0  0  0
  -25.9350  -34.9710   23.4420 C   0  0  0  0  0  0  0  0  0  0  0  0
  -26.5660  -34.8860   22.3850 O   0  0  0  0  0  0  0  0  0  0  0  0
  -25.0760  -34.0450   25.0230 H   0  0  0  0  0  0  0  0  0  0  0  0
  -24.1630  -36.7420   23.1880 C   0  0  0  0  0  1  0  0  0  0  0  0
  -25.4510  -36.3520   23.9310 C   0  0  0  0  0  3  0  0  0  0  0  0
  -27.6070  -37.2740   24.6630 C   0  0  0  0  0  1  0  0  0  0  0  0
  -26.4600  -37.4220   23.7710 N   0  0  0  0  0  0  0  0  0  0  0  0
  -26.0460  -38.3350   23.9370 H   0  0  0  0  0  0  0  0  0  0  0  0
  1  5  1  0
  3  1  1  0
  3  6  1  0
  4  2  1  0
  5  7  1  0
  5  2  1  0
  6 44  1  0
  6  4  1  0
  8  7  1  0
  9 14  1  0
 10 11  1  0
 10  9  1  0
 12 11  1  0
 12 19  1  0
 12 13  1  0
 14  8  1  0
 14 13  1  0
 15  8  2  0
 16 17  2  0
 17 36  1  0
 18 17  1  0
 18 21  1  0
 19 20  1  0
 19 16  1  0
 20 18  2  0
 21 22  1  0
 22 23  2  0
 24 27  1  0
 24 23  1  0
 25 24  2  0
 26 25  1  0
 26 21  2  0
 27 28  1  0
 28 29  1  0
 29 30  2  0
 31 30  1  0
 31 35  1  0
 32 31  2  0
 33 28  2  0
 33 32  1  0
 34 33  1  0
 36 37  1  0
 37 40  1  0
 37 39  1  0
 38 36  2  0
 41 42  1  0
 41 16  1  0
 43 41  1  0
 45 46  1  0
 45 44  2  0
 47 58  2  0
 48 46  1  0
 48 53  1  0
 49 57  1  0
 49 59  1  0
 50 56  1  0
 50 52  1  0
 51 57  1  0
 52 51  1  0
 53 52  2  0
 54 55  1  0
 54 48  2  0
 55 50  2  0
 56 49  1  0
 57 47  1  0
 59 61  2  0
 60 59  1  0
 62 60  1  0
 63 72  2  0
 63 68  1  0
 64 60  1  0
 64 68  1  0
 65 64  1  0
 66 67  1  0
 66 65  1  0
 67 63  1  0
 68 69  2  0
 69 70  1  0
 71 70  2  0
 72 71  1  0
 73 47  1  0
 73 78  1  0
 73 74  1  0
 74 77  1  1
 74 75  1  0
 76 74  1  0
 78 81  1  0
 79 83  1  0
 79 78  1  0
 80 79  2  0
 83 82  1  0
 85 83  1  0
 85 86  1  0
 85 84  1  0
M  ISO  4   7 100   8 100  45 101  46 101
M  END
>  <TORSDO>  (12) 
F 19

>  <SCORE>  (12) 
-15.330

>  <name>  (12) 
11

>  <ligand_id>  (12) 
11

>  <original_smiles>  (12) 
[H]c1c([H])c([H])c2c(c1[H])C([H])([H])C([H])([H])C([H])([H])C2([H])N([H])C(=O)C1([H])N(C(=O)C([H])(N([H])C(=O)C([H])(N([H])C([H])([H])[H])C([H])([H])[H])C(C([H])([H])[H])(C([H])([H])[H])C([H])([H])[H])C([H])([H])c2c([H])c(OC([H])([H])C([H])([H])C3([H])C([H])([H])C([H])([H])C([H])(C([H])([H])C(=O)N4C([H])([H])C([H])([H])C([H])([H])C([H])(n5nc(-c6c([H])c([H])c(Oc7c([H])c([H])c(F)c([H])c7F)c([H])c6[H])c(C(=O)N([H])[H])c5N([H])[H])C4([H])[H])C([H])([H])C3([H])[H])c([H])c([H])c2C1([H])[H]

>  <smiles>  (12) 
[H]c1c([H])c([H])c2c(c1[H])C([H])([H])C([H])([H])C([H])([H])C2([H])N([H])C(=O)C1([H])N(C(=O)C([H])(N([H])C(=O)C([H])(N([H])C([H])([H])[H])C([H])([H])[H])C(C([H])([H])[H])(C([H])([H])[H])C([H])([H])[H])C([H])([H])c2c([H])c(OC([H])([H])C([H])([H])C3([H])C([H])([H])C([H])([H])C([H])(C([H])([H])C(=O)N4C([H])([H])C([H])([H])C([H])([H])C([H])(n5nc(-c6c([H])c([H])c(Oc7c([H])c([H])c(F)c([H])c7F)c([H])c6[H])c(C(=O)N([H])[H])c5N([H])[H])C4([H])[H])C([H])([H])C3([H])[H])c([H])c([H])c2C1([H])[H]

$$$$
12:0:0
     RDKit          3D

 94103  0  0  1  0  0  0  0  0999 V2000
  -26.7450  -23.3860   20.4980 C   0  0  0  0  0  2  0  0  0  0  0  0
  -27.6240  -22.3850   19.7310 C   0  0  0  0  0  2  0  0  0  0  0  0
  -29.1030  -24.2650   18.8050 C   0  0  0  0  0  2  0  0  0  0  0  0
  -27.7290  -24.5320   20.7580 C   0  0  0  0  0  3  0  0  0  0  0  0
  -29.0460  -23.8000   21.0760 C   0  0  0  0  0  3  0  0  0  0  0  0
  -28.0080  -25.2080   19.3860 C   0  0  0  0  0  3  0  0  0  0  0  0
  -29.0430  -23.0230   19.7530 C   0  0  1  0  0  0  0  0  0  0  0  0
  -29.0880  -22.9830   22.3810 C   0  0  0  0  0  1  0  0  0  0  0  0
  -30.1720  -21.9930   19.5580 C   0  0  0  0  0  3  0  0  0  0  0  0
  -30.0250  -20.6660   19.2960 C   0  0  0  0  0  3  0  0  0  0  0  0
  -31.1690  -19.6520   19.1300 C   0  0  0  0  0  2  0  0  0  0  0  0
  -31.1790  -18.4820   20.0840 N   0  0  1  0  0  4  0  0  0  0  0  0
  -32.1480  -18.1940   20.0960 H   0  0  0  0  0  0  0  0  0  0  0  0
  -31.8460  -19.8560   22.1090 C   0  0  0  0  0  1  0  0  0  0  0  0
  -30.8600  -18.8420   21.4960 C   0  0  0  0  0  2  0  0  0  0  0  0
  -30.4560  -17.2630   19.5760 C   0  0  0  0  0  2  0  0  0  0  0  0
  -30.4890  -15.9950   20.5120 C   0  0  0  0  0  2  0  0  0  0  0  0
  -31.1000  -14.7040   19.8840 C   0  0  0  0  0  0  0  0  0  0  0  0
  -30.7940  -12.4200   18.9700 C   0  0  0  0  0  2  0  0  0  0  0  0
  -29.8140  -12.4770   17.7810 C   0  0  0  0  0  2  0  0  0  0  0  0
  -28.3530  -12.3780   18.2660 C   0  0  0  0  0  2  0  0  0  0  0  0
  -28.0470  -13.3480   19.4380 C   0  0  0  0  0  3  0  0  0  0  0  0
  -29.1360  -13.2490   20.5310 C   0  0  0  0  0  2  0  0  0  0  0  0
  -30.4360  -13.5110   19.8960 N   0  0  0  0  0  0  0  0  0  0  0  0
  -32.1920  -14.8170   19.3200 O   0  0  0  0  0  0  0  0  0  0  0  0
  -25.7150  -14.0520   20.2700 C   0  0  0  0  0  0  0  0  0  0  0  0
  -24.6310  -13.3250   20.6820 C   0  0  0  0  0  0  0  0  0  0  0  0
  -25.0260  -11.9550   20.6110 C   0  0  0  0  0  0  0  0  0  0  0  0
  -26.7070  -13.1280   19.9800 N   0  0  0  0  0  0  0  0  0  0  0  0
  -26.2970  -11.8590   20.2370 N   0  0  0  0  0  0  0  0  0  0  0  0
  -24.2510  -10.7230   20.8200 C   0  0  0  0  0  0  0  0  0  0  0  0
  -24.6500   -9.7530   21.7650 C   0  0  0  0  0  3  0  0  0  0  0  0
  -23.8780   -8.5870   21.9640 C   0  0  0  0  0  3  0  0  0  0  0  0
  -22.6940   -8.3850   21.2170 C   0  0  0  0  0  0  0  0  0  0  0  0
  -22.3150   -9.3440   20.2620 C   0  0  0  0  0  3  0  0  0  0  0  0
  -23.0840  -10.5010   20.0630 C   0  0  0  0  0  3  0  0  0  0  0  0
  -21.8980   -7.2700   21.3240 O   0  0  0  0  0  0  0  0  0  0  0  0
  -21.7660   -6.5890   22.5060 C   0  0  0  0  0  0  0  0  0  0  0  0
  -21.2900   -7.2190   23.6790 C   0  0  0  0  0  3  0  0  0  0  0  0
  -21.1040   -6.4650   24.8550 C   0  0  0  0  0  3  0  0  0  0  0  0
  -21.3820   -5.0840   24.8590 C   0  0  0  0  0  0  0  0  0  0  0  0
  -21.8500   -4.4560   23.6930 C   0  0  0  0  0  3  0  0  0  0  0  0
  -22.0360   -5.2050   22.5190 C   0  0  0  0  0  0  0  0  0  0  0  0
  -22.4670   -4.5910   21.3900 F   0  0  0  0  0  0  0  0  0  0  0  0
  -21.1950   -4.3590   25.9870 F   0  0  0  0  0  0  0  0  0  0  0  0
  -23.2730  -13.8630   21.0300 C   0  0  0  0  0  0  0  0  0  0  0  0
  -22.5650  -13.1950   21.9350 N   0  0  0  0  0  0  0  0  0  0  0  0
  -22.8510  -14.9070   20.5350 O   0  0  0  0  0  0  0  0  0  0  0  0
  -22.9210  -12.3510   22.3580 H   0  0  0  0  0  0  0  0  0  0  0  0
  -21.6540  -13.5340   22.2090 H   0  0  0  0  0  0  0  0  0  0  0  0
  -25.9370  -15.4160   20.1010 N   0  0  0  0  0  0  0  0  0  0  0  0
  -25.2040  -16.1020   20.2450 H   0  0  0  0  0  0  0  0  0  0  0  0
  -26.7870  -15.8190   19.7290 H   0  0  0  0  0  0  0  0  0  0  0  0
  -28.2300  -26.6410   19.5160 O   0  0  0  0  0  0  0  0  0  0  0  0
  -24.6030  -31.6680   23.1390 C   0  0  0  0  0  0  0  0  0  0  0  0
  -27.0810  -27.4310   19.6050 C   0  0  0  0  0  0  0  0  0  0  0  0
  -23.3280  -30.4010   21.4480 C   0  0  0  0  0  3  0  0  0  0  0  0
  -24.7090  -28.9910   19.8490 C   0  0  0  0  0  0  0  0  0  0  0  0
  -25.8540  -30.7590   21.1760 C   0  0  0  0  0  2  0  0  0  0  0  0
  -25.9030  -29.4400   20.4250 C   0  0  0  0  0  0  0  0  0  0  0  0
  -27.0920  -28.6710   20.3000 C   0  0  0  0  0  3  0  0  0  0  0  0
  -25.8500  -27.0240   19.0250 C   0  0  0  0  0  3  0  0  0  0  0  0
  -24.6790  -27.7820   19.1490 C   0  0  0  0  0  3  0  0  0  0  0  0
  -23.4780  -29.8470   20.0110 C   0  0  0  0  0  2  0  0  0  0  0  0
  -24.6170  -30.9540   21.9790 N   0  0  0  0  0  0  0  0  0  0  0  0
  -23.5460  -31.8990   23.7430 O   0  0  0  0  0  0  0  0  0  0  0  0
  -22.7110  -29.3040   22.3480 C   0  0  0  0  0  0  0  0  0  0  0  0
  -21.3870  -29.1100   22.2350 N   0  0  0  0  0  0  0  0  0  0  0  0
  -23.4200  -28.6340   23.1050 O   0  0  0  0  0  0  0  0  0  0  0  0
  -20.8720  -29.7050   21.6020 H   0  0  0  0  0  0  0  0  0  0  0  0
  -18.0540  -27.7750   22.6580 C   0  0  0  0  0  0  0  0  0  0  0  0
  -20.6010  -28.1100   22.9600 C   0  0  0  0  0  3  0  0  0  0  0  0
  -20.7560  -26.7100   22.3240 C   0  0  0  0  0  2  0  0  0  0  0  0
  -19.6700  -26.3940   21.2900 C   0  0  0  0  0  2  0  0  0  0  0  0
  -18.2810  -26.4610   21.9300 C   0  0  0  0  0  2  0  0  0  0  0  0
  -19.1440  -28.5560   23.1290 C   0  0  0  0  0  0  0  0  0  0  0  0
  -18.8770  -29.7850   23.7720 C   0  0  0  0  0  3  0  0  0  0  0  0
  -17.5540  -30.2320   23.9510 C   0  0  0  0  0  3  0  0  0  0  0  0
  -16.4790  -29.4470   23.4980 C   0  0  0  0  0  3  0  0  0  0  0  0
  -16.7310  -28.2210   22.8570 C   0  0  0  0  0  3  0  0  0  0  0  0
  -25.9150  -32.2500   23.7520 C   0  0  0  0  0  3  0  0  0  0  0  0
  -25.6310  -33.6260   24.1810 N   0  0  0  0  0  0  0  0  0  0  0  0
  -25.9650  -34.7230   23.4870 C   0  0  0  0  0  0  0  0  0  0  0  0
  -26.6190  -34.6800   22.4410 O   0  0  0  0  0  0  0  0  0  0  0  0
  -25.0540  -33.7340   25.0010 H   0  0  0  0  0  0  0  0  0  0  0  0
  -24.2570  -36.5570   23.2730 C   0  0  0  0  0  1  0  0  0  0  0  0
  -25.5000  -36.0820   24.0420 C   0  0  0  0  0  3  0  0  0  0  0  0
  -27.6530  -36.8820   24.9100 C   0  0  0  0  0  1  0  0  0  0  0  0
  -26.5470  -37.1260   23.9900 N   0  0  0  0  0  0  0  0  0  0  0  0
  -26.1540  -38.0390   24.2040 H   0  0  0  0  0  0  0  0  0  0  0  0
  -26.4700  -31.3930   24.9550 C   0  0  1  0  0  0  0  0  0  0  0  0
  -25.4170  -31.1040   26.0500 C   0  0  0  0  0  1  0  0  0  0  0  0
  -27.0150  -30.0360   24.4520 C   0  0  0  0  0  1  0  0  0  0  0  0
  -27.6570  -32.1300   25.6180 C   0  0  0  0  0  1  0  0  0  0  0  0
  2  7  1  0
  2  1  1  0
  3  6  1  0
  3  7  1  0
  4  1  1  0
  4  5  1  0
  5  8  1  0
  6 54  1  0
  6  4  1  0
  7  9  1  1
  7  5  1  0
 10  9  2  0
 11 10  1  0
 11 12  1  0
 12 13  1  1
 12 15  1  0
 15 14  1  0
 16 12  1  0
 16 17  1  0
 18 24  1  0
 18 17  1  0
 19 24  1  0
 20 21  1  0
 20 19  1  0
 22 21  1  0
 22 29  1  0
 22 23  1  0
 24 23  1  0
 25 18  2  0
 26 27  2  0
 27 46  1  0
 28 27  1  0
 28 31  1  0
 29 30  1  0
 29 26  1  0
 30 28  2  0
 31 32  1  0
 32 33  2  0
 34 37  1  0
 34 33  1  0
 35 34  2  0
 36 35  1  0
 36 31  2  0
 37 38  1  0
 38 43  2  0
 38 39  1  0
 39 40  2  0
 40 41  1  0
 41 45  1  0
 42 41  2  0
 43 42  1  0
 44 43  1  0
 46 47  1  0
 47 50  1  0
 47 49  1  0
 48 46  2  0
 51 52  1  0
 51 26  1  0
 53 51  1  0
 54 56  1  0
 55 66  2  0
 56 61  1  0
 57 65  1  0
 57 67  1  0
 58 64  1  0
 58 60  1  0
 59 65  1  0
 60 59  1  0
 61 60  2  0
 62 63  1  0
 62 56  2  0
 63 58  2  0
 64 57  1  0
 65 55  1  0
 67 69  2  0
 68 67  1  0
 70 68  1  0
 71 80  2  0
 71 76  1  0
 72 68  1  0
 72 76  1  0
 73 72  1  0
 74 75  1  0
 74 73  1  0
 75 71  1  0
 76 77  2  0
 77 78  1  0
 79 78  2  0
 80 79  1  0
 81 55  1  0
 81 82  1  0
 81 91  1  0
 82 85  1  0
 83 87  1  0
 83 82  1  0
 84 83  2  0
 87 86  1  0
 89 87  1  0
 89 90  1  0
 89 88  1  0
 91 94  1  1
 91 92  1  0
 93 91  1  0
M  ISO  4   6 101  17 100  18 100  54 101
M  END
>  <TORSDO>  (13) 
F 22

>  <SCORE>  (13) 
-12.648

>  <name>  (13) 
12

>  <ligand_id>  (13) 
12

>  <original_smiles>  (13) 
[H]C(=C([H])C([H])([H])[N+]([H])(C([H])([H])C([H])([H])[H])C([H])([H])C([H])([H])C(=O)N1C([H])([H])C([H])([H])C([H])([H])C([H])(n2nc(-c3c([H])c([H])c(Oc4c([H])c([H])c(F)c([H])c4F)c([H])c3[H])c(C(=O)N([H])[H])c2N([H])[H])C1([H])[H])C12C([H])([H])C([H])([H])C([H])(C([H])(Oc3c([H])c([H])c4c(c3[H])C([H])([H])N(C(=O)C([H])(N([H])C(=O)C([H])(N([H])C([H])([H])[H])C([H])([H])[H])C(C([H])([H])[H])(C([H])([H])[H])C([H])([H])[H])C([H])(C(=O)N([H])C3([H])c5c([H])c([H])c([H])c([H])c5C([H])([H])C([H])([H])C3([H])[H])C4([H])[H])C1([H])[H])C2([H])C([H])([H])[H]

>  <smiles>  (13) 
[H]C(=C([H])C([H])([H])[N+]([H])(C([H])([H])C([H])([H])[H])C([H])([H])C([H])([H])C(=O)N1C([H])([H])C([H])([H])C([H])([H])C([H])(n2nc(-c3c([H])c([H])c(Oc4c([H])c([H])c(F)c([H])c4F)c([H])c3[H])c(C(=O)N([H])[H])c2N([H])[H])C1([H])[H])C12C([H])([H])C([H])([H])C([H])(C([H])(Oc3c([H])c([H])c4c(c3[H])C([H])([H])N(C(=O)C([H])(N([H])C(=O)C([H])(N([H])C([H])([H])[H])C([H])([H])[H])C(C([H])([H])[H])(C([H])([H])[H])C([H])([H])[H])C([H])(C(=O)N([H])C3([H])c5c([H])c([H])c([H])c([H])c5C([H])([H])C([H])([H])C3([H])[H])C4([H])[H])C1([H])[H])C2([H])C([H])([H])[H]

$$$$
13:0:0
     RDKit          3D

 89 97  0  0  1  0  0  0  0  0999 V2000
  -29.0720  -22.3530   20.3420 C   0  0  0  0  0  3  0  0  0  0  0  0
  -29.8420  -21.1000   19.7730 N   0  0  0  0  0  4  0  0  0  0  0  0
  -29.5800  -21.0190   18.8040 H   0  0  0  0  0  0  0  0  0  0  0  0
  -30.8240  -21.3310   19.7780 H   0  0  0  0  0  0  0  0  0  0  0  0
  -29.6960  -19.6540   20.3900 C   0  0  0  0  0  3  0  0  0  0  0  0
  -30.5220  -18.3050   19.8390 C   0  0  0  0  0  3  0  0  0  0  0  0
  -30.2400  -16.7560   20.3990 C   0  0  0  0  0  2  0  0  0  0  0  0
  -31.0590  -15.3900   19.9830 C   0  0  0  0  0  0  0  0  0  0  0  0
  -30.9200  -13.0510   19.0260 C   0  0  0  0  0  2  0  0  0  0  0  0
  -29.9360  -13.0510   17.8310 C   0  0  0  0  0  2  0  0  0  0  0  0
  -28.4870  -12.8490   18.3130 C   0  0  0  0  0  2  0  0  0  0  0  0
  -28.1350  -13.7570   19.5190 C   0  0  0  0  0  3  0  0  0  0  0  0
  -29.2310  -13.7320   20.6050 C   0  0  0  0  0  2  0  0  0  0  0  0
  -30.4940  -14.1210   19.9680 N   0  0  0  0  0  0  0  0  0  0  0  0
  -32.2190  -15.4960   19.5730 O   0  0  0  0  0  0  0  0  0  0  0  0
  -25.8000  -14.3360   20.4030 C   0  0  0  0  0  0  0  0  0  0  0  0
  -24.7420  -13.5550   20.7830 C   0  0  0  0  0  0  0  0  0  0  0  0
  -25.1830  -12.2020   20.6570 C   0  0  0  0  0  0  0  0  0  0  0  0
  -26.8150  -13.4560   20.0640 N   0  0  0  0  0  0  0  0  0  0  0  0
  -26.4560  -12.1640   20.2830 N   0  0  0  0  0  0  0  0  0  0  0  0
  -24.4470  -10.9400   20.8140 C   0  0  0  0  0  0  0  0  0  0  0  0
  -24.8380   -9.9700   21.7620 C   0  0  0  0  0  3  0  0  0  0  0  0
  -24.1010   -8.7740   21.9070 C   0  0  0  0  0  3  0  0  0  0  0  0
  -22.9590   -8.5420   21.1050 C   0  0  0  0  0  0  0  0  0  0  0  0
  -22.5880   -9.5020   20.1490 C   0  0  0  0  0  3  0  0  0  0  0  0
  -23.3240  -10.6890   20.0020 C   0  0  0  0  0  3  0  0  0  0  0  0
  -22.1980   -7.3990   21.1620 O   0  0  0  0  0  0  0  0  0  0  0  0
  -22.0230   -6.7070   22.3320 C   0  0  0  0  0  0  0  0  0  0  0  0
  -21.4360   -7.3020   23.4700 C   0  0  0  0  0  3  0  0  0  0  0  0
  -21.2100   -6.5340   24.6300 C   0  0  0  0  0  3  0  0  0  0  0  0
  -21.5610   -5.1710   24.6530 C   0  0  0  0  0  0  0  0  0  0  0  0
  -22.1400   -4.5740   23.5180 C   0  0  0  0  0  3  0  0  0  0  0  0
  -22.3660   -5.3390   22.3610 C   0  0  0  0  0  0  0  0  0  0  0  0
  -22.9060   -4.7540   21.2660 F   0  0  0  0  0  0  0  0  0  0  0  0
  -21.3360   -4.4310   25.7630 F   0  0  0  0  0  0  0  0  0  0  0  0
  -23.3690  -14.0350   21.1490 C   0  0  0  0  0  0  0  0  0  0  0  0
  -22.6760  -13.3090   22.0180 N   0  0  0  0  0  0  0  0  0  0  0  0
  -22.9220  -15.0900   20.6990 O   0  0  0  0  0  0  0  0  0  0  0  0
  -23.0510  -12.4560   22.4040 H   0  0  0  0  0  0  0  0  0  0  0  0
  -21.7550  -13.6150   22.3040 H   0  0  0  0  0  0  0  0  0  0  0  0
  -25.9780  -15.7120   20.2950 N   0  0  0  0  0  0  0  0  0  0  0  0
  -26.8250  -16.1640   19.9760 H   0  0  0  0  0  0  0  0  0  0  0  0
  -25.2290  -16.3660   20.4950 H   0  0  0  0  0  0  0  0  0  0  0  0
  -26.5840  -22.9910   21.0060 C   0  0  0  0  0  2  0  0  0  0  0  0
  -26.8700  -21.6480   21.6230 C   0  0  0  0  0  2  0  0  0  0  0  0
  -27.5760  -22.0560   20.3470 C   0  0  0  0  0  3  0  0  0  0  0  0
  -29.3320  -23.9020   19.7490 C   0  0  0  0  0  3  0  0  0  0  0  0
  -28.4790  -25.2530   20.2410 C   0  0  0  0  0  3  0  0  0  0  0  0
  -28.6080  -26.7050   19.7360 O   0  0  0  0  0  0  0  0  0  0  0  0
  -24.7470  -31.9760   23.1080 C   0  0  0  0  0  0  0  0  0  0  0  0
  -27.4940  -27.6030   19.7880 C   0  0  0  0  0  0  0  0  0  0  0  0
  -23.5900  -30.6270   21.4000 C   0  0  0  0  0  3  0  0  0  0  0  0
  -25.0900  -29.2080   19.8750 C   0  0  0  0  0  0  0  0  0  0  0  0
  -26.1240  -31.0270   21.2240 C   0  0  0  0  0  2  0  0  0  0  0  0
  -26.2520  -29.6830   20.4960 C   0  0  0  0  0  0  0  0  0  0  0  0
  -27.4600  -28.8980   20.4340 C   0  0  0  0  0  3  0  0  0  0  0  0
  -26.3030  -27.2180   19.1380 C   0  0  0  0  0  3  0  0  0  0  0  0
  -25.1230  -27.9890   19.1820 C   0  0  0  0  0  3  0  0  0  0  0  0
  -23.8240  -30.0400   19.9820 C   0  0  0  0  0  2  0  0  0  0  0  0
  -24.8400  -31.2280   21.9670 N   0  0  0  0  0  0  0  0  0  0  0  0
  -23.6560  -32.1810   23.6610 O   0  0  0  0  0  0  0  0  0  0  0  0
  -22.9680  -29.5340   22.3050 C   0  0  0  0  0  0  0  0  0  0  0  0
  -21.6490  -29.3100   22.1740 N   0  0  0  0  0  0  0  0  0  0  0  0
  -23.6740  -28.8950   23.0880 O   0  0  0  0  0  0  0  0  0  0  0  0
  -21.1350  -29.8810   21.5190 H   0  0  0  0  0  0  0  0  0  0  0  0
  -18.3230  -27.9640   22.6530 C   0  0  0  0  0  0  0  0  0  0  0  0
  -20.8750  -28.2960   22.8950 C   0  0  0  0  0  3  0  0  0  0  0  0
  -21.0150  -26.9100   22.2250 C   0  0  0  0  0  2  0  0  0  0  0  0
  -19.9060  -26.6160   21.2100 C   0  0  0  0  0  2  0  0  0  0  0  0
  -18.5320  -26.6690   21.8850 C   0  0  0  0  0  2  0  0  0  0  0  0
  -19.4220  -28.7360   23.1140 C   0  0  0  0  0  0  0  0  0  0  0  0
  -19.1700  -29.9450   23.7970 C   0  0  0  0  0  3  0  0  0  0  0  0
  -17.8520  -30.3860   24.0190 C   0  0  0  0  0  3  0  0  0  0  0  0
  -16.7670  -29.6110   23.5730 C   0  0  0  0  0  3  0  0  0  0  0  0
  -17.0040  -28.4010   22.8970 C   0  0  0  0  0  3  0  0  0  0  0  0
  -26.0050  -32.6280   23.7610 C   0  0  0  0  0  3  0  0  0  0  0  0
  -25.6470  -34.0010   24.1450 N   0  0  0  0  0  0  0  0  0  0  0  0
  -25.9300  -35.0950   23.4240 C   0  0  0  0  0  0  0  0  0  0  0  0
  -26.5860  -35.0550   22.3800 O   0  0  0  0  0  0  0  0  0  0  0  0
  -25.0550  -34.1040   24.9560 H   0  0  0  0  0  0  0  0  0  0  0  0
  -24.1220  -36.8300   23.1840 C   0  0  0  0  0  1  0  0  0  0  0  0
  -25.4030  -36.4470   23.9430 C   0  0  0  0  0  3  0  0  0  0  0  0
  -27.5200  -37.3980   24.7480 C   0  0  0  0  0  1  0  0  0  0  0  0
  -26.3900  -37.5440   23.8350 N   0  0  0  0  0  0  0  0  0  0  0  0
  -25.9500  -38.4430   24.0170 H   0  0  0  0  0  0  0  0  0  0  0  0
  -26.5400  -31.8270   25.0120 C   0  0  1  0  0  0  0  0  0  0  0  0
  -25.4490  -31.5170   26.0630 C   0  0  0  0  0  1  0  0  0  0  0  0
  -27.1700  -30.4840   24.5770 C   0  0  0  0  0  1  0  0  0  0  0  0
  -27.6600  -32.6330   25.7100 C   0  0  0  0  0  1  0  0  0  0  0  0
  1 47  1  0
  1 46  1  0
  2  4  1  0
  2  1  1  0
  2  5  1  0
  3  2  1  0
  6  5  2  0
  6  7  1  0
  8  7  1  0
  9 14  1  0
 10 11  1  0
 10  9  1  0
 12 11  1  0
 12 19  1  0
 12 13  1  0
 14  8  1  0
 14 13  1  0
 15  8  2  0
 16 17  2  0
 17 36  1  0
 18 17  1  0
 18 21  1  0
 19 20  1  0
 19 16  1  0
 20 18  2  0
 21 22  1  0
 22 23  2  0
 24 27  1  0
 24 23  1  0
 25 24  2  0
 26 25  1  0
 26 21  2  0
 27 28  1  0
 28 33  2  0
 28 29  1  0
 29 30  2  0
 30 31  1  0
 31 35  1  0
 32 31  2  0
 33 32  1  0
 34 33  1  0
 36 37  1  0
 37 40  1  0
 37 39  1  0
 38 36  2  0
 41 16  1  0
 41 43  1  0
 42 41  1  0
 44 45  1  0
 46 44  1  0
 46 45  1  0
 47 48  2  0
 49 51  1  0
 49 48  1  0
 50 61  2  0
 51 56  1  0
 52 60  1  0
 52 62  1  0
 53 59  1  0
 53 55  1  0
 54 60  1  0
 55 54  1  0
 56 55  2  0
 57 58  1  0
 57 51  2  0
 58 53  2  0
 59 52  1  0
 60 50  1  0
 62 64  2  0
 63 62  1  0
 65 63  1  0
 66 75  2  0
 66 71  1  0
 67 63  1  0
 67 71  1  0
 68 67  1  0
 69 70  1  0
 69 68  1  0
 70 66  1  0
 71 72  2  0
 72 73  1  0
 74 73  2  0
 75 74  1  0
 76 50  1  0
 76 77  1  0
 76 86  1  0
 77 80  1  0
 78 82  1  0
 78 77  1  0
 79 78  2  0
 82 81  1  0
 84 82  1  0
 84 85  1  0
 84 83  1  0
 86 89  1  1
 86 87  1  0
 88 86  1  0
M  ISO  4   7 100   8 100  48 101  49 101
M  END
>  <TORSDO>  (14) 
F 23

>  <SCORE>  (14) 
-10.010

>  <name>  (14) 
13

>  <ligand_id>  (14) 
13

>  <original_smiles>  (14) 
[H]c1c([H])c([H])c2c(c1[H])C([H])([H])C([H])([H])C([H])([H])C2([H])N([H])C(=O)C1([H])N(C(=O)C([H])(N([H])C(=O)C([H])(N([H])C([H])([H])[H])C([H])([H])[H])C(C([H])([H])[H])(C([H])([H])[H])C([H])([H])[H])C([H])([H])c2c([H])c(OC([H])([H])C([H])([H])C([H])(C3([H])C([H])([H])C3([H])[H])[N+]([H])([H])C([H])([H])C([H])([H])C([H])([H])C(=O)N3C([H])([H])C([H])([H])C([H])([H])C([H])(n4nc(-c5c([H])c([H])c(Oc6c([H])c([H])c(F)c([H])c6F)c([H])c5[H])c(C(=O)N([H])[H])c4N([H])[H])C3([H])[H])c([H])c([H])c2C1([H])[H]

>  <smiles>  (14) 
[H]c1c([H])c([H])c2c(c1[H])C([H])([H])C([H])([H])C([H])([H])C2([H])N([H])C(=O)C1([H])N(C(=O)C([H])(N([H])C(=O)C([H])(N([H])C([H])([H])[H])C([H])([H])[H])C(C([H])([H])[H])(C([H])([H])[H])C([H])([H])[H])C([H])([H])c2c([H])c(OC([H])([H])C([H])([H])C([H])(C3([H])C([H])([H])C3([H])[H])[N+]([H])([H])C([H])([H])C([H])([H])C([H])([H])C(=O)N3C([H])([H])C([H])([H])C([H])([H])C([H])(n4nc(-c5c([H])c([H])c(Oc6c([H])c([H])c(F)c([H])c6F)c([H])c5[H])c(C(=O)N([H])[H])c4N([H])[H])C3([H])[H])c([H])c([H])c2C1([H])[H]

$$$$
14:0:0
     RDKit          3D

 95104  0  0  1  0  0  0  0  0999 V2000
  -29.1700  -20.2880   20.1090 C   0  0  0  0  0  3  0  0  0  0  0  0
  -28.7450  -21.5760   20.4430 C   0  0  0  0  0  0  0  0  0  0  0  0
  -29.0380  -22.1720   21.8160 C   0  0  0  0  0  1  0  0  0  0  0  0
  -32.7710  -18.4410   21.9030 C   0  0  0  0  0  2  0  0  0  0  0  0
  -31.6580  -17.4220   21.6700 C   0  0  0  0  0  2  0  0  0  0  0  0
  -32.1680  -19.7850   22.2850 C   0  0  0  0  0  2  0  0  0  0  0  0
  -30.0530  -19.3270   21.0040 C   0  0  0  0  0  3  0  0  0  0  0  0
  -30.6110  -17.8340   20.5810 C   0  0  0  0  0  3  0  0  0  0  0  0
  -31.2260  -20.2100   21.2390 N   0  0  0  0  0  4  0  0  0  0  0  0
  -31.7270  -20.3270   20.3730 H   0  0  0  0  0  0  0  0  0  0  0  0
  -30.8630  -21.1160   21.4960 H   0  0  0  0  0  0  0  0  0  0  0  0
  -29.7110  -16.4990   20.4200 C   0  0  0  0  0  2  0  0  0  0  0  0
  -30.4420  -15.1680   19.8880 C   0  0  0  0  0  0  0  0  0  0  0  0
  -30.2530  -12.8850   18.8920 C   0  0  0  0  0  2  0  0  0  0  0  0
  -29.2050  -12.9150   17.7560 C   0  0  0  0  0  2  0  0  0  0  0  0
  -27.7910  -12.6710   18.3170 C   0  0  0  0  0  2  0  0  0  0  0  0
  -27.4860  -13.5430   19.5630 C   0  0  0  0  0  3  0  0  0  0  0  0
  -28.6440  -13.5160   20.5840 C   0  0  0  0  0  2  0  0  0  0  0  0
  -29.8710  -13.9140   19.8870 N   0  0  0  0  0  0  0  0  0  0  0  0
  -31.5360  -15.3150   19.3350 O   0  0  0  0  0  0  0  0  0  0  0  0
  -25.1830  -14.0050   20.5980 C   0  0  0  0  0  0  0  0  0  0  0  0
  -24.1800  -13.1740   21.0170 C   0  0  0  0  0  0  0  0  0  0  0  0
  -24.6620  -11.8430   20.8220 C   0  0  0  0  0  0  0  0  0  0  0  0
  -26.2100  -13.1780   20.1740 N   0  0  0  0  0  0  0  0  0  0  0  0
  -25.9100  -11.8670   20.3680 N   0  0  0  0  0  0  0  0  0  0  0  0
  -23.9830  -10.5490   20.9850 C   0  0  0  0  0  0  0  0  0  0  0  0
  -24.4510   -9.5790   21.9000 C   0  0  0  0  0  3  0  0  0  0  0  0
  -23.7700   -8.3520   22.0520 C   0  0  0  0  0  3  0  0  0  0  0  0
  -22.6060   -8.0860   21.2920 C   0  0  0  0  0  0  0  0  0  0  0  0
  -22.1580   -9.0470   20.3670 C   0  0  0  0  0  3  0  0  0  0  0  0
  -22.8410  -10.2640   20.2120 C   0  0  0  0  0  3  0  0  0  0  0  0
  -21.8940   -6.9130   21.3560 O   0  0  0  0  0  0  0  0  0  0  0  0
  -21.7840   -6.2010   22.5230 C   0  0  0  0  0  0  0  0  0  0  0  0
  -21.1730   -6.7470   23.6740 C   0  0  0  0  0  3  0  0  0  0  0  0
  -21.0170   -5.9570   24.8300 C   0  0  0  0  0  3  0  0  0  0  0  0
  -21.4600   -4.6220   24.8360 C   0  0  0  0  0  0  0  0  0  0  0  0
  -22.0630   -4.0740   23.6900 C   0  0  0  0  0  3  0  0  0  0  0  0
  -22.2200   -4.8610   22.5360 C   0  0  0  0  0  0  0  0  0  0  0  0
  -22.7820   -4.3210   21.4280 F   0  0  0  0  0  0  0  0  0  0  0  0
  -21.3030   -3.8600   25.9440 F   0  0  0  0  0  0  0  0  0  0  0  0
  -22.8150  -13.5890   21.4850 C   0  0  0  0  0  0  0  0  0  0  0  0
  -22.1980  -12.7980   22.3570 N   0  0  0  0  0  0  0  0  0  0  0  0
  -22.3070  -14.6460   21.1130 O   0  0  0  0  0  0  0  0  0  0  0  0
  -22.6230  -11.9410   22.6750 H   0  0  0  0  0  0  0  0  0  0  0  0
  -21.2880  -13.0570   22.7120 H   0  0  0  0  0  0  0  0  0  0  0  0
  -25.3010  -15.3890   20.5190 N   0  0  0  0  0  0  0  0  0  0  0  0
  -24.5410  -16.0130   20.7670 H   0  0  0  0  0  0  0  0  0  0  0  0
  -26.1050  -15.8770   20.1450 H   0  0  0  0  0  0  0  0  0  0  0  0
  -28.6550  -22.8800   17.2950 C   0  0  0  0  0  2  0  0  0  0  0  0
  -27.6200  -22.1510   18.1450 C   0  0  0  0  0  2  0  0  0  0  0  0
  -28.6720  -24.2910   17.8860 C   0  0  0  0  0  2  0  0  0  0  0  0
  -27.9040  -22.6140   19.5830 C   0  0  0  0  0  3  0  0  0  0  0  0
  -28.4020  -24.1490   19.4020 C   0  0  0  0  0  3  0  0  0  0  0  0
  -27.4090  -25.3180   19.8750 C   0  0  0  0  0  2  0  0  0  0  0  0
  -27.6660  -26.7590   19.5560 O   0  0  0  0  0  0  0  0  0  0  0  0
  -24.4420  -32.0700   23.2900 C   0  0  0  0  0  0  0  0  0  0  0  0
  -26.5920  -27.6650   19.6820 C   0  0  0  0  0  0  0  0  0  0  0  0
  -23.0440  -30.8280   21.6800 C   0  0  0  0  0  3  0  0  0  0  0  0
  -24.3030  -29.3570   20.0110 C   0  0  0  0  0  0  0  0  0  0  0  0
  -25.5690  -31.0830   21.2820 C   0  0  0  0  0  2  0  0  0  0  0  0
  -25.5390  -29.7570   20.5310 C   0  0  0  0  0  0  0  0  0  0  0  0
  -26.6890  -28.9240   20.3560 C   0  0  0  0  0  3  0  0  0  0  0  0
  -25.3360  -27.3410   19.1210 C   0  0  0  0  0  3  0  0  0  0  0  0
  -24.2040  -28.1570   19.2930 C   0  0  0  0  0  3  0  0  0  0  0  0
  -23.1080  -30.2590   20.2390 C   0  0  0  0  0  2  0  0  0  0  0  0
  -24.3760  -31.3390   22.1390 N   0  0  0  0  0  0  0  0  0  0  0  0
  -23.4220  -32.3410   23.9410 O   0  0  0  0  0  0  0  0  0  0  0  0
  -22.4400  -29.7590   22.6220 C   0  0  0  0  0  0  0  0  0  0  0  0
  -21.1210  -29.5290   22.5110 N   0  0  0  0  0  0  0  0  0  0  0  0
  -23.1570  -29.1420   23.4160 O   0  0  0  0  0  0  0  0  0  0  0  0
  -20.6060  -30.0860   21.8430 H   0  0  0  0  0  0  0  0  0  0  0  0
  -17.8250  -28.0950   22.9310 C   0  0  0  0  0  0  0  0  0  0  0  0
  -20.3490  -28.5420   23.2670 C   0  0  0  0  0  3  0  0  0  0  0  0
  -20.5720  -27.1170   22.7070 C   0  0  0  0  0  2  0  0  0  0  0  0
  -19.5220  -26.7060   21.6700 C   0  0  0  0  0  2  0  0  0  0  0  0
  -18.1170  -26.7550   22.2750 C   0  0  0  0  0  2  0  0  0  0  0  0
  -18.8740  -28.9420   23.3810 C   0  0  0  0  0  0  0  0  0  0  0  0
  -18.5490  -30.1900   23.9530 C   0  0  0  0  0  3  0  0  0  0  0  0
  -17.2070  -30.5940   24.0840 C   0  0  0  0  0  3  0  0  0  0  0  0
  -16.1720  -29.7470   23.6510 C   0  0  0  0  0  3  0  0  0  0  0  0
  -16.4820  -28.5000   23.0790 C   0  0  0  0  0  3  0  0  0  0  0  0
  -25.7970  -32.6200   23.8320 C   0  0  0  0  0  3  0  0  0  0  0  0
  -26.3620  -31.7910   25.0520 C   0  0  1  0  0  0  0  0  0  0  0  0
  -25.3240  -31.5450   26.1740 C   0  0  0  0  0  1  0  0  0  0  0  0
  -26.8810  -30.4130   24.5800 C   0  0  0  0  0  1  0  0  0  0  0  0
  -27.5720  -32.5320   25.6690 C   0  0  0  0  0  1  0  0  0  0  0  0
  -25.5860  -34.0240   24.2160 N   0  0  0  0  0  0  0  0  0  0  0  0
  -25.9170  -35.0790   23.4600 C   0  0  0  0  0  0  0  0  0  0  0  0
  -26.5020  -34.9690   22.3790 O   0  0  0  0  0  0  0  0  0  0  0  0
  -25.0660  -34.1860   25.0660 H   0  0  0  0  0  0  0  0  0  0  0  0
  -24.2580  -36.9620   23.2860 C   0  0  0  0  0  1  0  0  0  0  0  0
  -25.5360  -36.4760   23.9860 C   0  0  0  0  0  3  0  0  0  0  0  0
  -27.7640  -37.2390   24.6790 C   0  0  0  0  0  1  0  0  0  0  0  0
  -26.6100  -37.4810   23.8190 N   0  0  0  0  0  0  0  0  0  0  0  0
  -26.2610  -38.4150   24.0140 H   0  0  0  0  0  0  0  0  0  0  0  0
  1  2  2  0
  2  3  1  0
  4  6  1  0
  5  4  1  0
  7  1  1  0
  7  9  1  0
  8 12  1  0
  8  7  1  0
  8  5  1  0
  9 11  1  0
  9  6  1  0
 10  9  1  0
 13 12  1  0
 14 19  1  0
 15 16  1  0
 15 14  1  0
 17 16  1  0
 17 24  1  0
 17 18  1  0
 19 13  1  0
 19 18  1  0
 20 13  2  0
 21 22  2  0
 22 41  1  0
 23 26  1  0
 23 22  1  0
 24 25  1  0
 24 21  1  0
 25 23  2  0
 26 27  1  0
 27 28  2  0
 29 32  1  0
 29 28  1  0
 30 29  2  0
 31 30  1  0
 31 26  2  0
 32 33  1  0
 33 38  2  0
 33 34  1  0
 34 35  2  0
 35 36  1  0
 36 40  1  0
 37 36  2  0
 38 37  1  0
 39 38  1  0
 41 42  1  0
 42 44  1  0
 42 45  1  0
 43 41  2  0
 46 21  1  0
 46 47  1  0
 48 46  1  0
 49 51  1  0
 49 50  1  0
 50 52  1  0
 51 53  1  0
 52  2  1  0
 53 52  1  0
 53 54  1  0
 55 57  1  0
 55 54  1  0
 56 67  2  0
 57 62  1  0
 58 66  1  0
 58 68  1  0
 59 65  1  0
 59 61  1  0
 60 66  1  0
 61 60  1  0
 62 61  2  0
 63 64  1  0
 63 57  2  0
 64 59  2  0
 65 58  1  0
 66 56  1  0
 68 70  2  0
 69 68  1  0
 71 69  1  0
 72 81  2  0
 72 77  1  0
 73 69  1  0
 73 77  1  0
 74 73  1  0
 75 76  1  0
 75 74  1  0
 76 72  1  0
 77 78  2  0
 78 79  1  0
 80 79  2  0
 81 80  1  0
 82 56  1  0
 82 87  1  0
 82 83  1  0
 83 86  1  1
 83 84  1  0
 85 83  1  0
 87 90  1  0
 88 92  1  0
 88 87  1  0
 89 88  2  0
 92 91  1  0
 94 92  1  0
 94 95  1  0
 94 93  1  0
M  ISO  4  12 100  13 100  54 101  55 101
M  END
>  <TORSDO>  (15) 
F 20

>  <SCORE>  (15) 
-12.262

>  <name>  (15) 
14

>  <ligand_id>  (15) 
14

>  <original_smiles>  (15) 
[H]C(=C(C([H])([H])[H])C1([H])C([H])([H])C([H])([H])C([H])([H])C1([H])C([H])([H])Oc1c([H])c([H])c2c(c1[H])C([H])([H])N(C(=O)C([H])(N([H])C(=O)C([H])(N([H])C([H])([H])[H])C([H])([H])[H])C(C([H])([H])[H])(C([H])([H])[H])C([H])([H])[H])C([H])(C(=O)N([H])C1([H])c3c([H])c([H])c([H])c([H])c3C([H])([H])C([H])([H])C1([H])[H])C2([H])[H])C1([H])C([H])(C([H])([H])C(=O)N2C([H])([H])C([H])([H])C([H])([H])C([H])(n3nc(-c4c([H])c([H])c(Oc5c([H])c([H])c(F)c([H])c5F)c([H])c4[H])c(C(=O)N([H])[H])c3N([H])[H])C2([H])[H])C([H])([H])C([H])([H])C([H])([H])[N+]1([H])[H]

>  <smiles>  (15) 
[H]C(=C(C([H])([H])[H])C1([H])C([H])([H])C([H])([H])C([H])([H])C1([H])C([H])([H])Oc1c([H])c([H])c2c(c1[H])C([H])([H])N(C(=O)C([H])(N([H])C(=O)C([H])(N([H])C([H])([H])[H])C([H])([H])[H])C(C([H])([H])[H])(C([H])([H])[H])C([H])([H])[H])C([H])(C(=O)N([H])C1([H])c3c([H])c([H])c([H])c([H])c3C([H])([H])C([H])([H])C1([H])[H])C2([H])[H])C1([H])C([H])(C([H])([H])C(=O)N2C([H])([H])C([H])([H])C([H])([H])C([H])(n3nc(-c4c([H])c([H])c(Oc5c([H])c([H])c(F)c([H])c5F)c([H])c4[H])c(C(=O)N([H])[H])c3N([H])[H])C2([H])[H])C([H])([H])C([H])([H])C([H])([H])[N+]1([H])[H]

$$$$
15:0:0
     RDKit          3D

 98107  0  0  1  0  0  0  0  0999 V2000
  -31.0240  -18.9430   23.7350 C   0  0  0  0  0  2  0  0  0  0  0  0
  -31.0590  -17.9240   22.5840 C   0  0  0  0  0  2  0  0  0  0  0  0
  -31.7570  -20.2520   23.4020 C   0  0  0  0  0  2  0  0  0  0  0  0
  -30.7320  -20.4400   21.0470 C   0  0  0  0  0  2  0  0  0  0  0  0
  -29.8550  -18.0200   21.6270 C   0  0  0  0  0  3  0  0  0  0  0  0
  -29.5480  -19.4340   21.0520 C   0  0  0  0  0  3  0  0  0  0  0  0
  -29.9350  -17.0380   20.4370 C   0  0  0  0  0  3  0  0  0  0  0  0
  -29.0160  -19.2230   19.6120 C   0  0  0  0  0  3  0  0  0  0  0  0
  -28.9120  -17.6700   19.4530 C   0  0  0  0  0  3  0  0  0  0  0  0
  -31.0720  -21.1790   22.3720 C   0  0  1  0  0  0  0  0  0  0  0  0
  -29.1110  -17.1870   18.0070 C   0  0  0  0  0  1  0  0  0  0  0  0
  -29.8370  -21.8680   22.9910 C   0  0  0  0  0  1  0  0  0  0  0  0
  -32.0820  -22.2970   22.0320 C   0  0  0  0  0  1  0  0  0  0  0  0
  -29.6650  -15.5340   20.8510 C   0  0  0  0  0  2  0  0  0  0  0  0
  -30.3570  -14.3760   20.0590 C   0  0  0  0  0  0  0  0  0  0  0  0
  -30.0730  -12.1910   18.9080 C   0  0  0  0  0  2  0  0  0  0  0  0
  -29.0300  -12.3630   17.7850 C   0  0  0  0  0  2  0  0  0  0  0  0
  -27.5980  -12.1780   18.3280 C   0  0  0  0  0  2  0  0  0  0  0  0
  -27.3410  -13.0050   19.6160 C   0  0  0  0  0  3  0  0  0  0  0  0
  -28.4850  -12.7960   20.6330 C   0  0  0  0  0  2  0  0  0  0  0  0
  -29.7460  -13.1580   19.9700 N   0  0  0  0  0  0  0  0  0  0  0  0
  -31.4220  -14.6010   19.4760 O   0  0  0  0  0  0  0  0  0  0  0  0
  -25.0010  -13.5700   20.5260 C   0  0  0  0  0  0  0  0  0  0  0  0
  -23.9760  -12.7770   20.9660 C   0  0  0  0  0  0  0  0  0  0  0  0
  -24.4500  -11.4320   20.8770 C   0  0  0  0  0  0  0  0  0  0  0  0
  -26.0360  -12.7060   20.1990 N   0  0  0  0  0  0  0  0  0  0  0  0
  -25.7110  -11.4150   20.4650 N   0  0  0  0  0  0  0  0  0  0  0  0
  -23.7570  -10.1580   21.1040 C   0  0  0  0  0  0  0  0  0  0  0  0
  -24.2510   -9.2020   22.0200 C   0  0  0  0  0  3  0  0  0  0  0  0
  -23.5570   -7.9930   22.2350 C   0  0  0  0  0  3  0  0  0  0  0  0
  -22.3560   -7.7290   21.5350 C   0  0  0  0  0  0  0  0  0  0  0  0
  -21.8810   -8.6740   20.6080 C   0  0  0  0  0  3  0  0  0  0  0  0
  -22.5750   -9.8750   20.3910 C   0  0  0  0  0  3  0  0  0  0  0  0
  -21.6270   -6.5710   21.6600 O   0  0  0  0  0  0  0  0  0  0  0  0
  -21.6340   -5.8390   22.8200 C   0  0  0  0  0  0  0  0  0  0  0  0
  -21.1720   -6.3770   24.0410 C   0  0  0  0  0  3  0  0  0  0  0  0
  -21.1300   -5.5680   25.1950 C   0  0  0  0  0  3  0  0  0  0  0  0
  -21.5400   -4.2220   25.1280 C   0  0  0  0  0  0  0  0  0  0  0  0
  -21.9930   -3.6840   23.9110 C   0  0  0  0  0  3  0  0  0  0  0  0
  -22.0370   -4.4900   22.7590 C   0  0  0  0  0  0  0  0  0  0  0  0
  -22.4560   -3.9600   21.5850 F   0  0  0  0  0  0  0  0  0  0  0  0
  -21.4900   -3.4430   26.2330 F   0  0  0  0  0  0  0  0  0  0  0  0
  -22.6000  -13.2310   21.3610 C   0  0  0  0  0  0  0  0  0  0  0  0
  -21.9530  -12.5100   22.2690 N   0  0  0  0  0  0  0  0  0  0  0  0
  -22.1090  -14.2600   20.8980 O   0  0  0  0  0  0  0  0  0  0  0  0
  -22.3650  -11.6760   22.6630 H   0  0  0  0  0  0  0  0  0  0  0  0
  -21.0340  -12.7950   22.5770 H   0  0  0  0  0  0  0  0  0  0  0  0
  -25.1340  -14.9450   20.3590 N   0  0  0  0  0  0  0  0  0  0  0  0
  -24.3680  -15.5850   20.5400 H   0  0  0  0  0  0  0  0  0  0  0  0
  -25.9520  -15.4030   19.9790 H   0  0  0  0  0  0  0  0  0  0  0  0
  -27.6860  -20.0000   19.2770 C   0  0  0  0  0  2  0  0  0  0  0  0
  -27.5520  -21.4340   19.7170 N   0  0  0  0  0  4  0  0  0  0  0  0
  -27.7150  -21.5020   20.7080 H   0  0  0  0  0  0  0  0  0  0  0  0
  -26.5780  -21.6540   19.5760 H   0  0  0  0  0  0  0  0  0  0  0  0
  -28.3290  -22.4900   18.9960 C   0  0  0  0  0  2  0  0  0  0  0  0
  -27.6470  -23.9060   18.8950 C   0  0  0  0  0  2  0  0  0  0  0  0
  -27.6660  -24.8450   20.1420 C   0  0  0  0  0  2  0  0  0  0  0  0
  -27.7960  -26.2660   19.8630 O   0  0  0  0  0  0  0  0  0  0  0  0
  -24.4650  -31.6210   23.2580 C   0  0  0  0  0  0  0  0  0  0  0  0
  -26.6760  -27.0780   19.9520 C   0  0  0  0  0  0  0  0  0  0  0  0
  -23.1070  -30.3610   21.6200 C   0  0  0  0  0  3  0  0  0  0  0  0
  -24.4000  -28.7690   20.0960 C   0  0  0  0  0  0  0  0  0  0  0  0
  -25.6450  -30.5430   21.3370 C   0  0  0  0  0  2  0  0  0  0  0  0
  -25.6140  -29.1890   20.6540 C   0  0  0  0  0  0  0  0  0  0  0  0
  -26.7570  -28.3530   20.5700 C   0  0  0  0  0  3  0  0  0  0  0  0
  -25.4420  -26.6800   19.3970 C   0  0  0  0  0  3  0  0  0  0  0  0
  -24.3110  -27.5170   19.4630 C   0  0  0  0  0  3  0  0  0  0  0  0
  -23.2220  -29.7130   20.2140 C   0  0  0  0  0  2  0  0  0  0  0  0
  -24.4270  -30.8540   22.1300 N   0  0  0  0  0  0  0  0  0  0  0  0
  -23.4240  -31.9480   23.8470 O   0  0  0  0  0  0  0  0  0  0  0  0
  -22.4180  -29.3570   22.5730 C   0  0  0  0  0  0  0  0  0  0  0  0
  -21.0860  -29.2320   22.4530 N   0  0  0  0  0  0  0  0  0  0  0  0
  -23.0800  -28.6930   23.3750 O   0  0  0  0  0  0  0  0  0  0  0  0
  -20.6170  -29.8140   21.7740 H   0  0  0  0  0  0  0  0  0  0  0  0
  -17.6730  -28.1410   22.9320 C   0  0  0  0  0  0  0  0  0  0  0  0
  -20.2370  -28.3190   23.2170 C   0  0  0  0  0  3  0  0  0  0  0  0
  -20.2990  -26.8870   22.6370 C   0  0  0  0  0  2  0  0  0  0  0  0
  -19.1920  -26.6010   21.6160 C   0  0  0  0  0  2  0  0  0  0  0  0
  -17.8120  -26.7880   22.2530 C   0  0  0  0  0  2  0  0  0  0  0  0
  -18.8130  -28.8660   23.3700 C   0  0  0  0  0  0  0  0  0  0  0  0
  -18.6330  -30.1340   23.9650 C   0  0  0  0  0  3  0  0  0  0  0  0
  -17.3450  -30.6770   24.1230 C   0  0  0  0  0  3  0  0  0  0  0  0
  -16.2180  -29.9480   23.7020 C   0  0  0  0  0  3  0  0  0  0  0  0
  -16.3830  -28.6820   23.1130 C   0  0  0  0  0  3  0  0  0  0  0  0
  -25.8120  -32.1400   23.8500 C   0  0  0  0  0  3  0  0  0  0  0  0
  -25.6320  -33.5630   24.1730 N   0  0  0  0  0  0  0  0  0  0  0  0
  -26.0480  -34.5750   23.4010 C   0  0  0  0  0  0  0  0  0  0  0  0
  -26.6920  -34.4050   22.3630 O   0  0  0  0  0  0  0  0  0  0  0  0
  -25.0630  -33.7760   24.9790 H   0  0  0  0  0  0  0  0  0  0  0  0
  -24.4870  -36.5170   23.0480 C   0  0  0  0  0  1  0  0  0  0  0  0
  -25.6920  -36.0040   23.8530 C   0  0  0  0  0  3  0  0  0  0  0  0
  -27.8960  -36.7090   24.6750 C   0  0  0  0  0  1  0  0  0  0  0  0
  -26.8140  -36.9590   23.7250 N   0  0  0  0  0  0  0  0  0  0  0  0
  -26.4920  -37.9130   23.8570 H   0  0  0  0  0  0  0  0  0  0  0  0
  -26.2860  -31.3350   25.1210 C   0  0  1  0  0  0  0  0  0  0  0  0
  -25.1950  -31.1920   26.2090 C   0  0  0  0  0  1  0  0  0  0  0  0
  -26.7440  -29.9110   24.7240 C   0  0  0  0  0  1  0  0  0  0  0  0
  -27.5120  -32.0330   25.7560 C   0  0  0  0  0  1  0  0  0  0  0  0
  2  1  1  0
  3  1  1  0
  4 10  1  0
  5  2  1  0
  6  4  1  0
  6  5  1  0
  7 14  1  0
  7  5  1  0
  8 51  1  0
  8  6  1  0
  9 11  1  0
  9  8  1  0
  9  7  1  0
 10 12  1  1
 10  3  1  0
 13 10  1  0
 15 14  1  0
 16 21  1  0
 17 18  1  0
 17 16  1  0
 19 18  1  0
 19 26  1  0
 19 20  1  0
 21 15  1  0
 21 20  1  0
 22 15  2  0
 23 24  2  0
 24 43  1  0
 25 24  1  0
 25 28  1  0
 26 27  1  0
 26 23  1  0
 27 25  2  0
 28 29  1  0
 29 30  2  0
 31 34  1  0
 31 30  1  0
 32 31  2  0
 33 32  1  0
 33 28  2  0
 34 35  1  0
 35 36  1  0
 36 37  2  0
 38 37  1  0
 38 42  1  0
 39 38  2  0
 40 35  2  0
 40 39  1  0
 41 40  1  0
 43 44  1  0
 44 47  1  0
 44 46  1  0
 45 43  2  0
 48 23  1  0
 48 49  1  0
 50 48  1  0
 51 52  1  0
 52 53  1  0
 54 52  1  0
 55 52  1  0
 56 55  1  0
 56 57  1  0
 58 60  1  0
 58 57  1  0
 59 70  2  0
 60 65  1  0
 61 69  1  0
 61 71  1  0
 62 68  1  0
 62 64  1  0
 63 69  1  0
 64 63  1  0
 65 64  2  0
 66 67  1  0
 66 60  2  0
 67 62  2  0
 68 61  1  0
 69 59  1  0
 71 73  2  0
 72 71  1  0
 74 72  1  0
 75 84  2  0
 75 80  1  0
 76 72  1  0
 76 80  1  0
 77 76  1  0
 78 79  1  0
 78 77  1  0
 79 75  1  0
 80 81  2  0
 81 82  1  0
 83 82  2  0
 84 83  1  0
 85 59  1  0
 85 86  1  0
 85 95  1  0
 86 89  1  0
 87 91  1  0
 87 86  1  0
 88 87  2  0
 91 90  1  0
 93 91  1  0
 93 94  1  0
 93 92  1  0
 95 98  1  1
 95 96  1  0
 97 95  1  0
M  ISO  4  14 100  15 100  57 101  58 101
M  END
>  <TORSDO>  (16) 
F 22

>  <SCORE>  (16) 
-11.375

>  <name>  (16) 
15

>  <ligand_id>  (16) 
15

>  <original_smiles>  (16) 
[H]c1c([H])c([H])c2c(c1[H])C([H])([H])C([H])([H])C([H])([H])C2([H])N([H])C(=O)C1([H])N(C(=O)C([H])(N([H])C(=O)C([H])(N([H])C([H])([H])[H])C([H])([H])[H])C(C([H])([H])[H])(C([H])([H])[H])C([H])([H])[H])C([H])([H])c2c([H])c(OC([H])([H])C([H])([H])C([H])([H])[N+]([H])([H])C([H])([H])C3([H])C([H])(C([H])([H])[H])C([H])(C([H])([H])C(=O)N4C([H])([H])C([H])([H])C([H])([H])C([H])(n5nc(-c6c([H])c([H])c(Oc7c([H])c([H])c(F)c([H])c7F)c([H])c6[H])c(C(=O)N([H])[H])c5N([H])[H])C4([H])[H])C4([H])C([H])([H])C([H])([H])C([H])([H])C(C([H])([H])[H])(C([H])([H])[H])C([H])([H])C43[H])c([H])c([H])c2C1([H])[H]

>  <smiles>  (16) 
[H]c1c([H])c([H])c2c(c1[H])C([H])([H])C([H])([H])C([H])([H])C2([H])N([H])C(=O)C1([H])N(C(=O)C([H])(N([H])C(=O)C([H])(N([H])C([H])([H])[H])C([H])([H])[H])C(C([H])([H])[H])(C([H])([H])[H])C([H])([H])[H])C([H])([H])c2c([H])c(OC([H])([H])C([H])([H])C([H])([H])[N+]([H])([H])C([H])([H])C3([H])C([H])(C([H])([H])[H])C([H])(C([H])([H])C(=O)N4C([H])([H])C([H])([H])C([H])([H])C([H])(n5nc(-c6c([H])c([H])c(Oc7c([H])c([H])c(F)c([H])c7F)c([H])c6[H])c(C(=O)N([H])[H])c5N([H])[H])C4([H])[H])C4([H])C([H])([H])C([H])([H])C([H])([H])C(C([H])([H])[H])(C([H])([H])[H])C([H])([H])C43[H])c([H])c([H])c2C1([H])[H]

$$$$
16:0:0
     RDKit          3D

 94103  0  0  1  0  0  0  0  0999 V2000
  -29.3380  -22.4640   20.4700 C   0  0  0  0  0  0  0  0  0  0  0  0
  -30.0870  -23.8240   20.3590 C   0  0  0  0  0  2  0  0  0  0  0  0
  -27.7700  -24.1070   22.6720 C   0  0  0  0  0  2  0  0  0  0  0  0
  -29.2930  -24.3600   22.7550 C   0  0  0  0  0  2  0  0  0  0  0  0
  -27.2630  -23.5830   20.1460 C   0  0  0  0  0  2  0  0  0  0  0  0
  -27.3270  -24.6550   21.2910 C   0  0  0  0  0  3  0  0  0  0  0  0
  -28.3860  -25.7520   21.0500 C   0  0  0  0  0  3  0  0  0  0  0  0
  -29.6950  -24.9680   21.3830 C   0  0  2  0  0  0  0  0  0  0  0  0
  -30.8840  -25.9340   21.5580 C   0  0  0  0  0  1  0  0  0  0  0  0
  -28.0690  -22.3760   20.3610 N   0  0  0  0  0  0  0  0  0  0  0  0
  -28.2870  -26.5950   19.8670 O   0  0  0  0  0  0  0  0  0  0  0  0
  -24.6030  -31.8390   23.0870 C   0  0  0  0  0  0  0  0  0  0  0  0
  -27.1740  -27.4270   19.8640 C   0  0  0  0  0  0  0  0  0  0  0  0
  -23.3610  -30.4700   21.4440 C   0  0  0  0  0  3  0  0  0  0  0  0
  -24.7900  -28.9670   19.9450 C   0  0  0  0  0  0  0  0  0  0  0  0
  -25.8880  -30.8240   21.2020 C   0  0  0  0  0  2  0  0  0  0  0  0
  -25.9640  -29.4660   20.5270 C   0  0  0  0  0  0  0  0  0  0  0  0
  -27.1600  -28.7010   20.4890 C   0  0  0  0  0  3  0  0  0  0  0  0
  -25.9890  -26.9670   19.2510 C   0  0  0  0  0  3  0  0  0  0  0  0
  -24.7980  -27.7160   19.3040 C   0  0  0  0  0  3  0  0  0  0  0  0
  -23.5430  -29.8220   20.0440 C   0  0  0  0  0  2  0  0  0  0  0  0
  -24.6350  -31.0600   21.9670 N   0  0  0  0  0  0  0  0  0  0  0  0
  -23.5340  -32.1000   23.6590 O   0  0  0  0  0  0  0  0  0  0  0  0
  -22.7310  -29.4300   22.4000 C   0  0  0  0  0  0  0  0  0  0  0  0
  -21.4060  -29.2400   22.2910 N   0  0  0  0  0  0  0  0  0  0  0  0
  -23.4330  -28.7990   23.1950 O   0  0  0  0  0  0  0  0  0  0  0  0
  -20.9040  -29.8010   21.6170 H   0  0  0  0  0  0  0  0  0  0  0  0
  -18.0470  -28.0010   22.8150 C   0  0  0  0  0  0  0  0  0  0  0  0
  -20.6060  -28.2830   23.0560 C   0  0  0  0  0  3  0  0  0  0  0  0
  -20.7160  -26.8620   22.4560 C   0  0  0  0  0  2  0  0  0  0  0  0
  -19.6040  -26.5440   21.4520 C   0  0  0  0  0  2  0  0  0  0  0  0
  -18.2290  -26.6640   22.1140 C   0  0  0  0  0  2  0  0  0  0  0  0
  -19.1630  -28.7680   23.2400 C   0  0  0  0  0  0  0  0  0  0  0  0
  -18.9420  -30.0200   23.8540 C   0  0  0  0  0  3  0  0  0  0  0  0
  -17.6350  -30.5050   24.0460 C   0  0  0  0  0  3  0  0  0  0  0  0
  -16.5320  -29.7350   23.6380 C   0  0  0  0  0  3  0  0  0  0  0  0
  -16.7380  -28.4840   23.0290 C   0  0  0  0  0  3  0  0  0  0  0  0
  -25.9020  -32.4610   23.6880 C   0  0  0  0  0  3  0  0  0  0  0  0
  -25.6000  -33.8500   24.0600 N   0  0  0  0  0  0  0  0  0  0  0  0
  -25.9310  -34.9200   23.3270 C   0  0  0  0  0  0  0  0  0  0  0  0
  -26.5920  -34.8430   22.2870 O   0  0  0  0  0  0  0  0  0  0  0  0
  -25.0080  -33.9840   24.8660 H   0  0  0  0  0  0  0  0  0  0  0  0
  -24.2200  -36.7390   23.0180 C   0  0  0  0  0  1  0  0  0  0  0  0
  -25.4520  -36.2960   23.8250 C   0  0  0  0  0  3  0  0  0  0  0  0
  -27.5830  -37.1360   24.7040 C   0  0  0  0  0  1  0  0  0  0  0  0
  -26.4940  -37.3440   23.7550 N   0  0  0  0  0  0  0  0  0  0  0  0
  -26.0920  -38.2620   23.9280 H   0  0  0  0  0  0  0  0  0  0  0  0
  -26.4550  -31.6610   24.9300 C   0  0  1  0  0  0  0  0  0  0  0  0
  -25.3910  -31.3930   26.0210 C   0  0  0  0  0  1  0  0  0  0  0  0
  -27.0340  -30.2950   24.4910 C   0  0  0  0  0  1  0  0  0  0  0  0
  -27.6220  -32.4440   25.5770 C   0  0  0  0  0  1  0  0  0  0  0  0
  -30.1860  -21.2210   20.8810 C   0  0  0  0  0  3  0  0  0  0  0  0
  -29.8610  -19.8190   20.2310 C   0  0  0  0  0  3  0  0  0  0  0  0
  -31.8340  -18.8000   21.4010 C   0  0  0  0  0  1  0  0  0  0  0  0
  -30.4300  -18.6100   20.9520 N   0  0  2  0  0  4  0  0  0  0  0  0
  -29.8740  -18.5390   21.7930 H   0  0  0  0  0  0  0  0  0  0  0  0
  -30.2660  -17.2920   20.2270 C   0  0  0  0  0  2  0  0  0  0  0  0
  -30.1380  -15.9970   21.1350 C   0  0  0  0  0  2  0  0  0  0  0  0
  -30.8550  -14.7060   20.6090 C   0  0  0  0  0  0  0  0  0  0  0  0
  -30.6600  -12.4780   19.5350 C   0  0  0  0  0  2  0  0  0  0  0  0
  -29.7720  -12.6030   18.2780 C   0  0  0  0  0  2  0  0  0  0  0  0
  -28.2820  -12.4480   18.6420 C   0  0  0  0  0  2  0  0  0  0  0  0
  -27.8680  -13.3200   19.8580 C   0  0  0  0  0  3  0  0  0  0  0  0
  -28.8790  -13.1760   21.0190 C   0  0  0  0  0  2  0  0  0  0  0  0
  -30.2160  -13.5000   20.5010 N   0  0  0  0  0  0  0  0  0  0  0  0
  -32.0110  -14.8400   20.1990 O   0  0  0  0  0  0  0  0  0  0  0  0
  -25.4320  -13.8980   20.4490 C   0  0  0  0  0  0  0  0  0  0  0  0
  -24.3600  -13.1170   20.7880 C   0  0  0  0  0  0  0  0  0  0  0  0
  -24.8420  -11.7720   20.8100 C   0  0  0  0  0  0  0  0  0  0  0  0
  -26.5010  -13.0280   20.2860 N   0  0  0  0  0  0  0  0  0  0  0  0
  -26.1470  -11.7460   20.5610 N   0  0  0  0  0  0  0  0  0  0  0  0
  -24.1250  -10.5030   20.9950 C   0  0  0  0  0  0  0  0  0  0  0  0
  -24.5210   -9.5690   21.9790 C   0  0  0  0  0  3  0  0  0  0  0  0
  -23.8050   -8.3640   22.1500 C   0  0  0  0  0  3  0  0  0  0  0  0
  -22.6790   -8.0860   21.3370 C   0  0  0  0  0  0  0  0  0  0  0  0
  -22.3040   -9.0080   20.3450 C   0  0  0  0  0  3  0  0  0  0  0  0
  -23.0210  -10.2050   20.1720 C   0  0  0  0  0  3  0  0  0  0  0  0
  -21.9380   -6.9310   21.4160 O   0  0  0  0  0  0  0  0  0  0  0  0
  -21.8230   -6.2260   22.5880 C   0  0  0  0  0  0  0  0  0  0  0  0
  -21.2880   -6.8090   23.7570 C   0  0  0  0  0  3  0  0  0  0  0  0
  -21.1250   -6.0310   24.9190 C   0  0  0  0  0  3  0  0  0  0  0  0
  -21.4840   -4.6690   24.9120 C   0  0  0  0  0  0  0  0  0  0  0  0
  -22.0120   -4.0860   23.7480 C   0  0  0  0  0  3  0  0  0  0  0  0
  -22.1780   -4.8620   22.5870 C   0  0  0  0  0  0  0  0  0  0  0  0
  -22.6670   -4.2910   21.4600 F   0  0  0  0  0  0  0  0  0  0  0  0
  -21.3200   -3.9180   26.0260 F   0  0  0  0  0  0  0  0  0  0  0  0
  -22.9450  -13.5760   20.9840 C   0  0  0  0  0  0  0  0  0  0  0  0
  -22.1860  -12.8870   21.8290 N   0  0  0  0  0  0  0  0  0  0  0  0
  -22.5160  -14.5830   20.4210 O   0  0  0  0  0  0  0  0  0  0  0  0
  -22.5430  -12.0730   22.3070 H   0  0  0  0  0  0  0  0  0  0  0  0
  -21.2340  -13.1790   22.0020 H   0  0  0  0  0  0  0  0  0  0  0  0
  -25.5860  -15.2660   20.2470 N   0  0  0  0  0  0  0  0  0  0  0  0
  -24.8040  -15.9110   20.2980 H   0  0  0  0  0  0  0  0  0  0  0  0
  -26.4420  -15.7070   19.9360 H   0  0  0  0  0  0  0  0  0  0  0  0
  1 52  1  0
  2  1  1  0
  2  8  1  0
  3  4  1  0
  5 10  1  0
  6  5  1  0
  6  3  1  0
  7 11  1  0
  7  6  1  0
  7  8  1  0
  8  9  1  1
  8  4  1  0
 10  1  2  0
 12 23  2  0
 13 11  1  0
 13 18  1  0
 14 22  1  0
 14 24  1  0
 15 21  1  0
 15 17  1  0
 16 22  1  0
 17 16  1  0
 18 17  2  0
 19 20  1  0
 19 13  2  0
 20 15  2  0
 21 14  1  0
 22 12  1  0
 24 26  2  0
 25 24  1  0
 27 25  1  0
 28 37  2  0
 28 33  1  0
 29 25  1  0
 29 33  1  0
 30 29  1  0
 31 32  1  0
 31 30  1  0
 32 28  1  0
 33 34  2  0
 34 35  1  0
 36 35  2  0
 37 36  1  0
 38 12  1  0
 38 39  1  0
 38 48  1  0
 39 42  1  0
 40 44  1  0
 40 39  1  0
 41 40  2  0
 44 43  1  0
 46 44  1  0
 46 47  1  0
 46 45  1  0
 48 51  1  1
 48 49  1  0
 50 48  1  0
 53 52  2  0
 53 55  1  0
 55 54  1  0
 55 56  1  1
 57 55  1  0
 57 58  1  0
 59 58  1  0
 60 65  1  0
 61 62  1  0
 61 60  1  0
 63 62  1  0
 63 70  1  0
 63 64  1  0
 65 59  1  0
 65 64  1  0
 66 59  2  0
 67 68  2  0
 68 69  1  0
 68 87  1  0
 69 72  1  0
 70 67  1  0
 70 71  1  0
 71 69  2  0
 72 73  1  0
 73 74  2  0
 75 78  1  0
 75 74  1  0
 76 75  2  0
 77 76  1  0
 77 72  2  0
 78 79  1  0
 79 80  1  0
 80 81  2  0
 82 81  1  0
 82 86  1  0
 83 82  2  0
 84 79  2  0
 84 83  1  0
 85 84  1  0
 87 88  1  0
 88 91  1  0
 88 90  1  0
 89 87  2  0
 92 93  1  0
 92 67  1  0
 94 92  1  0
M  ISO  4   7 101  11 101  58 100  59 100
M  END
>  <TORSDO>  (17) 
F 21

>  <SCORE>  (17) 
-13.016

>  <name>  (17) 
16

>  <ligand_id>  (17) 
16

>  <original_smiles>  (17) 
[H]c1c([H])c([H])c2c(c1[H])C([H])([H])C([H])([H])C([H])([H])C2([H])N([H])C(=O)C1([H])N(C(=O)C([H])(N([H])C(=O)C([H])(N([H])C([H])([H])[H])C([H])([H])[H])C(C([H])([H])[H])(C([H])([H])[H])C([H])([H])[H])C([H])([H])c2c([H])c(OC3([H])C4([H])C([H])([H])N=C(C([H])([H])C([H])([H])[N+]([H])(C([H])([H])[H])C([H])([H])C([H])([H])C(=O)N5C([H])([H])C([H])([H])C([H])([H])C([H])(n6nc(-c7c([H])c([H])c(Oc8c([H])c([H])c(F)c([H])c8F)c([H])c7[H])c(C(=O)N([H])[H])c6N([H])[H])C5([H])[H])C([H])([H])C3(C([H])([H])[H])C([H])([H])C4([H])[H])c([H])c([H])c2C1([H])[H]

>  <smiles>  (17) 
[H]c1c([H])c([H])c2c(c1[H])C([H])([H])C([H])([H])C([H])([H])C2([H])N([H])C(=O)C1([H])N(C(=O)C([H])(N([H])C(=O)C([H])(N([H])C([H])([H])[H])C([H])([H])[H])C(C([H])([H])[H])(C([H])([H])[H])C([H])([H])[H])C([H])([H])c2c([H])c(OC3([H])C4([H])C([H])([H])N=C(C([H])([H])C([H])([H])[N+]([H])(C([H])([H])[H])C([H])([H])C([H])([H])C(=O)N5C([H])([H])C([H])([H])C([H])([H])C([H])(n6nc(-c7c([H])c([H])c(Oc8c([H])c([H])c(F)c([H])c8F)c([H])c7[H])c(C(=O)N([H])[H])c6N([H])[H])C5([H])[H])C([H])([H])C3(C([H])([H])[H])C([H])([H])C4([H])[H])c([H])c([H])c2C1([H])[H]

$$$$
17:0:0
     RDKit          3D

 90100  0  0  1  0  0  0  0  0999 V2000
  -30.4730  -23.1820   21.0840 C   0  0  0  0  0  2  0  0  0  0  0  0
  -29.4430  -22.3460   21.2900 C   0  0  0  0  0  3  0  0  0  0  0  0
  -30.6630  -23.2060   19.5630 C   0  0  0  0  0  2  0  0  0  0  0  0
  -29.4460  -19.3710   21.4530 C   0  0  0  0  0  2  0  0  0  0  0  0
  -29.9510  -20.8370   20.9860 C   0  0  0  0  0  3  0  0  0  0  0  0
  -28.4960  -22.8790   20.1710 C   0  0  0  0  0  3  0  0  0  0  0  0
  -29.4960  -22.2700   19.1040 C   0  0  0  0  0  3  0  0  0  0  0  0
  -30.0080  -20.7570   19.4870 C   0  0  0  0  0  3  0  0  0  0  0  0
  -29.9530  -18.2610   20.3750 C   0  0  0  0  0  3  0  0  0  0  0  0
  -29.5040  -19.2420   19.1580 C   0  0  0  0  0  3  0  0  0  0  0  0
  -30.0150  -18.7440   17.8020 C   0  0  0  0  0  1  0  0  0  0  0  0
  -29.5850  -16.5640   20.5190 C   0  0  0  0  0  2  0  0  0  0  0  0
  -30.4750  -15.1420   20.2310 C   0  0  0  0  0  0  0  0  0  0  0  0
  -30.4380  -12.7530   19.3020 C   0  0  0  0  0  2  0  0  0  0  0  0
  -29.4840  -12.6730   18.0830 C   0  0  0  0  0  2  0  0  0  0  0  0
  -28.0320  -12.4230   18.5350 C   0  0  0  0  0  2  0  0  0  0  0  0
  -27.6230  -13.3390   19.7160 C   0  0  0  0  0  3  0  0  0  0  0  0
  -28.6950  -13.3800   20.8240 C   0  0  0  0  0  2  0  0  0  0  0  0
  -29.9490  -13.8380   20.2100 N   0  0  0  0  0  0  0  0  0  0  0  0
  -31.6660  -15.2240   19.9040 O   0  0  0  0  0  0  0  0  0  0  0  0
  -25.2580  -13.8840   20.5200 C   0  0  0  0  0  0  0  0  0  0  0  0
  -24.2060  -13.0970   20.8970 C   0  0  0  0  0  0  0  0  0  0  0  0
  -24.6770  -11.7480   20.8330 C   0  0  0  0  0  0  0  0  0  0  0  0
  -26.3000  -13.0170   20.2390 N   0  0  0  0  0  0  0  0  0  0  0  0
  -25.9630  -11.7260   20.4950 N   0  0  0  0  0  0  0  0  0  0  0  0
  -23.9600  -10.4790   21.0160 C   0  0  0  0  0  0  0  0  0  0  0  0
  -24.3890   -9.5160   21.9570 C   0  0  0  0  0  3  0  0  0  0  0  0
  -23.6690   -8.3140   22.1270 C   0  0  0  0  0  3  0  0  0  0  0  0
  -22.5060   -8.0650   21.3580 C   0  0  0  0  0  0  0  0  0  0  0  0
  -22.0980   -9.0180   20.4080 C   0  0  0  0  0  3  0  0  0  0  0  0
  -22.8180  -10.2110   20.2360 C   0  0  0  0  0  3  0  0  0  0  0  0
  -21.7600   -6.9140   21.4390 O   0  0  0  0  0  0  0  0  0  0  0  0
  -21.6690   -6.1950   22.6030 C   0  0  0  0  0  0  0  0  0  0  0  0
  -21.1690   -6.7650   23.7940 C   0  0  0  0  0  3  0  0  0  0  0  0
  -21.0260   -5.9710   24.9490 C   0  0  0  0  0  3  0  0  0  0  0  0
  -21.3740   -4.6070   24.9140 C   0  0  0  0  0  0  0  0  0  0  0  0
  -21.8670   -4.0370   23.7280 C   0  0  0  0  0  3  0  0  0  0  0  0
  -22.0120   -4.8280   22.5750 C   0  0  0  0  0  0  0  0  0  0  0  0
  -22.4670   -4.2680   21.4290 F   0  0  0  0  0  0  0  0  0  0  0  0
  -21.2310   -3.8420   26.0220 F   0  0  0  0  0  0  0  0  0  0  0  0
  -22.8110  -13.5610   21.2020 C   0  0  0  0  0  0  0  0  0  0  0  0
  -22.1040  -12.8490   22.0710 N   0  0  0  0  0  0  0  0  0  0  0  0
  -22.3590  -14.5910   20.7030 O   0  0  0  0  0  0  0  0  0  0  0  0
  -22.4860  -12.0180   22.4980 H   0  0  0  0  0  0  0  0  0  0  0  0
  -21.1690  -13.1410   22.3160 H   0  0  0  0  0  0  0  0  0  0  0  0
  -25.4100  -15.2590   20.3670 N   0  0  0  0  0  0  0  0  0  0  0  0
  -24.6460  -15.9080   20.5160 H   0  0  0  0  0  0  0  0  0  0  0  0
  -26.2560  -15.7110   20.0430 H   0  0  0  0  0  0  0  0  0  0  0  0
  -27.8330  -24.5080   20.0770 C   0  0  0  0  0  2  0  0  0  0  0  0
  -28.2050  -26.0500   20.2530 O   0  0  0  0  0  0  0  0  0  0  0  0
  -24.6370  -31.8850   23.2510 C   0  0  0  0  0  0  0  0  0  0  0  0
  -27.1850  -27.1040   20.1980 C   0  0  0  0  0  0  0  0  0  0  0  0
  -23.4340  -30.4990   21.6130 C   0  0  0  0  0  3  0  0  0  0  0  0
  -24.8740  -28.9190   20.1780 C   0  0  0  0  0  0  0  0  0  0  0  0
  -25.9950  -30.7360   21.4480 C   0  0  0  0  0  2  0  0  0  0  0  0
  -26.0630  -29.3390   20.7880 C   0  0  0  0  0  0  0  0  0  0  0  0
  -27.2170  -28.4510   20.7780 C   0  0  0  0  0  3  0  0  0  0  0  0
  -25.9640  -26.8150   19.5460 C   0  0  0  0  0  3  0  0  0  0  0  0
  -24.8430  -27.6730   19.5400 C   0  0  0  0  0  3  0  0  0  0  0  0
  -23.6530  -29.8280   20.2310 C   0  0  0  0  0  2  0  0  0  0  0  0
  -24.7100  -31.0620   22.1580 N   0  0  0  0  0  0  0  0  0  0  0  0
  -23.5520  -32.1730   23.7790 O   0  0  0  0  0  0  0  0  0  0  0  0
  -22.7480  -29.4930   22.5720 C   0  0  0  0  0  0  0  0  0  0  0  0
  -21.4190  -29.3230   22.4440 N   0  0  0  0  0  0  0  0  0  0  0  0
  -23.4150  -28.8670   23.3990 O   0  0  0  0  0  0  0  0  0  0  0  0
  -20.9350  -29.8800   21.7530 H   0  0  0  0  0  0  0  0  0  0  0  0
  -18.0360  -28.1170   22.9450 C   0  0  0  0  0  0  0  0  0  0  0  0
  -20.5960  -28.3850   23.2130 C   0  0  0  0  0  3  0  0  0  0  0  0
  -20.7000  -26.9540   22.6390 C   0  0  0  0  0  2  0  0  0  0  0  0
  -19.5980  -26.6290   21.6230 C   0  0  0  0  0  2  0  0  0  0  0  0
  -18.2160  -26.7700   22.2660 C   0  0  0  0  0  2  0  0  0  0  0  0
  -19.1530  -28.8830   23.3760 C   0  0  0  0  0  0  0  0  0  0  0  0
  -18.9300  -30.1420   23.9730 C   0  0  0  0  0  3  0  0  0  0  0  0
  -17.6240  -30.6380   24.1430 C   0  0  0  0  0  3  0  0  0  0  0  0
  -16.5210  -29.8710   23.7270 C   0  0  0  0  0  3  0  0  0  0  0  0
  -16.7290  -28.6130   23.1350 C   0  0  0  0  0  3  0  0  0  0  0  0
  -25.9150  -32.5190   23.8800 C   0  0  0  0  0  3  0  0  0  0  0  0
  -25.6030  -33.9180   24.2200 N   0  0  0  0  0  0  0  0  0  0  0  0
  -25.9060  -34.9770   23.4580 C   0  0  0  0  0  0  0  0  0  0  0  0
  -26.5430  -34.8810   22.4050 O   0  0  0  0  0  0  0  0  0  0  0  0
  -25.0340  -34.0650   25.0400 H   0  0  0  0  0  0  0  0  0  0  0  0
  -24.1440  -36.7570   23.1910 C   0  0  0  0  0  1  0  0  0  0  0  0
  -25.4290  -36.3630   23.9380 C   0  0  0  0  0  3  0  0  0  0  0  0
  -27.5920  -37.2770   24.6610 C   0  0  0  0  0  1  0  0  0  0  0  0
  -26.4440  -37.4260   23.7700 N   0  0  0  0  0  0  0  0  0  0  0  0
  -26.0350  -38.3440   23.9310 H   0  0  0  0  0  0  0  0  0  0  0  0
  -26.4230  -31.7460   25.1590 C   0  0  1  0  0  0  0  0  0  0  0  0
  -25.3260  -31.5120   26.2240 C   0  0  0  0  0  1  0  0  0  0  0  0
  -27.0050  -30.3660   24.7750 C   0  0  0  0  0  1  0  0  0  0  0  0
  -27.5730  -32.5370   25.8270 C   0  0  0  0  0  1  0  0  0  0  0  0
  2  1  1  0
  3  1  1  0
  5  2  1  0
  5  4  1  0
  6 49  1  0
  6  2  1  0
  7  8  1  0
  7  3  1  0
  7  6  1  0
  8  5  1  0
  9 12  1  0
  9  4  1  0
 10  8  1  0
 10  9  1  0
 11 10  1  0
 13 12  1  0
 14 19  1  0
 15 16  1  0
 15 14  1  0
 16 17  1  0
 17 24  1  0
 17 18  1  0
 19 13  1  0
 19 18  1  0
 20 13  2  0
 21 22  2  0
 22 41  1  0
 23 22  1  0
 23 26  1  0
 24 25  1  0
 24 21  1  0
 25 23  2  0
 26 27  1  0
 27 28  2  0
 29 32  1  0
 29 28  1  0
 30 29  2  0
 31 30  1  0
 31 26  2  0
 32 33  1  0
 33 34  1  0
 34 35  2  0
 36 35  1  0
 36 40  1  0
 37 36  2  0
 38 33  2  0
 38 37  1  0
 39 38  1  0
 41 42  1  0
 42 45  1  0
 42 44  1  0
 43 41  2  0
 46 47  1  0
 46 21  1  0
 48 46  1  0
 49 50  1  0
 51 62  2  0
 51 77  1  0
 52 50  1  0
 52 57  1  0
 53 61  1  0
 53 63  1  0
 54 60  1  0
 54 56  1  0
 55 61  1  0
 56 55  1  0
 57 56  2  0
 58 52  2  0
 59 58  1  0
 59 54  2  0
 60 53  1  0
 61 51  1  0
 63 65  2  0
 64 63  1  0
 64 68  1  0
 66 64  1  0
 67 76  2  0
 67 72  1  0
 68 72  1  0
 69 68  1  0
 70 71  1  0
 70 69  1  0
 71 67  1  0
 72 73  2  0
 73 74  1  0
 75 74  2  0
 76 75  1  0
 77 78  1  0
 77 87  1  0
 78 81  1  0
 79 83  1  0
 79 78  1  0
 80 79  2  0
 82 83  1  0
 85 86  1  0
 85 83  1  0
 85 84  1  0
 87 90  1  1
 87 88  1  0
 89 87  1  0
M  ISO  4  12 100  13 100  49 101  50 101
M  END
>  <TORSDO>  (18) 
F 18

>  <SCORE>  (18) 
-15.904

>  <name>  (18) 
17

>  <ligand_id>  (18) 
17

>  <original_smiles>  (18) 
[H]C1=C2C([H])(C([H])([H])Oc3c([H])c([H])c4c(c3[H])C([H])([H])N(C(=O)C([H])(N([H])C(=O)C([H])(N([H])C([H])([H])[H])C([H])([H])[H])C(C([H])([H])[H])(C([H])([H])[H])C([H])([H])[H])C([H])(C(=O)N([H])C3([H])c5c([H])c([H])c([H])c([H])c5C([H])([H])C([H])([H])C3([H])[H])C4([H])[H])C([H])(C1([H])[H])C1([H])C2([H])C([H])([H])C([H])(C([H])([H])C(=O)N2C([H])([H])C([H])([H])C([H])([H])C([H])(n3nc(-c4c([H])c([H])c(Oc5c([H])c([H])c(F)c([H])c5F)c([H])c4[H])c(C(=O)N([H])[H])c3N([H])[H])C2([H])[H])C1([H])C([H])([H])[H]

>  <smiles>  (18) 
[H]C1=C2C([H])(C([H])([H])Oc3c([H])c([H])c4c(c3[H])C([H])([H])N(C(=O)C([H])(N([H])C(=O)C([H])(N([H])C([H])([H])[H])C([H])([H])[H])C(C([H])([H])[H])(C([H])([H])[H])C([H])([H])[H])C([H])(C(=O)N([H])C3([H])c5c([H])c([H])c([H])c([H])c5C([H])([H])C([H])([H])C3([H])[H])C4([H])[H])C([H])(C1([H])[H])C1([H])C2([H])C([H])([H])C([H])(C([H])([H])C(=O)N2C([H])([H])C([H])([H])C([H])([H])C([H])(n3nc(-c4c([H])c([H])c(Oc5c([H])c([H])c(F)c([H])c5F)c([H])c4[H])c(C(=O)N([H])[H])c3N([H])[H])C2([H])[H])C1([H])C([H])([H])[H]

$$$$
18:0:0
     RDKit          3D

 94103  0  0  1  0  0  0  0  0999 V2000
  -29.9570  -20.4880   19.6300 N   0  0  0  0  0  4  0  0  0  0  0  0
  -29.7140  -20.0520   18.7510 H   0  0  0  0  0  0  0  0  0  0  0  0
  -29.1430  -20.4750   20.2190 H   0  0  0  0  0  0  0  0  0  0  0  0
  -31.5580  -20.2570   21.6150 C   0  0  0  0  0  1  0  0  0  0  0  0
  -31.0180  -19.6300   20.2580 C   0  0  0  0  0  3  0  0  0  0  0  0
  -28.3630  -16.9460   21.1200 C   0  0  0  0  0  3  0  0  0  0  0  0
  -29.0740  -17.7520   20.0060 C   0  0  0  0  0  2  0  0  0  0  0  0
  -30.6050  -15.6740   21.1380 C   0  0  0  0  0  2  0  0  0  0  0  0
  -29.3250  -16.0080   21.9130 C   0  0  0  0  0  3  0  0  0  0  0  0
  -30.4900  -18.1490   20.4850 C   0  0  0  0  0  3  0  0  0  0  0  0
  -31.4390  -16.8620   20.5820 C   0  0  0  0  0  3  0  0  0  0  0  0
  -29.6710  -16.4860   23.3400 C   0  0  0  0  0  1  0  0  0  0  0  0
  -32.1950  -16.2700   19.3280 C   0  0  0  0  0  2  0  0  0  0  0  0
  -32.7940  -14.7940   19.4210 C   0  0  0  0  0  0  0  0  0  0  0  0
  -32.3450  -12.5010   18.6090 C   0  0  0  0  0  2  0  0  0  0  0  0
  -31.3870  -12.6120   17.3920 C   0  0  0  0  0  2  0  0  0  0  0  0
  -29.8960  -12.6750   17.8250 C   0  0  0  0  0  2  0  0  0  0  0  0
  -29.6540  -13.6790   18.9850 C   0  0  0  0  0  3  0  0  0  0  0  0
  -30.7080  -13.4340   20.0700 C   0  0  0  0  0  2  0  0  0  0  0  0
  -32.0370  -13.6470   19.4870 N   0  0  0  0  0  0  0  0  0  0  0  0
  -33.9940  -14.7060   19.1450 O   0  0  0  0  0  0  0  0  0  0  0  0
  -27.4060  -14.6490   19.7800 C   0  0  0  0  0  0  0  0  0  0  0  0
  -26.2490  -14.0600   20.1930 C   0  0  0  0  0  0  0  0  0  0  0  0
  -26.4990  -12.6520   20.1830 C   0  0  0  0  0  0  0  0  0  0  0  0
  -28.2960  -13.6180   19.5270 N   0  0  0  0  0  0  0  0  0  0  0  0
  -27.7580  -12.4120   19.8340 N   0  0  0  0  0  0  0  0  0  0  0  0
  -25.6040  -11.5210   20.4300 C   0  0  0  0  0  0  0  0  0  0  0  0
  -25.8890  -10.5590   21.4220 C   0  0  0  0  0  3  0  0  0  0  0  0
  -25.0070   -9.4820   21.6510 C   0  0  0  0  0  3  0  0  0  0  0  0
  -23.8240   -9.3610   20.8820 C   0  0  0  0  0  0  0  0  0  0  0  0
  -23.5610  -10.3080   19.8750 C   0  0  0  0  0  3  0  0  0  0  0  0
  -24.4430  -11.3770   19.6460 C   0  0  0  0  0  3  0  0  0  0  0  0
  -22.9110   -8.3450   21.0150 O   0  0  0  0  0  0  0  0  0  0  0  0
  -22.6650   -7.7580   22.2270 C   0  0  0  0  0  0  0  0  0  0  0  0
  -22.2530   -8.5100   23.3490 C   0  0  0  0  0  3  0  0  0  0  0  0
  -21.9520   -7.8600   24.5610 C   0  0  0  0  0  3  0  0  0  0  0  0
  -22.0400   -6.4560   24.6510 C   0  0  0  0  0  0  0  0  0  0  0  0
  -22.4280   -5.7070   23.5280 C   0  0  0  0  0  3  0  0  0  0  0  0
  -22.7410   -6.3540   22.3200 C   0  0  0  0  0  0  0  0  0  0  0  0
  -23.1120   -5.6240   21.2410 F   0  0  0  0  0  0  0  0  0  0  0  0
  -21.7390   -5.8270   25.8120 F   0  0  0  0  0  0  0  0  0  0  0  0
  -24.9390  -14.7430   20.4750 C   0  0  0  0  0  0  0  0  0  0  0  0
  -24.1490  -14.2120   21.3950 N   0  0  0  0  0  0  0  0  0  0  0  0
  -24.6340  -15.7850   19.8960 O   0  0  0  0  0  0  0  0  0  0  0  0
  -24.4080  -13.3600   21.8700 H   0  0  0  0  0  0  0  0  0  0  0  0
  -23.2720  -14.6620   21.6260 H   0  0  0  0  0  0  0  0  0  0  0  0
  -27.7710  -15.9750   19.5740 N   0  0  0  0  0  4  0  0  0  0  0  0
  -27.1450  -16.7370   19.7950 H   0  0  0  0  0  0  0  0  0  0  0  0
  -28.6940  -16.2800   19.3040 H   0  0  0  0  0  0  0  0  0  0  0  0
  -30.2270  -21.9100   19.2880 C   0  0  0  0  0  2  0  0  0  0  0  0
  -29.2080  -22.9050   19.9130 C   0  0  0  0  0  2  0  0  0  0  0  0
  -29.3430  -24.3470   19.3670 C   0  0  0  0  0  2  0  0  0  0  0  0
  -28.3340  -25.3250   20.0270 C   0  0  0  0  0  2  0  0  0  0  0  0
  -28.4400  -26.6950   19.6060 O   0  0  0  0  0  0  0  0  0  0  0  0
  -24.4190  -31.5120   23.0430 C   0  0  0  0  0  0  0  0  0  0  0  0
  -27.2450  -27.3820   19.6800 C   0  0  0  0  0  0  0  0  0  0  0  0
  -23.2570  -30.1170   21.3730 C   0  0  0  0  0  3  0  0  0  0  0  0
  -24.7620  -28.7340   19.8480 C   0  0  0  0  0  0  0  0  0  0  0  0
  -25.7610  -30.6180   21.1450 C   0  0  0  0  0  2  0  0  0  0  0  0
  -25.9070  -29.2880   20.4360 C   0  0  0  0  0  0  0  0  0  0  0  0
  -27.1520  -28.6210   20.3500 C   0  0  0  0  0  3  0  0  0  0  0  0
  -26.0800  -26.8480   19.0800 C   0  0  0  0  0  3  0  0  0  0  0  0
  -24.8410  -27.5000   19.1790 C   0  0  0  0  0  3  0  0  0  0  0  0
  -23.4760  -29.5210   19.9600 C   0  0  0  0  0  2  0  0  0  0  0  0
  -24.5000  -30.7590   21.9140 N   0  0  0  0  0  0  0  0  0  0  0  0
  -23.3350  -31.7050   23.6070 O   0  0  0  0  0  0  0  0  0  0  0  0
  -22.6830  -29.0150   22.2910 C   0  0  0  0  0  0  0  0  0  0  0  0
  -21.3710  -28.7520   22.1520 N   0  0  0  0  0  0  0  0  0  0  0  0
  -23.4040  -28.4080   23.0870 O   0  0  0  0  0  0  0  0  0  0  0  0
  -20.8420  -29.3020   21.4870 H   0  0  0  0  0  0  0  0  0  0  0  0
  -18.0980  -27.2950   22.5750 C   0  0  0  0  0  0  0  0  0  0  0  0
  -20.6270  -27.7320   22.8840 C   0  0  0  0  0  3  0  0  0  0  0  0
  -20.8570  -26.3360   22.2610 C   0  0  0  0  0  2  0  0  0  0  0  0
  -19.7690  -25.8890   21.2780 C   0  0  0  0  0  2  0  0  0  0  0  0
  -18.3650  -25.9710   21.8790 C   0  0  0  0  0  2  0  0  0  0  0  0
  -19.1550  -28.1200   23.0430 C   0  0  0  0  0  0  0  0  0  0  0  0
  -18.8330  -29.3410   23.6800 C   0  0  0  0  0  3  0  0  0  0  0  0
  -17.4960  -29.7500   23.8270 C   0  0  0  0  0  3  0  0  0  0  0  0
  -16.4510  -28.9280   23.3660 C   0  0  0  0  0  3  0  0  0  0  0  0
  -16.7560  -27.6900   22.7660 C   0  0  0  0  0  3  0  0  0  0  0  0
  -25.6850  -32.1880   23.6580 C   0  0  0  0  0  3  0  0  0  0  0  0
  -25.3130  -33.5560   24.0350 N   0  0  0  0  0  0  0  0  0  0  0  0
  -25.5990  -34.6450   23.3060 C   0  0  0  0  0  0  0  0  0  0  0  0
  -26.2720  -34.6030   22.2710 O   0  0  0  0  0  0  0  0  0  0  0  0
  -24.7220  -33.6640   24.8470 H   0  0  0  0  0  0  0  0  0  0  0  0
  -23.7860  -36.3610   23.0050 C   0  0  0  0  0  1  0  0  0  0  0  0
  -25.0490  -35.9960   23.8030 C   0  0  0  0  0  3  0  0  0  0  0  0
  -27.1410  -36.9580   24.6530 C   0  0  0  0  0  1  0  0  0  0  0  0
  -26.0300  -37.1010   23.7160 N   0  0  0  0  0  0  0  0  0  0  0  0
  -25.5820  -37.9960   23.8880 H   0  0  0  0  0  0  0  0  0  0  0  0
  -26.2600  -31.4010   24.9000 C   0  0  1  0  0  0  0  0  0  0  0  0
  -25.1950  -31.0660   25.9730 C   0  0  0  0  0  1  0  0  0  0  0  0
  -26.9070  -30.0690   24.4530 C   0  0  0  0  0  1  0  0  0  0  0  0
  -27.3850  -32.2280   25.5680 C   0  0  0  0  0  1  0  0  0  0  0  0
  1  3  1  0
  1  5  1  0
  2  1  1  0
  5  4  1  0
  6  7  1  0
  6  9  1  0
  7 10  1  0
  8  9  1  0
  9 12  1  0
 10  5  1  0
 10 11  1  0
 11 13  1  0
 11  8  1  0
 13 14  1  0
 14 20  1  0
 15 20  1  0
 16 17  1  0
 16 15  1  0
 18 17  1  0
 18 25  1  0
 18 19  1  0
 20 19  1  0
 21 14  2  0
 22 23  2  0
 23 42  1  0
 24 23  1  0
 24 27  1  0
 25 22  1  0
 25 26  1  0
 26 24  2  0
 27 28  1  0
 28 29  2  0
 30 33  1  0
 30 29  1  0
 31 30  2  0
 32 31  1  0
 32 27  2  0
 33 34  1  0
 34 39  2  0
 34 35  1  0
 35 36  2  0
 36 37  1  0
 37 41  1  0
 38 37  2  0
 39 38  1  0
 40 39  1  0
 42 43  1  0
 43 46  1  0
 43 45  1  0
 44 42  2  0
 47 22  1  0
 47 48  1  0
 47  6  1  0
 49 47  1  0
 50  1  1  0
 50 51  1  0
 52 51  1  0
 52 53  1  0
 54 56  1  0
 54 53  1  0
 55 66  2  0
 56 61  1  0
 57 65  1  0
 57 67  1  0
 58 64  1  0
 58 60  1  0
 59 65  1  0
 60 59  1  0
 61 60  2  0
 62 63  1  0
 62 56  2  0
 63 58  2  0
 64 57  1  0
 65 55  1  0
 67 69  2  0
 68 67  1  0
 70 68  1  0
 71 80  2  0
 71 76  1  0
 72 68  1  0
 72 76  1  0
 73 72  1  0
 74 75  1  0
 74 73  1  0
 75 71  1  0
 76 77  2  0
 77 78  1  0
 79 78  2  0
 80 79  1  0
 81 55  1  0
 81 82  1  0
 81 91  1  0
 82 85  1  0
 83 87  1  0
 83 82  1  0
 84 83  2  0
 87 86  1  0
 89 87  1  0
 89 90  1  0
 89 88  1  0
 91 94  1  1
 91 92  1  0
 93 91  1  0
M  ISO  4  13 100  14 100  53 101  54 101
M  END
>  <TORSDO>  (19) 
F 23

>  <SCORE>  (19) 
-5.404

>  <name>  (19) 
18

>  <ligand_id>  (19) 
18

>  <original_smiles>  (19) 
[H]c1c([H])c([H])c2c(c1[H])C([H])([H])C([H])([H])C([H])([H])C2([H])N([H])C(=O)C1([H])N(C(=O)C([H])(N([H])C(=O)C([H])(N([H])C([H])([H])[H])C([H])([H])[H])C(C([H])([H])[H])(C([H])([H])[H])C([H])([H])[H])C([H])([H])c2c([H])c(OC([H])([H])C([H])([H])C([H])([H])C([H])([H])[N+]([H])([H])C([H])(C([H])([H])[H])C3([H])C([H])([H])C([H])([H])C([H])(C([H])([H])[H])C([H])([H])C3([H])C([H])([H])C(=O)N3C([H])([H])C([H])([H])C([H])([H])C([H])(n4nc(-c5c([H])c([H])c(Oc6c([H])c([H])c(F)c([H])c6F)c([H])c5[H])c(C(=O)N([H])[H])c4N([H])[H])C3([H])[H])c([H])c([H])c2C1([H])[H]

>  <smiles>  (19) 
[H]c1c([H])c([H])c2c(c1[H])C([H])([H])C([H])([H])C([H])([H])C2([H])N([H])C(=O)C1([H])N(C(=O)C([H])(N([H])C(=O)C([H])(N([H])C([H])([H])[H])C([H])([H])[H])C(C([H])([H])[H])(C([H])([H])[H])C([H])([H])[H])C([H])([H])c2c([H])c(OC([H])([H])C([H])([H])C([H])([H])C([H])([H])[N+]([H])([H])C([H])(C([H])([H])[H])C3([H])C([H])([H])C([H])([H])C([H])(C([H])([H])[H])C([H])([H])C3([H])C([H])([H])C(=O)N3C([H])([H])C([H])([H])C([H])([H])C([H])(n4nc(-c5c([H])c([H])c(Oc6c([H])c([H])c(F)c([H])c6F)c([H])c5[H])c(C(=O)N([H])[H])c4N([H])[H])C3([H])[H])c([H])c([H])c2C1([H])[H]

$$$$
19:0:0
     RDKit          3D

 98108  0  0  1  0  0  0  0  0999 V2000
  -28.1290  -20.2370   21.1840 C   0  0  0  0  0  2  0  0  0  0  0  0
  -30.5630  -17.7860   18.5480 C   0  0  0  0  0  2  0  0  0  0  0  0
  -28.6570  -18.8330   20.7850 C   0  0  0  0  0  2  0  0  0  0  0  0
  -30.5370  -19.3400   18.4750 C   0  0  0  0  0  2  0  0  0  0  0  0
  -28.1560  -22.7890   20.7320 C   0  0  0  0  0  2  0  0  0  0  0  0
  -29.6910  -23.5920   18.8650 C   0  0  0  0  0  2  0  0  0  0  0  0
  -28.6360  -21.3710   20.2630 C   0  0  0  0  0  3  0  0  0  0  0  0
  -30.1800  -21.3270   20.2190 C   0  0  0  0  0  3  0  0  0  0  0  0
  -30.6900  -17.3920   20.0350 C   0  0  0  0  0  3  0  0  0  0  0  0
  -28.4860  -23.9780   19.7690 C   0  0  0  0  0  3  0  0  0  0  0  0
  -30.7430  -22.5660   19.4150 C   0  0  0  0  0  3  0  0  0  0  0  0
  -30.8070  -19.8870   19.9000 C   0  0  1  0  0  0  0  0  0  0  0  0
  -30.2120  -18.7060   20.7740 C   0  0  1  0  0  0  0  0  0  0  0  0
  -32.3480  -20.0000   20.0800 C   0  0  0  0  0  1  0  0  0  0  0  0
  -30.7270  -18.7080   22.2310 C   0  0  0  0  0  1  0  0  0  0  0  0
  -31.7860  -23.2790   20.1840 N   0  0  0  0  0  4  0  0  0  0  0  0
  -31.4110  -23.6890   21.0200 H   0  0  0  0  0  0  0  0  0  0  0  0
  -32.1910  -24.0120   19.6270 H   0  0  0  0  0  0  0  0  0  0  0  0
  -32.5280  -22.6550   20.4440 H   0  0  0  0  0  0  0  0  0  0  0  0
  -30.1230  -15.9650   20.4530 C   0  0  0  0  0  2  0  0  0  0  0  0
  -30.8630  -14.6800   19.9110 C   0  0  0  0  0  0  0  0  0  0  0  0
  -30.5840  -12.4330   18.8840 C   0  0  0  0  0  2  0  0  0  0  0  0
  -29.5660  -12.5500   17.7280 C   0  0  0  0  0  2  0  0  0  0  0  0
  -28.1250  -12.3880   18.2500 C   0  0  0  0  0  2  0  0  0  0  0  0
  -27.8410  -13.2710   19.4920 C   0  0  0  0  0  3  0  0  0  0  0  0
  -28.9660  -13.1480   20.5430 C   0  0  0  0  0  2  0  0  0  0  0  0
  -30.2390  -13.4630   19.8830 N   0  0  0  0  0  0  0  0  0  0  0  0
  -31.9810  -14.8190   19.4050 O   0  0  0  0  0  0  0  0  0  0  0  0
  -25.5190  -13.8740   20.4170 C   0  0  0  0  0  0  0  0  0  0  0  0
  -24.4700  -13.1010   20.8360 C   0  0  0  0  0  0  0  0  0  0  0  0
  -24.9060  -11.7460   20.7160 C   0  0  0  0  0  0  0  0  0  0  0  0
  -26.5280  -12.9900   20.0680 N   0  0  0  0  0  0  0  0  0  0  0  0
  -26.1690  -11.7020   20.3080 N   0  0  0  0  0  0  0  0  0  0  0  0
  -24.1760  -10.4870   20.9110 C   0  0  0  0  0  0  0  0  0  0  0  0
  -24.5980   -9.5260   21.8560 C   0  0  0  0  0  3  0  0  0  0  0  0
  -23.8680   -8.3310   22.0390 C   0  0  0  0  0  3  0  0  0  0  0  0
  -22.7010   -8.0890   21.2750 C   0  0  0  0  0  0  0  0  0  0  0  0
  -22.2990   -9.0380   20.3190 C   0  0  0  0  0  3  0  0  0  0  0  0
  -23.0290  -10.2240   20.1340 C   0  0  0  0  0  3  0  0  0  0  0  0
  -21.9440   -6.9470   21.3640 O   0  0  0  0  0  0  0  0  0  0  0  0
  -21.7950   -6.2740   22.5500 C   0  0  0  0  0  0  0  0  0  0  0  0
  -21.2200   -6.8840   23.6860 C   0  0  0  0  0  3  0  0  0  0  0  0
  -21.0230   -6.1350   24.8640 C   0  0  0  0  0  3  0  0  0  0  0  0
  -21.3900   -4.7770   24.9050 C   0  0  0  0  0  0  0  0  0  0  0  0
  -21.9570   -4.1660   23.7730 C   0  0  0  0  0  3  0  0  0  0  0  0
  -22.1560   -4.9110   22.5980 C   0  0  0  0  0  0  0  0  0  0  0  0
  -22.6840   -4.3130   21.5030 F   0  0  0  0  0  0  0  0  0  0  0  0
  -21.1930   -4.0540   26.0320 F   0  0  0  0  0  0  0  0  0  0  0  0
  -23.1060  -13.5850   21.2310 C   0  0  0  0  0  0  0  0  0  0  0  0
  -22.4330  -12.8620   22.1190 N   0  0  0  0  0  0  0  0  0  0  0  0
  -22.6470  -14.6380   20.7900 O   0  0  0  0  0  0  0  0  0  0  0  0
  -22.8180  -12.0080   22.4970 H   0  0  0  0  0  0  0  0  0  0  0  0
  -21.5200  -13.1660   22.4270 H   0  0  0  0  0  0  0  0  0  0  0  0
  -25.6930  -15.2480   20.2840 N   0  0  0  0  0  0  0  0  0  0  0  0
  -24.9500  -15.9090   20.4840 H   0  0  0  0  0  0  0  0  0  0  0  0
  -26.5280  -15.6910   19.9210 H   0  0  0  0  0  0  0  0  0  0  0  0
  -28.5610  -25.3860   20.4960 C   0  0  0  0  0  2  0  0  0  0  0  0
  -28.5570  -26.6280   19.7180 O   0  0  0  0  0  0  0  0  0  0  0  0
  -24.6690  -31.6930   23.0360 C   0  0  0  0  0  0  0  0  0  0  0  0
  -27.3990  -27.3960   19.7680 C   0  0  0  0  0  0  0  0  0  0  0  0
  -23.4890  -30.3210   21.3510 C   0  0  0  0  0  3  0  0  0  0  0  0
  -24.9730  -28.8780   19.8510 C   0  0  0  0  0  0  0  0  0  0  0  0
  -26.0070  -30.7490   21.1460 C   0  0  0  0  0  2  0  0  0  0  0  0
  -26.1270  -29.4020   20.4470 C   0  0  0  0  0  0  0  0  0  0  0  0
  -27.3460  -28.6730   20.3940 C   0  0  0  0  0  3  0  0  0  0  0  0
  -26.2250  -26.9030   19.1630 C   0  0  0  0  0  3  0  0  0  0  0  0
  -25.0200  -27.6330   19.2010 C   0  0  0  0  0  3  0  0  0  0  0  0
  -23.7060  -29.7040   19.9440 C   0  0  0  0  0  2  0  0  0  0  0  0
  -24.7410  -30.9350   21.9020 N   0  0  0  0  0  0  0  0  0  0  0  0
  -23.5850  -31.9110   23.5960 O   0  0  0  0  0  0  0  0  0  0  0  0
  -22.8750  -29.2460   22.2780 C   0  0  0  0  0  0  0  0  0  0  0  0
  -21.5520  -29.0390   22.1670 N   0  0  0  0  0  0  0  0  0  0  0  0
  -23.5870  -28.6020   23.0540 O   0  0  0  0  0  0  0  0  0  0  0  0
  -21.0370  -29.6130   21.5140 H   0  0  0  0  0  0  0  0  0  0  0  0
  -18.2150  -27.7450   22.6790 C   0  0  0  0  0  0  0  0  0  0  0  0
  -20.7730  -28.0470   22.9080 C   0  0  0  0  0  3  0  0  0  0  0  0
  -20.8920  -26.6480   22.2610 C   0  0  0  0  0  2  0  0  0  0  0  0
  -19.7740  -26.3500   21.2560 C   0  0  0  0  0  2  0  0  0  0  0  0
  -18.4040  -26.4340   21.9360 C   0  0  0  0  0  2  0  0  0  0  0  0
  -19.3260  -28.5110   23.1220 C   0  0  0  0  0  0  0  0  0  0  0  0
  -19.0950  -29.7390   23.7780 C   0  0  0  0  0  3  0  0  0  0  0  0
  -17.7840  -30.2030   23.9950 C   0  0  0  0  0  3  0  0  0  0  0  0
  -16.6870  -29.4350   23.5690 C   0  0  0  0  0  3  0  0  0  0  0  0
  -16.9030  -28.2070   22.9170 C   0  0  0  0  0  3  0  0  0  0  0  0
  -25.9400  -32.3390   23.6680 C   0  0  0  0  0  3  0  0  0  0  0  0
  -26.4940  -31.5360   24.9090 C   0  0  1  0  0  0  0  0  0  0  0  0
  -25.4200  -31.2240   25.9780 C   0  0  0  0  0  1  0  0  0  0  0  0
  -27.1140  -30.1930   24.4580 C   0  0  0  0  0  1  0  0  0  0  0  0
  -27.6270  -32.3400   25.5900 C   0  0  0  0  0  1  0  0  0  0  0  0
  -25.5940  -33.7140   24.0540 N   0  0  0  0  0  0  0  0  0  0  0  0
  -25.8930  -34.8040   23.3350 C   0  0  0  0  0  0  0  0  0  0  0  0
  -26.5600  -34.7600   22.2980 O   0  0  0  0  0  0  0  0  0  0  0  0
  -24.9980  -33.8200   24.8620 H   0  0  0  0  0  0  0  0  0  0  0  0
  -24.1230  -36.5680   23.0470 C   0  0  0  0  0  1  0  0  0  0  0  0
  -25.3690  -36.1590   23.8480 C   0  0  0  0  0  3  0  0  0  0  0  0
  -27.4720  -37.0650   24.7370 C   0  0  0  0  0  1  0  0  0  0  0  0
  -26.3760  -37.2420   23.7870 N   0  0  0  0  0  0  0  0  0  0  0  0
  -25.9460  -38.1450   23.9650 H   0  0  0  0  0  0  0  0  0  0  0  0
  2  9  1  0
  3  1  1  0
  4  2  1  0
  4 12  1  0
  6 11  1  0
  6 10  1  0
  7  5  1  0
  7  1  1  0
  8  7  1  0
  9 20  1  0
  9 13  1  0
 10 57  1  0
 10  5  1  0
 11 16  1  0
 11  8  1  0
 12 14  1  1
 12  8  1  0
 12 13  1  0
 13  3  1  0
 13 15  1  1
 16 19  1  0
 16 17  1  0
 18 16  1  0
 21 20  1  0
 22 27  1  0
 23 24  1  0
 23 22  1  0
 24 25  1  0
 25 32  1  0
 25 26  1  0
 27 21  1  0
 27 26  1  0
 28 21  2  0
 29 30  2  0
 30 49  1  0
 31 30  1  0
 31 34  1  0
 32 33  1  0
 32 29  1  0
 33 31  2  0
 34 35  1  0
 35 36  2  0
 37 40  1  0
 37 36  1  0
 38 37  2  0
 39 38  1  0
 39 34  2  0
 40 41  1  0
 41 46  2  0
 41 42  1  0
 42 43  2  0
 43 44  1  0
 44 48  1  0
 45 44  2  0
 46 45  1  0
 47 46  1  0
 49 50  1  0
 50 53  1  0
 50 52  1  0
 51 49  2  0
 54 29  1  0
 54 55  1  0
 56 54  1  0
 58 60  1  0
 58 57  1  0
 59 70  2  0
 59 85  1  0
 60 65  1  0
 61 69  1  0
 61 71  1  0
 62 68  1  0
 62 64  1  0
 63 69  1  0
 64 63  1  0
 65 64  2  0
 66 67  1  0
 66 60  2  0
 67 62  2  0
 68 61  1  0
 69 59  1  0
 71 73  2  0
 72 71  1  0
 72 76  1  0
 74 72  1  0
 75 84  2  0
 75 80  1  0
 76 80  1  0
 77 76  1  0
 78 79  1  0
 78 77  1  0
 79 75  1  0
 80 81  2  0
 81 82  1  0
 83 82  2  0
 84 83  1  0
 85 90  1  0
 85 86  1  0
 86 89  1  1
 86 87  1  0
 88 86  1  0
 90 93  1  0
 91 95  1  0
 91 90  1  0
 92 91  2  0
 94 95  1  0
 97 95  1  0
 97 98  1  0
 97 96  1  0
M  ISO  4  20 100  21 100  57 101  58 101
M  END
>  <TORSDO>  (20) 
F 19

>  <SCORE>  (20) 
-13.203

>  <name>  (20) 
19

>  <ligand_id>  (20) 
19

>  <original_smiles>  (20) 
[H]c1c([H])c([H])c2c(c1[H])C([H])([H])C([H])([H])C([H])([H])C2([H])N([H])C(=O)C1([H])N(C(=O)C([H])(N([H])C(=O)C([H])(N([H])C([H])([H])[H])C([H])([H])[H])C(C([H])([H])[H])(C([H])([H])[H])C([H])([H])[H])C([H])([H])c2c([H])c(OC([H])([H])C3([H])C([H])([H])C4([H])C([H])([H])C([H])([H])C5(C([H])([H])[H])C([H])(C([H])([H])C(=O)N6C([H])([H])C([H])([H])C([H])([H])C([H])(n7nc(-c8c([H])c([H])c(Oc9c([H])c([H])c(F)c([H])c9F)c([H])c8[H])c(C(=O)N([H])[H])c7N([H])[H])C6([H])[H])C([H])([H])C([H])([H])C5(C([H])([H])[H])C4([H])C([H])([N+]([H])([H])[H])C3([H])[H])c([H])c([H])c2C1([H])[H]

>  <smiles>  (20) 
[H]c1c([H])c([H])c2c(c1[H])C([H])([H])C([H])([H])C([H])([H])C2([H])N([H])C(=O)C1([H])N(C(=O)C([H])(N([H])C(=O)C([H])(N([H])C([H])([H])[H])C([H])([H])[H])C(C([H])([H])[H])(C([H])([H])[H])C([H])([H])[H])C([H])([H])c2c([H])c(OC([H])([H])C3([H])C([H])([H])C4([H])C([H])([H])C([H])([H])C5(C([H])([H])[H])C([H])(C([H])([H])C(=O)N6C([H])([H])C([H])([H])C([H])([H])C([H])(n7nc(-c8c([H])c([H])c(Oc9c([H])c([H])c(F)c([H])c9F)c([H])c8[H])c(C(=O)N([H])[H])c7N([H])[H])C6([H])[H])C([H])([H])C([H])([H])C5(C([H])([H])[H])C4([H])C([H])([N+]([H])([H])[H])C3([H])[H])c([H])c([H])c2C1([H])[H]

$$$$
20:0:0
     RDKit          3D

 87 96  0  0  1  0  0  0  0  0999 V2000
  -27.7020  -20.1550   19.5640 C   0  0  0  0  0  2  0  0  0  0  0  0
  -28.0820  -21.6170   19.3980 C   0  0  0  0  0  3  0  0  0  0  0  0
  -29.5510  -21.2560   19.6100 C   0  0  0  0  0  3  0  0  0  0  0  0
  -29.1700  -19.7370   19.5550 C   0  0  0  0  0  3  0  0  0  0  0  0
  -28.8810  -22.4370   20.3850 C   0  0  0  0  0  3  0  0  0  0  0  0
  -29.7460  -18.6540   20.5550 C   0  0  0  0  0  3  0  0  0  0  0  0
  -29.6250  -17.1400   20.0610 C   0  0  0  0  0  3  0  0  0  0  0  0
  -30.0080  -15.9430   21.0420 C   0  0  0  0  0  2  0  0  0  0  0  0
  -30.6390  -14.6270   20.4220 C   0  0  0  0  0  0  0  0  0  0  0  0
  -30.3730  -12.3990   19.3440 C   0  0  0  0  0  2  0  0  0  0  0  0
  -29.4450  -12.5600   18.1200 C   0  0  0  0  0  2  0  0  0  0  0  0
  -27.9680  -12.4160   18.5400 C   0  0  0  0  0  2  0  0  0  0  0  0
  -27.6180  -13.2750   19.7870 C   0  0  0  0  0  3  0  0  0  0  0  0
  -28.6700  -13.1000   20.9040 C   0  0  0  0  0  2  0  0  0  0  0  0
  -29.9840  -13.4220   20.3360 N   0  0  0  0  0  0  0  0  0  0  0  0
  -31.7720  -14.7420   19.9440 O   0  0  0  0  0  0  0  0  0  0  0  0
  -25.2230  -13.8890   20.4820 C   0  0  0  0  0  0  0  0  0  0  0  0
  -24.1500  -13.1250   20.8540 C   0  0  0  0  0  0  0  0  0  0  0  0
  -24.6030  -11.7710   20.8360 C   0  0  0  0  0  0  0  0  0  0  0  0
  -26.2640  -13.0040   20.2640 N   0  0  0  0  0  0  0  0  0  0  0  0
  -25.8960  -11.7230   20.5350 N   0  0  0  0  0  0  0  0  0  0  0  0
  -23.8650  -10.5150   21.0290 C   0  0  0  0  0  0  0  0  0  0  0  0
  -24.2950   -9.5430   21.9590 C   0  0  0  0  0  3  0  0  0  0  0  0
  -23.5590   -8.3540   22.1450 C   0  0  0  0  0  3  0  0  0  0  0  0
  -22.3770   -8.1290   21.3990 C   0  0  0  0  0  0  0  0  0  0  0  0
  -21.9650   -9.0890   20.4580 C   0  0  0  0  0  3  0  0  0  0  0  0
  -22.7040  -10.2700   20.2720 C   0  0  0  0  0  3  0  0  0  0  0  0
  -21.6130   -6.9900   21.4930 O   0  0  0  0  0  0  0  0  0  0  0  0
  -21.5760   -6.2400   22.6410 C   0  0  0  0  0  0  0  0  0  0  0  0
  -21.1920   -6.7940   23.8820 C   0  0  0  0  0  3  0  0  0  0  0  0
  -21.1020   -5.9710   25.0230 C   0  0  0  0  0  3  0  0  0  0  0  0
  -21.3820   -4.5960   24.9210 C   0  0  0  0  0  0  0  0  0  0  0  0
  -21.7590   -4.0420   23.6860 C   0  0  0  0  0  3  0  0  0  0  0  0
  -21.8530   -4.8610   22.5490 C   0  0  0  0  0  0  0  0  0  0  0  0
  -22.1950   -4.3180   21.3550 F   0  0  0  0  0  0  0  0  0  0  0  0
  -21.2860   -3.8030   26.0140 F   0  0  0  0  0  0  0  0  0  0  0  0
  -22.7550  -13.6170   21.1160 C   0  0  0  0  0  0  0  0  0  0  0  0
  -22.0170  -12.9360   21.9850 N   0  0  0  0  0  0  0  0  0  0  0  0
  -22.3270  -14.6400   20.5840 O   0  0  0  0  0  0  0  0  0  0  0  0
  -22.3720  -12.1080   22.4380 H   0  0  0  0  0  0  0  0  0  0  0  0
  -21.0800  -13.2490   22.1950 H   0  0  0  0  0  0  0  0  0  0  0  0
  -25.3920  -15.2580   20.2950 N   0  0  0  0  0  0  0  0  0  0  0  0
  -24.6250  -15.9130   20.4060 H   0  0  0  0  0  0  0  0  0  0  0  0
  -26.2510  -15.6990   19.9890 H   0  0  0  0  0  0  0  0  0  0  0  0
  -29.1840  -23.9600   20.1000 C   0  0  0  0  0  3  0  0  0  0  0  0
  -28.0880  -25.0280   20.5150 C   0  0  0  0  0  3  0  0  0  0  0  0
  -28.3260  -26.4610   20.2090 O   0  0  0  0  0  0  0  0  0  0  0  0
  -24.6090  -31.8680   23.2380 C   0  0  0  0  0  0  0  0  0  0  0  0
  -27.2110  -27.3120   20.1820 C   0  0  0  0  0  0  0  0  0  0  0  0
  -23.4020  -30.4680   21.6040 C   0  0  0  0  0  3  0  0  0  0  0  0
  -24.8470  -28.9200   20.1740 C   0  0  0  0  0  0  0  0  0  0  0  0
  -25.9410  -30.7870   21.4110 C   0  0  0  0  0  2  0  0  0  0  0  0
  -26.0170  -29.4080   20.7700 C   0  0  0  0  0  0  0  0  0  0  0  0
  -27.2040  -28.6170   20.7650 C   0  0  0  0  0  3  0  0  0  0  0  0
  -26.0230  -26.8870   19.5430 C   0  0  0  0  0  3  0  0  0  0  0  0
  -24.8520  -27.6640   19.5480 C   0  0  0  0  0  3  0  0  0  0  0  0
  -23.6080  -29.7910   20.2250 C   0  0  0  0  0  2  0  0  0  0  0  0
  -24.6700  -31.0580   22.1420 N   0  0  0  0  0  0  0  0  0  0  0  0
  -23.5270  -32.1460   23.7740 O   0  0  0  0  0  0  0  0  0  0  0  0
  -22.7410  -29.4530   22.5670 C   0  0  0  0  0  0  0  0  0  0  0  0
  -21.4160  -29.2730   22.4430 N   0  0  0  0  0  0  0  0  0  0  0  0
  -23.4230  -28.8300   23.3860 O   0  0  0  0  0  0  0  0  0  0  0  0
  -20.9280  -29.8240   21.7520 H   0  0  0  0  0  0  0  0  0  0  0  0
  -18.0440  -28.0660   22.9390 C   0  0  0  0  0  0  0  0  0  0  0  0
  -20.6010  -28.3370   23.2180 C   0  0  0  0  0  3  0  0  0  0  0  0
  -20.7110  -26.9030   22.6500 C   0  0  0  0  0  2  0  0  0  0  0  0
  -19.6130  -26.5650   21.6380 C   0  0  0  0  0  2  0  0  0  0  0  0
  -18.2290  -26.7120   22.2760 C   0  0  0  0  0  2  0  0  0  0  0  0
  -19.1580  -28.8350   23.3680 C   0  0  0  0  0  0  0  0  0  0  0  0
  -18.9300  -30.1020   23.9460 C   0  0  0  0  0  3  0  0  0  0  0  0
  -17.6210  -30.5990   24.1040 C   0  0  0  0  0  3  0  0  0  0  0  0
  -16.5230  -29.8270   23.6890 C   0  0  0  0  0  3  0  0  0  0  0  0
  -16.7350  -28.5620   23.1110 C   0  0  0  0  0  3  0  0  0  0  0  0
  -25.8930  -32.5010   23.8530 C   0  0  0  0  0  3  0  0  0  0  0  0
  -25.5830  -33.9010   24.1870 N   0  0  0  0  0  0  0  0  0  0  0  0
  -25.9120  -34.9540   23.4290 C   0  0  0  0  0  0  0  0  0  0  0  0
  -26.5810  -34.8530   22.3970 O   0  0  0  0  0  0  0  0  0  0  0  0
  -24.9880  -34.0520   24.9890 H   0  0  0  0  0  0  0  0  0  0  0  0
  -24.1830  -36.7460   23.0840 C   0  0  0  0  0  1  0  0  0  0  0  0
  -25.4270  -36.3420   23.8900 C   0  0  0  0  0  3  0  0  0  0  0  0
  -27.5660  -37.2250   24.7140 C   0  0  0  0  0  1  0  0  0  0  0  0
  -26.4600  -37.3950   23.7750 N   0  0  0  0  0  0  0  0  0  0  0  0
  -26.0540  -38.3160   23.9230 H   0  0  0  0  0  0  0  0  0  0  0  0
  -26.4170  -31.7280   25.1270 C   0  0  1  0  0  0  0  0  0  0  0  0
  -25.3290  -31.4840   26.1970 C   0  0  0  0  0  1  0  0  0  0  0  0
  -26.9920  -30.3490   24.7290 C   0  0  0  0  0  1  0  0  0  0  0  0
  -27.5720  -32.5200   25.7790 C   0  0  0  0  0  1  0  0  0  0  0  0
  2  1  1  0
  2  3  1  0
  2  5  1  0
  3  5  1  0
  4  1  1  0
  4  3  1  0
  4  6  1  0
  7  6  2  0
  7  8  1  0
  9  8  1  0
 10 15  1  0
 11 12  1  0
 11 10  1  0
 12 13  1  0
 13 20  1  0
 13 14  1  0
 15  9  1  0
 15 14  1  0
 16  9  2  0
 17 18  2  0
 18 37  1  0
 19 18  1  0
 19 22  1  0
 20 17  1  0
 20 21  1  0
 21 19  2  0
 22 23  1  0
 23 24  2  0
 25 28  1  0
 25 24  1  0
 26 25  2  0
 27 26  1  0
 27 22  2  0
 28 29  1  0
 29 30  1  0
 30 31  2  0
 32 31  1  0
 32 36  1  0
 33 32  2  0
 34 29  2  0
 34 33  1  0
 35 34  1  0
 37 38  1  0
 38 41  1  0
 38 40  1  0
 39 37  2  0
 42 43  1  0
 42 17  1  0
 44 42  1  0
 45  5  1  0
 45 46  2  0
 47 46  1  0
 48 59  2  0
 48 74  1  0
 49 47  1  0
 49 54  1  0
 50 58  1  0
 50 60  1  0
 51 57  1  0
 51 53  1  0
 52 58  1  0
 53 52  1  0
 54 53  2  0
 55 56  1  0
 55 49  2  0
 56 51  2  0
 57 50  1  0
 58 48  1  0
 60 62  2  0
 61 60  1  0
 61 65  1  0
 63 61  1  0
 64 73  2  0
 64 69  1  0
 65 69  1  0
 66 65  1  0
 67 68  1  0
 67 66  1  0
 68 64  1  0
 69 70  2  0
 70 71  1  0
 72 71  2  0
 73 72  1  0
 74 75  1  0
 74 84  1  0
 75 78  1  0
 76 80  1  0
 76 75  1  0
 77 76  2  0
 79 80  1  0
 82 80  1  0
 82 83  1  0
 82 81  1  0
 84 87  1  1
 84 85  1  0
 86 84  1  0
M  ISO  4   8 100   9 100  46 101  47 101
M  END
>  <TORSDO>  (21) 
F 21

>  <SCORE>  (21) 
-13.286

>  <name>  (21) 
20

>  <ligand_id>  (21) 
20

>  <original_smiles>  (21) 
[H]c1c([H])c([H])c2c(c1[H])C([H])([H])C([H])([H])C([H])([H])C2([H])N([H])C(=O)C1([H])N(C(=O)C([H])(N([H])C(=O)C([H])(N([H])C([H])([H])[H])C([H])([H])[H])C(C([H])([H])[H])(C([H])([H])[H])C([H])([H])[H])C([H])([H])c2c([H])c(OC([H])([H])C([H])([H])C3([H])C4([H])C([H])([H])C([H])(C([H])([H])C([H])([H])C([H])([H])C(=O)N5C([H])([H])C([H])([H])C([H])([H])C([H])(n6nc(-c7c([H])c([H])c(Oc8c([H])c([H])c(F)c([H])c8F)c([H])c7[H])c(C(=O)N([H])[H])c6N([H])[H])C5([H])[H])C34[H])c([H])c([H])c2C1([H])[H]

>  <smiles>  (21) 
[H]c1c([H])c([H])c2c(c1[H])C([H])([H])C([H])([H])C([H])([H])C2([H])N([H])C(=O)C1([H])N(C(=O)C([H])(N([H])C(=O)C([H])(N([H])C([H])([H])[H])C([H])([H])[H])C(C([H])([H])[H])(C([H])([H])[H])C([H])([H])[H])C([H])([H])c2c([H])c(OC([H])([H])C([H])([H])C3([H])C4([H])C([H])([H])C([H])(C([H])([H])C([H])([H])C([H])([H])C(=O)N5C([H])([H])C([H])([H])C([H])([H])C([H])(n6nc(-c7c([H])c([H])c(Oc8c([H])c([H])c(F)c([H])c8F)c([H])c7[H])c(C(=O)N([H])[H])c6N([H])[H])C5([H])[H])C34[H])c([H])c([H])c2C1([H])[H]

$$$$
21:0:0
     RDKit          3D

 88 97  0  0  1  0  0  0  0  0999 V2000
  -29.1470  -19.0140   21.3220 C   0  0  0  0  0  2  0  0  0  0  0  0
  -29.0300  -20.5970   21.4770 C   0  0  0  0  0  2  0  0  0  0  0  0
  -30.5000  -21.1130   18.7380 C   0  0  0  0  0  2  0  0  0  0  0  0
  -29.9210  -22.5980   18.6420 C   0  0  0  0  0  2  0  0  0  0  0  0
  -29.9110  -18.6200   20.0190 C   0  0  0  0  0  3  0  0  0  0  0  0
  -29.4180  -20.1070   19.2450 C   0  0  0  0  0  3  0  0  0  0  0  0
  -28.6400  -21.2760   20.1280 C   0  0  0  0  0  3  0  0  0  0  0  0
  -29.0240  -22.9560   19.8680 C   0  0  0  0  0  3  0  0  0  0  0  0
  -28.7340  -16.8330   18.6220 C   0  0  0  0  0  2  0  0  0  0  0  0
  -29.7390  -16.9620   19.5030 C   0  0  0  0  0  0  0  0  0  0  0  0
  -30.5550  -15.5490   19.7020 C   0  0  0  0  0  0  0  0  0  0  0  0
  -30.4830  -13.0640   18.9280 C   0  0  0  0  0  2  0  0  0  0  0  0
  -29.4940  -12.7950   17.7660 C   0  0  0  0  0  2  0  0  0  0  0  0
  -28.0810  -12.5060   18.3010 C   0  0  0  0  0  2  0  0  0  0  0  0
  -27.6690  -13.5050   19.4080 C   0  0  0  0  0  3  0  0  0  0  0  0
  -28.7820  -13.7590   20.4470 C   0  0  0  0  0  2  0  0  0  0  0  0
  -29.9770  -14.2410   19.7280 N   0  0  0  0  0  0  0  0  0  0  0  0
  -31.7840  -15.4870   19.5460 O   0  0  0  0  0  0  0  0  0  0  0  0
  -25.3770  -14.1020   20.3400 C   0  0  0  0  0  0  0  0  0  0  0  0
  -24.3240  -13.3400   20.7610 C   0  0  0  0  0  0  0  0  0  0  0  0
  -24.7630  -11.9820   20.6750 C   0  0  0  0  0  0  0  0  0  0  0  0
  -26.3820  -13.2070   20.0120 N   0  0  0  0  0  0  0  0  0  0  0  0
  -26.0300  -11.9270   20.2810 N   0  0  0  0  0  0  0  0  0  0  0  0
  -24.0290  -10.7300   20.8830 C   0  0  0  0  0  0  0  0  0  0  0  0
  -24.4720   -9.7610   21.8090 C   0  0  0  0  0  3  0  0  0  0  0  0
  -23.7370   -8.5740   22.0090 C   0  0  0  0  0  3  0  0  0  0  0  0
  -22.5450   -8.3460   21.2810 C   0  0  0  0  0  0  0  0  0  0  0  0
  -22.1210   -9.3030   20.3420 C   0  0  0  0  0  3  0  0  0  0  0  0
  -22.8570  -10.4830   20.1410 C   0  0  0  0  0  3  0  0  0  0  0  0
  -21.7790   -7.2110   21.3920 O   0  0  0  0  0  0  0  0  0  0  0  0
  -21.7100   -6.5000   22.5640 C   0  0  0  0  0  0  0  0  0  0  0  0
  -21.1990   -7.0680   23.7510 C   0  0  0  0  0  3  0  0  0  0  0  0
  -21.0840   -6.2820   24.9150 C   0  0  0  0  0  3  0  0  0  0  0  0
  -21.4690   -4.9290   24.8910 C   0  0  0  0  0  0  0  0  0  0  0  0
  -21.9710   -4.3590   23.7080 C   0  0  0  0  0  3  0  0  0  0  0  0
  -22.0900   -5.1430   22.5470 C   0  0  0  0  0  0  0  0  0  0  0  0
  -22.5550   -4.5850   21.4050 F   0  0  0  0  0  0  0  0  0  0  0  0
  -21.3500   -4.1700   26.0060 F   0  0  0  0  0  0  0  0  0  0  0  0
  -22.9550  -13.8370   21.1240 C   0  0  0  0  0  0  0  0  0  0  0  0
  -22.2710  -13.1410   22.0240 N   0  0  0  0  0  0  0  0  0  0  0  0
  -22.5030  -14.8760   20.6440 O   0  0  0  0  0  0  0  0  0  0  0  0
  -22.6500  -12.3040   22.4430 H   0  0  0  0  0  0  0  0  0  0  0  0
  -21.3530  -13.4520   22.3080 H   0  0  0  0  0  0  0  0  0  0  0  0
  -25.5580  -15.4740   20.1810 N   0  0  0  0  0  0  0  0  0  0  0  0
  -24.8240  -16.1460   20.3710 H   0  0  0  0  0  0  0  0  0  0  0  0
  -26.4120  -15.9020   19.8510 H   0  0  0  0  0  0  0  0  0  0  0  0
  -28.0170  -24.4530   19.7390 C   0  0  0  0  0  2  0  0  0  0  0  0
  -28.2380  -26.0780   19.9170 O   0  0  0  0  0  0  0  0  0  0  0  0
  -24.6410  -31.8530   23.1840 C   0  0  0  0  0  0  0  0  0  0  0  0
  -27.1990  -27.1480   19.9180 C   0  0  0  0  0  0  0  0  0  0  0  0
  -23.4280  -30.5080   21.5130 C   0  0  0  0  0  3  0  0  0  0  0  0
  -24.8660  -28.9820   19.9980 C   0  0  0  0  0  0  0  0  0  0  0  0
  -25.9870  -30.7650   21.3200 C   0  0  0  0  0  2  0  0  0  0  0  0
  -26.0610  -29.3840   20.6070 C   0  0  0  0  0  0  0  0  0  0  0  0
  -27.2210  -28.4890   20.5420 C   0  0  0  0  0  3  0  0  0  0  0  0
  -25.9690  -26.8930   19.2690 C   0  0  0  0  0  3  0  0  0  0  0  0
  -24.8430  -27.7580   19.3100 C   0  0  0  0  0  3  0  0  0  0  0  0
  -23.6340  -29.8820   20.1080 C   0  0  0  0  0  2  0  0  0  0  0  0
  -24.7070  -31.0680   22.0590 N   0  0  0  0  0  0  0  0  0  0  0  0
  -23.5600  -32.1060   23.7400 O   0  0  0  0  0  0  0  0  0  0  0  0
  -22.7670  -29.4670   22.4540 C   0  0  0  0  0  0  0  0  0  0  0  0
  -21.4490  -29.2440   22.3080 N   0  0  0  0  0  0  0  0  0  0  0  0
  -23.4500  -28.8590   23.2830 O   0  0  0  0  0  0  0  0  0  0  0  0
  -20.9490  -29.7870   21.6170 H   0  0  0  0  0  0  0  0  0  0  0  0
  -18.1260  -27.8460   22.7230 C   0  0  0  0  0  0  0  0  0  0  0  0
  -20.6590  -28.2560   23.0520 C   0  0  0  0  0  3  0  0  0  0  0  0
  -20.8560  -26.8360   22.4720 C   0  0  0  0  0  2  0  0  0  0  0  0
  -19.7990  -26.4580   21.4290 C   0  0  0  0  0  2  0  0  0  0  0  0
  -18.3960  -26.5160   22.0390 C   0  0  0  0  0  2  0  0  0  0  0  0
  -19.1880  -28.6700   23.1840 C   0  0  0  0  0  0  0  0  0  0  0  0
  -18.8790  -29.9080   23.7870 C   0  0  0  0  0  3  0  0  0  0  0  0
  -17.5420  -30.3270   23.9310 C   0  0  0  0  0  3  0  0  0  0  0  0
  -16.4950  -29.5020   23.4850 C   0  0  0  0  0  3  0  0  0  0  0  0
  -16.7870  -28.2630   22.8870 C   0  0  0  0  0  3  0  0  0  0  0  0
  -25.9170  -32.4880   23.8140 C   0  0  0  0  0  3  0  0  0  0  0  0
  -25.6070  -33.8890   24.1520 N   0  0  0  0  0  0  0  0  0  0  0  0
  -25.9150  -34.9490   23.3940 C   0  0  0  0  0  0  0  0  0  0  0  0
  -26.5530  -34.8510   22.3420 O   0  0  0  0  0  0  0  0  0  0  0  0
  -25.0340  -34.0360   24.9700 H   0  0  0  0  0  0  0  0  0  0  0  0
  -24.1740  -36.7470   23.1140 C   0  0  0  0  0  1  0  0  0  0  0  0
  -25.4460  -36.3380   23.8740 C   0  0  0  0  0  3  0  0  0  0  0  0
  -27.5990  -37.2400   24.6380 C   0  0  0  0  0  1  0  0  0  0  0  0
  -26.4720  -37.3940   23.7230 N   0  0  0  0  0  0  0  0  0  0  0  0
  -26.0680  -38.3150   23.8700 H   0  0  0  0  0  0  0  0  0  0  0  0
  -26.4180  -31.7200   25.0990 C   0  0  1  0  0  0  0  0  0  0  0  0
  -25.3160  -31.4900   26.1610 C   0  0  0  0  0  1  0  0  0  0  0  0
  -26.9980  -30.3370   24.7250 C   0  0  0  0  0  1  0  0  0  0  0  0
  -27.5690  -32.5100   25.7670 C   0  0  0  0  0  1  0  0  0  0  0  0
  1  2  1  0
  4  3  1  0
  4  8  1  0
  5 10  1  0
  5  1  1  0
  6  3  1  0
  6  5  1  0
  6  7  1  0
  7  2  1  0
  8 47  1  0
  8  7  1  0
  9 10  2  0
 10 11  1  0
 11 17  1  0
 12 17  1  0
 13 14  1  0
 13 12  1  0
 15 14  1  0
 15 22  1  0
 15 16  1  0
 17 16  1  0
 18 11  2  0
 19 20  2  0
 20 39  1  0
 21 20  1  0
 21 24  1  0
 22 23  1  0
 22 19  1  0
 23 21  2  0
 24 25  1  0
 25 26  2  0
 27 30  1  0
 27 26  1  0
 28 27  2  0
 29 28  1  0
 29 24  2  0
 30 31  1  0
 31 32  1  0
 32 33  2  0
 34 33  1  0
 34 38  1  0
 35 34  2  0
 36 31  2  0
 36 35  1  0
 37 36  1  0
 39 40  1  0
 40 43  1  0
 40 42  1  0
 41 39  2  0
 44 19  1  0
 44 45  1  0
 46 44  1  0
 47 48  1  0
 48 50  1  0
 49 60  2  0
 50 55  1  0
 51 59  1  0
 51 61  1  0
 52 58  1  0
 52 54  1  0
 53 59  1  0
 54 53  1  0
 55 54  2  0
 56 57  1  0
 56 50  2  0
 57 52  2  0
 58 51  1  0
 59 49  1  0
 61 63  2  0
 62 61  1  0
 64 62  1  0
 65 74  2  0
 65 70  1  0
 66 62  1  0
 66 70  1  0
 67 66  1  0
 68 69  1  0
 68 67  1  0
 69 65  1  0
 70 71  2  0
 71 72  1  0
 73 72  2  0
 74 73  1  0
 75 49  1  0
 75 76  1  0
 75 85  1  0
 76 79  1  0
 77 81  1  0
 77 76  1  0
 78 77  2  0
 81 80  1  0
 83 84  1  0
 83 81  1  0
 83 82  1  0
 85 88  1  1
 85 86  1  0
 87 85  1  0
M  ISO  4  10 100  11 100  47 101  48 101
M  END
>  <TORSDO>  (22) 
F 18

>  <SCORE>  (22) 
-14.510

>  <name>  (22) 
21

>  <ligand_id>  (22) 
21

>  <original_smiles>  (22) 
[H]C([H])=C(C(=O)N1C([H])([H])C([H])([H])C([H])([H])C([H])(n2nc(-c3c([H])c([H])c(Oc4c([H])c([H])c(F)c([H])c4F)c([H])c3[H])c(C(=O)N([H])[H])c2N([H])[H])C1([H])[H])C1([H])C([H])([H])C([H])([H])C2([H])C([H])(C([H])([H])Oc3c([H])c([H])c4c(c3[H])C([H])([H])N(C(=O)C([H])(N([H])C(=O)C([H])(N([H])C([H])([H])[H])C([H])([H])[H])C(C([H])([H])[H])(C([H])([H])[H])C([H])([H])[H])C([H])(C(=O)N([H])C3([H])c5c([H])c([H])c([H])c([H])c5C([H])([H])C([H])([H])C3([H])[H])C4([H])[H])C([H])([H])C([H])([H])C12[H]

>  <smiles>  (22) 
[H]C([H])=C(C(=O)N1C([H])([H])C([H])([H])C([H])([H])C([H])(n2nc(-c3c([H])c([H])c(Oc4c([H])c([H])c(F)c([H])c4F)c([H])c3[H])c(C(=O)N([H])[H])c2N([H])[H])C1([H])[H])C1([H])C([H])([H])C([H])([H])C2([H])C([H])(C([H])([H])Oc3c([H])c([H])c4c(c3[H])C([H])([H])N(C(=O)C([H])(N([H])C(=O)C([H])(N([H])C([H])([H])[H])C([H])([H])[H])C(C([H])([H])[H])(C([H])([H])[H])C([H])([H])[H])C([H])(C(=O)N([H])C3([H])c5c([H])c([H])c([H])c([H])c5C([H])([H])C([H])([H])C3([H])[H])C4([H])[H])C([H])([H])C([H])([H])C12[H]

$$$$
22:0:0
     RDKit          3D

 92101  0  0  1  0  0  0  0  0999 V2000
  -30.4580  -22.6800   20.6340 C   0  0  0  0  0  2  0  0  0  0  0  0
  -29.6760  -24.0790   18.9180 C   0  0  0  0  0  2  0  0  0  0  0  0
  -30.5860  -22.8550   19.1210 C   0  0  0  0  0  3  0  0  0  0  0  0
  -28.9540  -22.4280   20.5860 C   0  0  0  0  0  3  0  0  0  0  0  0
  -28.5010  -23.8250   19.8900 C   0  0  0  0  0  3  0  0  0  0  0  0
  -29.9760  -21.5420   18.5520 C   0  0  0  0  0  3  0  0  0  0  0  0
  -28.8690  -21.1830   19.5750 C   0  0  0  0  0  3  0  0  0  0  0  0
  -29.4690  -21.6310   17.1050 C   0  0  0  0  0  1  0  0  0  0  0  0
  -29.7180  -18.7900   20.2320 C   0  0  0  0  0  3  0  0  0  0  0  0
  -28.8010  -19.6920   19.9440 N   0  0  0  0  0  2  0  0  0  0  0  0
  -31.1110  -19.4530   22.2410 C   0  0  0  0  0  1  0  0  0  0  0  0
  -31.1110  -19.1080   20.7440 C   0  0  0  0  0  2  0  0  0  0  0  0
  -29.5240  -17.2290   19.9250 C   0  0  0  0  0  2  0  0  0  0  0  0
  -29.9720  -16.0570   20.9370 C   0  0  0  0  0  2  0  0  0  0  0  0
  -30.6170  -14.7200   20.3400 C   0  0  0  0  0  0  0  0  0  0  0  0
  -30.3850  -12.4790   19.2610 C   0  0  0  0  0  2  0  0  0  0  0  0
  -29.4460  -12.6160   18.0440 C   0  0  0  0  0  2  0  0  0  0  0  0
  -27.9810  -12.4350   18.4820 C   0  0  0  0  0  2  0  0  0  0  0  0
  -27.6240  -13.2960   19.7240 C   0  0  0  0  0  3  0  0  0  0  0  0
  -28.6800  -13.1550   20.8400 C   0  0  0  0  0  2  0  0  0  0  0  0
  -29.9850  -13.4990   20.2600 N   0  0  0  0  0  0  0  0  0  0  0  0
  -31.7560  -14.8300   19.8740 O   0  0  0  0  0  0  0  0  0  0  0  0
  -25.2350  -13.8840   20.4480 C   0  0  0  0  0  0  0  0  0  0  0  0
  -24.1740  -13.1080   20.8200 C   0  0  0  0  0  0  0  0  0  0  0  0
  -24.6410  -11.7580   20.7970 C   0  0  0  0  0  0  0  0  0  0  0  0
  -26.2810  -13.0090   20.2110 N   0  0  0  0  0  0  0  0  0  0  0  0
  -25.9310  -11.7250   20.4840 N   0  0  0  0  0  0  0  0  0  0  0  0
  -23.9180  -10.4950   20.9980 C   0  0  0  0  0  0  0  0  0  0  0  0
  -24.3530   -9.5360   21.9390 C   0  0  0  0  0  3  0  0  0  0  0  0
  -23.6300   -8.3390   22.1260 C   0  0  0  0  0  3  0  0  0  0  0  0
  -22.4580   -8.0920   21.3720 C   0  0  0  0  0  0  0  0  0  0  0  0
  -22.0410   -9.0410   20.4220 C   0  0  0  0  0  3  0  0  0  0  0  0
  -22.7660  -10.2300   20.2320 C   0  0  0  0  0  3  0  0  0  0  0  0
  -21.7070   -6.9450   21.4680 O   0  0  0  0  0  0  0  0  0  0  0  0
  -21.6580   -6.2120   22.6260 C   0  0  0  0  0  0  0  0  0  0  0  0
  -21.2260   -6.7750   23.8470 C   0  0  0  0  0  3  0  0  0  0  0  0
  -21.1230   -5.9660   24.9970 C   0  0  0  0  0  3  0  0  0  0  0  0
  -21.4440   -4.5970   24.9270 C   0  0  0  0  0  0  0  0  0  0  0  0
  -21.8720   -4.0340   23.7110 C   0  0  0  0  0  3  0  0  0  0  0  0
  -21.9750   -4.8400   22.5640 C   0  0  0  0  0  0  0  0  0  0  0  0
  -22.3670   -4.2890   21.3900 F   0  0  0  0  0  0  0  0  0  0  0  0
  -21.3390   -3.8190   26.0290 F   0  0  0  0  0  0  0  0  0  0  0  0
  -22.7770  -13.5850   21.0940 C   0  0  0  0  0  0  0  0  0  0  0  0
  -22.0540  -12.8910   21.9640 N   0  0  0  0  0  0  0  0  0  0  0  0
  -22.3390  -14.6090   20.5710 O   0  0  0  0  0  0  0  0  0  0  0  0
  -22.4230  -12.0630   22.4080 H   0  0  0  0  0  0  0  0  0  0  0  0
  -21.1170  -13.1940   22.1890 H   0  0  0  0  0  0  0  0  0  0  0  0
  -25.3900  -15.2570   20.2700 N   0  0  0  0  0  0  0  0  0  0  0  0
  -24.6060  -15.8910   20.3870 H   0  0  0  0  0  0  0  0  0  0  0  0
  -26.2360  -15.7180   19.9600 H   0  0  0  0  0  0  0  0  0  0  0  0
  -28.2010  -25.1140   20.7950 C   0  0  0  0  0  2  0  0  0  0  0  0
  -28.3450  -26.4910   20.2530 O   0  0  0  0  0  0  0  0  0  0  0  0
  -24.5970  -31.8920   23.2510 C   0  0  0  0  0  0  0  0  0  0  0  0
  -27.2240  -27.3280   20.2400 C   0  0  0  0  0  0  0  0  0  0  0  0
  -23.3980  -30.4810   21.6150 C   0  0  0  0  0  3  0  0  0  0  0  0
  -24.8580  -28.9240   20.2050 C   0  0  0  0  0  0  0  0  0  0  0  0
  -25.9370  -30.8130   21.4300 C   0  0  0  0  0  2  0  0  0  0  0  0
  -26.0240  -29.4300   20.7940 C   0  0  0  0  0  0  0  0  0  0  0  0
  -27.2140  -28.6460   20.7940 C   0  0  0  0  0  3  0  0  0  0  0  0
  -26.0390  -26.8650   19.6390 C   0  0  0  0  0  3  0  0  0  0  0  0
  -24.8670  -27.6460   19.6180 C   0  0  0  0  0  3  0  0  0  0  0  0
  -23.6190  -29.7980   20.2390 C   0  0  0  0  0  2  0  0  0  0  0  0
  -24.6630  -31.0780   22.1570 N   0  0  0  0  0  0  0  0  0  0  0  0
  -23.5120  -32.1690   23.7830 O   0  0  0  0  0  0  0  0  0  0  0  0
  -22.7380  -29.4660   22.5790 C   0  0  0  0  0  0  0  0  0  0  0  0
  -21.4120  -29.2870   22.4530 N   0  0  0  0  0  0  0  0  0  0  0  0
  -23.4180  -28.8430   23.4000 O   0  0  0  0  0  0  0  0  0  0  0  0
  -20.9240  -29.8480   21.7710 H   0  0  0  0  0  0  0  0  0  0  0  0
  -18.0340  -28.0920   22.9490 C   0  0  0  0  0  0  0  0  0  0  0  0
  -20.5930  -28.3520   23.2260 C   0  0  0  0  0  3  0  0  0  0  0  0
  -20.6970  -26.9180   22.6550 C   0  0  0  0  0  2  0  0  0  0  0  0
  -19.5960  -26.5920   21.6390 C   0  0  0  0  0  2  0  0  0  0  0  0
  -18.2120  -26.7400   22.2790 C   0  0  0  0  0  2  0  0  0  0  0  0
  -19.1520  -28.8560   23.3780 C   0  0  0  0  0  0  0  0  0  0  0  0
  -18.9320  -30.1210   23.9640 C   0  0  0  0  0  3  0  0  0  0  0  0
  -17.6270  -30.6230   24.1250 C   0  0  0  0  0  3  0  0  0  0  0  0
  -16.5240  -29.8560   23.7120 C   0  0  0  0  0  3  0  0  0  0  0  0
  -16.7280  -28.5930   23.1290 C   0  0  0  0  0  3  0  0  0  0  0  0
  -25.8780  -32.5310   23.8740 C   0  0  0  0  0  3  0  0  0  0  0  0
  -25.5670  -33.9320   24.1910 N   0  0  0  0  0  0  0  0  0  0  0  0
  -25.9040  -34.9780   23.4250 C   0  0  0  0  0  0  0  0  0  0  0  0
  -26.5780  -34.8640   22.3990 O   0  0  0  0  0  0  0  0  0  0  0  0
  -24.9720  -34.0960   24.9900 H   0  0  0  0  0  0  0  0  0  0  0  0
  -24.1820  -36.7720   23.0460 C   0  0  0  0  0  1  0  0  0  0  0  0
  -25.4150  -36.3700   23.8700 C   0  0  0  0  0  3  0  0  0  0  0  0
  -27.5430  -37.2560   24.7160 C   0  0  0  0  0  1  0  0  0  0  0  0
  -26.4500  -37.4210   23.7610 N   0  0  0  0  0  0  0  0  0  0  0  0
  -26.0440  -38.3430   23.8990 H   0  0  0  0  0  0  0  0  0  0  0  0
  -26.3860  -31.7720   25.1600 C   0  0  1  0  0  0  0  0  0  0  0  0
  -25.2870  -31.5470   26.2240 C   0  0  0  0  0  1  0  0  0  0  0  0
  -26.9720  -30.3910   24.7850 C   0  0  0  0  0  1  0  0  0  0  0  0
  -27.5320  -32.5730   25.8230 C   0  0  0  0  0  1  0  0  0  0  0  0
  2  5  1  0
  3  2  1  0
  3  1  1  0
  4  1  1  0
  5  4  1  0
  5 51  1  0
  6  8  1  0
  6  3  1  0
  6  7  1  0
  7 10  1  0
  7  4  1  0
  9 13  1  0
  9 12  1  0
 10  9  1  0
 12 11  1  0
 13 14  1  0
 15 14  1  0
 16 21  1  0
 17 18  1  0
 17 16  1  0
 19 18  1  0
 19 26  1  0
 19 20  1  0
 21 15  1  0
 21 20  1  0
 22 15  2  0
 23 24  2  0
 24 43  1  0
 25 24  1  0
 25 28  1  0
 26 23  1  0
 26 27  1  0
 27 25  2  0
 28 29  1  0
 29 30  2  0
 31 34  1  0
 31 30  1  0
 32 31  2  0
 33 32  1  0
 33 28  2  0
 34 35  1  0
 35 36  1  0
 36 37  2  0
 38 37  1  0
 38 42  1  0
 39 38  2  0
 40 35  2  0
 40 39  1  0
 41 40  1  0
 43 44  1  0
 44 47  1  0
 44 46  1  0
 45 43  2  0
 48 49  1  0
 48 23  1  0
 50 48  1  0
 52 51  1  0
 53 64  2  0
 54 52  1  0
 54 59  1  0
 55 63  1  0
 55 65  1  0
 56 62  1  0
 56 58  1  0
 57 63  1  0
 58 59  2  0
 58 57  1  0
 60 54  2  0
 61 60  1  0
 61 56  2  0
 62 55  1  0
 63 53  1  0
 65 67  2  0
 66 65  1  0
 68 66  1  0
 69 78  2  0
 69 74  1  0
 70 66  1  0
 70 74  1  0
 71 70  1  0
 72 73  1  0
 72 71  1  0
 73 69  1  0
 74 75  2  0
 75 76  1  0
 77 76  2  0
 78 77  1  0
 79 53  1  0
 79 80  1  0
 79 89  1  0
 80 83  1  0
 81 85  1  0
 81 80  1  0
 82 81  2  0
 85 84  1  0
 87 85  1  0
 87 88  1  0
 87 86  1  0
 89 92  1  1
 89 90  1  0
 91 89  1  0
M  ISO  4  14 100  15 100  51 101  52 101
M  END
>  <TORSDO>  (23) 
F 21

>  <SCORE>  (23) 
-13.695

>  <name>  (23) 
22

>  <ligand_id>  (23) 
22

>  <original_smiles>  (23) 
[H]c1c([H])c([H])c2c(c1[H])C([H])([H])C([H])([H])C([H])([H])C2([H])N([H])C(=O)C1([H])N(C(=O)C([H])(N([H])C(=O)C([H])(N([H])C([H])([H])[H])C([H])([H])[H])C(C([H])([H])[H])(C([H])([H])[H])C([H])([H])[H])C([H])([H])c2c([H])c(OC([H])([H])C3([H])C([H])([H])C4([H])C([H])([H])C3([H])C([H])(N=C(C([H])([H])C([H])([H])[H])C([H])([H])C([H])([H])C(=O)N3C([H])([H])C([H])([H])C([H])([H])C([H])(n5nc(-c6c([H])c([H])c(Oc7c([H])c([H])c(F)c([H])c7F)c([H])c6[H])c(C(=O)N([H])[H])c5N([H])[H])C3([H])[H])C4([H])C([H])([H])[H])c([H])c([H])c2C1([H])[H]

>  <smiles>  (23) 
[H]c1c([H])c([H])c2c(c1[H])C([H])([H])C([H])([H])C([H])([H])C2([H])N([H])C(=O)C1([H])N(C(=O)C([H])(N([H])C(=O)C([H])(N([H])C([H])([H])[H])C([H])([H])[H])C(C([H])([H])[H])(C([H])([H])[H])C([H])([H])[H])C([H])([H])c2c([H])c(OC([H])([H])C3([H])C([H])([H])C4([H])C([H])([H])C3([H])C([H])(N=C(C([H])([H])C([H])([H])[H])C([H])([H])C([H])([H])C(=O)N3C([H])([H])C([H])([H])C([H])([H])C([H])(n5nc(-c6c([H])c([H])c(Oc7c([H])c([H])c(F)c([H])c7F)c([H])c6[H])c(C(=O)N([H])[H])c5N([H])[H])C3([H])[H])C4([H])C([H])([H])[H])c([H])c([H])c2C1([H])[H]

$$$$
23:0:0
     RDKit          3D

 94102  0  0  1  0  0  0  0  0999 V2000
  -32.5350  -20.1570   21.9380 C   0  0  0  0  0  2  0  0  0  0  0  0
  -32.3480  -18.8170   21.1840 C   0  0  0  0  0  2  0  0  0  0  0  0
  -31.0140  -15.7440   20.5910 C   0  0  0  0  0  0  0  0  0  0  0  0
  -31.4490  -15.6050   21.8490 C   0  0  0  0  0  0  0  0  0  0  0  0
  -30.5410  -17.1640   20.3550 C   0  0  0  0  0  3  0  0  0  0  0  0
  -31.4220  -16.8760   22.6610 C   0  0  0  0  0  3  0  0  0  0  0  0
  -31.1050  -17.9620   21.5760 C   0  0  0  0  0  3  0  0  0  0  0  0
  -29.0070  -17.2210   20.3060 C   0  0  0  0  0  1  0  0  0  0  0  0
  -30.3720  -16.8170   23.7840 C   0  0  0  0  0  1  0  0  0  0  0  0
  -31.3140  -14.8130   19.5080 C   0  0  0  0  0  0  0  0  0  0  0  0
  -30.8870  -12.6200   18.4610 C   0  0  0  0  0  2  0  0  0  0  0  0
  -29.8440  -12.7370   17.3350 C   0  0  0  0  0  2  0  0  0  0  0  0
  -28.4160  -12.5980   17.9020 C   0  0  0  0  0  2  0  0  0  0  0  0
  -28.1730  -13.5190   19.1290 C   0  0  0  0  0  3  0  0  0  0  0  0
  -29.3200  -13.3890   20.1560 C   0  0  0  0  0  2  0  0  0  0  0  0
  -30.5980  -13.6550   19.4670 N   0  0  0  0  0  0  0  0  0  0  0  0
  -32.2120  -15.0530   18.6940 O   0  0  0  0  0  0  0  0  0  0  0  0
  -25.8650  -14.1540   20.0910 C   0  0  0  0  0  0  0  0  0  0  0  0
  -24.8310  -13.3940   20.5620 C   0  0  0  0  0  0  0  0  0  0  0  0
  -25.2580  -12.0330   20.4530 C   0  0  0  0  0  0  0  0  0  0  0  0
  -26.8660  -13.2590   19.7370 N   0  0  0  0  0  0  0  0  0  0  0  0
  -26.5050  -11.9790   20.0040 N   0  0  0  0  0  0  0  0  0  0  0  0
  -24.5340  -10.7790   20.7000 C   0  0  0  0  0  0  0  0  0  0  0  0
  -24.9360   -9.8830   21.7150 C   0  0  0  0  0  3  0  0  0  0  0  0
  -24.2110   -8.6930   21.9490 C   0  0  0  0  0  3  0  0  0  0  0  0
  -23.0750   -8.3900   21.1630 C   0  0  0  0  0  0  0  0  0  0  0  0
  -22.6950   -9.2740   20.1390 C   0  0  0  0  0  3  0  0  0  0  0  0
  -23.4200  -10.4530   19.9050 C   0  0  0  0  0  3  0  0  0  0  0  0
  -22.3290   -7.2430   21.2940 O   0  0  0  0  0  0  0  0  0  0  0  0
  -22.0540   -6.7020   22.5250 C   0  0  0  0  0  0  0  0  0  0  0  0
  -21.4920   -7.4690   23.5670 C   0  0  0  0  0  3  0  0  0  0  0  0
  -21.1600   -6.8580   24.7920 C   0  0  0  0  0  3  0  0  0  0  0  0
  -21.3820   -5.4800   24.9750 C   0  0  0  0  0  0  0  0  0  0  0  0
  -21.9340   -4.7110   23.9350 C   0  0  0  0  0  3  0  0  0  0  0  0
  -22.2680   -5.3210   22.7130 C   0  0  0  0  0  0  0  0  0  0  0  0
  -22.7830   -4.5740   21.7060 F   0  0  0  0  0  0  0  0  0  0  0  0
  -21.0540   -4.8880   26.1470 F   0  0  0  0  0  0  0  0  0  0  0  0
  -23.4800  -13.8890   20.9930 C   0  0  0  0  0  0  0  0  0  0  0  0
  -22.8700  -13.2360   21.9760 N   0  0  0  0  0  0  0  0  0  0  0  0
  -22.9780  -14.8970   20.4950 O   0  0  0  0  0  0  0  0  0  0  0  0
  -23.2880  -12.4240   22.4020 H   0  0  0  0  0  0  0  0  0  0  0  0
  -21.9660  -13.5480   22.3020 H   0  0  0  0  0  0  0  0  0  0  0  0
  -26.0340  -15.5240   19.9200 N   0  0  0  0  0  0  0  0  0  0  0  0
  -25.3140  -16.1980   20.1520 H   0  0  0  0  0  0  0  0  0  0  0  0
  -26.8640  -15.9520   19.5260 H   0  0  0  0  0  0  0  0  0  0  0  0
  -32.0790  -14.5730   22.4330 O   0  0  0  0  0  0  0  0  0  0  0  0
  -32.0350  -13.8260   21.8470 H   0  0  0  0  0  0  0  0  0  0  0  0
  -32.2210  -21.4590   21.1630 C   0  0  0  0  0  2  0  0  0  0  0  0
  -30.7300  -21.7630   20.9180 C   0  0  0  0  0  2  0  0  0  0  0  0
  -30.5080  -23.0230   20.0420 C   0  0  0  0  0  2  0  0  0  0  0  0
  -29.9190  -24.2380   20.7950 C   0  0  0  0  0  2  0  0  0  0  0  0
  -29.6560  -25.4570   19.8810 C   0  0  0  0  0  2  0  0  0  0  0  0
  -28.9710  -26.6300   20.6150 C   0  0  0  0  0  2  0  0  0  0  0  0
  -28.7710  -27.7410   19.7380 O   0  0  0  0  0  0  0  0  0  0  0  0
  -24.8380  -31.9370   23.9400 C   0  0  0  0  0  0  0  0  0  0  0  0
  -27.5870  -28.4110   19.9330 C   0  0  0  0  0  0  0  0  0  0  0  0
  -23.6610  -30.9290   22.0110 C   0  0  0  0  0  3  0  0  0  0  0  0
  -25.1510  -29.7940   20.2770 C   0  0  0  0  0  0  0  0  0  0  0  0
  -26.1740  -31.3870   21.9110 C   0  0  0  0  0  2  0  0  0  0  0  0
  -26.2940  -30.2010   20.9780 C   0  0  0  0  0  0  0  0  0  0  0  0
  -27.5170  -29.5170   20.8060 C   0  0  0  0  0  3  0  0  0  0  0  0
  -26.4340  -28.0090   19.2300 C   0  0  0  0  0  3  0  0  0  0  0  0
  -25.2150  -28.6950   19.3990 C   0  0  0  0  0  3  0  0  0  0  0  0
  -23.8860  -30.5900   20.5130 C   0  0  0  0  0  2  0  0  0  0  0  0
  -24.9100  -31.4180   22.6820 N   0  0  0  0  0  0  0  0  0  0  0  0
  -23.7530  -32.0520   24.5260 O   0  0  0  0  0  0  0  0  0  0  0  0
  -23.0350  -29.6980   22.7060 C   0  0  0  0  0  0  0  0  0  0  0  0
  -21.7410  -29.4550   22.4400 N   0  0  0  0  0  0  0  0  0  0  0  0
  -23.7120  -28.9740   23.4400 O   0  0  0  0  0  0  0  0  0  0  0  0
  -21.2510  -30.1030   21.8380 H   0  0  0  0  0  0  0  0  0  0  0  0
  -18.4800  -27.9070   22.3420 C   0  0  0  0  0  0  0  0  0  0  0  0
  -20.9560  -28.3330   22.9490 C   0  0  0  0  0  3  0  0  0  0  0  0
  -21.2650  -27.0350   22.1670 C   0  0  0  0  0  2  0  0  0  0  0  0
  -20.3110  -26.7970   20.9920 C   0  0  0  0  0  2  0  0  0  0  0  0
  -18.8640  -26.7110   21.4850 C   0  0  0  0  0  2  0  0  0  0  0  0
  -19.4640  -28.6760   23.0160 C   0  0  0  0  0  0  0  0  0  0  0  0
  -19.0580  -29.7980   23.7720 C   0  0  0  0  0  3  0  0  0  0  0  0
  -17.6980  -30.1530   23.8610 C   0  0  0  0  0  3  0  0  0  0  0  0
  -16.7280  -29.3780   23.2040 C   0  0  0  0  0  3  0  0  0  0  0  0
  -17.1170  -28.2570   22.4500 C   0  0  0  0  0  3  0  0  0  0  0  0
  -26.1130  -32.4330   24.6940 C   0  0  0  0  0  3  0  0  0  0  0  0
  -26.4890  -31.5370   25.9380 C   0  0  1  0  0  0  0  0  0  0  0  0
  -25.2940  -31.2400   26.8730 C   0  0  0  0  0  1  0  0  0  0  0  0
  -27.0780  -30.1830   25.4750 C   0  0  0  0  0  1  0  0  0  0  0  0
  -27.5850  -32.2360   26.7770 C   0  0  0  0  0  1  0  0  0  0  0  0
  -25.8690  -33.8220   25.1060 N   0  0  0  0  0  0  0  0  0  0  0  0
  -26.3490  -34.8990   24.4700 C   0  0  0  0  0  0  0  0  0  0  0  0
  -27.1140  -34.8210   23.5040 O   0  0  0  0  0  0  0  0  0  0  0  0
  -25.2090  -33.9610   25.8570 H   0  0  0  0  0  0  0  0  0  0  0  0
  -24.7930  -36.8380   24.0960 C   0  0  0  0  0  1  0  0  0  0  0  0
  -25.9130  -36.2820   24.9880 C   0  0  0  0  0  3  0  0  0  0  0  0
  -28.0060  -36.9390   26.0910 C   0  0  0  0  0  1  0  0  0  0  0  0
  -27.0200  -37.2600   25.0630 N   0  0  0  0  0  0  0  0  0  0  0  0
  -26.6640  -38.1940   25.2450 H   0  0  0  0  0  0  0  0  0  0  0  0
  2  1  1  0
  3  4  2  0
  4 46  1  0
  4  6  1  0
  5  8  1  0
  5  3  1  0
  5  7  1  0
  6  9  1  0
  7  2  1  0
  7  6  1  0
 10  3  1  0
 11 16  1  0
 12 13  1  0
 12 11  1  0
 14 13  1  0
 14 21  1  0
 14 15  1  0
 16 10  1  0
 16 15  1  0
 17 10  2  0
 18 19  2  0
 19 38  1  0
 20 19  1  0
 20 23  1  0
 21 22  1  0
 21 18  1  0
 22 20  2  0
 23 24  1  0
 24 25  2  0
 26 29  1  0
 26 25  1  0
 27 26  2  0
 28 27  1  0
 28 23  2  0
 29 30  1  0
 30 35  2  0
 30 31  1  0
 31 32  2  0
 32 33  1  0
 33 37  1  0
 34 33  2  0
 35 34  1  0
 36 35  1  0
 38 39  1  0
 39 42  1  0
 39 41  1  0
 40 38  2  0
 43 18  1  0
 43 44  1  0
 45 43  1  0
 47 46  1  0
 48  1  1  0
 49 48  1  0
 50 51  1  0
 50 49  1  0
 52 53  1  0
 52 51  1  0
 54 56  1  0
 54 53  1  0
 55 66  2  0
 56 61  1  0
 57 65  1  0
 57 67  1  0
 58 64  1  0
 58 60  1  0
 59 65  1  0
 60 59  1  0
 61 60  2  0
 62 63  1  0
 62 56  2  0
 63 58  2  0
 64 57  1  0
 65 55  1  0
 67 69  2  0
 68 67  1  0
 70 68  1  0
 71 80  2  0
 71 76  1  0
 72 68  1  0
 72 76  1  0
 73 72  1  0
 74 75  1  0
 74 73  1  0
 75 71  1  0
 76 77  2  0
 77 78  1  0
 79 78  2  0
 80 79  1  0
 81 55  1  0
 81 86  1  0
 81 82  1  0
 82 85  1  1
 82 83  1  0
 84 82  1  0
 86 89  1  0
 87 91  1  0
 87 86  1  0
 88 87  2  0
 91 90  1  0
 91 93  1  0
 93 94  1  0
 93 92  1  0
M  ISO  4   3 100  10 100  53 101  54 101
M  END
>  <TORSDO>  (24) 
F 25

>  <SCORE>  (24) 
-6.384

>  <name>  (24) 
23

>  <ligand_id>  (24) 
23

>  <original_smiles>  (24) 
[H]OC1=C(C(=O)N2C([H])([H])C([H])([H])C([H])([H])C([H])(n3nc(-c4c([H])c([H])c(Oc5c([H])c([H])c(F)c([H])c5F)c([H])c4[H])c(C(=O)N([H])[H])c3N([H])[H])C2([H])[H])C([H])(C([H])([H])[H])C([H])(C([H])([H])C([H])([H])C([H])([H])C([H])([H])C([H])([H])C([H])([H])C([H])([H])C([H])([H])Oc2c([H])c([H])c3c(c2[H])C([H])([H])N(C(=O)C([H])(N([H])C(=O)C([H])(N([H])C([H])([H])[H])C([H])([H])[H])C(C([H])([H])[H])(C([H])([H])[H])C([H])([H])[H])C([H])(C(=O)N([H])C2([H])c4c([H])c([H])c([H])c([H])c4C([H])([H])C([H])([H])C2([H])[H])C3([H])[H])C1([H])C([H])([H])[H]

>  <smiles>  (24) 
[H]OC1=C(C(=O)N2C([H])([H])C([H])([H])C([H])([H])C([H])(n3nc(-c4c([H])c([H])c(Oc5c([H])c([H])c(F)c([H])c5F)c([H])c4[H])c(C(=O)N([H])[H])c3N([H])[H])C2([H])[H])C([H])(C([H])([H])[H])C([H])(C([H])([H])C([H])([H])C([H])([H])C([H])([H])C([H])([H])C([H])([H])C([H])([H])C([H])([H])Oc2c([H])c([H])c3c(c2[H])C([H])([H])N(C(=O)C([H])(N([H])C(=O)C([H])(N([H])C([H])([H])[H])C([H])([H])[H])C(C([H])([H])[H])(C([H])([H])[H])C([H])([H])[H])C([H])(C(=O)N([H])C2([H])c4c([H])c([H])c([H])c([H])c4C([H])([H])C([H])([H])C2([H])[H])C3([H])[H])C1([H])C([H])([H])[H]

$$$$
24:0:0
     RDKit          3D

 96105  0  0  1  0  0  0  0  0999 V2000
  -31.8480  -19.1710   19.3210 C   0  0  0  0  0  1  0  0  0  0  0  0
  -30.9360  -19.4800   20.5220 C   0  0  0  0  0  3  0  0  0  0  0  0
  -29.1920  -19.1290   25.6140 C   0  0  0  0  0  2  0  0  0  0  0  0
  -29.5250  -20.4580   24.9020 C   0  0  0  0  0  2  0  0  0  0  0  0
  -30.2790  -18.0500   25.4180 C   0  0  0  0  0  2  0  0  0  0  0  0
  -30.6290  -20.2850   23.8510 C   0  0  0  0  0  2  0  0  0  0  0  0
  -31.7690  -17.0590   23.4740 C   0  0  0  0  0  2  0  0  0  0  0  0
  -30.4600  -17.7440   23.9020 C   0  0  0  0  0  3  0  0  0  0  0  0
  -30.3820  -19.0020   23.0110 C   0  0  0  0  0  3  0  0  0  0  0  0
  -31.8960  -17.2930   21.9440 C   0  0  0  0  0  3  0  0  0  0  0  0
  -31.4010  -18.7950   21.8600 C   0  0  0  0  0  3  0  0  0  0  0  0
  -31.1490  -16.1530   21.1470 C   0  0  0  0  0  2  0  0  0  0  0  0
  -31.9330  -14.8200   20.7620 C   0  0  0  0  0  0  0  0  0  0  0  0
  -31.6220  -12.7490   19.4220 C   0  0  0  0  0  2  0  0  0  0  0  0
  -30.7930  -13.1230   18.1710 C   0  0  0  0  0  2  0  0  0  0  0  0
  -29.2850  -13.0900   18.4940 C   0  0  0  0  0  2  0  0  0  0  0  0
  -28.9400  -13.8630   19.7910 C   0  0  0  0  0  3  0  0  0  0  0  0
  -29.8640  -13.4420   20.9510 C   0  0  0  0  0  2  0  0  0  0  0  0
  -31.2390  -13.6710   20.5140 N   0  0  0  0  0  0  0  0  0  0  0  0
  -33.1320  -14.8950   20.4660 O   0  0  0  0  0  0  0  0  0  0  0  0
  -26.5670  -14.7050   20.2840 C   0  0  0  0  0  0  0  0  0  0  0  0
  -25.4130  -14.0390   20.6130 C   0  0  0  0  0  0  0  0  0  0  0  0
  -25.7650  -12.6590   20.6890 C   0  0  0  0  0  0  0  0  0  0  0  0
  -27.5410  -13.7280   20.1660 N   0  0  0  0  0  0  0  0  0  0  0  0
  -27.0610  -12.4980   20.4710 N   0  0  0  0  0  0  0  0  0  0  0  0
  -24.9310  -11.4690   20.8900 C   0  0  0  0  0  0  0  0  0  0  0  0
  -25.1970  -10.5490   21.9270 C   0  0  0  0  0  3  0  0  0  0  0  0
  -24.3710   -9.4170   22.1050 C   0  0  0  0  0  3  0  0  0  0  0  0
  -23.2690   -9.2000   21.2430 C   0  0  0  0  0  0  0  0  0  0  0  0
  -23.0250  -10.1110   20.1970 C   0  0  0  0  0  3  0  0  0  0  0  0
  -23.8510  -11.2330   20.0180 C   0  0  0  0  0  3  0  0  0  0  0  0
  -22.4230   -8.1210   21.3290 O   0  0  0  0  0  0  0  0  0  0  0  0
  -22.1440   -7.5190   22.5310 C   0  0  0  0  0  0  0  0  0  0  0  0
  -21.5980   -8.2360   23.6170 C   0  0  0  0  0  3  0  0  0  0  0  0
  -21.2600   -7.5600   24.8090 C   0  0  0  0  0  3  0  0  0  0  0  0
  -21.4620   -6.1710   24.9140 C   0  0  0  0  0  0  0  0  0  0  0  0
  -22.0020   -5.4550   23.8320 C   0  0  0  0  0  3  0  0  0  0  0  0
  -22.3400   -6.1260   22.6420 C   0  0  0  0  0  0  0  0  0  0  0  0
  -22.8390   -5.4270   21.5960 F   0  0  0  0  0  0  0  0  0  0  0  0
  -21.1310   -5.5220   26.0560 F   0  0  0  0  0  0  0  0  0  0  0  0
  -24.0470  -14.6440   20.7490 C   0  0  0  0  0  0  0  0  0  0  0  0
  -23.2100  -14.0770   21.6150 N   0  0  0  0  0  0  0  0  0  0  0  0
  -23.7230  -15.6490   20.1190 O   0  0  0  0  0  0  0  0  0  0  0  0
  -23.4800  -13.2690   22.1550 H   0  0  0  0  0  0  0  0  0  0  0  0
  -22.2900  -14.4730   21.7490 H   0  0  0  0  0  0  0  0  0  0  0  0
  -26.8560  -16.0460   20.0610 N   0  0  0  0  0  0  0  0  0  0  0  0
  -26.1490  -16.7700   20.1250 H   0  0  0  0  0  0  0  0  0  0  0  0
  -27.7570  -16.3940   19.7600 H   0  0  0  0  0  0  0  0  0  0  0  0
  -30.8480  -20.9570   20.7300 N   0  0  0  0  0  4  0  0  0  0  0  0
  -30.2940  -21.1090   21.5600 H   0  0  0  0  0  0  0  0  0  0  0  0
  -31.7740  -21.3150   20.9180 H   0  0  0  0  0  0  0  0  0  0  0  0
  -30.2520  -21.8200   19.6760 C   0  0  0  0  0  2  0  0  0  0  0  0
  -29.3230  -22.9050   20.3000 C   0  0  0  0  0  2  0  0  0  0  0  0
  -29.2640  -24.2740   19.5670 C   0  0  0  0  0  2  0  0  0  0  0  0
  -28.7640  -25.4120   20.4900 C   0  0  0  0  0  2  0  0  0  0  0  0
  -28.7710  -26.7070   19.8760 O   0  0  0  0  0  0  0  0  0  0  0  0
  -24.7040  -31.6340   23.0580 C   0  0  0  0  0  0  0  0  0  0  0  0
  -27.5670  -27.3740   19.9060 C   0  0  0  0  0  0  0  0  0  0  0  0
  -23.5730  -30.2030   21.3880 C   0  0  0  0  0  3  0  0  0  0  0  0
  -25.1010  -28.7470   19.9600 C   0  0  0  0  0  0  0  0  0  0  0  0
  -26.0790  -30.6860   21.2040 C   0  0  0  0  0  2  0  0  0  0  0  0
  -26.2320  -29.3270   20.5470 C   0  0  0  0  0  0  0  0  0  0  0  0
  -27.4720  -28.6510   20.5110 C   0  0  0  0  0  3  0  0  0  0  0  0
  -26.4190  -26.8000   19.3220 C   0  0  0  0  0  3  0  0  0  0  0  0
  -25.1870  -27.4820   19.3500 C   0  0  0  0  0  3  0  0  0  0  0  0
  -23.8200  -29.5410   20.0060 C   0  0  0  0  0  2  0  0  0  0  0  0
  -24.8020  -30.8570   21.9430 N   0  0  0  0  0  0  0  0  0  0  0  0
  -23.6110  -31.8400   23.6000 O   0  0  0  0  0  0  0  0  0  0  0  0
  -22.9650  -29.1390   22.3310 C   0  0  0  0  0  0  0  0  0  0  0  0
  -21.6600  -28.8670   22.1690 N   0  0  0  0  0  0  0  0  0  0  0  0
  -23.6670  -28.5640   23.1650 O   0  0  0  0  0  0  0  0  0  0  0  0
  -21.1520  -29.3810   21.4670 H   0  0  0  0  0  0  0  0  0  0  0  0
  -18.3720  -27.4220   22.5700 C   0  0  0  0  0  0  0  0  0  0  0  0
  -20.8920  -27.8710   22.9200 C   0  0  0  0  0  3  0  0  0  0  0  0
  -21.1210  -26.4500   22.3560 C   0  0  0  0  0  2  0  0  0  0  0  0
  -20.0840  -26.0470   21.3040 C   0  0  0  0  0  2  0  0  0  0  0  0
  -18.6730  -26.0900   21.8990 C   0  0  0  0  0  2  0  0  0  0  0  0
  -19.4170  -28.2650   23.0320 C   0  0  0  0  0  0  0  0  0  0  0  0
  -19.0860  -29.5090   23.6150 C   0  0  0  0  0  3  0  0  0  0  0  0
  -17.7430  -29.9170   23.7240 C   0  0  0  0  0  3  0  0  0  0  0  0
  -16.7130  -29.0720   23.2770 C   0  0  0  0  0  3  0  0  0  0  0  0
  -17.0280  -27.8220   22.7140 C   0  0  0  0  0  3  0  0  0  0  0  0
  -25.9550  -32.3200   23.6920 C   0  0  0  0  0  3  0  0  0  0  0  0
  -25.5690  -33.6850   24.0790 N   0  0  0  0  0  0  0  0  0  0  0  0
  -25.8410  -34.7850   23.3610 C   0  0  0  0  0  0  0  0  0  0  0  0
  -26.5110  -34.7580   22.3270 O   0  0  0  0  0  0  0  0  0  0  0  0
  -24.9770  -33.7720   24.8920 H   0  0  0  0  0  0  0  0  0  0  0  0
  -24.0090  -36.4810   23.0700 C   0  0  0  0  0  1  0  0  0  0  0  0
  -25.2750  -36.1260   23.8700 C   0  0  0  0  0  3  0  0  0  0  0  0
  -27.3620  -37.0930   24.7280 C   0  0  0  0  0  1  0  0  0  0  0  0
  -26.2470  -37.2400   23.7950 N   0  0  0  0  0  0  0  0  0  0  0  0
  -25.7940  -38.1330   23.9760 H   0  0  0  0  0  0  0  0  0  0  0  0
  -26.5330  -31.5350   24.9320 C   0  0  1  0  0  0  0  0  0  0  0  0
  -25.4730  -31.1830   25.9980 C   0  0  0  0  0  1  0  0  0  0  0  0
  -27.1920  -30.2140   24.4780 C   0  0  0  0  0  1  0  0  0  0  0  0
  -27.6450  -32.3690   25.6120 C   0  0  0  0  0  1  0  0  0  0  0  0
  2  1  1  0
  2 49  1  0
  4  3  1  0
  5  3  1  0
  6  4  1  0
  8  7  1  0
  8  5  1  0
  9  6  1  0
  9  8  1  0
 10 12  1  0
 10  7  1  0
 11  2  1  0
 11 10  1  0
 11  9  1  0
 13 12  1  0
 14 19  1  0
 15 16  1  0
 15 14  1  0
 17 16  1  0
 17 24  1  0
 17 18  1  0
 19 13  1  0
 19 18  1  0
 20 13  2  0
 21 22  2  0
 22 23  1  0
 22 41  1  0
 23 26  1  0
 24 21  1  0
 24 25  1  0
 25 23  2  0
 26 27  1  0
 27 28  2  0
 29 32  1  0
 29 28  1  0
 30 29  2  0
 31 30  1  0
 31 26  2  0
 32 33  1  0
 33 38  2  0
 33 34  1  0
 34 35  2  0
 35 36  1  0
 36 40  1  0
 37 36  2  0
 38 37  1  0
 39 38  1  0
 41 42  1  0
 42 45  1  0
 42 44  1  0
 43 41  2  0
 46 47  1  0
 46 21  1  0
 48 46  1  0
 49 51  1  0
 49 50  1  0
 52 53  1  0
 52 49  1  0
 54 53  1  0
 54 55  1  0
 56 58  1  0
 56 55  1  0
 57 68  2  0
 58 63  1  0
 59 67  1  0
 59 69  1  0
 60 66  1  0
 60 62  1  0
 61 67  1  0
 62 61  1  0
 63 62  2  0
 64 65  1  0
 64 58  2  0
 65 60  2  0
 66 59  1  0
 67 57  1  0
 69 71  2  0
 70 69  1  0
 72 70  1  0
 73 82  2  0
 73 78  1  0
 74 70  1  0
 74 78  1  0
 75 74  1  0
 76 77  1  0
 76 75  1  0
 77 73  1  0
 78 79  2  0
 79 80  1  0
 81 80  2  0
 82 81  1  0
 83 57  1  0
 83 84  1  0
 83 93  1  0
 84 87  1  0
 85 89  1  0
 85 84  1  0
 86 85  2  0
 89 88  1  0
 91 89  1  0
 91 92  1  0
 91 90  1  0
 93 96  1  1
 93 94  1  0
 95 93  1  0
M  ISO  4  12 100  13 100  55 101  56 101
M  END
>  <TORSDO>  (25) 
F 23

>  <SCORE>  (25) 
-1.665

>  <name>  (25) 
24

>  <ligand_id>  (25) 
24

>  <original_smiles>  (25) 
[H]c1c([H])c([H])c2c(c1[H])C([H])([H])C([H])([H])C([H])([H])C2([H])N([H])C(=O)C1([H])N(C(=O)C([H])(N([H])C(=O)C([H])(N([H])C([H])([H])[H])C([H])([H])[H])C(C([H])([H])[H])(C([H])([H])[H])C([H])([H])[H])C([H])([H])c2c([H])c(OC([H])([H])C([H])([H])C([H])([H])C([H])([H])[N+]([H])([H])C([H])(C([H])([H])[H])C3([H])C([H])(C([H])([H])C(=O)N4C([H])([H])C([H])([H])C([H])([H])C([H])(n5nc(-c6c([H])c([H])c(Oc7c([H])c([H])c(F)c([H])c7F)c([H])c6[H])c(C(=O)N([H])[H])c5N([H])[H])C4([H])[H])C([H])([H])C4([H])C([H])([H])C([H])([H])C([H])([H])C([H])([H])C43[H])c([H])c([H])c2C1([H])[H]

>  <smiles>  (25) 
[H]c1c([H])c([H])c2c(c1[H])C([H])([H])C([H])([H])C([H])([H])C2([H])N([H])C(=O)C1([H])N(C(=O)C([H])(N([H])C(=O)C([H])(N([H])C([H])([H])[H])C([H])([H])[H])C(C([H])([H])[H])(C([H])([H])[H])C([H])([H])[H])C([H])([H])c2c([H])c(OC([H])([H])C([H])([H])C([H])([H])C([H])([H])[N+]([H])([H])C([H])(C([H])([H])[H])C3([H])C([H])(C([H])([H])C(=O)N4C([H])([H])C([H])([H])C([H])([H])C([H])(n5nc(-c6c([H])c([H])c(Oc7c([H])c([H])c(F)c([H])c7F)c([H])c6[H])c(C(=O)N([H])[H])c5N([H])[H])C4([H])[H])C([H])([H])C4([H])C([H])([H])C([H])([H])C([H])([H])C([H])([H])C43[H])c([H])c([H])c2C1([H])[H]

$$$$
25:0:0
     RDKit          3D

 84 92  0  0  1  0  0  0  0  0999 V2000
  -28.8670  -21.4890   19.1420 C   0  0  0  0  0  2  0  0  0  0  0  0
  -28.7560  -20.5700   20.3400 C   0  0  0  0  0  3  0  0  0  0  0  0
  -28.9130  -22.4430   20.3180 C   0  0  1  0  0  0  0  0  0  0  0  0
  -30.2310  -22.8900   20.9120 C   0  0  0  0  0  1  0  0  0  0  0  0
  -29.7260  -18.9810   20.2970 C   0  0  0  0  0  3  0  0  0  0  0  0
  -29.3900  -17.1370   20.4580 C   0  0  0  0  0  3  0  0  0  0  0  0
  -30.2620  -15.5400   20.2690 C   0  0  0  0  0  0  0  0  0  0  0  0
  -30.3480  -13.0390   19.4100 C   0  0  0  0  0  2  0  0  0  0  0  0
  -29.4340  -12.7600   18.1830 C   0  0  0  0  0  2  0  0  0  0  0  0
  -27.9950  -12.4410   18.6230 C   0  0  0  0  0  2  0  0  0  0  0  0
  -27.5160  -13.4030   19.7350 C   0  0  0  0  0  3  0  0  0  0  0  0
  -28.5580  -13.6090   20.8550 C   0  0  0  0  0  2  0  0  0  0  0  0
  -29.7690  -14.1800   20.2350 N   0  0  0  0  0  0  0  0  0  0  0  0
  -31.4810  -15.5320   20.0230 O   0  0  0  0  0  0  0  0  0  0  0  0
  -25.1490  -13.9260   20.5070 C   0  0  0  0  0  0  0  0  0  0  0  0
  -24.0940  -13.1380   20.8710 C   0  0  0  0  0  0  0  0  0  0  0  0
  -24.5710  -11.7910   20.8280 C   0  0  0  0  0  0  0  0  0  0  0  0
  -26.1970  -13.0620   20.2510 N   0  0  0  0  0  0  0  0  0  0  0  0
  -25.8640  -11.7710   20.5130 N   0  0  0  0  0  0  0  0  0  0  0  0
  -23.8520  -10.5230   21.0120 C   0  0  0  0  0  0  0  0  0  0  0  0
  -24.2780   -9.5580   21.9510 C   0  0  0  0  0  3  0  0  0  0  0  0
  -23.5550   -8.3580   22.1230 C   0  0  0  0  0  3  0  0  0  0  0  0
  -22.3920   -8.1130   21.3550 C   0  0  0  0  0  0  0  0  0  0  0  0
  -21.9850   -9.0660   20.4050 C   0  0  0  0  0  3  0  0  0  0  0  0
  -22.7080  -10.2580   20.2320 C   0  0  0  0  0  3  0  0  0  0  0  0
  -21.6420   -6.9630   21.4360 O   0  0  0  0  0  0  0  0  0  0  0  0
  -21.5660   -6.2330   22.5950 C   0  0  0  0  0  0  0  0  0  0  0  0
  -21.0770   -6.7910   23.7960 C   0  0  0  0  0  3  0  0  0  0  0  0
  -20.9500   -5.9860   24.9450 C   0  0  0  0  0  3  0  0  0  0  0  0
  -21.3010   -4.6240   24.8940 C   0  0  0  0  0  0  0  0  0  0  0  0
  -21.7830   -4.0650   23.6970 C   0  0  0  0  0  3  0  0  0  0  0  0
  -21.9120   -4.8680   22.5500 C   0  0  0  0  0  0  0  0  0  0  0  0
  -22.3560   -4.3190   21.3940 F   0  0  0  0  0  0  0  0  0  0  0  0
  -21.1720   -3.8480   25.9960 F   0  0  0  0  0  0  0  0  0  0  0  0
  -22.6940  -13.6030   21.1430 C   0  0  0  0  0  0  0  0  0  0  0  0
  -21.9720  -12.9020   22.0090 N   0  0  0  0  0  0  0  0  0  0  0  0
  -22.2500  -14.6270   20.6240 O   0  0  0  0  0  0  0  0  0  0  0  0
  -22.3460  -12.0740   22.4510 H   0  0  0  0  0  0  0  0  0  0  0  0
  -21.0320  -13.1960   22.2350 H   0  0  0  0  0  0  0  0  0  0  0  0
  -25.3010  -15.3000   20.3440 N   0  0  0  0  0  0  0  0  0  0  0  0
  -24.5310  -15.9470   20.4730 H   0  0  0  0  0  0  0  0  0  0  0  0
  -26.1490  -15.7520   20.0280 H   0  0  0  0  0  0  0  0  0  0  0  0
  -27.9410  -24.0270   20.1770 C   0  0  0  0  0  2  0  0  0  0  0  0
  -28.1570  -25.7230   20.2780 O   0  0  0  0  0  0  0  0  0  0  0  0
  -24.6310  -31.8760   23.2100 C   0  0  0  0  0  0  0  0  0  0  0  0
  -27.1650  -26.8810   20.2220 C   0  0  0  0  0  0  0  0  0  0  0  0
  -23.4390  -30.4810   21.5720 C   0  0  0  0  0  3  0  0  0  0  0  0
  -24.8840  -28.8460   20.1610 C   0  0  0  0  0  0  0  0  0  0  0  0
  -26.0130  -30.6490   21.4430 C   0  0  0  0  0  2  0  0  0  0  0  0
  -26.0760  -29.2250   20.7890 C   0  0  0  0  0  0  0  0  0  0  0  0
  -27.2060  -28.2670   20.7880 C   0  0  0  0  0  3  0  0  0  0  0  0
  -25.9380  -26.6820   19.5430 C   0  0  0  0  0  3  0  0  0  0  0  0
  -24.8470  -27.5990   19.5150 C   0  0  0  0  0  3  0  0  0  0  0  0
  -23.6740  -29.7870   20.2010 C   0  0  0  0  0  2  0  0  0  0  0  0
  -24.7170  -31.0320   22.1280 N   0  0  0  0  0  0  0  0  0  0  0  0
  -23.5400  -32.1750   23.7230 O   0  0  0  0  0  0  0  0  0  0  0  0
  -22.7270  -29.4990   22.5420 C   0  0  0  0  0  0  0  0  0  0  0  0
  -21.3950  -29.3460   22.4170 N   0  0  0  0  0  0  0  0  0  0  0  0
  -23.3840  -28.8720   23.3770 O   0  0  0  0  0  0  0  0  0  0  0  0
  -20.9160  -29.9020   21.7220 H   0  0  0  0  0  0  0  0  0  0  0  0
  -18.0060  -28.1480   22.9280 C   0  0  0  0  0  0  0  0  0  0  0  0
  -20.5660  -28.4130   23.1900 C   0  0  0  0  0  3  0  0  0  0  0  0
  -20.6640  -26.9780   22.6200 C   0  0  0  0  0  2  0  0  0  0  0  0
  -19.5640  -26.6540   21.6050 C   0  0  0  0  0  2  0  0  0  0  0  0
  -18.1810  -26.8000   22.2490 C   0  0  0  0  0  2  0  0  0  0  0  0
  -19.1240  -28.9120   23.3550 C   0  0  0  0  0  0  0  0  0  0  0  0
  -18.9030  -30.1700   23.9540 C   0  0  0  0  0  3  0  0  0  0  0  0
  -17.5960  -30.6660   24.1270 C   0  0  0  0  0  3  0  0  0  0  0  0
  -16.4930  -29.9010   23.7120 C   0  0  0  0  0  3  0  0  0  0  0  0
  -16.6990  -28.6430   23.1190 C   0  0  0  0  0  3  0  0  0  0  0  0
  -25.8980  -32.5210   23.8480 C   0  0  0  0  0  3  0  0  0  0  0  0
  -26.3870  -31.7680   25.1490 C   0  0  1  0  0  0  0  0  0  0  0  0
  -25.2750  -31.5600   26.2040 C   0  0  0  0  0  1  0  0  0  0  0  0
  -26.9630  -30.3770   24.8000 C   0  0  0  0  0  1  0  0  0  0  0  0
  -27.5340  -32.5640   25.8140 C   0  0  0  0  0  1  0  0  0  0  0  0
  -25.5840  -33.9260   24.1710 N   0  0  0  0  0  0  0  0  0  0  0  0
  -25.9190  -34.9820   23.4200 C   0  0  0  0  0  0  0  0  0  0  0  0
  -26.5840  -34.8780   22.3860 O   0  0  0  0  0  0  0  0  0  0  0  0
  -24.9900  -34.0800   24.9720 H   0  0  0  0  0  0  0  0  0  0  0  0
  -24.1970  -36.7930   23.0890 C   0  0  0  0  0  1  0  0  0  0  0  0
  -25.4450  -36.3770   23.8840 C   0  0  0  0  0  3  0  0  0  0  0  0
  -27.5900  -37.2590   24.6940 C   0  0  0  0  0  1  0  0  0  0  0  0
  -26.4820  -37.4260   23.7580 N   0  0  0  0  0  0  0  0  0  0  0  0
  -26.0810  -38.3470   23.9050 H   0  0  0  0  0  0  0  0  0  0  0  0
  1  3  1  0
  1  2  1  0
  2  5  1  0
  3  2  1  0
  3  4  1  1
  5  6  2  0
  7  6  1  0
  8 13  1  0
  9 10  1  0
  9  8  1  0
 11 10  1  0
 11 18  1  0
 11 12  1  0
 13  7  1  0
 13 12  1  0
 14  7  2  0
 15 16  2  0
 16 35  1  0
 17 16  1  0
 17 20  1  0
 18 15  1  0
 18 19  1  0
 19 17  2  0
 20 21  1  0
 21 22  2  0
 23 26  1  0
 23 22  1  0
 24 23  2  0
 25 24  1  0
 25 20  2  0
 26 27  1  0
 27 28  1  0
 28 29  2  0
 30 29  1  0
 30 34  1  0
 31 30  2  0
 32 27  2  0
 32 31  1  0
 33 32  1  0
 35 36  1  0
 36 39  1  0
 36 38  1  0
 37 35  2  0
 40 41  1  0
 40 15  1  0
 42 40  1  0
 43 44  1  0
 43  3  1  0
 45 56  2  0
 46 44  1  0
 46 51  1  0
 47 55  1  0
 47 57  1  0
 48 54  1  0
 48 50  1  0
 49 55  1  0
 50 49  1  0
 51 50  2  0
 52 46  2  0
 53 52  1  0
 53 48  2  0
 54 47  1  0
 55 45  1  0
 57 59  2  0
 58 57  1  0
 60 58  1  0
 61 70  2  0
 61 66  1  0
 62 58  1  0
 62 66  1  0
 63 62  1  0
 64 65  1  0
 64 63  1  0
 65 61  1  0
 66 67  2  0
 67 68  1  0
 69 68  2  0
 70 69  1  0
 71 45  1  0
 71 76  1  0
 71 72  1  0
 72 75  1  1
 72 73  1  0
 74 72  1  0
 76 79  1  0
 77 81  1  0
 77 76  1  0
 78 77  2  0
 81 80  1  0
 83 81  1  0
 83 84  1  0
 83 82  1  0
M  ISO  4   6 100   7 100  43 101  44 101
M  END
>  <TORSDO>  (26) 
F 19

>  <SCORE>  (26) 
-16.447

>  <name>  (26) 
25

>  <ligand_id>  (26) 
25

>  <original_smiles>  (26) 
[H]c1c([H])c([H])c2c(c1[H])C([H])([H])C([H])([H])C([H])([H])C2([H])N([H])C(=O)C1([H])N(C(=O)C([H])(N([H])C(=O)C([H])(N([H])C([H])([H])[H])C([H])([H])[H])C(C([H])([H])[H])(C([H])([H])[H])C([H])([H])[H])C([H])([H])c2c([H])c(OC([H])([H])C3(C([H])([H])[H])C([H])([H])C3([H])C([H])([H])C([H])([H])C(=O)N3C([H])([H])C([H])([H])C([H])([H])C([H])(n4nc(-c5c([H])c([H])c(Oc6c([H])c([H])c(F)c([H])c6F)c([H])c5[H])c(C(=O)N([H])[H])c4N([H])[H])C3([H])[H])c([H])c([H])c2C1([H])[H]

>  <smiles>  (26) 
[H]c1c([H])c([H])c2c(c1[H])C([H])([H])C([H])([H])C([H])([H])C2([H])N([H])C(=O)C1([H])N(C(=O)C([H])(N([H])C(=O)C([H])(N([H])C([H])([H])[H])C([H])([H])[H])C(C([H])([H])[H])(C([H])([H])[H])C([H])([H])[H])C([H])([H])c2c([H])c(OC([H])([H])C3(C([H])([H])[H])C([H])([H])C3([H])C([H])([H])C([H])([H])C(=O)N3C([H])([H])C([H])([H])C([H])([H])C([H])(n4nc(-c5c([H])c([H])c(Oc6c([H])c([H])c(F)c([H])c6F)c([H])c5[H])c(C(=O)N([H])[H])c4N([H])[H])C3([H])[H])c([H])c([H])c2C1([H])[H]

$$$$
26:0:0
     RDKit          3D

 95104  0  0  1  0  0  0  0  0999 V2000
  -29.5250  -21.7810   23.9980 C   0  0  0  0  0  2  0  0  0  0  0  0
  -29.6850  -20.4570   23.2340 C   0  0  0  0  0  2  0  0  0  0  0  0
  -30.8700  -21.8090   21.3750 C   0  0  0  0  0  2  0  0  0  0  0  0
  -32.1760  -20.1510   22.7710 C   0  0  0  0  0  2  0  0  0  0  0  0
  -28.5490  -22.7620   23.3130 C   0  0  0  0  0  2  0  0  0  0  0  0
  -29.5330  -22.4970   21.0360 C   0  0  0  0  0  2  0  0  0  0  0  0
  -32.6980  -18.8920   22.0800 C   0  0  0  0  0  2  0  0  0  0  0  0
  -30.5620  -19.2460   21.1820 C   0  0  0  0  0  2  0  0  0  0  0  0
  -30.7900  -20.4540   22.1410 C   0  0  1  0  0  0  0  0  0  0  0  0
  -29.0900  -23.4400   22.1010 N   0  0  1  0  0  4  0  0  0  0  0  0
  -31.5010  -18.1830   21.6010 N   0  0  1  0  0  4  0  0  0  0  0  0
  -29.9030  -23.9490   22.4130 H   0  0  0  0  0  0  0  0  0  0  0  0
  -31.1080  -17.7290   22.4130 H   0  0  0  0  0  0  0  0  0  0  0  0
  -31.7930  -17.1420   20.5820 C   0  0  0  0  0  2  0  0  0  0  0  0
  -30.8780  -15.9040   20.6960 C   0  0  0  0  0  2  0  0  0  0  0  0
  -31.3590  -14.7330   19.8190 C   0  0  0  0  0  0  0  0  0  0  0  0
  -30.9450  -12.4990   18.8470 C   0  0  0  0  0  2  0  0  0  0  0  0
  -29.9190  -12.5930   17.7010 C   0  0  0  0  0  2  0  0  0  0  0  0
  -28.4790  -12.5190   18.2450 C   0  0  0  0  0  2  0  0  0  0  0  0
  -28.2390  -13.4910   19.4320 C   0  0  0  0  0  3  0  0  0  0  0  0
  -29.3650  -13.3580   20.4820 C   0  0  0  0  0  2  0  0  0  0  0  0
  -30.6520  -13.5750   19.8030 N   0  0  0  0  0  0  0  0  0  0  0  0
  -32.3670  -14.8930   19.1240 O   0  0  0  0  0  0  0  0  0  0  0  0
  -25.9990  -14.2290   20.4660 C   0  0  0  0  0  0  0  0  0  0  0  0
  -24.8980  -13.5180   20.8660 C   0  0  0  0  0  0  0  0  0  0  0  0
  -25.2100  -12.1450   20.6330 C   0  0  0  0  0  0  0  0  0  0  0  0
  -26.9180  -13.2900   20.0250 N   0  0  0  0  0  0  0  0  0  0  0  0
  -26.4510  -12.0240   20.1780 N   0  0  0  0  0  0  0  0  0  0  0  0
  -24.3810  -10.9400   20.7630 C   0  0  0  0  0  0  0  0  0  0  0  0
  -24.7470   -9.8790   21.6200 C   0  0  0  0  0  3  0  0  0  0  0  0
  -23.9240   -8.7400   21.7410 C   0  0  0  0  0  3  0  0  0  0  0  0
  -22.7190   -8.6530   21.0040 C   0  0  0  0  0  0  0  0  0  0  0  0
  -22.3690   -9.7010   20.1350 C   0  0  0  0  0  3  0  0  0  0  0  0
  -23.1930  -10.8340   20.0120 C   0  0  0  0  0  3  0  0  0  0  0  0
  -21.8700   -7.5730   21.0390 O   0  0  0  0  0  0  0  0  0  0  0  0
  -21.6460   -6.8700   22.1950 C   0  0  0  0  0  0  0  0  0  0  0  0
  -21.1260   -7.4870   23.3540 C   0  0  0  0  0  3  0  0  0  0  0  0
  -20.8470   -6.7130   24.4980 C   0  0  0  0  0  3  0  0  0  0  0  0
  -21.0760   -5.3250   24.4830 C   0  0  0  0  0  0  0  0  0  0  0  0
  -21.5890   -4.7080   23.3280 C   0  0  0  0  0  3  0  0  0  0  0  0
  -21.8700   -5.4790   22.1870 C   0  0  0  0  0  0  0  0  0  0  0  0
  -22.3440   -4.8750   21.0690 F   0  0  0  0  0  0  0  0  0  0  0  0
  -20.8010   -4.5800   25.5790 F   0  0  0  0  0  0  0  0  0  0  0  0
  -23.5930  -14.0840   21.3470 C   0  0  0  0  0  0  0  0  0  0  0  0
  -22.9090  -13.3780   22.2390 N   0  0  0  0  0  0  0  0  0  0  0  0
  -23.1940  -15.1850   20.9670 O   0  0  0  0  0  0  0  0  0  0  0  0
  -23.2440  -12.4840   22.5670 H   0  0  0  0  0  0  0  0  0  0  0  0
  -22.0360  -13.7370   22.6010 H   0  0  0  0  0  0  0  0  0  0  0  0
  -26.2850  -15.5910   20.4250 N   0  0  0  0  0  0  0  0  0  0  0  0
  -25.6010  -16.2930   20.6830 H   0  0  0  0  0  0  0  0  0  0  0  0
  -27.1350  -15.9880   20.0430 H   0  0  0  0  0  0  0  0  0  0  0  0
  -28.1400  -24.4700   21.5880 C   0  0  0  0  0  2  0  0  0  0  0  0
  -28.7940  -25.8300   21.2410 C   0  0  0  0  0  2  0  0  0  0  0  0
  -28.9970  -26.1090   19.7320 C   0  0  0  0  0  2  0  0  0  0  0  0
  -28.9500  -27.5130   19.4350 O   0  0  0  0  0  0  0  0  0  0  0  0
  -24.9110  -31.5600   23.6440 C   0  0  0  0  0  0  0  0  0  0  0  0
  -27.7250  -28.1270   19.5890 C   0  0  0  0  0  0  0  0  0  0  0  0
  -23.7310  -30.4260   21.7910 C   0  0  0  0  0  3  0  0  0  0  0  0
  -25.2180  -29.3600   20.0150 C   0  0  0  0  0  0  0  0  0  0  0  0
  -26.2020  -31.0500   21.5760 C   0  0  0  0  0  2  0  0  0  0  0  0
  -26.3610  -29.8590   20.6520 C   0  0  0  0  0  0  0  0  0  0  0  0
  -27.6180  -29.2520   20.4340 C   0  0  0  0  0  3  0  0  0  0  0  0
  -26.5640  -27.6440   18.9420 C   0  0  0  0  0  3  0  0  0  0  0  0
  -25.3140  -28.2520   19.1560 C   0  0  0  0  0  3  0  0  0  0  0  0
  -23.9130  -30.0710   20.2910 C   0  0  0  0  0  2  0  0  0  0  0  0
  -24.9680  -31.0160   22.3960 N   0  0  0  0  0  0  0  0  0  0  0  0
  -23.8440  -31.6140   24.2710 O   0  0  0  0  0  0  0  0  0  0  0  0
  -23.2230  -29.1700   22.5350 C   0  0  0  0  0  0  0  0  0  0  0  0
  -21.9570  -28.8010   22.2890 N   0  0  0  0  0  0  0  0  0  0  0  0
  -23.9690  -28.5370   23.2890 O   0  0  0  0  0  0  0  0  0  0  0  0
  -21.4100  -29.3790   21.6660 H   0  0  0  0  0  0  0  0  0  0  0  0
  -18.8860  -26.8960   22.1920 C   0  0  0  0  0  0  0  0  0  0  0  0
  -21.2750  -27.6330   22.8480 C   0  0  0  0  0  3  0  0  0  0  0  0
  -21.7530  -26.3300   22.1680 C   0  0  0  0  0  2  0  0  0  0  0  0
  -20.8780  -25.9120   20.9810 C   0  0  0  0  0  2  0  0  0  0  0  0
  -19.4300  -25.6990   21.4310 C   0  0  0  0  0  2  0  0  0  0  0  0
  -19.7530  -27.8130   22.8440 C   0  0  0  0  0  0  0  0  0  0  0  0
  -19.1950  -28.9280   23.5070 C   0  0  0  0  0  3  0  0  0  0  0  0
  -17.8030  -29.1350   23.5230 C   0  0  0  0  0  3  0  0  0  0  0  0
  -16.9500  -28.2150   22.8910 C   0  0  0  0  0  3  0  0  0  0  0  0
  -17.4900  -27.0970   22.2320 C   0  0  0  0  0  3  0  0  0  0  0  0
  -26.1760  -32.1600   24.3320 C   0  0  0  0  0  3  0  0  0  0  0  0
  -25.8560  -33.5400   24.7200 N   0  0  0  0  0  0  0  0  0  0  0  0
  -26.2380  -34.6290   24.0390 C   0  0  0  0  0  0  0  0  0  0  0  0
  -26.9720  -34.5750   23.0480 O   0  0  0  0  0  0  0  0  0  0  0  0
  -25.2170  -33.6570   25.4930 H   0  0  0  0  0  0  0  0  0  0  0  0
  -24.5380  -36.4420   23.6750 C   0  0  0  0  0  1  0  0  0  0  0  0
  -25.7280  -35.9930   24.5360 C   0  0  0  0  0  3  0  0  0  0  0  0
  -27.8140  -36.8210   25.5340 C   0  0  0  0  0  1  0  0  0  0  0  0
  -26.7680  -37.0450   24.5390 N   0  0  0  0  0  0  0  0  0  0  0  0
  -26.3570  -37.9590   24.7120 H   0  0  0  0  0  0  0  0  0  0  0  0
  -26.6640  -31.3290   25.5830 C   0  0  1  0  0  0  0  0  0  0  0  0
  -25.5450  -31.0370   26.6100 C   0  0  0  0  0  1  0  0  0  0  0  0
  -27.2590  -29.9730   25.1360 C   0  0  0  0  0  1  0  0  0  0  0  0
  -27.7990  -32.0900   26.3080 C   0  0  0  0  0  1  0  0  0  0  0  0
  2  1  1  0
  9  3  1  6
  5  1  1  0
  6  3  1  0
  6 10  1  0
  7  4  1  0
  8 11  1  0
  9  8  1  0
  9  4  1  0
  9  2  1  0
 10 12  1  1
 10  5  1  0
 11  7  1  0
 11 13  1  1
 14 15  1  0
 14 11  1  0
 16 15  1  0
 17 22  1  0
 18 19  1  0
 18 17  1  0
 20 19  1  0
 20 27  1  0
 20 21  1  0
 22 16  1  0
 22 21  1  0
 23 16  2  0
 24 25  2  0
 25 44  1  0
 26 29  1  0
 26 25  1  0
 27 28  1  0
 27 24  1  0
 28 26  2  0
 29 30  1  0
 30 31  2  0
 32 35  1  0
 32 31  1  0
 33 32  2  0
 34 33  1  0
 34 29  2  0
 35 36  1  0
 36 37  1  0
 37 38  2  0
 39 38  1  0
 39 43  1  0
 40 39  2  0
 41 36  2  0
 41 40  1  0
 42 41  1  0
 44 45  1  0
 45 47  1  0
 45 48  1  0
 46 44  2  0
 49 24  1  0
 49 50  1  0
 51 49  1  0
 52 10  1  0
 53 52  1  0
 54 53  1  0
 55 57  1  0
 55 54  1  0
 56 67  2  0
 57 62  1  0
 58 66  1  0
 58 68  1  0
 59 65  1  0
 59 61  1  0
 60 66  1  0
 61 60  1  0
 62 61  2  0
 63 64  1  0
 63 57  2  0
 64 59  2  0
 65 58  1  0
 66 56  1  0
 68 70  2  0
 69 68  1  0
 71 69  1  0
 72 81  2  0
 72 77  1  0
 73 69  1  0
 74 73  1  0
 75 76  1  0
 75 74  1  0
 76 72  1  0
 77 73  1  0
 77 78  2  0
 78 79  1  0
 80 79  2  0
 81 80  1  0
 82 56  1  0
 82 83  1  0
 82 92  1  0
 83 86  1  0
 84 88  1  0
 84 83  1  0
 85 84  2  0
 88 87  1  0
 88 90  1  0
 90 91  1  0
 90 89  1  0
 92 95  1  1
 92 93  1  0
 94 92  1  0
M  ISO  4  15 100  16 100  54 101  55 101
M  END
>  <TORSDO>  (27) 
F 21

>  <SCORE>  (27) 
-8.077

>  <name>  (27) 
26

>  <ligand_id>  (27) 
26

>  <original_smiles>  (27) 
[H]c1c([H])c([H])c2c(c1[H])C([H])([H])C([H])([H])C([H])([H])C2([H])N([H])C(=O)C1([H])N(C(=O)C([H])(N([H])C(=O)C([H])(N([H])C([H])([H])[H])C([H])([H])[H])C(C([H])([H])[H])(C([H])([H])[H])C([H])([H])[H])C([H])([H])c2c([H])c(OC([H])([H])C([H])([H])C([H])([H])[N+]3([H])C([H])([H])C([H])([H])C([H])([H])C4(C([H])([H])C3([H])[H])C([H])([H])C([H])([H])[N+]([H])(C([H])([H])C([H])([H])C(=O)N3C([H])([H])C([H])([H])C([H])([H])C([H])(n5nc(-c6c([H])c([H])c(Oc7c([H])c([H])c(F)c([H])c7F)c([H])c6[H])c(C(=O)N([H])[H])c5N([H])[H])C3([H])[H])C4([H])[H])c([H])c([H])c2C1([H])[H]

>  <smiles>  (27) 
[H]c1c([H])c([H])c2c(c1[H])C([H])([H])C([H])([H])C([H])([H])C2([H])N([H])C(=O)C1([H])N(C(=O)C([H])(N([H])C(=O)C([H])(N([H])C([H])([H])[H])C([H])([H])[H])C(C([H])([H])[H])(C([H])([H])[H])C([H])([H])[H])C([H])([H])c2c([H])c(OC([H])([H])C([H])([H])C([H])([H])[N+]3([H])C([H])([H])C([H])([H])C([H])([H])C4(C([H])([H])C3([H])[H])C([H])([H])C([H])([H])[N+]([H])(C([H])([H])C([H])([H])C(=O)N3C([H])([H])C([H])([H])C([H])([H])C([H])(n5nc(-c6c([H])c([H])c(Oc7c([H])c([H])c(F)c([H])c7F)c([H])c6[H])c(C(=O)N([H])[H])c5N([H])[H])C3([H])[H])C4([H])[H])c([H])c([H])c2C1([H])[H]

$$$$
27:0:0
     RDKit          3D

 94103  0  0  1  0  0  0  0  0999 V2000
  -28.2400  -19.1920   20.0160 C   0  0  0  0  0  0  0  0  0  0  0  0
  -27.8780  -20.4800   20.1330 N   0  0  0  0  0  0  0  0  0  0  0  0
  -27.7560  -18.3590   20.7830 O   0  0  0  0  0  0  0  0  0  0  0  0
  -27.2190  -20.6680   20.8770 H   0  0  0  0  0  0  0  0  0  0  0  0
  -31.3340  -18.9580   21.0410 C   0  0  0  0  0  2  0  0  0  0  0  0
  -31.0270  -17.5670   20.4620 C   0  0  0  0  0  3  0  0  0  0  0  0
  -29.1250  -18.7830   18.8790 C   0  0  0  0  0  3  0  0  0  0  0  0
  -30.2680  -17.7990   19.1600 C   0  0  0  0  0  3  0  0  0  0  0  0
  -30.5780  -19.2080   18.7420 C   0  0  0  0  0  3  0  0  0  0  0  0
  -31.4270  -19.8790   19.8140 C   0  0  0  0  0  3  0  0  0  0  0  0
  -32.8820  -20.0610   19.3490 C   0  0  0  0  0  1  0  0  0  0  0  0
  -30.2700  -15.2840   21.4440 C   0  0  0  0  0  3  0  0  0  0  0  0
  -30.3500  -16.6330   21.4590 C   0  0  0  0  0  3  0  0  0  0  0  0
  -30.8010  -14.4240   20.3880 C   0  0  0  0  0  0  0  0  0  0  0  0
  -30.4050  -12.3930   19.0350 C   0  0  0  0  0  2  0  0  0  0  0  0
  -29.4320  -12.6870   17.8750 C   0  0  0  0  0  2  0  0  0  0  0  0
  -27.9660  -12.5440   18.3360 C   0  0  0  0  0  2  0  0  0  0  0  0
  -27.6860  -13.3140   19.6530 C   0  0  0  0  0  3  0  0  0  0  0  0
  -28.7530  -12.9580   20.7040 C   0  0  0  0  0  2  0  0  0  0  0  0
  -30.0790  -13.2940   20.1520 N   0  0  0  0  0  0  0  0  0  0  0  0
  -31.8270  -14.6830   19.7490 O   0  0  0  0  0  0  0  0  0  0  0  0
  -25.3000  -13.9330   20.4030 C   0  0  0  0  0  0  0  0  0  0  0  0
  -24.2380  -13.1660   20.7910 C   0  0  0  0  0  0  0  0  0  0  0  0
  -24.6960  -11.8120   20.7610 C   0  0  0  0  0  0  0  0  0  0  0  0
  -26.3380  -13.0490   20.1540 N   0  0  0  0  0  0  0  0  0  0  0  0
  -25.9780  -11.7680   20.4250 N   0  0  0  0  0  0  0  0  0  0  0  0
  -23.9760  -10.5520   20.9760 C   0  0  0  0  0  0  0  0  0  0  0  0
  -24.4250   -9.5920   21.9130 C   0  0  0  0  0  3  0  0  0  0  0  0
  -23.7020   -8.3960   22.1100 C   0  0  0  0  0  3  0  0  0  0  0  0
  -22.5190   -8.1510   21.3710 C   0  0  0  0  0  0  0  0  0  0  0  0
  -22.0920   -9.1010   20.4260 C   0  0  0  0  0  3  0  0  0  0  0  0
  -22.8130  -10.2880   20.2260 C   0  0  0  0  0  3  0  0  0  0  0  0
  -21.7660   -7.0060   21.4790 O   0  0  0  0  0  0  0  0  0  0  0  0
  -21.7300   -6.2740   22.6380 C   0  0  0  0  0  0  0  0  0  0  0  0
  -21.3150   -6.8420   23.8630 C   0  0  0  0  0  3  0  0  0  0  0  0
  -21.2230   -6.0370   25.0160 C   0  0  0  0  0  3  0  0  0  0  0  0
  -21.5380   -4.6670   24.9470 C   0  0  0  0  0  0  0  0  0  0  0  0
  -21.9440   -4.0980   23.7280 C   0  0  0  0  0  3  0  0  0  0  0  0
  -22.0370   -4.8990   22.5760 C   0  0  0  0  0  0  0  0  0  0  0  0
  -22.4100   -4.3420   21.3980 F   0  0  0  0  0  0  0  0  0  0  0  0
  -21.4420   -3.8920   26.0530 F   0  0  0  0  0  0  0  0  0  0  0  0
  -22.8480  -13.6450   21.0940 C   0  0  0  0  0  0  0  0  0  0  0  0
  -22.1400  -12.9550   21.9790 N   0  0  0  0  0  0  0  0  0  0  0  0
  -22.4000  -14.6700   20.5780 O   0  0  0  0  0  0  0  0  0  0  0  0
  -22.5190  -12.1270   22.4160 H   0  0  0  0  0  0  0  0  0  0  0  0
  -21.2080  -13.2590   22.2260 H   0  0  0  0  0  0  0  0  0  0  0  0
  -25.4650  -15.3040   20.2230 N   0  0  0  0  0  0  0  0  0  0  0  0
  -24.7080  -15.9630   20.3780 H   0  0  0  0  0  0  0  0  0  0  0  0
  -26.3320  -15.7550   19.9640 H   0  0  0  0  0  0  0  0  0  0  0  0
  -28.2760  -21.6620   19.3620 C   0  0  0  0  0  2  0  0  0  0  0  0
  -28.2180  -22.8830   20.3030 C   0  0  0  0  0  2  0  0  0  0  0  0
  -28.4460  -24.2680   19.6630 C   0  0  0  0  0  2  0  0  0  0  0  0
  -28.3350  -25.3810   20.7310 C   0  0  0  0  0  2  0  0  0  0  0  0
  -28.4380  -26.7180   20.2220 O   0  0  0  0  0  0  0  0  0  0  0  0
  -24.5920  -31.8880   23.2620 C   0  0  0  0  0  0  0  0  0  0  0  0
  -27.2650  -27.4400   20.2230 C   0  0  0  0  0  0  0  0  0  0  0  0
  -23.4000  -30.4790   21.6130 C   0  0  0  0  0  3  0  0  0  0  0  0
  -24.8670  -28.9300   20.2120 C   0  0  0  0  0  0  0  0  0  0  0  0
  -25.9260  -30.8410   21.4350 C   0  0  0  0  0  2  0  0  0  0  0  0
  -26.0180  -29.4660   20.8020 C   0  0  0  0  0  0  0  0  0  0  0  0
  -27.2240  -28.7300   20.7970 C   0  0  0  0  0  3  0  0  0  0  0  0
  -26.0950  -26.9150   19.6360 C   0  0  0  0  0  3  0  0  0  0  0  0
  -24.8960  -27.6520   19.6320 C   0  0  0  0  0  3  0  0  0  0  0  0
  -23.6220  -29.7890   20.2380 C   0  0  0  0  0  2  0  0  0  0  0  0
  -24.6560  -31.0860   22.1610 N   0  0  0  0  0  0  0  0  0  0  0  0
  -23.5060  -32.1620   23.7930 O   0  0  0  0  0  0  0  0  0  0  0  0
  -22.7410  -29.4610   22.5730 C   0  0  0  0  0  0  0  0  0  0  0  0
  -21.4190  -29.2770   22.4320 N   0  0  0  0  0  0  0  0  0  0  0  0
  -23.4170  -28.8360   23.3940 O   0  0  0  0  0  0  0  0  0  0  0  0
  -20.9320  -29.8340   21.7430 H   0  0  0  0  0  0  0  0  0  0  0  0
  -18.0410  -28.0850   22.9020 C   0  0  0  0  0  0  0  0  0  0  0  0
  -20.5960  -28.3410   23.1990 C   0  0  0  0  0  3  0  0  0  0  0  0
  -20.7010  -26.9060   22.6310 C   0  0  0  0  0  2  0  0  0  0  0  0
  -19.6110  -26.5820   21.6060 C   0  0  0  0  0  2  0  0  0  0  0  0
  -18.2220  -26.7310   22.2360 C   0  0  0  0  0  2  0  0  0  0  0  0
  -19.1560  -28.8460   23.3420 C   0  0  0  0  0  0  0  0  0  0  0  0
  -18.9330  -30.1130   23.9230 C   0  0  0  0  0  3  0  0  0  0  0  0
  -17.6270  -30.6190   24.0700 C   0  0  0  0  0  3  0  0  0  0  0  0
  -16.5260  -29.8540   23.6500 C   0  0  0  0  0  3  0  0  0  0  0  0
  -16.7330  -28.5880   23.0700 C   0  0  0  0  0  3  0  0  0  0  0  0
  -25.8720  -32.5210   23.8920 C   0  0  0  0  0  3  0  0  0  0  0  0
  -25.5640  -33.9220   24.2070 N   0  0  0  0  0  0  0  0  0  0  0  0
  -25.9030  -34.9680   23.4410 C   0  0  0  0  0  0  0  0  0  0  0  0
  -26.5850  -34.8540   22.4190 O   0  0  0  0  0  0  0  0  0  0  0  0
  -24.9660  -34.0820   25.0050 H   0  0  0  0  0  0  0  0  0  0  0  0
  -24.1810  -36.7550   23.0500 C   0  0  0  0  0  1  0  0  0  0  0  0
  -25.4120  -36.3600   23.8810 C   0  0  0  0  0  3  0  0  0  0  0  0
  -27.5350  -37.2490   24.7290 C   0  0  0  0  0  1  0  0  0  0  0  0
  -26.4450  -37.4120   23.7700 N   0  0  0  0  0  0  0  0  0  0  0  0
  -26.0390  -38.3330   23.9080 H   0  0  0  0  0  0  0  0  0  0  0  0
  -26.3790  -31.7590   25.1800 C   0  0  1  0  0  0  0  0  0  0  0  0
  -25.2750  -31.5280   26.2390 C   0  0  0  0  0  1  0  0  0  0  0  0
  -26.9630  -30.3800   24.7980 C   0  0  0  0  0  1  0  0  0  0  0  0
  -27.5250  -32.5560   25.8460 C   0  0  0  0  0  1  0  0  0  0  0  0
  1  2  1  0
  1  3  2  0
  2  4  1  0
  6  5  1  0
  6 13  1  0
  7  8  1  0
  7  1  1  0
  8  6  1  0
  9  7  1  0
  9  8  1  0
  9 10  1  0
 10  5  1  0
 11 10  1  0
 12 13  2  0
 14 12  1  0
 15 20  1  0
 16 17  1  0
 16 15  1  0
 17 18  1  0
 18 25  1  0
 18 19  1  0
 20 14  1  0
 20 19  1  0
 21 14  2  0
 22 23  2  0
 23 42  1  0
 24 23  1  0
 24 27  1  0
 25 22  1  0
 25 26  1  0
 26 24  2  0
 27 28  1  0
 28 29  2  0
 30 33  1  0
 30 29  1  0
 31 30  2  0
 32 31  1  0
 32 27  2  0
 33 34  1  0
 34 35  1  0
 35 36  2  0
 37 36  1  0
 37 41  1  0
 38 37  2  0
 39 34  2  0
 39 38  1  0
 40 39  1  0
 42 43  1  0
 43 46  1  0
 43 45  1  0
 44 42  2  0
 47 48  1  0
 47 22  1  0
 49 47  1  0
 50  2  1  0
 50 51  1  0
 52 51  1  0
 52 53  1  0
 54 56  1  0
 54 53  1  0
 55 66  2  0
 55 81  1  0
 56 61  1  0
 57 65  1  0
 57 67  1  0
 58 64  1  0
 58 60  1  0
 59 65  1  0
 60 59  1  0
 61 60  2  0
 62 56  2  0
 63 62  1  0
 63 58  2  0
 64 57  1  0
 65 55  1  0
 67 69  2  0
 68 67  1  0
 68 72  1  0
 70 68  1  0
 71 80  2  0
 71 76  1  0
 72 76  1  0
 73 72  1  0
 74 75  1  0
 74 73  1  0
 75 71  1  0
 76 77  2  0
 77 78  1  0
 79 78  2  0
 80 79  1  0
 81 82  1  0
 81 91  1  0
 82 85  1  0
 83 87  1  0
 83 82  1  0
 84 83  2  0
 86 87  1  0
 89 87  1  0
 89 90  1  0
 89 88  1  0
 91 94  1  1
 91 92  1  0
 93 91  1  0
M  ISO  4  12 100  14 100  53 101  54 101
M  END
>  <TORSDO>  (28) 
F 22

>  <SCORE>  (28) 
-13.644

>  <name>  (28) 
27

>  <ligand_id>  (28) 
27

>  <original_smiles>  (28) 
[H]C(C(=O)N1C([H])([H])C([H])([H])C([H])([H])C([H])(n2nc(-c3c([H])c([H])c(Oc4c([H])c([H])c(F)c([H])c4F)c([H])c3[H])c(C(=O)N([H])[H])c2N([H])[H])C1([H])[H])=C([H])C1([H])C([H])([H])C([H])(C([H])([H])[H])C2([H])C([H])(C(=O)N([H])C([H])([H])C([H])([H])C([H])([H])C([H])([H])Oc3c([H])c([H])c4c(c3[H])C([H])([H])N(C(=O)C([H])(N([H])C(=O)C([H])(N([H])C([H])([H])[H])C([H])([H])[H])C(C([H])([H])[H])(C([H])([H])[H])C([H])([H])[H])C([H])(C(=O)N([H])C3([H])c5c([H])c([H])c([H])c([H])c5C([H])([H])C([H])([H])C3([H])[H])C4([H])[H])C12[H]

>  <smiles>  (28) 
[H]C(C(=O)N1C([H])([H])C([H])([H])C([H])([H])C([H])(n2nc(-c3c([H])c([H])c(Oc4c([H])c([H])c(F)c([H])c4F)c([H])c3[H])c(C(=O)N([H])[H])c2N([H])[H])C1([H])[H])=C([H])C1([H])C([H])([H])C([H])(C([H])([H])[H])C2([H])C([H])(C(=O)N([H])C([H])([H])C([H])([H])C([H])([H])C([H])([H])Oc3c([H])c([H])c4c(c3[H])C([H])([H])N(C(=O)C([H])(N([H])C(=O)C([H])(N([H])C([H])([H])[H])C([H])([H])[H])C(C([H])([H])[H])(C([H])([H])[H])C([H])([H])[H])C([H])(C(=O)N([H])C3([H])c5c([H])c([H])c([H])c([H])c5C([H])([H])C([H])([H])C3([H])[H])C4([H])[H])C12[H]

$$$$
28:0:0
     RDKit          3D

 94102  0  0  1  0  0  0  0  0999 V2000
  -30.8390  -20.5860   20.9640 C   0  0  0  0  0  3  0  0  0  0  0  0
  -35.2680  -21.1340   20.4070 C   0  0  0  0  0  2  0  0  0  0  0  0
  -34.7570  -20.4110   21.6570 C   0  0  0  0  0  2  0  0  0  0  0  0
  -34.3180  -22.2790   20.0340 C   0  0  0  0  0  2  0  0  0  0  0  0
  -33.3150  -19.9100   21.4660 C   0  0  0  0  0  2  0  0  0  0  0  0
  -32.8710  -21.7880   19.8520 C   0  0  0  0  0  2  0  0  0  0  0  0
  -32.3280  -21.0610   21.1070 C   0  0  0  0  0  3  0  0  0  0  0  0
  -30.6430  -19.4490   21.9140 N   0  0  0  0  0  4  0  0  0  0  0  0
  -31.5630  -19.1260   22.1650 H   0  0  0  0  0  0  0  0  0  0  0  0
  -30.2340  -19.8140   22.7600 H   0  0  0  0  0  0  0  0  0  0  0  0
  -29.8700  -18.2460   21.4960 C   0  0  0  0  0  2  0  0  0  0  0  0
  -30.7630  -17.0240   21.1040 C   0  0  0  0  0  2  0  0  0  0  0  0
  -30.0150  -15.6500   21.1070 C   0  0  0  0  0  2  0  0  0  0  0  0
  -30.7170  -14.4590   20.3910 C   0  0  0  0  0  0  0  0  0  0  0  0
  -30.3720  -12.3650   19.1100 C   0  0  0  0  0  2  0  0  0  0  0  0
  -29.3930  -12.6360   17.9470 C   0  0  0  0  0  2  0  0  0  0  0  0
  -27.9290  -12.4940   18.4080 C   0  0  0  0  0  2  0  0  0  0  0  0
  -27.6430  -13.2690   19.7200 C   0  0  0  0  0  3  0  0  0  0  0  0
  -28.7230  -12.9800   20.7840 C   0  0  0  0  0  2  0  0  0  0  0  0
  -30.0380  -13.2910   20.2040 N   0  0  0  0  0  0  0  0  0  0  0  0
  -31.8330  -14.6440   19.8970 O   0  0  0  0  0  0  0  0  0  0  0  0
  -25.2600  -13.8810   20.4760 C   0  0  0  0  0  0  0  0  0  0  0  0
  -24.1940  -13.1110   20.8580 C   0  0  0  0  0  0  0  0  0  0  0  0
  -24.6510  -11.7570   20.8140 C   0  0  0  0  0  0  0  0  0  0  0  0
  -26.2980  -12.9980   20.2230 N   0  0  0  0  0  0  0  0  0  0  0  0
  -25.9350  -11.7160   20.4840 N   0  0  0  0  0  0  0  0  0  0  0  0
  -23.9230  -10.4960   21.0100 C   0  0  0  0  0  0  0  0  0  0  0  0
  -24.3610   -9.5320   21.9450 C   0  0  0  0  0  3  0  0  0  0  0  0
  -23.6350   -8.3350   22.1280 C   0  0  0  0  0  3  0  0  0  0  0  0
  -22.4600   -8.0950   21.3780 C   0  0  0  0  0  0  0  0  0  0  0  0
  -22.0410   -9.0500   20.4350 C   0  0  0  0  0  3  0  0  0  0  0  0
  -22.7660  -10.2380   20.2480 C   0  0  0  0  0  3  0  0  0  0  0  0
  -21.7040   -6.9510   21.4710 O   0  0  0  0  0  0  0  0  0  0  0  0
  -21.6550   -6.2140   22.6270 C   0  0  0  0  0  0  0  0  0  0  0  0
  -21.2220   -6.7710   23.8490 C   0  0  0  0  0  3  0  0  0  0  0  0
  -21.1200   -5.9590   24.9960 C   0  0  0  0  0  3  0  0  0  0  0  0
  -21.4420   -4.5910   24.9220 C   0  0  0  0  0  0  0  0  0  0  0  0
  -21.8700   -4.0330   23.7050 C   0  0  0  0  0  3  0  0  0  0  0  0
  -21.9740   -4.8420   22.5600 C   0  0  0  0  0  0  0  0  0  0  0  0
  -22.3660   -4.2940   21.3840 F   0  0  0  0  0  0  0  0  0  0  0  0
  -21.3380   -3.8090   26.0230 F   0  0  0  0  0  0  0  0  0  0  0  0
  -22.8040  -13.5910   21.1560 C   0  0  0  0  0  0  0  0  0  0  0  0
  -22.0890  -12.8920   22.0330 N   0  0  0  0  0  0  0  0  0  0  0  0
  -22.3580  -14.6210   20.6500 O   0  0  0  0  0  0  0  0  0  0  0  0
  -22.4630  -12.0570   22.4610 H   0  0  0  0  0  0  0  0  0  0  0  0
  -21.1570  -13.1950   22.2760 H   0  0  0  0  0  0  0  0  0  0  0  0
  -25.4250  -15.2530   20.3010 N   0  0  0  0  0  0  0  0  0  0  0  0
  -24.6610  -15.9080   20.4250 H   0  0  0  0  0  0  0  0  0  0  0  0
  -26.2710  -15.6890   19.9550 H   0  0  0  0  0  0  0  0  0  0  0  0
  -29.8080  -21.7340   21.2800 C   0  0  0  0  0  2  0  0  0  0  0  0
  -29.4590  -22.8020   20.1850 C   0  0  0  0  0  2  0  0  0  0  0  0
  -29.3640  -24.2900   20.6700 C   0  0  0  0  0  2  0  0  0  0  0  0
  -28.5250  -25.2220   19.7480 C   0  0  0  0  0  2  0  0  0  0  0  0
  -28.4740  -26.6030   20.2010 O   0  0  0  0  0  0  0  0  0  0  0  0
  -24.6240  -31.7790   23.2680 C   0  0  0  0  0  0  0  0  0  0  0  0
  -27.2940  -27.3400   20.1480 C   0  0  0  0  0  0  0  0  0  0  0  0
  -23.4300  -30.3890   21.6080 C   0  0  0  0  0  3  0  0  0  0  0  0
  -24.8970  -28.8780   20.1650 C   0  0  0  0  0  0  0  0  0  0  0  0
  -25.9610  -30.7460   21.4310 C   0  0  0  0  0  2  0  0  0  0  0  0
  -26.0500  -29.3790   20.7760 C   0  0  0  0  0  0  0  0  0  0  0  0
  -27.2460  -28.6170   20.7700 C   0  0  0  0  0  3  0  0  0  0  0  0
  -26.1190  -26.8800   19.5050 C   0  0  0  0  0  3  0  0  0  0  0  0
  -24.9290  -27.6290   19.5240 C   0  0  0  0  0  3  0  0  0  0  0  0
  -23.6480  -29.7310   20.2200 C   0  0  0  0  0  2  0  0  0  0  0  0
  -24.6900  -30.9870   22.1600 N   0  0  0  0  0  0  0  0  0  0  0  0
  -23.5400  -32.0430   23.8050 O   0  0  0  0  0  0  0  0  0  0  0  0
  -22.7820  -29.3530   22.5560 C   0  0  0  0  0  0  0  0  0  0  0  0
  -21.4680  -29.1300   22.3910 N   0  0  0  0  0  0  0  0  0  0  0  0
  -23.4600  -28.7540   23.3940 O   0  0  0  0  0  0  0  0  0  0  0  0
  -20.9850  -29.6620   21.6800 H   0  0  0  0  0  0  0  0  0  0  0  0
  -18.1250  -27.8060   22.7540 C   0  0  0  0  0  0  0  0  0  0  0  0
  -20.6540  -28.1730   23.1410 C   0  0  0  0  0  3  0  0  0  0  0  0
  -20.8440  -26.7380   22.6000 C   0  0  0  0  0  2  0  0  0  0  0  0
  -19.8040  -26.3520   21.5440 C   0  0  0  0  0  2  0  0  0  0  0  0
  -18.3870  -26.4530   22.1180 C   0  0  0  0  0  2  0  0  0  0  0  0
  -19.1900  -28.6220   23.2210 C   0  0  0  0  0  0  0  0  0  0  0  0
  -18.8930  -29.8870   23.7730 C   0  0  0  0  0  3  0  0  0  0  0  0
  -17.5620  -30.3360   23.8700 C   0  0  0  0  0  3  0  0  0  0  0  0
  -16.5100  -29.5170   23.4250 C   0  0  0  0  0  3  0  0  0  0  0  0
  -16.7920  -28.2560   22.8680 C   0  0  0  0  0  3  0  0  0  0  0  0
  -25.9060  -32.4090   23.8960 C   0  0  0  0  0  3  0  0  0  0  0  0
  -26.4110  -31.6400   25.1800 C   0  0  1  0  0  0  0  0  0  0  0  0
  -25.3050  -31.4060   26.2350 C   0  0  0  0  0  1  0  0  0  0  0  0
  -26.9990  -30.2620   24.7940 C   0  0  0  0  0  1  0  0  0  0  0  0
  -27.5600  -32.4310   25.8480 C   0  0  0  0  0  1  0  0  0  0  0  0
  -25.5990  -33.8090   24.2160 N   0  0  0  0  0  0  0  0  0  0  0  0
  -25.9300  -34.8550   23.4470 C   0  0  0  0  0  0  0  0  0  0  0  0
  -26.5980  -34.7420   22.4160 O   0  0  0  0  0  0  0  0  0  0  0  0
  -25.0100  -33.9700   25.0190 H   0  0  0  0  0  0  0  0  0  0  0  0
  -24.1950  -36.6360   23.0860 C   0  0  0  0  0  1  0  0  0  0  0  0
  -25.4420  -36.2460   23.8930 C   0  0  0  0  0  3  0  0  0  0  0  0
  -27.5780  -37.1480   24.6990 C   0  0  0  0  0  1  0  0  0  0  0  0
  -26.4700  -37.3000   23.7610 N   0  0  0  0  0  0  0  0  0  0  0  0
  -26.0620  -38.2200   23.9000 H   0  0  0  0  0  0  0  0  0  0  0  0
  1  7  1  0
  1 50  1  0
  1  8  1  0
  2  3  1  0
  4  2  1  0
  5  3  1  0
  6  4  1  0
  6  7  1  0
  7  5  1  0
  8  9  1  0
  8 10  1  0
 11  8  1  0
 12 13  1  0
 12 11  1  0
 14 13  1  0
 15 20  1  0
 16 17  1  0
 16 15  1  0
 18 17  1  0
 18 25  1  0
 18 19  1  0
 20 14  1  0
 20 19  1  0
 21 14  2  0
 22 23  2  0
 23 42  1  0
 24 23  1  0
 24 27  1  0
 25 22  1  0
 25 26  1  0
 26 24  2  0
 27 28  1  0
 28 29  2  0
 30 33  1  0
 30 29  1  0
 31 30  2  0
 32 31  1  0
 32 27  2  0
 33 34  1  0
 34 35  1  0
 35 36  2  0
 37 36  1  0
 37 41  1  0
 38 37  2  0
 39 34  2  0
 39 38  1  0
 40 39  1  0
 42 43  1  0
 43 46  1  0
 43 45  1  0
 44 42  2  0
 47 48  1  0
 47 22  1  0
 49 47  1  0
 51 52  1  0
 51 50  1  0
 53 54  1  0
 53 52  1  0
 55 66  2  0
 56 54  1  0
 56 61  1  0
 57 65  1  0
 57 67  1  0
 58 64  1  0
 58 60  1  0
 59 65  1  0
 60 59  1  0
 61 60  2  0
 62 63  1  0
 62 56  2  0
 63 58  2  0
 64 57  1  0
 65 55  1  0
 67 69  2  0
 68 67  1  0
 70 68  1  0
 71 80  2  0
 71 76  1  0
 72 68  1  0
 72 76  1  0
 73 72  1  0
 74 75  1  0
 74 73  1  0
 75 71  1  0
 76 77  2  0
 77 78  1  0
 79 78  2  0
 80 79  1  0
 81 55  1  0
 81 86  1  0
 81 82  1  0
 82 85  1  1
 82 83  1  0
 84 82  1  0
 86 89  1  0
 87 91  1  0
 87 86  1  0
 88 87  2  0
 91 90  1  0
 93 91  1  0
 93 94  1  0
 93 92  1  0
M  ISO  4  13 100  14 100  53 101  54 101
M  END
>  <TORSDO>  (29) 
F 25

>  <SCORE>  (29) 
-12.285

>  <name>  (29) 
28

>  <ligand_id>  (29) 
28

>  <original_smiles>  (29) 
[H]c1c([H])c([H])c2c(c1[H])C([H])([H])C([H])([H])C([H])([H])C2([H])N([H])C(=O)C1([H])N(C(=O)C([H])(N([H])C(=O)C([H])(N([H])C([H])([H])[H])C([H])([H])[H])C(C([H])([H])[H])(C([H])([H])[H])C([H])([H])[H])C([H])([H])c2c([H])c(OC([H])([H])C([H])([H])C([H])([H])C([H])([H])C([H])(C3([H])C([H])([H])C([H])([H])C([H])([H])C([H])([H])C3([H])[H])[N+]([H])([H])C([H])([H])C([H])([H])C([H])([H])C(=O)N3C([H])([H])C([H])([H])C([H])([H])C([H])(n4nc(-c5c([H])c([H])c(Oc6c([H])c([H])c(F)c([H])c6F)c([H])c5[H])c(C(=O)N([H])[H])c4N([H])[H])C3([H])[H])c([H])c([H])c2C1([H])[H]

>  <smiles>  (29) 
[H]c1c([H])c([H])c2c(c1[H])C([H])([H])C([H])([H])C([H])([H])C2([H])N([H])C(=O)C1([H])N(C(=O)C([H])(N([H])C(=O)C([H])(N([H])C([H])([H])[H])C([H])([H])[H])C(C([H])([H])[H])(C([H])([H])[H])C([H])([H])[H])C([H])([H])c2c([H])c(OC([H])([H])C([H])([H])C([H])([H])C([H])([H])C([H])(C3([H])C([H])([H])C([H])([H])C([H])([H])C([H])([H])C3([H])[H])[N+]([H])([H])C([H])([H])C([H])([H])C([H])([H])C(=O)N3C([H])([H])C([H])([H])C([H])([H])C([H])(n4nc(-c5c([H])c([H])c(Oc6c([H])c([H])c(F)c([H])c6F)c([H])c5[H])c(C(=O)N([H])[H])c4N([H])[H])C3([H])[H])c([H])c([H])c2C1([H])[H]

$$$$
29:0:0
     RDKit          3D

 91 98  0  0  1  0  0  0  0  0999 V2000
  -30.0930  -20.0430   20.4450 C   0  0  0  0  0  0  0  0  0  0  0  0
  -29.6810  -18.7410   20.6070 N   0  0  0  0  0  0  0  0  0  0  0  0
  -31.1570  -20.2990   19.8820 O   0  0  0  0  0  0  0  0  0  0  0  0
  -28.8150  -18.6190   21.1140 H   0  0  0  0  0  0  0  0  0  0  0  0
  -29.2570  -21.2650   21.0010 C   0  0  0  0  0  2  0  0  0  0  0  0
  -29.0740  -22.5610   20.0790 C   0  0  0  0  0  2  0  0  0  0  0  0
  -28.9110  -24.0100   20.7390 C   0  0  0  0  0  3  0  0  0  0  0  0
  -28.3240  -25.1670   19.8160 C   0  0  0  0  0  3  0  0  0  0  0  0
  -28.3440  -26.5850   20.2680 O   0  0  0  0  0  0  0  0  0  0  0  0
  -24.6080  -31.9770   23.2690 C   0  0  0  0  0  0  0  0  0  0  0  0
  -27.2040  -27.4090   20.1970 C   0  0  0  0  0  0  0  0  0  0  0  0
  -23.3890  -30.5590   21.6580 C   0  0  0  0  0  3  0  0  0  0  0  0
  -24.8280  -29.0150   20.2160 C   0  0  0  0  0  0  0  0  0  0  0  0
  -25.9250  -30.8880   21.4420 C   0  0  0  0  0  2  0  0  0  0  0  0
  -26.0010  -29.5080   20.7990 C   0  0  0  0  0  0  0  0  0  0  0  0
  -27.1870  -28.7140   20.7870 C   0  0  0  0  0  3  0  0  0  0  0  0
  -26.0070  -26.9860   19.5700 C   0  0  0  0  0  3  0  0  0  0  0  0
  -24.8340  -27.7610   19.5930 C   0  0  0  0  0  3  0  0  0  0  0  0
  -23.5860  -29.8810   20.2780 C   0  0  0  0  0  2  0  0  0  0  0  0
  -24.6600  -31.1600   22.1770 N   0  0  0  0  0  0  0  0  0  0  0  0
  -23.5300  -32.2530   23.8170 O   0  0  0  0  0  0  0  0  0  0  0  0
  -22.7510  -29.5410   22.6320 C   0  0  0  0  0  0  0  0  0  0  0  0
  -21.4340  -29.3140   22.4920 N   0  0  0  0  0  0  0  0  0  0  0  0
  -23.4390  -28.9610   23.4770 O   0  0  0  0  0  0  0  0  0  0  0  0
  -20.9370  -29.8340   21.7820 H   0  0  0  0  0  0  0  0  0  0  0  0
  -18.0950  -28.0060   22.9680 C   0  0  0  0  0  0  0  0  0  0  0  0
  -20.6370  -28.3690   23.2750 C   0  0  0  0  0  3  0  0  0  0  0  0
  -20.8030  -26.9270   22.7460 C   0  0  0  0  0  2  0  0  0  0  0  0
  -19.7330  -26.5310   21.7240 C   0  0  0  0  0  2  0  0  0  0  0  0
  -18.3350  -26.6440   22.3370 C   0  0  0  0  0  2  0  0  0  0  0  0
  -19.1760  -28.8220   23.3950 C   0  0  0  0  0  0  0  0  0  0  0  0
  -18.9000  -30.0930   23.9420 C   0  0  0  0  0  3  0  0  0  0  0  0
  -17.5740  -30.5500   24.0690 C   0  0  0  0  0  3  0  0  0  0  0  0
  -16.5060  -29.7310   23.6610 C   0  0  0  0  0  3  0  0  0  0  0  0
  -16.7680  -28.4610   23.1170 C   0  0  0  0  0  3  0  0  0  0  0  0
  -25.8970  -32.6230   23.8650 C   0  0  0  0  0  3  0  0  0  0  0  0
  -25.5800  -34.0210   24.1910 N   0  0  0  0  0  0  0  0  0  0  0  0
  -25.8940  -35.0720   23.4210 C   0  0  0  0  0  0  0  0  0  0  0  0
  -26.5510  -34.9690   22.3820 O   0  0  0  0  0  0  0  0  0  0  0  0
  -24.9940  -34.1750   24.9980 H   0  0  0  0  0  0  0  0  0  0  0  0
  -24.1480  -36.8510   23.0830 C   0  0  0  0  0  1  0  0  0  0  0  0
  -25.4030  -36.4600   23.8780 C   0  0  0  0  0  3  0  0  0  0  0  0
  -27.5390  -37.3670   24.6810 C   0  0  0  0  0  1  0  0  0  0  0  0
  -26.4270  -37.5190   23.7460 N   0  0  0  0  0  0  0  0  0  0  0  0
  -26.0150  -38.4370   23.8910 H   0  0  0  0  0  0  0  0  0  0  0  0
  -26.4400  -31.8660   25.1380 C   0  0  1  0  0  0  0  0  0  0  0  0
  -25.3570  -31.5900   26.2070 C   0  0  0  0  0  1  0  0  0  0  0  0
  -27.0670  -30.5080   24.7460 C   0  0  0  0  0  1  0  0  0  0  0  0
  -27.5660  -32.6960   25.8000 C   0  0  0  0  0  1  0  0  0  0  0  0
  -30.3220  -17.4700   20.0760 C   0  0  0  0  0  3  0  0  0  0  0  0
  -29.9260  -16.1040   20.8230 C   0  0  0  0  0  2  0  0  0  0  0  0
  -30.6860  -14.7720   20.3940 C   0  0  0  0  0  0  0  0  0  0  0  0
  -30.4930  -12.5220   19.3500 C   0  0  0  0  0  2  0  0  0  0  0  0
  -29.5720  -12.6320   18.1140 C   0  0  0  0  0  2  0  0  0  0  0  0
  -28.0940  -12.4680   18.5170 C   0  0  0  0  0  2  0  0  0  0  0  0
  -27.7080  -13.3390   19.7410 C   0  0  0  0  0  3  0  0  0  0  0  0
  -28.7490  -13.2150   20.8760 C   0  0  0  0  0  2  0  0  0  0  0  0
  -30.0640  -13.5510   20.3190 N   0  0  0  0  0  0  0  0  0  0  0  0
  -31.8510  -14.8900   20.0030 O   0  0  0  0  0  0  0  0  0  0  0  0
  -25.2960  -13.9180   20.4140 C   0  0  0  0  0  0  0  0  0  0  0  0
  -24.2310  -13.1360   20.7710 C   0  0  0  0  0  0  0  0  0  0  0  0
  -24.7080  -11.7890   20.7600 C   0  0  0  0  0  0  0  0  0  0  0  0
  -26.3540  -13.0460   20.2070 N   0  0  0  0  0  0  0  0  0  0  0  0
  -26.0050  -11.7610   20.4760 N   0  0  0  0  0  0  0  0  0  0  0  0
  -23.9890  -10.5200   20.9470 C   0  0  0  0  0  0  0  0  0  0  0  0
  -24.3770   -9.5920   21.9400 C   0  0  0  0  0  3  0  0  0  0  0  0
  -23.6590   -8.3900   22.1130 C   0  0  0  0  0  3  0  0  0  0  0  0
  -22.5400   -8.1060   21.2940 C   0  0  0  0  0  0  0  0  0  0  0  0
  -22.1720   -9.0230   20.2930 C   0  0  0  0  0  3  0  0  0  0  0  0
  -22.8910  -10.2180   20.1180 C   0  0  0  0  0  3  0  0  0  0  0  0
  -21.7990   -6.9520   21.3740 O   0  0  0  0  0  0  0  0  0  0  0  0
  -21.6440   -6.2750   22.5570 C   0  0  0  0  0  0  0  0  0  0  0  0
  -21.0590   -6.8810   23.6910 C   0  0  0  0  0  3  0  0  0  0  0  0
  -20.8550   -6.1290   24.8640 C   0  0  0  0  0  3  0  0  0  0  0  0
  -21.2290   -4.7720   24.9060 C   0  0  0  0  0  0  0  0  0  0  0  0
  -21.8060   -4.1650   23.7760 C   0  0  0  0  0  3  0  0  0  0  0  0
  -22.0110   -4.9150   22.6040 C   0  0  0  0  0  0  0  0  0  0  0  0
  -22.5490   -4.3210   21.5120 F   0  0  0  0  0  0  0  0  0  0  0  0
  -21.0260   -4.0460   26.0300 F   0  0  0  0  0  0  0  0  0  0  0  0
  -22.8240  -13.6000   21.0130 C   0  0  0  0  0  0  0  0  0  0  0  0
  -22.0840  -12.8950   21.8620 N   0  0  0  0  0  0  0  0  0  0  0  0
  -22.3880  -14.6220   20.4850 O   0  0  0  0  0  0  0  0  0  0  0  0
  -22.4490  -12.0680   22.3100 H   0  0  0  0  0  0  0  0  0  0  0  0
  -21.1400  -13.1880   22.0670 H   0  0  0  0  0  0  0  0  0  0  0  0
  -25.4500  -15.2880   20.2270 N   0  0  0  0  0  0  0  0  0  0  0  0
  -24.6750  -15.9360   20.3140 H   0  0  0  0  0  0  0  0  0  0  0  0
  -26.3020  -15.7320   19.9120 H   0  0  0  0  0  0  0  0  0  0  0  0
  -30.0340  -17.3170   18.5510 C   0  0  0  0  0  2  0  0  0  0  0  0
  -32.2050  -18.1130   17.4300 C   0  0  0  0  0  1  0  0  0  0  0  0
  -30.0170  -18.2840   16.2040 C   0  0  0  0  0  1  0  0  0  0  0  0
  -30.6900  -18.3340   17.5860 C   0  0  0  0  0  3  0  0  0  0  0  0
  1  2  1  0
  1  5  1  0
  2  4  1  0
  3  1  2  0
  6  7  1  0
  6  5  1  0
  8  9  1  0
  8  7  2  0
 10 21  2  0
 11  9  1  0
 11 16  1  0
 12 20  1  0
 12 22  1  0
 13 19  1  0
 13 15  1  0
 14 20  1  0
 15 14  1  0
 16 15  2  0
 17 18  1  0
 17 11  2  0
 18 13  2  0
 19 12  1  0
 20 10  1  0
 22 24  2  0
 23 22  1  0
 25 23  1  0
 26 35  2  0
 26 31  1  0
 27 23  1  0
 27 31  1  0
 28 27  1  0
 29 30  1  0
 29 28  1  0
 30 26  1  0
 31 32  2  0
 32 33  1  0
 34 33  2  0
 35 34  1  0
 36 10  1  0
 36 37  1  0
 36 46  1  0
 37 40  1  0
 38 42  1  0
 38 37  1  0
 39 38  2  0
 42 41  1  0
 44 42  1  0
 44 45  1  0
 44 43  1  0
 46 49  1  1
 46 47  1  0
 48 46  1  0
 50 88  1  0
 50  2  1  0
 50 51  1  0
 52 51  1  0
 53 58  1  0
 54 55  1  0
 54 53  1  0
 56 55  1  0
 56 63  1  0
 56 57  1  0
 58 52  1  0
 58 57  1  0
 59 52  2  0
 60 61  2  0
 61 80  1  0
 62 61  1  0
 62 65  1  0
 63 60  1  0
 63 64  1  0
 64 62  2  0
 65 66  1  0
 66 67  2  0
 68 71  1  0
 68 67  1  0
 69 68  2  0
 70 69  1  0
 70 65  2  0
 71 72  1  0
 72 77  2  0
 72 73  1  0
 73 74  2  0
 74 75  1  0
 75 79  1  0
 76 75  2  0
 77 76  1  0
 78 77  1  0
 80 81  1  0
 81 84  1  0
 81 83  1  0
 82 80  2  0
 85 86  1  0
 85 60  1  0
 87 85  1  0
 89 91  1  0
 90 91  1  0
 91 88  1  0
M  ISO  4   8 101   9 101  51 100  52 100
M  END
>  <TORSDO>  (30) 
F 24

>  <SCORE>  (30) 
-12.261

>  <name>  (30) 
29

>  <ligand_id>  (30) 
29

>  <original_smiles>  (30) 
[H]c1c([H])c([H])c2c(c1[H])C([H])([H])C([H])([H])C([H])([H])C2([H])N([H])C(=O)C1([H])N(C(=O)C([H])(N([H])C(=O)C([H])(N([H])C([H])([H])[H])C([H])([H])[H])C(C([H])([H])[H])(C([H])([H])[H])C([H])([H])[H])C([H])([H])c2c([H])c(OC([H])([H])C([H])([H])C([H])([H])C([H])([H])C(=O)N([H])C([H])(C([H])([H])C(=O)N3C([H])([H])C([H])([H])C([H])([H])C([H])(n4nc(-c5c([H])c([H])c(Oc6c([H])c([H])c(F)c([H])c6F)c([H])c5[H])c(C(=O)N([H])[H])c4N([H])[H])C3([H])[H])C([H])([H])C([H])(C([H])([H])[H])C([H])([H])[H])c([H])c([H])c2C1([H])[H]

>  <smiles>  (30) 
[H]c1c([H])c([H])c2c(c1[H])C([H])([H])C([H])([H])C([H])([H])C2([H])N([H])C(=O)C1([H])N(C(=O)C([H])(N([H])C(=O)C([H])(N([H])C([H])([H])[H])C([H])([H])[H])C(C([H])([H])[H])(C([H])([H])[H])C([H])([H])[H])C([H])([H])c2c([H])c(OC([H])([H])C([H])([H])C([H])([H])C([H])([H])C(=O)N([H])C([H])(C([H])([H])C(=O)N3C([H])([H])C([H])([H])C([H])([H])C([H])(n4nc(-c5c([H])c([H])c(Oc6c([H])c([H])c(F)c([H])c6F)c([H])c5[H])c(C(=O)N([H])[H])c4N([H])[H])C3([H])[H])C([H])([H])C([H])(C([H])([H])[H])C([H])([H])[H])c([H])c([H])c2C1([H])[H]

$$$$
30:0:0
     RDKit          3D

 91 99  0  0  1  0  0  0  0  0999 V2000
  -28.9070  -21.2780   19.7160 N   0  0  0  0  0  4  0  0  0  0  0  0
  -28.7310  -21.6260   18.7880 H   0  0  0  0  0  0  0  0  0  0  0  0
  -28.0360  -20.8660   20.0120 H   0  0  0  0  0  0  0  0  0  0  0  0
  -31.3570  -20.6980   19.2730 C   0  0  0  0  0  1  0  0  0  0  0  0
  -29.9300  -20.1600   19.4930 C   0  0  0  0  0  3  0  0  0  0  0  0
  -31.7510  -18.4350   21.8940 C   0  0  0  0  0  2  0  0  0  0  0  0
  -31.9960  -17.6720   20.5900 C   0  0  0  0  0  2  0  0  0  0  0  0
  -30.3480  -19.0580   21.8070 C   0  0  0  0  0  2  0  0  0  0  0  0
  -30.6190  -17.4960   19.9300 C   0  0  0  0  0  3  0  0  0  0  0  0
  -29.8260  -18.8200   20.3840 C   0  0  0  0  0  3  0  0  0  0  0  0
  -30.0370  -16.0590   20.3410 C   0  0  0  0  0  2  0  0  0  0  0  0
  -30.8460  -14.7390   19.9640 C   0  0  0  0  0  0  0  0  0  0  0  0
  -30.5740  -12.4980   18.9220 C   0  0  0  0  0  2  0  0  0  0  0  0
  -29.5690  -12.6380   17.7570 C   0  0  0  0  0  2  0  0  0  0  0  0
  -28.1200  -12.4880   18.2590 C   0  0  0  0  0  2  0  0  0  0  0  0
  -27.8320  -13.3540   19.5150 C   0  0  0  0  0  3  0  0  0  0  0  0
  -28.9450  -13.2020   20.5720 C   0  0  0  0  0  2  0  0  0  0  0  0
  -30.2270  -13.5170   19.9330 N   0  0  0  0  0  0  0  0  0  0  0  0
  -31.9970  -14.8570   19.5330 O   0  0  0  0  0  0  0  0  0  0  0  0
  -25.5070  -13.9790   20.4020 C   0  0  0  0  0  0  0  0  0  0  0  0
  -24.4460  -13.2150   20.8080 C   0  0  0  0  0  0  0  0  0  0  0  0
  -24.8750  -11.8570   20.7040 C   0  0  0  0  0  0  0  0  0  0  0  0
  -26.5120  -13.0850   20.0740 N   0  0  0  0  0  0  0  0  0  0  0  0
  -26.1430  -11.8020   20.3180 N   0  0  0  0  0  0  0  0  0  0  0  0
  -24.1350  -10.6030   20.8910 C   0  0  0  0  0  0  0  0  0  0  0  0
  -24.5320   -9.6500   21.8540 C   0  0  0  0  0  3  0  0  0  0  0  0
  -23.7940   -8.4600   22.0280 C   0  0  0  0  0  3  0  0  0  0  0  0
  -22.6460   -8.2140   21.2380 C   0  0  0  0  0  0  0  0  0  0  0  0
  -22.2700   -9.1560   20.2650 C   0  0  0  0  0  3  0  0  0  0  0  0
  -23.0080  -10.3370   20.0880 C   0  0  0  0  0  3  0  0  0  0  0  0
  -21.8810   -7.0750   21.3200 O   0  0  0  0  0  0  0  0  0  0  0  0
  -21.7080   -6.4090   22.5070 C   0  0  0  0  0  0  0  0  0  0  0  0
  -21.1060   -7.0250   23.6250 C   0  0  0  0  0  3  0  0  0  0  0  0
  -20.8830   -6.2810   24.8020 C   0  0  0  0  0  3  0  0  0  0  0  0
  -21.2510   -4.9240   24.8590 C   0  0  0  0  0  0  0  0  0  0  0  0
  -21.8460   -4.3090   23.7440 C   0  0  0  0  0  3  0  0  0  0  0  0
  -22.0700   -5.0490   22.5690 C   0  0  0  0  0  0  0  0  0  0  0  0
  -22.6240   -4.4450   21.4900 F   0  0  0  0  0  0  0  0  0  0  0  0
  -21.0310   -4.2080   25.9870 F   0  0  0  0  0  0  0  0  0  0  0  0
  -23.0770  -13.7090   21.1760 C   0  0  0  0  0  0  0  0  0  0  0  0
  -22.3810  -12.9920   22.0500 N   0  0  0  0  0  0  0  0  0  0  0  0
  -22.6330  -14.7640   20.7220 O   0  0  0  0  0  0  0  0  0  0  0  0
  -22.7500  -12.1340   22.4340 H   0  0  0  0  0  0  0  0  0  0  0  0
  -21.4660  -13.3050   22.3420 H   0  0  0  0  0  0  0  0  0  0  0  0
  -25.6960  -15.3520   20.2630 N   0  0  0  0  0  0  0  0  0  0  0  0
  -24.9610  -16.0270   20.4430 H   0  0  0  0  0  0  0  0  0  0  0  0
  -26.5440  -15.7750   19.9080 H   0  0  0  0  0  0  0  0  0  0  0  0
  -29.1680  -22.5370   20.5390 C   0  0  0  0  0  3  0  0  0  0  0  0
  -28.5530  -23.9020   19.9460 C   0  0  0  0  0  3  0  0  0  0  0  0
  -28.5350  -25.2240   20.8480 C   0  0  0  0  0  2  0  0  0  0  0  0
  -28.4970  -26.5650   20.2260 O   0  0  0  0  0  0  0  0  0  0  0  0
  -24.6140  -31.8640   23.2530 C   0  0  0  0  0  0  0  0  0  0  0  0
  -27.3330  -27.3400   20.2570 C   0  0  0  0  0  0  0  0  0  0  0  0
  -23.4500  -30.4440   21.5950 C   0  0  0  0  0  3  0  0  0  0  0  0
  -24.9410  -28.8980   20.2050 C   0  0  0  0  0  0  0  0  0  0  0  0
  -25.9830  -30.7970   21.4500 C   0  0  0  0  0  2  0  0  0  0  0  0
  -26.0920  -29.4160   20.8120 C   0  0  0  0  0  0  0  0  0  0  0  0
  -27.2930  -28.6500   20.8220 C   0  0  0  0  0  3  0  0  0  0  0  0
  -26.1610  -26.8570   19.6440 C   0  0  0  0  0  3  0  0  0  0  0  0
  -24.9750  -27.6220   19.6130 C   0  0  0  0  0  3  0  0  0  0  0  0
  -23.6910  -29.7560   20.2230 C   0  0  0  0  0  2  0  0  0  0  0  0
  -24.6980  -31.0560   22.1540 N   0  0  0  0  0  0  0  0  0  0  0  0
  -23.5220  -32.1360   23.7710 O   0  0  0  0  0  0  0  0  0  0  0  0
  -22.7820  -29.4300   22.5530 C   0  0  0  0  0  0  0  0  0  0  0  0
  -21.4600  -29.2480   22.4080 N   0  0  0  0  0  0  0  0  0  0  0  0
  -23.4530  -28.8090   23.3820 O   0  0  0  0  0  0  0  0  0  0  0  0
  -20.9820  -29.7960   21.7090 H   0  0  0  0  0  0  0  0  0  0  0  0
  -18.0790  -28.0500   22.8740 C   0  0  0  0  0  0  0  0  0  0  0  0
  -20.6340  -28.3080   23.1680 C   0  0  0  0  0  3  0  0  0  0  0  0
  -20.7430  -26.8810   22.5840 C   0  0  0  0  0  2  0  0  0  0  0  0
  -19.6500  -26.5630   21.5600 C   0  0  0  0  0  2  0  0  0  0  0  0
  -18.2610  -26.7040   22.1920 C   0  0  0  0  0  2  0  0  0  0  0  0
  -19.1940  -28.8110   23.3150 C   0  0  0  0  0  0  0  0  0  0  0  0
  -18.9690  -30.0700   23.9130 C   0  0  0  0  0  3  0  0  0  0  0  0
  -17.6640  -30.5700   24.0720 C   0  0  0  0  0  3  0  0  0  0  0  0
  -16.5630  -29.8060   23.6470 C   0  0  0  0  0  3  0  0  0  0  0  0
  -16.7720  -28.5480   23.0550 C   0  0  0  0  0  3  0  0  0  0  0  0
  -25.8840  -32.5070   23.8940 C   0  0  0  0  0  3  0  0  0  0  0  0
  -25.5640  -33.9060   24.2070 N   0  0  0  0  0  0  0  0  0  0  0  0
  -25.9110  -34.9550   23.4500 C   0  0  0  0  0  0  0  0  0  0  0  0
  -26.6060  -34.8470   22.4350 O   0  0  0  0  0  0  0  0  0  0  0  0
  -24.9470  -34.0630   24.9910 H   0  0  0  0  0  0  0  0  0  0  0  0
  -24.1960  -36.7470   23.0340 C   0  0  0  0  0  1  0  0  0  0  0  0
  -25.4110  -36.3450   23.8880 C   0  0  0  0  0  3  0  0  0  0  0  0
  -27.5090  -37.2360   24.7970 C   0  0  0  0  0  1  0  0  0  0  0  0
  -26.4470  -37.3970   23.8060 N   0  0  0  0  0  0  0  0  0  0  0  0
  -26.0370  -38.3180   23.9300 H   0  0  0  0  0  0  0  0  0  0  0  0
  -26.3800  -31.7500   25.1870 C   0  0  1  0  0  0  0  0  0  0  0  0
  -25.2630  -31.5060   26.2300 C   0  0  0  0  0  1  0  0  0  0  0  0
  -26.9870  -30.3770   24.8180 C   0  0  0  0  0  1  0  0  0  0  0  0
  -27.5050  -32.5630   25.8690 C   0  0  0  0  0  1  0  0  0  0  0  0
  1  3  1  0
  1 48  1  0
  2  1  1  0
  5  4  1  0
  5  1  1  0
  7  6  1  0
  8  6  1  0
  9 11  1  0
  9 10  1  0
  9  7  1  0
 10  5  1  0
 10  8  1  0
 12 11  1  0
 13 18  1  0
 14 15  1  0
 14 13  1  0
 16 15  1  0
 16 23  1  0
 16 17  1  0
 18 12  1  0
 18 17  1  0
 19 12  2  0
 20 21  2  0
 21 40  1  0
 22 21  1  0
 22 25  1  0
 23 24  1  0
 23 20  1  0
 24 22  2  0
 25 26  1  0
 26 27  2  0
 28 31  1  0
 28 27  1  0
 29 28  2  0
 30 29  1  0
 30 25  2  0
 31 32  1  0
 32 37  2  0
 32 33  1  0
 33 34  2  0
 34 35  1  0
 35 39  1  0
 36 35  2  0
 37 36  1  0
 38 37  1  0
 40 41  1  0
 41 44  1  0
 41 43  1  0
 42 40  2  0
 45 20  1  0
 45 46  1  0
 47 45  1  0
 49 48  2  0
 49 50  1  0
 51 53  1  0
 51 50  1  0
 52 63  2  0
 53 58  1  0
 54 62  1  0
 54 64  1  0
 55 61  1  0
 55 57  1  0
 56 62  1  0
 57 58  2  0
 57 56  1  0
 59 53  2  0
 60 59  1  0
 60 55  2  0
 61 54  1  0
 62 52  1  0
 64 66  2  0
 65 64  1  0
 67 65  1  0
 68 77  2  0
 68 73  1  0
 69 65  1  0
 69 73  1  0
 70 69  1  0
 71 72  1  0
 71 70  1  0
 72 68  1  0
 73 74  2  0
 74 75  1  0
 76 75  2  0
 77 76  1  0
 78 52  1  0
 78 79  1  0
 78 88  1  0
 79 82  1  0
 80 84  1  0
 80 79  1  0
 81 80  2  0
 84 83  1  0
 86 84  1  0
 86 87  1  0
 86 85  1  0
 88 91  1  1
 88 89  1  0
 90 88  1  0
M  ISO  4  11 100  12 100  50 101  51 101
M  END
>  <TORSDO>  (31) 
F 22

>  <SCORE>  (31) 
-12.621

>  <name>  (31) 
30

>  <ligand_id>  (31) 
30

>  <original_smiles>  (31) 
[H]c1c([H])c([H])c2c(c1[H])C([H])([H])C([H])([H])C([H])([H])C2([H])N([H])C(=O)C1([H])N(C(=O)C([H])(N([H])C(=O)C([H])(N([H])C([H])([H])[H])C([H])([H])[H])C(C([H])([H])[H])(C([H])([H])[H])C([H])([H])[H])C([H])([H])c2c([H])c(OC([H])([H])C([H])([H])C([H])([H])[N+]([H])([H])C([H])(C([H])([H])[H])C3([H])C([H])([H])C([H])([H])C([H])([H])C3([H])C([H])([H])C(=O)N3C([H])([H])C([H])([H])C([H])([H])C([H])(n4nc(-c5c([H])c([H])c(Oc6c([H])c([H])c(F)c([H])c6F)c([H])c5[H])c(C(=O)N([H])[H])c4N([H])[H])C3([H])[H])c([H])c([H])c2C1([H])[H]

>  <smiles>  (31) 
[H]c1c([H])c([H])c2c(c1[H])C([H])([H])C([H])([H])C([H])([H])C2([H])N([H])C(=O)C1([H])N(C(=O)C([H])(N([H])C(=O)C([H])(N([H])C([H])([H])[H])C([H])([H])[H])C(C([H])([H])[H])(C([H])([H])[H])C([H])([H])[H])C([H])([H])c2c([H])c(OC([H])([H])C([H])([H])C([H])([H])[N+]([H])([H])C([H])(C([H])([H])[H])C3([H])C([H])([H])C([H])([H])C([H])([H])C3([H])C([H])([H])C(=O)N3C([H])([H])C([H])([H])C([H])([H])C([H])(n4nc(-c5c([H])c([H])c(Oc6c([H])c([H])c(F)c([H])c6F)c([H])c5[H])c(C(=O)N([H])[H])c4N([H])[H])C3([H])[H])c([H])c([H])c2C1([H])[H]

$$$$
31:0:0
     RDKit          3D

 89 97  0  0  1  0  0  0  0  0999 V2000
  -29.0260  -23.1000   21.8200 C   0  0  0  0  0  2  0  0  0  0  0  0
  -28.4560  -23.3310   19.4280 C   0  0  0  0  0  2  0  0  0  0  0  0
  -29.7890  -21.7760   21.5150 C   0  0  0  0  0  2  0  0  0  0  0  0
  -29.2320  -22.0080   19.1460 C   0  0  0  0  0  2  0  0  0  0  0  0
  -29.0030  -24.1120   20.6430 C   0  0  0  0  0  3  0  0  0  0  0  0
  -29.2740  -21.0660   20.3080 N   0  0  1  0  0  4  0  0  0  0  0  0
  -28.3180  -20.8020   20.4940 H   0  0  0  0  0  0  0  0  0  0  0  0
  -28.1800  -25.4030   21.0070 C   0  0  0  0  0  2  0  0  0  0  0  0
  -28.3450  -26.5890   20.1820 O   0  0  0  0  0  0  0  0  0  0  0  0
  -24.5890  -31.8840   23.2140 C   0  0  0  0  0  0  0  0  0  0  0  0
  -27.2230  -27.4030   20.1500 C   0  0  0  0  0  0  0  0  0  0  0  0
  -23.3840  -30.4770   21.5770 C   0  0  0  0  0  3  0  0  0  0  0  0
  -24.8390  -28.9390   20.1470 C   0  0  0  0  0  0  0  0  0  0  0  0
  -25.9130  -30.8310   21.3760 C   0  0  0  0  0  2  0  0  0  0  0  0
  -26.0010  -29.4570   20.7350 C   0  0  0  0  0  0  0  0  0  0  0  0
  -27.2010  -28.6990   20.7280 C   0  0  0  0  0  3  0  0  0  0  0  0
  -26.0470  -26.9160   19.5420 C   0  0  0  0  0  3  0  0  0  0  0  0
  -24.8600  -27.6700   19.5440 C   0  0  0  0  0  3  0  0  0  0  0  0
  -23.5930  -29.7970   20.1980 C   0  0  0  0  0  2  0  0  0  0  0  0
  -24.6470  -31.0800   22.1140 N   0  0  0  0  0  0  0  0  0  0  0  0
  -23.5070  -32.1560   23.7550 O   0  0  0  0  0  0  0  0  0  0  0  0
  -22.7330  -29.4580   22.5410 C   0  0  0  0  0  0  0  0  0  0  0  0
  -21.4070  -29.2790   22.4220 N   0  0  0  0  0  0  0  0  0  0  0  0
  -23.4190  -28.8310   23.3530 O   0  0  0  0  0  0  0  0  0  0  0  0
  -20.9150  -29.8360   21.7380 H   0  0  0  0  0  0  0  0  0  0  0  0
  -18.0320  -28.0890   22.9400 C   0  0  0  0  0  0  0  0  0  0  0  0
  -20.5930  -28.3420   23.1960 C   0  0  0  0  0  3  0  0  0  0  0  0
  -20.6880  -26.9110   22.6170 C   0  0  0  0  0  2  0  0  0  0  0  0
  -19.5790  -26.5920   21.6100 C   0  0  0  0  0  2  0  0  0  0  0  0
  -18.2020  -26.7410   22.2610 C   0  0  0  0  0  2  0  0  0  0  0  0
  -19.1550  -28.8480   23.3640 C   0  0  0  0  0  0  0  0  0  0  0  0
  -18.9440  -30.1110   23.9580 C   0  0  0  0  0  3  0  0  0  0  0  0
  -17.6410  -30.6160   24.1320 C   0  0  0  0  0  3  0  0  0  0  0  0
  -16.5320  -29.8540   23.7250 C   0  0  0  0  0  3  0  0  0  0  0  0
  -16.7290  -28.5920   23.1350 C   0  0  0  0  0  3  0  0  0  0  0  0
  -25.8740  -32.5190   23.8310 C   0  0  0  0  0  3  0  0  0  0  0  0
  -25.5610  -33.9150   24.1650 N   0  0  0  0  0  0  0  0  0  0  0  0
  -25.8890  -34.9720   23.4090 C   0  0  0  0  0  0  0  0  0  0  0  0
  -26.5580  -34.8730   22.3760 O   0  0  0  0  0  0  0  0  0  0  0  0
  -24.9680  -34.0650   24.9690 H   0  0  0  0  0  0  0  0  0  0  0  0
  -24.1560  -36.7600   23.0610 C   0  0  0  0  0  1  0  0  0  0  0  0
  -25.3970  -36.3560   23.8720 C   0  0  0  0  0  3  0  0  0  0  0  0
  -27.5300  -37.2430   24.7050 C   0  0  0  0  0  1  0  0  0  0  0  0
  -26.4270  -37.4130   23.7630 N   0  0  0  0  0  0  0  0  0  0  0  0
  -26.0190  -38.3300   23.9160 H   0  0  0  0  0  0  0  0  0  0  0  0
  -26.4030  -31.7470   25.1000 C   0  0  1  0  0  0  0  0  0  0  0  0
  -25.3170  -31.4990   26.1740 C   0  0  0  0  0  1  0  0  0  0  0  0
  -26.9900  -30.3730   24.6990 C   0  0  0  0  0  1  0  0  0  0  0  0
  -27.5540  -32.5440   25.7580 C   0  0  0  0  0  1  0  0  0  0  0  0
  -30.0180  -19.7900   19.9900 C   0  0  0  0  0  2  0  0  0  0  0  0
  -29.6030  -18.4980   20.7820 C   0  0  0  0  0  2  0  0  0  0  0  0
  -30.3890  -17.2010   20.3660 C   0  0  0  0  0  3  0  0  0  0  0  0
  -29.9480  -15.8370   21.0160 C   0  0  0  0  0  3  0  0  0  0  0  0
  -30.6680  -14.5670   20.4480 C   0  0  0  0  0  0  0  0  0  0  0  0
  -30.4010  -12.3760   19.3210 C   0  0  0  0  0  2  0  0  0  0  0  0
  -29.4630  -12.5630   18.1100 C   0  0  0  0  0  2  0  0  0  0  0  0
  -27.9880  -12.4170   18.5330 C   0  0  0  0  0  2  0  0  0  0  0  0
  -27.6420  -13.2600   19.7890 C   0  0  0  0  0  3  0  0  0  0  0  0
  -28.6960  -13.0670   20.9020 C   0  0  0  0  0  2  0  0  0  0  0  0
  -30.0170  -13.3720   20.3360 N   0  0  0  0  0  0  0  0  0  0  0  0
  -31.8060  -14.7150   19.9910 O   0  0  0  0  0  0  0  0  0  0  0  0
  -25.2410  -13.8660   20.4860 C   0  0  0  0  0  0  0  0  0  0  0  0
  -24.1720  -13.0940   20.8550 C   0  0  0  0  0  0  0  0  0  0  0  0
  -24.6370  -11.7420   20.8370 C   0  0  0  0  0  0  0  0  0  0  0  0
  -26.2890  -12.9850   20.2670 N   0  0  0  0  0  0  0  0  0  0  0  0
  -25.9290  -11.7040   20.5360 N   0  0  0  0  0  0  0  0  0  0  0  0
  -23.9120  -10.4800   21.0340 C   0  0  0  0  0  0  0  0  0  0  0  0
  -24.3510   -9.5120   21.9650 C   0  0  0  0  0  3  0  0  0  0  0  0
  -23.6260   -8.3150   22.1490 C   0  0  0  0  0  3  0  0  0  0  0  0
  -22.4490   -8.0770   21.4020 C   0  0  0  0  0  0  0  0  0  0  0  0
  -22.0290   -9.0320   20.4600 C   0  0  0  0  0  3  0  0  0  0  0  0
  -22.7540  -10.2210   20.2740 C   0  0  0  0  0  3  0  0  0  0  0  0
  -21.6950   -6.9320   21.4950 O   0  0  0  0  0  0  0  0  0  0  0  0
  -21.6660   -6.1820   22.6440 C   0  0  0  0  0  0  0  0  0  0  0  0
  -21.2700   -6.7310   23.8820 C   0  0  0  0  0  3  0  0  0  0  0  0
  -21.1860   -5.9090   25.0240 C   0  0  0  0  0  3  0  0  0  0  0  0
  -21.4880   -4.5370   24.9260 C   0  0  0  0  0  0  0  0  0  0  0  0
  -21.8780   -3.9870   23.6930 C   0  0  0  0  0  3  0  0  0  0  0  0
  -21.9630   -4.8060   22.5540 C   0  0  0  0  0  0  0  0  0  0  0  0
  -22.3180   -4.2670   21.3630 F   0  0  0  0  0  0  0  0  0  0  0  0
  -21.4010   -3.7430   26.0200 F   0  0  0  0  0  0  0  0  0  0  0  0
  -22.7730  -13.5710   21.1170 C   0  0  0  0  0  0  0  0  0  0  0  0
  -22.0430  -12.8780   21.9850 N   0  0  0  0  0  0  0  0  0  0  0  0
  -22.3350  -14.5900   20.5870 O   0  0  0  0  0  0  0  0  0  0  0  0
  -22.4110  -12.0520   22.4330 H   0  0  0  0  0  0  0  0  0  0  0  0
  -21.1040  -13.1800   22.2040 H   0  0  0  0  0  0  0  0  0  0  0  0
  -25.4050  -15.2350   20.2990 N   0  0  0  0  0  0  0  0  0  0  0  0
  -24.6400  -15.8930   20.4000 H   0  0  0  0  0  0  0  0  0  0  0  0
  -26.2600  -15.6710   19.9770 H   0  0  0  0  0  0  0  0  0  0  0  0
  2  5  1  0
  3  1  1  0
  4  2  1  0
  4  6  1  0
  5  8  1  0
  5  1  1  0
  6  7  1  1
  6  3  1  0
  9  8  1  0
 10 21  2  0
 11  9  1  0
 11 16  1  0
 12 20  1  0
 12 22  1  0
 13 19  1  0
 13 15  1  0
 14 20  1  0
 15 14  1  0
 16 15  2  0
 17 18  1  0
 17 11  2  0
 18 13  2  0
 19 12  1  0
 20 10  1  0
 22 24  2  0
 23 22  1  0
 25 23  1  0
 26 35  2  0
 26 31  1  0
 27 23  1  0
 27 31  1  0
 28 27  1  0
 29 30  1  0
 29 28  1  0
 30 26  1  0
 31 32  2  0
 32 33  1  0
 34 33  2  0
 35 34  1  0
 36 10  1  0
 36 37  1  0
 36 46  1  0
 37 40  1  0
 38 42  1  0
 38 37  1  0
 39 38  2  0
 42 41  1  0
 44 42  1  0
 44 45  1  0
 44 43  1  0
 46 49  1  1
 46 47  1  0
 48 46  1  0
 50  6  1  0
 50 51  1  0
 52 51  1  0
 52 53  2  0
 54 53  1  0
 55 60  1  0
 56 57  1  0
 56 55  1  0
 58 57  1  0
 58 65  1  0
 58 59  1  0
 60 54  1  0
 60 59  1  0
 61 54  2  0
 62 63  2  0
 63 82  1  0
 64 63  1  0
 64 67  1  0
 65 62  1  0
 65 66  1  0
 66 64  2  0
 67 68  1  0
 68 69  2  0
 70 73  1  0
 70 69  1  0
 71 70  2  0
 72 71  1  0
 72 67  2  0
 73 74  1  0
 74 75  1  0
 75 76  2  0
 77 76  1  0
 77 81  1  0
 78 77  2  0
 79 74  2  0
 79 78  1  0
 80 79  1  0
 82 83  1  0
 83 86  1  0
 83 85  1  0
 84 82  2  0
 87 88  1  0
 87 62  1  0
 89 87  1  0
M  ISO  4   8 101   9 101  53 100  54 100
M  END
>  <TORSDO>  (32) 
F 21

>  <SCORE>  (32) 
-13.435

>  <name>  (32) 
31

>  <ligand_id>  (32) 
31

>  <original_smiles>  (32) 
[H]c1c([H])c([H])c2c(c1[H])C([H])([H])C([H])([H])C([H])([H])C2([H])N([H])C(=O)C1([H])N(C(=O)C([H])(N([H])C(=O)C([H])(N([H])C([H])([H])[H])C([H])([H])[H])C(C([H])([H])[H])(C([H])([H])[H])C([H])([H])[H])C([H])([H])c2c([H])c(OC([H])([H])C3([H])C([H])([H])C([H])([H])[N+]([H])(C([H])([H])C([H])([H])C([H])([H])C([H])([H])C(=O)N4C([H])([H])C([H])([H])C([H])([H])C([H])(n5nc(-c6c([H])c([H])c(Oc7c([H])c([H])c(F)c([H])c7F)c([H])c6[H])c(C(=O)N([H])[H])c5N([H])[H])C4([H])[H])C([H])([H])C3([H])[H])c([H])c([H])c2C1([H])[H]

>  <smiles>  (32) 
[H]c1c([H])c([H])c2c(c1[H])C([H])([H])C([H])([H])C([H])([H])C2([H])N([H])C(=O)C1([H])N(C(=O)C([H])(N([H])C(=O)C([H])(N([H])C([H])([H])[H])C([H])([H])[H])C(C([H])([H])[H])(C([H])([H])[H])C([H])([H])[H])C([H])([H])c2c([H])c(OC([H])([H])C3([H])C([H])([H])C([H])([H])[N+]([H])(C([H])([H])C([H])([H])C([H])([H])C([H])([H])C(=O)N4C([H])([H])C([H])([H])C([H])([H])C([H])(n5nc(-c6c([H])c([H])c(Oc7c([H])c([H])c(F)c([H])c7F)c([H])c6[H])c(C(=O)N([H])[H])c5N([H])[H])C4([H])[H])C([H])([H])C3([H])[H])c([H])c([H])c2C1([H])[H]

$$$$
32:0:0
     RDKit          3D

 93101  0  0  1  0  0  0  0  0999 V2000
  -29.2820  -23.1950   21.3300 C   0  0  0  0  0  3  0  0  0  0  0  0
  -29.0520  -24.1990   23.7660 C   0  0  0  0  0  2  0  0  0  0  0  0
  -29.5280  -22.7800   23.9420 C   0  0  0  0  0  2  0  0  0  0  0  0
  -29.8880  -23.5430   22.6840 C   0  0  0  0  0  3  0  0  0  0  0  0
  -30.0530  -22.0950   20.7430 N   0  0  0  0  0  0  0  0  0  0  0  0
  -31.0220  -22.1730   21.0380 H   0  0  0  0  0  0  0  0  0  0  0  0
  -29.5270  -20.7680   21.0910 C   0  0  0  0  0  2  0  0  0  0  0  0
  -30.6490  -19.6700   19.0680 C   0  0  0  0  0  1  0  0  0  0  0  0
  -30.4370  -19.6060   20.5980 C   0  0  0  0  0  3  0  0  0  0  0  0
  -29.8910  -18.2880   21.0400 N   0  0  0  0  0  4  0  0  0  0  0  0
  -29.7150  -18.3560   22.0290 H   0  0  0  0  0  0  0  0  0  0  0  0
  -29.0020  -18.1420   20.5890 H   0  0  0  0  0  0  0  0  0  0  0  0
  -30.7610  -17.0980   20.8060 C   0  0  0  0  0  2  0  0  0  0  0  0
  -30.1620  -15.7500   21.3120 C   0  0  0  0  0  2  0  0  0  0  0  0
  -30.8700  -14.5060   20.7190 C   0  0  0  0  0  0  0  0  0  0  0  0
  -30.6240  -12.3230   19.5900 C   0  0  0  0  0  2  0  0  0  0  0  0
  -29.7530  -12.4990   18.3280 C   0  0  0  0  0  2  0  0  0  0  0  0
  -28.2560  -12.3780   18.6710 C   0  0  0  0  0  2  0  0  0  0  0  0
  -27.8490  -13.2500   19.8890 C   0  0  0  0  0  3  0  0  0  0  0  0
  -28.8380  -13.0610   21.0630 C   0  0  0  0  0  2  0  0  0  0  0  0
  -30.1960  -13.3330   20.5680 N   0  0  0  0  0  0  0  0  0  0  0  0
  -32.0180  -14.6510   20.2900 O   0  0  0  0  0  0  0  0  0  0  0  0
  -25.4100  -13.8820   20.4190 C   0  0  0  0  0  0  0  0  0  0  0  0
  -24.3200  -13.1240   20.7520 C   0  0  0  0  0  0  0  0  0  0  0  0
  -24.7810  -11.7730   20.8050 C   0  0  0  0  0  0  0  0  0  0  0  0
  -26.4680  -12.9940   20.2940 N   0  0  0  0  0  0  0  0  0  0  0  0
  -26.0880  -11.7230   20.5820 N   0  0  0  0  0  0  0  0  0  0  0  0
  -24.0420  -10.5180   21.0000 C   0  0  0  0  0  0  0  0  0  0  0  0
  -24.4150   -9.5890   21.9960 C   0  0  0  0  0  3  0  0  0  0  0  0
  -23.6800   -8.3970   22.1770 C   0  0  0  0  0  3  0  0  0  0  0  0
  -22.5570   -8.1270   21.3610 C   0  0  0  0  0  0  0  0  0  0  0  0
  -22.2020   -9.0440   20.3560 C   0  0  0  0  0  3  0  0  0  0  0  0
  -22.9380  -10.2270   20.1730 C   0  0  0  0  0  3  0  0  0  0  0  0
  -21.7980   -6.9830   21.4460 O   0  0  0  0  0  0  0  0  0  0  0  0
  -21.6850   -6.2810   22.6190 C   0  0  0  0  0  0  0  0  0  0  0  0
  -21.1990   -6.8800   23.8020 C   0  0  0  0  0  3  0  0  0  0  0  0
  -21.0330   -6.1040   24.9660 C   0  0  0  0  0  3  0  0  0  0  0  0
  -21.3430   -4.7310   24.9490 C   0  0  0  0  0  0  0  0  0  0  0  0
  -21.8230   -4.1330   23.7700 C   0  0  0  0  0  3  0  0  0  0  0  0
  -21.9900   -4.9060   22.6090 C   0  0  0  0  0  0  0  0  0  0  0  0
  -22.4330   -4.3190   21.4690 F   0  0  0  0  0  0  0  0  0  0  0  0
  -21.1760   -3.9840   26.0650 F   0  0  0  0  0  0  0  0  0  0  0  0
  -22.9080  -13.6090   20.9140 C   0  0  0  0  0  0  0  0  0  0  0  0
  -22.1270  -12.9490   21.7620 N   0  0  0  0  0  0  0  0  0  0  0  0
  -22.5030  -14.6090   20.3230 O   0  0  0  0  0  0  0  0  0  0  0  0
  -22.4640  -12.1390   22.2610 H   0  0  0  0  0  0  0  0  0  0  0  0
  -21.1770  -13.2580   21.9150 H   0  0  0  0  0  0  0  0  0  0  0  0
  -25.5880  -15.2440   20.1930 N   0  0  0  0  0  0  0  0  0  0  0  0
  -24.8150  -15.9010   20.2140 H   0  0  0  0  0  0  0  0  0  0  0  0
  -26.4500  -15.6590   19.8650 H   0  0  0  0  0  0  0  0  0  0  0  0
  -29.2880  -24.4100   20.3580 C   0  0  0  0  0  2  0  0  0  0  0  0
  -28.3190  -25.5400   20.7750 C   0  0  0  0  0  2  0  0  0  0  0  0
  -28.3680  -26.6820   19.9100 O   0  0  0  0  0  0  0  0  0  0  0  0
  -24.5230  -31.7160   23.1610 C   0  0  0  0  0  0  0  0  0  0  0  0
  -27.2040  -27.4140   19.9330 C   0  0  0  0  0  0  0  0  0  0  0  0
  -23.3160  -30.3250   21.5070 C   0  0  0  0  0  3  0  0  0  0  0  0
  -24.7770  -28.8530   20.0220 C   0  0  0  0  0  0  0  0  0  0  0  0
  -25.8260  -30.7490   21.2700 C   0  0  0  0  0  2  0  0  0  0  0  0
  -25.9340  -29.3940   20.5990 C   0  0  0  0  0  0  0  0  0  0  0  0
  -27.1540  -28.6820   20.5520 C   0  0  0  0  0  3  0  0  0  0  0  0
  -26.0340  -26.8830   19.3470 C   0  0  0  0  0  3  0  0  0  0  0  0
  -24.8210  -27.5950   19.3940 C   0  0  0  0  0  3  0  0  0  0  0  0
  -23.5170  -29.6850   20.1050 C   0  0  0  0  0  2  0  0  0  0  0  0
  -24.5730  -30.9420   22.0380 N   0  0  0  0  0  0  0  0  0  0  0  0
  -23.4470  -31.9500   23.7280 O   0  0  0  0  0  0  0  0  0  0  0  0
  -22.7040  -29.2680   22.4540 C   0  0  0  0  0  0  0  0  0  0  0  0
  -21.3870  -29.0380   22.3270 N   0  0  0  0  0  0  0  0  0  0  0  0
  -23.4110  -28.6600   23.2630 O   0  0  0  0  0  0  0  0  0  0  0  0
  -20.8740  -29.5920   21.6550 H   0  0  0  0  0  0  0  0  0  0  0  0
  -18.0740  -27.6570   22.7610 C   0  0  0  0  0  0  0  0  0  0  0  0
  -20.6070  -28.0590   23.0850 C   0  0  0  0  0  3  0  0  0  0  0  0
  -20.8010  -26.6330   22.5210 C   0  0  0  0  0  2  0  0  0  0  0  0
  -19.7410  -26.2420   21.4850 C   0  0  0  0  0  2  0  0  0  0  0  0
  -18.3400  -26.3140   22.0990 C   0  0  0  0  0  2  0  0  0  0  0  0
  -19.1390  -28.4830   23.2100 C   0  0  0  0  0  0  0  0  0  0  0  0
  -18.8410  -29.7350   23.7890 C   0  0  0  0  0  3  0  0  0  0  0  0
  -17.5070  -30.1670   23.9200 C   0  0  0  0  0  3  0  0  0  0  0  0
  -16.4560  -29.3410   23.4860 C   0  0  0  0  0  3  0  0  0  0  0  0
  -16.7400  -28.0870   22.9150 C   0  0  0  0  0  3  0  0  0  0  0  0
  -25.8080  -32.3610   23.7700 C   0  0  0  0  0  3  0  0  0  0  0  0
  -26.3630  -31.5770   25.0220 C   0  0  1  0  0  0  0  0  0  0  0  0
  -25.2970  -31.2970   26.1070 C   0  0  0  0  0  1  0  0  0  0  0  0
  -26.9660  -30.2200   24.5880 C   0  0  0  0  0  1  0  0  0  0  0  0
  -27.5140  -32.3780   25.6760 C   0  0  0  0  0  1  0  0  0  0  0  0
  -25.4780  -33.7460   24.1300 N   0  0  0  0  0  0  0  0  0  0  0  0
  -25.7880  -34.8180   23.3860 C   0  0  0  0  0  0  0  0  0  0  0  0
  -26.4530  -34.7440   22.3500 O   0  0  0  0  0  0  0  0  0  0  0  0
  -24.8930  -33.8730   24.9430 H   0  0  0  0  0  0  0  0  0  0  0  0
  -24.0290  -36.5890   23.0700 C   0  0  0  0  0  1  0  0  0  0  0  0
  -25.2790  -36.1900   23.8710 C   0  0  0  0  0  3  0  0  0  0  0  0
  -27.4050  -37.0940   24.7080 C   0  0  0  0  0  1  0  0  0  0  0  0
  -26.2950  -37.2620   23.7730 N   0  0  0  0  0  0  0  0  0  0  0  0
  -25.8740  -38.1720   23.9390 H   0  0  0  0  0  0  0  0  0  0  0  0
  1 51  1  0
  1  4  1  0
  2  3  1  0
  4  2  1  0
  4  3  1  0
  5  6  1  0
  5  7  1  0
  5  1  1  0
  9  8  1  0
  9 10  1  0
  9  7  1  0
 10 11  1  0
 12 10  1  0
 13 10  1  0
 13 14  1  0
 15 14  1  0
 16 21  1  0
 17 18  1  0
 17 16  1  0
 19 18  1  0
 19 26  1  0
 19 20  1  0
 21 15  1  0
 21 20  1  0
 22 15  2  0
 23 24  2  0
 24 25  1  0
 24 43  1  0
 25 28  1  0
 26 23  1  0
 26 27  1  0
 27 25  2  0
 28 29  1  0
 29 30  2  0
 31 34  1  0
 31 30  1  0
 32 31  2  0
 33 32  1  0
 33 28  2  0
 34 35  1  0
 35 36  1  0
 36 37  2  0
 38 37  1  0
 38 42  1  0
 39 38  2  0
 40 35  2  0
 40 39  1  0
 41 40  1  0
 43 44  1  0
 44 47  1  0
 44 46  1  0
 45 43  2  0
 48 49  1  0
 48 23  1  0
 50 48  1  0
 51 52  1  0
 53 55  1  0
 53 52  1  0
 54 65  2  0
 55 60  1  0
 56 64  1  0
 56 66  1  0
 57 63  1  0
 57 59  1  0
 58 64  1  0
 59 58  1  0
 60 59  2  0
 61 62  1  0
 61 55  2  0
 62 57  2  0
 63 56  1  0
 64 54  1  0
 66 68  2  0
 67 66  1  0
 69 67  1  0
 70 79  2  0
 70 75  1  0
 71 67  1  0
 71 75  1  0
 72 71  1  0
 73 74  1  0
 73 72  1  0
 74 70  1  0
 75 76  2  0
 76 77  1  0
 78 77  2  0
 79 78  1  0
 80 54  1  0
 80 85  1  0
 80 81  1  0
 81 84  1  1
 81 82  1  0
 83 81  1  0
 85 88  1  0
 86 90  1  0
 86 85  1  0
 87 86  2  0
 90 89  1  0
 92 90  1  0
 92 93  1  0
 92 91  1  0
M  ISO  4  14 100  15 100  52 101  53 101
M  END
>  <TORSDO>  (33) 
F 25

>  <SCORE>  (33) 
-11.496

>  <name>  (33) 
32

>  <ligand_id>  (33) 
32

>  <original_smiles>  (33) 
[H]c1c([H])c([H])c2c(c1[H])C([H])([H])C([H])([H])C([H])([H])C2([H])N([H])C(=O)C1([H])N(C(=O)C([H])(N([H])C(=O)C([H])(N([H])C([H])([H])[H])C([H])([H])[H])C(C([H])([H])[H])(C([H])([H])[H])C([H])([H])[H])C([H])([H])c2c([H])c(OC([H])([H])C([H])([H])C([H])(N([H])C([H])([H])C([H])(C([H])([H])[H])[N+]([H])([H])C([H])([H])C([H])([H])C(=O)N3C([H])([H])C([H])([H])C([H])([H])C([H])(n4nc(-c5c([H])c([H])c(Oc6c([H])c([H])c(F)c([H])c6F)c([H])c5[H])c(C(=O)N([H])[H])c4N([H])[H])C3([H])[H])C3([H])C([H])([H])C3([H])[H])c([H])c([H])c2C1([H])[H]

>  <smiles>  (33) 
[H]c1c([H])c([H])c2c(c1[H])C([H])([H])C([H])([H])C([H])([H])C2([H])N([H])C(=O)C1([H])N(C(=O)C([H])(N([H])C(=O)C([H])(N([H])C([H])([H])[H])C([H])([H])[H])C(C([H])([H])[H])(C([H])([H])[H])C([H])([H])[H])C([H])([H])c2c([H])c(OC([H])([H])C([H])([H])C([H])(N([H])C([H])([H])C([H])(C([H])([H])[H])[N+]([H])([H])C([H])([H])C([H])([H])C(=O)N3C([H])([H])C([H])([H])C([H])([H])C([H])(n4nc(-c5c([H])c([H])c(Oc6c([H])c([H])c(F)c([H])c6F)c([H])c5[H])c(C(=O)N([H])[H])c4N([H])[H])C3([H])[H])C3([H])C([H])([H])C3([H])[H])c([H])c([H])c2C1([H])[H]

$$$$
33:0:0
     RDKit          3D

 97104  0  0  1  0  0  0  0  0999 V2000
  -27.4970  -21.2440   20.2190 C   0  0  0  0  0  3  0  0  0  0  0  0
  -26.7230  -21.5000   21.4390 N   0  0  0  0  0  0  0  0  0  0  0  0
  -25.8860  -20.9240   21.4360 H   0  0  0  0  0  0  0  0  0  0  0  0
  -25.5830  -23.4100   20.3170 C   0  0  0  0  0  1  0  0  0  0  0  0
  -26.2600  -22.8820   21.5930 C   0  0  0  0  0  2  0  0  0  0  0  0
  -28.7770  -22.1360   20.1910 C   0  0  0  0  0  2  0  0  0  0  0  0
  -28.5560  -23.5860   19.6630 C   0  0  0  0  0  2  0  0  0  0  0  0
  -28.7770  -24.9350   20.4060 C   0  0  0  0  0  2  0  0  0  0  0  0
  -29.4170  -26.0390   19.5290 C   0  0  0  0  0  2  0  0  0  0  0  0
  -29.1790  -27.3350   20.0670 O   0  0  0  0  0  0  0  0  0  0  0  0
  -24.6200  -31.7480   23.2410 C   0  0  0  0  0  0  0  0  0  0  0  0
  -27.9030  -27.8600   20.0360 C   0  0  0  0  0  0  0  0  0  0  0  0
  -23.6580  -30.3150   21.4660 C   0  0  0  0  0  3  0  0  0  0  0  0
  -25.3400  -29.0520   20.0290 C   0  0  0  0  0  0  0  0  0  0  0  0
  -26.1260  -30.9810   21.4100 C   0  0  0  0  0  2  0  0  0  0  0  0
  -26.3990  -29.6720   20.7000 C   0  0  0  0  0  0  0  0  0  0  0  0
  -27.6790  -29.0810   20.7040 C   0  0  0  0  0  3  0  0  0  0  0  0
  -26.8190  -27.2430   19.3640 C   0  0  0  0  0  3  0  0  0  0  0  0
  -25.5430  -27.8320   19.3610 C   0  0  0  0  0  3  0  0  0  0  0  0
  -24.0000  -29.7490   20.0630 C   0  0  0  0  0  2  0  0  0  0  0  0
  -24.8140  -31.0290   22.0980 N   0  0  0  0  0  0  0  0  0  0  0  0
  -23.4940  -31.8610   23.7420 O   0  0  0  0  0  0  0  0  0  0  0  0
  -23.0960  -29.1690   22.3360 C   0  0  0  0  0  0  0  0  0  0  0  0
  -21.8150  -28.8280   22.1180 N   0  0  0  0  0  0  0  0  0  0  0  0
  -23.8090  -28.5900   23.1600 O   0  0  0  0  0  0  0  0  0  0  0  0
  -21.2940  -29.3600   21.4350 H   0  0  0  0  0  0  0  0  0  0  0  0
  -18.6090  -27.1760   22.3220 C   0  0  0  0  0  0  0  0  0  0  0  0
  -21.0850  -27.7540   22.7870 C   0  0  0  0  0  3  0  0  0  0  0  0
  -21.4180  -26.3770   22.1630 C   0  0  0  0  0  2  0  0  0  0  0  0
  -20.4390  -25.9650   21.0590 C   0  0  0  0  0  2  0  0  0  0  0  0
  -19.0110  -25.8970   21.6080 C   0  0  0  0  0  2  0  0  0  0  0  0
  -19.5850  -28.0550   22.8610 C   0  0  0  0  0  0  0  0  0  0  0  0
  -19.1610  -29.2510   23.4820 C   0  0  0  0  0  3  0  0  0  0  0  0
  -17.7950  -29.5690   23.5760 C   0  0  0  0  0  3  0  0  0  0  0  0
  -16.8310  -28.6880   23.0570 C   0  0  0  0  0  3  0  0  0  0  0  0
  -17.2390  -27.4940   22.4340 C   0  0  0  0  0  3  0  0  0  0  0  0
  -25.8000  -32.4810   23.9550 C   0  0  0  0  0  3  0  0  0  0  0  0
  -25.3740  -33.8660   24.1980 N   0  0  0  0  0  0  0  0  0  0  0  0
  -25.7310  -34.9130   23.4430 C   0  0  0  0  0  0  0  0  0  0  0  0
  -26.5210  -34.8220   22.5000 O   0  0  0  0  0  0  0  0  0  0  0  0
  -24.6860  -34.0090   24.9230 H   0  0  0  0  0  0  0  0  0  0  0  0
  -23.9510  -36.5800   22.8280 C   0  0  0  0  0  1  0  0  0  0  0  0
  -25.1120  -36.2800   23.7910 C   0  0  0  0  0  3  0  0  0  0  0  0
  -27.0780  -37.3220   24.8320 C   0  0  0  0  0  1  0  0  0  0  0  0
  -26.0860  -37.3930   23.7610 N   0  0  0  0  0  0  0  0  0  0  0  0
  -25.6110  -38.2880   23.8310 H   0  0  0  0  0  0  0  0  0  0  0  0
  -26.2400  -31.7860   25.3020 C   0  0  1  0  0  0  0  0  0  0  0  0
  -25.0700  -31.5220   26.2770 C   0  0  0  0  0  1  0  0  0  0  0  0
  -26.9330  -30.4340   25.0160 C   0  0  0  0  0  1  0  0  0  0  0  0
  -27.2780  -32.6720   26.0320 C   0  0  0  0  0  1  0  0  0  0  0  0
  -27.7980  -19.7120   20.1460 C   0  0  0  0  0  3  0  0  0  0  0  0
  -29.1370  -19.4610   20.7500 N   0  0  0  0  0  4  0  0  0  0  0  0
  -29.6220  -20.3400   20.6540 H   0  0  0  0  0  0  0  0  0  0  0  0
  -29.0100  -19.3280   21.7430 H   0  0  0  0  0  0  0  0  0  0  0  0
  -31.4760  -18.6570   20.6950 C   0  0  0  0  0  1  0  0  0  0  0  0
  -30.0360  -18.4140   20.2070 C   0  0  0  0  0  3  0  0  0  0  0  0
  -29.4820  -16.9790   20.4360 C   0  0  0  0  0  2  0  0  0  0  0  0
  -30.2050  -16.0540   21.4540 C   0  0  0  0  0  2  0  0  0  0  0  0
  -30.8960  -14.8880   20.7370 C   0  0  0  0  0  0  0  0  0  0  0  0
  -30.6560  -12.7820   19.4870 C   0  0  0  0  0  2  0  0  0  0  0  0
  -29.7720  -13.0410   18.2510 C   0  0  0  0  0  2  0  0  0  0  0  0
  -28.2760  -12.9050   18.6010 C   0  0  0  0  0  2  0  0  0  0  0  0
  -27.8820  -13.7010   19.8750 C   0  0  0  0  0  3  0  0  0  0  0  0
  -28.8790  -13.4080   21.0170 C   0  0  0  0  0  2  0  0  0  0  0  0
  -30.2340  -13.7180   20.5390 N   0  0  0  0  0  0  0  0  0  0  0  0
  -32.0110  -15.1120   20.2530 O   0  0  0  0  0  0  0  0  0  0  0  0
  -25.4360  -14.3010   20.4210 C   0  0  0  0  0  0  0  0  0  0  0  0
  -24.3560  -13.5270   20.7480 C   0  0  0  0  0  0  0  0  0  0  0  0
  -24.8340  -12.1790   20.7790 C   0  0  0  0  0  0  0  0  0  0  0  0
  -26.5040  -13.4270   20.2750 N   0  0  0  0  0  0  0  0  0  0  0  0
  -26.1400  -12.1480   20.5470 N   0  0  0  0  0  0  0  0  0  0  0  0
  -24.1120  -10.9150   20.9660 C   0  0  0  0  0  0  0  0  0  0  0  0
  -24.4890   -9.9870   21.9620 C   0  0  0  0  0  3  0  0  0  0  0  0
  -23.7650   -8.7870   22.1330 C   0  0  0  0  0  3  0  0  0  0  0  0
  -22.6500   -8.5070   21.3090 C   0  0  0  0  0  0  0  0  0  0  0  0
  -22.2930   -9.4220   20.3010 C   0  0  0  0  0  3  0  0  0  0  0  0
  -23.0180  -10.6130   20.1270 C   0  0  0  0  0  3  0  0  0  0  0  0
  -21.9060   -7.3540   21.3860 O   0  0  0  0  0  0  0  0  0  0  0  0
  -21.7600   -6.6680   22.5650 C   0  0  0  0  0  0  0  0  0  0  0  0
  -21.2150   -7.2750   23.7170 C   0  0  0  0  0  3  0  0  0  0  0  0
  -21.0170   -6.5160   24.8860 C   0  0  0  0  0  3  0  0  0  0  0  0
  -21.3550   -5.1490   24.9040 C   0  0  0  0  0  0  0  0  0  0  0  0
  -21.8950   -4.5410   23.7570 C   0  0  0  0  0  3  0  0  0  0  0  0
  -22.0940   -5.2990   22.5890 C   0  0  0  0  0  0  0  0  0  0  0  0
  -22.5970   -4.7050   21.4800 F   0  0  0  0  0  0  0  0  0  0  0  0
  -21.1570   -4.4150   26.0240 F   0  0  0  0  0  0  0  0  0  0  0  0
  -22.9390  -13.9920   20.9250 C   0  0  0  0  0  0  0  0  0  0  0  0
  -22.1810  -13.3280   21.7880 N   0  0  0  0  0  0  0  0  0  0  0  0
  -22.5120  -14.9820   20.3330 O   0  0  0  0  0  0  0  0  0  0  0  0
  -22.5420  -12.5330   22.2920 H   0  0  0  0  0  0  0  0  0  0  0  0
  -21.2260  -13.6180   21.9460 H   0  0  0  0  0  0  0  0  0  0  0  0
  -25.5870  -15.6700   20.2180 N   0  0  0  0  0  0  0  0  0  0  0  0
  -24.7900  -16.2920   20.2830 H   0  0  0  0  0  0  0  0  0  0  0  0
  -26.4150  -16.1110   19.8460 H   0  0  0  0  0  0  0  0  0  0  0  0
  -28.3280  -19.7380   17.5730 C   0  0  0  0  0  1  0  0  0  0  0  0
  -26.0250  -19.1110   18.3820 C   0  0  0  0  0  1  0  0  0  0  0  0
  -27.5290  -19.1050   18.7270 C   0  0  0  0  0  3  0  0  0  0  0  0
  1  6  1  0
  1  2  1  0
  2  5  1  0
  3  2  1  0
  4  5  1  0
  7  6  1  0
  7  8  1  0
  9 10  1  0
  9  8  1  0
 11 22  2  0
 12 10  1  0
 12 17  1  0
 13 21  1  0
 13 23  1  0
 14 20  1  0
 14 16  1  0
 15 21  1  0
 16 17  2  0
 16 15  1  0
 18 12  2  0
 19 18  1  0
 19 14  2  0
 20 13  1  0
 21 11  1  0
 23 25  2  0
 24 23  1  0
 26 24  1  0
 27 36  2  0
 27 32  1  0
 28 24  1  0
 28 32  1  0
 29 28  1  0
 30 31  1  0
 30 29  1  0
 31 27  1  0
 32 33  2  0
 33 34  1  0
 35 34  2  0
 36 35  1  0
 37 11  1  0
 37 38  1  0
 37 47  1  0
 38 41  1  0
 39 43  1  0
 39 38  1  0
 40 39  2  0
 43 42  1  0
 45 43  1  0
 45 46  1  0
 45 44  1  0
 47 50  1  1
 47 48  1  0
 49 47  1  0
 51 97  1  0
 51  1  1  0
 51 52  1  0
 52 54  1  0
 53 52  1  0
 56 57  1  0
 56 55  1  0
 56 52  1  0
 57 58  1  0
 59 58  1  0
 60 65  1  0
 61 62  1  0
 61 60  1  0
 63 62  1  0
 63 70  1  0
 63 64  1  0
 65 59  1  0
 65 64  1  0
 66 59  2  0
 67 68  2  0
 68 69  1  0
 68 87  1  0
 69 72  1  0
 70 67  1  0
 70 71  1  0
 71 69  2  0
 72 73  1  0
 73 74  2  0
 75 78  1  0
 75 74  1  0
 76 75  2  0
 77 76  1  0
 77 72  2  0
 78 79  1  0
 79 84  2  0
 79 80  1  0
 80 81  2  0
 81 82  1  0
 82 86  1  0
 83 82  2  0
 84 83  1  0
 85 84  1  0
 87 88  1  0
 88 91  1  0
 88 90  1  0
 89 87  2  0
 92 93  1  0
 92 67  1  0
 94 92  1  0
 95 97  1  0
 96 97  1  0
M  ISO  4   9 101  10 101  58 100  59 100
M  END
>  <TORSDO>  (34) 
F 28

>  <SCORE>  (34) 
-9.162

>  <name>  (34) 
33

>  <ligand_id>  (34) 
33

>  <original_smiles>  (34) 
[H]c1c([H])c([H])c2c(c1[H])C([H])([H])C([H])([H])C([H])([H])C2([H])N([H])C(=O)C1([H])N(C(=O)C([H])(N([H])C(=O)C([H])(N([H])C([H])([H])[H])C([H])([H])[H])C(C([H])([H])[H])(C([H])([H])[H])C([H])([H])[H])C([H])([H])c2c([H])c(OC([H])([H])C([H])([H])C([H])([H])C([H])([H])C([H])(N([H])C([H])([H])C([H])([H])[H])C([H])(C([H])(C([H])([H])[H])C([H])([H])[H])[N+]([H])([H])C([H])(C([H])([H])[H])C([H])([H])C([H])([H])C(=O)N3C([H])([H])C([H])([H])C([H])([H])C([H])(n4nc(-c5c([H])c([H])c(Oc6c([H])c([H])c(F)c([H])c6F)c([H])c5[H])c(C(=O)N([H])[H])c4N([H])[H])C3([H])[H])c([H])c([H])c2C1([H])[H]

>  <smiles>  (34) 
[H]c1c([H])c([H])c2c(c1[H])C([H])([H])C([H])([H])C([H])([H])C2([H])N([H])C(=O)C1([H])N(C(=O)C([H])(N([H])C(=O)C([H])(N([H])C([H])([H])[H])C([H])([H])[H])C(C([H])([H])[H])(C([H])([H])[H])C([H])([H])[H])C([H])([H])c2c([H])c(OC([H])([H])C([H])([H])C([H])([H])C([H])([H])C([H])(N([H])C([H])([H])C([H])([H])[H])C([H])(C([H])(C([H])([H])[H])C([H])([H])[H])[N+]([H])([H])C([H])(C([H])([H])[H])C([H])([H])C([H])([H])C(=O)N3C([H])([H])C([H])([H])C([H])([H])C([H])(n4nc(-c5c([H])c([H])c(Oc6c([H])c([H])c(F)c([H])c6F)c([H])c5[H])c(C(=O)N([H])[H])c4N([H])[H])C3([H])[H])c([H])c([H])c2C1([H])[H]

$$$$
34:0:0
     RDKit          3D

 91100  0  0  1  0  0  0  0  0999 V2000
  -29.1700  -18.5540   21.0620 C   0  0  0  0  0  2  0  0  0  0  0  0
  -30.8190  -17.9120   19.4810 C   0  0  0  0  0  3  0  0  0  0  0  0
  -29.6970  -17.2820   20.2900 C   0  0  0  0  0  3  0  0  0  0  0  0
  -30.6970  -19.4440   19.5020 C   0  0  0  0  0  3  0  0  0  0  0  0
  -30.5880  -18.7000   18.1930 C   0  0  1  0  0  0  0  0  0  0  0  0
  -31.7370  -18.7970   17.2060 C   0  0  0  0  0  1  0  0  0  0  0  0
  -29.2720  -18.6240   17.4240 C   0  0  0  0  0  1  0  0  0  0  0  0
  -29.4290  -19.7730   20.2090 N   0  0  2  0  0  4  0  0  0  0  0  0
  -28.7020  -19.7740   19.5100 H   0  0  0  0  0  0  0  0  0  0  0  0
  -30.0270  -15.9540   21.1320 C   0  0  0  0  0  2  0  0  0  0  0  0
  -30.6390  -14.6660   20.4310 C   0  0  0  0  0  0  0  0  0  0  0  0
  -30.3810  -12.4470   19.3170 C   0  0  0  0  0  2  0  0  0  0  0  0
  -29.4460  -12.5980   18.0970 C   0  0  0  0  0  2  0  0  0  0  0  0
  -27.9710  -12.4490   18.5180 C   0  0  0  0  0  2  0  0  0  0  0  0
  -27.6200  -13.3000   19.7680 C   0  0  0  0  0  3  0  0  0  0  0  0
  -28.6720  -13.1160   20.8830 C   0  0  0  0  0  2  0  0  0  0  0  0
  -29.9850  -13.4600   20.3200 N   0  0  0  0  0  0  0  0  0  0  0  0
  -31.7640  -14.7890   19.9390 O   0  0  0  0  0  0  0  0  0  0  0  0
  -25.2240  -13.9120   20.4600 C   0  0  0  0  0  0  0  0  0  0  0  0
  -24.1500  -13.1460   20.8280 C   0  0  0  0  0  0  0  0  0  0  0  0
  -24.6060  -11.7930   20.8100 C   0  0  0  0  0  0  0  0  0  0  0  0
  -26.2660  -13.0260   20.2430 N   0  0  0  0  0  0  0  0  0  0  0  0
  -25.8990  -11.7460   20.5120 N   0  0  0  0  0  0  0  0  0  0  0  0
  -23.8720  -10.5360   21.0060 C   0  0  0  0  0  0  0  0  0  0  0  0
  -24.2980   -9.5690   21.9440 C   0  0  0  0  0  3  0  0  0  0  0  0
  -23.5650   -8.3770   22.1270 C   0  0  0  0  0  3  0  0  0  0  0  0
  -22.3910   -8.1420   21.3720 C   0  0  0  0  0  0  0  0  0  0  0  0
  -21.9830   -9.0980   20.4240 C   0  0  0  0  0  3  0  0  0  0  0  0
  -22.7170  -10.2810   20.2390 C   0  0  0  0  0  3  0  0  0  0  0  0
  -21.6290   -7.0020   21.4640 O   0  0  0  0  0  0  0  0  0  0  0  0
  -21.5780   -6.2620   22.6180 C   0  0  0  0  0  0  0  0  0  0  0  0
  -21.1600   -6.8220   23.8450 C   0  0  0  0  0  3  0  0  0  0  0  0
  -21.0570   -6.0080   24.9910 C   0  0  0  0  0  3  0  0  0  0  0  0
  -21.3600   -4.6360   24.9110 C   0  0  0  0  0  0  0  0  0  0  0  0
  -21.7700   -4.0760   23.6890 C   0  0  0  0  0  3  0  0  0  0  0  0
  -21.8760   -4.8870   22.5440 C   0  0  0  0  0  0  0  0  0  0  0  0
  -22.2520   -4.3370   21.3640 F   0  0  0  0  0  0  0  0  0  0  0  0
  -21.2530   -3.8520   26.0090 F   0  0  0  0  0  0  0  0  0  0  0  0
  -22.7530  -13.6320   21.0860 C   0  0  0  0  0  0  0  0  0  0  0  0
  -22.0150  -12.9460   21.9520 N   0  0  0  0  0  0  0  0  0  0  0  0
  -22.3240  -14.6570   20.5550 O   0  0  0  0  0  0  0  0  0  0  0  0
  -22.3740  -12.1180   22.4020 H   0  0  0  0  0  0  0  0  0  0  0  0
  -21.0780  -13.2540   22.1670 H   0  0  0  0  0  0  0  0  0  0  0  0
  -25.3960  -15.2800   20.2720 N   0  0  0  0  0  0  0  0  0  0  0  0
  -24.6310  -15.9390   20.3650 H   0  0  0  0  0  0  0  0  0  0  0  0
  -26.2510  -15.7080   19.9400 H   0  0  0  0  0  0  0  0  0  0  0  0
  -29.3940  -21.1480   20.8770 C   0  0  0  0  0  3  0  0  0  0  0  0
  -28.8890  -22.3930   20.0060 C   0  0  0  0  0  3  0  0  0  0  0  0
  -29.0220  -23.8850   20.5830 C   0  0  0  0  0  3  0  0  0  0  0  0
  -28.1130  -25.0200   19.9240 C   0  0  0  0  0  3  0  0  0  0  0  0
  -28.2900  -26.4580   20.2670 O   0  0  0  0  0  0  0  0  0  0  0  0
  -24.5880  -31.9020   23.2350 C   0  0  0  0  0  0  0  0  0  0  0  0
  -27.1830  -27.3230   20.1840 C   0  0  0  0  0  0  0  0  0  0  0  0
  -23.3810  -30.5070   21.5960 C   0  0  0  0  0  3  0  0  0  0  0  0
  -24.8270  -28.9550   20.1690 C   0  0  0  0  0  0  0  0  0  0  0  0
  -25.9220  -30.8120   21.4180 C   0  0  0  0  0  2  0  0  0  0  0  0
  -25.9960  -29.4330   20.7720 C   0  0  0  0  0  0  0  0  0  0  0  0
  -27.1750  -28.6270   20.7760 C   0  0  0  0  0  3  0  0  0  0  0  0
  -25.9940  -26.9160   19.5330 C   0  0  0  0  0  3  0  0  0  0  0  0
  -24.8280  -27.7030   19.5400 C   0  0  0  0  0  3  0  0  0  0  0  0
  -23.5930  -29.8330   20.2160 C   0  0  0  0  0  2  0  0  0  0  0  0
  -24.6490  -31.0910   22.1400 N   0  0  0  0  0  0  0  0  0  0  0  0
  -23.5050  -32.1850   23.7680 O   0  0  0  0  0  0  0  0  0  0  0  0
  -22.7140  -29.4920   22.5550 C   0  0  0  0  0  0  0  0  0  0  0  0
  -21.3870  -29.3210   22.4280 N   0  0  0  0  0  0  0  0  0  0  0  0
  -23.3890  -28.8630   23.3740 O   0  0  0  0  0  0  0  0  0  0  0  0
  -20.9020  -29.8800   21.7410 H   0  0  0  0  0  0  0  0  0  0  0  0
  -18.0010  -28.1520   22.9370 C   0  0  0  0  0  0  0  0  0  0  0  0
  -20.5630  -28.3890   23.2000 C   0  0  0  0  0  3  0  0  0  0  0  0
  -20.6510  -26.9580   22.6220 C   0  0  0  0  0  2  0  0  0  0  0  0
  -19.5420  -26.6460   21.6110 C   0  0  0  0  0  2  0  0  0  0  0  0
  -18.1640  -26.8030   22.2580 C   0  0  0  0  0  2  0  0  0  0  0  0
  -19.1280  -28.9040   23.3650 C   0  0  0  0  0  0  0  0  0  0  0  0
  -18.9210  -30.1680   23.9590 C   0  0  0  0  0  3  0  0  0  0  0  0
  -17.6210  -30.6810   24.1290 C   0  0  0  0  0  3  0  0  0  0  0  0
  -16.5090  -29.9260   23.7180 C   0  0  0  0  0  3  0  0  0  0  0  0
  -16.7000  -28.6640   23.1270 C   0  0  0  0  0  3  0  0  0  0  0  0
  -25.8730  -32.5310   23.8570 C   0  0  0  0  0  3  0  0  0  0  0  0
  -25.5680  -33.9300   24.1860 N   0  0  0  0  0  0  0  0  0  0  0  0
  -25.9020  -34.9810   23.4250 C   0  0  0  0  0  0  0  0  0  0  0  0
  -26.5700  -34.8750   22.3940 O   0  0  0  0  0  0  0  0  0  0  0  0
  -24.9750  -34.0860   24.9880 H   0  0  0  0  0  0  0  0  0  0  0  0
  -24.1810  -36.7810   23.0720 C   0  0  0  0  0  1  0  0  0  0  0  0
  -25.4210  -36.3710   23.8840 C   0  0  0  0  0  3  0  0  0  0  0  0
  -27.5570  -37.2480   24.7160 C   0  0  0  0  0  1  0  0  0  0  0  0
  -26.4570  -37.4210   23.7710 N   0  0  0  0  0  0  0  0  0  0  0  0
  -26.0540  -38.3420   23.9180 H   0  0  0  0  0  0  0  0  0  0  0  0
  -26.3850  -31.7590   25.1340 C   0  0  1  0  0  0  0  0  0  0  0  0
  -25.2900  -31.5250   26.2020 C   0  0  0  0  0  1  0  0  0  0  0  0
  -26.9650  -30.3780   24.7460 C   0  0  0  0  0  1  0  0  0  0  0  0
  -27.5380  -32.5500   25.7970 C   0  0  0  0  0  1  0  0  0  0  0  0
  2  5  1  0
  2  4  1  0
  2  3  1  0
  3  1  1  0
  3 10  1  0
  4  5  1  0
  4  8  1  0
  5  6  1  6
  7  5  1  0
  8 47  1  0
  8  1  1  0
  8  9  1  6
 11 10  1  0
 12 17  1  0
 13 14  1  0
 13 12  1  0
 15 14  1  0
 15 22  1  0
 15 16  1  0
 17 11  1  0
 17 16  1  0
 18 11  2  0
 19 20  2  0
 20 39  1  0
 21 20  1  0
 21 24  1  0
 22 19  1  0
 22 23  1  0
 23 21  2  0
 24 25  1  0
 25 26  2  0
 27 30  1  0
 27 26  1  0
 28 27  2  0
 29 28  1  0
 29 24  2  0
 30 31  1  0
 31 32  1  0
 32 33  2  0
 34 33  1  0
 34 38  1  0
 35 34  2  0
 36 31  2  0
 36 35  1  0
 37 36  1  0
 39 40  1  0
 40 43  1  0
 40 42  1  0
 41 39  2  0
 44 45  1  0
 44 19  1  0
 46 44  1  0
 48 49  1  0
 48 47  2  0
 50 51  1  0
 50 49  2  0
 52 63  2  0
 53 51  1  0
 53 58  1  0
 54 62  1  0
 54 64  1  0
 55 61  1  0
 55 57  1  0
 56 62  1  0
 57 58  2  0
 57 56  1  0
 59 60  1  0
 59 53  2  0
 60 55  2  0
 61 54  1  0
 62 52  1  0
 64 66  2  0
 65 64  1  0
 67 65  1  0
 68 77  2  0
 68 73  1  0
 69 65  1  0
 69 73  1  0
 70 69  1  0
 71 72  1  0
 71 70  1  0
 72 68  1  0
 73 74  2  0
 74 75  1  0
 76 75  2  0
 77 76  1  0
 78 52  1  0
 78 79  1  0
 78 88  1  0
 79 82  1  0
 80 84  1  0
 80 79  1  0
 81 80  2  0
 84 83  1  0
 86 84  1  0
 86 87  1  0
 86 85  1  0
 88 91  1  1
 88 89  1  0
 90 88  1  0
M  ISO  4  10 100  11 100  50 101  51 101
M  END
>  <TORSDO>  (35) 
F 21

>  <SCORE>  (35) 
-13.436

>  <name>  (35) 
34

>  <ligand_id>  (35) 
34

>  <original_smiles>  (35) 
[H]c1c([H])c([H])c2c(c1[H])C([H])([H])C([H])([H])C([H])([H])C2([H])N([H])C(=O)C1([H])N(C(=O)C([H])(N([H])C(=O)C([H])(N([H])C([H])([H])[H])C([H])([H])[H])C(C([H])([H])[H])(C([H])([H])[H])C([H])([H])[H])C([H])([H])c2c([H])c(OC([H])([H])C([H])([H])C([H])([H])C([H])([H])[N+]3([H])C([H])([H])C([H])(C([H])([H])C(=O)N4C([H])([H])C([H])([H])C([H])([H])C([H])(n5nc(-c6c([H])c([H])c(Oc7c([H])c([H])c(F)c([H])c7F)c([H])c6[H])c(C(=O)N([H])[H])c5N([H])[H])C4([H])[H])C4([H])C(C([H])([H])[H])(C([H])([H])[H])C43[H])c([H])c([H])c2C1([H])[H]

>  <smiles>  (35) 
[H]c1c([H])c([H])c2c(c1[H])C([H])([H])C([H])([H])C([H])([H])C2([H])N([H])C(=O)C1([H])N(C(=O)C([H])(N([H])C(=O)C([H])(N([H])C([H])([H])[H])C([H])([H])[H])C(C([H])([H])[H])(C([H])([H])[H])C([H])([H])[H])C([H])([H])c2c([H])c(OC([H])([H])C([H])([H])C([H])([H])C([H])([H])[N+]3([H])C([H])([H])C([H])(C([H])([H])C(=O)N4C([H])([H])C([H])([H])C([H])([H])C([H])(n5nc(-c6c([H])c([H])c(Oc7c([H])c([H])c(F)c([H])c7F)c([H])c6[H])c(C(=O)N([H])[H])c5N([H])[H])C4([H])[H])C4([H])C(C([H])([H])[H])(C([H])([H])[H])C43[H])c([H])c([H])c2C1([H])[H]

$$$$
35:0:0
     RDKit          3D

 94103  0  0  1  0  0  0  0  0999 V2000
  -29.6500  -20.5540   21.3280 N   0  0  0  0  0  4  0  0  0  0  0  0
  -30.6180  -20.8320   21.3570 H   0  0  0  0  0  0  0  0  0  0  0  0
  -29.2980  -20.6530   22.2670 H   0  0  0  0  0  0  0  0  0  0  0  0
  -29.7680  -18.6460   19.5460 C   0  0  0  0  0  2  0  0  0  0  0  0
  -32.1710  -19.0880   21.2240 C   0  0  0  0  0  2  0  0  0  0  0  0
  -31.0860  -17.8190   19.5130 C   0  0  0  0  0  3  0  0  0  0  0  0
  -30.8570  -18.3580   21.6530 C   0  0  0  0  0  3  0  0  0  0  0  0
  -31.0560  -17.0550   20.8540 C   0  0  0  0  0  3  0  0  0  0  0  0
  -29.6300  -19.0840   21.0240 C   0  0  0  0  0  3  0  0  0  0  0  0
  -32.3180  -18.7520   19.7120 C   0  0  2  0  0  0  0  0  0  0  0  0
  -33.6380  -18.0080   19.3980 C   0  0  0  0  0  1  0  0  0  0  0  0
  -32.3030  -20.0110   18.8150 C   0  0  0  0  0  1  0  0  0  0  0  0
  -30.1270  -15.7970   20.9940 C   0  0  0  0  0  2  0  0  0  0  0  0
  -30.7250  -14.5380   20.2890 C   0  0  0  0  0  0  0  0  0  0  0  0
  -30.3660  -12.3930   19.1200 C   0  0  0  0  0  2  0  0  0  0  0  0
  -29.4080  -12.6150   17.9330 C   0  0  0  0  0  2  0  0  0  0  0  0
  -27.9440  -12.4780   18.3900 C   0  0  0  0  0  2  0  0  0  0  0  0
  -27.6340  -13.3060   19.6680 C   0  0  0  0  0  3  0  0  0  0  0  0
  -28.7120  -13.0980   20.7540 C   0  0  0  0  0  2  0  0  0  0  0  0
  -30.0240  -13.3780   20.1600 N   0  0  0  0  0  0  0  0  0  0  0  0
  -31.8350  -14.6570   19.7590 O   0  0  0  0  0  0  0  0  0  0  0  0
  -25.2480  -13.9000   20.4230 C   0  0  0  0  0  0  0  0  0  0  0  0
  -24.1890  -13.1240   20.8110 C   0  0  0  0  0  0  0  0  0  0  0  0
  -24.6550  -11.7740   20.7750 C   0  0  0  0  0  0  0  0  0  0  0  0
  -26.2920  -13.0230   20.1750 N   0  0  0  0  0  0  0  0  0  0  0  0
  -25.9400  -11.7390   20.4450 N   0  0  0  0  0  0  0  0  0  0  0  0
  -23.9360  -10.5090   20.9790 C   0  0  0  0  0  0  0  0  0  0  0  0
  -24.3820   -9.5490   21.9140 C   0  0  0  0  0  3  0  0  0  0  0  0
  -23.6630   -8.3490   22.1060 C   0  0  0  0  0  3  0  0  0  0  0  0
  -22.4840   -8.1010   21.3640 C   0  0  0  0  0  0  0  0  0  0  0  0
  -22.0580   -9.0500   20.4180 C   0  0  0  0  0  3  0  0  0  0  0  0
  -22.7760  -10.2420   20.2240 C   0  0  0  0  0  3  0  0  0  0  0  0
  -21.7360   -6.9540   21.4660 O   0  0  0  0  0  0  0  0  0  0  0  0
  -21.6930   -6.2230   22.6260 C   0  0  0  0  0  0  0  0  0  0  0  0
  -21.2670   -6.7880   23.8490 C   0  0  0  0  0  3  0  0  0  0  0  0
  -21.1730   -5.9820   25.0010 C   0  0  0  0  0  3  0  0  0  0  0  0
  -21.4920   -4.6140   24.9330 C   0  0  0  0  0  0  0  0  0  0  0  0
  -21.9120   -4.0480   23.7160 C   0  0  0  0  0  3  0  0  0  0  0  0
  -22.0080   -4.8510   22.5640 C   0  0  0  0  0  0  0  0  0  0  0  0
  -22.3920   -4.2960   21.3910 F   0  0  0  0  0  0  0  0  0  0  0  0
  -21.3950   -3.8380   26.0370 F   0  0  0  0  0  0  0  0  0  0  0  0
  -22.7960  -13.5970   21.1060 C   0  0  0  0  0  0  0  0  0  0  0  0
  -22.0840  -12.8980   21.9840 N   0  0  0  0  0  0  0  0  0  0  0  0
  -22.3460  -14.6210   20.5920 O   0  0  0  0  0  0  0  0  0  0  0  0
  -22.4590  -12.0700   22.4220 H   0  0  0  0  0  0  0  0  0  0  0  0
  -21.1490  -13.1960   22.2230 H   0  0  0  0  0  0  0  0  0  0  0  0
  -25.4070  -15.2710   20.2400 N   0  0  0  0  0  0  0  0  0  0  0  0
  -24.6410  -15.9250   20.3590 H   0  0  0  0  0  0  0  0  0  0  0  0
  -26.2550  -15.7110   19.9070 H   0  0  0  0  0  0  0  0  0  0  0  0
  -28.9110  -21.5350   20.4750 C   0  0  0  0  0  2  0  0  0  0  0  0
  -28.9410  -22.9670   21.1050 C   0  0  0  0  0  2  0  0  0  0  0  0
  -28.4710  -24.1700   20.2290 C   0  0  0  0  0  2  0  0  0  0  0  0
  -28.4320  -25.5140   21.0190 C   0  0  0  0  0  2  0  0  0  0  0  0
  -28.4400  -26.7150   20.2190 O   0  0  0  0  0  0  0  0  0  0  0  0
  -24.6040  -31.9230   23.2590 C   0  0  0  0  0  0  0  0  0  0  0  0
  -27.2800  -27.4590   20.2320 C   0  0  0  0  0  0  0  0  0  0  0  0
  -23.4160  -30.5080   21.6160 C   0  0  0  0  0  3  0  0  0  0  0  0
  -24.8840  -28.9640   20.2110 C   0  0  0  0  0  0  0  0  0  0  0  0
  -25.9420  -30.8730   21.4330 C   0  0  0  0  0  2  0  0  0  0  0  0
  -26.0370  -29.4960   20.8040 C   0  0  0  0  0  0  0  0  0  0  0  0
  -27.2400  -28.7520   20.8050 C   0  0  0  0  0  3  0  0  0  0  0  0
  -26.1120  -26.9400   19.6360 C   0  0  0  0  0  3  0  0  0  0  0  0
  -24.9170  -27.6850   19.6270 C   0  0  0  0  0  3  0  0  0  0  0  0
  -23.6390  -29.8220   20.2430 C   0  0  0  0  0  2  0  0  0  0  0  0
  -24.6730  -31.1160   22.1620 N   0  0  0  0  0  0  0  0  0  0  0  0
  -23.5180  -32.1950   23.7880 O   0  0  0  0  0  0  0  0  0  0  0  0
  -22.7590  -29.4920   22.5780 C   0  0  0  0  0  0  0  0  0  0  0  0
  -21.4360  -29.3030   22.4350 N   0  0  0  0  0  0  0  0  0  0  0  0
  -23.4350  -28.8760   23.4050 O   0  0  0  0  0  0  0  0  0  0  0  0
  -20.9530  -29.8490   21.7360 H   0  0  0  0  0  0  0  0  0  0  0  0
  -18.0620  -28.0970   22.9100 C   0  0  0  0  0  0  0  0  0  0  0  0
  -20.6160  -28.3660   23.2040 C   0  0  0  0  0  3  0  0  0  0  0  0
  -20.7300  -26.9330   22.6350 C   0  0  0  0  0  2  0  0  0  0  0  0
  -19.6390  -26.6000   21.6140 C   0  0  0  0  0  2  0  0  0  0  0  0
  -18.2500  -26.7440   22.2430 C   0  0  0  0  0  2  0  0  0  0  0  0
  -19.1730  -28.8640   23.3470 C   0  0  0  0  0  0  0  0  0  0  0  0
  -18.9460  -30.1300   23.9280 C   0  0  0  0  0  3  0  0  0  0  0  0
  -17.6390  -30.6300   24.0770 C   0  0  0  0  0  3  0  0  0  0  0  0
  -16.5400  -29.8580   23.6600 C   0  0  0  0  0  3  0  0  0  0  0  0
  -16.7520  -28.5930   23.0830 C   0  0  0  0  0  3  0  0  0  0  0  0
  -25.8820  -32.5620   23.8850 C   0  0  0  0  0  3  0  0  0  0  0  0
  -25.5700  -33.9600   24.2030 N   0  0  0  0  0  0  0  0  0  0  0  0
  -25.9070  -35.0080   23.4380 C   0  0  0  0  0  0  0  0  0  0  0  0
  -26.5870  -34.8980   22.4150 O   0  0  0  0  0  0  0  0  0  0  0  0
  -24.9690  -34.1220   24.9970 H   0  0  0  0  0  0  0  0  0  0  0  0
  -24.1790  -36.7940   23.0520 C   0  0  0  0  0  1  0  0  0  0  0  0
  -25.4110  -36.3990   23.8810 C   0  0  0  0  0  3  0  0  0  0  0  0
  -27.5340  -37.2910   24.7290 C   0  0  0  0  0  1  0  0  0  0  0  0
  -26.4430  -37.4520   23.7720 N   0  0  0  0  0  0  0  0  0  0  0  0
  -26.0350  -38.3740   23.9080 H   0  0  0  0  0  0  0  0  0  0  0  0
  -26.3950  -31.7980   25.1680 C   0  0  1  0  0  0  0  0  0  0  0  0
  -25.2940  -31.5570   26.2270 C   0  0  0  0  0  1  0  0  0  0  0  0
  -26.9890  -30.4230   24.7840 C   0  0  0  0  0  1  0  0  0  0  0  0
  -27.5400  -32.5990   25.8320 C   0  0  0  0  0  1  0  0  0  0  0  0
  1  2  1  0
  1  3  1  0
  4  9  1  0
  6  4  1  0
  6 10  1  0
  6  8  1  0
  7  5  1  0
  8 13  1  0
  8  7  1  0
  9  1  1  0
  9  7  1  0
 10  5  1  0
 10 11  1  1
 12 10  1  0
 14 13  1  0
 15 20  1  0
 16 17  1  0
 16 15  1  0
 18 17  1  0
 18 25  1  0
 18 19  1  0
 20 14  1  0
 20 19  1  0
 21 14  2  0
 22 23  2  0
 23 42  1  0
 24 23  1  0
 24 27  1  0
 25 22  1  0
 25 26  1  0
 26 24  2  0
 27 28  1  0
 28 29  2  0
 30 33  1  0
 30 29  1  0
 31 30  2  0
 32 31  1  0
 32 27  2  0
 33 34  1  0
 34 35  1  0
 35 36  2  0
 37 36  1  0
 37 41  1  0
 38 37  2  0
 39 34  2  0
 39 38  1  0
 40 39  1  0
 42 43  1  0
 43 46  1  0
 43 45  1  0
 44 42  2  0
 47 48  1  0
 47 22  1  0
 49 47  1  0
 50 51  1  0
 50  1  1  0
 52 53  1  0
 52 51  1  0
 54 56  1  0
 54 53  1  0
 55 66  2  0
 56 61  1  0
 57 65  1  0
 57 67  1  0
 58 64  1  0
 58 60  1  0
 59 65  1  0
 60 61  2  0
 60 59  1  0
 62 56  2  0
 63 62  1  0
 63 58  2  0
 64 57  1  0
 65 55  1  0
 67 69  2  0
 68 67  1  0
 70 68  1  0
 71 80  2  0
 71 76  1  0
 72 68  1  0
 72 76  1  0
 73 72  1  0
 74 75  1  0
 74 73  1  0
 75 71  1  0
 76 77  2  0
 77 78  1  0
 79 78  2  0
 80 79  1  0
 81 55  1  0
 81 82  1  0
 81 91  1  0
 82 85  1  0
 83 87  1  0
 83 82  1  0
 84 83  2  0
 87 86  1  0
 89 87  1  0
 89 90  1  0
 89 88  1  0
 91 94  1  1
 91 92  1  0
 93 91  1  0
M  ISO  4  13 100  14 100  53 101  54 101
M  END
>  <TORSDO>  (36) 
F 22

>  <SCORE>  (36) 
-13.504

>  <name>  (36) 
35

>  <ligand_id>  (36) 
35

>  <original_smiles>  (36) 
[H]c1c([H])c([H])c2c(c1[H])C([H])([H])C([H])([H])C([H])([H])C2([H])N([H])C(=O)C1([H])N(C(=O)C([H])(N([H])C(=O)C([H])(N([H])C([H])([H])[H])C([H])([H])[H])C(C([H])([H])[H])(C([H])([H])[H])C([H])([H])[H])C([H])([H])c2c([H])c(OC([H])([H])C([H])([H])C([H])([H])C([H])([H])[N+]([H])([H])C3([H])C([H])([H])C4([H])C([H])(C([H])([H])C(=O)N5C([H])([H])C([H])([H])C([H])([H])C([H])(n6nc(-c7c([H])c([H])c(Oc8c([H])c([H])c(F)c([H])c8F)c([H])c7[H])c(C(=O)N([H])[H])c6N([H])[H])C5([H])[H])C3([H])C([H])([H])C4(C([H])([H])[H])C([H])([H])[H])c([H])c([H])c2C1([H])[H]

>  <smiles>  (36) 
[H]c1c([H])c([H])c2c(c1[H])C([H])([H])C([H])([H])C([H])([H])C2([H])N([H])C(=O)C1([H])N(C(=O)C([H])(N([H])C(=O)C([H])(N([H])C([H])([H])[H])C([H])([H])[H])C(C([H])([H])[H])(C([H])([H])[H])C([H])([H])[H])C([H])([H])c2c([H])c(OC([H])([H])C([H])([H])C([H])([H])C([H])([H])[N+]([H])([H])C3([H])C([H])([H])C4([H])C([H])(C([H])([H])C(=O)N5C([H])([H])C([H])([H])C([H])([H])C([H])(n6nc(-c7c([H])c([H])c(Oc8c([H])c([H])c(F)c([H])c8F)c([H])c7[H])c(C(=O)N([H])[H])c6N([H])[H])C5([H])[H])C3([H])C([H])([H])C4(C([H])([H])[H])C([H])([H])[H])c([H])c([H])c2C1([H])[H]

$$$$
36:0:0
     RDKit          3D

101109  0  0  1  0  0  0  0  0999 V2000
  -33.7150  -23.3990   19.7720 C   0  0  0  0  0  2  0  0  0  0  0  0
  -32.7860  -24.2210   20.6710 C   0  0  0  0  0  2  0  0  0  0  0  0
  -33.2470  -23.7200   18.3520 C   0  0  0  0  0  2  0  0  0  0  0  0
  -32.3130  -25.4350   19.8330 C   0  0  0  0  0  3  0  0  0  0  0  0
  -32.8980  -25.2150   18.4140 C   0  0  0  0  0  3  0  0  0  0  0  0
  -30.8470  -24.8310   16.8370 C   0  0  0  0  0  1  0  0  0  0  0  0
  -32.0260  -25.7520   17.2390 C   0  0  0  0  0  3  0  0  0  0  0  0
  -32.8860  -26.0460   16.0630 N   0  0  0  0  0  4  0  0  0  0  0  0
  -33.0510  -27.0410   16.0590 H   0  0  0  0  0  0  0  0  0  0  0  0
  -33.7830  -25.6110   16.1890 H   0  0  0  0  0  0  0  0  0  0  0  0
  -32.3180  -25.6880   14.7310 C   0  0  0  0  0  3  0  0  0  0  0  0
  -33.3470  -25.3750   13.5930 C   0  0  0  0  0  3  0  0  0  0  0  0
  -34.8990  -25.1380   13.5720 C   0  0  0  0  0  2  0  0  0  0  0  0
  -35.6710  -25.1280   14.9170 C   0  0  0  0  0  2  0  0  0  0  0  0
  -37.0790  -24.9630   14.7120 O   0  0  0  0  0  0  0  0  0  0  0  0
  -38.4010  -30.4000   19.0700 C   0  0  0  0  0  0  0  0  0  0  0  0
  -37.8640  -26.0500   15.0120 C   0  0  0  0  0  0  0  0  0  0  0  0
  -39.5170  -30.4850   16.8580 C   0  0  0  0  0  3  0  0  0  0  0  0
  -39.4330  -28.3360   15.4990 C   0  0  0  0  0  0  0  0  0  0  0  0
  -38.9520  -28.2520   17.9550 C   0  0  0  0  0  2  0  0  0  0  0  0
  -38.7920  -27.6860   16.5620 C   0  0  0  0  0  0  0  0  0  0  0  0
  -38.0040  -26.5470   16.3270 C   0  0  0  0  0  3  0  0  0  0  0  0
  -38.5280  -26.6960   13.9490 C   0  0  0  0  0  3  0  0  0  0  0  0
  -39.3030  -27.8500   14.1850 C   0  0  0  0  0  3  0  0  0  0  0  0
  -40.2400  -29.5630   15.8380 C   0  0  0  0  0  2  0  0  0  0  0  0
  -38.9050  -29.7280   17.9970 N   0  0  0  0  0  0  0  0  0  0  0  0
  -38.4860  -31.6330   19.1440 O   0  0  0  0  0  0  0  0  0  0  0  0
  -38.5000  -31.3630   16.0940 C   0  0  0  0  0  0  0  0  0  0  0  0
  -38.9490  -32.5580   15.6730 N   0  0  0  0  0  0  0  0  0  0  0  0
  -37.3560  -30.9630   15.8660 O   0  0  0  0  0  0  0  0  0  0  0  0
  -39.9020  -32.8130   15.8880 H   0  0  0  0  0  0  0  0  0  0  0  0
  -38.9900  -35.9500   14.4510 C   0  0  0  0  0  0  0  0  0  0  0  0
  -38.1840  -33.5380   14.9070 C   0  0  0  0  0  3  0  0  0  0  0  0
  -38.3560  -33.2970   13.3900 C   0  0  0  0  0  2  0  0  0  0  0  0
  -39.4900  -34.1220   12.7770 C   0  0  0  0  0  2  0  0  0  0  0  0
  -39.2490  -35.6190   12.9920 C   0  0  0  0  0  2  0  0  0  0  0  0
  -38.5040  -34.9690   15.3540 C   0  0  0  0  0  0  0  0  0  0  0  0
  -38.3150  -35.3220   16.7080 C   0  0  0  0  0  3  0  0  0  0  0  0
  -38.5940  -36.6270   17.1570 C   0  0  0  0  0  3  0  0  0  0  0  0
  -39.0570  -37.5990   16.2540 C   0  0  0  0  0  3  0  0  0  0  0  0
  -39.2540  -37.2600   14.9040 C   0  0  0  0  0  3  0  0  0  0  0  0
  -37.7230  -29.6550   20.2630 C   0  0  0  0  0  3  0  0  0  0  0  0
  -38.2550  -30.2300   21.5080 N   0  0  0  0  0  0  0  0  0  0  0  0
  -39.2350  -29.6820   22.2390 C   0  0  0  0  0  0  0  0  0  0  0  0
  -39.7350  -28.5850   21.9730 O   0  0  0  0  0  0  0  0  0  0  0  0
  -37.9270  -31.1480   21.7660 H   0  0  0  0  0  0  0  0  0  0  0  0
  -41.0630  -31.1780   23.0930 C   0  0  0  0  0  1  0  0  0  0  0  0
  -39.7440  -30.4750   23.4570 C   0  0  0  0  0  3  0  0  0  0  0  0
  -38.6830  -29.1310   25.2150 C   0  0  0  0  0  1  0  0  0  0  0  0
  -39.9340  -29.6430   24.6650 N   0  0  0  0  0  0  0  0  0  0  0  0
  -40.3980  -30.1780   25.3930 H   0  0  0  0  0  0  0  0  0  0  0  0
  -36.1480  -29.7390   20.2300 C   0  0  1  0  0  0  0  0  0  0  0  0
  -35.6110  -31.1740   20.0450 C   0  0  0  0  0  1  0  0  0  0  0  0
  -35.5760  -28.8710   19.0840 C   0  0  0  0  0  1  0  0  0  0  0  0
  -35.5590  -29.1700   21.5430 C   0  0  0  0  0  1  0  0  0  0  0  0
  -32.7020  -26.7970   20.4510 C   0  0  0  0  0  2  0  0  0  0  0  0
  -33.1370  -27.0600   22.9230 C   0  0  0  0  0  1  0  0  0  0  0  0
  -32.0510  -27.0590   21.8310 C   0  0  0  0  0  3  0  0  0  0  0  0
  -31.2400  -28.3120   21.8310 N   0  0  0  0  0  4  0  0  0  0  0  0
  -31.4870  -28.8810   21.0350 H   0  0  0  0  0  0  0  0  0  0  0  0
  -30.2740  -28.0530   21.7220 H   0  0  0  0  0  0  0  0  0  0  0  0
  -31.3310  -29.1340   23.0630 C   0  0  0  0  0  2  0  0  0  0  0  0
  -30.8010  -30.5860   22.8800 C   0  0  0  0  0  2  0  0  0  0  0  0
  -31.0420  -31.4540   24.1400 C   0  0  0  0  0  2  0  0  0  0  0  0
  -31.7950  -32.8160   23.9250 C   0  0  0  0  0  2  0  0  0  0  0  0
  -31.2960  -33.9420   24.8630 C   0  0  0  0  0  0  0  0  0  0  0  0
  -31.0100  -34.8850   27.1200 C   0  0  0  0  0  2  0  0  0  0  0  0
  -31.7080  -36.2390   27.3220 C   0  0  0  0  0  2  0  0  0  0  0  0
  -33.1550  -36.0180   27.7920 C   0  0  0  0  0  2  0  0  0  0  0  0
  -33.9220  -35.0180   26.8870 C   0  0  0  0  0  3  0  0  0  0  0  0
  -33.0990  -33.7240   26.6290 C   0  0  0  0  0  2  0  0  0  0  0  0
  -31.7630  -34.0970   26.1320 N   0  0  0  0  0  0  0  0  0  0  0  0
  -30.3690  -34.6390   24.4450 O   0  0  0  0  0  0  0  0  0  0  0  0
  -36.5020  -34.9720   26.8930 C   0  0  0  0  0  0  0  0  0  0  0  0
  -37.4100  -34.5970   27.8450 C   0  0  0  0  0  0  0  0  0  0  0  0
  -36.6440  -34.1450   28.9640 C   0  0  0  0  0  0  0  0  0  0  0  0
  -35.2500  -34.7340   27.4390 N   0  0  0  0  0  0  0  0  0  0  0  0
  -35.3480  -34.1860   28.6790 N   0  0  0  0  0  0  0  0  0  0  0  0
  -37.0680  -33.7290   30.3090 C   0  0  0  0  0  0  0  0  0  0  0  0
  -36.4630  -32.6360   30.9700 C   0  0  0  0  0  3  0  0  0  0  0  0
  -36.9000  -32.2430   32.2530 C   0  0  0  0  0  3  0  0  0  0  0  0
  -37.9550  -32.9400   32.8880 C   0  0  0  0  0  0  0  0  0  0  0  0
  -38.5390  -34.0410   32.2370 C   0  0  0  0  0  3  0  0  0  0  0  0
  -38.0990  -34.4350   30.9620 C   0  0  0  0  0  3  0  0  0  0  0  0
  -38.4260  -32.6450   34.1440 O   0  0  0  0  0  0  0  0  0  0  0  0
  -38.1360  -31.4540   34.7620 C   0  0  0  0  0  0  0  0  0  0  0  0
  -38.4380  -30.2120   34.1630 C   0  0  0  0  0  3  0  0  0  0  0  0
  -38.1850  -29.0150   34.8620 C   0  0  0  0  0  3  0  0  0  0  0  0
  -37.6410  -29.0560   36.1590 C   0  0  0  0  0  0  0  0  0  0  0  0
  -37.3440  -30.2930   36.7590 C   0  0  0  0  0  3  0  0  0  0  0  0
  -37.5940  -31.4890   36.0620 C   0  0  0  0  0  0  0  0  0  0  0  0
  -37.3250  -32.6770   36.6530 F   0  0  0  0  0  0  0  0  0  0  0  0
  -37.4050  -27.9070   36.8330 F   0  0  0  0  0  0  0  0  0  0  0  0
  -38.9050  -34.7280   27.7640 C   0  0  0  0  0  0  0  0  0  0  0  0
  -39.6370  -33.8300   28.4110 N   0  0  0  0  0  0  0  0  0  0  0  0
  -39.4340  -35.6070   27.0820 O   0  0  0  0  0  0  0  0  0  0  0  0
  -39.2070  -33.0960   28.9530 H   0  0  0  0  0  0  0  0  0  0  0  0
  -40.6450  -33.8800   28.3690 H   0  0  0  0  0  0  0  0  0  0  0  0
  -36.6280  -35.5140   25.6150 N   0  0  0  0  0  0  0  0  0  0  0  0
  -37.5230  -35.7490   25.1990 H   0  0  0  0  0  0  0  0  0  0  0  0
  -35.8420  -35.7680   25.0290 H   0  0  0  0  0  0  0  0  0  0  0  0
  1  2  1  0
  3  5  1  0
  3  1  1  0
  4 56  1  0
  4  2  1  0
  5  7  1  0
  5  4  1  0
  7  6  1  0
  8 10  1  0
  8  7  1  0
  9  8  1  0
 11  8  1  0
 12 11  2  0
 13 12  1  0
 13 14  1  0
 15 14  1  0
 15 17  1  0
 16 27  2  0
 17 22  1  0
 18 28  1  0
 18 26  1  0
 19 25  1  0
 19 21  1  0
 20 26  1  0
 21 20  1  0
 22 21  2  0
 23 24  1  0
 23 17  2  0
 24 19  2  0
 25 18  1  0
 26 16  1  0
 29 31  1  0
 29 28  1  0
 30 28  2  0
 32 41  2  0
 32 37  1  0
 33 37  1  0
 33 29  1  0
 34 33  1  0
 35 36  1  0
 35 34  1  0
 36 32  1  0
 37 38  2  0
 38 39  1  0
 40 39  2  0
 41 40  1  0
 42 16  1  0
 42 43  1  0
 43 46  1  0
 43 44  1  0
 44 48  1  0
 45 44  2  0
 48 47  1  0
 48 50  1  0
 50 49  1  0
 50 51  1  0
 52 42  1  0
 52 55  1  1
 53 52  1  0
 54 52  1  0
 56 58  1  0
 58 59  1  0
 58 57  1  0
 59 62  1  0
 60 59  1  0
 61 59  1  0
 63 62  1  0
 63 64  1  0
 65 64  1  0
 65 66  1  0
 66 72  1  0
 67 68  1  0
 68 69  1  0
 70 71  1  0
 70 77  1  0
 70 69  1  0
 72 71  1  0
 72 67  1  0
 73 66  2  0
 74 77  1  0
 74 75  2  0
 75 76  1  0
 76 79  1  0
 77 78  1  0
 78 76  2  0
 79 84  2  0
 79 80  1  0
 80 81  2  0
 81 82  1  0
 82 85  1  0
 83 82  2  0
 84 83  1  0
 85 86  1  0
 86 91  1  0
 87 86  2  0
 87 88  1  0
 88 89  2  0
 89 90  1  0
 89 93  1  0
 91 92  1  0
 91 90  2  0
 94 75  1  0
 94 95  1  0
 95 97  1  0
 96 94  2  0
 98 95  1  0
 99 74  1  0
100 99  1  0
101 99  1  0
M  ISO  4  14 101  15 101  65 100  66 100
M  END
>  <TORSDO>  (37) 
F 29

>  <SCORE>  (37) 
0.960

>  <name>  (37) 
36

>  <ligand_id>  (37) 
36

>  <original_smiles>  (37) 
[H]c1c([H])c([H])c2c(c1[H])C([H])([H])C([H])([H])C([H])([H])C2([H])N([H])C(=O)C1([H])N(C(=O)C([H])(N([H])C(=O)C([H])(N([H])C([H])([H])[H])C([H])([H])[H])C(C([H])([H])[H])(C([H])([H])[H])C([H])([H])[H])C([H])([H])c2c([H])c(OC([H])([H])C([H])([H])C([H])([H])C([H])([H])[N+]([H])([H])C([H])(C([H])([H])[H])C3([H])C([H])([H])C([H])([H])C([H])([H])C3([H])C([H])([H])C([H])(C([H])([H])[H])[N+]([H])([H])C([H])([H])C([H])([H])C([H])([H])C([H])([H])C(=O)N3C([H])([H])C([H])([H])C([H])([H])C([H])(n4nc(-c5c([H])c([H])c(Oc6c([H])c([H])c(F)c([H])c6F)c([H])c5[H])c(C(=O)N([H])[H])c4N([H])[H])C3([H])[H])c([H])c([H])c2C1([H])[H]

>  <smiles>  (37) 
[H]c1c([H])c([H])c2c(c1[H])C([H])([H])C([H])([H])C([H])([H])C2([H])N([H])C(=O)C1([H])N(C(=O)C([H])(N([H])C(=O)C([H])(N([H])C([H])([H])[H])C([H])([H])[H])C(C([H])([H])[H])(C([H])([H])[H])C([H])([H])[H])C([H])([H])c2c([H])c(OC([H])([H])C([H])([H])C([H])([H])C([H])([H])[N+]([H])([H])C([H])(C([H])([H])[H])C3([H])C([H])([H])C([H])([H])C([H])([H])C3([H])C([H])([H])C([H])(C([H])([H])[H])[N+]([H])([H])C([H])([H])C([H])([H])C([H])([H])C([H])([H])C(=O)N3C([H])([H])C([H])([H])C([H])([H])C([H])(n4nc(-c5c([H])c([H])c(Oc6c([H])c([H])c(F)c([H])c6F)c([H])c5[H])c(C(=O)N([H])[H])c4N([H])[H])C3([H])[H])c([H])c([H])c2C1([H])[H]

$$$$
37:0:0
     RDKit          3D

 96105  0  0  1  0  0  0  0  0999 V2000
  -30.1580  -26.1660   22.9660 C   0  0  0  0  0  2  0  0  0  0  0  0
  -28.0250  -25.3390   22.2780 C   0  0  0  0  0  2  0  0  0  0  0  0
  -30.9580  -23.7910   23.7230 C   0  0  0  0  0  2  0  0  0  0  0  0
  -28.7140  -23.0540   23.3470 C   0  0  0  0  0  2  0  0  0  0  0  0
  -28.9220  -26.5850   22.1420 C   0  0  0  0  0  3  0  0  0  0  0  0
  -30.3760  -24.6860   22.6150 C   0  0  0  0  0  3  0  0  0  0  0  0
  -28.9830  -24.1350   22.2900 C   0  0  0  0  0  3  0  0  0  0  0  0
  -30.1070  -22.5090   23.7060 C   0  0  0  0  0  3  0  0  0  0  0  0
  -29.2570  -26.9450   20.6800 C   0  0  0  0  0  0  0  0  0  0  0  0
  -30.4090  -27.2760   20.2720 N   0  0  0  0  0  0  0  0  0  0  0  0
  -30.4080  -27.4380   19.2710 H   0  0  0  0  0  0  0  0  0  0  0  0
  -28.2190  -26.8380   19.7870 O   0  0  0  0  0  0  0  0  0  0  0  0
  -24.3920  -31.8560   23.1550 C   0  0  0  0  0  0  0  0  0  0  0  0
  -27.0600  -27.5750   19.9160 C   0  0  0  0  0  0  0  0  0  0  0  0
  -23.1760  -30.5010   21.4750 C   0  0  0  0  0  3  0  0  0  0  0  0
  -24.6310  -29.0220   19.9930 C   0  0  0  0  0  0  0  0  0  0  0  0
  -25.6890  -30.9040   21.2580 C   0  0  0  0  0  2  0  0  0  0  0  0
  -25.7840  -29.5550   20.5820 C   0  0  0  0  0  0  0  0  0  0  0  0
  -26.9990  -28.8450   20.5390 C   0  0  0  0  0  3  0  0  0  0  0  0
  -25.8910  -27.0500   19.3270 C   0  0  0  0  0  3  0  0  0  0  0  0
  -24.6770  -27.7660   19.3610 C   0  0  0  0  0  3  0  0  0  0  0  0
  -23.3770  -29.8620   20.0730 C   0  0  0  0  0  2  0  0  0  0  0  0
  -24.4380  -31.0990   22.0230 N   0  0  0  0  0  0  0  0  0  0  0  0
  -23.3160  -32.0990   23.7190 O   0  0  0  0  0  0  0  0  0  0  0  0
  -22.5450  -29.4440   22.4070 C   0  0  0  0  0  0  0  0  0  0  0  0
  -21.2250  -29.2420   22.2710 N   0  0  0  0  0  0  0  0  0  0  0  0
  -23.2400  -28.8100   23.2060 O   0  0  0  0  0  0  0  0  0  0  0  0
  -20.7270  -29.8100   21.5990 H   0  0  0  0  0  0  0  0  0  0  0  0
  -17.8730  -27.9720   22.7110 C   0  0  0  0  0  0  0  0  0  0  0  0
  -20.4230  -28.2690   23.0120 C   0  0  0  0  0  3  0  0  0  0  0  0
  -20.5570  -26.8560   22.3990 C   0  0  0  0  0  2  0  0  0  0  0  0
  -19.4690  -26.5380   21.3680 C   0  0  0  0  0  2  0  0  0  0  0  0
  -18.0800  -26.6420   22.0040 C   0  0  0  0  0  2  0  0  0  0  0  0
  -18.9740  -28.7430   23.1700 C   0  0  0  0  0  0  0  0  0  0  0  0
  -18.7290  -29.9870   23.7900 C   0  0  0  0  0  3  0  0  0  0  0  0
  -17.4150  -30.4620   23.9540 C   0  0  0  0  0  3  0  0  0  0  0  0
  -16.3270  -29.6890   23.5140 C   0  0  0  0  0  3  0  0  0  0  0  0
  -16.5570  -28.4440   22.8990 C   0  0  0  0  0  3  0  0  0  0  0  0
  -25.6830  -32.4700   23.7820 C   0  0  0  0  0  3  0  0  0  0  0  0
  -25.3860  -33.8680   24.1210 N   0  0  0  0  0  0  0  0  0  0  0  0
  -25.7560  -34.9240   23.3850 C   0  0  0  0  0  0  0  0  0  0  0  0
  -26.4530  -34.8230   22.3710 O   0  0  0  0  0  0  0  0  0  0  0  0
  -24.7750  -34.0220   24.9100 H   0  0  0  0  0  0  0  0  0  0  0  0
  -24.0840  -36.7580   22.9780 C   0  0  0  0  0  1  0  0  0  0  0  0
  -25.2740  -36.3130   23.8440 C   0  0  0  0  0  3  0  0  0  0  0  0
  -27.3790  -37.1430   24.7990 C   0  0  0  0  0  1  0  0  0  0  0  0
  -26.3320  -37.3450   23.8010 N   0  0  0  0  0  0  0  0  0  0  0  0
  -25.9370  -38.2720   23.9420 H   0  0  0  0  0  0  0  0  0  0  0  0
  -26.1960  -31.6830   25.0500 C   0  0  1  0  0  0  0  0  0  0  0  0
  -25.0990  -31.4310   26.1100 C   0  0  0  0  0  1  0  0  0  0  0  0
  -26.7830  -30.3120   24.6370 C   0  0  0  0  0  1  0  0  0  0  0  0
  -27.3420  -32.4700   25.7280 C   0  0  0  0  0  1  0  0  0  0  0  0
  -30.6470  -21.4650   22.6960 C   0  0  0  0  0  2  0  0  0  0  0  0
  -30.0880  -20.0380   22.8890 C   0  0  0  0  0  2  0  0  0  0  0  0
  -30.6810  -19.0720   21.9370 N   0  0  0  0  0  4  0  0  0  0  0  0
  -31.6820  -19.0740   22.0580 H   0  0  0  0  0  0  0  0  0  0  0  0
  -30.4840  -19.3870   21.0000 H   0  0  0  0  0  0  0  0  0  0  0  0
  -30.1820  -17.6850   22.0810 C   0  0  0  0  0  2  0  0  0  0  0  0
  -30.8550  -16.7080   21.0920 C   0  0  0  0  0  2  0  0  0  0  0  0
  -30.2740  -15.2780   21.1770 C   0  0  0  0  0  2  0  0  0  0  0  0
  -30.7720  -14.3120   20.0820 C   0  0  0  0  0  0  0  0  0  0  0  0
  -30.3410  -12.3160   18.6800 C   0  0  0  0  0  2  0  0  0  0  0  0
  -29.2800  -12.6230   17.6060 C   0  0  0  0  0  2  0  0  0  0  0  0
  -27.8550  -12.4380   18.1640 C   0  0  0  0  0  2  0  0  0  0  0  0
  -27.6510  -13.1530   19.5260 C   0  0  0  0  0  3  0  0  0  0  0  0
  -28.8030  -12.8100   20.4960 C   0  0  0  0  0  2  0  0  0  0  0  0
  -30.0710  -13.1730   19.8430 N   0  0  0  0  0  0  0  0  0  0  0  0
  -31.7720  -14.6190   19.4250 O   0  0  0  0  0  0  0  0  0  0  0  0
  -25.2930  -13.6890   20.4170 C   0  0  0  0  0  0  0  0  0  0  0  0
  -24.2800  -12.8840   20.8640 C   0  0  0  0  0  0  0  0  0  0  0  0
  -24.7770  -11.5470   20.7880 C   0  0  0  0  0  0  0  0  0  0  0  0
  -26.3440  -12.8410   20.1030 N   0  0  0  0  0  0  0  0  0  0  0  0
  -26.0390  -11.5470   20.3790 N   0  0  0  0  0  0  0  0  0  0  0  0
  -24.1070  -10.2620   21.0260 C   0  0  0  0  0  0  0  0  0  0  0  0
  -24.5690   -9.3600   22.0090 C   0  0  0  0  0  3  0  0  0  0  0  0
  -23.8980   -8.1380   22.2320 C   0  0  0  0  0  3  0  0  0  0  0  0
  -22.7500   -7.8100   21.4710 C   0  0  0  0  0  0  0  0  0  0  0  0
  -22.3090   -8.7010   20.4770 C   0  0  0  0  0  3  0  0  0  0  0  0
  -22.9800   -9.9150   20.2530 C   0  0  0  0  0  3  0  0  0  0  0  0
  -22.0490   -6.6350   21.6000 O   0  0  0  0  0  0  0  0  0  0  0  0
  -21.9200   -6.0050   22.8120 C   0  0  0  0  0  0  0  0  0  0  0  0
  -21.3250   -6.6400   23.9230 C   0  0  0  0  0  3  0  0  0  0  0  0
  -21.1490   -5.9310   25.1290 C   0  0  0  0  0  3  0  0  0  0  0  0
  -21.5580   -4.5860   25.2210 C   0  0  0  0  0  0  0  0  0  0  0  0
  -22.1450   -3.9510   24.1130 C   0  0  0  0  0  3  0  0  0  0  0  0
  -22.3230   -4.6570   22.9120 C   0  0  0  0  0  0  0  0  0  0  0  0
  -22.8690   -4.0330   21.8410 F   0  0  0  0  0  0  0  0  0  0  0  0
  -21.3810   -3.9030   26.3770 F   0  0  0  0  0  0  0  0  0  0  0  0
  -22.8940  -13.3160   21.2480 C   0  0  0  0  0  0  0  0  0  0  0  0
  -22.2600  -12.5960   22.1680 N   0  0  0  0  0  0  0  0  0  0  0  0
  -22.3830  -14.3280   20.7680 O   0  0  0  0  0  0  0  0  0  0  0  0
  -22.6870  -11.7770   22.5760 H   0  0  0  0  0  0  0  0  0  0  0  0
  -21.3340  -12.8670   22.4660 H   0  0  0  0  0  0  0  0  0  0  0  0
  -25.4040  -15.0660   20.2350 N   0  0  0  0  0  0  0  0  0  0  0  0
  -24.6330  -15.7010   20.4080 H   0  0  0  0  0  0  0  0  0  0  0  0
  -26.2170  -15.5250   19.8440 H   0  0  0  0  0  0  0  0  0  0  0  0
  4  8  1  0
  5  9  1  0
  5  2  1  0
  5  1  1  0
  6  1  1  0
  6  3  1  0
  7  2  1  0
  7  6  1  0
  7  4  1  0
  8 53  1  0
  8  3  1  0
 10  9  2  0
 11 10  1  0
 12 14  1  0
 12  9  1  0
 13 24  2  0
 14 19  1  0
 15 23  1  0
 15 25  1  0
 16 22  1  0
 16 18  1  0
 17 23  1  0
 18 17  1  0
 19 18  2  0
 20 21  1  0
 20 14  2  0
 21 16  2  0
 22 15  1  0
 23 13  1  0
 25 27  2  0
 26 25  1  0
 28 26  1  0
 29 38  2  0
 29 34  1  0
 30 26  1  0
 30 34  1  0
 31 30  1  0
 32 33  1  0
 32 31  1  0
 33 29  1  0
 34 35  2  0
 35 36  1  0
 37 36  2  0
 38 37  1  0
 39 13  1  0
 39 40  1  0
 39 49  1  0
 40 43  1  0
 41 45  1  0
 41 40  1  0
 42 41  2  0
 45 44  1  0
 47 45  1  0
 47 48  1  0
 47 46  1  0
 49 52  1  1
 49 50  1  0
 51 49  1  0
 53 54  1  0
 55 56  1  0
 55 58  1  0
 55 54  1  0
 57 55  1  0
 59 60  1  0
 59 58  1  0
 61 60  1  0
 62 67  1  0
 63 64  1  0
 63 62  1  0
 65 64  1  0
 65 72  1  0
 65 66  1  0
 67 61  1  0
 67 66  1  0
 68 61  2  0
 69 70  2  0
 70 89  1  0
 71 70  1  0
 71 74  1  0
 72 73  1  0
 72 69  1  0
 73 71  2  0
 74 75  1  0
 75 76  2  0
 77 80  1  0
 77 76  1  0
 78 77  2  0
 79 78  1  0
 79 74  2  0
 80 81  1  0
 81 86  2  0
 81 82  1  0
 82 83  2  0
 83 84  1  0
 84 88  1  0
 85 84  2  0
 86 85  1  0
 87 86  1  0
 89 90  1  0
 90 93  1  0
 90 92  1  0
 91 89  2  0
 94 95  1  0
 94 69  1  0
 96 94  1  0
M  ISO  4   9 101  12 101  60 100  61 100
M  END
>  <TORSDO>  (38) 
F 23

>  <SCORE>  (38) 
-8.673

>  <name>  (38) 
37

>  <ligand_id>  (38) 
37

>  <original_smiles>  (38) 
[H]N=C(Oc1c([H])c([H])c2c(c1[H])C([H])([H])N(C(=O)C([H])(N([H])C(=O)C([H])(N([H])C([H])([H])[H])C([H])([H])[H])C(C([H])([H])[H])(C([H])([H])[H])C([H])([H])[H])C([H])(C(=O)N([H])C1([H])c3c([H])c([H])c([H])c([H])c3C([H])([H])C([H])([H])C1([H])[H])C2([H])[H])C1([H])C([H])([H])C2([H])C([H])([H])C([H])(C([H])([H])C([H])([H])[N+]([H])([H])C([H])([H])C([H])([H])C([H])([H])C(=O)N3C([H])([H])C([H])([H])C([H])([H])C([H])(n4nc(-c5c([H])c([H])c(Oc6c([H])c([H])c(F)c([H])c6F)c([H])c5[H])c(C(=O)N([H])[H])c4N([H])[H])C3([H])[H])C([H])([H])C2([H])C1([H])[H]

>  <smiles>  (38) 
[H]N=C(Oc1c([H])c([H])c2c(c1[H])C([H])([H])N(C(=O)C([H])(N([H])C(=O)C([H])(N([H])C([H])([H])[H])C([H])([H])[H])C(C([H])([H])[H])(C([H])([H])[H])C([H])([H])[H])C([H])(C(=O)N([H])C1([H])c3c([H])c([H])c([H])c([H])c3C([H])([H])C([H])([H])C1([H])[H])C2([H])[H])C1([H])C([H])([H])C2([H])C([H])([H])C([H])(C([H])([H])C([H])([H])[N+]([H])([H])C([H])([H])C([H])([H])C([H])([H])C(=O)N3C([H])([H])C([H])([H])C([H])([H])C([H])(n4nc(-c5c([H])c([H])c(Oc6c([H])c([H])c(F)c([H])c6F)c([H])c5[H])c(C(=O)N([H])[H])c4N([H])[H])C3([H])[H])C([H])([H])C2([H])C1([H])[H]

$$$$
38:0:0
     RDKit          3D

 94104  0  0  1  0  0  0  0  0999 V2000
  -27.7320  -21.0740   20.3150 C   0  0  0  0  0  2  0  0  0  0  0  0
  -27.5170  -22.4190   20.2780 C   0  0  0  0  0  2  0  0  0  0  0  0
  -31.8390  -20.2780   21.7710 C   0  0  0  0  0  2  0  0  0  0  0  0
  -30.3530  -20.0350   22.1010 C   0  0  0  0  0  2  0  0  0  0  0  0
  -32.1930  -19.9910   20.2970 C   0  0  0  0  0  2  0  0  0  0  0  0
  -29.7250  -18.9790   21.1780 C   0  0  0  0  0  2  0  0  0  0  0  0
  -28.6410  -20.4640   19.2210 C   0  0  0  0  0  3  0  0  0  0  0  0
  -28.1800  -23.1090   19.1070 C   0  0  0  0  0  3  0  0  0  0  0  0
  -31.0180  -20.2510   19.3330 C   0  0  0  0  0  3  0  0  0  0  0  0
  -29.1930  -21.8730   18.6530 C   0  0  0  0  0  3  0  0  0  0  0  0
  -30.6040  -21.7820   19.2670 C   0  0  0  0  0  3  0  0  0  0  0  0
  -29.7890  -19.3120   19.6520 C   0  0  1  0  0  0  0  0  0  0  0  0
  -31.6130  -22.6540   18.5040 C   0  0  0  0  0  1  0  0  0  0  0  0
  -27.8510  -24.7240   18.5930 C   0  0  0  0  0  2  0  0  0  0  0  0
  -27.9120  -26.1790   19.1590 O   0  0  0  0  0  0  0  0  0  0  0  0
  -24.6220  -31.5940   22.9110 C   0  0  0  0  0  0  0  0  0  0  0  0
  -26.8500  -27.1620   19.2220 C   0  0  0  0  0  0  0  0  0  0  0  0
  -23.2530  -30.3440   21.2860 C   0  0  0  0  0  3  0  0  0  0  0  0
  -24.5380  -28.9030   19.5820 C   0  0  0  0  0  0  0  0  0  0  0  0
  -25.7770  -30.6260   20.8860 C   0  0  0  0  0  2  0  0  0  0  0  0
  -25.7750  -29.2960   20.1080 C   0  0  0  0  0  0  0  0  0  0  0  0
  -26.9240  -28.4390   19.9190 C   0  0  0  0  0  3  0  0  0  0  0  0
  -25.5830  -26.8740   18.6690 C   0  0  0  0  0  3  0  0  0  0  0  0
  -24.4560  -27.7090   18.8480 C   0  0  0  0  0  3  0  0  0  0  0  0
  -23.3270  -29.7900   19.8370 C   0  0  0  0  0  2  0  0  0  0  0  0
  -24.5760  -30.8730   21.7490 N   0  0  0  0  0  0  0  0  0  0  0  0
  -23.5970  -31.8280   23.5700 O   0  0  0  0  0  0  0  0  0  0  0  0
  -22.6700  -29.2550   22.2230 C   0  0  0  0  0  0  0  0  0  0  0  0
  -21.3430  -29.0430   22.1670 N   0  0  0  0  0  0  0  0  0  0  0  0
  -23.4120  -28.6050   22.9640 O   0  0  0  0  0  0  0  0  0  0  0  0
  -20.7960  -29.6230   21.5450 H   0  0  0  0  0  0  0  0  0  0  0  0
  -18.0600  -27.6100   22.7100 C   0  0  0  0  0  0  0  0  0  0  0  0
  -20.6030  -28.0300   22.9260 C   0  0  0  0  0  3  0  0  0  0  0  0
  -20.7820  -26.6270   22.3020 C   0  0  0  0  0  2  0  0  0  0  0  0
  -19.6780  -26.2660   21.3020 C   0  0  0  0  0  2  0  0  0  0  0  0
  -18.3070  -26.2970   21.9830 C   0  0  0  0  0  2  0  0  0  0  0  0
  -19.1380  -28.4300   23.1390 C   0  0  0  0  0  0  0  0  0  0  0  0
  -18.8500  -29.6530   23.7810 C   0  0  0  0  0  3  0  0  0  0  0  0
  -17.5200  -30.0590   23.9980 C   0  0  0  0  0  3  0  0  0  0  0  0
  -16.4590  -29.2370   23.5830 C   0  0  0  0  0  3  0  0  0  0  0  0
  -16.7290  -28.0130   22.9450 C   0  0  0  0  0  3  0  0  0  0  0  0
  -25.9610  -32.1780   23.4580 C   0  0  0  0  0  3  0  0  0  0  0  0
  -25.6810  -33.5210   23.9890 N   0  0  0  0  0  0  0  0  0  0  0  0
  -25.9620  -34.6680   23.3560 C   0  0  0  0  0  0  0  0  0  0  0  0
  -26.5490  -34.7040   22.2710 O   0  0  0  0  0  0  0  0  0  0  0  0
  -25.1510  -33.5650   24.8460 H   0  0  0  0  0  0  0  0  0  0  0  0
  -24.2260  -36.4920   23.3790 C   0  0  0  0  0  1  0  0  0  0  0  0
  -25.5220  -35.9830   24.0310 C   0  0  0  0  0  3  0  0  0  0  0  0
  -27.7200  -36.7570   24.8080 C   0  0  0  0  0  1  0  0  0  0  0  0
  -26.5520  -37.0450   23.9810 N   0  0  0  0  0  0  0  0  0  0  0  0
  -26.1640  -37.9360   24.2760 H   0  0  0  0  0  0  0  0  0  0  0  0
  -26.6210  -31.2740   24.5720 C   0  0  1  0  0  0  0  0  0  0  0  0
  -25.6610  -30.9080   25.7280 C   0  0  0  0  0  1  0  0  0  0  0  0
  -27.1520  -29.9540   23.9670 C   0  0  0  0  0  1  0  0  0  0  0  0
  -27.8430  -32.0020   25.1800 C   0  0  0  0  0  1  0  0  0  0  0  0
  -29.9440  -17.7920   18.8720 C   0  0  0  0  0  2  0  0  0  0  0  0
  -30.7090  -15.1570   19.3620 C   0  0  0  0  0  0  0  0  0  0  0  0
  -30.6030  -12.7150   18.6750 C   0  0  0  0  0  2  0  0  0  0  0  0
  -29.5700  -12.5330   17.5380 C   0  0  0  0  0  2  0  0  0  0  0  0
  -28.1580  -12.3210   18.1170 C   0  0  0  0  0  2  0  0  0  0  0  0
  -27.8240  -13.3370   19.2400 C   0  0  0  0  0  3  0  0  0  0  0  0
  -28.9720  -13.4850   20.2630 C   0  0  0  0  0  2  0  0  0  0  0  0
  -30.1700  -13.8760   19.5110 N   0  0  0  0  0  0  0  0  0  0  0  0
  -31.8580  -15.2280   18.9140 O   0  0  0  0  0  0  0  0  0  0  0  0
  -29.9010  -16.3260   19.5050 N   0  0  0  0  0  0  0  0  0  0  0  0
  -29.0110  -16.1140   19.9310 H   0  0  0  0  0  0  0  0  0  0  0  0
  -25.5700  -13.9360   20.2910 C   0  0  0  0  0  0  0  0  0  0  0  0
  -24.5350  -13.1700   20.7510 C   0  0  0  0  0  0  0  0  0  0  0  0
  -24.9490  -11.8120   20.5990 C   0  0  0  0  0  0  0  0  0  0  0  0
  -26.5480  -13.0450   19.8820 N   0  0  0  0  0  0  0  0  0  0  0  0
  -26.1910  -11.7580   20.1320 N   0  0  0  0  0  0  0  0  0  0  0  0
  -24.2110  -10.5600   20.8160 C   0  0  0  0  0  0  0  0  0  0  0  0
  -24.6430   -9.6000   21.7570 C   0  0  0  0  0  3  0  0  0  0  0  0
  -23.9030   -8.4150   21.9610 C   0  0  0  0  0  3  0  0  0  0  0  0
  -22.7170   -8.1810   21.2240 C   0  0  0  0  0  0  0  0  0  0  0  0
  -22.3050   -9.1310   20.2720 C   0  0  0  0  0  3  0  0  0  0  0  0
  -23.0450  -10.3060   20.0660 C   0  0  0  0  0  3  0  0  0  0  0  0
  -21.9480   -7.0480   21.3370 O   0  0  0  0  0  0  0  0  0  0  0  0
  -21.7890   -6.4030   22.5370 C   0  0  0  0  0  0  0  0  0  0  0  0
  -21.2540   -7.0560   23.6700 C   0  0  0  0  0  3  0  0  0  0  0  0
  -21.0430   -6.3360   24.8630 C   0  0  0  0  0  3  0  0  0  0  0  0
  -21.3570   -4.9660   24.9240 C   0  0  0  0  0  0  0  0  0  0  0  0
  -21.8870   -4.3130   23.7970 C   0  0  0  0  0  3  0  0  0  0  0  0
  -22.0990   -5.0300   22.6050 C   0  0  0  0  0  0  0  0  0  0  0  0
  -22.5890   -4.3910   21.5160 F   0  0  0  0  0  0  0  0  0  0  0  0
  -21.1490   -4.2730   26.0680 F   0  0  0  0  0  0  0  0  0  0  0  0
  -23.1960  -13.6690   21.2120 C   0  0  0  0  0  0  0  0  0  0  0  0
  -22.5600  -12.9570   22.1340 N   0  0  0  0  0  0  0  0  0  0  0  0
  -22.7290  -14.7250   20.7880 O   0  0  0  0  0  0  0  0  0  0  0  0
  -22.9550  -12.1000   22.4970 H   0  0  0  0  0  0  0  0  0  0  0  0
  -21.6670  -13.2710   22.4840 H   0  0  0  0  0  0  0  0  0  0  0  0
  -25.7510  -15.3090   20.1600 N   0  0  0  0  0  0  0  0  0  0  0  0
  -25.0180  -15.9710   20.3900 H   0  0  0  0  0  0  0  0  0  0  0  0
  -26.5490  -15.7460   19.7170 H   0  0  0  0  0  0  0  0  0  0  0  0
  2  1  1  0
  3  4  1  0
  5  3  1  0
  6  4  1  0
  7 12  1  0
  7  1  1  0
  8 14  1  0
  8  2  1  0
  9 12  1  0
  9  5  1  0
 10  8  1  0
 10  7  1  0
 10 11  1  0
 11  9  1  0
 12  6  1  0
 13 11  1  0
 14 15  1  0
 15 17  1  0
 16 42  1  0
 16 27  2  0
 17 22  1  0
 18 26  1  0
 18 28  1  0
 19 25  1  0
 19 21  1  0
 20 26  1  0
 21 20  1  0
 22 21  2  0
 23 24  1  0
 23 17  2  0
 24 19  2  0
 25 18  1  0
 26 16  1  0
 28 30  2  0
 29 28  1  0
 29 33  1  0
 31 29  1  0
 32 41  2  0
 32 37  1  0
 33 37  1  0
 34 33  1  0
 35 36  1  0
 35 34  1  0
 36 32  1  0
 37 38  2  0
 38 39  1  0
 40 39  2  0
 41 40  1  0
 42 43  1  0
 42 52  1  0
 43 46  1  0
 44 43  1  0
 44 48  1  0
 45 44  2  0
 47 48  1  0
 50 48  1  0
 50 51  1  0
 50 49  1  0
 52 55  1  1
 52 53  1  0
 54 52  1  0
 56 65  1  0
 12 56  1  6
 57 65  1  0
 57 63  1  0
 58 63  1  0
 59 60  1  0
 59 58  1  0
 60 61  1  0
 61 70  1  0
 61 62  1  0
 63 62  1  0
 64 57  2  0
 65 66  1  0
 67 68  2  0
 68 87  1  0
 69 68  1  0
 69 72  1  0
 70 71  1  0
 70 67  1  0
 71 69  2  0
 72 73  1  0
 73 74  2  0
 75 78  1  0
 75 74  1  0
 76 75  2  0
 77 76  1  0
 77 72  2  0
 78 79  1  0
 79 84  2  0
 79 80  1  0
 80 81  2  0
 81 82  1  0
 82 86  1  0
 83 82  2  0
 84 83  1  0
 85 84  1  0
 87 88  1  0
 88 91  1  0
 88 90  1  0
 89 87  2  0
 92 67  1  0
 92 93  1  0
 94 92  1  0
M  ISO  4  14 101  15 101  57 100  65 100
M  END
>  <TORSDO>  (39) 
F 18

>  <SCORE>  (39) 
-14.237

>  <name>  (39) 
38

>  <ligand_id>  (39) 
38

>  <original_smiles>  (39) 
[H]C1=C([H])C2([H])C([H])(C1([H])C([H])([H])Oc1c([H])c([H])c3c(c1[H])C([H])([H])N(C(=O)C([H])(N([H])C(=O)C([H])(N([H])C([H])([H])[H])C([H])([H])[H])C(C([H])([H])[H])(C([H])([H])[H])C([H])([H])[H])C([H])(C(=O)N([H])C1([H])c4c([H])c([H])c([H])c([H])c4C([H])([H])C([H])([H])C1([H])[H])C3([H])[H])C([H])(C([H])([H])[H])C1([H])C([H])([H])C([H])([H])C([H])([H])C([H])([H])C21C([H])([H])N([H])C(=O)N1C([H])([H])C([H])([H])C([H])([H])C([H])(n2nc(-c3c([H])c([H])c(Oc4c([H])c([H])c(F)c([H])c4F)c([H])c3[H])c(C(=O)N([H])[H])c2N([H])[H])C1([H])[H]

>  <smiles>  (39) 
[H]C1=C([H])C2([H])C([H])(C1([H])C([H])([H])Oc1c([H])c([H])c3c(c1[H])C([H])([H])N(C(=O)C([H])(N([H])C(=O)C([H])(N([H])C([H])([H])[H])C([H])([H])[H])C(C([H])([H])[H])(C([H])([H])[H])C([H])([H])[H])C([H])(C(=O)N([H])C1([H])c4c([H])c([H])c([H])c([H])c4C([H])([H])C([H])([H])C1([H])[H])C3([H])[H])C([H])(C([H])([H])[H])C1([H])C([H])([H])C([H])([H])C([H])([H])C([H])([H])C21C([H])([H])N([H])C(=O)N1C([H])([H])C([H])([H])C([H])([H])C([H])(n2nc(-c3c([H])c([H])c(Oc4c([H])c([H])c(F)c([H])c4F)c([H])c3[H])c(C(=O)N([H])[H])c2N([H])[H])C1([H])[H]

$$$$
39:0:0
     RDKit          3D

 88 97  0  0  1  0  0  0  0  0999 V2000
  -28.8380  -20.7540   20.6070 C   0  0  0  0  0  3  0  0  0  0  0  0
  -28.7910  -22.1790   20.0810 C   0  0  0  0  0  0  0  0  0  0  0  0
  -29.9030  -19.4070   18.6310 C   0  0  0  0  0  2  0  0  0  0  0  0
  -29.6420  -19.1820   20.1390 C   0  0  0  0  0  3  0  0  0  0  0  0
  -29.4990  -22.1630   18.7590 C   0  0  0  0  0  3  0  0  0  0  0  0
  -30.0100  -20.8660   18.0870 C   0  0  0  0  0  3  0  0  0  0  0  0
  -30.9970  -21.9260   18.5620 C   0  0  2  0  0  0  0  0  0  0  0  0
  -31.9600  -21.6170   19.7000 C   0  0  0  0  0  1  0  0  0  0  0  0
  -31.7020  -22.7810   17.5220 C   0  0  0  0  0  1  0  0  0  0  0  0
  -27.9440  -23.8040   20.4430 C   0  0  0  0  0  2  0  0  0  0  0  0
  -28.1760  -25.5410   20.2710 O   0  0  0  0  0  0  0  0  0  0  0  0
  -24.6330  -31.8570   23.1590 C   0  0  0  0  0  0  0  0  0  0  0  0
  -27.1880  -26.7440   20.2500 C   0  0  0  0  0  0  0  0  0  0  0  0
  -23.4530  -30.4330   21.5420 C   0  0  0  0  0  3  0  0  0  0  0  0
  -24.9090  -28.7670   20.1630 C   0  0  0  0  0  0  0  0  0  0  0  0
  -26.0350  -30.5780   21.4280 C   0  0  0  0  0  2  0  0  0  0  0  0
  -26.1050  -29.1390   20.7890 C   0  0  0  0  0  0  0  0  0  0  0  0
  -27.2300  -28.1570   20.7960 C   0  0  0  0  0  3  0  0  0  0  0  0
  -25.9520  -26.5790   19.5760 C   0  0  0  0  0  3  0  0  0  0  0  0
  -24.8690  -27.5090   19.5350 C   0  0  0  0  0  3  0  0  0  0  0  0
  -23.7010  -29.7180   20.1840 C   0  0  0  0  0  2  0  0  0  0  0  0
  -24.7310  -30.9910   22.0940 N   0  0  0  0  0  0  0  0  0  0  0  0
  -23.5370  -32.1630   23.6630 O   0  0  0  0  0  0  0  0  0  0  0  0
  -22.7380  -29.4680   22.5260 C   0  0  0  0  0  0  0  0  0  0  0  0
  -21.4030  -29.3150   22.4090 N   0  0  0  0  0  0  0  0  0  0  0  0
  -23.3940  -28.8550   23.3720 O   0  0  0  0  0  0  0  0  0  0  0  0
  -20.9250  -29.8600   21.7050 H   0  0  0  0  0  0  0  0  0  0  0  0
  -18.0140  -28.1220   22.9500 C   0  0  0  0  0  0  0  0  0  0  0  0
  -20.5760  -28.3920   23.1960 C   0  0  0  0  0  3  0  0  0  0  0  0
  -20.6720  -26.9510   22.6430 C   0  0  0  0  0  2  0  0  0  0  0  0
  -19.5670  -26.6170   21.6380 C   0  0  0  0  0  2  0  0  0  0  0  0
  -18.1870  -26.7680   22.2850 C   0  0  0  0  0  2  0  0  0  0  0  0
  -19.1340  -28.8910   23.3640 C   0  0  0  0  0  0  0  0  0  0  0  0
  -18.9150  -30.1550   23.9530 C   0  0  0  0  0  3  0  0  0  0  0  0
  -17.6090  -30.6510   24.1300 C   0  0  0  0  0  3  0  0  0  0  0  0
  -16.5030  -29.8780   23.7330 C   0  0  0  0  0  3  0  0  0  0  0  0
  -16.7070  -28.6170   23.1480 C   0  0  0  0  0  3  0  0  0  0  0  0
  -25.8920  -32.5220   23.7930 C   0  0  0  0  0  3  0  0  0  0  0  0
  -25.5560  -33.9220   24.1240 N   0  0  0  0  0  0  0  0  0  0  0  0
  -25.8780  -34.9930   23.3850 C   0  0  0  0  0  0  0  0  0  0  0  0
  -26.5460  -34.9080   22.3520 O   0  0  0  0  0  0  0  0  0  0  0  0
  -24.9650  -34.0610   24.9300 H   0  0  0  0  0  0  0  0  0  0  0  0
  -24.1330  -36.7820   23.0710 C   0  0  0  0  0  1  0  0  0  0  0  0
  -25.3830  -36.3740   23.8660 C   0  0  0  0  0  3  0  0  0  0  0  0
  -27.5140  -37.2690   24.6960 C   0  0  0  0  0  1  0  0  0  0  0  0
  -26.4050  -37.4380   23.7630 N   0  0  0  0  0  0  0  0  0  0  0  0
  -25.9890  -38.3500   23.9280 H   0  0  0  0  0  0  0  0  0  0  0  0
  -26.4030  -31.7770   25.0900 C   0  0  1  0  0  0  0  0  0  0  0  0
  -25.3020  -31.5560   26.1550 C   0  0  0  0  0  1  0  0  0  0  0  0
  -26.9960  -30.3940   24.7420 C   0  0  0  0  0  1  0  0  0  0  0  0
  -27.5440  -32.5910   25.7460 C   0  0  0  0  0  1  0  0  0  0  0  0
  -29.4260  -17.2890   20.4800 C   0  0  0  0  0  2  0  0  0  0  0  0
  -30.2400  -15.6310   20.2000 C   0  0  0  0  0  0  0  0  0  0  0  0
  -30.3160  -13.0930   19.3540 C   0  0  0  0  0  2  0  0  0  0  0  0
  -29.3980  -12.7710   18.1390 C   0  0  0  0  0  2  0  0  0  0  0  0
  -27.9680  -12.4390   18.5920 C   0  0  0  0  0  2  0  0  0  0  0  0
  -27.4960  -13.4110   19.6970 C   0  0  0  0  0  3  0  0  0  0  0  0
  -28.5460  -13.6570   20.8030 C   0  0  0  0  0  2  0  0  0  0  0  0
  -29.7420  -14.2560   20.1670 N   0  0  0  0  0  0  0  0  0  0  0  0
  -31.4540  -15.5820   19.9220 O   0  0  0  0  0  0  0  0  0  0  0  0
  -25.1430  -13.9340   20.4970 C   0  0  0  0  0  0  0  0  0  0  0  0
  -24.0900  -13.1510   20.8720 C   0  0  0  0  0  0  0  0  0  0  0  0
  -24.5620  -11.8030   20.8290 C   0  0  0  0  0  0  0  0  0  0  0  0
  -26.1840  -13.0680   20.2320 N   0  0  0  0  0  0  0  0  0  0  0  0
  -25.8520  -11.7760   20.4990 N   0  0  0  0  0  0  0  0  0  0  0  0
  -23.8400  -10.5370   21.0210 C   0  0  0  0  0  0  0  0  0  0  0  0
  -24.2780   -9.5640   21.9460 C   0  0  0  0  0  3  0  0  0  0  0  0
  -23.5470   -8.3690   22.1280 C   0  0  0  0  0  3  0  0  0  0  0  0
  -22.3670   -8.1380   21.3830 C   0  0  0  0  0  0  0  0  0  0  0  0
  -21.9470   -9.1000   20.4470 C   0  0  0  0  0  3  0  0  0  0  0  0
  -22.6780  -10.2860   20.2640 C   0  0  0  0  0  3  0  0  0  0  0  0
  -21.6100   -6.9950   21.4730 O   0  0  0  0  0  0  0  0  0  0  0  0
  -21.5670   -6.2470   22.6230 C   0  0  0  0  0  0  0  0  0  0  0  0
  -21.1370   -6.7950   23.8520 C   0  0  0  0  0  3  0  0  0  0  0  0
  -21.0390   -5.9750   24.9930 C   0  0  0  0  0  3  0  0  0  0  0  0
  -21.3650   -4.6070   24.9080 C   0  0  0  0  0  0  0  0  0  0  0  0
  -21.7910   -4.0590   23.6850 C   0  0  0  0  0  3  0  0  0  0  0  0
  -21.8870   -4.8770   22.5460 C   0  0  0  0  0  0  0  0  0  0  0  0
  -22.2750   -4.3370   21.3640 F   0  0  0  0  0  0  0  0  0  0  0  0
  -21.2660   -3.8180   26.0030 F   0  0  0  0  0  0  0  0  0  0  0  0
  -22.6930  -13.6230   21.1570 C   0  0  0  0  0  0  0  0  0  0  0  0
  -21.9750  -12.9280   22.0290 N   0  0  0  0  0  0  0  0  0  0  0  0
  -22.2510  -14.6490   20.6420 O   0  0  0  0  0  0  0  0  0  0  0  0
  -22.3440  -12.0960   22.4650 H   0  0  0  0  0  0  0  0  0  0  0  0
  -21.0440  -13.2360   22.2690 H   0  0  0  0  0  0  0  0  0  0  0  0
  -25.2990  -15.3080   20.3290 N   0  0  0  0  0  0  0  0  0  0  0  0
  -24.5330  -15.9600   20.4550 H   0  0  0  0  0  0  0  0  0  0  0  0
  -26.1500  -15.7550   20.0110 H   0  0  0  0  0  0  0  0  0  0  0  0
  2 10  1  0
  2  1  2  0
  3  4  1  0
  4 52  1  0
  4  1  1  0
  5  2  1  0
  6  7  1  0
  6  3  1  0
  6  5  1  0
  7  5  1  0
  7  8  1  1
  9  7  1  0
 11 10  1  0
 12 23  2  0
 13 11  1  0
 13 18  1  0
 14 22  1  0
 14 24  1  0
 15 21  1  0
 15 17  1  0
 16 22  1  0
 17 18  2  0
 17 16  1  0
 19 13  2  0
 20 19  1  0
 20 15  2  0
 21 14  1  0
 22 12  1  0
 24 26  2  0
 25 24  1  0
 27 25  1  0
 28 37  2  0
 28 33  1  0
 29 25  1  0
 29 33  1  0
 30 29  1  0
 31 32  1  0
 31 30  1  0
 32 28  1  0
 33 34  2  0
 34 35  1  0
 36 35  2  0
 37 36  1  0
 38 12  1  0
 38 39  1  0
 38 48  1  0
 39 42  1  0
 40 44  1  0
 40 39  1  0
 41 40  2  0
 44 43  1  0
 46 44  1  0
 46 47  1  0
 46 45  1  0
 48 51  1  1
 48 49  1  0
 50 48  1  0
 53 52  1  0
 54 59  1  0
 55 56  1  0
 55 54  1  0
 57 56  1  0
 57 64  1  0
 57 58  1  0
 59 53  1  0
 59 58  1  0
 60 53  2  0
 61 62  2  0
 62 81  1  0
 63 62  1  0
 63 66  1  0
 64 61  1  0
 64 65  1  0
 65 63  2  0
 66 67  1  0
 67 68  2  0
 69 72  1  0
 69 68  1  0
 70 69  2  0
 71 70  1  0
 71 66  2  0
 72 73  1  0
 73 74  1  0
 74 75  2  0
 76 75  1  0
 76 80  1  0
 77 76  2  0
 78 73  2  0
 78 77  1  0
 79 78  1  0
 81 82  1  0
 82 85  1  0
 82 84  1  0
 83 81  2  0
 86 87  1  0
 86 61  1  0
 88 86  1  0
M  ISO  4  10 101  11 101  52 100  53 100
M  END
>  <TORSDO>  (40) 
F 18

>  <SCORE>  (40) 
-16.639

>  <name>  (40) 
39

>  <ligand_id>  (40) 
39

>  <original_smiles>  (40) 
[H]C1=C(C([H])([H])Oc2c([H])c([H])c3c(c2[H])C([H])([H])N(C(=O)C([H])(N([H])C(=O)C([H])(N([H])C([H])([H])[H])C([H])([H])[H])C(C([H])([H])[H])(C([H])([H])[H])C([H])([H])[H])C([H])(C(=O)N([H])C2([H])c4c([H])c([H])c([H])c([H])c4C([H])([H])C([H])([H])C2([H])[H])C3([H])[H])C2([H])C([H])(C([H])([H])C1([H])C([H])([H])C(=O)N1C([H])([H])C([H])([H])C([H])([H])C([H])(n3nc(-c4c([H])c([H])c(Oc5c([H])c([H])c(F)c([H])c5F)c([H])c4[H])c(C(=O)N([H])[H])c3N([H])[H])C1([H])[H])C2(C([H])([H])[H])C([H])([H])[H]

>  <smiles>  (40) 
[H]C1=C(C([H])([H])Oc2c([H])c([H])c3c(c2[H])C([H])([H])N(C(=O)C([H])(N([H])C(=O)C([H])(N([H])C([H])([H])[H])C([H])([H])[H])C(C([H])([H])[H])(C([H])([H])[H])C([H])([H])[H])C([H])(C(=O)N([H])C2([H])c4c([H])c([H])c([H])c([H])c4C([H])([H])C([H])([H])C2([H])[H])C3([H])[H])C2([H])C([H])(C([H])([H])C1([H])C([H])([H])C(=O)N1C([H])([H])C([H])([H])C([H])([H])C([H])(n3nc(-c4c([H])c([H])c(Oc5c([H])c([H])c(F)c([H])c5F)c([H])c4[H])c(C(=O)N([H])[H])c3N([H])[H])C1([H])[H])C2(C([H])([H])[H])C([H])([H])[H]

$$$$
40:0:0
     RDKit          3D

 95 96  0  0  1  0  0  0  0  0999 V2000
  -23.2660  -24.0790   19.8980 C   0  0  0  0  0  2  0  0  0  0  0  0
  -17.7140  -26.5080   17.4320 C   0  0  0  0  0 15  0  0  0  0  0  0
  -17.9750  -25.5990   19.2170 C   0  0  0  0  0 15  0  0  0  0  0  0
  -19.3760  -27.3960   16.6700 C   0  0  0  0  0 15  0  0  0  0  0  0
  -19.6660  -25.1390   20.1640 C   0  0  0  0  0  1  0  0  0  0  0  0
  -21.3450  -26.7110   18.8100 C   0  0  0  0  0  3  0  0  0  0  0  0
  -21.4890  -25.0310   19.5610 C   0  0  0  0  0  2  0  0  0  0  0  0
  -24.1530  -22.6010   19.3700 N   0  0  0  0  0  4  0  0  0  0  0  0
  -24.2870  -22.1020   20.2330 H   0  0  0  0  0  0  0  0  0  0  0  0
  -23.4420  -22.0780   18.8870 H   0  0  0  0  0  0  0  0  0  0  0  0
  -25.6540  -22.1950   18.4490 C   0  0  0  0  0  1  0  0  0  0  0  0
  -26.8280  -20.6520   18.0350 C   0  0  0  0  0 15  0  0  0  0  0  0
  -28.7240  -20.1260   17.7730 C   0  0  0  0  0 15  0  0  0  0  0  0
  -30.0150  -18.6840   18.1680 C   0  0  0  0  0  1  0  0  0  0  0  0
  -31.6550  -18.0740   18.9470 C   0  0  0  0  0  0  0  0  0  0  0  0
  -32.9320  -15.8460   19.7950 C   0  0  0  0  0  2  0  0  0  0  0  0
  -32.5100  -14.5930   18.9640 C   0  0  0  0  0  2  0  0  0  0  0  0
  -31.0810  -14.1320   19.3280 C   0  0  0  0  0  2  0  0  0  0  0  0
  -30.1560  -15.3530   19.5320 C   0  0  0  0  0  3  0  0  0  0  0  0
  -30.7390  -16.3740   20.5050 C   0  0  0  0  0  2  0  0  0  0  0  0
  -31.8320  -16.9140   19.7640 N   0  0  0  0  0  0  0  0  0  0  0  0
  -32.8280  -18.4470   18.6560 O   0  0  0  0  0  0  0  0  0  0  0  0
  -27.8180  -15.9360   20.2860 C   0  0  0  0  0  0  0  0  0  0  0  0
  -26.7630  -15.1640   20.6490 C   0  0  0  0  0  0  0  0  0  0  0  0
  -27.2010  -13.8120   20.5110 C   0  0  0  0  0  0  0  0  0  0  0  0
  -28.8270  -15.0490   19.9640 N   0  0  0  0  0  0  0  0  0  0  0  0
  -28.4770  -13.7610   20.1710 N   0  0  0  0  0  0  0  0  0  0  0  0
  -26.4500  -12.5650   20.6020 C   0  0  0  0  0  0  0  0  0  0  0  0
  -26.6800  -11.6360   21.6390 C   0  0  0  0  0  3  0  0  0  0  0  0
  -25.9200  -10.4520   21.7080 C   0  0  0  0  0  3  0  0  0  0  0  0
  -24.9230  -10.1940   20.7360 C   0  0  0  0  0  0  0  0  0  0  0  0
  -24.7220  -11.1110   19.6910 C   0  0  0  0  0  3  0  0  0  0  0  0
  -25.4810  -12.2870   19.6200 C   0  0  0  0  0  3  0  0  0  0  0  0
  -24.1500   -9.0590   20.7070 O   0  0  0  0  0  0  0  0  0  0  0  0
  -23.5200   -8.5950   21.8320 C   0  0  0  0  0  0  0  0  0  0  0  0
  -22.6080   -9.3890   22.5580 C   0  0  0  0  0  3  0  0  0  0  0  0
  -21.9300   -8.8450   23.6680 C   0  0  0  0  0  3  0  0  0  0  0  0
  -22.1560   -7.5080   24.0450 C   0  0  0  0  0  0  0  0  0  0  0  0
  -23.0610   -6.7150   23.3180 C   0  0  0  0  0  3  0  0  0  0  0  0
  -23.7380   -7.2560   22.2130 C   0  0  0  0  0  0  0  0  0  0  0  0
  -24.5940   -6.4810   21.5030 F   0  0  0  0  0  0  0  0  0  0  0  0
  -21.4990   -6.9830   25.1060 F   0  0  0  0  0  0  0  0  0  0  0  0
  -25.3910  -15.6660   20.9770 C   0  0  0  0  0  0  0  0  0  0  0  0
  -24.6600  -14.9410   21.8130 N   0  0  0  0  0  0  0  0  0  0  0  0
  -24.9820  -16.7370   20.5270 O   0  0  0  0  0  0  0  0  0  0  0  0
  -25.0070  -14.0740   22.1960 H   0  0  0  0  0  0  0  0  0  0  0  0
  -23.7400  -15.2600   22.0780 H   0  0  0  0  0  0  0  0  0  0  0  0
  -27.9550  -17.3150   20.1740 N   0  0  0  0  0  0  0  0  0  0  0  0
  -27.1470  -17.9110   20.3210 H   0  0  0  0  0  0  0  0  0  0  0  0
  -28.7210  -17.7990   19.7270 H   0  0  0  0  0  0  0  0  0  0  0  0
  -24.3320  -25.2870   19.7600 C   0  0  0  0  0  2  0  0  0  0  0  0
  -25.9140  -25.1110   19.8590 C   0  0  0  0  0  3  0  0  0  0  0  0
  -26.8500  -26.3930   19.7150 C   0  0  0  0  0  3  0  0  0  0  0  0
  -28.3750  -26.3100   20.2310 C   0  0  0  0  0  2  0  0  0  0  0  0
  -28.8510  -27.1480   21.3680 O   0  0  0  0  0  0  0  0  0  0  0  0
  -25.7190  -31.3860   25.9290 C   0  0  0  0  0  0  0  0  0  0  0  0
  -28.1980  -28.3480   21.4110 C   0  0  0  0  0  0  0  0  0  0  0  0
  -24.7770  -31.3000   23.6800 C   0  0  0  0  0  3  0  0  0  0  0  0
  -26.2380  -30.2910   21.8420 C   0  0  0  0  0  0  0  0  0  0  0  0
  -27.2760  -31.0360   23.9970 C   0  0  0  0  0  2  0  0  0  0  0  0
  -27.2870  -30.1520   22.7630 C   0  0  0  0  0  0  0  0  0  0  0  0
  -28.2860  -29.1790   22.5510 C   0  0  0  0  0  3  0  0  0  0  0  0
  -27.2300  -28.6040   20.4220 C   0  0  0  0  0  3  0  0  0  0  0  0
  -26.2160  -29.5380   20.6600 C   0  0  0  0  0  3  0  0  0  0  0  0
  -25.1710  -31.3010   22.1770 C   0  0  0  0  0  2  0  0  0  0  0  0
  -25.9360  -31.2280   24.5950 N   0  0  0  0  0  0  0  0  0  0  0  0
  -24.5860  -31.6020   26.3870 O   0  0  0  0  0  0  0  0  0  0  0  0
  -23.8140  -30.1580   23.9630 C   0  0  0  0  0  0  0  0  0  0  0  0
  -22.5980  -30.3300   23.4320 N   0  0  0  0  0  4  0  0  0  0  0  0
  -24.1790  -29.1460   24.5820 O   0  0  0  0  0  0  0  0  0  0  0  0
  -22.3600  -31.2130   23.0040 H   0  0  0  0  0  0  0  0  0  0  0  0
  -19.5220  -27.7780   22.5450 C   0  0  0  0  0  3  0  0  0  0  0  0
  -21.9070  -29.1810   22.9920 C   0  0  0  0  0  0  0  0  0  0  0  0
  -22.6670  -28.8800   21.4460 C   0  0  0  0  0  2  0  0  0  0  0  0
  -22.1630  -27.8050   20.1800 C   0  0  0  0  0  3  0  0  0  0  0  0
  -20.6310  -27.0120   20.3830 C   0  0  0  0  0  2  0  0  0  0  0  0
  -20.3370  -28.8710   23.3650 C   0  0  0  0  0  0  0  0  0  0  0  0
  -19.8430  -29.9840   24.1480 C   0  0  0  0  0  3  0  0  0  0  0  0
  -18.5290  -30.4300   24.0950 C   0  0  0  0  0  3  0  0  0  0  0  0
  -17.6780  -29.6100   23.3660 C   0  0  0  0  0  3  0  0  0  0  0  0
  -18.1340  -28.3610   22.7860 C   0  0  0  0  0  3  0  0  0  0  0  0
  -26.8920  -31.3340   26.9400 C   0  0  0  0  0  3  0  0  0  0  0  0
  -26.5760  -30.4660   28.2150 C   0  0  1  0  0  0  0  0  0  0  0  0
  -25.1720  -30.7180   28.8140 C   0  0  0  0  0  1  0  0  0  0  0  0
  -26.6880  -28.9590   27.8900 C   0  0  0  0  0  1  0  0  0  0  0  0
  -27.6260  -30.7640   29.3100 C   0  0  0  0  0  1  0  0  0  0  0  0
  -27.1940  -32.7220   27.3080 N   0  0  0  0  0  0  0  0  0  0  0  0
  -28.1990  -33.4360   26.7890 C   0  0  0  0  0  0  0  0  0  0  0  0
  -29.0270  -32.9580   26.0080 O   0  0  0  0  0  0  0  0  0  0  0  0
  -26.5240  -33.1910   27.9000 H   0  0  0  0  0  0  0  0  0  0  0  0
  -27.8580  -35.8150   26.0490 C   0  0  0  0  0  1  0  0  0  0  0  0
  -28.3070  -34.9120   27.2090 C   0  0  0  0  0  3  0  0  0  0  0  0
  -30.0630  -34.6830   28.9070 C   0  0  0  0  0  1  0  0  0  0  0  0
  -29.6660  -35.2990   27.6440 N   0  0  0  0  0  0  0  0  0  0  0  0
  -29.7360  -36.3080   27.7500 H   0  0  0  0  0  0  0  0  0  0  0  0
  6  7  1  0
  6 75  1  0
  6 76  1  0
  7  5  1  0
  8  1  1  0
  8  9  1  0
 10  8  1  0
 11  8  1  0
 14 15  1  0
 15 21  1  0
 17 18  1  0
 17 16  1  0
 19 18  1  0
 19 26  1  0
 19 20  1  0
 21 16  1  0
 21 20  1  0
 22 15  2  0
 23 24  2  0
 24 43  1  0
 25 28  1  0
 25 24  1  0
 26 27  1  0
 26 23  1  0
 27 25  2  0
 28 29  1  0
 29 30  2  0
 31 30  1  0
 32 31  2  0
 33 32  1  0
 33 28  2  0
 34 31  1  0
 34 35  1  0
 35 40  2  0
 35 36  1  0
 36 37  2  0
 37 38  1  0
 38 42  1  0
 39 38  2  0
 40 39  1  0
 41 40  1  0
 43 44  1  0
 44 47  1  0
 44 46  1  0
 45 43  2  0
 48 23  1  0
 48 49  1  0
 50 48  1  0
 51 52  1  0
 51  1  1  0
 53 52  2  0
 53 54  1  0
 54 55  1  0
 55 57  1  0
 56 67  2  0
 57 62  1  0
 58 68  1  0
 58 66  1  0
 59 65  1  0
 59 61  1  0
 60 66  1  0
 61 60  1  0
 62 61  2  0
 63 64  1  0
 63 57  2  0
 64 59  2  0
 65 58  1  0
 66 56  1  0
 68 70  2  0
 69 68  1  0
 71 69  1  0
 72 81  2  0
 72 77  1  0
 73 77  1  0
 73 69  2  3
 74 73  1  0
 75 76  1  0
 75 74  1  0
 77 78  2  0
 79 78  1  0
 80 79  2  0
 81 80  1  0
 82 56  1  0
 82 87  1  0
 82 83  1  0
 83 84  1  1
 83 86  1  0
 85 83  1  0
 87 90  1  0
 88 92  1  0
 88 87  1  0
 89 88  2  0
 92 91  1  0
 92 94  1  0
 94 95  1  0
 94 93  1  0
M  ISO  4  14 100  15 100  54 101  55 101
M  END
>  <TORSDO>  (41) 
F 26

>  <SCORE>  (41) 
-6.128

>  <name>  (41) 
40

>  <ligand_id>  (41) 
40

>  <original_smiles>  (41) 
[H]c1c([H])c([H])c2c(c1[H])C([H])([H])C([H])([H])C([H])([H])C2([H])N([H])C(=O)C1([H])N(C(=O)C([H])(N([H])C(=O)C([H])(N([H])C([H])([H])[H])C([H])([H])[H])C(C([H])([H])[H])(C([H])([H])[H])C([H])([H])[H])C([H])([H])c2c([H])c(OC([H])([H])C([H])([H])C([H])([H])C([H])([H])C([H])(C3([H])C([H])([H])C([H])([H])C([H])([H])C([H])([H])C3([H])[H])[N+]([H])([H])C([H])([H])C([H])([H])C([H])([H])C([H])([H])C(=O)N3C([H])([H])C([H])([H])C([H])([H])C([H])(n4nc(-c5c([H])c([H])c(Oc6c([H])c([H])c(F)c([H])c6F)c([H])c5[H])c(C(=O)N([H])[H])c4N([H])[H])C3([H])[H])c([H])c([H])c2C1([H])[H]

>  <smiles>  (41) 
[H]c1c([H])c([H])c2c(c1[H])C([H])([H])C([H])([H])C([H])([H])C2([H])N([H])C(=O)C1([H])N(C(=O)C([H])(N([H])C(=O)C([H])(N([H])C([H])([H])[H])C([H])([H])[H])C(C([H])([H])[H])(C([H])([H])[H])C([H])([H])[H])C([H])([H])c2c([H])c(OC([H])([H])C([H])([H])C([H])([H])C([H])([H])C([H])(C3([H])C([H])([H])C([H])([H])C([H])([H])C([H])([H])C3([H])[H])[N+]([H])([H])C([H])([H])C([H])([H])C([H])([H])C([H])([H])C(=O)N3C([H])([H])C([H])([H])C([H])([H])C([H])(n4nc(-c5c([H])c([H])c(Oc6c([H])c([H])c(F)c([H])c6F)c([H])c5[H])c(C(=O)N([H])[H])c4N([H])[H])C3([H])[H])c([H])c([H])c2C1([H])[H]

$$$$
41:0:0
     RDKit          3D

 90 98  0  0  1  0  0  0  0  0999 V2000
  -30.4030  -20.2620   18.3720 C   0  0  0  0  0  2  0  0  0  0  0  0
  -30.1060  -21.8840   18.1990 C   0  0  0  0  0  3  0  0  0  0  0  0
  -29.4230  -21.1040   20.2590 C   0  0  0  0  0  3  0  0  0  0  0  0
  -30.3760  -19.6490   19.8370 C   0  0  0  0  0  3  0  0  0  0  0  0
  -29.6620  -22.7070   19.4910 C   0  0  0  0  0  3  0  0  0  0  0  0
  -31.0160  -23.1880   16.2580 C   0  0  0  0  0  2  0  0  0  0  0  0
  -31.2270  -22.5950   17.4440 C   0  0  0  0  0  0  0  0  0  0  0  0
  -32.6010  -22.6120   18.0980 C   0  0  0  0  0  1  0  0  0  0  0  0
  -30.1230  -22.0160   22.5070 C   0  0  0  0  0  2  0  0  0  0  0  0
  -29.3330  -21.2120   21.7760 C   0  0  0  0  0  0  0  0  0  0  0  0
  -28.2790  -20.3380   22.4310 C   0  0  0  0  0  1  0  0  0  0  0  0
  -30.2430  -17.7640   20.2080 C   0  0  0  0  0  2  0  0  0  0  0  0
  -31.1660  -16.1570   20.2130 C   0  0  0  0  0  0  0  0  0  0  0  0
  -31.3500  -13.5780   19.5760 C   0  0  0  0  0  2  0  0  0  0  0  0
  -30.5020  -13.1500   18.3430 C   0  0  0  0  0  2  0  0  0  0  0  0
  -29.0550  -12.8230   18.7490 C   0  0  0  0  0  2  0  0  0  0  0  0
  -28.5040  -13.8670   19.7460 C   0  0  0  0  0  3  0  0  0  0  0  0
  -29.4880  -14.2100   20.8850 C   0  0  0  0  0  2  0  0  0  0  0  0
  -30.7060  -14.7770   20.2670 N   0  0  0  0  0  0  0  0  0  0  0  0
  -32.3990  -16.1410   20.0380 O   0  0  0  0  0  0  0  0  0  0  0  0
  -26.1420  -14.4240   20.5100 C   0  0  0  0  0  0  0  0  0  0  0  0
  -25.0610  -13.6520   20.8300 C   0  0  0  0  0  0  0  0  0  0  0  0
  -25.5030  -12.2960   20.7450 C   0  0  0  0  0  0  0  0  0  0  0  0
  -27.1700  -13.5410   20.2340 N   0  0  0  0  0  0  0  0  0  0  0  0
  -26.7980  -12.2490   20.4440 N   0  0  0  0  0  0  0  0  0  0  0  0
  -24.7450  -11.0420   20.8700 C   0  0  0  0  0  0  0  0  0  0  0  0
  -25.0900  -10.0620   21.8270 C   0  0  0  0  0  3  0  0  0  0  0  0
  -24.3300   -8.8770   21.9440 C   0  0  0  0  0  3  0  0  0  0  0  0
  -23.2120   -8.6640   21.1030 C   0  0  0  0  0  0  0  0  0  0  0  0
  -22.8860   -9.6330   20.1380 C   0  0  0  0  0  3  0  0  0  0  0  0
  -23.6460  -10.8080   20.0190 C   0  0  0  0  0  3  0  0  0  0  0  0
  -22.4340   -7.5310   21.1260 O   0  0  0  0  0  0  0  0  0  0  0  0
  -22.1960   -6.8440   22.2900 C   0  0  0  0  0  0  0  0  0  0  0  0
  -21.5790   -7.4580   23.4030 C   0  0  0  0  0  3  0  0  0  0  0  0
  -21.2900   -6.6980   24.5540 C   0  0  0  0  0  3  0  0  0  0  0  0
  -21.6070   -5.3260   24.5920 C   0  0  0  0  0  0  0  0  0  0  0  0
  -22.2150   -4.7130   23.4830 C   0  0  0  0  0  3  0  0  0  0  0  0
  -22.5070   -5.4710   22.3350 C   0  0  0  0  0  0  0  0  0  0  0  0
  -23.0740   -4.8700   21.2600 F   0  0  0  0  0  0  0  0  0  0  0  0
  -21.3230   -4.5960   25.6950 F   0  0  0  0  0  0  0  0  0  0  0  0
  -23.6720  -14.1480   21.1010 C   0  0  0  0  0  0  0  0  0  0  0  0
  -22.9180  -13.4370   21.9330 N   0  0  0  0  0  0  0  0  0  0  0  0
  -23.2630  -15.2000   20.6130 O   0  0  0  0  0  0  0  0  0  0  0  0
  -23.2640  -12.5860   22.3510 H   0  0  0  0  0  0  0  0  0  0  0  0
  -21.9840  -13.7480   22.1550 H   0  0  0  0  0  0  0  0  0  0  0  0
  -26.3350  -15.7980   20.3990 N   0  0  0  0  0  0  0  0  0  0  0  0
  -25.5830  -16.4620   20.5400 H   0  0  0  0  0  0  0  0  0  0  0  0
  -27.2020  -16.2350   20.1130 H   0  0  0  0  0  0  0  0  0  0  0  0
  -28.6840  -24.3580   19.3530 C   0  0  0  0  0  2  0  0  0  0  0  0
  -28.8540  -26.0880   19.3980 O   0  0  0  0  0  0  0  0  0  0  0  0
  -25.1710  -31.6290   23.3280 C   0  0  0  0  0  0  0  0  0  0  0  0
  -27.8430  -27.2430   19.5410 C   0  0  0  0  0  0  0  0  0  0  0  0
  -24.0310  -30.5190   21.4530 C   0  0  0  0  0  3  0  0  0  0  0  0
  -25.5290  -29.1800   19.7970 C   0  0  0  0  0  0  0  0  0  0  0  0
  -26.6040  -30.7400   21.3980 C   0  0  0  0  0  2  0  0  0  0  0  0
  -26.7070  -29.4510   20.5030 C   0  0  0  0  0  0  0  0  0  0  0  0
  -27.8520  -28.5160   20.3460 C   0  0  0  0  0  3  0  0  0  0  0  0
  -26.6260  -27.1690   18.8200 C   0  0  0  0  0  3  0  0  0  0  0  0
  -25.5240  -28.0670   18.9380 C   0  0  0  0  0  3  0  0  0  0  0  0
  -24.3010  -30.0820   19.9860 C   0  0  0  0  0  2  0  0  0  0  0  0
  -25.2900  -30.9860   22.1180 N   0  0  0  0  0  0  0  0  0  0  0  0
  -24.0650  -31.8150   23.8660 O   0  0  0  0  0  0  0  0  0  0  0  0
  -23.3250  -29.3730   22.2250 C   0  0  0  0  0  0  0  0  0  0  0  0
  -21.9960  -29.2250   22.0620 N   0  0  0  0  0  0  0  0  0  0  0  0
  -23.9840  -28.6180   22.9440 O   0  0  0  0  0  0  0  0  0  0  0  0
  -21.5160  -29.8890   21.4710 H   0  0  0  0  0  0  0  0  0  0  0  0
  -18.6100  -27.9470   22.3800 C   0  0  0  0  0  0  0  0  0  0  0  0
  -21.1770  -28.1570   22.6460 C   0  0  0  0  0  3  0  0  0  0  0  0
  -21.2610  -26.8650   21.7980 C   0  0  0  0  0  2  0  0  0  0  0  0
  -20.1420  -26.7510   20.7590 C   0  0  0  0  0  2  0  0  0  0  0  0
  -18.7710  -26.7620   21.4420 C   0  0  0  0  0  2  0  0  0  0  0  0
  -19.7390  -28.6100   22.9320 C   0  0  0  0  0  0  0  0  0  0  0  0
  -19.5310  -29.7230   23.7770 C   0  0  0  0  0  3  0  0  0  0  0  0
  -18.2300  -30.1720   24.0690 C   0  0  0  0  0  3  0  0  0  0  0  0
  -17.1170  -29.5030   23.5290 C   0  0  0  0  0  3  0  0  0  0  0  0
  -17.3090  -28.3920   22.6920 C   0  0  0  0  0  3  0  0  0  0  0  0
  -26.4130  -32.1770   24.0920 C   0  0  0  0  0  3  0  0  0  0  0  0
  -26.9190  -31.2030   25.2290 C   0  0  1  0  0  0  0  0  0  0  0  0
  -25.8100  -30.7710   26.2180 C   0  0  0  0  0  1  0  0  0  0  0  0
  -27.5340  -29.9200   24.6300 C   0  0  0  0  0  1  0  0  0  0  0  0
  -28.0420  -31.8880   26.0430 C   0  0  0  0  0  1  0  0  0  0  0  0
  -26.0550  -33.4840   24.6770 N   0  0  0  0  0  0  0  0  0  0  0  0
  -26.3730  -34.6750   24.1530 C   0  0  0  0  0  0  0  0  0  0  0  0
  -27.0550  -34.7920   23.1340 O   0  0  0  0  0  0  0  0  0  0  0  0
  -25.4480  -33.4650   25.4820 H   0  0  0  0  0  0  0  0  0  0  0  0
  -24.6030  -36.4710   24.1520 C   0  0  0  0  0  1  0  0  0  0  0  0
  -25.8530  -35.9390   24.8730 C   0  0  0  0  0  3  0  0  0  0  0  0
  -27.9610  -36.6990   25.8780 C   0  0  0  0  0  1  0  0  0  0  0  0
  -26.8600  -37.0180   24.9740 N   0  0  0  0  0  0  0  0  0  0  0  0
  -26.4300  -37.8830   25.2920 H   0  0  0  0  0  0  0  0  0  0  0  0
  1  4  1  0
  2  7  1  0
  2  1  1  0
  2  5  1  0
  3 10  1  0
  4 12  1  0
  4  3  1  0
  5 49  1  0
  5  3  1  0
  6  7  2  0
  7  8  1  0
 10 11  1  0
 10  9  2  0
 12 13  1  0
 13 19  1  0
 14 19  1  0
 15 16  1  0
 15 14  1  0
 17 16  1  0
 17 24  1  0
 17 18  1  0
 19 18  1  0
 20 13  2  0
 21 22  2  0
 22 41  1  0
 23 22  1  0
 23 26  1  0
 24 25  1  0
 24 21  1  0
 25 23  2  0
 26 27  1  0
 27 28  2  0
 29 32  1  0
 29 28  1  0
 30 29  2  0
 31 30  1  0
 31 26  2  0
 32 33  1  0
 33 38  2  0
 33 34  1  0
 34 35  2  0
 35 36  1  0
 36 40  1  0
 37 36  2  0
 38 37  1  0
 39 38  1  0
 41 42  1  0
 42 45  1  0
 42 44  1  0
 43 41  2  0
 46 21  1  0
 46 47  1  0
 48 46  1  0
 49 50  1  0
 50 52  1  0
 51 62  2  0
 52 57  1  0
 53 61  1  0
 53 63  1  0
 54 60  1  0
 54 56  1  0
 55 61  1  0
 56 55  1  0
 57 56  2  0
 58 59  1  0
 58 52  2  0
 59 54  2  0
 60 53  1  0
 61 51  1  0
 63 65  2  0
 64 63  1  0
 66 64  1  0
 67 76  2  0
 67 72  1  0
 68 64  1  0
 68 72  1  0
 69 68  1  0
 70 71  1  0
 70 69  1  0
 71 67  1  0
 72 73  2  0
 73 74  1  0
 75 74  2  0
 76 75  1  0
 77 51  1  0
 77 82  1  0
 77 78  1  0
 78 81  1  1
 78 79  1  0
 80 78  1  0
 82 85  1  0
 83 82  1  0
 83 87  1  0
 84 83  2  0
 87 86  1  0
 87 89  1  0
 89 90  1  0
 89 88  1  0
M  ISO  4  12 100  13 100  49 101  50 101
M  END
>  <TORSDO>  (42) 
F 20

>  <SCORE>  (42) 
-9.315

>  <name>  (42) 
41

>  <ligand_id>  (42) 
41

>  <original_smiles>  (42) 
[H]C([H])=C(C([H])([H])[H])C1([H])C([H])([H])C([H])(C([H])([H])C(=O)N2C([H])([H])C([H])([H])C([H])([H])C([H])(n3nc(-c4c([H])c([H])c(Oc5c([H])c([H])c(F)c([H])c5F)c([H])c4[H])c(C(=O)N([H])[H])c3N([H])[H])C2([H])[H])C([H])(C(=C([H])[H])C([H])([H])[H])C1([H])C([H])([H])Oc1c([H])c([H])c2c(c1[H])C([H])([H])N(C(=O)C([H])(N([H])C(=O)C([H])(N([H])C([H])([H])[H])C([H])([H])[H])C(C([H])([H])[H])(C([H])([H])[H])C([H])([H])[H])C([H])(C(=O)N([H])C1([H])c3c([H])c([H])c([H])c([H])c3C([H])([H])C([H])([H])C1([H])[H])C2([H])[H]

>  <smiles>  (42) 
[H]C([H])=C(C([H])([H])[H])C1([H])C([H])([H])C([H])(C([H])([H])C(=O)N2C([H])([H])C([H])([H])C([H])([H])C([H])(n3nc(-c4c([H])c([H])c(Oc5c([H])c([H])c(F)c([H])c5F)c([H])c4[H])c(C(=O)N([H])[H])c3N([H])[H])C2([H])[H])C([H])(C(=C([H])[H])C([H])([H])[H])C1([H])C([H])([H])Oc1c([H])c([H])c2c(c1[H])C([H])([H])N(C(=O)C([H])(N([H])C(=O)C([H])(N([H])C([H])([H])[H])C([H])([H])[H])C(C([H])([H])[H])(C([H])([H])[H])C([H])([H])[H])C([H])(C(=O)N([H])C1([H])c3c([H])c([H])c([H])c([H])c3C([H])([H])C([H])([H])C1([H])[H])C2([H])[H]

$$$$
42:0:0
     RDKit          3D

 99106  0  0  1  0  0  0  0  0999 V2000
  -31.5010  -20.9140   15.8330 C   0  0  0  0  0  1  0  0  0  0  0  0
  -30.7240  -21.7170   16.8970 C   0  0  0  0  0  3  0  0  0  0  0  0
  -31.3940  -22.9960   17.2440 N   0  0  0  0  0  4  0  0  0  0  0  0
  -31.0340  -23.2980   18.1350 H   0  0  0  0  0  0  0  0  0  0  0  0
  -32.3900  -22.8720   17.3460 H   0  0  0  0  0  0  0  0  0  0  0  0
  -31.1290  -24.1130   16.3080 C   0  0  0  0  0  2  0  0  0  0  0  0
  -31.3710  -25.4870   16.9590 C   0  0  0  0  0  2  0  0  0  0  0  0
  -30.5280  -25.7300   18.2290 C   0  0  0  0  0  2  0  0  0  0  0  0
  -30.4350  -27.2170   18.6130 C   0  0  0  0  0  2  0  0  0  0  0  0
  -29.7830  -27.4610   19.9840 C   0  0  0  0  0  2  0  0  0  0  0  0
  -28.4950  -26.8390   20.0180 O   0  0  0  0  0  0  0  0  0  0  0  0
  -24.6910  -31.9690   23.2590 C   0  0  0  0  0  0  0  0  0  0  0  0
  -27.3530  -27.6030   20.1090 C   0  0  0  0  0  0  0  0  0  0  0  0
  -23.4660  -30.5550   21.6340 C   0  0  0  0  0  3  0  0  0  0  0  0
  -24.9130  -29.0300   20.1870 C   0  0  0  0  0  0  0  0  0  0  0  0
  -25.9760  -30.9510   21.3900 C   0  0  0  0  0  2  0  0  0  0  0  0
  -26.0670  -29.5820   20.7530 C   0  0  0  0  0  0  0  0  0  0  0  0
  -27.2830  -28.8740   20.7290 C   0  0  0  0  0  3  0  0  0  0  0  0
  -26.1760  -27.0490   19.5650 C   0  0  0  0  0  3  0  0  0  0  0  0
  -24.9570  -27.7540   19.5980 C   0  0  0  0  0  3  0  0  0  0  0  0
  -23.6570  -29.8670   20.2530 C   0  0  0  0  0  2  0  0  0  0  0  0
  -24.7290  -31.1740   22.1530 N   0  0  0  0  0  0  0  0  0  0  0  0
  -23.6180  -32.2300   23.8200 O   0  0  0  0  0  0  0  0  0  0  0  0
  -22.8430  -29.5300   22.6080 C   0  0  0  0  0  0  0  0  0  0  0  0
  -21.5200  -29.3290   22.4980 N   0  0  0  0  0  0  0  0  0  0  0  0
  -23.5450  -28.9170   23.4170 O   0  0  0  0  0  0  0  0  0  0  0  0
  -21.0150  -29.8780   21.8170 H   0  0  0  0  0  0  0  0  0  0  0  0
  -18.1760  -28.0640   23.0070 C   0  0  0  0  0  0  0  0  0  0  0  0
  -20.7260  -28.3830   23.2800 C   0  0  0  0  0  3  0  0  0  0  0  0
  -20.8610  -26.9470   22.7210 C   0  0  0  0  0  2  0  0  0  0  0  0
  -19.7690  -26.5860   21.7100 C   0  0  0  0  0  2  0  0  0  0  0  0
  -18.3840  -26.7100   22.3500 C   0  0  0  0  0  2  0  0  0  0  0  0
  -19.2760  -28.8570   23.4280 C   0  0  0  0  0  0  0  0  0  0  0  0
  -19.0290  -30.1230   23.9990 C   0  0  0  0  0  3  0  0  0  0  0  0
  -17.7130  -30.5990   24.1550 C   0  0  0  0  0  3  0  0  0  0  0  0
  -16.6260  -29.8030   23.7510 C   0  0  0  0  0  3  0  0  0  0  0  0
  -16.8590  -28.5380   23.1830 C   0  0  0  0  0  3  0  0  0  0  0  0
  -25.9850  -32.6090   23.8520 C   0  0  0  0  0  3  0  0  0  0  0  0
  -25.6830  -34.0120   24.1610 N   0  0  0  0  0  0  0  0  0  0  0  0
  -26.0130  -35.0500   23.3790 C   0  0  0  0  0  0  0  0  0  0  0  0
  -26.6760  -34.9260   22.3460 O   0  0  0  0  0  0  0  0  0  0  0  0
  -25.0960  -34.1830   24.9640 H   0  0  0  0  0  0  0  0  0  0  0  0
  -24.2870  -36.8380   22.9990 C   0  0  0  0  0  1  0  0  0  0  0  0
  -25.5300  -36.4470   23.8130 C   0  0  0  0  0  3  0  0  0  0  0  0
  -27.6720  -37.3410   24.6140 C   0  0  0  0  0  1  0  0  0  0  0  0
  -26.5640  -37.4950   23.6750 N   0  0  0  0  0  0  0  0  0  0  0  0
  -26.1610  -38.4190   23.8080 H   0  0  0  0  0  0  0  0  0  0  0  0
  -26.5180  -31.8580   25.1330 C   0  0  1  0  0  0  0  0  0  0  0  0
  -25.4410  -31.6380   26.2210 C   0  0  0  0  0  1  0  0  0  0  0  0
  -27.0940  -30.4740   24.7520 C   0  0  0  0  0  1  0  0  0  0  0  0
  -27.6790  -32.6610   25.7680 C   0  0  0  0  0  1  0  0  0  0  0  0
  -30.3750  -20.8970   18.1650 C   0  0  0  0  0  2  0  0  0  0  0  0
  -31.5290  -20.0650   18.7790 C   0  0  0  0  0  2  0  0  0  0  0  0
  -31.0970  -19.3360   19.9920 N   0  0  0  0  0  4  0  0  0  0  0  0
  -30.2040  -19.6820   20.3010 H   0  0  0  0  0  0  0  0  0  0  0  0
  -31.7630  -19.5950   20.7070 H   0  0  0  0  0  0  0  0  0  0  0  0
  -31.0760  -17.8480   19.9700 C   0  0  0  0  0  3  0  0  0  0  0  0
  -28.5590  -17.7140   19.3640 C   0  0  0  0  0  1  0  0  0  0  0  0
  -29.9880  -17.2600   19.0070 C   0  0  0  0  0  3  0  0  0  0  0  0
  -31.6310  -16.8860   17.0110 C   0  0  0  0  0  1  0  0  0  0  0  0
  -30.2530  -17.3750   17.4840 C   0  0  0  0  0  2  0  0  0  0  0  0
  -30.9190  -17.3700   21.4510 C   0  0  0  0  0  2  0  0  0  0  0  0
  -30.3820  -15.9440   21.7380 C   0  0  0  0  0  2  0  0  0  0  0  0
  -31.0850  -14.8120   20.9710 C   0  0  0  0  0  0  0  0  0  0  0  0
  -30.8650  -12.6970   19.7230 C   0  0  0  0  0  2  0  0  0  0  0  0
  -29.9860  -12.9160   18.4750 C   0  0  0  0  0  2  0  0  0  0  0  0
  -28.4890  -12.7710   18.8080 C   0  0  0  0  0  2  0  0  0  0  0  0
  -28.0770  -13.5970   20.0550 C   0  0  0  0  0  3  0  0  0  0  0  0
  -29.0610  -13.3380   21.2200 C   0  0  0  0  0  2  0  0  0  0  0  0
  -30.4210  -13.6490   20.7490 N   0  0  0  0  0  0  0  0  0  0  0  0
  -32.2050  -15.0380   20.5060 O   0  0  0  0  0  0  0  0  0  0  0  0
  -25.6280  -14.2060   20.5880 C   0  0  0  0  0  0  0  0  0  0  0  0
  -24.5360  -13.4330   20.8800 C   0  0  0  0  0  0  0  0  0  0  0  0
  -25.0020  -12.0810   20.8880 C   0  0  0  0  0  0  0  0  0  0  0  0
  -26.6900  -13.3260   20.4370 N   0  0  0  0  0  0  0  0  0  0  0  0
  -26.3100  -12.0440   20.6690 N   0  0  0  0  0  0  0  0  0  0  0  0
  -24.2710  -10.8170   21.0300 C   0  0  0  0  0  0  0  0  0  0  0  0
  -24.6530   -9.8400   21.9760 C   0  0  0  0  0  3  0  0  0  0  0  0
  -23.9190   -8.6400   22.1040 C   0  0  0  0  0  3  0  0  0  0  0  0
  -22.7900   -8.4100   21.2820 C   0  0  0  0  0  0  0  0  0  0  0  0
  -22.4290   -9.3740   20.3240 C   0  0  0  0  0  3  0  0  0  0  0  0
  -23.1630  -10.5650   20.1960 C   0  0  0  0  0  3  0  0  0  0  0  0
  -22.0320   -7.2650   21.3180 O   0  0  0  0  0  0  0  0  0  0  0  0
  -21.9020   -6.5270   22.4660 C   0  0  0  0  0  0  0  0  0  0  0  0
  -21.4070   -7.0900   23.6620 C   0  0  0  0  0  3  0  0  0  0  0  0
  -21.2260   -6.2780   24.8000 C   0  0  0  0  0  3  0  0  0  0  0  0
  -21.5290   -4.9040   24.7430 C   0  0  0  0  0  0  0  0  0  0  0  0
  -22.0190   -4.3420   23.5520 C   0  0  0  0  0  3  0  0  0  0  0  0
  -22.2020   -5.1500   22.4150 C   0  0  0  0  0  0  0  0  0  0  0  0
  -22.6570   -4.5980   21.2640 F   0  0  0  0  0  0  0  0  0  0  0  0
  -21.3490   -4.1230   25.8320 F   0  0  0  0  0  0  0  0  0  0  0  0
  -23.1200  -13.9050   21.0570 C   0  0  0  0  0  0  0  0  0  0  0  0
  -22.3460  -13.2140   21.8860 N   0  0  0  0  0  0  0  0  0  0  0  0
  -22.7080  -14.9200   20.4960 O   0  0  0  0  0  0  0  0  0  0  0  0
  -22.6950  -12.3920   22.3570 H   0  0  0  0  0  0  0  0  0  0  0  0
  -21.3930  -13.5030   22.0530 H   0  0  0  0  0  0  0  0  0  0  0  0
  -25.8080  -15.5740   20.4180 N   0  0  0  0  0  0  0  0  0  0  0  0
  -25.0440  -16.2380   20.4700 H   0  0  0  0  0  0  0  0  0  0  0  0
  -26.6930  -16.0000   20.1800 H   0  0  0  0  0  0  0  0  0  0  0  0
  2  1  1  0
  2  3  1  0
  2 52  1  0
  3  5  1  0
  3  4  1  0
  6  7  1  0
  6  3  1  0
  7  8  1  0
  8  9  1  0
  9 10  1  0
 10 11  1  0
 11 13  1  0
 12 23  2  0
 13 18  1  0
 14 22  1  0
 14 24  1  0
 15 21  1  0
 15 17  1  0
 16 22  1  0
 17 16  1  0
 18 17  2  0
 19 20  1  0
 19 13  2  0
 20 15  2  0
 21 14  1  0
 22 12  1  0
 24 26  2  0
 25 24  1  0
 27 25  1  0
 28 37  2  0
 28 33  1  0
 29 25  1  0
 29 33  1  0
 30 29  1  0
 31 32  1  0
 31 30  1  0
 32 28  1  0
 33 34  2  0
 34 35  1  0
 36 35  2  0
 37 36  1  0
 38 12  1  0
 38 39  1  0
 38 48  1  0
 39 42  1  0
 40 44  1  0
 40 39  1  0
 41 40  2  0
 44 43  1  0
 46 47  1  0
 46 44  1  0
 46 45  1  0
 48 51  1  1
 48 49  1  0
 50 48  1  0
 52 53  1  0
 53 54  1  0
 54 55  1  0
 54 56  1  0
 57 54  1  0
 57 62  1  0
 59 58  1  0
 59 57  1  0
 60 61  1  0
 61 59  1  0
 62 63  1  0
 64 63  1  0
 65 70  1  0
 66 67  1  0
 66 65  1  0
 68 67  1  0
 68 75  1  0
 68 69  1  0
 70 64  1  0
 70 69  1  0
 71 64  2  0
 72 73  2  0
 73 74  1  0
 73 92  1  0
 74 77  1  0
 75 72  1  0
 75 76  1  0
 76 74  2  0
 77 78  1  0
 78 79  2  0
 80 83  1  0
 80 79  1  0
 81 80  2  0
 82 81  1  0
 82 77  2  0
 83 84  1  0
 84 85  1  0
 85 86  2  0
 87 86  1  0
 87 91  1  0
 88 87  2  0
 89 84  2  0
 89 88  1  0
 90 89  1  0
 92 93  1  0
 93 96  1  0
 93 95  1  0
 94 92  2  0
 97 98  1  0
 97 72  1  0
 99 97  1  0
M  ISO  4  10 101  11 101  63 100  64 100
M  END
>  <TORSDO>  (43) 
F 30

>  <SCORE>  (43) 
-10.272

>  <name>  (43) 
42

>  <ligand_id>  (43) 
42

>  <original_smiles>  (43) 
[H]c1c([H])c([H])c2c(c1[H])C([H])([H])C([H])([H])C([H])([H])C2([H])N([H])C(=O)C1([H])N(C(=O)C([H])(N([H])C(=O)C([H])(N([H])C([H])([H])[H])C([H])([H])[H])C(C([H])([H])[H])(C([H])([H])[H])C([H])([H])[H])C([H])([H])c2c([H])c(OC([H])([H])C([H])([H])C([H])([H])C([H])([H])C([H])([H])[N+]([H])([H])C([H])(C([H])([H])[H])C([H])([H])C([H])([H])[N+]([H])([H])C([H])(C([H])([H])C([H])([H])C(=O)N3C([H])([H])C([H])([H])C([H])([H])C([H])(n4nc(-c5c([H])c([H])c(Oc6c([H])c([H])c(F)c([H])c6F)c([H])c5[H])c(C(=O)N([H])[H])c4N([H])[H])C3([H])[H])C([H])(C([H])([H])[H])C([H])([H])C([H])([H])[H])c([H])c([H])c2C1([H])[H]

>  <smiles>  (43) 
[H]c1c([H])c([H])c2c(c1[H])C([H])([H])C([H])([H])C([H])([H])C2([H])N([H])C(=O)C1([H])N(C(=O)C([H])(N([H])C(=O)C([H])(N([H])C([H])([H])[H])C([H])([H])[H])C(C([H])([H])[H])(C([H])([H])[H])C([H])([H])[H])C([H])([H])c2c([H])c(OC([H])([H])C([H])([H])C([H])([H])C([H])([H])C([H])([H])[N+]([H])([H])C([H])(C([H])([H])[H])C([H])([H])C([H])([H])[N+]([H])([H])C([H])(C([H])([H])C([H])([H])C(=O)N3C([H])([H])C([H])([H])C([H])([H])C([H])(n4nc(-c5c([H])c([H])c(Oc6c([H])c([H])c(F)c([H])c6F)c([H])c5[H])c(C(=O)N([H])[H])c4N([H])[H])C3([H])[H])C([H])(C([H])([H])[H])C([H])([H])C([H])([H])[H])c([H])c([H])c2C1([H])[H]

$$$$
43:0:0
     RDKit          3D

 89 90  0  0  1  0  0  0  0  0999 V2000
  -28.1800  -21.4140   20.7160 C   0  0  0  0  0  2  0  0  0  0  0  0
  -28.8670  -19.5900   20.6570 C   0  0  0  0  0  1  0  0  0  0  0  0
  -28.3540  -23.3620   21.8360 C   0  0  0  0  0 15  0  0  0  0  0  0
  -26.9420  -22.4910   19.6260 C   0  0  0  0  0  1  0  0  0  0  0  0
  -26.3030  -25.4820   21.7830 C   0  0  0  0  0 15  0  0  0  0  0  0
  -25.6480  -24.2250   19.9570 C   0  0  0  0  0  1  0  0  0  0  0  0
  -29.4520  -17.4450   20.2170 C   0  0  0  0  0  2  0  0  0  0  0  0
  -30.0320  -14.5060   19.2590 C   0  0  0  0  0  2  0  0  0  0  0  0
  -29.4040  -13.4490   18.1860 C   0  0  0  0  0  2  0  0  0  0  0  0
  -28.1990  -12.6670   18.7020 C   0  0  0  0  0  2  0  0  0  0  0  0
  -27.4730  -13.6450   19.6280 C   0  0  0  0  0  3  0  0  0  0  0  0
  -28.3440  -14.5490   20.6410 C   0  0  0  0  0  2  0  0  0  0  0  0
  -29.1650  -15.7510   20.0060 N   0  0  0  0  0  0  0  0  0  0  0  0
  -30.6770  -17.0700   19.9710 O   0  0  0  0  0  1  0  0  0  0  0  0
  -25.1400  -13.9040   20.4570 C   0  0  0  0  0  0  0  0  0  0  0  0
  -24.1390  -13.0690   20.8450 C   0  0  0  0  0  0  0  0  0  0  0  0
  -24.6660  -11.7420   20.7620 C   0  0  0  0  0  0  0  0  0  0  0  0
  -26.2280  -13.1130   20.1860 N   0  0  0  0  0  0  0  0  0  0  0  0
  -25.9570  -11.7850   20.3980 N   0  0  0  0  0  0  0  0  0  0  0  0
  -23.9640  -10.4540   20.9610 C   0  0  0  0  0  0  0  0  0  0  0  0
  -24.4160   -9.4860   21.8870 C   0  0  0  0  0  3  0  0  0  0  0  0
  -23.6940   -8.2860   22.0870 C   0  0  0  0  0  3  0  0  0  0  0  0
  -22.5030   -8.0400   21.3630 C   0  0  0  0  0  0  0  0  0  0  0  0
  -22.0660   -8.9960   20.4290 C   0  0  0  0  0  3  0  0  0  0  0  0
  -22.7880  -10.1850   20.2280 C   0  0  0  0  0  3  0  0  0  0  0  0
  -21.7540   -6.8900   21.4690 O   0  0  0  0  0  0  0  0  0  0  0  0
  -21.7260   -6.1490   22.6240 C   0  0  0  0  0  0  0  0  0  0  0  0
  -21.3340   -6.7080   23.8600 C   0  0  0  0  0  3  0  0  0  0  0  0
  -21.2510   -5.8950   25.0080 C   0  0  0  0  0  3  0  0  0  0  0  0
  -21.5550   -4.5230   24.9220 C   0  0  0  0  0  0  0  0  0  0  0  0
  -21.9400   -3.9620   23.6920 C   0  0  0  0  0  3  0  0  0  0  0  0
  -22.0220   -4.7710   22.5460 C   0  0  0  0  0  0  0  0  0  0  0  0
  -22.3720   -4.2210   21.3590 F   0  0  0  0  0  0  0  0  0  0  0  0
  -21.4710   -3.7400   26.0240 F   0  0  0  0  0  0  0  0  0  0  0  0
  -22.7420  -13.5020   21.1670 C   0  0  0  0  0  0  0  0  0  0  0  0
  -22.0700  -12.7940   22.0650 N   0  0  0  0  0  0  0  0  0  0  0  0
  -22.2620  -14.5170   20.6640 O   0  0  0  0  0  0  0  0  0  0  0  0
  -22.4750  -11.9780   22.4990 H   0  0  0  0  0  0  0  0  0  0  0  0
  -21.1350  -13.0730   22.3240 H   0  0  0  0  0  0  0  0  0  0  0  0
  -25.2120  -15.2830   20.2800 N   0  0  0  0  0  0  0  0  0  0  0  0
  -24.3990  -15.8790   20.4030 H   0  0  0  0  0  0  0  0  0  0  0  0
  -26.0210  -15.7810   19.9330 H   0  0  0  0  0  0  0  0  0  0  0  0
  -25.5500  -27.3840   23.5520 C   0  0  0  0  0  3  0  0  0  0  0  0
  -25.6100  -27.5880   22.2110 C   0  0  0  0  0  3  0  0  0  0  0  0
  -25.3210  -30.1870   20.7870 C   0  0  0  0  0  2  0  0  0  0  0  0
  -24.2870  -23.6860   20.2840 C   0  0  0  0  0  2  0  0  0  0  0  0
  -24.5560  -23.3850   21.7170 C   0  0  0  0  0  2  0  0  0  0  0  0
  -26.1020  -23.5210   21.9000 C   0  0  0  0  0  1  0  0  0  0  0  0
  -27.6240  -24.9490   20.4020 O   0  0  0  0  0  1  0  0  0  0  0  0
  -24.6490  -31.6870   23.2130 C   0  0  0  0  0  0  0  0  0  0  0  0
  -27.5330  -26.4570   19.8320 C   0  0  0  0  0  3  0  0  0  0  0  0
  -23.4850  -29.7500   21.8490 C   0  0  0  0  0  3  0  0  0  0  0  0
  -25.3570  -28.1690   19.6060 C   0  0  0  0  0  0  0  0  0  0  0  0
  -26.5820  -29.9690   21.9430 C   0  0  0  0  0  2  0  0  0  0  0  0
  -26.7820  -28.7840   20.3610 C   0  0  0  0  0  2  0  0  0  0  0  0
  -27.7600  -27.7760   20.4670 C   0  0  0  0  0  2  0  0  0  0  0  0
  -26.6730  -26.5770   18.7180 C   0  0  0  0  0  2  0  0  0  0  0  0
  -25.4440  -27.2290   18.7020 C   0  0  0  0  0  2  0  0  0  0  0  0
  -23.6140  -28.5350   20.3430 C   0  0  0  0  0  3  0  0  0  0  0  0
  -24.9320  -30.4470   22.5820 N   0  0  1  0  0  4  0  0  0  0  0  0
  -23.4960  -32.1130   23.4300 O   0  0  0  0  0  0  0  0  0  0  0  0
  -22.4880  -29.3610   22.8130 C   0  0  0  0  0  0  0  0  0  0  0  0
  -21.2280  -29.3000   22.4230 N   0  0  0  0  0  0  0  0  0  0  0  0
  -22.8750  -29.0460   23.9170 O   0  0  0  0  0  0  0  0  0  0  0  0
  -20.9700  -29.5740   21.4840 H   0  0  0  0  0  0  0  0  0  0  0  0
  -17.8430  -28.2690   22.8070 C   0  0  0  0  0  0  0  0  0  0  0  0
  -20.3470  -28.4390   23.1630 C   0  0  0  0  0  3  0  0  0  0  0  0
  -20.4620  -27.0100   22.5930 C   0  0  0  0  0  2  0  0  0  0  0  0
  -19.4090  -26.7310   21.5280 C   0  0  0  0  0  2  0  0  0  0  0  0
  -18.0150  -26.9140   22.1360 C   0  0  0  0  0  2  0  0  0  0  0  0
  -18.9550  -29.0120   23.2540 C   0  0  0  0  0  0  0  0  0  0  0  0
  -18.7750  -30.2860   23.8320 C   0  0  0  0  0  3  0  0  0  0  0  0
  -17.4830  -30.8140   23.9830 C   0  0  0  0  0  3  0  0  0  0  0  0
  -16.3700  -30.0640   23.5650 C   0  0  0  0  0  3  0  0  0  0  0  0
  -16.5500  -28.7970   22.9810 C   0  0  0  0  0  3  0  0  0  0  0  0
  -25.7780  -32.6180   23.7740 C   0  0  0  0  0  3  0  0  0  0  0  0
  -26.3010  -32.0180   25.1310 C   0  0  1  0  0  0  0  0  0  0  0  0
  -25.1640  -31.7300   26.1440 C   0  0  0  0  0  1  0  0  0  0  0  0
  -27.0710  -30.7100   24.9190 C   0  0  0  0  0  1  0  0  0  0  0  0
  -27.3360  -32.9650   25.7740 C   0  0  0  0  0  1  0  0  0  0  0  0
  -25.3200  -34.0250   24.0220 N   0  0  0  0  0  0  0  0  0  0  0  0
  -25.6800  -35.1380   23.3500 C   0  0  0  0  0  0  0  0  0  0  0  0
  -26.4290  -35.1000   22.3720 O   0  0  0  0  0  0  0  0  0  0  0  0
  -24.6440  -34.1340   24.7640 H   0  0  0  0  0  0  0  0  0  0  0  0
  -23.9120  -36.9270   22.9930 C   0  0  0  0  0  1  0  0  0  0  0  0
  -25.1380  -36.5180   23.8280 C   0  0  0  0  0  3  0  0  0  0  0  0
  -27.2180  -37.4750   24.7430 C   0  0  0  0  0  1  0  0  0  0  0  0
  -26.1360  -37.6180   23.7730 N   0  0  0  0  0  0  0  0  0  0  0  0
  -25.6890  -38.5180   23.9310 H   0  0  0  0  0  0  0  0  0  0  0  0
  2  1  1  0
  4  1  1  0
  6 46  1  0
  8 13  1  0
  9 10  1  0
  9  8  1  0
 11 10  1  0
 11 18  1  0
 11 12  1  0
 13  7  1  0
 13 12  1  0
 14  7  1  0
 15 16  2  0
 16 35  1  0
 17 16  1  0
 17 20  1  0
 18 19  1  0
 18 15  1  0
 19 17  2  0
 20 21  1  0
 21 22  2  0
 23 26  1  0
 23 22  1  0
 24 23  2  0
 25 24  1  0
 25 20  2  0
 26 27  1  0
 27 28  1  0
 28 29  2  0
 30 29  1  0
 30 34  1  0
 31 30  2  0
 32 27  2  0
 32 31  1  0
 33 32  1  0
 35 36  1  0
 36 39  1  0
 36 38  1  0
 37 35  2  0
 40 41  1  0
 40 15  1  0
 42 40  1  0
 44 43  3  0
 45 54  1  0
 45 60  1  0
 46 47  1  0
 47 48  1  0
 50 61  2  0
 51 49  1  0
 51 56  1  0
 52 59  1  0
 60 52  1  1
 52 62  1  0
 53 59  2  0
 53 55  1  0
 54 60  1  0
 55 56  1  0
 57 51  1  0
 58 57  1  0
 58 53  1  0
 60 50  1  0
 62 64  2  0
 63 62  1  0
 65 63  1  0
 66 75  2  0
 66 71  1  0
 67 63  1  0
 67 71  1  0
 68 67  1  0
 69 70  1  0
 69 68  1  0
 70 66  1  0
 71 72  2  0
 72 73  1  0
 74 73  2  0
 75 74  1  0
 76 50  1  0
 76 81  1  0
 76 77  1  0
 77 80  1  1
 77 78  1  0
 79 77  1  0
 81 84  1  0
 82 86  1  0
 82 81  1  0
 83 82  2  0
 86 85  1  0
 88 86  1  0
 88 89  1  0
 88 87  1  0
M  ISO  4   2 100   7 100  48 101  49 101
M  END
>  <TORSDO>  (44) 
F 20

>  <SCORE>  (44) 
-15.410

>  <name>  (44) 
43

>  <ligand_id>  (44) 
43

>  <original_smiles>  (44) 
[H]C([H])=C(C([H])([H])[H])C1([H])C([H])([H])C(=C([H])C(=O)N2C([H])([H])C([H])([H])C([H])([H])C([H])(n3nc(-c4c([H])c([H])c(Oc5c([H])c([H])c(F)c([H])c5F)c([H])c4[H])c(C(=O)N([H])[H])c3N([H])[H])C2([H])[H])C([H])([H])C1([H])C([H])([H])C([H])([H])C([H])([H])Oc1c([H])c([H])c2c(c1[H])C([H])([H])N(C(=O)C([H])(N([H])C(=O)C([H])(N([H])C([H])([H])[H])C([H])([H])[H])C(C([H])([H])[H])(C([H])([H])[H])C([H])([H])[H])C([H])(C(=O)N([H])C1([H])c3c([H])c([H])c([H])c([H])c3C([H])([H])C([H])([H])C1([H])[H])C2([H])[H]

>  <smiles>  (44) 
[H]C([H])=C(C([H])([H])[H])C1([H])C([H])([H])C(=C([H])C(=O)N2C([H])([H])C([H])([H])C([H])([H])C([H])(n3nc(-c4c([H])c([H])c(Oc5c([H])c([H])c(F)c([H])c5F)c([H])c4[H])c(C(=O)N([H])[H])c3N([H])[H])C2([H])[H])C([H])([H])C1([H])C([H])([H])C([H])([H])C([H])([H])Oc1c([H])c([H])c2c(c1[H])C([H])([H])N(C(=O)C([H])(N([H])C(=O)C([H])(N([H])C([H])([H])[H])C([H])([H])[H])C(C([H])([H])[H])(C([H])([H])[H])C([H])([H])[H])C([H])(C(=O)N([H])C1([H])c3c([H])c([H])c([H])c([H])c3C([H])([H])C([H])([H])C1([H])[H])C2([H])[H]

$$$$
44:0:0
     RDKit          3D

 94102  0  0  1  0  0  0  0  0999 V2000
  -28.9890  -21.2780   20.4160 N   0  0  0  0  0  4  0  0  0  0  0  0
  -28.6310  -21.0410   19.5070 H   0  0  0  0  0  0  0  0  0  0  0  0
  -28.2000  -21.4450   21.0190 H   0  0  0  0  0  0  0  0  0  0  0  0
  -28.9320  -19.4880   22.1330 C   0  0  0  0  0  1  0  0  0  0  0  0
  -29.7120  -20.0880   20.9470 C   0  0  0  0  0  3  0  0  0  0  0  0
  -31.1230  -18.9890   17.6570 C   0  0  0  0  0  2  0  0  0  0  0  0
  -32.1870  -19.0910   18.7480 C   0  0  0  0  0  2  0  0  0  0  0  0
  -29.8220  -19.3400   18.3810 C   0  0  0  0  0  2  0  0  0  0  0  0
  -31.5210  -18.4810   19.9900 C   0  0  0  0  0  3  0  0  0  0  0  0
  -30.0400  -18.9640   19.8810 C   0  0  0  0  0  3  0  0  0  0  0  0
  -31.0970  -16.0090   19.3990 C   0  0  0  0  0  2  0  0  0  0  0  0
  -31.8530  -16.9720   19.9950 C   0  0  0  0  0  3  0  0  0  0  0  0
  -33.2150  -16.7030   20.6410 C   0  0  0  0  0  1  0  0  0  0  0  0
  -31.7080  -14.7450   18.9720 C   0  0  0  0  0  0  0  0  0  0  0  0
  -31.1440  -12.5100   18.1140 C   0  0  0  0  0  2  0  0  0  0  0  0
  -30.0210  -12.7090   17.0770 C   0  0  0  0  0  2  0  0  0  0  0  0
  -28.6430  -12.6260   17.7680 C   0  0  0  0  0  2  0  0  0  0  0  0
  -28.5590  -13.5130   19.0460 C   0  0  0  0  0  3  0  0  0  0  0  0
  -29.8120  -13.3680   19.9390 C   0  0  0  0  0  2  0  0  0  0  0  0
  -30.9930  -13.5930   19.1020 N   0  0  0  0  0  0  0  0  0  0  0  0
  -32.7350  -14.7820   18.2920 O   0  0  0  0  0  0  0  0  0  0  0  0
  -26.4560  -14.1680   20.3730 C   0  0  0  0  0  0  0  0  0  0  0  0
  -25.4350  -13.4240   20.8940 C   0  0  0  0  0  0  0  0  0  0  0  0
  -25.7460  -12.0600   20.5970 C   0  0  0  0  0  0  0  0  0  0  0  0
  -27.3320  -13.2620   19.7980 N   0  0  0  0  0  0  0  0  0  0  0  0
  -26.9180  -11.9800   19.9780 N   0  0  0  0  0  0  0  0  0  0  0  0
  -24.9630  -10.8360   20.8070 C   0  0  0  0  0  0  0  0  0  0  0  0
  -25.2570   -9.9440   21.8620 C   0  0  0  0  0  3  0  0  0  0  0  0
  -24.4750   -8.7850   22.0590 C   0  0  0  0  0  3  0  0  0  0  0  0
  -23.3840   -8.5120   21.1990 C   0  0  0  0  0  0  0  0  0  0  0  0
  -23.1100   -9.3930   20.1380 C   0  0  0  0  0  3  0  0  0  0  0  0
  -23.8930  -10.5440   19.9390 C   0  0  0  0  0  3  0  0  0  0  0  0
  -22.5870   -7.3970   21.2960 O   0  0  0  0  0  0  0  0  0  0  0  0
  -22.0930   -6.9700   22.5020 C   0  0  0  0  0  0  0  0  0  0  0  0
  -21.2220   -7.7690   23.2780 C   0  0  0  0  0  3  0  0  0  0  0  0
  -20.6800   -7.2630   24.4750 C   0  0  0  0  0  3  0  0  0  0  0  0
  -20.9970   -5.9570   24.8960 C   0  0  0  0  0  0  0  0  0  0  0  0
  -21.8530   -5.1550   24.1210 C   0  0  0  0  0  3  0  0  0  0  0  0
  -22.3960   -5.6600   22.9260 C   0  0  0  0  0  0  0  0  0  0  0  0
  -23.2050   -4.8770   22.1750 F   0  0  0  0  0  0  0  0  0  0  0  0
  -20.4710   -5.4680   26.0440 F   0  0  0  0  0  0  0  0  0  0  0  0
  -24.1920  -13.9520   21.5490 C   0  0  0  0  0  0  0  0  0  0  0  0
  -23.6540  -13.2250   22.5240 N   0  0  0  0  0  0  0  0  0  0  0  0
  -23.7130  -15.0390   21.2290 O   0  0  0  0  0  0  0  0  0  0  0  0
  -24.0550  -12.3390   22.7930 H   0  0  0  0  0  0  0  0  0  0  0  0
  -22.8270  -13.5570   23.0000 H   0  0  0  0  0  0  0  0  0  0  0  0
  -26.7090  -15.5360   20.3200 N   0  0  0  0  0  0  0  0  0  0  0  0
  -26.0410  -16.2130   20.6730 H   0  0  0  0  0  0  0  0  0  0  0  0
  -27.5070  -15.9580   19.8650 H   0  0  0  0  0  0  0  0  0  0  0  0
  -29.7570  -22.5520   20.3150 C   0  0  0  0  0  2  0  0  0  0  0  0
  -28.8300  -23.7740   20.0430 C   0  0  0  0  0  3  0  0  0  0  0  0
  -29.5510  -25.1500   19.9700 C   0  0  0  0  0  3  0  0  0  0  0  0
  -28.6580  -26.4230   20.1090 C   0  0  0  0  0  2  0  0  0  0  0  0
  -28.0410  -26.8960   18.8970 O   0  0  0  0  0  0  0  0  0  0  0  0
  -24.4990  -31.5530   22.9930 C   0  0  0  0  0  0  0  0  0  0  0  0
  -26.9110  -27.6650   19.0940 C   0  0  0  0  0  0  0  0  0  0  0  0
  -23.1570  -30.3410   21.2970 C   0  0  0  0  0  3  0  0  0  0  0  0
  -24.4960  -29.0760   19.5250 C   0  0  0  0  0  0  0  0  0  0  0  0
  -25.6340  -30.8310   20.8930 C   0  0  0  0  0  2  0  0  0  0  0  0
  -25.6930  -29.5550   20.0740 C   0  0  0  0  0  0  0  0  0  0  0  0
  -26.9040  -28.8570   19.8630 C   0  0  0  0  0  3  0  0  0  0  0  0
  -25.7050  -27.2180   18.5220 C   0  0  0  0  0  3  0  0  0  0  0  0
  -24.4990  -27.9100   18.7380 C   0  0  0  0  0  3  0  0  0  0  0  0
  -23.2400  -29.8660   19.8180 C   0  0  0  0  0  2  0  0  0  0  0  0
  -24.4520  -30.9180   21.7850 N   0  0  0  0  0  0  0  0  0  0  0  0
  -23.4780  -31.7010   23.6780 O   0  0  0  0  0  0  0  0  0  0  0  0
  -22.6390  -29.1750   22.1710 C   0  0  0  0  0  0  0  0  0  0  0  0
  -21.3290  -28.8930   22.0830 N   0  0  0  0  0  0  0  0  0  0  0  0
  -23.4120  -28.5310   22.8840 O   0  0  0  0  0  0  0  0  0  0  0  0
  -20.7620  -29.4690   21.4780 H   0  0  0  0  0  0  0  0  0  0  0  0
  -18.1010  -27.3300   22.5490 C   0  0  0  0  0  0  0  0  0  0  0  0
  -20.6300  -27.8140   22.7860 C   0  0  0  0  0  3  0  0  0  0  0  0
  -20.8490  -26.4580   22.0760 C   0  0  0  0  0  2  0  0  0  0  0  0
  -19.7540  -26.1240   21.0590 C   0  0  0  0  0  2  0  0  0  0  0  0
  -18.3860  -26.0730   21.7460 C   0  0  0  0  0  2  0  0  0  0  0  0
  -19.1540  -28.1570   23.0240 C   0  0  0  0  0  0  0  0  0  0  0  0
  -18.8310  -29.3340   23.7330 C   0  0  0  0  0  3  0  0  0  0  0  0
  -17.4900  -29.6840   23.9750 C   0  0  0  0  0  3  0  0  0  0  0  0
  -16.4530  -28.8520   23.5190 C   0  0  0  0  0  3  0  0  0  0  0  0
  -16.7590  -27.6780   22.8110 C   0  0  0  0  0  3  0  0  0  0  0  0
  -25.8300  -32.1420   23.5570 C   0  0  0  0  0  3  0  0  0  0  0  0
  -25.5480  -33.5050   24.0280 N   0  0  0  0  0  0  0  0  0  0  0  0
  -25.8760  -34.6220   23.3630 C   0  0  0  0  0  0  0  0  0  0  0  0
  -26.5200  -34.6110   22.3100 O   0  0  0  0  0  0  0  0  0  0  0  0
  -24.9800  -33.5860   24.8570 H   0  0  0  0  0  0  0  0  0  0  0  0
  -24.1770  -36.4660   23.1930 C   0  0  0  0  0  1  0  0  0  0  0  0
  -25.4110  -35.9630   23.9590 C   0  0  0  0  0  3  0  0  0  0  0  0
  -27.5550  -36.7290   24.8810 C   0  0  0  0  0  1  0  0  0  0  0  0
  -26.4600  -37.0070   23.9540 N   0  0  0  0  0  0  0  0  0  0  0  0
  -26.0640  -37.9120   24.1920 H   0  0  0  0  0  0  0  0  0  0  0  0
  -26.4580  -31.2710   24.7150 C   0  0  1  0  0  0  0  0  0  0  0  0
  -25.4590  -30.9110   25.8380 C   0  0  0  0  0  1  0  0  0  0  0  0
  -27.0210  -29.9470   24.1480 C   0  0  0  0  0  1  0  0  0  0  0  0
  -27.6470  -32.0240   25.3570 C   0  0  0  0  0  1  0  0  0  0  0  0
  1  5  1  0
  1  3  1  0
  2  1  1  0
  5  4  1  0
  6  8  1  0
  6  7  1  0
  7  9  1  0
  8 10  1  0
  9 12  1  0
 10  9  1  0
 10  5  1  0
 11 12  1  0
 12 13  1  0
 14 20  1  0
 14 11  1  0
 15 20  1  0
 16 17  1  0
 16 15  1  0
 18 17  1  0
 18 25  1  0
 18 19  1  0
 20 19  1  0
 21 14  2  0
 22 23  2  0
 23 42  1  0
 24 27  1  0
 24 23  1  0
 25 26  1  0
 25 22  1  0
 26 24  2  0
 27 28  1  0
 28 29  2  0
 30 33  1  0
 30 29  1  0
 31 30  2  0
 32 31  1  0
 32 27  2  0
 33 34  1  0
 34 39  2  0
 34 35  1  0
 35 36  2  0
 36 37  1  0
 37 41  1  0
 38 37  2  0
 39 38  1  0
 40 39  1  0
 42 43  1  0
 43 45  1  0
 43 46  1  0
 44 42  2  0
 47 22  1  0
 47 48  1  0
 49 47  1  0
 50  1  1  0
 51 50  1  0
 52 51  2  0
 52 53  1  0
 54 56  1  0
 54 53  1  0
 55 66  2  0
 56 61  1  0
 57 65  1  0
 57 67  1  0
 58 64  1  0
 58 60  1  0
 59 65  1  0
 60 59  1  0
 61 60  2  0
 62 63  1  0
 62 56  2  0
 63 58  2  0
 64 57  1  0
 65 55  1  0
 67 69  2  0
 68 67  1  0
 70 68  1  0
 71 80  2  0
 71 76  1  0
 72 68  1  0
 72 76  1  0
 73 72  1  0
 74 75  1  0
 74 73  1  0
 75 71  1  0
 76 77  2  0
 77 78  1  0
 79 78  2  0
 80 79  1  0
 81 55  1  0
 81 82  1  0
 81 91  1  0
 82 85  1  0
 83 87  1  0
 83 82  1  0
 84 83  2  0
 87 86  1  0
 89 87  1  0
 89 90  1  0
 89 88  1  0
 91 94  1  1
 91 92  1  0
 93 91  1  0
M  ISO  4  11 100  14 100  53 101  54 101
M  END
>  <TORSDO>  (45) 
F 23

>  <SCORE>  (45) 
-5.859

>  <name>  (45) 
44

>  <ligand_id>  (45) 
44

>  <original_smiles>  (45) 
[H]C(C(=O)N1C([H])([H])C([H])([H])C([H])([H])C([H])(n2nc(-c3c([H])c([H])c(Oc4c([H])c([H])c(F)c([H])c4F)c([H])c3[H])c(C(=O)N([H])[H])c2N([H])[H])C1([H])[H])=C(C([H])([H])[H])C1([H])C([H])([H])C([H])([H])C([H])([H])C1([H])C([H])(C([H])([H])[H])[N+]([H])([H])C([H])([H])C([H])([H])C([H])([H])C([H])([H])Oc1c([H])c([H])c2c(c1[H])C([H])([H])N(C(=O)C([H])(N([H])C(=O)C([H])(N([H])C([H])([H])[H])C([H])([H])[H])C(C([H])([H])[H])(C([H])([H])[H])C([H])([H])[H])C([H])(C(=O)N([H])C1([H])c3c([H])c([H])c([H])c([H])c3C([H])([H])C([H])([H])C1([H])[H])C2([H])[H]

>  <smiles>  (45) 
[H]C(C(=O)N1C([H])([H])C([H])([H])C([H])([H])C([H])(n2nc(-c3c([H])c([H])c(Oc4c([H])c([H])c(F)c([H])c4F)c([H])c3[H])c(C(=O)N([H])[H])c2N([H])[H])C1([H])[H])=C(C([H])([H])[H])C1([H])C([H])([H])C([H])([H])C([H])([H])C1([H])C([H])(C([H])([H])[H])[N+]([H])([H])C([H])([H])C([H])([H])C([H])([H])C([H])([H])Oc1c([H])c([H])c2c(c1[H])C([H])([H])N(C(=O)C([H])(N([H])C(=O)C([H])(N([H])C([H])([H])[H])C([H])([H])[H])C(C([H])([H])[H])(C([H])([H])[H])C([H])([H])[H])C([H])(C(=O)N([H])C1([H])c3c([H])c([H])c([H])c([H])c3C([H])([H])C([H])([H])C1([H])[H])C2([H])[H]

$$$$
45:0:0
     RDKit          3D

 95104  0  0  1  0  0  0  0  0999 V2000
  -32.0510  -22.6840   20.9200 C   0  0  0  0  0  2  0  0  0  0  0  0
  -29.0420  -21.1270   19.2030 C   0  0  0  0  0  2  0  0  0  0  0  0
  -30.9110  -22.8050   18.4990 C   0  0  0  0  0  2  0  0  0  0  0  0
  -30.9190  -23.1970   21.8540 C   0  0  0  0  0  2  0  0  0  0  0  0
  -29.2200  -21.4080   21.5850 C   0  0  0  0  0  2  0  0  0  0  0  0
  -29.4520  -22.6690   19.0380 C   0  0  0  0  0  3  0  0  0  0  0  0
  -29.6500  -20.3890   20.4430 C   0  0  0  0  0  3  0  0  0  0  0  0
  -29.1960  -23.6730   20.2300 C   0  0  0  0  0  3  0  0  0  0  0  0
  -32.1300  -23.1670   19.4360 C   0  0  2  0  0  0  0  0  0  0  0  0
  -33.3630  -22.4710   18.8190 C   0  0  0  0  0  1  0  0  0  0  0  0
  -32.4680  -24.6790   19.3870 C   0  0  0  0  0  1  0  0  0  0  0  0
  -29.5410  -22.8820   21.4530 N   0  0  0  0  0  0  0  0  0  0  0  0
  -29.2370  -18.9020   20.6870 N   0  0  0  0  0  4  0  0  0  0  0  0
  -28.3310  -18.7600   20.2700 H   0  0  0  0  0  0  0  0  0  0  0  0
  -29.0910  -18.8420   21.6820 H   0  0  0  0  0  0  0  0  0  0  0  0
  -30.1400  -17.6760   20.3420 C   0  0  0  0  0  3  0  0  0  0  0  0
  -29.7160  -16.1600   20.8430 C   0  0  0  0  0  3  0  0  0  0  0  0
  -30.5030  -14.8010   20.4120 C   0  0  0  0  0  0  0  0  0  0  0  0
  -30.3330  -12.5090   19.3820 C   0  0  0  0  0  2  0  0  0  0  0  0
  -29.3950  -12.5760   18.1540 C   0  0  0  0  0  2  0  0  0  0  0  0
  -27.9240  -12.3920   18.5760 C   0  0  0  0  0  2  0  0  0  0  0  0
  -27.5440  -13.2740   19.7940 C   0  0  0  0  0  3  0  0  0  0  0  0
  -28.6010  -13.1900   20.9170 C   0  0  0  0  0  2  0  0  0  0  0  0
  -29.9010  -13.5570   20.3400 N   0  0  0  0  0  0  0  0  0  0  0  0
  -31.6750  -14.9010   20.0330 O   0  0  0  0  0  0  0  0  0  0  0  0
  -25.1520  -13.8630   20.5120 C   0  0  0  0  0  0  0  0  0  0  0  0
  -24.0840  -13.0900   20.8780 C   0  0  0  0  0  0  0  0  0  0  0  0
  -24.5480  -11.7390   20.8570 C   0  0  0  0  0  0  0  0  0  0  0  0
  -26.1970  -12.9840   20.2820 N   0  0  0  0  0  0  0  0  0  0  0  0
  -25.8400  -11.7010   20.5530 N   0  0  0  0  0  0  0  0  0  0  0  0
  -23.8200  -10.4780   21.0470 C   0  0  0  0  0  0  0  0  0  0  0  0
  -24.2510   -9.5090   21.9800 C   0  0  0  0  0  3  0  0  0  0  0  0
  -23.5210   -8.3140   22.1590 C   0  0  0  0  0  3  0  0  0  0  0  0
  -22.3480   -8.0780   21.4040 C   0  0  0  0  0  0  0  0  0  0  0  0
  -21.9340   -9.0360   20.4620 C   0  0  0  0  0  3  0  0  0  0  0  0
  -22.6640  -10.2230   20.2810 C   0  0  0  0  0  3  0  0  0  0  0  0
  -21.5920   -6.9340   21.4910 O   0  0  0  0  0  0  0  0  0  0  0  0
  -21.5500   -6.1850   22.6400 C   0  0  0  0  0  0  0  0  0  0  0  0
  -21.1420   -6.7360   23.8740 C   0  0  0  0  0  3  0  0  0  0  0  0
  -21.0460   -5.9130   25.0150 C   0  0  0  0  0  3  0  0  0  0  0  0
  -21.3510   -4.5420   24.9220 C   0  0  0  0  0  0  0  0  0  0  0  0
  -21.7540   -3.9910   23.6930 C   0  0  0  0  0  3  0  0  0  0  0  0
  -21.8500   -4.8110   22.5550 C   0  0  0  0  0  0  0  0  0  0  0  0
  -22.2190   -4.2700   21.3680 F   0  0  0  0  0  0  0  0  0  0  0  0
  -21.2520   -3.7510   26.0150 F   0  0  0  0  0  0  0  0  0  0  0  0
  -22.6860  -13.5710   21.1380 C   0  0  0  0  0  0  0  0  0  0  0  0
  -21.9530  -12.8820   22.0050 N   0  0  0  0  0  0  0  0  0  0  0  0
  -22.2530  -14.5920   20.6090 O   0  0  0  0  0  0  0  0  0  0  0  0
  -22.3150  -12.0570   22.4580 H   0  0  0  0  0  0  0  0  0  0  0  0
  -21.0140  -13.1900   22.2210 H   0  0  0  0  0  0  0  0  0  0  0  0
  -25.3170  -15.2340   20.3320 N   0  0  0  0  0  0  0  0  0  0  0  0
  -24.5460  -15.8840   20.4300 H   0  0  0  0  0  0  0  0  0  0  0  0
  -26.1610  -15.6700   19.9840 H   0  0  0  0  0  0  0  0  0  0  0  0
  -27.9840  -24.7830   20.2270 C   0  0  0  0  0  2  0  0  0  0  0  0
  -28.2230  -26.2900   20.1990 O   0  0  0  0  0  0  0  0  0  0  0  0
  -24.5580  -31.8480   23.2120 C   0  0  0  0  0  0  0  0  0  0  0  0
  -27.1250  -27.2010   20.1600 C   0  0  0  0  0  0  0  0  0  0  0  0
  -23.3430  -30.4490   21.5850 C   0  0  0  0  0  3  0  0  0  0  0  0
  -24.7790  -28.8850   20.1530 C   0  0  0  0  0  0  0  0  0  0  0  0
  -25.8890  -30.7380   21.3910 C   0  0  0  0  0  2  0  0  0  0  0  0
  -25.9590  -29.3520   20.7440 C   0  0  0  0  0  0  0  0  0  0  0  0
  -27.1350  -28.5260   20.7290 C   0  0  0  0  0  3  0  0  0  0  0  0
  -25.9150  -26.8120   19.5410 C   0  0  0  0  0  3  0  0  0  0  0  0
  -24.7640  -27.6250   19.5390 C   0  0  0  0  0  3  0  0  0  0  0  0
  -23.5500  -29.7750   20.2050 C   0  0  0  0  0  2  0  0  0  0  0  0
  -24.6160  -31.0310   22.1190 N   0  0  0  0  0  0  0  0  0  0  0  0
  -23.4780  -32.1330   23.7510 O   0  0  0  0  0  0  0  0  0  0  0  0
  -22.6760  -29.4390   22.5520 C   0  0  0  0  0  0  0  0  0  0  0  0
  -21.3470  -29.2710   22.4360 N   0  0  0  0  0  0  0  0  0  0  0  0
  -23.3550  -28.8120   23.3700 O   0  0  0  0  0  0  0  0  0  0  0  0
  -20.8580  -29.8270   21.7490 H   0  0  0  0  0  0  0  0  0  0  0  0
  -17.9670  -28.0840   22.9590 C   0  0  0  0  0  0  0  0  0  0  0  0
  -20.5280  -28.3390   23.2150 C   0  0  0  0  0  3  0  0  0  0  0  0
  -20.6250  -26.9060   22.6440 C   0  0  0  0  0  2  0  0  0  0  0  0
  -19.5160  -26.5820   21.6370 C   0  0  0  0  0  2  0  0  0  0  0  0
  -18.1380  -26.7320   22.2870 C   0  0  0  0  0  2  0  0  0  0  0  0
  -19.0900  -28.8450   23.3800 C   0  0  0  0  0  0  0  0  0  0  0  0
  -18.8750  -30.1100   23.9710 C   0  0  0  0  0  3  0  0  0  0  0  0
  -17.5710  -30.6130   24.1430 C   0  0  0  0  0  3  0  0  0  0  0  0
  -16.4640  -29.8480   23.7380 C   0  0  0  0  0  3  0  0  0  0  0  0
  -16.6630  -28.5850   23.1520 C   0  0  0  0  0  3  0  0  0  0  0  0
  -25.8430  -32.4810   23.8270 C   0  0  0  0  0  3  0  0  0  0  0  0
  -26.3760  -31.7020   25.0930 C   0  0  1  0  0  0  0  0  0  0  0  0
  -25.2940  -31.4550   26.1700 C   0  0  0  0  0  1  0  0  0  0  0  0
  -26.9570  -30.3280   24.6860 C   0  0  0  0  0  1  0  0  0  0  0  0
  -27.5320  -32.4920   25.7480 C   0  0  0  0  0  1  0  0  0  0  0  0
  -25.5330  -33.8750   24.1760 N   0  0  0  0  0  0  0  0  0  0  0  0
  -25.8390  -34.9390   23.4220 C   0  0  0  0  0  0  0  0  0  0  0  0
  -26.4850  -34.8510   22.3730 O   0  0  0  0  0  0  0  0  0  0  0  0
  -24.9590  -34.0180   24.9950 H   0  0  0  0  0  0  0  0  0  0  0  0
  -24.0890  -36.7230   23.1340 C   0  0  0  0  0  1  0  0  0  0  0  0
  -25.3570  -36.3200   23.9050 C   0  0  0  0  0  3  0  0  0  0  0  0
  -27.5100  -37.2130   24.6810 C   0  0  0  0  0  1  0  0  0  0  0  0
  -26.3780  -37.3820   23.7720 N   0  0  0  0  0  0  0  0  0  0  0  0
  -25.9700  -38.2970   23.9410 H   0  0  0  0  0  0  0  0  0  0  0  0
  1  4  1  0
  2  7  1  0
  3  9  1  0
  6  3  1  0
  6  2  1  0
  6  8  1  0
  7 13  1  0
  7  5  1  0
  8 54  1  0
  8 12  1  0
  9  1  1  0
  9 10  1  6
 11  9  1  0
 12  5  1  0
 12  4  1  0
 13 15  1  0
 14 13  1  0
 16 13  1  0
 16 17  2  0
 18 17  1  0
 19 24  1  0
 20 21  1  0
 20 19  1  0
 22 21  1  0
 22 29  1  0
 22 23  1  0
 24 18  1  0
 24 23  1  0
 25 18  2  0
 26 27  2  0
 27 46  1  0
 28 27  1  0
 28 31  1  0
 29 26  1  0
 29 30  1  0
 30 28  2  0
 31 32  1  0
 32 33  2  0
 34 37  1  0
 34 33  1  0
 35 34  2  0
 36 35  1  0
 36 31  2  0
 37 38  1  0
 38 39  1  0
 39 40  2  0
 41 40  1  0
 41 45  1  0
 42 41  2  0
 43 38  2  0
 43 42  1  0
 44 43  1  0
 46 47  1  0
 47 50  1  0
 47 49  1  0
 48 46  2  0
 51 52  1  0
 51 26  1  0
 53 51  1  0
 55 54  1  0
 56 67  2  0
 57 55  1  0
 57 62  1  0
 58 66  1  0
 58 68  1  0
 59 65  1  0
 59 61  1  0
 60 66  1  0
 61 60  1  0
 62 61  2  0
 63 57  2  0
 64 63  1  0
 64 59  2  0
 65 58  1  0
 66 56  1  0
 68 70  2  0
 69 68  1  0
 71 69  1  0
 72 81  2  0
 72 77  1  0
 73 69  1  0
 73 77  1  0
 74 73  1  0
 75 76  1  0
 75 74  1  0
 76 72  1  0
 77 78  2  0
 78 79  1  0
 80 79  2  0
 81 80  1  0
 82 56  1  0
 82 87  1  0
 82 83  1  0
 83 86  1  1
 83 84  1  0
 85 83  1  0
 87 90  1  0
 88 92  1  0
 88 87  1  0
 89 88  2  0
 92 91  1  0
 94 92  1  0
 94 95  1  0
 94 93  1  0
M  ISO  4  17 100  18 100  54 101  55 101
M  END
>  <TORSDO>  (46) 
F 20

>  <SCORE>  (46) 
-13.681

>  <name>  (46) 
45

>  <ligand_id>  (46) 
45

>  <original_smiles>  (46) 
[H]c1c([H])c([H])c2c(c1[H])C([H])([H])C([H])([H])C([H])([H])C2([H])N([H])C(=O)C1([H])N(C(=O)C([H])(N([H])C(=O)C([H])(N([H])C([H])([H])[H])C([H])([H])[H])C(C([H])([H])[H])(C([H])([H])[H])C([H])([H])[H])C([H])([H])c2c([H])c(OC([H])([H])C3([H])N4C([H])([H])C([H])([H])C(C([H])([H])[H])(C([H])([H])[H])C([H])([H])C3([H])C([H])([H])C([H])([N+]([H])([H])C([H])([H])C([H])([H])C(=O)N3C([H])([H])C([H])([H])C([H])([H])C([H])(n5nc(-c6c([H])c([H])c(Oc7c([H])c([H])c(F)c([H])c7F)c([H])c6[H])c(C(=O)N([H])[H])c5N([H])[H])C3([H])[H])C4([H])[H])c([H])c([H])c2C1([H])[H]

>  <smiles>  (46) 
[H]c1c([H])c([H])c2c(c1[H])C([H])([H])C([H])([H])C([H])([H])C2([H])N([H])C(=O)C1([H])N(C(=O)C([H])(N([H])C(=O)C([H])(N([H])C([H])([H])[H])C([H])([H])[H])C(C([H])([H])[H])(C([H])([H])[H])C([H])([H])[H])C([H])([H])c2c([H])c(OC([H])([H])C3([H])N4C([H])([H])C([H])([H])C(C([H])([H])[H])(C([H])([H])[H])C([H])([H])C3([H])C([H])([H])C([H])([N+]([H])([H])C([H])([H])C([H])([H])C(=O)N3C([H])([H])C([H])([H])C([H])([H])C([H])(n5nc(-c6c([H])c([H])c(Oc7c([H])c([H])c(F)c([H])c7F)c([H])c6[H])c(C(=O)N([H])[H])c5N([H])[H])C3([H])[H])C4([H])[H])c([H])c([H])c2C1([H])[H]

$$$$
46:0:0
     RDKit          3D

 97101  0  0  1  0  0  0  0  0999 V2000
  -22.0930  -11.7300   20.5200 C   0  0  0  0  0  2  0  0  0  0  0  0
  -22.4400  -12.3940   21.8440 C   0  0  0  0  0  2  0  0  0  0  0  0
  -25.7670  -11.1850   20.4560 C   0  0  0  0  0  1  0  0  0  0  0  0
  -23.1970  -12.3800   19.5530 C   0  0  0  0  0  2  0  0  0  0  0  0
  -23.6810  -13.2660   21.5800 C   0  0  0  0  0  2  0  0  0  0  0  0
  -24.4210  -11.2680   20.7940 C   0  0  0  0  0  2  0  0  0  0  0  0
  -27.4370  -14.8410   19.9030 C   0  0  0  0  0  1  0  0  0  0  0  0
  -27.0880  -12.8820   19.4540 C   0  0  0  0  0  2  0  0  0  0  0  0
  -24.4180  -12.8310   20.4020 C   0  0  0  0  0  3  0  0  0  0  0  0
  -25.6480  -14.2030   19.6800 C   0  0  1  0  0  0  0  0  0  0  0  0
  -25.0970  -15.4430   20.1680 C   0  0  0  0  0  1  0  0  0  0  0  0
  -25.3390  -14.2250   18.1330 C   0  0  0  0  0  1  0  0  0  0  0  0
  -29.8320  -12.6740   18.0700 C   0  0  0  0  0  0  0  0  0  0  0  0
  -28.5820  -12.9120   18.9230 N   0  0  0  0  0  0  0  0  0  0  0  0
  -29.9570  -11.7680   17.3190 O   0  0  0  0  0  0  0  0  0  0  0  0
  -29.0430  -13.7730   19.1920 H   0  0  0  0  0  0  0  0  0  0  0  0
  -31.3150  -13.4950   18.0920 C   0  0  0  0  0  2  0  0  0  0  0  0
  -32.8390  -12.8590   18.3860 C   0  0  0  0  0  2  0  0  0  0  0  0
  -33.6070  -12.7950   19.8190 C   0  0  0  0  0  0  0  0  0  0  0  0
  -33.8120  -10.4380   20.3610 C   0  0  0  0  0  2  0  0  0  0  0  0
  -32.8930   -9.7530   19.3370 C   0  0  0  0  0  2  0  0  0  0  0  0
  -31.4990   -9.8890   19.7290 C   0  0  0  0  0  2  0  0  0  0  0  0
  -31.2540  -11.2490   20.5000 C   0  0  0  0  0  3  0  0  0  0  0  0
  -32.1890  -11.7580   21.5150 C   0  0  0  0  0  2  0  0  0  0  0  0
  -33.3320  -11.7830   20.6740 N   0  0  0  0  0  0  0  0  0  0  0  0
  -34.7540  -13.2730   19.8660 O   0  0  0  0  0  0  0  0  0  0  0  0
  -29.5730  -12.2440   21.7220 C   0  0  0  0  0  3  0  0  0  0  0  0
  -28.3010  -11.8000   21.9870 C   0  0  0  0  0  0  0  0  0  0  0  0
  -28.2340  -10.3300   21.2430 C   0  0  0  0  0  0  0  0  0  0  0  0
  -30.0980  -11.2370   21.0420 N   0  0  0  0  0  0  0  0  0  0  0  0
  -29.4000  -10.1080   20.9150 N   0  0  0  0  0  2  0  0  0  0  0  0
  -27.1410   -9.1830   20.8660 C   0  0  0  0  0  0  0  0  0  0  0  0
  -26.7480   -8.5650   22.0240 C   0  0  0  0  0  3  0  0  0  0  0  0
  -25.5940   -7.9260   22.4030 C   0  0  0  0  0  3  0  0  0  0  0  0
  -24.5310   -7.6080   21.5340 C   0  0  0  0  0  0  0  0  0  0  0  0
  -24.9240   -7.9400   20.2430 C   0  0  0  0  0  3  0  0  0  0  0  0
  -26.1210   -8.6310   19.8240 C   0  0  0  0  0  3  0  0  0  0  0  0
  -23.4110   -6.8980   21.8260 O   0  0  0  0  0  0  0  0  0  0  0  0
  -22.6630   -6.7850   23.0400 C   0  0  0  0  0  0  0  0  0  0  0  0
  -21.8710   -7.8240   23.6000 C   0  0  0  0  0  3  0  0  0  0  0  0
  -21.0030   -7.6660   24.7210 C   0  0  0  0  0  3  0  0  0  0  0  0
  -20.9490   -6.4270   25.3720 C   0  0  0  0  0  0  0  0  0  0  0  0
  -21.7320   -5.3570   24.9220 C   0  0  0  0  0  3  0  0  0  0  0  0
  -22.5670   -5.5300   23.7440 C   0  0  0  0  0  0  0  0  0  0  0  0
  -23.2470   -4.4860   23.3230 F   0  0  0  0  0  0  0  0  0  0  0  0
  -20.1540   -6.2470   26.4490 F   0  0  0  0  0  0  0  0  0  0  0  0
  -27.4920  -13.0910   22.8290 C   0  0  0  0  0  0  0  0  0  0  0  0
  -26.3110  -13.0560   23.4470 N   0  0  0  0  0  0  0  0  0  0  0  0
  -27.3930  -14.1960   22.3520 O   0  0  0  0  0  0  0  0  0  0  0  0
  -25.6180  -13.2230   22.8290 H   0  0  0  0  0  0  0  0  0  0  0  0
  -25.6300  -13.6570   23.5880 H   0  0  0  0  0  0  0  0  0  0  0  0
  -29.9600  -13.6160   21.9680 N   0  0  0  0  0  0  0  0  0  0  0  0
  -29.3320  -14.2840   22.5820 H   0  0  0  0  0  0  0  0  0  0  0  0
  -30.9170  -13.9050   22.0170 H   0  0  0  0  0  0  0  0  0  0  0  0
  -28.8900  -16.9250   19.9140 C   0  0  0  0  0 15  0  0  0  0  0  0
  -29.7780  -19.3150   20.2940 C   0  0  0  0  0 15  0  0  0  0  0  0
  -31.0420  -21.1970   20.2470 O   0  0  0  0  0  1  0  0  0  0  0  0
  -29.2960  -29.3020   22.3160 C   0  0  0  0  0  0  0  0  0  0  0  0
  -31.1370  -23.0070   20.2550 C   0  0  0  0  0  0  0  0  0  0  0  0
  -28.8080  -28.0510   20.2890 C   0  0  0  0  0  3  0  0  0  0  0  0
  -30.3390  -26.0400   19.5500 C   0  0  0  0  0  0  0  0  0  0  0  0
  -30.9900  -27.3740   21.4960 C   0  0  0  0  0  2  0  0  0  0  0  0
  -30.9790  -25.9130   20.7740 C   0  0  0  0  0  0  0  0  0  0  0  0
  -31.4000  -24.4120   21.0980 C   0  0  0  0  0  3  0  0  0  0  0  0
  -30.8890  -23.6150   19.0040 C   0  0  0  0  0  3  0  0  0  0  0  0
  -30.4310  -24.9440   18.6830 C   0  0  0  0  0  3  0  0  0  0  0  0
  -29.5670  -27.3140   19.1440 C   0  0  0  0  0  2  0  0  0  0  0  0
  -29.7400  -28.3100   21.4340 N   0  0  0  0  0  0  0  0  0  0  0  0
  -28.1610  -29.8320   22.2180 O   0  0  0  0  0  0  0  0  0  0  0  0
  -27.5530  -27.2500   20.7530 C   0  0  0  0  0  0  0  0  0  0  0  0
  -26.6590  -26.8620   19.8310 N   0  0  0  0  0  0  0  0  0  0  0  0
  -27.4200  -27.0020   21.9520 O   0  0  0  0  0  0  0  0  0  0  0  0
  -26.8130  -27.1280   18.8730 H   0  0  0  0  0  0  0  0  0  0  0  0
  -23.8280  -25.1380   18.3330 C   0  0  0  0  0  0  0  0  0  0  0  0
  -25.4880  -26.0300   20.1130 C   0  0  0  0  0  3  0  0  0  0  0  0
  -25.8980  -24.5530   20.3120 C   0  0  0  0  0  2  0  0  0  0  0  0
  -25.8150  -23.7260   19.0250 C   0  0  0  0  0  2  0  0  0  0  0  0
  -24.3850  -23.7290   18.4750 C   0  0  0  0  0  2  0  0  0  0  0  0
  -24.3590  -26.2220   19.0900 C   0  0  0  0  0  0  0  0  0  0  0  0
  -23.8180  -27.5130   18.9030 C   0  0  0  0  0  3  0  0  0  0  0  0
  -22.7780  -27.7320   17.9810 C   0  0  0  0  0  3  0  0  0  0  0  0
  -22.2530  -26.6580   17.2430 C   0  0  0  0  0  3  0  0  0  0  0  0
  -22.7750  -25.3640   17.4180 C   0  0  0  0  0  3  0  0  0  0  0  0
  -30.1590  -29.8500   23.4970 C   0  0  0  0  0  3  0  0  0  0  0  0
  -29.6430  -31.1870   23.8910 N   0  0  0  0  0  0  0  0  0  0  0  0
  -30.2740  -32.3620   23.7310 C   0  0  0  0  0  0  0  0  0  0  0  0
  -31.4000  -32.4440   23.2360 O   0  0  0  0  0  0  0  0  0  0  0  0
  -28.6940  -31.2130   24.2410 H   0  0  0  0  0  0  0  0  0  0  0  0
  -29.0600  -34.4540   22.9740 C   0  0  0  0  0  1  0  0  0  0  0  0
  -29.5570  -33.6620   24.1970 C   0  0  0  0  0  3  0  0  0  0  0  0
  -30.5210  -34.0920   26.4180 C   0  0  0  0  0  1  0  0  0  0  0  0
  -30.4040  -34.5450   25.0340 N   0  0  0  0  0  0  0  0  0  0  0  0
  -30.0360  -35.4910   25.0390 H   0  0  0  0  0  0  0  0  0  0  0  0
  -30.1200  -28.9120   24.7730 C   0  0  1  0  0  0  0  0  0  0  0  0
  -28.7100  -28.3450   25.0860 C   0  0  0  0  0  1  0  0  0  0  0  0
  -31.0700  -27.7080   24.6130 C   0  0  0  0  0  1  0  0  0  0  0  0
  -30.6190  -29.6950   26.0140 C   0  0  0  0  0  1  0  0  0  0  0  0
  1  2  1  0
  3  6  1  0
  4  9  1  0
  4  1  1  0
  5  2  1  0
  8 10  1  0
  9  6  1  0
  9  5  1  0
 10  7  1  6
 10 11  1  0
 12 10  1  0
 13 17  1  0
 13 14  1  0
 14 16  1  0
 14  8  1  0
 15 13  2  0
 17 18  1  0
 18 19  1  0
 19 26  2  0
 19 25  1  0
 20 25  1  0
 21 22  1  0
 21 20  1  0
 23 22  1  0
 23 30  1  0
 23 24  1  0
 25 24  1  0
 27 52  1  0
 27 28  1  0
 28 47  1  0
 29 28  2  0
 30 31  1  0
 30 27  1  0
 31 29  1  0
 32 29  1  0
 32 33  1  0
 33 34  2  0
 35 38  1  0
 35 34  1  0
 36 35  2  0
 37 36  1  0
 37 32  2  0
 38 39  1  0
 39 40  2  0
 39 44  1  0
 40 41  1  0
 41 42  2  0
 42 46  1  0
 43 42  1  0
 44 43  2  0
 45 44  1  0
 47 48  1  0
 48 51  1  0
 49 47  2  0
 50 48  1  0
 52 54  1  0
 52 53  1  0
 57 59  1  0
 59 64  1  0
 60 70  1  0
 60 68  1  0
 61 63  1  0
 63 64  2  0
 63 62  1  0
 65 59  2  0
 66 65  1  0
 66 61  2  0
 67 61  1  0
 67 60  1  0
 68 62  1  0
 68 58  1  0
 69 58  2  0
 70 72  2  0
 71 70  1  0
 73 71  1  0
 74 78  1  0
 74 79  1  0
 75 71  1  0
 75 76  1  0
 77 76  1  0
 78 77  1  0
 79 75  1  0
 80 79  2  0
 81 80  1  0
 82 83  1  0
 82 81  2  0
 83 74  2  0
 84 58  1  0
 84 85  1  0
 84 94  1  0
 85 88  1  0
 86 85  1  0
 86 90  1  0
 87 86  2  0
 90 89  1  0
 90 92  1  0
 92 93  1  0
 92 91  1  0
 94 95  1  1
 94 97  1  0
 96 94  1  0
M  ISO  4  18 100  19 100  56 101  57 101
M  END
>  <TORSDO>  (47) 
F 21

>  <SCORE>  (47) 
5.802

>  <name>  (47) 
46

>  <ligand_id>  (47) 
46

>  <original_smiles>  (47) 
[H]c1c([H])c([H])c2c(c1[H])C([H])([H])C([H])([H])C([H])([H])C2([H])N([H])C(=O)C1([H])N(C(=O)C([H])(N([H])C(=O)C([H])(N([H])C([H])([H])[H])C([H])([H])[H])C(C([H])([H])[H])(C([H])([H])[H])C([H])([H])[H])C([H])([H])c2c([H])c(OC([H])([H])C([H])([H])C3([H])C([H])(N([H])C(=O)C([H])([H])C([H])([H])C(=O)N4C([H])([H])C([H])([H])C([H])([H])C([H])(n5nc(-c6c([H])c([H])c(Oc7c([H])c([H])c(F)c([H])c7F)c([H])c6[H])c(C(=O)N([H])[H])c5N([H])[H])C4([H])[H])C([H])([H])C([H])([H])C4(C([H])([H])C([H])([H])C([H])([H])C4([H])[H])C3(C([H])([H])[H])C([H])([H])[H])c([H])c([H])c2C1([H])[H]

>  <smiles>  (47) 
[H]c1c([H])c([H])c2c(c1[H])C([H])([H])C([H])([H])C([H])([H])C2([H])N([H])C(=O)C1([H])N(C(=O)C([H])(N([H])C(=O)C([H])(N([H])C([H])([H])[H])C([H])([H])[H])C(C([H])([H])[H])(C([H])([H])[H])C([H])([H])[H])C([H])([H])c2c([H])c(OC([H])([H])C([H])([H])C3([H])C([H])(N([H])C(=O)C([H])([H])C([H])([H])C(=O)N4C([H])([H])C([H])([H])C([H])([H])C([H])(n5nc(-c6c([H])c([H])c(Oc7c([H])c([H])c(F)c([H])c7F)c([H])c6[H])c(C(=O)N([H])[H])c5N([H])[H])C4([H])[H])C([H])([H])C([H])([H])C4(C([H])([H])C([H])([H])C([H])([H])C4([H])[H])C3(C([H])([H])[H])C([H])([H])[H])c([H])c([H])c2C1([H])[H]

$$$$
47:0:0
     RDKit          3D

 93102  0  0  1  0  0  0  0  0999 V2000
  -30.0940  -20.9760   20.2810 N   0  0  0  0  0  4  0  0  0  0  0  0
  -29.5220  -20.7870   19.4740 H   0  0  0  0  0  0  0  0  0  0  0  0
  -30.9870  -21.2800   19.9270 H   0  0  0  0  0  0  0  0  0  0  0  0
  -30.3420  -19.5850   20.9750 C   0  0  0  0  0  2  0  0  0  0  0  0
  -28.5140  -16.7730   21.1450 C   0  0  0  0  0  2  0  0  0  0  0  0
  -29.5320  -18.4320   18.7940 C   0  0  0  0  0  2  0  0  0  0  0  0
  -29.9760  -16.6130   20.6150 C   0  0  0  0  0  3  0  0  0  0  0  0
  -27.7480  -17.9030   20.4130 C   0  0  0  0  0  3  0  0  0  0  0  0
  -28.1640  -17.7700   18.9220 C   0  0  0  0  0  3  0  0  0  0  0  0
  -30.4190  -18.1680   20.0720 C   0  0  0  0  0  3  0  0  0  0  0  0
  -26.7770  -18.1610   19.2720 C   0  0  2  0  0  0  0  0  0  0  0  0
  -26.3200  -19.5730   18.9470 C   0  0  0  0  0  1  0  0  0  0  0  0
  -25.6230  -17.2110   19.0110 C   0  0  0  0  0  1  0  0  0  0  0  0
  -30.7480  -15.1240   20.6250 C   0  0  0  0  0  0  0  0  0  0  0  0
  -30.6270  -12.8080   19.5910 C   0  0  0  0  0  2  0  0  0  0  0  0
  -29.7160  -12.7760   18.3380 C   0  0  0  0  0  2  0  0  0  0  0  0
  -28.2580  -12.4810   18.7320 C   0  0  0  0  0  2  0  0  0  0  0  0
  -27.8000  -13.3980   19.8850 C   0  0  0  0  0  3  0  0  0  0  0  0
  -28.8290  -13.4390   21.0470 C   0  0  0  0  0  2  0  0  0  0  0  0
  -30.1300  -13.8710   20.5110 N   0  0  0  0  0  0  0  0  0  0  0  0
  -31.9710  -15.1390   20.4360 O   0  0  0  0  0  0  0  0  0  0  0  0
  -25.3840  -13.9690   20.5870 C   0  0  0  0  0  0  0  0  0  0  0  0
  -24.3260  -13.1830   20.9190 C   0  0  0  0  0  0  0  0  0  0  0  0
  -24.8150  -11.8430   20.9060 C   0  0  0  0  0  0  0  0  0  0  0  0
  -26.4530  -13.1100   20.3630 N   0  0  0  0  0  0  0  0  0  0  0  0
  -26.1130  -11.8250   20.6330 N   0  0  0  0  0  0  0  0  0  0  0  0
  -24.1050  -10.5760   21.0720 C   0  0  0  0  0  0  0  0  0  0  0  0
  -24.5080   -9.6290   22.0380 C   0  0  0  0  0  3  0  0  0  0  0  0
  -23.7950   -8.4210   22.1910 C   0  0  0  0  0  3  0  0  0  0  0  0
  -22.6670   -8.1550   21.3790 C   0  0  0  0  0  0  0  0  0  0  0  0
  -22.2880   -9.0910   20.4010 C   0  0  0  0  0  3  0  0  0  0  0  0
  -23.0010  -10.2890   20.2450 C   0  0  0  0  0  3  0  0  0  0  0  0
  -21.9300   -6.9990   21.4390 O   0  0  0  0  0  0  0  0  0  0  0  0
  -21.8140   -6.2830   22.6030 C   0  0  0  0  0  0  0  0  0  0  0  0
  -21.2910   -6.8550   23.7830 C   0  0  0  0  0  3  0  0  0  0  0  0
  -21.1300   -6.0620   24.9380 C   0  0  0  0  0  3  0  0  0  0  0  0
  -21.4790   -4.6990   24.9090 C   0  0  0  0  0  0  0  0  0  0  0  0
  -21.9940   -4.1270   23.7340 C   0  0  0  0  0  3  0  0  0  0  0  0
  -22.1600   -4.9180   22.5830 C   0  0  0  0  0  0  0  0  0  0  0  0
  -22.6400   -4.3590   21.4460 F   0  0  0  0  0  0  0  0  0  0  0  0
  -21.3150   -3.9340   26.0150 F   0  0  0  0  0  0  0  0  0  0  0  0
  -22.9130  -13.6440   21.1400 C   0  0  0  0  0  0  0  0  0  0  0  0
  -22.1710  -12.9480   21.9920 N   0  0  0  0  0  0  0  0  0  0  0  0
  -22.4790  -14.6580   20.5930 O   0  0  0  0  0  0  0  0  0  0  0  0
  -22.5390  -12.1320   22.4610 H   0  0  0  0  0  0  0  0  0  0  0  0
  -21.2230  -13.2370   22.1860 H   0  0  0  0  0  0  0  0  0  0  0  0
  -25.4780  -15.3450   20.4420 N   0  0  0  0  0  0  0  0  0  0  0  0
  -24.6610  -15.9350   20.5580 H   0  0  0  0  0  0  0  0  0  0  0  0
  -26.2900  -15.8730   20.1520 H   0  0  0  0  0  0  0  0  0  0  0  0
  -29.4400  -22.2050   20.9930 C   0  0  0  0  0  2  0  0  0  0  0  0
  -29.3570  -23.7070   20.2720 C   0  0  0  0  0  3  0  0  0  0  0  0
  -28.3910  -24.9500   20.8020 C   0  0  0  0  0  3  0  0  0  0  0  0
  -28.5230  -26.4240   20.3930 O   0  0  0  0  0  0  0  0  0  0  0  0
  -24.7180  -31.9580   23.3180 C   0  0  0  0  0  0  0  0  0  0  0  0
  -27.3980  -27.3090   20.3650 C   0  0  0  0  0  0  0  0  0  0  0  0
  -23.5400  -30.5260   21.6870 C   0  0  0  0  0  3  0  0  0  0  0  0
  -25.0160  -28.9560   20.2900 C   0  0  0  0  0  0  0  0  0  0  0  0
  -26.0800  -30.8490   21.5160 C   0  0  0  0  0  2  0  0  0  0  0  0
  -26.1800  -29.4530   20.8920 C   0  0  0  0  0  0  0  0  0  0  0  0
  -27.3710  -28.6470   20.9100 C   0  0  0  0  0  3  0  0  0  0  0  0
  -26.2060  -26.8890   19.7340 C   0  0  0  0  0  3  0  0  0  0  0  0
  -25.0400  -27.6870   19.6890 C   0  0  0  0  0  3  0  0  0  0  0  0
  -23.7720  -29.8300   20.3160 C   0  0  0  0  0  2  0  0  0  0  0  0
  -24.7990  -31.1310   22.2300 N   0  0  0  0  0  0  0  0  0  0  0  0
  -23.6280  -32.2290   23.8440 O   0  0  0  0  0  0  0  0  0  0  0  0
  -22.8750  -29.5200   22.6600 C   0  0  0  0  0  0  0  0  0  0  0  0
  -21.5560  -29.3120   22.5130 N   0  0  0  0  0  0  0  0  0  0  0  0
  -23.5500  -28.9270   23.5060 O   0  0  0  0  0  0  0  0  0  0  0  0
  -21.0680  -29.8460   21.8080 H   0  0  0  0  0  0  0  0  0  0  0  0
  -18.2080  -28.0080   22.9550 C   0  0  0  0  0  0  0  0  0  0  0  0
  -20.7460  -28.3700   23.2880 C   0  0  0  0  0  3  0  0  0  0  0  0
  -20.9140  -26.9270   22.7620 C   0  0  0  0  0  2  0  0  0  0  0  0
  -19.8560  -26.5330   21.7260 C   0  0  0  0  0  2  0  0  0  0  0  0
  -18.4520  -26.6470   22.3250 C   0  0  0  0  0  2  0  0  0  0  0  0
  -19.2860  -28.8240   23.3930 C   0  0  0  0  0  0  0  0  0  0  0  0
  -19.0030  -30.0930   23.9420 C   0  0  0  0  0  3  0  0  0  0  0  0
  -17.6770  -30.5510   24.0540 C   0  0  0  0  0  3  0  0  0  0  0  0
  -16.6140  -29.7340   23.6310 C   0  0  0  0  0  3  0  0  0  0  0  0
  -16.8800  -28.4640   23.0890 C   0  0  0  0  0  3  0  0  0  0  0  0
  -25.9890  -32.6140   23.9430 C   0  0  0  0  0  3  0  0  0  0  0  0
  -25.6640  -34.0150   24.2490 N   0  0  0  0  0  0  0  0  0  0  0  0
  -25.9990  -35.0610   23.4820 C   0  0  0  0  0  0  0  0  0  0  0  0
  -26.6830  -34.9500   22.4610 O   0  0  0  0  0  0  0  0  0  0  0  0
  -25.0600  -34.1770   25.0410 H   0  0  0  0  0  0  0  0  0  0  0  0
  -24.2630  -36.8390   23.0850 C   0  0  0  0  0  1  0  0  0  0  0  0
  -25.4980  -36.4530   23.9160 C   0  0  0  0  0  3  0  0  0  0  0  0
  -27.6180  -37.3610   24.7590 C   0  0  0  0  0  1  0  0  0  0  0  0
  -26.5250  -37.5120   23.8020 N   0  0  0  0  0  0  0  0  0  0  0  0
  -26.1120  -38.4320   23.9340 H   0  0  0  0  0  0  0  0  0  0  0  0
  -26.5000  -31.8720   25.2410 C   0  0  1  0  0  0  0  0  0  0  0  0
  -25.3990  -31.6440   26.3030 C   0  0  0  0  0  1  0  0  0  0  0  0
  -27.0970  -30.4920   24.8800 C   0  0  0  0  0  1  0  0  0  0  0  0
  -27.6390  -32.6880   25.8980 C   0  0  0  0  0  1  0  0  0  0  0  0
  1  4  1  0
  1 50  1  0
  2  1  1  0
  3  1  1  0
  6 10  1  0
  7 14  1  0
  7  5  1  0
  8  5  1  0
  9  6  1  0
  9 11  1  0
  9  8  1  0
 10  7  1  0
 10  4  1  0
 11  8  1  0
 11 12  1  6
 13 11  1  0
 15 20  1  0
 16 17  1  0
 16 15  1  0
 18 17  1  0
 18 25  1  0
 18 19  1  0
 20 14  1  0
 20 19  1  0
 21 14  2  0
 22 23  2  0
 23 42  1  0
 24 23  1  0
 24 27  1  0
 25 22  1  0
 25 26  1  0
 26 24  2  0
 27 28  1  0
 28 29  2  0
 30 33  1  0
 30 29  1  0
 31 30  2  0
 32 31  1  0
 32 27  2  0
 33 34  1  0
 34 35  1  0
 35 36  2  0
 37 36  1  0
 37 41  1  0
 38 37  2  0
 39 34  2  0
 39 38  1  0
 40 39  1  0
 42 43  1  0
 43 46  1  0
 43 45  1  0
 44 42  2  0
 47 48  1  0
 47 22  1  0
 49 47  1  0
 51 52  2  0
 51 50  1  0
 53 52  1  0
 54 65  2  0
 55 53  1  0
 55 60  1  0
 56 64  1  0
 56 66  1  0
 57 63  1  0
 57 59  1  0
 58 64  1  0
 59 60  2  0
 59 58  1  0
 61 55  2  0
 62 61  1  0
 62 57  2  0
 63 56  1  0
 64 54  1  0
 66 68  2  0
 67 66  1  0
 69 67  1  0
 70 79  2  0
 70 75  1  0
 71 67  1  0
 71 75  1  0
 72 71  1  0
 73 74  1  0
 73 72  1  0
 74 70  1  0
 75 76  2  0
 76 77  1  0
 78 77  2  0
 79 78  1  0
 80 54  1  0
 80 81  1  0
 80 90  1  0
 81 84  1  0
 82 86  1  0
 82 81  1  0
 83 82  2  0
 86 85  1  0
 88 86  1  0
 88 89  1  0
 88 87  1  0
 90 93  1  1
 90 91  1  0
 92 90  1  0
M  ISO  4   7 100  14 100  52 101  53 101
M  END
>  <TORSDO>  (48) 
F 21

>  <SCORE>  (48) 
-11.879

>  <name>  (48) 
47

>  <ligand_id>  (48) 
47

>  <original_smiles>  (48) 
[H]c1c([H])c([H])c2c(c1[H])C([H])([H])C([H])([H])C([H])([H])C2([H])N([H])C(=O)C1([H])N(C(=O)C([H])(N([H])C(=O)C([H])(N([H])C([H])([H])[H])C([H])([H])[H])C(C([H])([H])[H])(C([H])([H])[H])C([H])([H])[H])C([H])([H])c2c([H])c(OC([H])([H])C([H])([H])C([H])([H])[N+]([H])([H])C([H])([H])C3([H])C([H])([H])C4([H])C([H])(C([H])([H])C3([H])C(=O)N3C([H])([H])C([H])([H])C([H])([H])C([H])(n5nc(-c6c([H])c([H])c(Oc7c([H])c([H])c(F)c([H])c7F)c([H])c6[H])c(C(=O)N([H])[H])c5N([H])[H])C3([H])[H])C4(C([H])([H])[H])C([H])([H])[H])c([H])c([H])c2C1([H])[H]

>  <smiles>  (48) 
[H]c1c([H])c([H])c2c(c1[H])C([H])([H])C([H])([H])C([H])([H])C2([H])N([H])C(=O)C1([H])N(C(=O)C([H])(N([H])C(=O)C([H])(N([H])C([H])([H])[H])C([H])([H])[H])C(C([H])([H])[H])(C([H])([H])[H])C([H])([H])[H])C([H])([H])c2c([H])c(OC([H])([H])C([H])([H])C([H])([H])[N+]([H])([H])C([H])([H])C3([H])C([H])([H])C4([H])C([H])(C([H])([H])C3([H])C(=O)N3C([H])([H])C([H])([H])C([H])([H])C([H])(n5nc(-c6c([H])c([H])c(Oc7c([H])c([H])c(F)c([H])c7F)c([H])c6[H])c(C(=O)N([H])[H])c5N([H])[H])C3([H])[H])C4(C([H])([H])[H])C([H])([H])[H])c([H])c([H])c2C1([H])[H]

$$$$
48:0:0
     RDKit          3D

 91 99  0  0  1  0  0  0  0  0999 V2000
  -29.9470  -22.8290   20.5880 C   0  0  0  0  0  0  0  0  0  0  0  0
  -29.3630  -24.0970   20.6410 C   0  0  0  0  0  3  0  0  0  0  0  0
  -31.3870  -22.7540   21.0300 C   0  0  0  0  0  2  0  0  0  0  0  0
  -31.0670  -21.2770   19.1130 C   0  0  0  0  0  2  0  0  0  0  0  0
  -29.7220  -21.4160   19.8900 C   0  0  0  0  0  3  0  0  0  0  0  0
  -32.0870  -22.2400   19.7710 C   0  0  0  0  0  3  0  0  0  0  0  0
  -33.4920  -21.6900   20.0610 C   0  0  0  0  0  1  0  0  0  0  0  0
  -29.6270  -20.1730   20.7980 N   0  0  0  0  0  4  0  0  0  0  0  0
  -28.8960  -20.3380   21.4720 H   0  0  0  0  0  0  0  0  0  0  0  0
  -30.4840  -20.1310   21.3220 H   0  0  0  0  0  0  0  0  0  0  0  0
  -29.3990  -18.7740   20.1930 C   0  0  0  0  0  3  0  0  0  0  0  0
  -30.1040  -17.4810   20.8720 C   0  0  0  0  0  3  0  0  0  0  0  0
  -29.5590  -15.9860   20.5730 C   0  0  0  0  0  2  0  0  0  0  0  0
  -30.4990  -14.6990   20.3800 C   0  0  0  0  0  0  0  0  0  0  0  0
  -30.3650  -12.4350   19.3350 C   0  0  0  0  0  2  0  0  0  0  0  0
  -29.4170  -12.5700   18.1190 C   0  0  0  0  0  2  0  0  0  0  0  0
  -27.9360  -12.4170   18.5340 C   0  0  0  0  0  2  0  0  0  0  0  0
  -27.5820  -13.2480   19.7980 C   0  0  0  0  0  3  0  0  0  0  0  0
  -28.6470  -13.0530   20.8990 C   0  0  0  0  0  2  0  0  0  0  0  0
  -29.9470  -13.4390   20.3350 N   0  0  0  0  0  0  0  0  0  0  0  0
  -31.6780  -14.8600   20.0490 O   0  0  0  0  0  0  0  0  0  0  0  0
  -25.1940  -13.8530   20.5140 C   0  0  0  0  0  0  0  0  0  0  0  0
  -24.1280  -13.0810   20.8890 C   0  0  0  0  0  0  0  0  0  0  0  0
  -24.5890  -11.7300   20.8600 C   0  0  0  0  0  0  0  0  0  0  0  0
  -26.2350  -12.9700   20.2830 N   0  0  0  0  0  0  0  0  0  0  0  0
  -25.8790  -11.6880   20.5500 N   0  0  0  0  0  0  0  0  0  0  0  0
  -23.8640  -10.4680   21.0510 C   0  0  0  0  0  0  0  0  0  0  0  0
  -24.3090   -9.4960   21.9730 C   0  0  0  0  0  3  0  0  0  0  0  0
  -23.5860   -8.2970   22.1530 C   0  0  0  0  0  3  0  0  0  0  0  0
  -22.4000   -8.0650   21.4160 C   0  0  0  0  0  0  0  0  0  0  0  0
  -21.9750   -9.0270   20.4830 C   0  0  0  0  0  3  0  0  0  0  0  0
  -22.7000  -10.2160   20.3000 C   0  0  0  0  0  3  0  0  0  0  0  0
  -21.6450   -6.9200   21.5080 O   0  0  0  0  0  0  0  0  0  0  0  0
  -21.6300   -6.1620   22.6490 C   0  0  0  0  0  0  0  0  0  0  0  0
  -21.2500   -6.7000   23.9010 C   0  0  0  0  0  3  0  0  0  0  0  0
  -21.1770   -5.8680   25.0330 C   0  0  0  0  0  3  0  0  0  0  0  0
  -21.4720   -4.4950   24.9220 C   0  0  0  0  0  0  0  0  0  0  0  0
  -21.8450   -3.9570   23.6780 C   0  0  0  0  0  3  0  0  0  0  0  0
  -21.9200   -4.7870   22.5460 C   0  0  0  0  0  0  0  0  0  0  0  0
  -22.2560   -4.2560   21.3460 F   0  0  0  0  0  0  0  0  0  0  0  0
  -21.3960   -3.6940   26.0100 F   0  0  0  0  0  0  0  0  0  0  0  0
  -22.7310  -13.5570   21.1600 C   0  0  0  0  0  0  0  0  0  0  0  0
  -22.0050  -12.8610   22.0280 N   0  0  0  0  0  0  0  0  0  0  0  0
  -22.2910  -14.5790   20.6340 O   0  0  0  0  0  0  0  0  0  0  0  0
  -22.3760  -12.0370   22.4750 H   0  0  0  0  0  0  0  0  0  0  0  0
  -21.0650  -13.1570   22.2480 H   0  0  0  0  0  0  0  0  0  0  0  0
  -25.3580  -15.2230   20.3330 N   0  0  0  0  0  0  0  0  0  0  0  0
  -24.5910  -15.8770   20.4440 H   0  0  0  0  0  0  0  0  0  0  0  0
  -26.2060  -15.6640   19.9980 H   0  0  0  0  0  0  0  0  0  0  0  0
  -28.1380  -24.9120   20.0910 C   0  0  0  0  0  2  0  0  0  0  0  0
  -28.2960  -26.4060   20.2080 O   0  0  0  0  0  0  0  0  0  0  0  0
  -24.5880  -31.8680   23.2330 C   0  0  0  0  0  0  0  0  0  0  0  0
  -27.1780  -27.2680   20.1710 C   0  0  0  0  0  0  0  0  0  0  0  0
  -23.3760  -30.4660   21.6000 C   0  0  0  0  0  3  0  0  0  0  0  0
  -24.8150  -28.9020   20.1720 C   0  0  0  0  0  0  0  0  0  0  0  0
  -25.9180  -30.7680   21.4130 C   0  0  0  0  0  2  0  0  0  0  0  0
  -25.9900  -29.3880   20.7590 C   0  0  0  0  0  0  0  0  0  0  0  0
  -27.1720  -28.5840   20.7470 C   0  0  0  0  0  3  0  0  0  0  0  0
  -25.9780  -26.8420   19.5630 C   0  0  0  0  0  3  0  0  0  0  0  0
  -24.8130  -27.6360   19.5640 C   0  0  0  0  0  3  0  0  0  0  0  0
  -23.5860  -29.7870   20.2210 C   0  0  0  0  0  2  0  0  0  0  0  0
  -24.6460  -31.0560   22.1360 N   0  0  0  0  0  0  0  0  0  0  0  0
  -23.5070  -32.1490   23.7730 O   0  0  0  0  0  0  0  0  0  0  0  0
  -22.7140  -29.4560   22.5680 C   0  0  0  0  0  0  0  0  0  0  0  0
  -21.3850  -29.2820   22.4500 N   0  0  0  0  0  0  0  0  0  0  0  0
  -23.3930  -28.8300   23.3830 O   0  0  0  0  0  0  0  0  0  0  0  0
  -20.8910  -29.8420   21.7690 H   0  0  0  0  0  0  0  0  0  0  0  0
  -18.0110  -28.0810   22.9680 C   0  0  0  0  0  0  0  0  0  0  0  0
  -20.5710  -28.3480   23.2300 C   0  0  0  0  0  3  0  0  0  0  0  0
  -20.6710  -26.9130   22.6620 C   0  0  0  0  0  2  0  0  0  0  0  0
  -19.5680  -26.5830   21.6520 C   0  0  0  0  0  2  0  0  0  0  0  0
  -18.1880  -26.7290   22.2990 C   0  0  0  0  0  2  0  0  0  0  0  0
  -19.1310  -28.8460   23.3900 C   0  0  0  0  0  0  0  0  0  0  0  0
  -18.9130  -30.1120   23.9750 C   0  0  0  0  0  3  0  0  0  0  0  0
  -17.6080  -30.6110   24.1480 C   0  0  0  0  0  3  0  0  0  0  0  0
  -16.5030  -29.8450   23.7400 C   0  0  0  0  0  3  0  0  0  0  0  0
  -16.7060  -28.5810   23.1530 C   0  0  0  0  0  3  0  0  0  0  0  0
  -25.8750  -32.4980   23.8490 C   0  0  0  0  0  3  0  0  0  0  0  0
  -25.5670  -33.8960   24.1860 N   0  0  0  0  0  0  0  0  0  0  0  0
  -25.8810  -34.9530   23.4260 C   0  0  0  0  0  0  0  0  0  0  0  0
  -26.5380  -34.8570   22.3850 O   0  0  0  0  0  0  0  0  0  0  0  0
  -24.9850  -34.0480   24.9970 H   0  0  0  0  0  0  0  0  0  0  0  0
  -24.1380  -36.7400   23.1160 C   0  0  0  0  0  1  0  0  0  0  0  0
  -25.3980  -36.3380   23.8980 C   0  0  0  0  0  3  0  0  0  0  0  0
  -27.5430  -37.2330   24.6860 C   0  0  0  0  0  1  0  0  0  0  0  0
  -26.4220  -37.3980   23.7670 N   0  0  0  0  0  0  0  0  0  0  0  0
  -26.0120  -38.3140   23.9290 H   0  0  0  0  0  0  0  0  0  0  0  0
  -26.4030  -31.7270   25.1210 C   0  0  1  0  0  0  0  0  0  0  0  0
  -25.3170  -31.4940   26.1960 C   0  0  0  0  0  1  0  0  0  0  0  0
  -26.9880  -30.3490   24.7320 C   0  0  0  0  0  1  0  0  0  0  0  0
  -27.5560  -32.5250   25.7740 C   0  0  0  0  0  1  0  0  0  0  0  0
  1  2  2  0
  1  3  1  0
  4  6  1  0
  4  5  1  0
  5  1  1  0
  5  8  1  0
  6  7  1  0
  6  3  1  0
  8 10  1  0
  8  9  1  0
 11  8  1  0
 11 12  2  0
 13 12  1  0
 14 13  1  0
 15 20  1  0
 16 17  1  0
 16 15  1  0
 18 17  1  0
 18 25  1  0
 18 19  1  0
 20 14  1  0
 20 19  1  0
 21 14  2  0
 22 23  2  0
 23 42  1  0
 24 23  1  0
 24 27  1  0
 25 22  1  0
 25 26  1  0
 26 24  2  0
 27 28  1  0
 28 29  2  0
 30 33  1  0
 30 29  1  0
 31 30  2  0
 32 31  1  0
 32 27  2  0
 33 34  1  0
 34 35  1  0
 35 36  2  0
 37 36  1  0
 37 41  1  0
 38 37  2  0
 39 34  2  0
 39 38  1  0
 40 39  1  0
 42 43  1  0
 43 46  1  0
 43 45  1  0
 44 42  2  0
 47 48  1  0
 47 22  1  0
 49 47  1  0
 50 51  1  0
 50  2  1  0
 52 63  2  0
 53 51  1  0
 53 58  1  0
 54 62  1  0
 54 64  1  0
 55 61  1  0
 55 57  1  0
 56 62  1  0
 57 56  1  0
 58 57  2  0
 59 60  1  0
 59 53  2  0
 60 55  2  0
 61 54  1  0
 62 52  1  0
 64 66  2  0
 65 64  1  0
 67 65  1  0
 68 77  2  0
 68 73  1  0
 69 65  1  0
 69 73  1  0
 70 69  1  0
 71 72  1  0
 71 70  1  0
 72 68  1  0
 73 74  2  0
 74 75  1  0
 76 75  2  0
 77 76  1  0
 78 52  1  0
 78 79  1  0
 78 88  1  0
 79 82  1  0
 80 84  1  0
 80 79  1  0
 81 80  2  0
 84 83  1  0
 86 84  1  0
 86 87  1  0
 86 85  1  0
 88 91  1  1
 88 89  1  0
 90 88  1  0
M  ISO  4  13 100  14 100  50 101  51 101
M  END
>  <TORSDO>  (49) 
F 21

>  <SCORE>  (49) 
-13.428

>  <name>  (49) 
48

>  <ligand_id>  (49) 
48

>  <original_smiles>  (49) 
[H]C(=C1C([H])([H])C([H])(C([H])([H])[H])C([H])([H])C1([H])[N+]([H])([H])C([H])([H])C([H])([H])C([H])([H])C(=O)N1C([H])([H])C([H])([H])C([H])([H])C([H])(n2nc(-c3c([H])c([H])c(Oc4c([H])c([H])c(F)c([H])c4F)c([H])c3[H])c(C(=O)N([H])[H])c2N([H])[H])C1([H])[H])C([H])([H])Oc1c([H])c([H])c2c(c1[H])C([H])([H])N(C(=O)C([H])(N([H])C(=O)C([H])(N([H])C([H])([H])[H])C([H])([H])[H])C(C([H])([H])[H])(C([H])([H])[H])C([H])([H])[H])C([H])(C(=O)N([H])C1([H])c3c([H])c([H])c([H])c([H])c3C([H])([H])C([H])([H])C1([H])[H])C2([H])[H]

>  <smiles>  (49) 
[H]C(=C1C([H])([H])C([H])(C([H])([H])[H])C([H])([H])C1([H])[N+]([H])([H])C([H])([H])C([H])([H])C([H])([H])C(=O)N1C([H])([H])C([H])([H])C([H])([H])C([H])(n2nc(-c3c([H])c([H])c(Oc4c([H])c([H])c(F)c([H])c4F)c([H])c3[H])c(C(=O)N([H])[H])c2N([H])[H])C1([H])[H])C([H])([H])Oc1c([H])c([H])c2c(c1[H])C([H])([H])N(C(=O)C([H])(N([H])C(=O)C([H])(N([H])C([H])([H])[H])C([H])([H])[H])C(C([H])([H])[H])(C([H])([H])[H])C([H])([H])[H])C([H])(C(=O)N([H])C1([H])c3c([H])c([H])c([H])c([H])c3C([H])([H])C([H])([H])C1([H])[H])C2([H])[H]

$$$$
50:0:0
     RDKit          3D

 95104  0  0  1  0  0  0  0  0999 V2000
  -30.9470  -21.5750   22.5960 C   0  0  0  0  0  1  0  0  0  0  0  0
  -30.5650  -21.5390   21.1070 C   0  0  0  0  0  3  0  0  0  0  0  0
  -30.2650  -16.6700   21.8690 C   0  0  0  0  0  2  0  0  0  0  0  0
  -31.4690  -18.9560   18.3910 C   0  0  0  0  0  2  0  0  0  0  0  0
  -30.7160  -20.1940   18.8630 C   0  0  0  0  0  2  0  0  0  0  0  0
  -30.2440  -18.2340   21.8220 C   0  0  0  0  0  2  0  0  0  0  0  0
  -30.1170  -17.0200   19.3670 C   0  0  0  0  0  2  0  0  0  0  0  0
  -29.9070  -15.9920   20.5180 C   0  0  0  0  0  3  0  0  0  0  0  0
  -31.3480  -17.9570   19.5490 C   0  0  0  0  0  3  0  0  0  0  0  0
  -31.1570  -20.3120   20.3210 C   0  0  0  0  0  3  0  0  0  0  0  0
  -31.3230  -18.8210   20.8580 C   0  0  1  0  0  0  0  0  0  0  0  0
  -32.7080  -18.7080   21.5500 C   0  0  0  0  0  1  0  0  0  0  0  0
  -30.6650  -14.6510   20.2250 C   0  0  0  0  0  0  0  0  0  0  0  0
  -30.3610  -12.4640   19.1250 C   0  0  0  0  0  2  0  0  0  0  0  0
  -29.3790  -12.6470   17.9460 C   0  0  0  0  0  2  0  0  0  0  0  0
  -27.9220  -12.4820   18.4210 C   0  0  0  0  0  2  0  0  0  0  0  0
  -27.6070  -13.3220   19.6850 C   0  0  0  0  0  3  0  0  0  0  0  0
  -28.7040  -13.1580   20.7620 C   0  0  0  0  0  2  0  0  0  0  0  0
  -30.0060  -13.4590   20.1520 N   0  0  0  0  0  0  0  0  0  0  0  0
  -31.8310  -14.7540   19.8340 O   0  0  0  0  0  0  0  0  0  0  0  0
  -25.2390  -13.8900   20.5110 C   0  0  0  0  0  0  0  0  0  0  0  0
  -24.1920  -13.1010   20.9020 C   0  0  0  0  0  0  0  0  0  0  0  0
  -24.6620  -11.7530   20.8250 C   0  0  0  0  0  0  0  0  0  0  0  0
  -26.2800  -13.0240   20.2170 N   0  0  0  0  0  0  0  0  0  0  0  0
  -25.9400  -11.7310   20.4670 N   0  0  0  0  0  0  0  0  0  0  0  0
  -23.9540  -10.4810   21.0150 C   0  0  0  0  0  0  0  0  0  0  0  0
  -24.4000   -9.5190   21.9490 C   0  0  0  0  0  3  0  0  0  0  0  0
  -23.6910   -8.3110   22.1250 C   0  0  0  0  0  3  0  0  0  0  0  0
  -22.5240   -8.0570   21.3650 C   0  0  0  0  0  0  0  0  0  0  0  0
  -22.0980   -9.0070   20.4210 C   0  0  0  0  0  3  0  0  0  0  0  0
  -22.8080  -10.2070   20.2430 C   0  0  0  0  0  3  0  0  0  0  0  0
  -21.7830   -6.9020   21.4530 O   0  0  0  0  0  0  0  0  0  0  0  0
  -21.7040   -6.1840   22.6180 C   0  0  0  0  0  0  0  0  0  0  0  0
  -21.2200   -6.7560   23.8160 C   0  0  0  0  0  3  0  0  0  0  0  0
  -21.0880   -5.9610   24.9730 C   0  0  0  0  0  3  0  0  0  0  0  0
  -21.4300   -4.5970   24.9330 C   0  0  0  0  0  0  0  0  0  0  0  0
  -21.9050   -4.0240   23.7390 C   0  0  0  0  0  3  0  0  0  0  0  0
  -22.0400   -4.8160   22.5860 C   0  0  0  0  0  0  0  0  0  0  0  0
  -22.4770   -4.2540   21.4330 F   0  0  0  0  0  0  0  0  0  0  0  0
  -21.2980   -3.8310   26.0410 F   0  0  0  0  0  0  0  0  0  0  0  0
  -22.8020  -13.5570   21.2380 C   0  0  0  0  0  0  0  0  0  0  0  0
  -22.1100  -12.8310   22.1090 N   0  0  0  0  0  0  0  0  0  0  0  0
  -22.3380  -14.5920   20.7610 O   0  0  0  0  0  0  0  0  0  0  0  0
  -22.4990  -11.9950   22.5170 H   0  0  0  0  0  0  0  0  0  0  0  0
  -21.1770  -13.1160   22.3720 H   0  0  0  0  0  0  0  0  0  0  0  0
  -25.3880  -15.2670   20.3600 N   0  0  0  0  0  0  0  0  0  0  0  0
  -24.6230  -15.9140   20.5110 H   0  0  0  0  0  0  0  0  0  0  0  0
  -26.2250  -15.7200   20.0110 H   0  0  0  0  0  0  0  0  0  0  0  0
  -29.1160  -21.8030   20.8700 N   0  0  0  0  0  4  0  0  0  0  0  0
  -28.7330  -20.9590   20.4740 H   0  0  0  0  0  0  0  0  0  0  0  0
  -28.6470  -21.9500   21.7480 H   0  0  0  0  0  0  0  0  0  0  0  0
  -28.7880  -22.9260   19.9310 C   0  0  0  0  0  2  0  0  0  0  0  0
  -28.7070  -24.3430   20.5810 C   0  0  0  0  0  2  0  0  0  0  0  0
  -28.5980  -25.5170   19.5560 C   0  0  0  0  0  2  0  0  0  0  0  0
  -28.4290  -26.8140   20.1770 O   0  0  0  0  0  0  0  0  0  0  0  0
  -24.5520  -31.9510   23.2550 C   0  0  0  0  0  0  0  0  0  0  0  0
  -27.2210  -27.5010   20.1640 C   0  0  0  0  0  0  0  0  0  0  0  0
  -23.3570  -30.5570   21.6000 C   0  0  0  0  0  3  0  0  0  0  0  0
  -24.8180  -29.0240   20.1770 C   0  0  0  0  0  0  0  0  0  0  0  0
  -25.8850  -30.9140   21.4130 C   0  0  0  0  0  2  0  0  0  0  0  0
  -25.9720  -29.5400   20.7720 C   0  0  0  0  0  0  0  0  0  0  0  0
  -27.1720  -28.7870   20.7630 C   0  0  0  0  0  3  0  0  0  0  0  0
  -26.0300  -26.9940   19.5910 C   0  0  0  0  0  3  0  0  0  0  0  0
  -24.8400  -27.7480   19.5900 C   0  0  0  0  0  3  0  0  0  0  0  0
  -23.5760  -29.8850   20.2180 C   0  0  0  0  0  2  0  0  0  0  0  0
  -24.6160  -31.1570   22.1480 N   0  0  0  0  0  0  0  0  0  0  0  0
  -23.4680  -32.2170   23.7940 O   0  0  0  0  0  0  0  0  0  0  0  0
  -22.7040  -29.5310   22.5560 C   0  0  0  0  0  0  0  0  0  0  0  0
  -21.3840  -29.3280   22.4120 N   0  0  0  0  0  0  0  0  0  0  0  0
  -23.3830  -28.9170   23.3830 O   0  0  0  0  0  0  0  0  0  0  0  0
  -20.8950  -29.8760   21.7180 H   0  0  0  0  0  0  0  0  0  0  0  0
  -18.0260  -28.0700   22.8650 C   0  0  0  0  0  0  0  0  0  0  0  0
  -20.5730  -28.3790   23.1770 C   0  0  0  0  0  3  0  0  0  0  0  0
  -20.7150  -26.9460   22.6130 C   0  0  0  0  0  2  0  0  0  0  0  0
  -19.6370  -26.5950   21.5830 C   0  0  0  0  0  2  0  0  0  0  0  0
  -18.2410  -26.7190   22.2010 C   0  0  0  0  0  2  0  0  0  0  0  0
  -19.1220  -28.8550   23.3100 C   0  0  0  0  0  0  0  0  0  0  0  0
  -18.8710  -30.1170   23.8910 C   0  0  0  0  0  3  0  0  0  0  0  0
  -17.5560  -30.5970   24.0300 C   0  0  0  0  0  3  0  0  0  0  0  0
  -16.4720  -29.8100   23.6020 C   0  0  0  0  0  3  0  0  0  0  0  0
  -16.7090  -28.5490   23.0250 C   0  0  0  0  0  3  0  0  0  0  0  0
  -25.8360  -32.5870   23.8820 C   0  0  0  0  0  3  0  0  0  0  0  0
  -25.5280  -33.9890   24.1940 N   0  0  0  0  0  0  0  0  0  0  0  0
  -25.8790  -35.0340   23.4310 C   0  0  0  0  0  0  0  0  0  0  0  0
  -26.5680  -34.9180   22.4140 O   0  0  0  0  0  0  0  0  0  0  0  0
  -24.9320  -34.1560   24.9920 H   0  0  0  0  0  0  0  0  0  0  0  0
  -24.1780  -36.8370   23.0160 C   0  0  0  0  0  1  0  0  0  0  0  0
  -25.3910  -36.4310   23.8660 C   0  0  0  0  0  3  0  0  0  0  0  0
  -27.5100  -37.3010   24.7500 C   0  0  0  0  0  1  0  0  0  0  0  0
  -26.4360  -37.4740   23.7750 N   0  0  0  0  0  0  0  0  0  0  0  0
  -26.0350  -38.3990   23.9020 H   0  0  0  0  0  0  0  0  0  0  0  0
  -26.3390  -31.8290   25.1710 C   0  0  1  0  0  0  0  0  0  0  0  0
  -25.2350  -31.6050   26.2310 C   0  0  0  0  0  1  0  0  0  0  0  0
  -26.9250  -30.4470   24.7960 C   0  0  0  0  0  1  0  0  0  0  0  0
  -27.4840  -32.6280   25.8360 C   0  0  0  0  0  1  0  0  0  0  0  0
  2  1  1  0
  4  5  1  0
  5 10  1  0
  6  3  1  0
  7  9  1  0
  7  8  1  0
  8 13  1  0
  8  3  1  0
  9  4  1  0
  9 11  1  0
 10 11  1  0
 10  2  1  0
 11 12  1  1
 11  6  1  0
 14 19  1  0
 15 16  1  0
 15 14  1  0
 17 16  1  0
 17 24  1  0
 17 18  1  0
 19 13  1  0
 19 18  1  0
 20 13  2  0
 21 22  2  0
 22 41  1  0
 23 22  1  0
 23 26  1  0
 24 25  1  0
 24 21  1  0
 25 23  2  0
 26 27  1  0
 27 28  2  0
 29 32  1  0
 29 28  1  0
 30 29  2  0
 31 30  1  0
 31 26  2  0
 32 33  1  0
 33 34  1  0
 34 35  2  0
 36 35  1  0
 36 40  1  0
 37 36  2  0
 38 33  2  0
 38 37  1  0
 39 38  1  0
 41 42  1  0
 42 45  1  0
 42 44  1  0
 43 41  2  0
 46 47  1  0
 46 21  1  0
 48 46  1  0
 49  2  1  0
 49 51  1  0
 50 49  1  0
 52 53  1  0
 52 49  1  0
 54 55  1  0
 54 53  1  0
 56 67  2  0
 57 55  1  0
 57 62  1  0
 58 66  1  0
 58 68  1  0
 59 65  1  0
 59 61  1  0
 60 66  1  0
 61 60  1  0
 62 61  2  0
 63 57  2  0
 64 63  1  0
 64 59  2  0
 65 58  1  0
 66 56  1  0
 68 70  2  0
 69 68  1  0
 71 69  1  0
 72 81  2  0
 72 77  1  0
 73 69  1  0
 73 77  1  0
 74 73  1  0
 75 76  1  0
 75 74  1  0
 76 72  1  0
 77 78  2  0
 78 79  1  0
 80 79  2  0
 81 80  1  0
 82 56  1  0
 82 83  1  0
 82 92  1  0
 83 86  1  0
 84 88  1  0
 84 83  1  0
 85 84  2  0
 88 87  1  0
 90 88  1  0
 90 91  1  0
 90 89  1  0
 92 95  1  1
 92 93  1  0
 94 92  1  0
M  ISO  4   8 100  13 100  54 101  55 101
M  END
>  <TORSDO>  (50) 
F 21

>  <SCORE>  (50) 
-13.566

>  <name>  (50) 
50

>  <ligand_id>  (50) 
50

>  <original_smiles>  (50) 
[H]c1c([H])c([H])c2c(c1[H])C([H])([H])C([H])([H])C([H])([H])C2([H])N([H])C(=O)C1([H])N(C(=O)C([H])(N([H])C(=O)C([H])(N([H])C([H])([H])[H])C([H])([H])[H])C(C([H])([H])[H])(C([H])([H])[H])C([H])([H])[H])C([H])([H])c2c([H])c(OC([H])([H])C([H])([H])C([H])([H])[N+]([H])([H])C([H])(C([H])([H])[H])C3([H])C([H])([H])C([H])([H])C4([H])C([H])([H])C([H])(C(=O)N5C([H])([H])C([H])([H])C([H])([H])C([H])(n6nc(-c7c([H])c([H])c(Oc8c([H])c([H])c(F)c([H])c8F)c([H])c7[H])c(C(=O)N([H])[H])c6N([H])[H])C5([H])[H])C([H])([H])C([H])([H])C43C([H])([H])[H])c([H])c([H])c2C1([H])[H]

>  <smiles>  (50) 
[H]c1c([H])c([H])c2c(c1[H])C([H])([H])C([H])([H])C([H])([H])C2([H])N([H])C(=O)C1([H])N(C(=O)C([H])(N([H])C(=O)C([H])(N([H])C([H])([H])[H])C([H])([H])[H])C(C([H])([H])[H])(C([H])([H])[H])C([H])([H])[H])C([H])([H])c2c([H])c(OC([H])([H])C([H])([H])C([H])([H])[N+]([H])([H])C([H])(C([H])([H])[H])C3([H])C([H])([H])C([H])([H])C4([H])C([H])([H])C([H])(C(=O)N5C([H])([H])C([H])([H])C([H])([H])C([H])(n6nc(-c7c([H])c([H])c(Oc8c([H])c([H])c(F)c([H])c8F)c([H])c7[H])c(C(=O)N([H])[H])c6N([H])[H])C5([H])[H])C([H])([H])C([H])([H])C43C([H])([H])[H])c([H])c([H])c2C1([H])[H]

$$$$
51:0:0
     RDKit          3D

 86 94  0  0  1  0  0  0  0  0999 V2000
  -30.2580  -22.8230   19.4310 C   0  0  0  0  0  2  0  0  0  0  0  0
  -29.1590  -22.5610   20.1540 C   0  0  0  0  0  0  0  0  0  0  0  0
  -30.9600  -20.1610   22.0420 C   0  0  0  0  0  2  0  0  0  0  0  0
  -29.5260  -20.7280   22.0600 C   0  0  0  0  0  2  0  0  0  0  0  0
  -31.2200  -19.4840   20.6830 C   0  0  0  0  0  2  0  0  0  0  0  0
  -29.0400  -20.7960   20.6100 C   0  0  0  0  0  3  0  0  0  0  0  0
  -29.8500  -19.1620   20.0900 C   0  0  0  0  0  3  0  0  0  0  0  0
  -29.6230  -17.2950   20.3890 C   0  0  0  0  0  2  0  0  0  0  0  0
  -30.4700  -15.6810   20.1040 C   0  0  0  0  0  0  0  0  0  0  0  0
  -30.5250  -13.1830   19.1940 C   0  0  0  0  0  2  0  0  0  0  0  0
  -29.5710  -12.9170   17.9950 C   0  0  0  0  0  2  0  0  0  0  0  0
  -28.1450  -12.5950   18.4740 C   0  0  0  0  0  2  0  0  0  0  0  0
  -27.7130  -13.5240   19.6320 C   0  0  0  0  0  3  0  0  0  0  0  0
  -28.7980  -13.7130   20.7130 C   0  0  0  0  0  2  0  0  0  0  0  0
  -29.9770  -14.3140   20.0580 N   0  0  0  0  0  0  0  0  0  0  0  0
  -31.6770  -15.6640   19.8040 O   0  0  0  0  0  0  0  0  0  0  0  0
  -25.3900  -14.0430   20.5220 C   0  0  0  0  0  0  0  0  0  0  0  0
  -24.3430  -13.2560   20.9100 C   0  0  0  0  0  0  0  0  0  0  0  0
  -24.8030  -11.9070   20.8100 C   0  0  0  0  0  0  0  0  0  0  0  0
  -26.4140  -13.1770   20.1930 N   0  0  0  0  0  0  0  0  0  0  0  0
  -26.0790  -11.8810   20.4320 N   0  0  0  0  0  0  0  0  0  0  0  0
  -24.0750  -10.6430   20.9900 C   0  0  0  0  0  0  0  0  0  0  0  0
  -24.5010   -9.6700   21.9230 C   0  0  0  0  0  3  0  0  0  0  0  0
  -23.7720   -8.4740   22.0930 C   0  0  0  0  0  3  0  0  0  0  0  0
  -22.6030   -8.2400   21.3310 C   0  0  0  0  0  0  0  0  0  0  0  0
  -22.1960   -9.2000   20.3870 C   0  0  0  0  0  3  0  0  0  0  0  0
  -22.9250  -10.3880   20.2160 C   0  0  0  0  0  3  0  0  0  0  0  0
  -21.8460   -7.0940   21.4100 O   0  0  0  0  0  0  0  0  0  0  0  0
  -21.7480   -6.3740   22.5730 C   0  0  0  0  0  0  0  0  0  0  0  0
  -21.2270   -6.9400   23.7570 C   0  0  0  0  0  3  0  0  0  0  0  0
  -21.0800   -6.1450   24.9120 C   0  0  0  0  0  3  0  0  0  0  0  0
  -21.4420   -4.7850   24.8810 C   0  0  0  0  0  0  0  0  0  0  0  0
  -21.9540   -4.2180   23.7020 C   0  0  0  0  0  3  0  0  0  0  0  0
  -22.1040   -5.0110   22.5500 C   0  0  0  0  0  0  0  0  0  0  0  0
  -22.5770   -4.4540   21.4100 F   0  0  0  0  0  0  0  0  0  0  0  0
  -21.2930   -4.0190   25.9880 F   0  0  0  0  0  0  0  0  0  0  0  0
  -22.9610  -13.7310   21.2540 C   0  0  0  0  0  0  0  0  0  0  0  0
  -22.2630  -13.0080   22.1220 N   0  0  0  0  0  0  0  0  0  0  0  0
  -22.5120  -14.7790   20.7890 O   0  0  0  0  0  0  0  0  0  0  0  0
  -22.6430  -12.1650   22.5270 H   0  0  0  0  0  0  0  0  0  0  0  0
  -21.3340  -13.3030   22.3850 H   0  0  0  0  0  0  0  0  0  0  0  0
  -25.5520  -15.4190   20.3910 N   0  0  0  0  0  0  0  0  0  0  0  0
  -24.8030  -16.0760   20.5840 H   0  0  0  0  0  0  0  0  0  0  0  0
  -26.3890  -15.8690   20.0410 H   0  0  0  0  0  0  0  0  0  0  0  0
  -28.1400  -24.0440   20.4550 C   0  0  0  0  0  2  0  0  0  0  0  0
  -28.3180  -25.7470   20.2350 O   0  0  0  0  0  0  0  0  0  0  0  0
  -24.4980  -31.8170   23.0810 C   0  0  0  0  0  0  0  0  0  0  0  0
  -27.2820  -26.8810   20.1850 C   0  0  0  0  0  0  0  0  0  0  0  0
  -23.3900  -30.3660   21.4300 C   0  0  0  0  0  3  0  0  0  0  0  0
  -24.9240  -28.7690   20.0630 C   0  0  0  0  0  0  0  0  0  0  0  0
  -25.9570  -30.6270   21.3470 C   0  0  0  0  0  2  0  0  0  0  0  0
  -26.0910  -29.1960   20.7110 C   0  0  0  0  0  0  0  0  0  0  0  0
  -27.2570  -28.2780   20.7400 C   0  0  0  0  0  3  0  0  0  0  0  0
  -26.0790  -26.6470   19.4750 C   0  0  0  0  0  3  0  0  0  0  0  0
  -24.9520  -27.5190   19.4220 C   0  0  0  0  0  3  0  0  0  0  0  0
  -23.6780  -29.6640   20.0720 C   0  0  0  0  0  2  0  0  0  0  0  0
  -24.6360  -30.9700   22.0060 N   0  0  0  0  0  0  0  0  0  0  0  0
  -23.3870  -32.0780   23.5720 O   0  0  0  0  0  0  0  0  0  0  0  0
  -22.6940  -29.3700   22.3960 C   0  0  0  0  0  0  0  0  0  0  0  0
  -21.3720  -29.1640   22.2440 N   0  0  0  0  0  0  0  0  0  0  0  0
  -23.3560  -28.7780   23.2510 O   0  0  0  0  0  0  0  0  0  0  0  0
  -20.8860  -29.6990   21.5380 H   0  0  0  0  0  0  0  0  0  0  0  0
  -18.0210  -27.8360   22.7000 C   0  0  0  0  0  0  0  0  0  0  0  0
  -20.5640  -28.2020   23.0050 C   0  0  0  0  0  3  0  0  0  0  0  0
  -20.7280  -26.7700   22.4440 C   0  0  0  0  0  2  0  0  0  0  0  0
  -19.6570  -26.4000   21.4120 C   0  0  0  0  0  2  0  0  0  0  0  0
  -18.2600  -26.4930   22.0290 C   0  0  0  0  0  2  0  0  0  0  0  0
  -19.1010  -28.6450   23.1420 C   0  0  0  0  0  0  0  0  0  0  0  0
  -18.8210  -29.8970   23.7310 C   0  0  0  0  0  3  0  0  0  0  0  0
  -17.4920  -30.3410   23.8800 C   0  0  0  0  0  3  0  0  0  0  0  0
  -16.4280  -29.5320   23.4490 C   0  0  0  0  0  3  0  0  0  0  0  0
  -16.6930  -28.2800   22.8660 C   0  0  0  0  0  3  0  0  0  0  0  0
  -25.7280  -32.5100   23.7410 C   0  0  0  0  0  3  0  0  0  0  0  0
  -26.2310  -31.7710   25.0440 C   0  0  1  0  0  0  0  0  0  0  0  0
  -25.1160  -31.5070   26.0840 C   0  0  0  0  0  1  0  0  0  0  0  0
  -26.8730  -30.4100   24.6940 C   0  0  0  0  0  1  0  0  0  0  0  0
  -27.3330  -32.6120   25.7310 C   0  0  0  0  0  1  0  0  0  0  0  0
  -25.3520  -33.9000   24.0680 N   0  0  0  0  0  0  0  0  0  0  0  0
  -25.6670  -34.9760   23.3350 C   0  0  0  0  0  0  0  0  0  0  0  0
  -26.3620  -34.9060   22.3200 O   0  0  0  0  0  0  0  0  0  0  0  0
  -24.7350  -34.0240   24.8580 H   0  0  0  0  0  0  0  0  0  0  0  0
  -23.8960  -36.7300   22.9650 C   0  0  0  0  0  1  0  0  0  0  0  0
  -25.1280  -36.3450   23.8000 C   0  0  0  0  0  3  0  0  0  0  0  0
  -27.2100  -37.2930   24.7000 C   0  0  0  0  0  1  0  0  0  0  0  0
  -26.1310  -37.4320   23.7260 N   0  0  0  0  0  0  0  0  0  0  0  0
  -25.6920  -38.3390   23.8660 H   0  0  0  0  0  0  0  0  0  0  0  0
  1  2  2  0
  2 45  1  0
  3  4  1  0
  5  3  1  0
  6  2  1  0
  6  4  1  0
  7  8  1  0
  7  6  1  0
  7  5  1  0
  9  8  1  0
 10 15  1  0
 11 12  1  0
 11 10  1  0
 13 12  1  0
 13 20  1  0
 13 14  1  0
 15  9  1  0
 15 14  1  0
 16  9  2  0
 17 18  2  0
 18 37  1  0
 19 18  1  0
 19 22  1  0
 20 21  1  0
 20 17  1  0
 21 19  2  0
 22 23  1  0
 23 24  2  0
 25 28  1  0
 25 24  1  0
 26 25  2  0
 27 26  1  0
 27 22  2  0
 28 29  1  0
 29 30  1  0
 30 31  2  0
 32 31  1  0
 32 36  1  0
 33 32  2  0
 34 29  2  0
 34 33  1  0
 35 34  1  0
 37 38  1  0
 38 41  1  0
 38 40  1  0
 39 37  2  0
 42 17  1  0
 42 43  1  0
 44 42  1  0
 46 45  1  0
 47 58  2  0
 48 46  1  0
 48 53  1  0
 49 57  1  0
 49 59  1  0
 50 56  1  0
 50 52  1  0
 51 57  1  0
 52 53  2  0
 52 51  1  0
 54 48  2  0
 55 54  1  0
 55 50  2  0
 56 49  1  0
 57 47  1  0
 59 61  2  0
 60 59  1  0
 62 60  1  0
 63 72  2  0
 63 68  1  0
 64 60  1  0
 64 68  1  0
 65 64  1  0
 66 67  1  0
 66 65  1  0
 67 63  1  0
 68 69  2  0
 69 70  1  0
 71 70  2  0
 72 71  1  0
 73 47  1  0
 73 78  1  0
 73 74  1  0
 74 77  1  1
 74 75  1  0
 76 74  1  0
 78 81  1  0
 79 83  1  0
 79 78  1  0
 80 79  2  0
 83 82  1  0
 85 83  1  0
 85 86  1  0
 85 84  1  0
M  ISO  4   8 100   9 100  45 101  46 101
M  END
>  <TORSDO>  (51) 
F 19

>  <SCORE>  (51) 
-16.166

>  <name>  (51) 
51

>  <ligand_id>  (51) 
51

>  <original_smiles>  (51) 
[H]C([H])=C(C([H])([H])Oc1c([H])c([H])c2c(c1[H])C([H])([H])N(C(=O)C([H])(N([H])C(=O)C([H])(N([H])C([H])([H])[H])C([H])([H])[H])C(C([H])([H])[H])(C([H])([H])[H])C([H])([H])[H])C([H])(C(=O)N([H])C1([H])c3c([H])c([H])c([H])c([H])c3C([H])([H])C([H])([H])C1([H])[H])C2([H])[H])C1([H])C([H])([H])C([H])([H])C([H])([H])C1([H])C([H])([H])C(=O)N1C([H])([H])C([H])([H])C([H])([H])C([H])(n2nc(-c3c([H])c([H])c(Oc4c([H])c([H])c(F)c([H])c4F)c([H])c3[H])c(C(=O)N([H])[H])c2N([H])[H])C1([H])[H]

>  <smiles>  (51) 
[H]C([H])=C(C([H])([H])Oc1c([H])c([H])c2c(c1[H])C([H])([H])N(C(=O)C([H])(N([H])C(=O)C([H])(N([H])C([H])([H])[H])C([H])([H])[H])C(C([H])([H])[H])(C([H])([H])[H])C([H])([H])[H])C([H])(C(=O)N([H])C1([H])c3c([H])c([H])c([H])c([H])c3C([H])([H])C([H])([H])C1([H])[H])C2([H])[H])C1([H])C([H])([H])C([H])([H])C([H])([H])C1([H])C([H])([H])C(=O)N1C([H])([H])C([H])([H])C([H])([H])C([H])(n2nc(-c3c([H])c([H])c(Oc4c([H])c([H])c(F)c([H])c4F)c([H])c3[H])c(C(=O)N([H])[H])c2N([H])[H])C1([H])[H]

$$$$
52:0:0
     RDKit          3D

 99108  0  0  1  0  0  0  0  0999 V2000
  -30.5350  -19.2460   21.1250 C   0  0  0  0  0  2  0  0  0  0  0  0
  -31.6430  -21.0940   17.0210 C   0  0  0  0  0  2  0  0  0  0  0  0
  -32.8410  -20.8490   16.0990 C   0  0  0  0  0  2  0  0  0  0  0  0
  -31.4240  -19.9520   18.0230 C   0  0  0  0  0  2  0  0  0  0  0  0
  -34.3100  -19.4090   20.4400 C   0  0  0  0  0  2  0  0  0  0  0  0
  -34.2040  -20.9400   16.7940 C   0  0  0  0  0  2  0  0  0  0  0  0
  -33.1140  -19.2530   21.3740 C   0  0  0  0  0  2  0  0  0  0  0  0
  -33.7900  -20.2190   19.2330 C   0  0  0  0  0  3  0  0  0  0  0  0
  -32.2370  -20.0900   19.3280 C   0  0  0  0  0  3  0  0  0  0  0  0
  -34.4760  -19.8710   17.8800 C   0  0  0  0  0  3  0  0  0  0  0  0
  -31.9190  -19.0220   20.4270 C   0  0  2  0  0  0  0  0  0  0  0  0
  -36.0080  -19.7400   18.0350 C   0  0  0  0  0  1  0  0  0  0  0  0
  -31.9580  -17.5740   19.8110 C   0  0  0  0  0  2  0  0  0  0  0  0
  -31.4620  -16.3870   20.6920 C   0  0  0  0  0  2  0  0  0  0  0  0
  -32.1140  -15.0190   20.3680 C   0  0  0  0  0  0  0  0  0  0  0  0
  -32.0320  -12.5380   20.4300 C   0  0  0  0  0  2  0  0  0  0  0  0
  -31.2530  -11.9470   19.2410 C   0  0  0  0  0  2  0  0  0  0  0  0
  -29.7450  -11.8930   19.5510 C   0  0  0  0  0  2  0  0  0  0  0  0
  -29.2050  -13.2440   20.0890 C   0  0  0  0  0  3  0  0  0  0  0  0
  -30.0990  -13.7810   21.2290 C   0  0  0  0  0  2  0  0  0  0  0  0
  -31.4830  -13.8690   20.7320 N   0  0  0  0  0  0  0  0  0  0  0  0
  -33.2040  -15.0030   19.7870 O   0  0  0  0  0  0  0  0  0  0  0  0
  -26.8790  -14.1350   20.7480 C   0  0  0  0  0  0  0  0  0  0  0  0
  -25.7040  -13.4930   21.0350 C   0  0  0  0  0  0  0  0  0  0  0  0
  -25.9830  -12.0960   20.9430 C   0  0  0  0  0  0  0  0  0  0  0  0
  -27.8070  -13.1330   20.5030 N   0  0  0  0  0  0  0  0  0  0  0  0
  -27.2680  -11.9000   20.6750 N   0  0  0  0  0  0  0  0  0  0  0  0
  -25.0890  -10.9330   21.0380 C   0  0  0  0  0  0  0  0  0  0  0  0
  -25.3320   -9.8890   21.9570 C   0  0  0  0  0  3  0  0  0  0  0  0
  -24.4480   -8.7910   22.0410 C   0  0  0  0  0  3  0  0  0  0  0  0
  -23.3090   -8.7310   21.2040 C   0  0  0  0  0  0  0  0  0  0  0  0
  -23.0870   -9.7620   20.2750 C   0  0  0  0  0  3  0  0  0  0  0  0
  -23.9680  -10.8510   20.1890 C   0  0  0  0  0  3  0  0  0  0  0  0
  -22.4110   -7.6910   21.1980 O   0  0  0  0  0  0  0  0  0  0  0  0
  -22.1310   -6.9750   22.3330 C   0  0  0  0  0  0  0  0  0  0  0  0
  -21.6420   -7.5950   23.5040 C   0  0  0  0  0  3  0  0  0  0  0  0
  -21.3010   -6.8120   24.6260 C   0  0  0  0  0  3  0  0  0  0  0  0
  -21.4400   -5.4130   24.5780 C   0  0  0  0  0  0  0  0  0  0  0  0
  -21.9240   -4.7930   23.4120 C   0  0  0  0  0  3  0  0  0  0  0  0
  -22.2650   -5.5720   22.2920 C   0  0  0  0  0  0  0  0  0  0  0  0
  -22.7110   -4.9680   21.1640 F   0  0  0  0  0  0  0  0  0  0  0  0
  -21.1070   -4.6600   25.6530 F   0  0  0  0  0  0  0  0  0  0  0  0
  -24.3720  -14.1390   21.2920 C   0  0  0  0  0  0  0  0  0  0  0  0
  -23.5420  -13.5220   22.1240 N   0  0  0  0  0  0  0  0  0  0  0  0
  -24.0800  -15.2230   20.7890 O   0  0  0  0  0  0  0  0  0  0  0  0
  -23.7890  -12.6410   22.5520 H   0  0  0  0  0  0  0  0  0  0  0  0
  -22.6470  -13.9360   22.3390 H   0  0  0  0  0  0  0  0  0  0  0  0
  -27.2300  -15.4770   20.6560 N   0  0  0  0  0  0  0  0  0  0  0  0
  -26.5550  -16.2230   20.7820 H   0  0  0  0  0  0  0  0  0  0  0  0
  -28.1500  -15.8140   20.4030 H   0  0  0  0  0  0  0  0  0  0  0  0
  -30.3860  -20.4770   22.0590 C   0  0  0  0  0  2  0  0  0  0  0  0
  -29.2610  -21.4330   21.6450 C   0  0  0  0  0  0  0  0  0  0  0  0
  -27.8940  -20.7840   21.5900 C   0  0  0  0  0  1  0  0  0  0  0  0
  -29.3490  -22.6810   21.3770 N   0  0  0  0  0  0  0  0  0  0  0  0
  -30.6000  -23.4230   21.4180 C   0  0  0  0  0  2  0  0  0  0  0  0
  -30.3170  -24.9390   21.4650 C   0  0  0  0  0  2  0  0  0  0  0  0
  -29.5320  -25.5110   20.2670 C   0  0  0  0  0  2  0  0  0  0  0  0
  -29.2360  -27.0150   20.4310 C   0  0  0  0  0  2  0  0  0  0  0  0
  -28.6110  -27.5130   19.2490 O   0  0  0  0  0  0  0  0  0  0  0  0
  -24.4890  -31.8220   23.1780 C   0  0  0  0  0  0  0  0  0  0  0  0
  -27.3970  -28.1230   19.4430 C   0  0  0  0  0  0  0  0  0  0  0  0
  -23.3430  -30.5080   21.4230 C   0  0  0  0  0  3  0  0  0  0  0  0
  -24.8660  -29.3260   19.7530 C   0  0  0  0  0  0  0  0  0  0  0  0
  -25.8000  -31.1630   21.1670 C   0  0  0  0  0  2  0  0  0  0  0  0
  -25.9920  -29.8970   20.3610 C   0  0  0  0  0  0  0  0  0  0  0  0
  -27.2630  -29.2970   20.2170 C   0  0  0  0  0  3  0  0  0  0  0  0
  -26.2620  -27.5640   18.8280 C   0  0  0  0  0  3  0  0  0  0  0  0
  -24.9930  -28.1530   18.9870 C   0  0  0  0  0  3  0  0  0  0  0  0
  -23.5440  -30.0290   19.9600 C   0  0  0  0  0  2  0  0  0  0  0  0
  -24.5640  -31.1740   21.9820 N   0  0  0  0  0  0  0  0  0  0  0  0
  -23.4180  -31.9090   23.7950 O   0  0  0  0  0  0  0  0  0  0  0  0
  -22.8520  -29.3140   22.2720 C   0  0  0  0  0  0  0  0  0  0  0  0
  -21.5650  -28.9620   22.1170 N   0  0  0  0  0  0  0  0  0  0  0  0
  -23.6220  -28.7120   23.0230 O   0  0  0  0  0  0  0  0  0  0  0  0
  -21.0020  -29.5010   21.4750 H   0  0  0  0  0  0  0  0  0  0  0  0
  -18.4190  -27.2070   22.4010 C   0  0  0  0  0  0  0  0  0  0  0  0
  -20.8960  -27.8460   22.7820 C   0  0  0  0  0  3  0  0  0  0  0  0
  -21.2460  -26.5060   22.0980 C   0  0  0  0  0  2  0  0  0  0  0  0
  -20.2330  -26.0940   21.0260 C   0  0  0  0  0  2  0  0  0  0  0  0
  -18.8300  -25.9630   21.6280 C   0  0  0  0  0  2  0  0  0  0  0  0
  -19.3920  -28.0990   22.9280 C   0  0  0  0  0  0  0  0  0  0  0  0
  -18.9610  -29.2570   23.6100 C   0  0  0  0  0  3  0  0  0  0  0  0
  -17.5910  -29.5330   23.7680 C   0  0  0  0  0  3  0  0  0  0  0  0
  -16.6320  -28.6400   23.2600 C   0  0  0  0  0  3  0  0  0  0  0  0
  -17.0470  -27.4770   22.5830 C   0  0  0  0  0  3  0  0  0  0  0  0
  -25.7370  -32.5080   23.8160 C   0  0  0  0  0  3  0  0  0  0  0  0
  -26.3070  -31.7240   25.0610 C   0  0  1  0  0  0  0  0  0  0  0  0
  -25.2330  -31.3750   26.1170 C   0  0  0  0  0  1  0  0  0  0  0  0
  -26.9770  -30.4040   24.6140 C   0  0  0  0  0  1  0  0  0  0  0  0
  -27.4040  -32.5680   25.7530 C   0  0  0  0  0  1  0  0  0  0  0  0
  -25.3490  -33.8730   24.1930 N   0  0  0  0  0  0  0  0  0  0  0  0
  -25.6290  -34.9700   23.4740 C   0  0  0  0  0  0  0  0  0  0  0  0
  -26.3150  -34.9400   22.4490 O   0  0  0  0  0  0  0  0  0  0  0  0
  -24.7380  -33.9640   24.9920 H   0  0  0  0  0  0  0  0  0  0  0  0
  -23.8020  -36.6690   23.1630 C   0  0  0  0  0  1  0  0  0  0  0  0
  -25.0600  -36.3120   23.9730 C   0  0  0  0  0  3  0  0  0  0  0  0
  -27.1390  -37.2800   24.8460 C   0  0  0  0  0  1  0  0  0  0  0  0
  -26.0320  -37.4270   23.9060 N   0  0  0  0  0  0  0  0  0  0  0  0
  -25.5740  -38.3160   24.0920 H   0  0  0  0  0  0  0  0  0  0  0  0
  1 51  1  0
  2  4  1  0
  3  6  1  0
  3  2  1  0
  5  7  1  0
  6 10  1  0
  8  9  1  0
  8  5  1  0
  9  4  1  0
  9 11  1  0
 10 12  1  0
 10  8  1  0
 11 13  1  6
 11  1  1  0
 11  7  1  0
 13 14  1  0
 15 14  1  0
 15 21  1  0
 16 21  1  0
 17 18  1  0
 17 16  1  0
 19 18  1  0
 19 26  1  0
 19 20  1  0
 21 20  1  0
 22 15  2  0
 23 24  2  0
 24 43  1  0
 25 24  1  0
 25 28  1  0
 26 27  1  0
 26 23  1  0
 27 25  2  0
 28 29  1  0
 29 30  2  0
 31 30  1  0
 32 31  2  0
 33 32  1  0
 33 28  2  0
 34 31  1  0
 34 35  1  0
 35 36  1  0
 36 37  2  0
 38 37  1  0
 38 42  1  0
 39 38  2  0
 40 35  2  0
 40 39  1  0
 41 40  1  0
 43 44  1  0
 44 47  1  0
 44 46  1  0
 45 43  2  0
 48 23  1  0
 48 49  1  0
 50 48  1  0
 52 51  1  0
 53 52  1  0
 54 55  1  0
 54 52  2  0
 55 56  1  0
 57 58  1  0
 57 56  1  0
 59 61  1  0
 59 58  1  0
 60 71  2  0
 61 66  1  0
 62 70  1  0
 62 72  1  0
 63 69  1  0
 63 65  1  0
 64 70  1  0
 65 64  1  0
 66 65  2  0
 67 68  1  0
 67 61  2  0
 68 63  2  0
 69 62  1  0
 70 60  1  0
 72 74  2  0
 73 72  1  0
 75 73  1  0
 76 85  2  0
 76 81  1  0
 77 73  1  0
 77 81  1  0
 78 77  1  0
 79 80  1  0
 79 78  1  0
 80 76  1  0
 81 82  2  0
 82 83  1  0
 84 83  2  0
 85 84  1  0
 86 60  1  0
 86 91  1  0
 86 87  1  0
 87 90  1  1
 87 88  1  0
 89 87  1  0
 91 94  1  0
 92 96  1  0
 92 91  1  0
 93 92  2  0
 96 95  1  0
 98 96  1  0
 98 99  1  0
 98 97  1  0
M  ISO  4  14 100  15 100  58 101  59 101
M  END
>  <TORSDO>  (52) 
F 25

>  <SCORE>  (52) 
-9.050

>  <name>  (52) 
52

>  <ligand_id>  (52) 
52

>  <original_smiles>  (52) 
[H]c1c([H])c([H])c2c(c1[H])C([H])([H])C([H])([H])C([H])([H])C2([H])N([H])C(=O)C1([H])N(C(=O)C([H])(N([H])C(=O)C([H])(N([H])C([H])([H])[H])C([H])([H])[H])C(C([H])([H])[H])(C([H])([H])[H])C([H])([H])[H])C([H])([H])c2c([H])c(OC([H])([H])C([H])([H])C([H])([H])C([H])([H])N=C(C([H])([H])[H])C([H])([H])C([H])([H])C3(C([H])([H])C([H])([H])C(=O)N4C([H])([H])C([H])([H])C([H])([H])C([H])(n5nc(-c6c([H])c([H])c(Oc7c([H])c([H])c(F)c([H])c7F)c([H])c6[H])c(C(=O)N([H])[H])c5N([H])[H])C4([H])[H])C([H])([H])C([H])([H])C4([H])C([H])(C([H])([H])[H])C([H])([H])C([H])([H])C([H])([H])C([H])([H])C43[H])c([H])c([H])c2C1([H])[H]

>  <smiles>  (52) 
[H]c1c([H])c([H])c2c(c1[H])C([H])([H])C([H])([H])C([H])([H])C2([H])N([H])C(=O)C1([H])N(C(=O)C([H])(N([H])C(=O)C([H])(N([H])C([H])([H])[H])C([H])([H])[H])C(C([H])([H])[H])(C([H])([H])[H])C([H])([H])[H])C([H])([H])c2c([H])c(OC([H])([H])C([H])([H])C([H])([H])C([H])([H])N=C(C([H])([H])[H])C([H])([H])C([H])([H])C3(C([H])([H])C([H])([H])C(=O)N4C([H])([H])C([H])([H])C([H])([H])C([H])(n5nc(-c6c([H])c([H])c(Oc7c([H])c([H])c(F)c([H])c7F)c([H])c6[H])c(C(=O)N([H])[H])c5N([H])[H])C4([H])[H])C([H])([H])C([H])([H])C4([H])C([H])(C([H])([H])[H])C([H])([H])C([H])([H])C([H])([H])C([H])([H])C43[H])c([H])c([H])c2C1([H])[H]

$$$$
53:0:0
     RDKit          3D

 87 91  0  0  1  0  0  0  0  0999 V2000
  -30.0000  -20.0420   21.8100 C   0  0  0  0  0  0  0  0  0  0  0  0
  -29.5210  -18.6520   21.2050 C   0  0  0  0  0  2  0  0  0  0  0  0
  -29.9970  -20.0290   19.1030 C   0  0  0  0  0 15  0  0  0  0  0  0
  -29.4120  -21.4640   21.3090 C   0  0  0  0  0  3  0  0  0  0  0  0
  -30.2740  -18.2370   19.8970 C   0  0  0  0  0  1  0  0  0  0  0  0
  -29.3830  -21.8030   19.7570 C   0  0  0  0  0  1  0  0  0  0  0  0
  -28.0390  -21.7010   21.9630 C   0  0  0  0  0  1  0  0  0  0  0  0
  -31.4190  -21.0800   23.4290 C   0  0  0  0  0  1  0  0  0  0  0  0
  -30.8820  -19.9290   22.7310 N   0  0  0  0  0  0  0  0  0  0  0  0
  -30.8730  -16.3480   19.6760 C   0  0  0  0  0  2  0  0  0  0  0  0
  -31.0280  -13.6750   19.0550 C   0  0  0  0  0  2  0  0  0  0  0  0
  -30.1300  -13.0970   17.9130 C   0  0  0  0  0  2  0  0  0  0  0  0
  -28.7470  -12.6980   18.4410 C   0  0  0  0  0  2  0  0  0  0  0  0
  -28.2300  -13.7610   19.4320 C   0  0  0  0  0  3  0  0  0  0  0  0
  -29.2730  -14.2550   20.4700 C   0  0  0  0  0  2  0  0  0  0  0  0
  -30.3950  -14.9220   19.7460 N   0  0  0  0  0  0  0  0  0  0  0  0
  -32.0800  -16.1760   19.3830 O   0  0  0  0  0  1  0  0  0  0  0  0
  -25.9550  -14.2980   20.4010 C   0  0  0  0  0  0  0  0  0  0  0  0
  -24.8960  -13.5310   20.7910 C   0  0  0  0  0  0  0  0  0  0  0  0
  -25.3120  -12.1710   20.6420 C   0  0  0  0  0  0  0  0  0  0  0  0
  -26.9460  -13.4150   20.0280 N   0  0  0  0  0  0  0  0  0  0  0  0
  -26.5790  -12.1200   20.2360 N   0  0  0  0  0  0  0  0  0  0  0  0
  -24.5480  -10.9240   20.8040 C   0  0  0  0  0  0  0  0  0  0  0  0
  -24.9280   -9.9380   21.7400 C   0  0  0  0  0  3  0  0  0  0  0  0
  -24.1610   -8.7630   21.8960 C   0  0  0  0  0  3  0  0  0  0  0  0
  -22.9980   -8.5650   21.1150 C   0  0  0  0  0  0  0  0  0  0  0  0
  -22.6340   -9.5400   20.1690 C   0  0  0  0  0  3  0  0  0  0  0  0
  -23.4020  -10.7070   20.0110 C   0  0  0  0  0  3  0  0  0  0  0  0
  -22.2060   -7.4430   21.1780 O   0  0  0  0  0  0  0  0  0  0  0  0
  -21.9950   -6.7760   22.3590 C   0  0  0  0  0  0  0  0  0  0  0  0
  -21.4100   -7.4080   23.4770 C   0  0  0  0  0  3  0  0  0  0  0  0
  -21.1480   -6.6670   24.6470 C   0  0  0  0  0  3  0  0  0  0  0  0
  -21.4590   -5.2950   24.6970 C   0  0  0  0  0  0  0  0  0  0  0  0
  -22.0370   -4.6630   23.5820 C   0  0  0  0  0  3  0  0  0  0  0  0
  -22.3010   -5.4010   22.4150 C   0  0  0  0  0  0  0  0  0  0  0  0
  -22.8370   -4.7810   21.3360 F   0  0  0  0  0  0  0  0  0  0  0  0
  -21.2010   -4.5820   25.8180 F   0  0  0  0  0  0  0  0  0  0  0  0
  -23.5380  -14.0380   21.1790 C   0  0  0  0  0  0  0  0  0  0  0  0
  -22.8430  -13.3200   22.0540 N   0  0  0  0  0  0  0  0  0  0  0  0
  -23.1080  -15.1060   20.7460 O   0  0  0  0  0  0  0  0  0  0  0  0
  -23.2080  -12.4550   22.4260 H   0  0  0  0  0  0  0  0  0  0  0  0
  -21.9340  -13.6390   22.3570 H   0  0  0  0  0  0  0  0  0  0  0  0
  -26.1540  -15.6720   20.2990 N   0  0  0  0  0  0  0  0  0  0  0  0
  -25.4200  -16.3400   20.5060 H   0  0  0  0  0  0  0  0  0  0  0  0
  -26.9970  -16.1070   19.9440 H   0  0  0  0  0  0  0  0  0  0  0  0
  -28.9020  -23.7800   19.2780 C   0  0  0  0  0  1  0  0  0  0  0  0
  -28.7790  -25.6030   19.6720 O   0  0  0  0  0  0  0  0  0  0  0  0
  -24.7030  -31.6030   22.9360 C   0  0  0  0  0  0  0  0  0  0  0  0
  -27.7230  -26.8250   19.6550 C   0  0  0  0  0  0  0  0  0  0  0  0
  -23.6720  -30.2130   21.1930 C   0  0  0  0  0  3  0  0  0  0  0  0
  -25.2830  -28.7680   19.7020 C   0  0  0  0  0  0  0  0  0  0  0  0
  -26.2400  -30.5430   21.1390 C   0  0  0  0  0  2  0  0  0  0  0  0
  -26.4420  -29.1490   20.3870 C   0  0  0  0  0  0  0  0  0  0  0  0
  -27.6300  -28.2100   20.3320 C   0  0  0  0  0  3  0  0  0  0  0  0
  -26.5080  -26.7100   18.9180 C   0  0  0  0  0  3  0  0  0  0  0  0
  -25.3660  -27.5830   18.9440 C   0  0  0  0  0  3  0  0  0  0  0  0
  -23.9980  -29.6220   19.7880 C   0  0  0  0  0  2  0  0  0  0  0  0
  -24.8940  -30.8240   21.8100 N   0  0  0  0  0  0  0  0  0  0  0  0
  -23.5770  -31.7750   23.4390 O   0  0  0  0  0  0  0  0  0  0  0  0
  -23.0210  -29.1250   22.0930 C   0  0  0  0  0  0  0  0  0  0  0  0
  -21.7010  -28.8870   21.9580 N   0  0  0  0  0  0  0  0  0  0  0  0
  -23.7210  -28.4940   22.8880 O   0  0  0  0  0  0  0  0  0  0  0  0
  -21.1790  -29.4500   21.3020 H   0  0  0  0  0  0  0  0  0  0  0  0
  -18.4000  -27.4390   22.4620 C   0  0  0  0  0  0  0  0  0  0  0  0
  -20.9510  -27.8320   22.6580 C   0  0  0  0  0  3  0  0  0  0  0  0
  -21.1060  -26.4720   21.9370 C   0  0  0  0  0  2  0  0  0  0  0  0
  -19.9840  -26.1920   20.9330 C   0  0  0  0  0  2  0  0  0  0  0  0
  -18.6240  -26.1840   21.6360 C   0  0  0  0  0  2  0  0  0  0  0  0
  -19.4910  -28.2220   22.9280 C   0  0  0  0  0  0  0  0  0  0  0  0
  -19.2240  -29.3920   23.6700 C   0  0  0  0  0  3  0  0  0  0  0  0
  -17.8990  -29.7850   23.9440 C   0  0  0  0  0  3  0  0  0  0  0  0
  -16.8250  -29.0010   23.4900 C   0  0  0  0  0  3  0  0  0  0  0  0
  -17.0760  -27.8300   22.7550 C   0  0  0  0  0  3  0  0  0  0  0  0
  -25.8840  -32.3310   23.6460 C   0  0  0  0  0  3  0  0  0  0  0  0
  -25.4420  -33.6940   24.0140 N   0  0  0  0  0  0  0  0  0  0  0  0
  -25.6880  -34.8070   23.3110 C   0  0  0  0  0  0  0  0  0  0  0  0
  -26.3620  -34.8010   22.2790 O   0  0  0  0  0  0  0  0  0  0  0  0
  -24.8340  -33.7640   24.8170 H   0  0  0  0  0  0  0  0  0  0  0  0
  -23.8030  -36.4670   23.0670 C   0  0  0  0  0  1  0  0  0  0  0  0
  -25.0980  -36.1370   23.8300 C   0  0  0  0  0  3  0  0  0  0  0  0
  -27.1610  -37.1960   24.6450 C   0  0  0  0  0  1  0  0  0  0  0  0
  -26.0310  -37.2820   23.7240 N   0  0  0  0  0  0  0  0  0  0  0  0
  -25.5460  -38.1580   23.8990 H   0  0  0  0  0  0  0  0  0  0  0  0
  -26.3880  -31.5730   24.9390 C   0  0  1  0  0  0  0  0  0  0  0  0
  -25.2620  -31.2430   25.9490 C   0  0  0  0  0  1  0  0  0  0  0  0
  -27.0820  -30.2450   24.5710 C   0  0  0  0  0  1  0  0  0  0  0  0
  -27.4470  -32.4320   25.6700 C   0  0  0  0  0  1  0  0  0  0  0  0
  1  9  2  0
  2  1  1  0
  4  1  1  0
  4  7  1  0
  5  2  1  0
  6  4  1  0
  9  8  1  0
 10 16  1  0
 11 16  1  0
 12 13  1  0
 12 11  1  0
 14 13  1  0
 14 21  1  0
 14 15  1  0
 16 15  1  0
 17 10  1  0
 18 19  2  0
 19 38  1  0
 20 19  1  0
 20 23  1  0
 21 22  1  0
 21 18  1  0
 22 20  2  0
 23 24  1  0
 24 25  2  0
 26 29  1  0
 26 25  1  0
 27 26  2  0
 28 27  1  0
 28 23  2  0
 29 30  1  0
 30 35  2  0
 30 31  1  0
 31 32  2  0
 32 33  1  0
 33 37  1  0
 34 33  2  0
 35 34  1  0
 36 35  1  0
 38 39  1  0
 39 42  1  0
 39 41  1  0
 40 38  2  0
 43 18  1  0
 43 44  1  0
 45 43  1  0
 46 47  1  0
 48 59  2  0
 49 47  1  0
 49 54  1  0
 50 58  1  0
 50 60  1  0
 51 57  1  0
 51 53  1  0
 52 58  1  0
 53 52  1  0
 54 53  2  0
 55 56  1  0
 55 49  2  0
 56 51  2  0
 57 50  1  0
 58 48  1  0
 60 62  2  0
 61 60  1  0
 63 61  1  0
 64 73  2  0
 64 69  1  0
 65 61  1  0
 65 69  1  0
 66 65  1  0
 67 68  1  0
 67 66  1  0
 68 64  1  0
 69 70  2  0
 70 71  1  0
 72 71  2  0
 73 72  1  0
 74 48  1  0
 74 75  1  0
 74 84  1  0
 75 78  1  0
 76 80  1  0
 76 75  1  0
 77 76  2  0
 80 79  1  0
 82 80  1  0
 82 83  1  0
 82 81  1  0
 84 87  1  1
 84 85  1  0
 86 84  1  0
M  ISO  4   5 100  10 100  46 101  47 101
M  END
>  <TORSDO>  (53) 
F 17

>  <SCORE>  (53) 
-13.942

>  <name>  (53) 
53

>  <ligand_id>  (53) 
53

>  <original_smiles>  (53) 
[H]c1c([H])c([H])c2c(c1[H])C([H])([H])C([H])([H])C([H])([H])C2([H])N([H])C(=O)C1([H])N(C(=O)C([H])(N([H])C(=O)C([H])(N([H])C([H])([H])[H])C([H])([H])[H])C(C([H])([H])[H])(C([H])([H])[H])C([H])([H])[H])C([H])([H])c2c([H])c(OC([H])([H])C3([H])C([H])([H])C([H])(C(=O)N4C([H])([H])C([H])([H])C([H])([H])C([H])(n5nc(-c6c([H])c([H])c(Oc7c([H])c([H])c(F)c([H])c7F)c([H])c6[H])c(C(=O)N([H])[H])c5N([H])[H])C4([H])[H])C([H])([H])C(=NC([H])([H])[H])C3([H])C([H])([H])[H])c([H])c([H])c2C1([H])[H]

>  <smiles>  (53) 
[H]c1c([H])c([H])c2c(c1[H])C([H])([H])C([H])([H])C([H])([H])C2([H])N([H])C(=O)C1([H])N(C(=O)C([H])(N([H])C(=O)C([H])(N([H])C([H])([H])[H])C([H])([H])[H])C(C([H])([H])[H])(C([H])([H])[H])C([H])([H])[H])C([H])([H])c2c([H])c(OC([H])([H])C3([H])C([H])([H])C([H])(C(=O)N4C([H])([H])C([H])([H])C([H])([H])C([H])(n5nc(-c6c([H])c([H])c(Oc7c([H])c([H])c(F)c([H])c7F)c([H])c6[H])c(C(=O)N([H])[H])c5N([H])[H])C4([H])[H])C([H])([H])C(=NC([H])([H])[H])C3([H])C([H])([H])[H])c([H])c([H])c2C1([H])[H]

$$$$
54:0:0
     RDKit          3D

 92100  0  0  1  0  0  0  0  0999 V2000
  -28.2840  -20.8770   21.4540 C   0  0  0  0  0  0  0  0  0  0  0  0
  -28.4110  -22.1580   21.8260 N   0  0  0  0  0  0  0  0  0  0  0  0
  -27.4360  -20.5030   20.6400 O   0  0  0  0  0  0  0  0  0  0  0  0
  -29.0980  -22.3740   22.5380 H   0  0  0  0  0  0  0  0  0  0  0  0
  -29.2590  -19.8670   22.0720 C   0  0  0  0  0  2  0  0  0  0  0  0
  -31.6630  -18.3260   19.5070 C   0  0  0  0  0  2  0  0  0  0  0  0
  -30.7850  -19.4830   20.0030 C   0  0  0  0  0  2  0  0  0  0  0  0
  -30.6380  -17.7150   21.6230 C   0  0  0  0  0  2  0  0  0  0  0  0
  -31.3070  -17.1110   20.3830 C   0  0  0  0  0  3  0  0  0  0  0  0
  -29.8240  -18.8690   21.0360 C   0  0  0  0  0  3  0  0  0  0  0  0
  -32.4860  -16.1610   20.6820 C   0  0  0  0  0  2  0  0  0  0  0  0
  -32.6990  -15.0920   19.5940 C   0  0  0  0  0  0  0  0  0  0  0  0
  -32.1530  -12.8640   18.6670 C   0  0  0  0  0  2  0  0  0  0  0  0
  -31.1220  -12.9210   17.5260 C   0  0  0  0  0  2  0  0  0  0  0  0
  -29.6840  -12.9320   18.0780 C   0  0  0  0  0  2  0  0  0  0  0  0
  -29.4910  -13.9820   19.2010 C   0  0  0  0  0  3  0  0  0  0  0  0
  -30.6080  -13.8660   20.2600 C   0  0  0  0  0  2  0  0  0  0  0  0
  -31.9070  -13.9880   19.5780 N   0  0  0  0  0  0  0  0  0  0  0  0
  -33.6380  -15.2440   18.8050 O   0  0  0  0  0  0  0  0  0  0  0  0
  -27.3000  -14.8840   20.2150 C   0  0  0  0  0  0  0  0  0  0  0  0
  -26.1620  -14.2500   20.6410 C   0  0  0  0  0  0  0  0  0  0  0  0
  -26.3950  -12.8540   20.4540 C   0  0  0  0  0  0  0  0  0  0  0  0
  -28.1620  -13.8790   19.8050 N   0  0  0  0  0  0  0  0  0  0  0  0
  -27.6240  -12.6480   20.0000 N   0  0  0  0  0  0  0  0  0  0  0  0
  -25.4990  -11.7040   20.6270 C   0  0  0  0  0  0  0  0  0  0  0  0
  -25.7930  -10.6710   21.5430 C   0  0  0  0  0  3  0  0  0  0  0  0
  -24.9080   -9.5820   21.7050 C   0  0  0  0  0  3  0  0  0  0  0  0
  -23.7140   -9.5220   20.9490 C   0  0  0  0  0  0  0  0  0  0  0  0
  -23.4350  -10.5420   20.0220 C   0  0  0  0  0  3  0  0  0  0  0  0
  -24.3200  -11.6210   19.8600 C   0  0  0  0  0  3  0  0  0  0  0  0
  -22.8050   -8.4930   21.0210 O   0  0  0  0  0  0  0  0  0  0  0  0
  -22.5240   -7.8620   22.2060 C   0  0  0  0  0  0  0  0  0  0  0  0
  -22.0460   -8.5700   23.3320 C   0  0  0  0  0  3  0  0  0  0  0  0
  -21.7040   -7.8730   24.5080 C   0  0  0  0  0  3  0  0  0  0  0  0
  -21.8300   -6.4720   24.5600 C   0  0  0  0  0  0  0  0  0  0  0  0
  -22.3030   -5.7660   23.4390 C   0  0  0  0  0  3  0  0  0  0  0  0
  -22.6460   -6.4600   22.2660 C   0  0  0  0  0  0  0  0  0  0  0  0
  -23.0790   -5.7730   21.1810 F   0  0  0  0  0  0  0  0  0  0  0  0
  -21.4950   -5.8020   25.6870 F   0  0  0  0  0  0  0  0  0  0  0  0
  -24.8940  -14.9050   21.1060 C   0  0  0  0  0  0  0  0  0  0  0  0
  -24.1690  -14.2620   22.0150 N   0  0  0  0  0  0  0  0  0  0  0  0
  -24.5620  -16.0170   20.6980 O   0  0  0  0  0  0  0  0  0  0  0  0
  -24.4500  -13.3580   22.3640 H   0  0  0  0  0  0  0  0  0  0  0  0
  -23.3190  -14.6800   22.3630 H   0  0  0  0  0  0  0  0  0  0  0  0
  -27.6640  -16.2240   20.1240 N   0  0  0  0  0  0  0  0  0  0  0  0
  -27.0290  -16.9760   20.3640 H   0  0  0  0  0  0  0  0  0  0  0  0
  -28.5420  -16.5540   19.7440 H   0  0  0  0  0  0  0  0  0  0  0  0
  -27.6660  -23.2770   21.2520 C   0  0  0  0  0  2  0  0  0  0  0  0
  -28.6130  -24.3350   20.6630 C   0  0  0  0  0  2  0  0  0  0  0  0
  -27.8540  -25.3340   19.7820 C   0  0  0  0  0  2  0  0  0  0  0  0
  -28.7150  -26.4980   19.2550 C   0  0  0  0  0  2  0  0  0  0  0  0
  -28.0610  -27.1960   18.2000 O   0  0  0  0  0  0  0  0  0  0  0  0
  -24.5300  -31.2980   22.8330 C   0  0  0  0  0  0  0  0  0  0  0  0
  -26.8930  -27.8180   18.5540 C   0  0  0  0  0  0  0  0  0  0  0  0
  -23.1600  -30.1880   21.0980 C   0  0  0  0  0  3  0  0  0  0  0  0
  -24.4610  -29.0810   19.2040 C   0  0  0  0  0  0  0  0  0  0  0  0
  -25.6130  -30.7580   20.6600 C   0  0  0  0  0  2  0  0  0  0  0  0
  -25.6640  -29.5550   19.7430 C   0  0  0  0  0  0  0  0  0  0  0  0
  -26.8860  -28.9250   19.4260 C   0  0  0  0  0  3  0  0  0  0  0  0
  -25.6800  -27.3520   18.0070 C   0  0  0  0  0  3  0  0  0  0  0  0
  -24.4600  -27.9700   18.3410 C   0  0  0  0  0  3  0  0  0  0  0  0
  -23.2000  -29.8190   19.5900 C   0  0  0  0  0  2  0  0  0  0  0  0
  -24.4600  -30.7500   21.5890 N   0  0  0  0  0  0  0  0  0  0  0  0
  -23.5250  -31.3810   23.5530 O   0  0  0  0  0  0  0  0  0  0  0  0
  -22.6900  -28.9480   21.8920 C   0  0  0  0  0  0  0  0  0  0  0  0
  -21.3800  -28.6630   21.8330 N   0  0  0  0  0  0  0  0  0  0  0  0
  -23.4970  -28.2550   22.5170 O   0  0  0  0  0  0  0  0  0  0  0  0
  -20.7840  -29.2830   21.3010 H   0  0  0  0  0  0  0  0  0  0  0  0
  -18.1910  -27.0230   22.2660 C   0  0  0  0  0  0  0  0  0  0  0  0
  -20.7180  -27.5250   22.4690 C   0  0  0  0  0  3  0  0  0  0  0  0
  -20.9360  -26.2290   21.6560 C   0  0  0  0  0  2  0  0  0  0  0  0
  -19.8140  -25.9490   20.6510 C   0  0  0  0  0  2  0  0  0  0  0  0
  -18.4660  -25.8300   21.3680 C   0  0  0  0  0  2  0  0  0  0  0  0
  -19.2450  -27.8300   22.7680 C   0  0  0  0  0  0  0  0  0  0  0  0
  -18.9280  -28.9510   23.5670 C   0  0  0  0  0  3  0  0  0  0  0  0
  -17.5900  -29.2640   23.8690 C   0  0  0  0  0  3  0  0  0  0  0  0
  -16.5520  -28.4530   23.3820 C   0  0  0  0  0  3  0  0  0  0  0  0
  -16.8520  -27.3340   22.5860 C   0  0  0  0  0  3  0  0  0  0  0  0
  -25.8660  -31.8690   23.4030 C   0  0  0  0  0  3  0  0  0  0  0  0
  -25.5710  -33.1850   23.9830 N   0  0  0  0  0  0  0  0  0  0  0  0
  -25.8630  -34.3540   23.3990 C   0  0  0  0  0  0  0  0  0  0  0  0
  -26.4820  -34.4340   22.3330 O   0  0  0  0  0  0  0  0  0  0  0  0
  -25.0170  -33.1950   24.8270 H   0  0  0  0  0  0  0  0  0  0  0  0
  -24.1390  -36.1860   23.4070 C   0  0  0  0  0  1  0  0  0  0  0  0
  -25.3940  -35.6400   24.1070 C   0  0  0  0  0  3  0  0  0  0  0  0
  -27.5520  -36.3530   25.0370 C   0  0  0  0  0  1  0  0  0  0  0  0
  -26.4310  -36.6920   24.1630 N   0  0  0  0  0  0  0  0  0  0  0  0
  -26.0350  -37.5720   24.4820 H   0  0  0  0  0  0  0  0  0  0  0  0
  -26.5420  -30.9230   24.4720 C   0  0  1  0  0  0  0  0  0  0  0  0
  -25.5800  -30.4630   25.5920 C   0  0  0  0  0  1  0  0  0  0  0  0
  -27.1130  -29.6560   23.7920 C   0  0  0  0  0  1  0  0  0  0  0  0
  -27.7420  -31.6450   25.1290 C   0  0  0  0  0  1  0  0  0  0  0  0
  1  2  1  0
  1  5  1  0
  2  4  1  0
  3  1  2  0
  6  7  1  0
  6  9  1  0
  7 10  1  0
  9 11  1  0
  9  8  1  0
 10  8  1  0
 10  5  1  0
 12 11  1  0
 13 18  1  0
 14 15  1  0
 14 13  1  0
 16 15  1  0
 16 23  1  0
 16 17  1  0
 18 12  1  0
 18 17  1  0
 19 12  2  0
 20 21  2  0
 21 40  1  0
 22 25  1  0
 22 21  1  0
 23 24  1  0
 23 20  1  0
 24 22  2  0
 25 26  1  0
 26 27  2  0
 28 31  1  0
 28 27  1  0
 29 28  2  0
 30 29  1  0
 30 25  2  0
 31 32  1  0
 32 37  2  0
 32 33  1  0
 33 34  2  0
 34 35  1  0
 35 39  1  0
 36 35  2  0
 37 36  1  0
 38 37  1  0
 40 41  1  0
 41 44  1  0
 41 43  1  0
 42 40  2  0
 45 20  1  0
 45 46  1  0
 47 45  1  0
 48  2  1  0
 49 48  1  0
 50 49  1  0
 51 50  1  0
 52 54  1  0
 52 51  1  0
 53 64  2  0
 54 59  1  0
 55 63  1  0
 55 65  1  0
 56 62  1  0
 56 58  1  0
 57 63  1  0
 58 57  1  0
 59 58  2  0
 60 61  1  0
 60 54  2  0
 61 56  2  0
 62 55  1  0
 63 53  1  0
 65 67  2  0
 66 65  1  0
 68 66  1  0
 69 78  2  0
 69 74  1  0
 70 66  1  0
 70 74  1  0
 71 70  1  0
 72 73  1  0
 72 71  1  0
 73 69  1  0
 74 75  2  0
 75 76  1  0
 77 76  2  0
 78 77  1  0
 79 53  1  0
 79 80  1  0
 79 89  1  0
 80 83  1  0
 81 80  1  0
 81 85  1  0
 82 81  2  0
 85 84  1  0
 85 87  1  0
 87 88  1  0
 87 86  1  0
 89 92  1  1
 89 90  1  0
 91 89  1  0
M  ISO  4  11 100  12 100  51 101  52 101
M  END
>  <TORSDO>  (54) 
F 23

>  <SCORE>  (54) 
-6.143

>  <name>  (54) 
54

>  <ligand_id>  (54) 
54

>  <original_smiles>  (54) 
[H]c1c([H])c([H])c2c(c1[H])C([H])([H])C([H])([H])C([H])([H])C2([H])N([H])C(=O)C1([H])N(C(=O)C([H])(N([H])C(=O)C([H])(N([H])C([H])([H])[H])C([H])([H])[H])C(C([H])([H])[H])(C([H])([H])[H])C([H])([H])[H])C([H])([H])c2c([H])c(OC([H])([H])C([H])([H])C([H])([H])C([H])([H])N([H])C(=O)C([H])([H])C3([H])C([H])([H])C([H])([H])C([H])(C([H])([H])C(=O)N4C([H])([H])C([H])([H])C([H])([H])C([H])(n5nc(-c6c([H])c([H])c(Oc7c([H])c([H])c(F)c([H])c7F)c([H])c6[H])c(C(=O)N([H])[H])c5N([H])[H])C4([H])[H])C3([H])[H])c([H])c([H])c2C1([H])[H]

>  <smiles>  (54) 
[H]c1c([H])c([H])c2c(c1[H])C([H])([H])C([H])([H])C([H])([H])C2([H])N([H])C(=O)C1([H])N(C(=O)C([H])(N([H])C(=O)C([H])(N([H])C([H])([H])[H])C([H])([H])[H])C(C([H])([H])[H])(C([H])([H])[H])C([H])([H])[H])C([H])([H])c2c([H])c(OC([H])([H])C([H])([H])C([H])([H])C([H])([H])N([H])C(=O)C([H])([H])C3([H])C([H])([H])C([H])([H])C([H])(C([H])([H])C(=O)N4C([H])([H])C([H])([H])C([H])([H])C([H])(n5nc(-c6c([H])c([H])c(Oc7c([H])c([H])c(F)c([H])c7F)c([H])c6[H])c(C(=O)N([H])[H])c5N([H])[H])C4([H])[H])C3([H])[H])c([H])c([H])c2C1([H])[H]

$$$$
55:0:0
     RDKit          3D

 88 96  0  0  1  0  0  0  0  0999 V2000
  -28.5170  -22.9450   20.4230 C   0  0  0  0  0  3  0  0  0  0  0  0
  -28.9170  -21.6340   19.8870 C   0  0  0  0  0  0  0  0  0  0  0  0
  -29.1380  -21.5760   18.3900 C   0  0  0  0  0  1  0  0  0  0  0  0
  -31.5410  -19.8280   21.6000 C   0  0  0  0  0  2  0  0  0  0  0  0
  -31.9800  -19.7030   20.1270 C   0  0  0  0  0  2  0  0  0  0  0  0
  -30.0540  -20.1870   21.8250 C   0  0  0  0  0  2  0  0  0  0  0  0
  -31.0720  -18.8200   19.2430 C   0  0  0  0  0  2  0  0  0  0  0  0
  -29.1780  -20.0610   20.5710 C   0  0  0  0  0  3  0  0  0  0  0  0
  -29.6930  -18.5160   19.8450 C   0  0  0  0  0  3  0  0  0  0  0  0
  -29.7260  -16.8450   20.4970 C   0  0  0  0  0  2  0  0  0  0  0  0
  -30.5510  -15.3620   20.0680 C   0  0  0  0  0  0  0  0  0  0  0  0
  -30.5550  -12.9470   19.1410 C   0  0  0  0  0  2  0  0  0  0  0  0
  -29.5810  -12.7960   17.9430 C   0  0  0  0  0  2  0  0  0  0  0  0
  -28.1470  -12.5150   18.4280 C   0  0  0  0  0  2  0  0  0  0  0  0
  -27.7480  -13.4320   19.6140 C   0  0  0  0  0  3  0  0  0  0  0  0
  -28.8380  -13.5220   20.7000 C   0  0  0  0  0  2  0  0  0  0  0  0
  -30.0480  -14.0360   20.0480 N   0  0  0  0  0  0  0  0  0  0  0  0
  -31.7300  -15.4160   19.6880 O   0  0  0  0  0  0  0  0  0  0  0  0
  -25.4150  -13.9590   20.4990 C   0  0  0  0  0  0  0  0  0  0  0  0
  -24.3760  -13.1670   20.8960 C   0  0  0  0  0  0  0  0  0  0  0  0
  -24.8440  -11.8200   20.7980 C   0  0  0  0  0  0  0  0  0  0  0  0
  -26.4460  -13.0950   20.1700 N   0  0  0  0  0  0  0  0  0  0  0  0
  -26.1170  -11.8010   20.4170 N   0  0  0  0  0  0  0  0  0  0  0  0
  -24.1300  -10.5500   20.9860 C   0  0  0  0  0  0  0  0  0  0  0  0
  -24.5660   -9.5870   21.9220 C   0  0  0  0  0  3  0  0  0  0  0  0
  -23.8490   -8.3830   22.0970 C   0  0  0  0  0  3  0  0  0  0  0  0
  -22.6820   -8.1340   21.3350 C   0  0  0  0  0  0  0  0  0  0  0  0
  -22.2650   -9.0880   20.3890 C   0  0  0  0  0  3  0  0  0  0  0  0
  -22.9820  -10.2830   20.2120 C   0  0  0  0  0  3  0  0  0  0  0  0
  -21.9370   -6.9840   21.4200 O   0  0  0  0  0  0  0  0  0  0  0  0
  -21.8380   -6.2730   22.5890 C   0  0  0  0  0  0  0  0  0  0  0  0
  -21.2980   -6.8400   23.7640 C   0  0  0  0  0  3  0  0  0  0  0  0
  -21.1520   -6.0540   24.9240 C   0  0  0  0  0  3  0  0  0  0  0  0
  -21.5380   -4.6990   24.9100 C   0  0  0  0  0  0  0  0  0  0  0  0
  -22.0730   -4.1320   23.7400 C   0  0  0  0  0  3  0  0  0  0  0  0
  -22.2190   -4.9160   22.5820 C   0  0  0  0  0  0  0  0  0  0  0  0
  -22.7160   -4.3570   21.4510 F   0  0  0  0  0  0  0  0  0  0  0  0
  -21.3900   -3.9420   26.0210 F   0  0  0  0  0  0  0  0  0  0  0  0
  -22.9940  -13.6310   21.2510 C   0  0  0  0  0  0  0  0  0  0  0  0
  -22.3090  -12.9050   22.1270 N   0  0  0  0  0  0  0  0  0  0  0  0
  -22.5320  -14.6730   20.7880 O   0  0  0  0  0  0  0  0  0  0  0  0
  -22.6990  -12.0610   22.5220 H   0  0  0  0  0  0  0  0  0  0  0  0
  -21.3840  -13.1950   22.4060 H   0  0  0  0  0  0  0  0  0  0  0  0
  -25.5690  -15.3370   20.3600 N   0  0  0  0  0  0  0  0  0  0  0  0
  -24.8160  -15.9900   20.5430 H   0  0  0  0  0  0  0  0  0  0  0  0
  -26.4040  -15.7860   20.0030 H   0  0  0  0  0  0  0  0  0  0  0  0
  -28.0680  -24.4630   19.7360 C   0  0  0  0  0  2  0  0  0  0  0  0
  -28.1580  -25.9960   20.2680 O   0  0  0  0  0  0  0  0  0  0  0  0
  -24.6540  -31.9390   23.1610 C   0  0  0  0  0  0  0  0  0  0  0  0
  -27.1550  -27.0810   20.1370 C   0  0  0  0  0  0  0  0  0  0  0  0
  -23.4320  -30.5380   21.5470 C   0  0  0  0  0  3  0  0  0  0  0  0
  -24.8610  -28.9440   20.1010 C   0  0  0  0  0  0  0  0  0  0  0  0
  -25.9930  -30.7590   21.3590 C   0  0  0  0  0  2  0  0  0  0  0  0
  -26.0520  -29.3520   20.7110 C   0  0  0  0  0  0  0  0  0  0  0  0
  -27.1900  -28.4370   20.7200 C   0  0  0  0  0  3  0  0  0  0  0  0
  -25.9460  -26.8290   19.4520 C   0  0  0  0  0  3  0  0  0  0  0  0
  -24.8280  -27.7020   19.4500 C   0  0  0  0  0  3  0  0  0  0  0  0
  -23.6410  -29.8600   20.1660 C   0  0  0  0  0  2  0  0  0  0  0  0
  -24.7160  -31.1020   22.0780 N   0  0  0  0  0  0  0  0  0  0  0  0
  -23.5750  -32.2330   23.6980 O   0  0  0  0  0  0  0  0  0  0  0  0
  -22.7600  -29.5380   22.5200 C   0  0  0  0  0  0  0  0  0  0  0  0
  -21.4290  -29.3740   22.4140 N   0  0  0  0  0  0  0  0  0  0  0  0
  -23.4400  -28.9130   23.3390 O   0  0  0  0  0  0  0  0  0  0  0  0
  -20.9370  -29.9250   21.7250 H   0  0  0  0  0  0  0  0  0  0  0  0
  -18.0510  -28.1780   22.9670 C   0  0  0  0  0  0  0  0  0  0  0  0
  -20.6160  -28.4430   23.2030 C   0  0  0  0  0  3  0  0  0  0  0  0
  -20.7120  -27.0060   22.6390 C   0  0  0  0  0  2  0  0  0  0  0  0
  -19.5970  -26.6790   21.6400 C   0  0  0  0  0  2  0  0  0  0  0  0
  -18.2220  -26.8260   22.2960 C   0  0  0  0  0  2  0  0  0  0  0  0
  -19.1750  -28.9420   23.3800 C   0  0  0  0  0  0  0  0  0  0  0  0
  -18.9630  -30.2060   23.9740 C   0  0  0  0  0  3  0  0  0  0  0  0
  -17.6590  -30.7040   24.1580 C   0  0  0  0  0  3  0  0  0  0  0  0
  -16.5510  -29.9360   23.7650 C   0  0  0  0  0  3  0  0  0  0  0  0
  -16.7480  -28.6750   23.1740 C   0  0  0  0  0  3  0  0  0  0  0  0
  -25.9370  -32.5800   23.7660 C   0  0  0  0  0  3  0  0  0  0  0  0
  -26.4780  -31.8040   25.0290 C   0  0  1  0  0  0  0  0  0  0  0  0
  -25.3990  -31.5480   26.1080 C   0  0  0  0  0  1  0  0  0  0  0  0
  -27.0680  -30.4320   24.6230 C   0  0  0  0  0  1  0  0  0  0  0  0
  -27.6280  -32.6030   25.6860 C   0  0  0  0  0  1  0  0  0  0  0  0
  -25.6210  -33.9740   24.1230 N   0  0  0  0  0  0  0  0  0  0  0  0
  -25.9320  -35.0460   23.3820 C   0  0  0  0  0  0  0  0  0  0  0  0
  -26.5810  -34.9660   22.3370 O   0  0  0  0  0  0  0  0  0  0  0  0
  -25.0390  -34.1080   24.9370 H   0  0  0  0  0  0  0  0  0  0  0  0
  -24.2020  -36.8550   23.0870 C   0  0  0  0  0  1  0  0  0  0  0  0
  -25.4490  -36.4250   23.8780 C   0  0  0  0  0  3  0  0  0  0  0  0
  -27.5820  -37.3000   24.7230 C   0  0  0  0  0  1  0  0  0  0  0  0
  -26.4790  -37.4810   23.7830 N   0  0  0  0  0  0  0  0  0  0  0  0
  -26.0720  -38.3970   23.9490 H   0  0  0  0  0  0  0  0  0  0  0  0
  2  1  2  0
  3  2  1  0
  4  6  1  0
  5  4  1  0
  7  9  1  0
  7  5  1  0
  8  2  1  0
  8  6  1  0
  9 10  1  0
  9  8  1  0
 11 10  1  0
 12 17  1  0
 13 14  1  0
 13 12  1  0
 15 14  1  0
 15 22  1  0
 15 16  1  0
 17 11  1  0
 17 16  1  0
 18 11  2  0
 19 20  2  0
 20 39  1  0
 21 20  1  0
 21 24  1  0
 22 23  1  0
 22 19  1  0
 23 21  2  0
 24 25  1  0
 25 26  2  0
 27 30  1  0
 27 26  1  0
 28 27  2  0
 29 28  1  0
 29 24  2  0
 30 31  1  0
 31 32  1  0
 32 33  2  0
 34 33  1  0
 34 38  1  0
 35 34  2  0
 36 31  2  0
 36 35  1  0
 37 36  1  0
 39 40  1  0
 40 43  1  0
 40 42  1  0
 41 39  2  0
 44 19  1  0
 44 45  1  0
 46 44  1  0
 47 48  1  0
 47  1  1  0
 49 60  2  0
 50 48  1  0
 50 55  1  0
 51 59  1  0
 51 61  1  0
 52 58  1  0
 52 54  1  0
 53 59  1  0
 54 55  2  0
 54 53  1  0
 56 50  2  0
 57 56  1  0
 57 52  2  0
 58 51  1  0
 59 49  1  0
 61 63  2  0
 62 61  1  0
 64 62  1  0
 65 74  2  0
 65 70  1  0
 66 62  1  0
 66 70  1  0
 67 66  1  0
 68 69  1  0
 68 67  1  0
 69 65  1  0
 70 71  2  0
 71 72  1  0
 73 72  2  0
 74 73  1  0
 75 49  1  0
 75 80  1  0
 75 76  1  0
 76 79  1  1
 76 77  1  0
 78 76  1  0
 80 83  1  0
 81 85  1  0
 81 80  1  0
 82 81  2  0
 85 84  1  0
 87 85  1  0
 87 88  1  0
 87 86  1  0
M  ISO  4  10 100  11 100  47 101  48 101
M  END
>  <TORSDO>  (55) 
F 19

>  <SCORE>  (55) 
-15.987

>  <name>  (55) 
55

>  <ligand_id>  (55) 
55

>  <original_smiles>  (55) 
[H]C(=C(C([H])([H])[H])C1([H])C([H])([H])C([H])([H])C([H])([H])C([H])([H])C1([H])C([H])([H])C(=O)N1C([H])([H])C([H])([H])C([H])([H])C([H])(n2nc(-c3c([H])c([H])c(Oc4c([H])c([H])c(F)c([H])c4F)c([H])c3[H])c(C(=O)N([H])[H])c2N([H])[H])C1([H])[H])C([H])([H])Oc1c([H])c([H])c2c(c1[H])C([H])([H])N(C(=O)C([H])(N([H])C(=O)C([H])(N([H])C([H])([H])[H])C([H])([H])[H])C(C([H])([H])[H])(C([H])([H])[H])C([H])([H])[H])C([H])(C(=O)N([H])C1([H])c3c([H])c([H])c([H])c([H])c3C([H])([H])C([H])([H])C1([H])[H])C2([H])[H]

>  <smiles>  (55) 
[H]C(=C(C([H])([H])[H])C1([H])C([H])([H])C([H])([H])C([H])([H])C([H])([H])C1([H])C([H])([H])C(=O)N1C([H])([H])C([H])([H])C([H])([H])C([H])(n2nc(-c3c([H])c([H])c(Oc4c([H])c([H])c(F)c([H])c4F)c([H])c3[H])c(C(=O)N([H])[H])c2N([H])[H])C1([H])[H])C([H])([H])Oc1c([H])c([H])c2c(c1[H])C([H])([H])N(C(=O)C([H])(N([H])C(=O)C([H])(N([H])C([H])([H])[H])C([H])([H])[H])C(C([H])([H])[H])(C([H])([H])[H])C([H])([H])[H])C([H])(C(=O)N([H])C1([H])c3c([H])c([H])c([H])c([H])c3C([H])([H])C([H])([H])C1([H])[H])C2([H])[H]

$$$$
56:0:0
     RDKit          3D

 93101  0  0  1  0  0  0  0  0999 V2000
  -28.8770  -20.2310   19.2220 C   0  0  0  0  0  3  0  0  0  0  0  0
  -30.8070  -19.3790   15.9880 C   0  0  0  0  0  2  0  0  0  0  0  0
  -29.7690  -20.3900   15.4810 C   0  0  0  0  0  2  0  0  0  0  0  0
  -30.5500  -19.2150   17.4950 C   0  0  0  0  0  2  0  0  0  0  0  0
  -28.8200  -20.6280   16.6560 C   0  0  0  0  0  2  0  0  0  0  0  0
  -29.6860  -20.4170   17.9080 C   0  0  0  0  0  3  0  0  0  0  0  0
  -29.7200  -19.5640   20.2640 N   0  0  0  0  0  4  0  0  0  0  0  0
  -30.6200  -19.4200   19.8380 H   0  0  0  0  0  0  0  0  0  0  0  0
  -29.8650  -20.1900   21.0390 H   0  0  0  0  0  0  0  0  0  0  0  0
  -29.2510  -18.2330   20.7700 C   0  0  0  0  0  2  0  0  0  0  0  0
  -30.3730  -17.1520   20.8530 C   0  0  0  0  0  2  0  0  0  0  0  0
  -29.9140  -15.7590   21.3990 C   0  0  0  0  0  2  0  0  0  0  0  0
  -30.6680  -14.5400   20.7950 C   0  0  0  0  0  0  0  0  0  0  0  0
  -30.4270  -12.4110   19.5610 C   0  0  0  0  0  2  0  0  0  0  0  0
  -29.5050  -12.6600   18.3490 C   0  0  0  0  0  2  0  0  0  0  0  0
  -28.0240  -12.4890   18.7440 C   0  0  0  0  0  2  0  0  0  0  0  0
  -27.6570  -13.2730   20.0310 C   0  0  0  0  0  3  0  0  0  0  0  0
  -28.6970  -13.0170   21.1470 C   0  0  0  0  0  2  0  0  0  0  0  0
  -30.0270  -13.3500   20.6190 N   0  0  0  0  0  0  0  0  0  0  0  0
  -31.8110  -14.7260   20.3680 O   0  0  0  0  0  0  0  0  0  0  0  0
  -25.2410  -13.8420   20.7050 C   0  0  0  0  0  0  0  0  0  0  0  0
  -24.1720  -13.0510   21.0320 C   0  0  0  0  0  0  0  0  0  0  0  0
  -24.6480  -11.7040   20.9800 C   0  0  0  0  0  0  0  0  0  0  0  0
  -26.2990  -12.9760   20.4760 N   0  0  0  0  0  0  0  0  0  0  0  0
  -25.9440  -11.6840   20.7000 N   0  0  0  0  0  0  0  0  0  0  0  0
  -23.9300  -10.4320   21.1260 C   0  0  0  0  0  0  0  0  0  0  0  0
  -24.3540   -9.4480   22.0460 C   0  0  0  0  0  3  0  0  0  0  0  0
  -23.6370   -8.2390   22.1810 C   0  0  0  0  0  3  0  0  0  0  0  0
  -22.4830   -8.0070   21.3960 C   0  0  0  0  0  0  0  0  0  0  0  0
  -22.0790   -8.9810   20.4650 C   0  0  0  0  0  3  0  0  0  0  0  0
  -22.7960  -10.1810   20.3280 C   0  0  0  0  0  3  0  0  0  0  0  0
  -21.7410   -6.8520   21.4400 O   0  0  0  0  0  0  0  0  0  0  0  0
  -21.6780   -6.0790   22.5710 C   0  0  0  0  0  0  0  0  0  0  0  0
  -21.1970   -6.5890   23.7970 C   0  0  0  0  0  3  0  0  0  0  0  0
  -21.0860   -5.7420   24.9170 C   0  0  0  0  0  3  0  0  0  0  0  0
  -21.4450   -4.3840   24.8120 C   0  0  0  0  0  0  0  0  0  0  0  0
  -21.9180   -3.8740   23.5920 C   0  0  0  0  0  3  0  0  0  0  0  0
  -22.0320   -4.7180   22.4740 C   0  0  0  0  0  0  0  0  0  0  0  0
  -22.4690   -4.2160   21.2940 F   0  0  0  0  0  0  0  0  0  0  0  0
  -21.3300   -3.5670   25.8860 F   0  0  0  0  0  0  0  0  0  0  0  0
  -22.7650  -13.5070   21.2850 C   0  0  0  0  0  0  0  0  0  0  0  0
  -22.0300  -12.7860   22.1240 N   0  0  0  0  0  0  0  0  0  0  0  0
  -22.3250  -14.5370   20.7760 O   0  0  0  0  0  0  0  0  0  0  0  0
  -22.3990  -11.9530   22.5580 H   0  0  0  0  0  0  0  0  0  0  0  0
  -21.0860  -13.0720   22.3380 H   0  0  0  0  0  0  0  0  0  0  0  0
  -25.3990  -15.2180   20.5630 N   0  0  0  0  0  0  0  0  0  0  0  0
  -24.6260  -15.8660   20.6660 H   0  0  0  0  0  0  0  0  0  0  0  0
  -26.2530  -15.6640   20.2580 H   0  0  0  0  0  0  0  0  0  0  0  0
  -28.1690  -21.5450   19.7130 C   0  0  0  0  0  3  0  0  0  0  0  0
  -28.9150  -22.9040   19.5470 C   0  0  0  0  0  3  0  0  0  0  0  0
  -28.1620  -24.1540   20.0940 C   0  0  0  0  0  2  0  0  0  0  0  0
  -28.6340  -25.4850   19.4420 C   0  0  0  0  0  2  0  0  0  0  0  0
  -28.4050  -26.6650   20.2270 O   0  0  0  0  0  0  0  0  0  0  0  0
  -24.5070  -31.7850   23.2520 C   0  0  0  0  0  0  0  0  0  0  0  0
  -27.2060  -27.3530   20.1810 C   0  0  0  0  0  0  0  0  0  0  0  0
  -23.3270  -30.3960   21.5770 C   0  0  0  0  0  3  0  0  0  0  0  0
  -24.8040  -28.8620   20.1670 C   0  0  0  0  0  0  0  0  0  0  0  0
  -25.8550  -30.7490   21.4300 C   0  0  0  0  0  2  0  0  0  0  0  0
  -25.9490  -29.3810   20.7830 C   0  0  0  0  0  0  0  0  0  0  0  0
  -27.1460  -28.6310   20.7900 C   0  0  0  0  0  3  0  0  0  0  0  0
  -26.0380  -26.8480   19.5660 C   0  0  0  0  0  3  0  0  0  0  0  0
  -24.8420  -27.5950   19.5620 C   0  0  0  0  0  3  0  0  0  0  0  0
  -23.5600  -29.7200   20.1970 C   0  0  0  0  0  2  0  0  0  0  0  0
  -24.5800  -30.9930   22.1440 N   0  0  0  0  0  0  0  0  0  0  0  0
  -23.4180  -32.0560   23.7760 O   0  0  0  0  0  0  0  0  0  0  0  0
  -22.6570  -29.3710   22.5210 C   0  0  0  0  0  0  0  0  0  0  0  0
  -21.3320  -29.2060   22.3790 N   0  0  0  0  0  0  0  0  0  0  0  0
  -23.3270  -28.7310   23.3360 O   0  0  0  0  0  0  0  0  0  0  0  0
  -20.8530  -29.7810   21.7000 H   0  0  0  0  0  0  0  0  0  0  0  0
  -17.9360  -28.0660   22.8620 C   0  0  0  0  0  0  0  0  0  0  0  0
  -20.4980  -28.2660   23.1310 C   0  0  0  0  0  3  0  0  0  0  0  0
  -20.5700  -26.8470   22.5210 C   0  0  0  0  0  2  0  0  0  0  0  0
  -19.4600  -26.5710   21.5020 C   0  0  0  0  0  2  0  0  0  0  0  0
  -18.0830  -26.7290   22.1550 C   0  0  0  0  0  2  0  0  0  0  0  0
  -19.0710  -28.7960   23.3060 C   0  0  0  0  0  0  0  0  0  0  0  0
  -18.8820  -30.0480   23.9290 C   0  0  0  0  0  3  0  0  0  0  0  0
  -17.5890  -30.5740   24.1080 C   0  0  0  0  0  3  0  0  0  0  0  0
  -16.4680  -29.8420   23.6810 C   0  0  0  0  0  3  0  0  0  0  0  0
  -16.6420  -28.5900   23.0640 C   0  0  0  0  0  3  0  0  0  0  0  0
  -25.7820  -32.4110   23.8980 C   0  0  0  0  0  3  0  0  0  0  0  0
  -26.2640  -31.6460   25.1930 C   0  0  1  0  0  0  0  0  0  0  0  0
  -25.1440  -31.4230   26.2360 C   0  0  0  0  0  1  0  0  0  0  0  0
  -26.8470  -30.2630   24.8230 C   0  0  0  0  0  1  0  0  0  0  0  0
  -27.4060  -32.4360   25.8760 C   0  0  0  0  0  1  0  0  0  0  0  0
  -25.4780  -33.8150   24.2080 N   0  0  0  0  0  0  0  0  0  0  0  0
  -25.8440  -34.8580   23.4500 C   0  0  0  0  0  0  0  0  0  0  0  0
  -26.5420  -34.7390   22.4390 O   0  0  0  0  0  0  0  0  0  0  0  0
  -24.8600  -33.9830   24.9890 H   0  0  0  0  0  0  0  0  0  0  0  0
  -24.1490  -36.6660   23.0290 C   0  0  0  0  0  1  0  0  0  0  0  0
  -25.3590  -36.2550   23.8820 C   0  0  0  0  0  3  0  0  0  0  0  0
  -27.4720  -37.1250   24.7810 C   0  0  0  0  0  1  0  0  0  0  0  0
  -26.4080  -37.2950   23.7950 N   0  0  0  0  0  0  0  0  0  0  0  0
  -26.0060  -38.2210   23.9180 H   0  0  0  0  0  0  0  0  0  0  0  0
  1 49  1  0
  1  7  1  0
  2  4  1  0
  3  2  1  0
  3  5  1  0
  4  6  1  0
  5  6  1  0
  6  1  1  0
  7 10  1  0
  7  9  1  0
  8  7  1  0
 10 11  1  0
 11 12  1  0
 13 12  1  0
 14 19  1  0
 15 16  1  0
 15 14  1  0
 17 16  1  0
 17 24  1  0
 17 18  1  0
 19 13  1  0
 19 18  1  0
 20 13  2  0
 21 22  2  0
 22 41  1  0
 23 22  1  0
 23 26  1  0
 24 25  1  0
 24 21  1  0
 25 23  2  0
 26 27  1  0
 27 28  2  0
 29 32  1  0
 29 28  1  0
 30 29  2  0
 31 30  1  0
 31 26  2  0
 32 33  1  0
 33 34  1  0
 34 35  2  0
 36 35  1  0
 36 40  1  0
 37 36  2  0
 38 33  2  0
 38 37  1  0
 39 38  1  0
 41 42  1  0
 42 45  1  0
 42 44  1  0
 43 41  2  0
 46 47  1  0
 46 21  1  0
 48 46  1  0
 50 49  2  0
 50 51  1  0
 52 51  1  0
 52 53  1  0
 54 65  2  0
 55 53  1  0
 55 60  1  0
 56 64  1  0
 56 66  1  0
 57 63  1  0
 57 59  1  0
 58 64  1  0
 59 60  2  0
 59 58  1  0
 61 55  2  0
 62 61  1  0
 62 57  2  0
 63 56  1  0
 64 54  1  0
 66 68  2  0
 67 66  1  0
 69 67  1  0
 70 79  2  0
 70 75  1  0
 71 67  1  0
 71 75  1  0
 72 71  1  0
 73 74  1  0
 73 72  1  0
 74 70  1  0
 75 76  2  0
 76 77  1  0
 78 77  2  0
 79 78  1  0
 80 54  1  0
 80 85  1  0
 80 81  1  0
 81 84  1  1
 81 82  1  0
 83 81  1  0
 85 88  1  0
 86 90  1  0
 86 85  1  0
 87 86  2  0
 90 89  1  0
 92 90  1  0
 92 93  1  0
 92 91  1  0
M  ISO  4  12 100  13 100  52 101  53 101
M  END
>  <TORSDO>  (56) 
F 25

>  <SCORE>  (56) 
-12.031

>  <name>  (56) 
56

>  <ligand_id>  (56) 
56

>  <original_smiles>  (56) 
[H]c1c([H])c([H])c2c(c1[H])C([H])([H])C([H])([H])C([H])([H])C2([H])N([H])C(=O)C1([H])N(C(=O)C([H])(N([H])C(=O)C([H])(N([H])C([H])([H])[H])C([H])([H])[H])C(C([H])([H])[H])(C([H])([H])[H])C([H])([H])[H])C([H])([H])c2c([H])c(OC([H])([H])C([H])([H])C([H])([H])C([H])([H])C([H])(C3([H])C([H])([H])C([H])([H])C([H])([H])C3([H])[H])[N+]([H])([H])C([H])([H])C([H])([H])C([H])([H])C(=O)N3C([H])([H])C([H])([H])C([H])([H])C([H])(n4nc(-c5c([H])c([H])c(Oc6c([H])c([H])c(F)c([H])c6F)c([H])c5[H])c(C(=O)N([H])[H])c4N([H])[H])C3([H])[H])c([H])c([H])c2C1([H])[H]

>  <smiles>  (56) 
[H]c1c([H])c([H])c2c(c1[H])C([H])([H])C([H])([H])C([H])([H])C2([H])N([H])C(=O)C1([H])N(C(=O)C([H])(N([H])C(=O)C([H])(N([H])C([H])([H])[H])C([H])([H])[H])C(C([H])([H])[H])(C([H])([H])[H])C([H])([H])[H])C([H])([H])c2c([H])c(OC([H])([H])C([H])([H])C([H])([H])C([H])([H])C([H])(C3([H])C([H])([H])C([H])([H])C([H])([H])C3([H])[H])[N+]([H])([H])C([H])([H])C([H])([H])C([H])([H])C(=O)N3C([H])([H])C([H])([H])C([H])([H])C([H])(n4nc(-c5c([H])c([H])c(Oc6c([H])c([H])c(F)c([H])c6F)c([H])c5[H])c(C(=O)N([H])[H])c4N([H])[H])C3([H])[H])c([H])c([H])c2C1([H])[H]

$$$$
57:0:0
     RDKit          3D

 88 96  0  0  1  0  0  0  0  0999 V2000
  -29.7520  -20.7730   20.5620 C   0  0  0  0  0  3  0  0  0  0  0  0
  -30.0350  -18.8870   18.7800 C   0  0  0  0  0  0  0  0  0  0  0  0
  -29.5290  -19.0150   17.5410 C   0  0  0  0  0  2  0  0  0  0  0  0
  -31.2470  -18.1100   19.2660 C   0  0  0  0  0  3  0  0  0  0  0  0
  -29.4600  -19.1950   20.1530 C   0  0  0  0  0  3  0  0  0  0  0  0
  -30.3370  -17.8140   20.4980 C   0  0  0  0  0  3  0  0  0  0  0  0
  -32.5130  -18.9680   19.4040 C   0  0  0  0  0  1  0  0  0  0  0  0
  -29.7370  -16.2750   20.6710 C   0  0  0  0  0  2  0  0  0  0  0  0
  -30.5480  -14.8790   20.4030 C   0  0  0  0  0  0  0  0  0  0  0  0
  -30.3650  -12.5780   19.3930 C   0  0  0  0  0  2  0  0  0  0  0  0
  -29.4320  -12.6390   18.1580 C   0  0  0  0  0  2  0  0  0  0  0  0
  -27.9570  -12.4660   18.5750 C   0  0  0  0  0  2  0  0  0  0  0  0
  -27.5690  -13.3420   19.7940 C   0  0  0  0  0  3  0  0  0  0  0  0
  -28.6310  -13.2680   20.9150 C   0  0  0  0  0  2  0  0  0  0  0  0
  -29.9340  -13.6350   20.3420 N   0  0  0  0  0  0  0  0  0  0  0  0
  -31.7420  -14.9460   20.0920 O   0  0  0  0  0  0  0  0  0  0  0  0
  -25.1750  -13.9170   20.5200 C   0  0  0  0  0  0  0  0  0  0  0  0
  -24.1080  -13.1430   20.8850 C   0  0  0  0  0  0  0  0  0  0  0  0
  -24.5740  -11.7920   20.8530 C   0  0  0  0  0  0  0  0  0  0  0  0
  -26.2220  -13.0420   20.2810 N   0  0  0  0  0  0  0  0  0  0  0  0
  -25.8680  -11.7600   20.5490 N   0  0  0  0  0  0  0  0  0  0  0  0
  -23.8430  -10.5280   21.0340 C   0  0  0  0  0  0  0  0  0  0  0  0
  -24.2670   -9.5570   21.9670 C   0  0  0  0  0  3  0  0  0  0  0  0
  -23.5350   -8.3620   22.1390 C   0  0  0  0  0  3  0  0  0  0  0  0
  -22.3620   -8.1320   21.3810 C   0  0  0  0  0  0  0  0  0  0  0  0
  -21.9590   -9.0910   20.4340 C   0  0  0  0  0  3  0  0  0  0  0  0
  -22.6940  -10.2770   20.2600 C   0  0  0  0  0  3  0  0  0  0  0  0
  -21.6060   -6.9870   21.4570 O   0  0  0  0  0  0  0  0  0  0  0  0
  -21.5470   -6.2390   22.6060 C   0  0  0  0  0  0  0  0  0  0  0  0
  -21.1020   -6.7840   23.8300 C   0  0  0  0  0  3  0  0  0  0  0  0
  -20.9960   -5.9600   24.9690 C   0  0  0  0  0  3  0  0  0  0  0  0
  -21.3200   -4.5940   24.8820 C   0  0  0  0  0  0  0  0  0  0  0  0
  -21.7560   -4.0480   23.6610 C   0  0  0  0  0  3  0  0  0  0  0  0
  -21.8660   -4.8680   22.5250 C   0  0  0  0  0  0  0  0  0  0  0  0
  -22.2680   -4.3310   21.3480 F   0  0  0  0  0  0  0  0  0  0  0  0
  -21.2100   -3.8030   25.9750 F   0  0  0  0  0  0  0  0  0  0  0  0
  -22.7050  -13.6180   21.1400 C   0  0  0  0  0  0  0  0  0  0  0  0
  -21.9650  -12.9280   21.9990 N   0  0  0  0  0  0  0  0  0  0  0  0
  -22.2720  -14.6410   20.6110 O   0  0  0  0  0  0  0  0  0  0  0  0
  -22.3310  -12.1090   22.4600 H   0  0  0  0  0  0  0  0  0  0  0  0
  -21.0200  -13.2300   22.1940 H   0  0  0  0  0  0  0  0  0  0  0  0
  -25.3380  -15.2880   20.3470 N   0  0  0  0  0  0  0  0  0  0  0  0
  -24.5670  -15.9380   20.4650 H   0  0  0  0  0  0  0  0  0  0  0  0
  -26.1970  -15.7390   20.0560 H   0  0  0  0  0  0  0  0  0  0  0  0
  -28.7320  -22.0190   20.1790 C   0  0  0  0  0  3  0  0  0  0  0  0
  -29.0680  -23.6200   20.4530 C   0  0  0  0  0  3  0  0  0  0  0  0
  -28.0420  -24.8450   20.0350 C   0  0  0  0  0  3  0  0  0  0  0  0
  -28.2710  -26.3300   20.3030 O   0  0  0  0  0  0  0  0  0  0  0  0
  -24.5990  -31.9110   23.2680 C   0  0  0  0  0  0  0  0  0  0  0  0
  -27.1860  -27.2590   20.2340 C   0  0  0  0  0  0  0  0  0  0  0  0
  -23.3990  -30.5160   21.6260 C   0  0  0  0  0  3  0  0  0  0  0  0
  -24.8490  -28.9570   20.2000 C   0  0  0  0  0  0  0  0  0  0  0  0
  -25.9490  -30.7940   21.4680 C   0  0  0  0  0  2  0  0  0  0  0  0
  -26.0230  -29.4110   20.8160 C   0  0  0  0  0  0  0  0  0  0  0  0
  -27.1890  -28.5740   20.8230 C   0  0  0  0  0  3  0  0  0  0  0  0
  -25.9890  -26.8840   19.5860 C   0  0  0  0  0  3  0  0  0  0  0  0
  -24.8400  -27.7030   19.5710 C   0  0  0  0  0  3  0  0  0  0  0  0
  -23.6220  -29.8460   20.2430 C   0  0  0  0  0  2  0  0  0  0  0  0
  -24.6680  -31.0920   22.1760 N   0  0  0  0  0  0  0  0  0  0  0  0
  -23.5120  -32.2010   23.7920 O   0  0  0  0  0  0  0  0  0  0  0  0
  -22.7210  -29.5040   22.5820 C   0  0  0  0  0  0  0  0  0  0  0  0
  -21.3950  -29.3340   22.4450 N   0  0  0  0  0  0  0  0  0  0  0  0
  -23.3890  -28.8790   23.4100 O   0  0  0  0  0  0  0  0  0  0  0  0
  -20.9180  -29.8860   21.7470 H   0  0  0  0  0  0  0  0  0  0  0  0
  -18.0060  -28.1560   22.9230 C   0  0  0  0  0  0  0  0  0  0  0  0
  -20.5640  -28.4010   23.2100 C   0  0  0  0  0  3  0  0  0  0  0  0
  -20.6640  -26.9690   22.6310 C   0  0  0  0  0  2  0  0  0  0  0  0
  -19.5640  -26.6530   21.6130 C   0  0  0  0  0  2  0  0  0  0  0  0
  -18.1790  -26.8070   22.2460 C   0  0  0  0  0  2  0  0  0  0  0  0
  -19.1260  -28.9120   23.3610 C   0  0  0  0  0  0  0  0  0  0  0  0
  -18.9060  -30.1750   23.9510 C   0  0  0  0  0  3  0  0  0  0  0  0
  -17.6020  -30.6800   24.1100 C   0  0  0  0  0  3  0  0  0  0  0  0
  -16.4970  -29.9180   23.6920 C   0  0  0  0  0  3  0  0  0  0  0  0
  -16.7010  -28.6590   23.1030 C   0  0  0  0  0  3  0  0  0  0  0  0
  -25.8790  -32.5390   23.9000 C   0  0  0  0  0  3  0  0  0  0  0  0
  -25.5830  -33.9440   24.2130 N   0  0  0  0  0  0  0  0  0  0  0  0
  -25.9210  -34.9840   23.4410 C   0  0  0  0  0  0  0  0  0  0  0  0
  -26.5800  -34.8630   22.4060 O   0  0  0  0  0  0  0  0  0  0  0  0
  -25.0070  -34.1120   25.0250 H   0  0  0  0  0  0  0  0  0  0  0  0
  -24.2020  -36.7840   23.0820 C   0  0  0  0  0  1  0  0  0  0  0  0
  -25.4470  -36.3830   23.8880 C   0  0  0  0  0  3  0  0  0  0  0  0
  -27.5900  -37.2640   24.6930 C   0  0  0  0  0  1  0  0  0  0  0  0
  -26.4860  -37.4240   23.7530 N   0  0  0  0  0  0  0  0  0  0  0  0
  -26.0860  -38.3490   23.8910 H   0  0  0  0  0  0  0  0  0  0  0  0
  -26.3670  -31.7790   25.1930 C   0  0  1  0  0  0  0  0  0  0  0  0
  -25.2550  -31.5670   26.2470 C   0  0  0  0  0  1  0  0  0  0  0  0
  -26.9430  -30.3920   24.8270 C   0  0  0  0  0  1  0  0  0  0  0  0
  -27.5200  -32.5650   25.8620 C   0  0  0  0  0  1  0  0  0  0  0  0
  2  4  1  0
  2  5  1  0
  3  2  2  0
  4  7  1  0
  4  6  1  0
  5  6  1  0
  5  1  1  0
  6  8  1  0
  9  8  1  0
 10 15  1  0
 11 12  1  0
 11 10  1  0
 13 12  1  0
 13 20  1  0
 13 14  1  0
 15  9  1  0
 15 14  1  0
 16  9  2  0
 17 18  2  0
 18 37  1  0
 19 18  1  0
 19 22  1  0
 20 17  1  0
 20 21  1  0
 21 19  2  0
 22 23  1  0
 23 24  2  0
 25 28  1  0
 25 24  1  0
 26 25  2  0
 27 26  1  0
 27 22  2  0
 28 29  1  0
 29 30  1  0
 30 31  2  0
 32 31  1  0
 32 36  1  0
 33 32  2  0
 34 29  2  0
 34 33  1  0
 35 34  1  0
 37 38  1  0
 38 41  1  0
 38 40  1  0
 39 37  2  0
 42 43  1  0
 42 17  1  0
 44 42  1  0
 45 46  1  0
 45  1  2  0
 47 48  1  0
 47 46  2  0
 49 60  2  0
 50 48  1  0
 50 55  1  0
 51 59  1  0
 51 61  1  0
 52 58  1  0
 52 54  1  0
 53 59  1  0
 54 55  2  0
 54 53  1  0
 56 50  2  0
 57 56  1  0
 57 52  2  0
 58 51  1  0
 59 49  1  0
 61 63  2  0
 62 61  1  0
 64 62  1  0
 65 74  2  0
 65 70  1  0
 66 62  1  0
 66 70  1  0
 67 66  1  0
 68 69  1  0
 68 67  1  0
 69 65  1  0
 70 71  2  0
 71 72  1  0
 73 72  2  0
 74 73  1  0
 75 49  1  0
 75 76  1  0
 75 85  1  0
 76 79  1  0
 77 81  1  0
 77 76  1  0
 78 77  2  0
 81 80  1  0
 83 81  1  0
 83 84  1  0
 83 82  1  0
 85 88  1  1
 85 86  1  0
 87 85  1  0
M  ISO  4   8 100   9 100  47 101  48 101
M  END
>  <TORSDO>  (57) 
F 21

>  <SCORE>  (57) 
-13.441

>  <name>  (57) 
57

>  <ligand_id>  (57) 
57

>  <original_smiles>  (57) 
[H]C([H])=C1C([H])(C([H])([H])[H])C([H])(C([H])([H])C(=O)N2C([H])([H])C([H])([H])C([H])([H])C([H])(n3nc(-c4c([H])c([H])c(Oc5c([H])c([H])c(F)c([H])c5F)c([H])c4[H])c(C(=O)N([H])[H])c3N([H])[H])C2([H])[H])C1([H])C([H])([H])C([H])([H])C([H])([H])C([H])([H])Oc1c([H])c([H])c2c(c1[H])C([H])([H])N(C(=O)C([H])(N([H])C(=O)C([H])(N([H])C([H])([H])[H])C([H])([H])[H])C(C([H])([H])[H])(C([H])([H])[H])C([H])([H])[H])C([H])(C(=O)N([H])C1([H])c3c([H])c([H])c([H])c([H])c3C([H])([H])C([H])([H])C1([H])[H])C2([H])[H]

>  <smiles>  (57) 
[H]C([H])=C1C([H])(C([H])([H])[H])C([H])(C([H])([H])C(=O)N2C([H])([H])C([H])([H])C([H])([H])C([H])(n3nc(-c4c([H])c([H])c(Oc5c([H])c([H])c(F)c([H])c5F)c([H])c4[H])c(C(=O)N([H])[H])c3N([H])[H])C2([H])[H])C1([H])C([H])([H])C([H])([H])C([H])([H])C([H])([H])Oc1c([H])c([H])c2c(c1[H])C([H])([H])N(C(=O)C([H])(N([H])C(=O)C([H])(N([H])C([H])([H])[H])C([H])([H])[H])C(C([H])([H])[H])(C([H])([H])[H])C([H])([H])[H])C([H])(C(=O)N([H])C1([H])c3c([H])c([H])c([H])c([H])c3C([H])([H])C([H])([H])C1([H])[H])C2([H])[H]

$$$$
58:0:0
     RDKit          3D

 97106  0  0  1  0  0  0  0  0999 V2000
  -29.4990  -19.8900   22.1320 C   0  0  0  0  0  1  0  0  0  0  0  0
  -29.8800  -20.3740   20.7150 C   0  0  0  0  0  3  0  0  0  0  0  0
  -27.1470  -18.4570   18.9100 C   0  0  0  0  0  2  0  0  0  0  0  0
  -27.7760  -19.7770   19.3220 C   0  0  0  0  0  2  0  0  0  0  0  0
  -28.3340  -17.5210   18.7970 C   0  0  0  0  0  2  0  0  0  0  0  0
  -29.2710  -19.4790   19.5880 C   0  0  0  0  0  3  0  0  0  0  0  0
  -29.2590  -18.0200   19.8190 N   0  0  0  0  0  0  0  0  0  0  0  0
  -30.5450  -17.2820   19.8750 C   0  0  0  0  0  3  0  0  0  0  0  0
  -30.3270  -16.0040   20.7810 C   0  0  0  0  0  2  0  0  0  0  0  0
  -31.0790  -14.6880   20.4330 C   0  0  0  0  0  0  0  0  0  0  0  0
  -30.7810  -12.5010   19.3470 C   0  0  0  0  0  2  0  0  0  0  0  0
  -29.8620  -12.7120   18.1250 C   0  0  0  0  0  2  0  0  0  0  0  0
  -28.3760  -12.6020   18.5300 C   0  0  0  0  0  2  0  0  0  0  0  0
  -28.0300  -13.4570   19.7760 C   0  0  0  0  0  3  0  0  0  0  0  0
  -29.0680  -13.2400   20.9000 C   0  0  0  0  0  2  0  0  0  0  0  0
  -30.4040  -13.5090   20.3480 N   0  0  0  0  0  0  0  0  0  0  0  0
  -32.2650  -14.7690   20.1170 O   0  0  0  0  0  0  0  0  0  0  0  0
  -25.6340  -14.1260   20.4460 C   0  0  0  0  0  0  0  0  0  0  0  0
  -24.5410  -13.3810   20.7930 C   0  0  0  0  0  0  0  0  0  0  0  0
  -24.9740  -12.0210   20.7790 C   0  0  0  0  0  0  0  0  0  0  0  0
  -26.6640  -13.2220   20.2360 N   0  0  0  0  0  0  0  0  0  0  0  0
  -26.2690  -11.9500   20.4970 N   0  0  0  0  0  0  0  0  0  0  0  0
  -24.2180  -10.7780   20.9630 C   0  0  0  0  0  0  0  0  0  0  0  0
  -24.6010   -9.8160   21.9240 C   0  0  0  0  0  3  0  0  0  0  0  0
  -23.8470   -8.6360   22.0940 C   0  0  0  0  0  3  0  0  0  0  0  0
  -22.6940   -8.4120   21.3060 C   0  0  0  0  0  0  0  0  0  0  0  0
  -22.3300   -9.3620   20.3350 C   0  0  0  0  0  3  0  0  0  0  0  0
  -23.0860  -10.5330   20.1620 C   0  0  0  0  0  3  0  0  0  0  0  0
  -21.9130   -7.2850   21.3850 O   0  0  0  0  0  0  0  0  0  0  0  0
  -21.7960   -6.5720   22.5510 C   0  0  0  0  0  0  0  0  0  0  0  0
  -21.2980   -7.1580   23.7350 C   0  0  0  0  0  3  0  0  0  0  0  0
  -21.1290   -6.3710   24.8920 C   0  0  0  0  0  3  0  0  0  0  0  0
  -21.4470   -5.0010   24.8640 C   0  0  0  0  0  0  0  0  0  0  0  0
  -21.9390   -4.4150   23.6850 C   0  0  0  0  0  3  0  0  0  0  0  0
  -22.1110   -5.1980   22.5310 C   0  0  0  0  0  0  0  0  0  0  0  0
  -22.5650   -4.6250   21.3900 F   0  0  0  0  0  0  0  0  0  0  0  0
  -21.2770   -4.2420   25.9730 F   0  0  0  0  0  0  0  0  0  0  0  0
  -23.1510  -13.8930   21.0370 C   0  0  0  0  0  0  0  0  0  0  0  0
  -22.3940  -13.2230   21.8990 N   0  0  0  0  0  0  0  0  0  0  0  0
  -22.7440  -14.9220   20.5010 O   0  0  0  0  0  0  0  0  0  0  0  0
  -22.7340  -12.3900   22.3570 H   0  0  0  0  0  0  0  0  0  0  0  0
  -21.4600  -13.5480   22.1050 H   0  0  0  0  0  0  0  0  0  0  0  0
  -25.8210  -15.4920   20.2810 N   0  0  0  0  0  0  0  0  0  0  0  0
  -25.0610  -16.1520   20.4040 H   0  0  0  0  0  0  0  0  0  0  0  0
  -26.7070  -15.9380   20.0900 H   0  0  0  0  0  0  0  0  0  0  0  0
  -31.1400  -17.0820   18.4420 C   0  0  0  0  0  2  0  0  0  0  0  0
  -33.4940  -16.2310   17.5850 C   0  0  0  0  0  2  0  0  0  0  0  0
  -33.2850  -17.6060   17.0200 C   0  0  0  0  0  2  0  0  0  0  0  0
  -32.6510  -17.2380   18.3480 C   0  0  0  0  0  3  0  0  0  0  0  0
  -29.4390  -21.7760   20.4940 N   0  0  0  0  0  4  0  0  0  0  0  0
  -29.4930  -21.9530   19.5030 H   0  0  0  0  0  0  0  0  0  0  0  0
  -28.4680  -21.8400   20.7560 H   0  0  0  0  0  0  0  0  0  0  0  0
  -30.1810  -22.8690   21.1620 C   0  0  0  0  0  2  0  0  0  0  0  0
  -29.3800  -24.1870   21.0660 C   0  0  0  0  0  2  0  0  0  0  0  0
  -30.1620  -25.4520   21.4730 C   0  0  0  0  0  2  0  0  0  0  0  0
  -29.2790  -26.7150   21.5220 C   0  0  0  0  0  2  0  0  0  0  0  0
  -28.5700  -26.8370   20.2940 O   0  0  0  0  0  0  0  0  0  0  0  0
  -24.5780  -31.9400   23.3200 C   0  0  0  0  0  0  0  0  0  0  0  0
  -27.4090  -27.5710   20.3270 C   0  0  0  0  0  0  0  0  0  0  0  0
  -23.4440  -30.5060   21.6510 C   0  0  0  0  0  3  0  0  0  0  0  0
  -24.9710  -28.9940   20.2740 C   0  0  0  0  0  0  0  0  0  0  0  0
  -25.9620  -30.9240   21.5180 C   0  0  0  0  0  2  0  0  0  0  0  0
  -26.0960  -29.5520   20.8960 C   0  0  0  0  0  0  0  0  0  0  0  0
  -27.3160  -28.8440   20.9330 C   0  0  0  0  0  3  0  0  0  0  0  0
  -26.2740  -27.0260   19.6940 C   0  0  0  0  0  3  0  0  0  0  0  0
  -25.0510  -27.7250   19.6750 C   0  0  0  0  0  3  0  0  0  0  0  0
  -23.7050  -29.8230   20.2810 C   0  0  0  0  0  2  0  0  0  0  0  0
  -24.6770  -31.1390   22.2220 N   0  0  0  0  0  0  0  0  0  0  0  0
  -23.4780  -32.1910   23.8310 O   0  0  0  0  0  0  0  0  0  0  0  0
  -22.7900  -29.4750   22.5980 C   0  0  0  0  0  0  0  0  0  0  0  0
  -21.4720  -29.2700   22.4390 N   0  0  0  0  0  0  0  0  0  0  0  0
  -23.4650  -28.8630   23.4300 O   0  0  0  0  0  0  0  0  0  0  0  0
  -20.9900  -29.8180   21.7390 H   0  0  0  0  0  0  0  0  0  0  0  0
  -18.1050  -28.0390   22.8700 C   0  0  0  0  0  0  0  0  0  0  0  0
  -20.6530  -28.3200   23.1900 C   0  0  0  0  0  3  0  0  0  0  0  0
  -20.7820  -26.8930   22.6080 C   0  0  0  0  0  2  0  0  0  0  0  0
  -19.7010  -26.5650   21.5730 C   0  0  0  0  0  2  0  0  0  0  0  0
  -18.3070  -26.6930   22.1930 C   0  0  0  0  0  2  0  0  0  0  0  0
  -19.2070  -28.8090   23.3240 C   0  0  0  0  0  0  0  0  0  0  0  0
  -18.9650  -30.0680   23.9160 C   0  0  0  0  0  3  0  0  0  0  0  0
  -17.6540  -30.5580   24.0580 C   0  0  0  0  0  3  0  0  0  0  0  0
  -16.5650  -29.7830   23.6200 C   0  0  0  0  0  3  0  0  0  0  0  0
  -16.7910  -28.5250   23.0340 C   0  0  0  0  0  3  0  0  0  0  0  0
  -25.8360  -32.5960   23.9700 C   0  0  0  0  0  3  0  0  0  0  0  0
  -26.3160  -31.8600   25.2810 C   0  0  1  0  0  0  0  0  0  0  0  0
  -25.1880  -31.6300   26.3120 C   0  0  0  0  0  1  0  0  0  0  0  0
  -26.9300  -30.4810   24.9380 C   0  0  0  0  0  1  0  0  0  0  0  0
  -27.4310  -32.6830   25.9690 C   0  0  0  0  0  1  0  0  0  0  0  0
  -25.5060  -33.9990   24.2520 N   0  0  0  0  0  0  0  0  0  0  0  0
  -25.8650  -35.0340   23.4800 C   0  0  0  0  0  0  0  0  0  0  0  0
  -26.5790  -34.9090   22.4800 O   0  0  0  0  0  0  0  0  0  0  0  0
  -24.8790  -34.1710   25.0240 H   0  0  0  0  0  0  0  0  0  0  0  0
  -24.1500  -36.8070   22.9940 C   0  0  0  0  0  1  0  0  0  0  0  0
  -25.3500  -36.4290   23.8790 C   0  0  0  0  0  3  0  0  0  0  0  0
  -27.4290  -37.3470   24.8040 C   0  0  0  0  0  1  0  0  0  0  0  0
  -26.3830  -37.4850   23.7960 N   0  0  0  0  0  0  0  0  0  0  0  0
  -25.9660  -38.4060   23.8960 H   0  0  0  0  0  0  0  0  0  0  0  0
  2  1  1  0
  3  4  1  0
  4  6  1  0
  5  3  1  0
  5  7  1  0
  6  7  1  0
  6  2  1  0
  7  8  1  0
  8 46  1  0
  8  9  1  0
 10  9  1  0
 11 16  1  0
 12 13  1  0
 12 11  1  0
 14 13  1  0
 14 21  1  0
 14 15  1  0
 16 10  1  0
 16 15  1  0
 17 10  2  0
 18 19  2  0
 19 38  1  0
 20 19  1  0
 20 23  1  0
 21 18  1  0
 21 22  1  0
 22 20  2  0
 23 24  1  0
 24 25  2  0
 26 29  1  0
 26 25  1  0
 27 26  2  0
 28 27  1  0
 28 23  2  0
 29 30  1  0
 30 31  1  0
 31 32  2  0
 33 32  1  0
 33 37  1  0
 34 33  2  0
 35 30  2  0
 35 34  1  0
 36 35  1  0
 38 39  1  0
 39 42  1  0
 39 41  1  0
 40 38  2  0
 43 44  1  0
 43 18  1  0
 45 43  1  0
 47 49  1  0
 48 47  1  0
 48 49  1  0
 49 46  1  0
 50  2  1  0
 50 52  1  0
 50 53  1  0
 51 50  1  0
 54 53  1  0
 54 55  1  0
 55 56  1  0
 57 59  1  0
 57 56  1  0
 58 69  2  0
 59 64  1  0
 60 68  1  0
 60 70  1  0
 61 67  1  0
 61 63  1  0
 62 68  1  0
 63 64  2  0
 63 62  1  0
 65 59  2  0
 66 65  1  0
 66 61  2  0
 67 60  1  0
 68 58  1  0
 70 72  2  0
 71 70  1  0
 73 71  1  0
 74 83  2  0
 74 79  1  0
 75 71  1  0
 75 79  1  0
 76 75  1  0
 77 78  1  0
 77 76  1  0
 78 74  1  0
 79 80  2  0
 80 81  1  0
 82 81  2  0
 83 82  1  0
 84 58  1  0
 84 89  1  0
 84 85  1  0
 85 88  1  1
 85 86  1  0
 87 85  1  0
 89 92  1  0
 90 94  1  0
 90 89  1  0
 91 90  2  0
 94 93  1  0
 96 94  1  0
 96 97  1  0
 96 95  1  0
M  ISO  4   9 100  10 100  56 101  57 101
M  END
>  <TORSDO>  (58) 
F 26

>  <SCORE>  (58) 
-11.336

>  <name>  (58) 
58

>  <ligand_id>  (58) 
58

>  <original_smiles>  (58) 
[H]c1c([H])c([H])c2c(c1[H])C([H])([H])C([H])([H])C([H])([H])C2([H])N([H])C(=O)C1([H])N(C(=O)C([H])(N([H])C(=O)C([H])(N([H])C([H])([H])[H])C([H])([H])[H])C(C([H])([H])[H])(C([H])([H])[H])C([H])([H])[H])C([H])([H])c2c([H])c(OC([H])([H])C([H])([H])C([H])([H])C([H])([H])[N+]([H])([H])C([H])(C([H])([H])[H])C3([H])N(C([H])(C([H])([H])C(=O)N4C([H])([H])C([H])([H])C([H])([H])C([H])(n5nc(-c6c([H])c([H])c(Oc7c([H])c([H])c(F)c([H])c7F)c([H])c6[H])c(C(=O)N([H])[H])c5N([H])[H])C4([H])[H])C([H])([H])C4([H])C([H])([H])C4([H])[H])C([H])([H])C([H])([H])C3([H])[H])c([H])c([H])c2C1([H])[H]

>  <smiles>  (58) 
[H]c1c([H])c([H])c2c(c1[H])C([H])([H])C([H])([H])C([H])([H])C2([H])N([H])C(=O)C1([H])N(C(=O)C([H])(N([H])C(=O)C([H])(N([H])C([H])([H])[H])C([H])([H])[H])C(C([H])([H])[H])(C([H])([H])[H])C([H])([H])[H])C([H])([H])c2c([H])c(OC([H])([H])C([H])([H])C([H])([H])C([H])([H])[N+]([H])([H])C([H])(C([H])([H])[H])C3([H])N(C([H])(C([H])([H])C(=O)N4C([H])([H])C([H])([H])C([H])([H])C([H])(n5nc(-c6c([H])c([H])c(Oc7c([H])c([H])c(F)c([H])c7F)c([H])c6[H])c(C(=O)N([H])[H])c5N([H])[H])C4([H])[H])C([H])([H])C4([H])C([H])([H])C4([H])[H])C([H])([H])C([H])([H])C3([H])[H])c([H])c([H])c2C1([H])[H]

$$$$
59:0:0
     RDKit          3D

 92 94  0  0  1  0  0  0  0  0999 V2000
  -28.9710  -17.2730   18.1240 C   0  0  0  0  0  2  0  0  0  0  0  0
  -27.9290  -17.3600   19.2090 C   0  0  0  0  0  2  0  0  0  0  0  0
  -29.7290  -16.8330   19.3900 C   0  0  2  0  0  0  0  0  0  0  0  0
  -28.1540  -19.4620   19.8820 C   0  0  0  0  0  1  0  0  0  0  0  0
  -29.4190  -18.3280   20.3150 C   0  0  0  0  0  3  0  0  0  0  0  0
  -28.8220  -15.2990   19.2610 C   0  0  0  0  0  1  0  0  0  0  0  0
  -28.7230  -12.7520   18.9340 C   0  0  0  0  0  3  0  0  0  0  0  0
  -28.9270  -12.8130   20.0830 C   0  0  0  0  0  1  0  0  0  0  0  0
  -30.6860  -18.8940   20.8360 N   0  0  0  0  0  4  0  0  0  0  0  0
  -30.6050  -19.8970   20.7710 H   0  0  0  0  0  0  0  0  0  0  0  0
  -31.4570  -18.6130   20.2510 H   0  0  0  0  0  0  0  0  0  0  0  0
  -30.9730  -18.6370   22.2760 C   0  0  0  0  0  2  0  0  0  0  0  0
  -31.7470  -17.3480   22.6890 C   0  0  0  0  0  2  0  0  0  0  0  0
  -30.9880  -16.0130   22.8210 C   0  0  0  0  0  2  0  0  0  0  0  0
  -31.2600  -14.9800   21.7170 C   0  0  0  0  0  0  0  0  0  0  0  0
  -30.8490  -13.7610   19.4570 C   0  0  0  0  0  1  0  0  0  0  0  0
  -29.6310  -13.6800   17.7720 C   0  0  0  0  0  1  0  0  0  0  0  0
  -27.5050  -13.7240   18.1450 C   0  0  0  0  0  1  0  0  0  0  0  0
  -26.9860  -13.9120   20.1970 C   0  0  0  0  0  1  0  0  0  0  0  0
  -28.3980  -14.5290   21.7100 C   0  0  0  0  0 15  0  0  0  0  0  0
  -30.2850  -14.3790   21.1740 N   0  0  0  0  0  2  0  0  0  0  0  0
  -32.3670  -14.8080   21.2310 O   0  0  0  0  0  0  0  0  0  0  0  0
  -24.7610  -13.7030   20.8490 C   0  0  0  0  0  0  0  0  0  0  0  0
  -23.8550  -12.7620   21.1090 C   0  0  0  0  0  0  0  0  0  0  0  0
  -24.4930  -11.4890   21.0310 C   0  0  0  0  0  0  0  0  0  0  0  0
  -25.9020  -13.0570   20.6080 N   0  0  0  0  0  0  0  0  0  0  0  0
  -25.7880  -11.6730   20.7250 N   0  0  0  0  0  0  0  0  0  0  0  0
  -23.8450  -10.1670   21.1780 C   0  0  0  0  0  0  0  0  0  0  0  0
  -24.2790   -9.1820   22.0940 C   0  0  0  0  0  3  0  0  0  0  0  0
  -23.5350   -7.9890   22.2750 C   0  0  0  0  0  3  0  0  0  0  0  0
  -22.3410   -7.7730   21.5420 C   0  0  0  0  0  0  0  0  0  0  0  0
  -21.9230   -8.7500   20.6230 C   0  0  0  0  0  3  0  0  0  0  0  0
  -22.6670   -9.9260   20.4390 C   0  0  0  0  0  3  0  0  0  0  0  0
  -21.5660   -6.6390   21.6290 O   0  0  0  0  0  0  0  0  0  0  0  0
  -21.5740   -5.8360   22.7420 C   0  0  0  0  0  0  0  0  0  0  0  0
  -21.2430   -6.3320   24.0220 C   0  0  0  0  0  3  0  0  0  0  0  0
  -21.1960   -5.4570   25.1270 C   0  0  0  0  0  3  0  0  0  0  0  0
  -21.4730   -4.0860   24.9510 C   0  0  0  0  0  0  0  0  0  0  0  0
  -21.7960   -3.5910   23.6760 C   0  0  0  0  0  3  0  0  0  0  0  0
  -21.8430   -4.4620   22.5750 C   0  0  0  0  0  0  0  0  0  0  0  0
  -22.1330   -3.9730   21.3450 F   0  0  0  0  0  0  0  0  0  0  0  0
  -21.4240   -3.2470   26.0100 F   0  0  0  0  0  0  0  0  0  0  0  0
  -22.4450  -13.1450   21.3260 C   0  0  0  0  0  0  0  0  0  0  0  0
  -21.7560  -12.4510   22.2090 N   0  0  0  0  0  0  0  0  0  0  0  0
  -21.9840  -14.1470   20.7750 O   0  0  0  0  0  0  0  0  0  0  0  0
  -22.1720  -11.6710   22.6950 H   0  0  0  0  0  0  0  0  0  0  0  0
  -20.8070  -12.7220   22.4250 H   0  0  0  0  0  0  0  0  0  0  0  0
  -24.6310  -15.0830   20.7950 N   0  0  0  0  0  0  0  0  0  0  0  0
  -23.6900  -15.4550   20.8660 H   0  0  0  0  0  0  0  0  0  0  0  0
  -25.3290  -15.7370   20.4600 H   0  0  0  0  0  0  0  0  0  0  0  0
  -27.8450  -21.9490   19.6350 C   0  0  0  0  0 15  0  0  0  0  0  0
  -27.7080  -24.1360   20.0810 O   0  0  0  0  0  1  0  0  0  0  0  0
  -24.5650  -31.6720   22.9670 C   0  0  0  0  0  0  0  0  0  0  0  0
  -26.9280  -25.7760   20.0610 C   0  0  0  0  0  0  0  0  0  0  0  0
  -23.3980  -30.2090   21.3800 C   0  0  0  0  0  3  0  0  0  0  0  0
  -24.8190  -28.3710   20.0310 C   0  0  0  0  0  0  0  0  0  0  0  0
  -26.0010  -30.0930   21.3480 C   0  0  0  0  0  2  0  0  0  0  0  0
  -26.0300  -28.5560   20.6970 C   0  0  0  0  0  0  0  0  0  0  0  0
  -27.0290  -27.3100   20.6710 C   0  0  0  0  0  3  0  0  0  0  0  0
  -25.7000  -26.0410   19.3360 C   0  0  0  0  0  3  0  0  0  0  0  0
  -24.7440  -27.1490   19.3270 C   0  0  0  0  0  3  0  0  0  0  0  0
  -23.6620  -29.4240   20.0490 C   0  0  0  0  0  2  0  0  0  0  0  0
  -24.6900  -30.7180   21.9480 N   0  0  0  0  0  0  0  0  0  0  0  0
  -23.4550  -32.0140   23.4250 O   0  0  0  0  0  0  0  0  0  0  0  0
  -22.6150  -29.3310   22.4020 C   0  0  0  0  0  0  0  0  0  0  0  0
  -21.2710  -29.2430   22.3120 N   0  0  0  0  0  0  0  0  0  0  0  0
  -23.2460  -28.7160   23.2620 O   0  0  0  0  0  0  0  0  0  0  0  0
  -20.8030  -29.8000   21.6100 H   0  0  0  0  0  0  0  0  0  0  0  0
  -17.8550  -28.0970   22.9330 C   0  0  0  0  0  0  0  0  0  0  0  0
  -20.4290  -28.3400   23.1160 C   0  0  0  0  0  3  0  0  0  0  0  0
  -20.4830  -26.8950   22.5630 C   0  0  0  0  0  2  0  0  0  0  0  0
  -19.3550  -26.5830   21.5720 C   0  0  0  0  0  2  0  0  0  0  0  0
  -17.9930  -26.7470   22.2520 C   0  0  0  0  0  2  0  0  0  0  0  0
  -18.9950  -28.8520   23.3240 C   0  0  0  0  0  0  0  0  0  0  0  0
  -18.8000  -30.1100   23.9350 C   0  0  0  0  0  3  0  0  0  0  0  0
  -17.5030  -30.6150   24.1500 C   0  0  0  0  0  3  0  0  0  0  0  0
  -16.3810  -29.8600   23.7680 C   0  0  0  0  0  3  0  0  0  0  0  0
  -16.5570  -28.6010   23.1670 C   0  0  0  0  0  3  0  0  0  0  0  0
  -25.7870  -32.3930   23.6270 C   0  0  0  0  0  3  0  0  0  0  0  0
  -25.4050  -33.7850   23.9870 N   0  0  0  0  0  0  0  0  0  0  0  0
  -25.7280  -34.8960   23.3070 C   0  0  0  0  0  0  0  0  0  0  0  0
  -26.4100  -34.8630   22.2800 O   0  0  0  0  0  0  0  0  0  0  0  0
  -24.7880  -33.8830   24.7780 H   0  0  0  0  0  0  0  0  0  0  0  0
  -23.9650  -36.6930   23.0620 C   0  0  0  0  0  1  0  0  0  0  0  0
  -25.2190  -36.2570   23.8380 C   0  0  0  0  0  3  0  0  0  0  0  0
  -27.3420  -37.1600   24.6960 C   0  0  0  0  0  1  0  0  0  0  0  0
  -26.2270  -37.3410   23.7710 N   0  0  0  0  0  0  0  0  0  0  0  0
  -25.7980  -38.2420   23.9640 H   0  0  0  0  0  0  0  0  0  0  0  0
  -26.3030  -31.6610   24.9290 C   0  0  1  0  0  0  0  0  0  0  0  0
  -25.2070  -31.4310   25.9960 C   0  0  0  0  0  1  0  0  0  0  0  0
  -26.9120  -30.2850   24.5960 C   0  0  0  0  0  1  0  0  0  0  0  0
  -27.4370  -32.4870   25.5850 C   0  0  0  0  0  1  0  0  0  0  0  0
  1  2  1  0
  1  3  1  0
  2  3  1  0
  3  5  1  0
  5  4  1  0
  5  9  1  0
  3  6  1  6
  7  8  1  0
  9 12  1  0
 10  9  1  0
 11  9  1  0
 12 13  1  0
 13 14  1  0
 15 14  1  0
 16 21  1  0
 17  7  1  0
 18  7  1  0
 19 26  1  0
 21 15  1  0
 22 15  2  0
 23 24  2  0
 24 43  1  0
 25 24  1  0
 25 28  1  0
 26 27  1  0
 26 23  1  0
 27 25  2  0
 28 29  1  0
 29 30  2  0
 31 34  1  0
 31 30  1  0
 32 31  2  0
 33 32  1  0
 33 28  2  0
 34 35  1  0
 35 36  1  0
 36 37  2  0
 38 37  1  0
 38 42  1  0
 39 38  2  0
 40 35  2  0
 40 39  1  0
 41 40  1  0
 43 44  1  0
 44 47  1  0
 44 46  1  0
 45 43  2  0
 48 23  1  0
 48 49  1  0
 50 48  1  0
 53 64  2  0
 54 52  1  0
 54 59  1  0
 55 63  1  0
 55 65  1  0
 56 62  1  0
 56 58  1  0
 57 63  1  0
 58 57  1  0
 59 58  2  0
 60 54  2  0
 61 60  1  0
 61 56  2  0
 62 55  1  0
 63 53  1  0
 65 67  2  0
 66 65  1  0
 68 66  1  0
 69 78  2  0
 69 74  1  0
 70 66  1  0
 70 74  1  0
 71 70  1  0
 72 73  1  0
 72 71  1  0
 73 69  1  0
 74 75  2  0
 75 76  1  0
 77 76  2  0
 78 77  1  0
 79 53  1  0
 79 80  1  0
 79 89  1  0
 80 83  1  0
 81 85  1  0
 81 80  1  0
 82 81  2  0
 85 84  1  0
 87 85  1  0
 87 88  1  0
 87 86  1  0
 89 92  1  1
 89 90  1  0
 91 89  1  0
M  ISO  4  14 100  15 100  51 101  52 101
M  END
>  <TORSDO>  (59) 
F 21

>  <SCORE>  (59) 
-10.011

>  <name>  (59) 
59

>  <ligand_id>  (59) 
59

>  <original_smiles>  (59) 
[H]c1c([H])c([H])c2c(c1[H])C([H])([H])C([H])([H])C([H])([H])C2([H])N([H])C(=O)C1([H])N(C(=O)C([H])(N([H])C(=O)C([H])(N([H])C([H])([H])[H])C([H])([H])[H])C(C([H])([H])[H])(C([H])([H])[H])C([H])([H])[H])C([H])([H])c2c([H])c(OC([H])([H])C3([H])C4([H])C([H])([H])C([H])(C4(C([H])([H])[H])C([H])([H])[H])C3([H])[N+]([H])([H])C([H])([H])C([H])([H])C([H])([H])C(=O)N3C([H])([H])C([H])([H])C([H])([H])C([H])(n4nc(-c5c([H])c([H])c(Oc6c([H])c([H])c(F)c([H])c6F)c([H])c5[H])c(C(=O)N([H])[H])c4N([H])[H])C3([H])[H])c([H])c([H])c2C1([H])[H]

>  <smiles>  (59) 
[H]c1c([H])c([H])c2c(c1[H])C([H])([H])C([H])([H])C([H])([H])C2([H])N([H])C(=O)C1([H])N(C(=O)C([H])(N([H])C(=O)C([H])(N([H])C([H])([H])[H])C([H])([H])[H])C(C([H])([H])[H])(C([H])([H])[H])C([H])([H])[H])C([H])([H])c2c([H])c(OC([H])([H])C3([H])C4([H])C([H])([H])C([H])(C4(C([H])([H])[H])C([H])([H])[H])C3([H])[N+]([H])([H])C([H])([H])C([H])([H])C([H])([H])C(=O)N3C([H])([H])C([H])([H])C([H])([H])C([H])(n4nc(-c5c([H])c([H])c(Oc6c([H])c([H])c(F)c([H])c6F)c([H])c5[H])c(C(=O)N([H])[H])c4N([H])[H])C3([H])[H])c([H])c([H])c2C1([H])[H]

$$$$
60:0:0
     RDKit          3D

 84 92  0  0  1  0  0  0  0  0999 V2000
  -30.2720  -22.8130   20.3450 C   0  0  0  0  0  2  0  0  0  0  0  0
  -28.9700  -22.4950   20.2650 C   0  0  0  0  0  0  0  0  0  0  0  0
  -29.3380  -19.8880   21.4120 C   0  0  0  0  0  2  0  0  0  0  0  0
  -28.7380  -20.6990   20.2790 C   0  0  0  0  0  3  0  0  0  0  0  0
  -29.6230  -19.0270   20.1960 C   0  0  0  0  0  3  0  0  0  0  0  0
  -29.4010  -17.1720   20.3670 C   0  0  0  0  0  2  0  0  0  0  0  0
  -30.2930  -15.5740   20.1760 C   0  0  0  0  0  0  0  0  0  0  0  0
  -30.3980  -13.0560   19.3430 C   0  0  0  0  0  2  0  0  0  0  0  0
  -29.4790  -12.7560   18.1250 C   0  0  0  0  0  2  0  0  0  0  0  0
  -28.0460  -12.4260   18.5770 C   0  0  0  0  0  2  0  0  0  0  0  0
  -27.5700  -13.3910   19.6880 C   0  0  0  0  0  3  0  0  0  0  0  0
  -28.6200  -13.6190   20.7970 C   0  0  0  0  0  2  0  0  0  0  0  0
  -29.8180  -14.2040   20.1590 N   0  0  0  0  0  0  0  0  0  0  0  0
  -31.5100  -15.5690   19.9160 O   0  0  0  0  0  0  0  0  0  0  0  0
  -25.2150  -13.9070   20.5020 C   0  0  0  0  0  0  0  0  0  0  0  0
  -24.1660  -13.1170   20.8770 C   0  0  0  0  0  0  0  0  0  0  0  0
  -24.6430  -11.7700   20.8170 C   0  0  0  0  0  0  0  0  0  0  0  0
  -26.2590  -13.0450   20.2210 N   0  0  0  0  0  0  0  0  0  0  0  0
  -25.9300  -11.7510   20.4790 N   0  0  0  0  0  0  0  0  0  0  0  0
  -23.9250  -10.5010   21.0030 C   0  0  0  0  0  0  0  0  0  0  0  0
  -24.3500   -9.5390   21.9460 C   0  0  0  0  0  3  0  0  0  0  0  0
  -23.6270   -8.3380   22.1200 C   0  0  0  0  0  3  0  0  0  0  0  0
  -22.4660   -8.0900   21.3520 C   0  0  0  0  0  0  0  0  0  0  0  0
  -22.0600   -9.0410   20.3990 C   0  0  0  0  0  3  0  0  0  0  0  0
  -22.7830  -10.2320   20.2220 C   0  0  0  0  0  3  0  0  0  0  0  0
  -21.7170   -6.9400   21.4330 O   0  0  0  0  0  0  0  0  0  0  0  0
  -21.6240   -6.2240   22.6000 C   0  0  0  0  0  0  0  0  0  0  0  0
  -21.1320   -6.8000   23.7910 C   0  0  0  0  0  3  0  0  0  0  0  0
  -20.9860   -6.0090   24.9480 C   0  0  0  0  0  3  0  0  0  0  0  0
  -21.3240   -4.6430   24.9150 C   0  0  0  0  0  0  0  0  0  0  0  0
  -21.8080   -4.0660   23.7280 C   0  0  0  0  0  3  0  0  0  0  0  0
  -21.9540   -4.8540   22.5730 C   0  0  0  0  0  0  0  0  0  0  0  0
  -22.4020   -4.2870   21.4270 F   0  0  0  0  0  0  0  0  0  0  0  0
  -21.1770   -3.8810   26.0240 F   0  0  0  0  0  0  0  0  0  0  0  0
  -22.7720  -13.5810   21.1750 C   0  0  0  0  0  0  0  0  0  0  0  0
  -22.0620  -12.8740   22.0460 N   0  0  0  0  0  0  0  0  0  0  0  0
  -22.3200  -14.6080   20.6690 O   0  0  0  0  0  0  0  0  0  0  0  0
  -22.4410  -12.0440   22.4790 H   0  0  0  0  0  0  0  0  0  0  0  0
  -21.1250  -13.1680   22.2850 H   0  0  0  0  0  0  0  0  0  0  0  0
  -25.3670  -15.2820   20.3470 N   0  0  0  0  0  0  0  0  0  0  0  0
  -24.5990  -15.9280   20.4970 H   0  0  0  0  0  0  0  0  0  0  0  0
  -26.2090  -15.7370   20.0210 H   0  0  0  0  0  0  0  0  0  0  0  0
  -27.9120  -23.9720   20.1700 C   0  0  0  0  0  2  0  0  0  0  0  0
  -28.1780  -25.6730   20.2650 O   0  0  0  0  0  0  0  0  0  0  0  0
  -24.6800  -31.8660   23.2190 C   0  0  0  0  0  0  0  0  0  0  0  0
  -27.1980  -26.8530   20.2140 C   0  0  0  0  0  0  0  0  0  0  0  0
  -23.4850  -30.4760   21.5810 C   0  0  0  0  0  3  0  0  0  0  0  0
  -24.9260  -28.8400   20.1620 C   0  0  0  0  0  0  0  0  0  0  0  0
  -26.0600  -30.6330   21.4490 C   0  0  0  0  0  2  0  0  0  0  0  0
  -26.1210  -29.2090   20.7910 C   0  0  0  0  0  0  0  0  0  0  0  0
  -27.2460  -28.2420   20.7860 C   0  0  0  0  0  3  0  0  0  0  0  0
  -25.9700  -26.6730   19.5340 C   0  0  0  0  0  3  0  0  0  0  0  0
  -24.8840  -27.5970   19.5100 C   0  0  0  0  0  3  0  0  0  0  0  0
  -23.7180  -29.7850   20.2070 C   0  0  0  0  0  2  0  0  0  0  0  0
  -24.7650  -31.0220   22.1350 N   0  0  0  0  0  0  0  0  0  0  0  0
  -23.5890  -32.1650   23.7340 O   0  0  0  0  0  0  0  0  0  0  0  0
  -22.7730  -29.4930   22.5480 C   0  0  0  0  0  0  0  0  0  0  0  0
  -21.4390  -29.3430   22.4240 N   0  0  0  0  0  0  0  0  0  0  0  0
  -23.4280  -28.8650   23.3820 O   0  0  0  0  0  0  0  0  0  0  0  0
  -20.9620  -29.8990   21.7300 H   0  0  0  0  0  0  0  0  0  0  0  0
  -18.0480  -28.1470   22.9360 C   0  0  0  0  0  0  0  0  0  0  0  0
  -20.6090  -28.4090   23.1960 C   0  0  0  0  0  3  0  0  0  0  0  0
  -20.7060  -26.9760   22.6220 C   0  0  0  0  0  2  0  0  0  0  0  0
  -19.6030  -26.6570   21.6070 C   0  0  0  0  0  2  0  0  0  0  0  0
  -18.2220  -26.8010   22.2530 C   0  0  0  0  0  2  0  0  0  0  0  0
  -19.1680  -28.9090   23.3640 C   0  0  0  0  0  0  0  0  0  0  0  0
  -18.9480  -30.1660   23.9680 C   0  0  0  0  0  3  0  0  0  0  0  0
  -17.6430  -30.6620   24.1450 C   0  0  0  0  0  3  0  0  0  0  0  0
  -16.5380  -29.8990   23.7300 C   0  0  0  0  0  3  0  0  0  0  0  0
  -16.7410  -28.6430   23.1310 C   0  0  0  0  0  3  0  0  0  0  0  0
  -25.9480  -32.5080   23.8580 C   0  0  0  0  0  3  0  0  0  0  0  0
  -26.4480  -31.7390   25.1440 C   0  0  1  0  0  0  0  0  0  0  0  0
  -25.3450  -31.5130   26.2040 C   0  0  0  0  0  1  0  0  0  0  0  0
  -27.0280  -30.3560   24.7740 C   0  0  0  0  0  1  0  0  0  0  0  0
  -27.5980  -32.5300   25.8130 C   0  0  0  0  0  1  0  0  0  0  0  0
  -25.6300  -33.9070   24.2030 N   0  0  0  0  0  0  0  0  0  0  0  0
  -25.9350  -34.9750   23.4520 C   0  0  0  0  0  0  0  0  0  0  0  0
  -26.5720  -34.8860   22.4000 O   0  0  0  0  0  0  0  0  0  0  0  0
  -25.0580  -34.0480   25.0220 H   0  0  0  0  0  0  0  0  0  0  0  0
  -24.1730  -36.7600   23.2070 C   0  0  0  0  0  1  0  0  0  0  0  0
  -25.4620  -36.3600   23.9440 C   0  0  0  0  0  3  0  0  0  0  0  0
  -27.6290  -37.2720   24.6590 C   0  0  0  0  0  1  0  0  0  0  0  0
  -26.4760  -37.4240   23.7760 N   0  0  0  0  0  0  0  0  0  0  0  0
  -26.0680  -38.3410   23.9430 H   0  0  0  0  0  0  0  0  0  0  0  0
  2  1  2  0
  4  2  1  0
  4  3  1  0
  5  4  1  0
  5  6  1  0
  5  3  1  0
  7  6  1  0
  8 13  1  0
  9 10  1  0
  9  8  1  0
 11 10  1  0
 11 18  1  0
 11 12  1  0
 13  7  1  0
 13 12  1  0
 14  7  2  0
 15 16  2  0
 16 35  1  0
 17 16  1  0
 17 20  1  0
 18 19  1  0
 18 15  1  0
 19 17  2  0
 20 21  1  0
 21 22  2  0
 23 26  1  0
 23 22  1  0
 24 23  2  0
 25 24  1  0
 25 20  2  0
 26 27  1  0
 27 28  1  0
 28 29  2  0
 30 29  1  0
 30 34  1  0
 31 30  2  0
 32 27  2  0
 32 31  1  0
 33 32  1  0
 35 36  1  0
 36 39  1  0
 36 38  1  0
 37 35  2  0
 40 41  1  0
 40 15  1  0
 42 40  1  0
 43 44  1  0
 43  2  1  0
 45 56  2  0
 46 44  1  0
 46 51  1  0
 47 55  1  0
 47 57  1  0
 48 54  1  0
 48 50  1  0
 49 55  1  0
 50 49  1  0
 51 50  2  0
 52 46  2  0
 53 52  1  0
 53 48  2  0
 54 47  1  0
 55 45  1  0
 57 59  2  0
 58 57  1  0
 60 58  1  0
 61 70  2  0
 61 66  1  0
 62 58  1  0
 62 66  1  0
 63 62  1  0
 64 65  1  0
 64 63  1  0
 65 61  1  0
 66 67  2  0
 67 68  1  0
 69 68  2  0
 70 69  1  0
 71 45  1  0
 71 76  1  0
 71 72  1  0
 72 75  1  1
 72 73  1  0
 74 72  1  0
 76 79  1  0
 77 81  1  0
 77 76  1  0
 78 77  2  0
 81 80  1  0
 83 84  1  0
 83 81  1  0
 83 82  1  0
M  ISO  4   6 100   7 100  43 101  44 101
M  END
>  <TORSDO>  (60) 
F 19

>  <SCORE>  (60) 
-16.105

>  <name>  (60) 
60

>  <ligand_id>  (60) 
60

>  <original_smiles>  (60) 
[H]C([H])=C(C([H])([H])Oc1c([H])c([H])c2c(c1[H])C([H])([H])N(C(=O)C([H])(N([H])C(=O)C([H])(N([H])C([H])([H])[H])C([H])([H])[H])C(C([H])([H])[H])(C([H])([H])[H])C([H])([H])[H])C([H])(C(=O)N([H])C1([H])c3c([H])c([H])c([H])c([H])c3C([H])([H])C([H])([H])C1([H])[H])C2([H])[H])C1([H])C([H])([H])C1([H])C([H])([H])C(=O)N1C([H])([H])C([H])([H])C([H])([H])C([H])(n2nc(-c3c([H])c([H])c(Oc4c([H])c([H])c(F)c([H])c4F)c([H])c3[H])c(C(=O)N([H])[H])c2N([H])[H])C1([H])[H]

>  <smiles>  (60) 
[H]C([H])=C(C([H])([H])Oc1c([H])c([H])c2c(c1[H])C([H])([H])N(C(=O)C([H])(N([H])C(=O)C([H])(N([H])C([H])([H])[H])C([H])([H])[H])C(C([H])([H])[H])(C([H])([H])[H])C([H])([H])[H])C([H])(C(=O)N([H])C1([H])c3c([H])c([H])c([H])c([H])c3C([H])([H])C([H])([H])C1([H])[H])C2([H])[H])C1([H])C([H])([H])C1([H])C([H])([H])C(=O)N1C([H])([H])C([H])([H])C([H])([H])C([H])(n2nc(-c3c([H])c([H])c(Oc4c([H])c([H])c(F)c([H])c4F)c([H])c3[H])c(C(=O)N([H])[H])c2N([H])[H])C1([H])[H]

$$$$
61:0:0
     RDKit          3D

 91100  0  0  1  0  0  0  0  0999 V2000
  -28.8720  -21.5850   18.5400 C   0  0  0  0  0  2  0  0  0  0  0  0
  -28.8210  -20.0220   18.4210 C   0  0  0  0  0  2  0  0  0  0  0  0
  -30.7650  -19.8830   20.5920 C   0  0  0  0  0  2  0  0  0  0  0  0
  -28.7870  -21.9570   20.0350 C   0  0  0  0  0  3  0  0  0  0  0  0
  -29.3700  -20.6090   20.7350 C   0  0  0  0  0  3  0  0  0  0  0  0
  -28.9560  -19.4190   19.8350 C   0  0  0  0  0  3  0  0  0  0  0  0
  -30.1850  -18.5750   20.1090 N   0  0  2  0  0  4  0  0  0  0  0  0
  -30.6320  -18.3320   19.2380 H   0  0  0  0  0  0  0  0  0  0  0  0
  -30.4120  -15.8870   20.9580 C   0  0  0  0  0  3  0  0  0  0  0  0
  -30.1020  -17.2670   21.0400 C   0  0  0  0  0  0  0  0  0  0  0  0
  -29.4840  -17.7360   22.3640 C   0  0  0  0  0  1  0  0  0  0  0  0
  -31.0330  -14.8550   20.0310 C   0  0  0  0  0  0  0  0  0  0  0  0
  -30.7000  -12.6640   18.8030 C   0  0  0  0  0  2  0  0  0  0  0  0
  -29.6780  -12.8610   17.6560 C   0  0  0  0  0  2  0  0  0  0  0  0
  -28.2290  -12.7220   18.1660 C   0  0  0  0  0  2  0  0  0  0  0  0
  -27.9900  -13.5020   19.4850 C   0  0  0  0  0  3  0  0  0  0  0  0
  -29.1090  -13.2220   20.5080 C   0  0  0  0  0  2  0  0  0  0  0  0
  -30.3830  -13.6310   19.8890 N   0  0  0  0  0  0  0  0  0  0  0  0
  -32.1110  -15.0140   19.4460 O   0  0  0  0  0  0  0  0  0  0  0  0
  -25.6870  -14.1630   20.4050 C   0  0  0  0  0  0  0  0  0  0  0  0
  -24.6100  -13.4200   20.7990 C   0  0  0  0  0  0  0  0  0  0  0  0
  -24.9970  -12.0520   20.6560 C   0  0  0  0  0  0  0  0  0  0  0  0
  -26.6650  -13.2480   20.0430 N   0  0  0  0  0  0  0  0  0  0  0  0
  -26.2610  -11.9700   20.2560 N   0  0  0  0  0  0  0  0  0  0  0  0
  -24.2180  -10.8180   20.8240 C   0  0  0  0  0  0  0  0  0  0  0  0
  -24.6490   -9.7840   21.6850 C   0  0  0  0  0  3  0  0  0  0  0  0
  -23.8730   -8.6160   21.8430 C   0  0  0  0  0  3  0  0  0  0  0  0
  -22.6520   -8.4740   21.1410 C   0  0  0  0  0  0  0  0  0  0  0  0
  -22.2400   -9.4960   20.2690 C   0  0  0  0  0  3  0  0  0  0  0  0
  -23.0140  -10.6560   20.1090 C   0  0  0  0  0  3  0  0  0  0  0  0
  -21.8460   -7.3640   21.2130 O   0  0  0  0  0  0  0  0  0  0  0  0
  -21.8020   -6.5800   22.3380 C   0  0  0  0  0  0  0  0  0  0  0  0
  -21.4640   -7.1080   23.6030 C   0  0  0  0  0  3  0  0  0  0  0  0
  -21.3600   -6.2510   24.7180 C   0  0  0  0  0  3  0  0  0  0  0  0
  -21.5830   -4.8700   24.5700 C   0  0  0  0  0  0  0  0  0  0  0  0
  -21.9130   -4.3420   23.3090 C   0  0  0  0  0  3  0  0  0  0  0  0
  -22.0180   -5.1950   22.1960 C   0  0  0  0  0  0  0  0  0  0  0  0
  -22.3160   -4.6760   20.9800 F   0  0  0  0  0  0  0  0  0  0  0  0
  -21.4770   -4.0460   25.6380 F   0  0  0  0  0  0  0  0  0  0  0  0
  -23.2610  -13.9480   21.1940 C   0  0  0  0  0  0  0  0  0  0  0  0
  -22.5680  -13.2540   22.0910 N   0  0  0  0  0  0  0  0  0  0  0  0
  -22.8340  -15.0110   20.7450 O   0  0  0  0  0  0  0  0  0  0  0  0
  -22.9260  -12.3940   22.4790 H   0  0  0  0  0  0  0  0  0  0  0  0
  -21.6660  -13.5920   22.3960 H   0  0  0  0  0  0  0  0  0  0  0  0
  -25.9150  -15.5330   20.3040 N   0  0  0  0  0  0  0  0  0  0  0  0
  -25.2000  -16.2160   20.5310 H   0  0  0  0  0  0  0  0  0  0  0  0
  -26.7760  -15.9530   19.9790 H   0  0  0  0  0  0  0  0  0  0  0  0
  -30.1670  -23.8020   21.1580 C   0  0  0  0  0  2  0  0  0  0  0  0
  -29.0940  -23.5030   20.4120 C   0  0  0  0  0  0  0  0  0  0  0  0
  -28.1050  -24.6910   19.9330 C   0  0  0  0  0  2  0  0  0  0  0  0
  -28.3490  -26.1790   20.2100 O   0  0  0  0  0  0  0  0  0  0  0  0
  -24.5490  -31.7200   23.1040 C   0  0  0  0  0  0  0  0  0  0  0  0
  -27.2630  -27.1070   20.1080 C   0  0  0  0  0  0  0  0  0  0  0  0
  -23.3940  -30.2930   21.4570 C   0  0  0  0  0  3  0  0  0  0  0  0
  -24.8890  -28.7580   20.0500 C   0  0  0  0  0  0  0  0  0  0  0  0
  -25.9370  -30.6320   21.3090 C   0  0  0  0  0  2  0  0  0  0  0  0
  -26.0480  -29.2440   20.6680 C   0  0  0  0  0  0  0  0  0  0  0  0
  -27.2360  -28.4310   20.6880 C   0  0  0  0  0  3  0  0  0  0  0  0
  -26.0790  -26.7160   19.4410 C   0  0  0  0  0  3  0  0  0  0  0  0
  -24.9130  -27.5050   19.4250 C   0  0  0  0  0  3  0  0  0  0  0  0
  -23.6390  -29.6190   20.0820 C   0  0  0  0  0  2  0  0  0  0  0  0
  -24.6450  -30.9030   22.0120 N   0  0  0  0  0  0  0  0  0  0  0  0
  -23.4520  -31.9800   23.6220 O   0  0  0  0  0  0  0  0  0  0  0  0
  -22.7340  -29.2710   22.4150 C   0  0  0  0  0  0  0  0  0  0  0  0
  -21.4100  -29.0730   22.2790 N   0  0  0  0  0  0  0  0  0  0  0  0
  -23.4130  -28.6570   23.2410 O   0  0  0  0  0  0  0  0  0  0  0  0
  -20.9180  -29.6220   21.5880 H   0  0  0  0  0  0  0  0  0  0  0  0
  -18.0500  -27.8090   22.7530 C   0  0  0  0  0  0  0  0  0  0  0  0
  -20.6010  -28.1230   23.0460 C   0  0  0  0  0  3  0  0  0  0  0  0
  -20.7380  -26.6900   22.4780 C   0  0  0  0  0  2  0  0  0  0  0  0
  -19.6520  -26.3410   21.4550 C   0  0  0  0  0  2  0  0  0  0  0  0
  -18.2610  -26.4610   22.0850 C   0  0  0  0  0  2  0  0  0  0  0  0
  -19.1490  -28.5960   23.1900 C   0  0  0  0  0  0  0  0  0  0  0  0
  -18.8990  -29.8550   23.7770 C   0  0  0  0  0  3  0  0  0  0  0  0
  -17.5820  -30.3300   23.9300 C   0  0  0  0  0  3  0  0  0  0  0  0
  -16.4980  -29.5410   23.5080 C   0  0  0  0  0  3  0  0  0  0  0  0
  -16.7330  -28.2820   22.9260 C   0  0  0  0  0  3  0  0  0  0  0  0
  -25.8080  -32.3850   23.7390 C   0  0  0  0  0  3  0  0  0  0  0  0
  -26.3420  -31.6120   25.0070 C   0  0  1  0  0  0  0  0  0  0  0  0
  -25.2560  -31.3300   26.0700 C   0  0  0  0  0  1  0  0  0  0  0  0
  -26.9650  -30.2560   24.6010 C   0  0  0  0  0  1  0  0  0  0  0  0
  -27.4700  -32.4290   25.6810 C   0  0  0  0  0  1  0  0  0  0  0  0
  -25.4530  -33.7680   24.0920 N   0  0  0  0  0  0  0  0  0  0  0  0
  -25.7490  -34.8450   23.3500 C   0  0  0  0  0  0  0  0  0  0  0  0
  -26.4160  -34.7780   22.3140 O   0  0  0  0  0  0  0  0  0  0  0  0
  -24.8610  -33.8900   24.9010 H   0  0  0  0  0  0  0  0  0  0  0  0
  -23.9620  -36.5900   23.0350 C   0  0  0  0  0  1  0  0  0  0  0  0
  -25.2210  -36.2090   23.8330 C   0  0  0  0  0  3  0  0  0  0  0  0
  -27.3330  -37.1490   24.6650 C   0  0  0  0  0  1  0  0  0  0  0  0
  -26.2190  -37.2970   23.7320 N   0  0  0  0  0  0  0  0  0  0  0  0
  -25.7850  -38.2010   23.8980 H   0  0  0  0  0  0  0  0  0  0  0  0
  1  4  1  0
  2  1  1  0
  4 49  1  0
  4  5  1  0
  5  3  1  0
  6  2  1  0
  6  7  1  0
  6  5  1  0
  7  3  1  0
  7 10  1  0
  7  8  1  6
  9 10  2  0
 10 11  1  0
 12  9  1  0
 13 18  1  0
 14 15  1  0
 14 13  1  0
 16 15  1  0
 16 23  1  0
 16 17  1  0
 18 12  1  0
 18 17  1  0
 19 12  2  0
 20 21  2  0
 21 40  1  0
 22 21  1  0
 22 25  1  0
 23 24  1  0
 23 20  1  0
 24 22  2  0
 25 26  1  0
 26 27  2  0
 28 31  1  0
 28 27  1  0
 29 28  2  0
 30 29  1  0
 30 25  2  0
 31 32  1  0
 32 33  1  0
 33 34  2  0
 35 34  1  0
 35 39  1  0
 36 35  2  0
 37 32  2  0
 37 36  1  0
 38 37  1  0
 40 41  1  0
 41 44  1  0
 41 43  1  0
 42 40  2  0
 45 20  1  0
 45 46  1  0
 47 45  1  0
 49 48  2  0
 50 51  1  0
 50 49  1  0
 52 63  2  0
 53 51  1  0
 53 58  1  0
 54 62  1  0
 54 64  1  0
 55 61  1  0
 55 57  1  0
 56 62  1  0
 57 58  2  0
 57 56  1  0
 59 53  2  0
 60 59  1  0
 60 55  2  0
 61 54  1  0
 62 52  1  0
 64 66  2  0
 65 64  1  0
 67 65  1  0
 68 77  2  0
 68 73  1  0
 69 65  1  0
 69 73  1  0
 70 69  1  0
 71 72  1  0
 71 70  1  0
 72 68  1  0
 73 74  2  0
 74 75  1  0
 76 75  2  0
 77 76  1  0
 78 52  1  0
 78 83  1  0
 78 79  1  0
 79 82  1  1
 79 80  1  0
 81 79  1  0
 83 86  1  0
 84 88  1  0
 84 83  1  0
 85 84  2  0
 88 87  1  0
 90 88  1  0
 90 91  1  0
 90 89  1  0
M  ISO  4   9 100  12 100  50 101  51 101
M  END
>  <TORSDO>  (61) 
F 19

>  <SCORE>  (61) 
-12.426

>  <name>  (61) 
61

>  <ligand_id>  (61) 
61

>  <original_smiles>  (61) 
[H]C([H])=C(C([H])([H])Oc1c([H])c([H])c2c(c1[H])C([H])([H])N(C(=O)C([H])(N([H])C(=O)C([H])(N([H])C([H])([H])[H])C([H])([H])[H])C(C([H])([H])[H])(C([H])([H])[H])C([H])([H])[H])C([H])(C(=O)N([H])C1([H])c3c([H])c([H])c([H])c([H])c3C([H])([H])C([H])([H])C1([H])[H])C2([H])[H])C1([H])C([H])([H])C([H])([H])C2([H])C1([H])C([H])([H])[N+]2([H])C(=C([H])C(=O)N1C([H])([H])C([H])([H])C([H])([H])C([H])(n2nc(-c3c([H])c([H])c(Oc4c([H])c([H])c(F)c([H])c4F)c([H])c3[H])c(C(=O)N([H])[H])c2N([H])[H])C1([H])[H])C([H])([H])[H]

>  <smiles>  (61) 
[H]C([H])=C(C([H])([H])Oc1c([H])c([H])c2c(c1[H])C([H])([H])N(C(=O)C([H])(N([H])C(=O)C([H])(N([H])C([H])([H])[H])C([H])([H])[H])C(C([H])([H])[H])(C([H])([H])[H])C([H])([H])[H])C([H])(C(=O)N([H])C1([H])c3c([H])c([H])c([H])c([H])c3C([H])([H])C([H])([H])C1([H])[H])C2([H])[H])C1([H])C([H])([H])C([H])([H])C2([H])C1([H])C([H])([H])[N+]2([H])C(=C([H])C(=O)N1C([H])([H])C([H])([H])C([H])([H])C([H])(n2nc(-c3c([H])c([H])c(Oc4c([H])c([H])c(F)c([H])c4F)c([H])c3[H])c(C(=O)N([H])[H])c2N([H])[H])C1([H])[H])C([H])([H])[H]

$$$$
62:0:0
     RDKit          3D

 93102  0  0  1  0  0  0  0  0999 V2000
  -27.5650  -20.1440   21.4490 C   0  0  0  0  0  1  0  0  0  0  0  0
  -28.6960  -20.1160   20.4850 N   0  0  1  0  0  4  0  0  0  0  0  0
  -29.5240  -19.9300   21.0340 H   0  0  0  0  0  0  0  0  0  0  0  0
  -28.5880  -18.9540   19.5180 C   0  0  0  0  0  2  0  0  0  0  0  0
  -32.3300  -17.6680   19.5220 C   0  0  0  0  0  2  0  0  0  0  0  0
  -31.0700  -18.4020   18.9900 C   0  0  0  0  0  2  0  0  0  0  0  0
  -31.0080  -17.4910   21.7270 C   0  0  0  0  0  2  0  0  0  0  0  0
  -30.9510  -15.6910   20.7440 C   0  0  0  0  0  3  0  0  0  0  0  0
  -32.0210  -16.8240   20.7820 C   0  0  0  0  0  3  0  0  0  0  0  0
  -29.7150  -17.8330   19.5120 C   0  0  0  0  0  3  0  0  0  0  0  0
  -29.9220  -16.9070   20.7830 C   0  0  2  0  0  0  0  0  0  0  0  0
  -28.5930  -16.5830   21.4560 C   0  0  0  0  0  1  0  0  0  0  0  0
  -31.1020  -14.6090   19.6150 C   0  0  0  0  0  0  0  0  0  0  0  0
  -30.6120  -12.4330   18.5150 C   0  0  0  0  0  2  0  0  0  0  0  0
  -29.5570  -12.5910   17.4020 C   0  0  0  0  0  2  0  0  0  0  0  0
  -28.1310  -12.5100   17.9680 C   0  0  0  0  0  2  0  0  0  0  0  0
  -27.9340  -13.3700   19.2480 C   0  0  0  0  0  3  0  0  0  0  0  0
  -29.1020  -13.1670   20.2480 C   0  0  0  0  0  2  0  0  0  0  0  0
  -30.3650  -13.4520   19.5520 N   0  0  0  0  0  0  0  0  0  0  0  0
  -32.0520  -14.7580   18.8500 O   0  0  0  0  0  0  0  0  0  0  0  0
  -25.6160  -14.0080   20.1670 C   0  0  0  0  0  0  0  0  0  0  0  0
  -24.5730  -13.2570   20.6360 C   0  0  0  0  0  0  0  0  0  0  0  0
  -24.9930  -11.8980   20.5390 C   0  0  0  0  0  0  0  0  0  0  0  0
  -26.6260  -13.1120   19.8520 N   0  0  0  0  0  0  0  0  0  0  0  0
  -26.2580  -11.8330   20.1310 N   0  0  0  0  0  0  0  0  0  0  0  0
  -24.2500  -10.6530   20.7690 C   0  0  0  0  0  0  0  0  0  0  0  0
  -24.6560   -9.7240   21.7490 C   0  0  0  0  0  3  0  0  0  0  0  0
  -23.9130   -8.5440   21.9670 C   0  0  0  0  0  3  0  0  0  0  0  0
  -22.7460   -8.2880   21.2040 C   0  0  0  0  0  0  0  0  0  0  0  0
  -22.3600   -9.2080   20.2130 C   0  0  0  0  0  3  0  0  0  0  0  0
  -23.1040  -10.3790   19.9950 C   0  0  0  0  0  3  0  0  0  0  0  0
  -21.9800   -7.1550   21.3220 O   0  0  0  0  0  0  0  0  0  0  0  0
  -21.8100   -6.5270   22.5310 C   0  0  0  0  0  0  0  0  0  0  0  0
  -21.2540   -7.1950   23.6410 C   0  0  0  0  0  3  0  0  0  0  0  0
  -21.0290   -6.4930   24.8420 C   0  0  0  0  0  3  0  0  0  0  0  0
  -21.3530   -5.1250   24.9310 C   0  0  0  0  0  0  0  0  0  0  0  0
  -21.9010   -4.4580   23.8200 C   0  0  0  0  0  3  0  0  0  0  0  0
  -22.1240   -5.1570   22.6220 C   0  0  0  0  0  0  0  0  0  0  0  0
  -22.6310   -4.5050   21.5480 F   0  0  0  0  0  0  0  0  0  0  0  0
  -21.1320   -4.4470   26.0820 F   0  0  0  0  0  0  0  0  0  0  0  0
  -23.2270  -13.7760   21.0560 C   0  0  0  0  0  0  0  0  0  0  0  0
  -22.5820  -13.1020   22.0020 N   0  0  0  0  0  0  0  0  0  0  0  0
  -22.7560  -14.8050   20.5810 O   0  0  0  0  0  0  0  0  0  0  0  0
  -22.9710  -12.2680   22.4130 H   0  0  0  0  0  0  0  0  0  0  0  0
  -21.6820  -13.4300   22.3180 H   0  0  0  0  0  0  0  0  0  0  0  0
  -25.7720  -15.3700   19.9630 N   0  0  0  0  0  0  0  0  0  0  0  0
  -25.0360  -16.0390   20.1640 H   0  0  0  0  0  0  0  0  0  0  0  0
  -26.5670  -15.7730   19.4900 H   0  0  0  0  0  0  0  0  0  0  0  0
  -28.9160  -21.4730   19.8380 C   0  0  0  0  0  3  0  0  0  0  0  0
  -28.8980  -22.7090   20.8260 C   0  0  0  0  0  3  0  0  0  0  0  0
  -29.3320  -24.1260   20.2790 C   0  0  0  0  0  3  0  0  0  0  0  0
  -28.1720  -25.0910   19.8790 C   0  0  0  0  0  3  0  0  0  0  0  0
  -28.4660  -26.5240   19.7410 O   0  0  0  0  0  0  0  0  0  0  0  0
  -24.6440  -31.5870   23.0740 C   0  0  0  0  0  0  0  0  0  0  0  0
  -27.3350  -27.3390   19.7290 C   0  0  0  0  0  0  0  0  0  0  0  0
  -23.4490  -30.2350   21.3870 C   0  0  0  0  0  3  0  0  0  0  0  0
  -24.9190  -28.8360   19.8440 C   0  0  0  0  0  0  0  0  0  0  0  0
  -25.9640  -30.6750   21.1590 C   0  0  0  0  0  2  0  0  0  0  0  0
  -26.0830  -29.3440   20.4380 C   0  0  0  0  0  0  0  0  0  0  0  0
  -27.2980  -28.6110   20.3620 C   0  0  0  0  0  3  0  0  0  0  0  0
  -26.1510  -26.8890   19.0960 C   0  0  0  0  0  3  0  0  0  0  0  0
  -24.9550  -27.6170   19.1570 C   0  0  0  0  0  3  0  0  0  0  0  0
  -23.6530  -29.6520   19.9640 C   0  0  0  0  0  2  0  0  0  0  0  0
  -24.7030  -30.8420   21.9300 N   0  0  0  0  0  0  0  0  0  0  0  0
  -23.5670  -31.7900   23.6480 O   0  0  0  0  0  0  0  0  0  0  0  0
  -22.8560  -29.1390   22.3010 C   0  0  0  0  0  0  0  0  0  0  0  0
  -21.5510  -28.8670   22.1440 N   0  0  0  0  0  0  0  0  0  0  0  0
  -23.5700  -28.5310   23.1040 O   0  0  0  0  0  0  0  0  0  0  0  0
  -21.0450  -29.4220   21.4750 H   0  0  0  0  0  0  0  0  0  0  0  0
  -18.2560  -27.4160   22.5370 C   0  0  0  0  0  0  0  0  0  0  0  0
  -20.7870  -27.8450   22.8640 C   0  0  0  0  0  3  0  0  0  0  0  0
  -21.0070  -26.4370   22.2590 C   0  0  0  0  0  2  0  0  0  0  0  0
  -19.9380  -26.0450   21.2280 C   0  0  0  0  0  2  0  0  0  0  0  0
  -18.5270  -26.1080   21.8230 C   0  0  0  0  0  2  0  0  0  0  0  0
  -19.3170  -28.2420   23.0030 C   0  0  0  0  0  0  0  0  0  0  0  0
  -19.0020  -29.4610   23.6380 C   0  0  0  0  0  3  0  0  0  0  0  0
  -17.6650  -29.8720   23.7980 C   0  0  0  0  0  3  0  0  0  0  0  0
  -16.6250  -29.0510   23.3410 C   0  0  0  0  0  3  0  0  0  0  0  0
  -16.9220  -27.8260   22.7150 C   0  0  0  0  0  3  0  0  0  0  0  0
  -25.9200  -32.2260   23.7050 C   0  0  0  0  0  3  0  0  0  0  0  0
  -25.5730  -33.6010   24.0920 N   0  0  0  0  0  0  0  0  0  0  0  0
  -25.8690  -34.6900   23.3750 C   0  0  0  0  0  0  0  0  0  0  0  0
  -26.5310  -34.6460   22.3340 O   0  0  0  0  0  0  0  0  0  0  0  0
  -24.9790  -33.7100   24.9000 H   0  0  0  0  0  0  0  0  0  0  0  0
  -24.0930  -36.4540   23.0860 C   0  0  0  0  0  1  0  0  0  0  0  0
  -25.3420  -36.0450   23.8850 C   0  0  0  0  0  3  0  0  0  0  0  0
  -27.4480  -36.9510   24.7680 C   0  0  0  0  0  1  0  0  0  0  0  0
  -26.3490  -37.1280   23.8250 N   0  0  0  0  0  0  0  0  0  0  0  0
  -25.9170  -38.0330   24.0030 H   0  0  0  0  0  0  0  0  0  0  0  0
  -26.4750  -31.4220   24.9440 C   0  0  1  0  0  0  0  0  0  0  0  0
  -25.4030  -31.1120   26.0120 C   0  0  0  0  0  1  0  0  0  0  0  0
  -27.0970  -30.0800   24.4900 C   0  0  0  0  0  1  0  0  0  0  0  0
  -27.6030  -32.2300   25.6270 C   0  0  0  0  0  1  0  0  0  0  0  0
  2  3  1  1
  2  1  1  0
  4  2  1  0
  6 10  1  0
  6  5  1  0
  8 13  1  0
  8  9  1  0
  8 11  1  0
  9  5  1  0
  9  7  1  0
 10  4  1  0
 10 11  1  0
 11 12  1  1
 11  7  1  0
 14 19  1  0
 15 16  1  0
 15 14  1  0
 17 16  1  0
 17 24  1  0
 17 18  1  0
 19 13  1  0
 19 18  1  0
 20 13  2  0
 21 22  2  0
 22 41  1  0
 23 22  1  0
 23 26  1  0
 24 25  1  0
 24 21  1  0
 25 23  2  0
 26 27  1  0
 27 28  2  0
 29 32  1  0
 29 28  1  0
 30 29  2  0
 31 30  1  0
 31 26  2  0
 32 33  1  0
 33 38  2  0
 33 34  1  0
 34 35  2  0
 35 36  1  0
 36 40  1  0
 37 36  2  0
 38 37  1  0
 39 38  1  0
 41 42  1  0
 42 45  1  0
 42 44  1  0
 43 41  2  0
 46 47  1  0
 46 21  1  0
 48 46  1  0
 49  2  1  0
 49 50  2  0
 51 50  1  0
 52 51  2  0
 53 52  1  0
 54 65  2  0
 55 53  1  0
 55 60  1  0
 56 64  1  0
 56 66  1  0
 57 63  1  0
 57 59  1  0
 58 64  1  0
 59 58  1  0
 60 59  2  0
 61 62  1  0
 61 55  2  0
 62 57  2  0
 63 56  1  0
 64 54  1  0
 66 68  2  0
 67 66  1  0
 69 67  1  0
 70 79  2  0
 70 75  1  0
 71 67  1  0
 71 75  1  0
 72 71  1  0
 73 74  1  0
 73 72  1  0
 74 70  1  0
 75 76  2  0
 76 77  1  0
 78 77  2  0
 79 78  1  0
 80 54  1  0
 80 81  1  0
 80 90  1  0
 81 84  1  0
 82 86  1  0
 82 81  1  0
 83 82  2  0
 86 85  1  0
 88 86  1  0
 88 89  1  0
 88 87  1  0
 90 93  1  1
 90 91  1  0
 92 90  1  0
M  ISO  4   8 100  13 100  52 101  53 101
M  END
>  <TORSDO>  (62) 
F 22

>  <SCORE>  (62) 
-9.614

>  <name>  (62) 
62

>  <ligand_id>  (62) 
62

>  <original_smiles>  (62) 
[H]c1c([H])c([H])c2c(c1[H])C([H])([H])C([H])([H])C([H])([H])C2([H])N([H])C(=O)C1([H])N(C(=O)C([H])(N([H])C(=O)C([H])(N([H])C([H])([H])[H])C([H])([H])[H])C(C([H])([H])[H])(C([H])([H])[H])C([H])([H])[H])C([H])([H])c2c([H])c(OC([H])([H])C([H])([H])C([H])([H])C([H])([H])[N+]([H])(C([H])([H])[H])C([H])([H])C3([H])C([H])([H])C([H])([H])C4([H])C([H])([H])C3(C([H])([H])[H])C4([H])C(=O)N3C([H])([H])C([H])([H])C([H])([H])C([H])(n4nc(-c5c([H])c([H])c(Oc6c([H])c([H])c(F)c([H])c6F)c([H])c5[H])c(C(=O)N([H])[H])c4N([H])[H])C3([H])[H])c([H])c([H])c2C1([H])[H]

>  <smiles>  (62) 
[H]c1c([H])c([H])c2c(c1[H])C([H])([H])C([H])([H])C([H])([H])C2([H])N([H])C(=O)C1([H])N(C(=O)C([H])(N([H])C(=O)C([H])(N([H])C([H])([H])[H])C([H])([H])[H])C(C([H])([H])[H])(C([H])([H])[H])C([H])([H])[H])C([H])([H])c2c([H])c(OC([H])([H])C([H])([H])C([H])([H])C([H])([H])[N+]([H])(C([H])([H])[H])C([H])([H])C3([H])C([H])([H])C([H])([H])C4([H])C([H])([H])C3(C([H])([H])[H])C4([H])C(=O)N3C([H])([H])C([H])([H])C([H])([H])C([H])(n4nc(-c5c([H])c([H])c(Oc6c([H])c([H])c(F)c([H])c6F)c([H])c5[H])c(C(=O)N([H])[H])c4N([H])[H])C3([H])[H])c([H])c([H])c2C1([H])[H]

$$$$
63:0:0
     RDKit          3D

 95104  0  0  1  0  0  0  0  0999 V2000
  -33.2550  -21.1170   19.9580 C   0  0  0  0  0  2  0  0  0  0  0  0
  -32.8660  -19.8460   20.0950 C   0  0  0  0  0  2  0  0  0  0  0  0
  -30.1790  -21.5470   21.2120 C   0  0  0  0  0  2  0  0  0  0  0  0
  -31.8930  -21.5840   19.4550 C   0  0  0  0  0  3  0  0  0  0  0  0
  -31.4410  -20.1330   19.6560 C   0  0  0  0  0  3  0  0  0  0  0  0
  -31.1360  -22.5000   20.4230 C   0  0  0  0  0  3  0  0  0  0  0  0
  -30.4430  -20.0610   20.8080 C   0  0  0  0  0  3  0  0  0  0  0  0
  -30.4080  -23.6540   19.6830 C   0  0  0  0  0  0  0  0  0  0  0  0
  -30.8200  -24.9120   19.9390 N   0  0  0  0  0  0  0  0  0  0  0  0
  -29.5260  -23.4090   18.8570 O   0  0  0  0  0  0  0  0  0  0  0  0
  -31.5450  -25.0150   20.6380 H   0  0  0  0  0  0  0  0  0  0  0  0
  -30.4790  -26.1310   19.1830 C   0  0  0  0  0  2  0  0  0  0  0  0
  -29.6590  -27.1710   19.9850 C   0  0  0  0  0  2  0  0  0  0  0  0
  -28.3640  -26.6310   20.1660 O   0  0  0  0  0  0  0  0  0  0  0  0
  -24.5820  -31.9000   23.2420 C   0  0  0  0  0  0  0  0  0  0  0  0
  -27.2660  -27.4600   20.1930 C   0  0  0  0  0  0  0  0  0  0  0  0
  -23.3920  -30.4810   21.6040 C   0  0  0  0  0  3  0  0  0  0  0  0
  -24.8620  -28.9440   20.1980 C   0  0  0  0  0  0  0  0  0  0  0  0
  -25.9170  -30.8550   21.4130 C   0  0  0  0  0  2  0  0  0  0  0  0
  -26.0190  -29.4810   20.7820 C   0  0  0  0  0  0  0  0  0  0  0  0
  -27.2300  -28.7490   20.7750 C   0  0  0  0  0  3  0  0  0  0  0  0
  -26.0900  -26.9280   19.6300 C   0  0  0  0  0  3  0  0  0  0  0  0
  -24.8920  -27.6640   19.6200 C   0  0  0  0  0  3  0  0  0  0  0  0
  -23.6120  -29.7940   20.2300 C   0  0  0  0  0  2  0  0  0  0  0  0
  -24.6490  -31.0910   22.1450 N   0  0  0  0  0  0  0  0  0  0  0  0
  -23.4960  -32.1700   23.7730 O   0  0  0  0  0  0  0  0  0  0  0  0
  -22.7380  -29.4640   22.5670 C   0  0  0  0  0  0  0  0  0  0  0  0
  -21.4140  -29.2780   22.4350 N   0  0  0  0  0  0  0  0  0  0  0  0
  -23.4190  -28.8440   23.3880 O   0  0  0  0  0  0  0  0  0  0  0  0
  -20.9270  -29.8300   21.7430 H   0  0  0  0  0  0  0  0  0  0  0  0
  -18.0390  -28.0880   22.9280 C   0  0  0  0  0  0  0  0  0  0  0  0
  -20.5960  -28.3450   23.2070 C   0  0  0  0  0  3  0  0  0  0  0  0
  -20.6990  -26.9120   22.6370 C   0  0  0  0  0  2  0  0  0  0  0  0
  -19.5990  -26.5860   21.6200 C   0  0  0  0  0  2  0  0  0  0  0  0
  -18.2150  -26.7360   22.2600 C   0  0  0  0  0  2  0  0  0  0  0  0
  -19.1560  -28.8510   23.3590 C   0  0  0  0  0  0  0  0  0  0  0  0
  -18.9370  -30.1180   23.9420 C   0  0  0  0  0  3  0  0  0  0  0  0
  -17.6320  -30.6220   24.1010 C   0  0  0  0  0  3  0  0  0  0  0  0
  -16.5290  -29.8560   23.6880 C   0  0  0  0  0  3  0  0  0  0  0  0
  -16.7330  -28.5910   23.1070 C   0  0  0  0  0  3  0  0  0  0  0  0
  -25.8620  -32.5390   23.8650 C   0  0  0  0  0  3  0  0  0  0  0  0
  -25.5450  -33.9350   24.1910 N   0  0  0  0  0  0  0  0  0  0  0  0
  -25.8760  -34.9860   23.4300 C   0  0  0  0  0  0  0  0  0  0  0  0
  -26.5540  -34.8830   22.4040 O   0  0  0  0  0  0  0  0  0  0  0  0
  -24.9440  -34.0900   24.9870 H   0  0  0  0  0  0  0  0  0  0  0  0
  -24.1410  -36.7660   23.0580 C   0  0  0  0  0  1  0  0  0  0  0  0
  -25.3790  -36.3730   23.8800 C   0  0  0  0  0  3  0  0  0  0  0  0
  -27.5060  -37.2680   24.7180 C   0  0  0  0  0  1  0  0  0  0  0  0
  -26.4070  -37.4310   23.7690 N   0  0  0  0  0  0  0  0  0  0  0  0
  -25.9950  -38.3490   23.9160 H   0  0  0  0  0  0  0  0  0  0  0  0
  -26.3810  -31.7700   25.1420 C   0  0  1  0  0  0  0  0  0  0  0  0
  -25.2880  -31.5250   26.2080 C   0  0  0  0  0  1  0  0  0  0  0  0
  -26.9730  -30.3980   24.7470 C   0  0  0  0  0  1  0  0  0  0  0  0
  -27.5260  -32.5710   25.8040 C   0  0  0  0  0  1  0  0  0  0  0  0
  -29.1170  -18.1570   20.1440 C   0  0  0  0  0  0  0  0  0  0  0  0
  -27.7790  -17.6470   19.6510 C   0  0  0  0  0  1  0  0  0  0  0  0
  -29.2050  -19.4070   20.4120 N   0  0  0  0  0  0  0  0  0  0  0  0
  -30.2230  -17.0810   20.1820 C   0  0  0  0  0  2  0  0  0  0  0  0
  -29.8770  -15.7910   20.9940 C   0  0  0  0  0  2  0  0  0  0  0  0
  -30.6300  -14.5280   20.4950 C   0  0  0  0  0  0  0  0  0  0  0  0
  -30.3550  -12.3570   19.3520 C   0  0  0  0  0  2  0  0  0  0  0  0
  -29.4110  -12.5690   18.1460 C   0  0  0  0  0  2  0  0  0  0  0  0
  -27.9350  -12.4270   18.5710 C   0  0  0  0  0  2  0  0  0  0  0  0
  -27.5980  -13.2570   19.8370 C   0  0  0  0  0  3  0  0  0  0  0  0
  -28.6560  -13.0350   20.9440 C   0  0  0  0  0  2  0  0  0  0  0  0
  -29.9790  -13.3390   20.3820 N   0  0  0  0  0  0  0  0  0  0  0  0
  -31.7760  -14.6830   20.0650 O   0  0  0  0  0  0  0  0  0  0  0  0
  -25.1960  -13.8560   20.5360 C   0  0  0  0  0  0  0  0  0  0  0  0
  -24.1290  -13.0820   20.9040 C   0  0  0  0  0  0  0  0  0  0  0  0
  -24.5990  -11.7330   20.8820 C   0  0  0  0  0  0  0  0  0  0  0  0
  -26.2470  -12.9800   20.3150 N   0  0  0  0  0  0  0  0  0  0  0  0
  -25.8900  -11.6970   20.5820 N   0  0  0  0  0  0  0  0  0  0  0  0
  -23.8780  -10.4700   21.0740 C   0  0  0  0  0  0  0  0  0  0  0  0
  -24.3220   -9.4980   21.9960 C   0  0  0  0  0  3  0  0  0  0  0  0
  -23.5990   -8.3000   22.1760 C   0  0  0  0  0  3  0  0  0  0  0  0
  -22.4190   -8.0640   21.4320 C   0  0  0  0  0  0  0  0  0  0  0  0
  -21.9950   -9.0250   20.4980 C   0  0  0  0  0  3  0  0  0  0  0  0
  -22.7180  -10.2160   20.3160 C   0  0  0  0  0  3  0  0  0  0  0  0
  -21.6680   -6.9180   21.5210 O   0  0  0  0  0  0  0  0  0  0  0  0
  -21.6470   -6.1590   22.6630 C   0  0  0  0  0  0  0  0  0  0  0  0
  -21.2680   -6.7000   23.9110 C   0  0  0  0  0  3  0  0  0  0  0  0
  -21.1910   -5.8680   25.0460 C   0  0  0  0  0  3  0  0  0  0  0  0
  -21.4870   -4.4960   24.9340 C   0  0  0  0  0  0  0  0  0  0  0  0
  -21.8610   -3.9550   23.6920 C   0  0  0  0  0  3  0  0  0  0  0  0
  -21.9370   -4.7840   22.5590 C   0  0  0  0  0  0  0  0  0  0  0  0
  -22.2770   -4.2520   21.3600 F   0  0  0  0  0  0  0  0  0  0  0  0
  -21.4070   -3.6950   26.0210 F   0  0  0  0  0  0  0  0  0  0  0  0
  -22.7300  -13.5570   21.1680 C   0  0  0  0  0  0  0  0  0  0  0  0
  -22.0070  -12.8560   22.0340 N   0  0  0  0  0  0  0  0  0  0  0  0
  -22.2890  -14.5780   20.6440 O   0  0  0  0  0  0  0  0  0  0  0  0
  -22.3790  -12.0270   22.4690 H   0  0  0  0  0  0  0  0  0  0  0  0
  -21.0690  -13.1520   22.2670 H   0  0  0  0  0  0  0  0  0  0  0  0
  -25.3510  -15.2240   20.3510 N   0  0  0  0  0  0  0  0  0  0  0  0
  -24.5710  -15.8670   20.4370 H   0  0  0  0  0  0  0  0  0  0  0  0
  -26.1920  -15.6610   20.0010 H   0  0  0  0  0  0  0  0  0  0  0  0
  1  2  1  0
  4  5  1  0
  4  1  1  0
  4  6  1  0
  5  2  1  0
  5  7  1  0
  6  8  1  0
  6  3  1  0
  7 57  1  0
  7  3  1  0
  8  9  1  0
  9 11  1  0
 10  8  2  0
 12  9  1  0
 12 13  1  0
 13 14  1  0
 14 16  1  0
 15 26  2  0
 16 21  1  0
 17 25  1  0
 17 27  1  0
 18 24  1  0
 18 20  1  0
 19 25  1  0
 20 19  1  0
 21 20  2  0
 22 16  2  0
 23 22  1  0
 23 18  2  0
 24 17  1  0
 25 15  1  0
 27 29  2  0
 28 27  1  0
 30 28  1  0
 31 40  2  0
 31 36  1  0
 32 28  1  0
 32 36  1  0
 33 32  1  0
 34 35  1  0
 34 33  1  0
 35 31  1  0
 36 37  2  0
 37 38  1  0
 39 38  2  0
 40 39  1  0
 41 15  1  0
 41 42  1  0
 41 51  1  0
 42 45  1  0
 43 47  1  0
 43 42  1  0
 44 43  2  0
 47 46  1  0
 49 47  1  0
 49 50  1  0
 49 48  1  0
 51 54  1  1
 51 52  1  0
 53 51  1  0
 55 58  1  0
 55 57  2  0
 56 55  1  0
 58 59  1  0
 60 59  1  0
 61 66  1  0
 62 63  1  0
 62 61  1  0
 64 63  1  0
 64 71  1  0
 64 65  1  0
 66 60  1  0
 66 65  1  0
 67 60  2  0
 68 69  2  0
 69 88  1  0
 70 69  1  0
 70 73  1  0
 71 68  1  0
 71 72  1  0
 72 70  2  0
 73 74  1  0
 74 75  2  0
 76 79  1  0
 76 75  1  0
 77 76  2  0
 78 77  1  0
 78 73  2  0
 79 80  1  0
 80 81  1  0
 81 82  2  0
 83 82  1  0
 83 87  1  0
 84 83  2  0
 85 80  2  0
 85 84  1  0
 86 85  1  0
 88 89  1  0
 89 92  1  0
 89 91  1  0
 90 88  2  0
 93 94  1  0
 93 68  1  0
 95 93  1  0
M  ISO  4  13 101  14 101  59 100  60 100
M  END
>  <TORSDO>  (63) 
F 22

>  <SCORE>  (63) 
-13.514

>  <name>  (63) 
63

>  <ligand_id>  (63) 
63

>  <original_smiles>  (63) 
[H]C1=C([H])C2([H])C([H])(C(=O)N([H])C([H])([H])C([H])([H])Oc3c([H])c([H])c4c(c3[H])C([H])([H])N(C(=O)C([H])(N([H])C(=O)C([H])(N([H])C([H])([H])[H])C([H])([H])[H])C(C([H])([H])[H])(C([H])([H])[H])C([H])([H])[H])C([H])(C(=O)N([H])C3([H])c5c([H])c([H])c([H])c([H])c5C([H])([H])C([H])([H])C3([H])[H])C4([H])[H])C([H])([H])C([H])(N=C(C([H])([H])[H])C([H])([H])C([H])([H])C(=O)N3C([H])([H])C([H])([H])C([H])([H])C([H])(n4nc(-c5c([H])c([H])c(Oc6c([H])c([H])c(F)c([H])c6F)c([H])c5[H])c(C(=O)N([H])[H])c4N([H])[H])C3([H])[H])C12[H]

>  <smiles>  (63) 
[H]C1=C([H])C2([H])C([H])(C(=O)N([H])C([H])([H])C([H])([H])Oc3c([H])c([H])c4c(c3[H])C([H])([H])N(C(=O)C([H])(N([H])C(=O)C([H])(N([H])C([H])([H])[H])C([H])([H])[H])C(C([H])([H])[H])(C([H])([H])[H])C([H])([H])[H])C([H])(C(=O)N([H])C3([H])c5c([H])c([H])c([H])c([H])c5C([H])([H])C([H])([H])C3([H])[H])C4([H])[H])C([H])([H])C([H])(N=C(C([H])([H])[H])C([H])([H])C([H])([H])C(=O)N3C([H])([H])C([H])([H])C([H])([H])C([H])(n4nc(-c5c([H])c([H])c(Oc6c([H])c([H])c(F)c([H])c6F)c([H])c5[H])c(C(=O)N([H])[H])c4N([H])[H])C3([H])[H])C12[H]

$$$$
64:0:0
     RDKit          3D

 97101  0  0  1  0  0  0  0  0999 V2000
  -23.4330  -28.2630   17.8350 C   0  0  0  0  0  0  0  0  0  0  0  0
  -23.5460  -26.9080   17.6500 N   0  0  0  0  0  0  0  0  0  0  0  0
  -23.5060  -28.9910   16.8450 O   0  0  0  0  0  0  0  0  0  0  0  0
  -23.3780  -26.3430   18.4700 H   0  0  0  0  0  0  0  0  0  0  0  0
  -24.2550  -31.1380   19.9590 C   0  0  0  0  0  2  0  0  0  0  0  0
  -23.1380  -30.4820   19.1820 C   0  0  0  0  0  2  0  0  0  0  0  0
  -25.2580  -30.0230   20.2050 C   0  0  0  0  0  2  0  0  0  0  0  0
  -23.3680  -28.9450   19.3000 C   0  0  0  0  0  3  0  0  0  0  0  0
  -24.4850  -28.7000   20.4740 N   0  0  2  0  0  4  0  0  0  0  0  0
  -25.1360  -28.2880   19.8100 H   0  0  0  0  0  0  0  0  0  0  0  0
  -25.3920  -25.7180   21.7250 C   0  0  0  0  0 15  0  0  0  0  0  0
  -26.7560  -22.9880   21.3890 C   0  0  0  0  0 15  0  0  0  0  0  0
  -27.5780  -20.1360   20.8510 C   0  0  0  0  0 15  0  0  0  0  0  0
  -28.8490  -17.6770   20.5750 C   0  0  0  0  0  2  0  0  0  0  0  0
  -29.9350  -14.7140   19.6430 C   0  0  0  0  0  2  0  0  0  0  0  0
  -29.5490  -13.4850   18.5890 C   0  0  0  0  0  2  0  0  0  0  0  0
  -28.4440  -12.5440   19.0580 C   0  0  0  0  0  2  0  0  0  0  0  0
  -27.5640  -13.4670   19.8960 C   0  0  0  0  0  3  0  0  0  0  0  0
  -28.2480  -14.5200   20.9340 C   0  0  0  0  0  2  0  0  0  0  0  0
  -28.8830  -15.8900   20.3500 N   0  0  0  0  0  0  0  0  0  0  0  0
  -30.1450  -17.4320   20.4240 O   0  0  0  0  0  1  0  0  0  0  0  0
  -25.2170  -13.5860   20.6400 C   0  0  0  0  0  0  0  0  0  0  0  0
  -24.2470  -12.7050   20.9920 C   0  0  0  0  0  0  0  0  0  0  0  0
  -24.8290  -11.4000   20.9010 C   0  0  0  0  0  0  0  0  0  0  0  0
  -26.3420  -12.8460   20.3880 N   0  0  0  0  0  0  0  0  0  0  0  0
  -26.1290  -11.5020   20.5700 N   0  0  0  0  0  0  0  0  0  0  0  0
  -24.1680  -10.0870   21.0580 C   0  0  0  0  0  0  0  0  0  0  0  0
  -24.5860   -9.1460   22.0250 C   0  0  0  0  0  3  0  0  0  0  0  0
  -23.8950   -7.9220   22.1850 C   0  0  0  0  0  3  0  0  0  0  0  0
  -22.7680   -7.6260   21.3800 C   0  0  0  0  0  0  0  0  0  0  0  0
  -22.3650   -8.5600   20.4090 C   0  0  0  0  0  3  0  0  0  0  0  0
  -23.0570   -9.7720   20.2460 C   0  0  0  0  0  3  0  0  0  0  0  0
  -22.0550   -6.4520   21.4450 O   0  0  0  0  0  0  0  0  0  0  0  0
  -21.9000   -5.7620   22.6210 C   0  0  0  0  0  0  0  0  0  0  0  0
  -21.2900   -6.3480   23.7520 C   0  0  0  0  0  3  0  0  0  0  0  0
  -21.0850   -5.5830   24.9170 C   0  0  0  0  0  3  0  0  0  0  0  0
  -21.4820   -4.2340   24.9540 C   0  0  0  0  0  0  0  0  0  0  0  0
  -22.0830   -3.6460   23.8270 C   0  0  0  0  0  3  0  0  0  0  0  0
  -22.2880   -4.4070   22.6630 C   0  0  0  0  0  0  0  0  0  0  0  0
  -22.8470   -3.8280   21.5730 F   0  0  0  0  0  0  0  0  0  0  0  0
  -21.2810   -3.4980   26.0730 F   0  0  0  0  0  0  0  0  0  0  0  0
  -22.8320  -13.0870   21.2900 C   0  0  0  0  0  0  0  0  0  0  0  0
  -22.1620  -12.3310   22.1500 N   0  0  0  0  0  0  0  0  0  0  0  0
  -22.3370  -14.1060   20.8100 O   0  0  0  0  0  0  0  0  0  0  0  0
  -22.5860  -11.5150   22.5630 H   0  0  0  0  0  0  0  0  0  0  0  0
  -21.2140  -12.5750   22.3990 H   0  0  0  0  0  0  0  0  0  0  0  0
  -25.2270  -14.9690   20.4830 N   0  0  0  0  0  0  0  0  0  0  0  0
  -24.3820  -15.5190   20.5990 H   0  0  0  0  0  0  0  0  0  0  0  0
  -26.0160  -15.5100   20.1560 H   0  0  0  0  0  0  0  0  0  0  0  0
  -24.2260  -26.1700   16.5090 C   0  0  0  0  0  2  0  0  0  0  0  0
  -26.7220  -25.2580   16.5720 C   0  0  0  0  0  3  0  0  0  0  0  0
  -25.1320  -24.4490   18.1410 C   0  0  0  0  0  3  0  0  0  0  0  0
  -27.7940  -25.0210   17.5110 C   0  0  0  0  0  3  0  0  0  0  0  0
  -26.1910  -24.2740   19.0580 C   0  0  0  0  0  3  0  0  0  0  0  0
  -25.3580  -25.1950   16.9870 C   0  0  0  0  0  0  0  0  0  0  0  0
  -27.5090  -24.8370   18.9040 C   0  0  0  0  0  0  0  0  0  0  0  0
  -28.2090  -25.5660   19.9870 O   0  0  0  0  0  0  0  0  0  0  0  0
  -25.2300  -31.0510   23.9540 C   0  0  0  0  0  0  0  0  0  0  0  0
  -28.3830  -26.9580   19.9170 C   0  0  0  0  0  3  0  0  0  0  0  0
  -23.9920  -28.8700   22.7640 C   0  0  0  0  0  2  0  0  0  0  0  0
  -25.9060  -27.0680   20.2480 C   0  0  0  0  0  2  0  0  0  0  0  0
  -26.7570  -29.0150   22.7830 C   0  0  0  0  0  2  0  0  0  0  0  0
  -27.1150  -27.8490   21.3820 C   0  0  0  0  0  3  0  0  0  0  0  0
  -28.3900  -27.7600   21.0490 C   0  0  0  0  0  2  0  0  0  0  0  0
  -27.5690  -27.5230   18.9290 C   0  0  0  0  0  2  0  0  0  0  0  0
  -26.2240  -27.4400   18.9970 C   0  0  0  0  0  2  0  0  0  0  0  0
  -24.0540  -27.2450   21.4490 C   0  0  0  0  0  1  0  0  0  0  0  0
  -25.3390  -29.7750   23.2200 N   0  0  0  0  0  0  0  0  0  0  0  0
  -24.1400  -31.6090   24.1950 O   0  0  0  0  0  0  0  0  0  0  0  0
  -22.9240  -28.9970   23.6700 C   0  0  0  0  0  0  0  0  0  0  0  0
  -21.7020  -29.2480   23.2130 N   0  0  0  0  0  0  0  0  0  0  0  0
  -23.2570  -28.6990   24.7920 O   0  0  0  0  0  0  0  0  0  0  0  0
  -21.5780  -29.5330   22.2500 H   0  0  0  0  0  0  0  0  0  0  0  0
  -18.2530  -28.2990   23.0640 C   0  0  0  0  0  0  0  0  0  0  0  0
  -20.6790  -28.4300   23.7880 C   0  0  0  0  0  3  0  0  0  0  0  0
  -20.8400  -26.9870   23.2530 C   0  0  0  0  0  2  0  0  0  0  0  0
  -19.9380  -26.6860   22.0600 C   0  0  0  0  0  2  0  0  0  0  0  0
  -18.4790  -26.9160   22.4680 C   0  0  0  0  0  2  0  0  0  0  0  0
  -19.3130  -29.0400   23.6310 C   0  0  0  0  0  0  0  0  0  0  0  0
  -19.0900  -30.3460   24.1200 C   0  0  0  0  0  3  0  0  0  0  0  0
  -17.7980  -30.8990   24.0770 C   0  0  0  0  0  3  0  0  0  0  0  0
  -16.7320  -30.1440   23.5500 C   0  0  0  0  0  3  0  0  0  0  0  0
  -16.9640  -28.8510   23.0440 C   0  0  0  0  0  3  0  0  0  0  0  0
  -26.4280  -31.9090   24.6210 C   0  0  0  0  0  3  0  0  0  0  0  0
  -26.1610  -33.4020   24.8010 N   0  0  0  0  0  0  0  0  0  0  0  0
  -26.7690  -34.4700   24.2230 C   0  0  0  0  0  0  0  0  0  0  0  0
  -27.5970  -34.3280   23.3260 O   0  0  0  0  0  0  0  0  0  0  0  0
  -25.4230  -33.6150   25.4550 H   0  0  0  0  0  0  0  0  0  0  0  0
  -25.3050  -36.5180   23.7770 C   0  0  0  0  0  1  0  0  0  0  0  0
  -26.4110  -35.9290   24.6720 C   0  0  0  0  0  3  0  0  0  0  0  0
  -28.5400  -36.6630   25.7060 C   0  0  0  0  0  1  0  0  0  0  0  0
  -27.5500  -36.8900   24.6570 N   0  0  0  0  0  0  0  0  0  0  0  0
  -27.2160  -37.8470   24.7400 H   0  0  0  0  0  0  0  0  0  0  0  0
  -26.7710  -31.3590   26.0650 C   0  0  1  0  0  0  0  0  0  0  0  0
  -25.5350  -31.3070   26.9960 C   0  0  0  0  0  1  0  0  0  0  0  0
  -27.3360  -29.9370   25.9940 C   0  0  0  0  0  1  0  0  0  0  0  0
  -27.8650  -32.1970   26.7760 C   0  0  0  0  0  1  0  0  0  0  0  0
  2  1  1  0
  2  4  1  0
  3  1  2  0
  5  7  1  0
  6  8  1  0
  6  5  1  0
  7  9  1  0
  8  1  1  0
  8  9  1  0
  9 67  1  0
  9 10  1  6
 15 20  1  0
 16 17  1  0
 16 15  1  0
 18 17  1  0
 18 25  1  0
 18 19  1  0
 20 14  1  0
 20 19  1  0
 21 14  1  0
 22 23  2  0
 23 42  1  0
 24 23  1  0
 24 27  1  0
 25 26  1  0
 25 22  1  0
 26 24  2  0
 27 28  1  0
 28 29  2  0
 30 33  1  0
 30 29  1  0
 31 30  2  0
 32 31  1  0
 32 27  2  0
 33 34  1  0
 34 39  2  0
 34 35  1  0
 35 36  2  0
 36 37  1  0
 37 41  1  0
 38 37  2  0
 39 38  1  0
 40 39  1  0
 42 43  1  0
 43 46  1  0
 43 45  1  0
 44 42  2  0
 47 48  1  0
 47 22  1  0
 49 47  1  0
 50 55  1  0
 50  2  1  0
 51 55  2  0
 51 53  1  0
 52 54  2  0
 53 56  2  0
 55 52  1  0
 56 54  1  0
 56 57  1  0
 58 69  2  0
 59 57  1  0
 59 64  1  0
 60 68  1  0
 60 70  1  0
 61 63  1  0
 62 68  1  0
 63 62  1  0
 64 63  1  0
 65 66  1  0
 65 59  1  0
 66 61  1  0
 68 58  1  0
 70 72  2  0
 71 70  1  0
 73 71  1  0
 74 79  1  0
 75 71  1  0
 76 75  1  0
 77 78  1  0
 77 76  1  0
 78 74  1  0
 79 75  1  0
 79 80  2  0
 81 80  1  0
 82 81  2  0
 83 74  2  0
 83 82  1  0
 84 58  1  0
 84 85  1  0
 84 94  1  0
 85 88  1  0
 86 90  1  0
 86 85  1  0
 87 86  2  0
 90 89  1  0
 92 90  1  0
 92 93  1  0
 92 91  1  0
 94 97  1  1
 94 95  1  0
 96 94  1  0
M  ISO  4  13 100  14 100  56 101  57 101
M  END
>  <TORSDO>  (64) 
F 22

>  <SCORE>  (64) 
-10.132

>  <name>  (64) 
64

>  <ligand_id>  (64) 
64

>  <original_smiles>  (64) 
[H]c1c([H])c([H])c2c(c1[H])C([H])([H])C([H])([H])C([H])([H])C2([H])N([H])C(=O)C1([H])N(C(=O)C([H])(N([H])C(=O)C([H])(N([H])C([H])([H])[H])C([H])([H])[H])C(C([H])([H])[H])(C([H])([H])[H])C([H])([H])[H])C([H])([H])c2c([H])c(Oc3c([H])c([H])c(C([H])([H])N([H])C(=O)C4([H])C([H])([H])C([H])([H])C([H])([H])[N+]4([H])C([H])([H])C([H])([H])C([H])([H])C(=O)N4C([H])([H])C([H])([H])C([H])([H])C([H])(n5nc(-c6c([H])c([H])c(Oc7c([H])c([H])c(F)c([H])c7F)c([H])c6[H])c(C(=O)N([H])[H])c5N([H])[H])C4([H])[H])c([H])c3[H])c([H])c([H])c2C1([H])[H]

>  <smiles>  (64) 
[H]c1c([H])c([H])c2c(c1[H])C([H])([H])C([H])([H])C([H])([H])C2([H])N([H])C(=O)C1([H])N(C(=O)C([H])(N([H])C(=O)C([H])(N([H])C([H])([H])[H])C([H])([H])[H])C(C([H])([H])[H])(C([H])([H])[H])C([H])([H])[H])C([H])([H])c2c([H])c(Oc3c([H])c([H])c(C([H])([H])N([H])C(=O)C4([H])C([H])([H])C([H])([H])C([H])([H])[N+]4([H])C([H])([H])C([H])([H])C([H])([H])C(=O)N4C([H])([H])C([H])([H])C([H])([H])C([H])(n5nc(-c6c([H])c([H])c(Oc7c([H])c([H])c(F)c([H])c7F)c([H])c6[H])c(C(=O)N([H])[H])c5N([H])[H])C4([H])[H])c([H])c3[H])c([H])c([H])c2C1([H])[H]

$$$$
65:0:0
     RDKit          3D

 96106  0  0  1  0  0  0  0  0999 V2000
  -26.8550  -21.4800   20.8880 C   0  0  0  0  0  3  0  0  0  0  0  0
  -27.2870  -20.7790   19.7360 C   0  0  0  0  0  3  0  0  0  0  0  0
  -27.6230  -22.5450   21.4130 C   0  0  0  0  0  3  0  0  0  0  0  0
  -28.5120  -21.1190   19.1180 C   0  0  0  0  0  3  0  0  0  0  0  0
  -28.8260  -22.8900   20.7670 C   0  0  0  0  0  0  0  0  0  0  0  0
  -29.2790  -22.1790   19.6580 C   0  0  0  0  0  0  0  0  0  0  0  0
  -29.7540  -24.0260   21.1360 C   0  0  0  0  0  2  0  0  0  0  0  0
  -30.6670  -22.6190   19.2290 C   0  0  0  0  0  3  0  0  0  0  0  0
  -30.7780  -24.1520   19.9680 C   0  0  0  0  0  3  0  0  0  0  0  0
  -31.5560  -21.3990   19.6880 N   0  0  0  0  0  4  0  0  0  0  0  0
  -31.4740  -21.3010   20.6860 H   0  0  0  0  0  0  0  0  0  0  0  0
  -32.4950  -21.7370   19.5450 H   0  0  0  0  0  0  0  0  0  0  0  0
  -31.6030  -19.9720   19.0070 C   0  0  0  0  0  3  0  0  0  0  0  0
  -33.3440  -19.4200   17.1280 C   0  0  0  0  0  2  0  0  0  0  0  0
  -33.9040  -20.6300   17.8320 C   0  0  0  0  0  2  0  0  0  0  0  0
  -33.0340  -19.6480   18.5970 C   0  0  0  0  0  3  0  0  0  0  0  0
  -30.8430  -18.5800   19.5450 C   0  0  0  0  0  2  0  0  0  0  0  0
  -31.3740  -17.1910   20.3360 C   0  0  0  0  0  2  0  0  0  0  0  0
  -31.9790  -15.7470   19.7970 C   0  0  0  0  0  0  0  0  0  0  0  0
  -31.8750  -13.3020   19.1340 C   0  0  0  0  0  2  0  0  0  0  0  0
  -30.9180  -13.1120   17.9360 C   0  0  0  0  0  2  0  0  0  0  0  0
  -29.4660  -12.9550   18.4180 C   0  0  0  0  0  2  0  0  0  0  0  0
  -29.0820  -13.9930   19.5050 C   0  0  0  0  0  3  0  0  0  0  0  0
  -30.1620  -14.1150   20.6050 C   0  0  0  0  0  2  0  0  0  0  0  0
  -31.4180  -14.4760   19.9350 N   0  0  0  0  0  0  0  0  0  0  0  0
  -33.0920  -15.7900   19.2650 O   0  0  0  0  0  0  0  0  0  0  0  0
  -26.8050  -14.6670   20.4610 C   0  0  0  0  0  0  0  0  0  0  0  0
  -25.7070  -13.9340   20.8260 C   0  0  0  0  0  0  0  0  0  0  0  0
  -26.0540  -12.5660   20.6190 C   0  0  0  0  0  0  0  0  0  0  0  0
  -27.7560  -13.7440   20.0580 N   0  0  0  0  0  0  0  0  0  0  0  0
  -27.3160  -12.4680   20.2130 N   0  0  0  0  0  0  0  0  0  0  0  0
  -25.2390  -11.3450   20.7390 C   0  0  0  0  0  0  0  0  0  0  0  0
  -25.6300  -10.2750   21.5760 C   0  0  0  0  0  3  0  0  0  0  0  0
  -24.8160   -9.1250   21.6920 C   0  0  0  0  0  3  0  0  0  0  0  0
  -23.6040   -9.0420   20.9660 C   0  0  0  0  0  0  0  0  0  0  0  0
  -23.2320  -10.1030   20.1200 C   0  0  0  0  0  3  0  0  0  0  0  0
  -24.0420  -11.2420   20.0010 C   0  0  0  0  0  3  0  0  0  0  0  0
  -22.7600   -7.9570   20.9970 O   0  0  0  0  0  0  0  0  0  0  0  0
  -22.3910   -7.3670   22.1790 C   0  0  0  0  0  0  0  0  0  0  0  0
  -21.6950   -8.0790   23.1820 C   0  0  0  0  0  3  0  0  0  0  0  0
  -21.2710   -7.4150   24.3510 C   0  0  0  0  0  3  0  0  0  0  0  0
  -21.5350   -6.0390   24.5180 C   0  0  0  0  0  0  0  0  0  0  0  0
  -22.2200   -5.3280   23.5150 C   0  0  0  0  0  3  0  0  0  0  0  0
  -22.6460   -5.9890   22.3480 C   0  0  0  0  0  0  0  0  0  0  0  0
  -23.2890   -5.2920   21.3780 F   0  0  0  0  0  0  0  0  0  0  0  0
  -21.1210   -5.4010   25.6360 F   0  0  0  0  0  0  0  0  0  0  0  0
  -24.3750  -14.4780   21.2530 C   0  0  0  0  0  0  0  0  0  0  0  0
  -23.6820  -13.7580   22.1270 N   0  0  0  0  0  0  0  0  0  0  0  0
  -23.9720  -15.5710   20.8580 O   0  0  0  0  0  0  0  0  0  0  0  0
  -24.0380  -12.8750   22.4570 H   0  0  0  0  0  0  0  0  0  0  0  0
  -22.7840  -14.0840   22.4560 H   0  0  0  0  0  0  0  0  0  0  0  0
  -27.0520  -16.0350   20.4160 N   0  0  0  0  0  0  0  0  0  0  0  0
  -26.3220  -16.7040   20.6430 H   0  0  0  0  0  0  0  0  0  0  0  0
  -27.8990  -16.4710   20.0750 H   0  0  0  0  0  0  0  0  0  0  0  0
  -30.4460  -25.6310   19.2050 C   0  0  0  0  0  2  0  0  0  0  0  0
  -30.2290  -27.0480   19.8370 O   0  0  0  0  0  0  0  0  0  0  0  0
  -25.0160  -30.7190   23.4680 C   0  0  0  0  0  0  0  0  0  0  0  0
  -28.9770  -27.7610   19.8010 C   0  0  0  0  0  0  0  0  0  0  0  0
  -24.3620  -29.5840   21.3770 C   0  0  0  0  0  3  0  0  0  0  0  0
  -26.2850  -28.8520   19.8380 C   0  0  0  0  0  0  0  0  0  0  0  0
  -26.7560  -30.4850   21.6560 C   0  0  0  0  0  2  0  0  0  0  0  0
  -27.2490  -29.3800   20.7080 C   0  0  0  0  0  0  0  0  0  0  0  0
  -28.5910  -28.8490   20.6820 C   0  0  0  0  0  3  0  0  0  0  0  0
  -27.9780  -27.3660   18.8850 C   0  0  0  0  0  3  0  0  0  0  0  0
  -26.6600  -27.8690   18.9150 C   0  0  0  0  0  3  0  0  0  0  0  0
  -24.8630  -29.3740   19.9220 C   0  0  0  0  0  2  0  0  0  0  0  0
  -25.3860  -30.2750   22.2270 N   0  0  0  0  0  0  0  0  0  0  0  0
  -23.8580  -30.5760   23.8890 O   0  0  0  0  0  0  0  0  0  0  0  0
  -23.9090  -28.2190   21.9520 C   0  0  0  0  0  0  0  0  0  0  0  0
  -22.7590  -27.7000   21.4800 N   0  0  0  0  0  0  0  0  0  0  0  0
  -24.5990  -27.6350   22.7930 O   0  0  0  0  0  0  0  0  0  0  0  0
  -22.2360  -28.2430   20.8060 H   0  0  0  0  0  0  0  0  0  0  0  0
  -20.0860  -25.3650   20.7630 C   0  0  0  0  0  0  0  0  0  0  0  0
  -22.1870  -26.4040   21.8540 C   0  0  0  0  0  3  0  0  0  0  0  0
  -22.9680  -25.2350   21.2090 C   0  0  0  0  0  2  0  0  0  0  0  0
  -22.3830  -24.7830   19.8660 C   0  0  0  0  0  2  0  0  0  0  0  0
  -20.9330  -24.3240   20.0480 C   0  0  0  0  0  2  0  0  0  0  0  0
  -20.6780  -26.3530   21.5950 C   0  0  0  0  0  0  0  0  0  0  0  0
  -19.8470  -27.3170   22.2110 C   0  0  0  0  0  3  0  0  0  0  0  0
  -18.4570  -27.3110   21.9980 C   0  0  0  0  0  3  0  0  0  0  0  0
  -17.8750  -26.3260   21.1830 C   0  0  0  0  0  3  0  0  0  0  0  0
  -18.6860  -25.3480   20.5790 C   0  0  0  0  0  3  0  0  0  0  0  0
  -26.0260  -31.4490   24.4070 C   0  0  0  0  0  3  0  0  0  0  0  0
  -25.6970  -32.8830   24.3980 N   0  0  0  0  0  0  0  0  0  0  0  0
  -26.3660  -33.8180   23.7130 C   0  0  0  0  0  0  0  0  0  0  0  0
  -27.3890  -33.5690   23.0690 O   0  0  0  0  0  0  0  0  0  0  0  0
  -24.8510  -33.1530   24.8770 H   0  0  0  0  0  0  0  0  0  0  0  0
  -25.0530  -35.5560   22.4540 C   0  0  0  0  0  1  0  0  0  0  0  0
  -25.8240  -35.2600   23.7510 C   0  0  0  0  0  3  0  0  0  0  0  0
  -27.5160  -36.2080   25.2570 C   0  0  0  0  0  1  0  0  0  0  0  0
  -26.8740  -36.2860   23.9470 N   0  0  0  0  0  0  0  0  0  0  0  0
  -26.4880  -37.2210   23.8410 H   0  0  0  0  0  0  0  0  0  0  0  0
  -26.0120  -30.8970   25.8870 C   0  0  1  0  0  0  0  0  0  0  0  0
  -24.6000  -30.8380   26.5180 C   0  0  0  0  0  1  0  0  0  0  0  0
  -26.6150  -29.4750   25.9490 C   0  0  0  0  0  1  0  0  0  0  0  0
  -26.8970  -31.7860   26.7930 C   0  0  0  0  0  1  0  0  0  0  0  0
  1  3  1  0
  2  1  2  0
  4  6  2  0
  4  2  1  0
  5  7  1  0
  5  3  2  0
  6  5  1  0
  8  6  1  0
  8 10  1  0
  8  9  1  0
  9 55  1  0
  9  7  1  0
 10 11  1  0
 12 10  1  0
 13 17  1  0
 13 10  1  0
 14 15  1  0
 14 16  1  0
 15 16  1  0
 16 13  1  0
 17 18  1  0
 19 25  1  0
 19 18  1  0
 20 25  1  0
 21 22  1  0
 21 20  1  0
 23 22  1  0
 23 30  1  0
 23 24  1  0
 25 24  1  0
 26 19  2  0
 27 28  2  0
 28 47  1  0
 29 32  1  0
 29 28  1  0
 30 31  1  0
 30 27  1  0
 31 29  2  0
 32 33  1  0
 33 34  2  0
 35 38  1  0
 35 34  1  0
 36 35  2  0
 37 36  1  0
 37 32  2  0
 38 39  1  0
 39 44  2  0
 39 40  1  0
 40 41  2  0
 41 42  1  0
 42 46  1  0
 43 42  2  0
 44 43  1  0
 45 44  1  0
 47 48  1  0
 48 51  1  0
 48 50  1  0
 49 47  2  0
 52 27  1  0
 52 53  1  0
 54 52  1  0
 55 56  1  0
 57 68  2  0
 58 56  1  0
 58 63  1  0
 59 69  1  0
 59 67  1  0
 60 66  1  0
 60 62  1  0
 61 67  1  0
 62 61  1  0
 63 62  2  0
 64 65  1  0
 64 58  2  0
 65 60  2  0
 66 59  1  0
 67 57  1  0
 69 71  2  0
 70 69  1  0
 72 70  1  0
 73 78  1  0
 74 70  1  0
 75 74  1  0
 76 77  1  0
 76 75  1  0
 77 73  1  0
 78 74  1  0
 78 79  2  0
 80 79  1  0
 81 80  2  0
 82 73  2  0
 82 81  1  0
 83 57  1  0
 83 93  1  0
 84 83  1  0
 84 87  1  0
 85 89  1  0
 85 84  1  0
 86 85  2  0
 89 88  1  0
 89 91  1  0
 91 90  1  0
 92 91  1  0
 93 95  1  6
 93 94  1  0
 93 96  1  0
M  ISO  4  18 100  19 100  55 101  56 101
M  END
>  <TORSDO>  (65) 
F 22

>  <SCORE>  (65) 
-6.851

>  <name>  (65) 
65

>  <ligand_id>  (65) 
65

>  <original_smiles>  (65) 
[H]c1c([H])c([H])c2c(c1[H])C([H])([H])C([H])([H])C([H])([H])C2([H])N([H])C(=O)C1([H])N(C(=O)C([H])(N([H])C(=O)C([H])(N([H])C([H])([H])[H])C([H])([H])[H])C(C([H])([H])[H])(C([H])([H])[H])C([H])([H])[H])C([H])([H])c2c([H])c(OC([H])([H])C3([H])C([H])([H])c4c([H])c([H])c([H])c([H])c4C3([H])[N+]([H])([H])C([H])(C([H])([H])C([H])([H])C(=O)N3C([H])([H])C([H])([H])C([H])([H])C([H])(n4nc(-c5c([H])c([H])c(Oc6c([H])c([H])c(F)c([H])c6F)c([H])c5[H])c(C(=O)N([H])[H])c4N([H])[H])C3([H])[H])C3([H])C([H])([H])C3([H])[H])c([H])c([H])c2C1([H])[H]

>  <smiles>  (65) 
[H]c1c([H])c([H])c2c(c1[H])C([H])([H])C([H])([H])C([H])([H])C2([H])N([H])C(=O)C1([H])N(C(=O)C([H])(N([H])C(=O)C([H])(N([H])C([H])([H])[H])C([H])([H])[H])C(C([H])([H])[H])(C([H])([H])[H])C([H])([H])[H])C([H])([H])c2c([H])c(OC([H])([H])C3([H])C([H])([H])c4c([H])c([H])c([H])c([H])c4C3([H])[N+]([H])([H])C([H])(C([H])([H])C([H])([H])C(=O)N3C([H])([H])C([H])([H])C([H])([H])C([H])(n4nc(-c5c([H])c([H])c(Oc6c([H])c([H])c(F)c([H])c6F)c([H])c5[H])c(C(=O)N([H])[H])c4N([H])[H])C3([H])[H])C3([H])C([H])([H])C3([H])[H])c([H])c([H])c2C1([H])[H]

$$$$
66:0:0
     RDKit          3D

 96105  0  0  1  0  0  0  0  0999 V2000
  -29.6800  -21.0570   18.4830 C   0  0  0  0  0  2  0  0  0  0  0  0
  -28.5620  -21.7450   20.1320 C   0  0  0  0  0  2  0  0  0  0  0  0
  -28.9610  -20.3310   19.6380 C   0  0  0  0  0  3  0  0  0  0  0  0
  -28.7510  -22.2760   18.7020 C   0  0  0  0  0  3  0  0  0  0  0  0
  -28.3930  -24.3280   16.2160 C   0  0  0  0  0  2  0  0  0  0  0  0
  -29.6630  -23.9140   16.9740 C   0  0  0  0  0  2  0  0  0  0  0  0
  -27.3420  -24.6580   17.2910 C   0  0  0  0  0  2  0  0  0  0  0  0
  -29.2380  -23.7280   18.4410 C   0  0  0  0  0  3  0  0  0  0  0  0
  -28.1250  -24.8030   18.6120 C   0  0  0  0  0  3  0  0  0  0  0  0
  -28.6550  -26.2690   18.7570 C   0  0  0  0  0  2  0  0  0  0  0  0
  -28.2840  -26.9940   19.9400 O   0  0  0  0  0  0  0  0  0  0  0  0
  -24.5750  -32.0290   23.3350 C   0  0  0  0  0  0  0  0  0  0  0  0
  -27.1070  -27.7160   19.9640 C   0  0  0  0  0  0  0  0  0  0  0  0
  -23.3060  -30.6890   21.6900 C   0  0  0  0  0  3  0  0  0  0  0  0
  -24.7020  -29.2090   20.1450 C   0  0  0  0  0  0  0  0  0  0  0  0
  -25.8200  -31.0540   21.4080 C   0  0  0  0  0  2  0  0  0  0  0  0
  -25.8800  -29.7070   20.7160 C   0  0  0  0  0  0  0  0  0  0  0  0
  -27.0770  -28.9610   20.6370 C   0  0  0  0  0  3  0  0  0  0  0  0
  -25.9090  -27.2280   19.3970 C   0  0  0  0  0  3  0  0  0  0  0  0
  -24.7110  -27.9660   19.4890 C   0  0  0  0  0  3  0  0  0  0  0  0
  -23.4570  -30.0570   20.2790 C   0  0  0  0  0  2  0  0  0  0  0  0
  -24.5880  -31.2710   22.2030 N   0  0  0  0  0  0  0  0  0  0  0  0
  -23.5150  -32.2790   23.9280 O   0  0  0  0  0  0  0  0  0  0  0  0
  -22.6930  -29.6320   22.6370 C   0  0  0  0  0  0  0  0  0  0  0  0
  -21.3760  -29.3970   22.5020 N   0  0  0  0  0  0  0  0  0  0  0  0
  -23.3990  -29.0240   23.4440 O   0  0  0  0  0  0  0  0  0  0  0  0
  -20.8660  -29.9410   21.8200 H   0  0  0  0  0  0  0  0  0  0  0  0
  -18.0580  -28.0400   22.9540 C   0  0  0  0  0  0  0  0  0  0  0  0
  -20.5960  -28.4170   23.2580 C   0  0  0  0  0  3  0  0  0  0  0  0
  -20.7720  -26.9970   22.6710 C   0  0  0  0  0  2  0  0  0  0  0  0
  -19.6980  -26.6300   21.6420 C   0  0  0  0  0  2  0  0  0  0  0  0
  -18.3030  -26.7060   22.2700 C   0  0  0  0  0  2  0  0  0  0  0  0
  -19.1340  -28.8520   23.4020 C   0  0  0  0  0  0  0  0  0  0  0  0
  -18.8500  -30.1000   24.0000 C   0  0  0  0  0  3  0  0  0  0  0  0
  -17.5230  -30.5410   24.1480 C   0  0  0  0  0  3  0  0  0  0  0  0
  -16.4600  -29.7280   23.7190 C   0  0  0  0  0  3  0  0  0  0  0  0
  -16.7290  -28.4780   23.1310 C   0  0  0  0  0  3  0  0  0  0  0  0
  -25.8830  -32.6380   23.9320 C   0  0  0  0  0  3  0  0  0  0  0  0
  -25.5920  -34.0270   24.3130 N   0  0  0  0  0  0  0  0  0  0  0  0
  -25.9040  -35.0990   23.5740 C   0  0  0  0  0  0  0  0  0  0  0  0
  -26.5370  -35.0240   22.5170 O   0  0  0  0  0  0  0  0  0  0  0  0
  -25.0240  -34.1600   25.1380 H   0  0  0  0  0  0  0  0  0  0  0  0
  -24.1690  -36.9030   23.3290 C   0  0  0  0  0  1  0  0  0  0  0  0
  -25.4370  -36.4760   24.0860 C   0  0  0  0  0  3  0  0  0  0  0  0
  -27.6000  -37.3310   24.8730 C   0  0  0  0  0  1  0  0  0  0  0  0
  -26.4710  -37.5280   23.9670 N   0  0  0  0  0  0  0  0  0  0  0  0
  -26.0750  -38.4480   24.1470 H   0  0  0  0  0  0  0  0  0  0  0  0
  -26.4460  -31.8270   25.1640 C   0  0  1  0  0  0  0  0  0  0  0  0
  -25.3830  -31.5270   26.2470 C   0  0  0  0  0  1  0  0  0  0  0  0
  -27.0450  -30.4780   24.7060 C   0  0  0  0  0  1  0  0  0  0  0  0
  -27.6060  -32.6130   25.8210 C   0  0  0  0  0  1  0  0  0  0  0  0
  -29.8610  -19.5000   20.5820 C   0  0  0  0  0  0  0  0  0  0  0  0
  -30.1420  -18.2290   20.2230 N   0  0  0  0  0  0  0  0  0  0  0  0
  -30.2510  -19.9830   21.6470 O   0  0  0  0  0  0  0  0  0  0  0  0
  -29.7930  -17.9170   19.3280 H   0  0  0  0  0  0  0  0  0  0  0  0
  -30.9300  -17.2560   21.0150 C   0  0  0  0  0  3  0  0  0  0  0  0
  -32.8520  -17.3450   19.2520 C   0  0  0  0  0  1  0  0  0  0  0  0
  -33.0860  -18.6070   21.4240 C   0  0  0  0  0  1  0  0  0  0  0  0
  -32.4660  -17.3750   20.7500 C   0  0  0  0  0  3  0  0  0  0  0  0
  -30.3140  -15.8060   21.0270 C   0  0  0  0  0  2  0  0  0  0  0  0
  -30.8400  -14.6910   20.0860 C   0  0  0  0  0  0  0  0  0  0  0  0
  -30.4860  -12.5250   18.9440 C   0  0  0  0  0  2  0  0  0  0  0  0
  -29.4860  -12.7300   17.7900 C   0  0  0  0  0  2  0  0  0  0  0  0
  -28.0370  -12.5960   18.2960 C   0  0  0  0  0  2  0  0  0  0  0  0
  -27.7650  -13.4200   19.5840 C   0  0  0  0  0  3  0  0  0  0  0  0
  -28.8830  -13.2070   20.6330 C   0  0  0  0  0  2  0  0  0  0  0  0
  -30.1670  -13.5130   19.9860 N   0  0  0  0  0  0  0  0  0  0  0  0
  -31.8580  -14.8830   19.4220 O   0  0  0  0  0  0  0  0  0  0  0  0
  -25.4080  -14.0060   20.4410 C   0  0  0  0  0  0  0  0  0  0  0  0
  -24.3590  -13.2240   20.8430 C   0  0  0  0  0  0  0  0  0  0  0  0
  -24.8110  -11.8720   20.7370 C   0  0  0  0  0  0  0  0  0  0  0  0
  -26.4380  -13.1320   20.1260 N   0  0  0  0  0  0  0  0  0  0  0  0
  -26.0810  -11.8410   20.3540 N   0  0  0  0  0  0  0  0  0  0  0  0
  -24.0890  -10.6070   20.9260 C   0  0  0  0  0  0  0  0  0  0  0  0
  -24.5050   -9.6550   21.8830 C   0  0  0  0  0  3  0  0  0  0  0  0
  -23.7830   -8.4530   22.0570 C   0  0  0  0  0  3  0  0  0  0  0  0
  -22.6320   -8.1960   21.2740 C   0  0  0  0  0  0  0  0  0  0  0  0
  -22.2360   -9.1370   20.3090 C   0  0  0  0  0  3  0  0  0  0  0  0
  -22.9580  -10.3300   20.1330 C   0  0  0  0  0  3  0  0  0  0  0  0
  -21.8850   -7.0470   21.3560 O   0  0  0  0  0  0  0  0  0  0  0  0
  -21.7430   -6.3600   22.5370 C   0  0  0  0  0  0  0  0  0  0  0  0
  -21.1560   -6.9550   23.6740 C   0  0  0  0  0  3  0  0  0  0  0  0
  -20.9660   -6.1960   24.8450 C   0  0  0  0  0  3  0  0  0  0  0  0
  -21.3550   -4.8440   24.8810 C   0  0  0  0  0  0  0  0  0  0  0  0
  -21.9360   -4.2490   23.7480 C   0  0  0  0  0  3  0  0  0  0  0  0
  -22.1270   -5.0050   22.5780 C   0  0  0  0  0  0  0  0  0  0  0  0
  -22.6690   -4.4220   21.4800 F   0  0  0  0  0  0  0  0  0  0  0  0
  -21.1660   -4.1130   26.0040 F   0  0  0  0  0  0  0  0  0  0  0  0
  -22.9830  -13.6940   21.2160 C   0  0  0  0  0  0  0  0  0  0  0  0
  -22.3010  -12.9600   22.0890 N   0  0  0  0  0  0  0  0  0  0  0  0
  -22.5240  -14.7430   20.7710 O   0  0  0  0  0  0  0  0  0  0  0  0
  -22.6870  -12.1080   22.4660 H   0  0  0  0  0  0  0  0  0  0  0  0
  -21.3800  -13.2540   22.3810 H   0  0  0  0  0  0  0  0  0  0  0  0
  -25.5690  -15.3820   20.3040 N   0  0  0  0  0  0  0  0  0  0  0  0
  -24.8170  -16.0400   20.4820 H   0  0  0  0  0  0  0  0  0  0  0  0
  -26.4050  -15.8270   19.9460 H   0  0  0  0  0  0  0  0  0  0  0  0
  1  3  1  0
  3  2  1  0
  3 52  1  0
  4  1  1  0
  4  2  1  0
  5  6  1  0
  5  7  1  0
  7  9  1  0
  8  6  1  0
  8  9  1  0
  8  4  1  0
  9 10  1  0
 10 11  1  0
 11 13  1  0
 12 23  2  0
 13 18  1  0
 14 22  1  0
 14 24  1  0
 15 21  1  0
 15 17  1  0
 16 22  1  0
 17 16  1  0
 18 17  2  0
 19 20  1  0
 19 13  2  0
 20 15  2  0
 21 14  1  0
 22 12  1  0
 24 26  2  0
 25 24  1  0
 27 25  1  0
 28 37  2  0
 28 33  1  0
 29 25  1  0
 29 33  1  0
 30 29  1  0
 31 32  1  0
 31 30  1  0
 32 28  1  0
 33 34  2  0
 34 35  1  0
 36 35  2  0
 37 36  1  0
 38 12  1  0
 38 39  1  0
 38 48  1  0
 39 42  1  0
 40 44  1  0
 40 39  1  0
 41 40  2  0
 44 43  1  0
 46 44  1  0
 46 47  1  0
 46 45  1  0
 48 51  1  1
 48 49  1  0
 50 48  1  0
 52 54  2  0
 53 52  1  0
 53 56  1  0
 55 53  1  0
 56 60  1  0
 57 59  1  0
 59 56  1  0
 59 58  1  0
 61 60  1  0
 62 67  1  0
 63 64  1  0
 63 62  1  0
 65 64  1  0
 65 72  1  0
 65 66  1  0
 67 61  1  0
 67 66  1  0
 68 61  2  0
 69 70  2  0
 70 89  1  0
 71 70  1  0
 71 74  1  0
 72 73  1  0
 72 69  1  0
 73 71  2  0
 74 75  1  0
 75 76  2  0
 77 80  1  0
 77 76  1  0
 78 77  2  0
 79 78  1  0
 79 74  2  0
 80 81  1  0
 81 86  2  0
 81 82  1  0
 82 83  2  0
 83 84  1  0
 84 88  1  0
 85 84  2  0
 86 85  1  0
 87 86  1  0
 89 90  1  0
 90 93  1  0
 90 92  1  0
 91 89  2  0
 94 69  1  0
 94 95  1  0
 96 94  1  0
M  ISO  4  10 101  11 101  60 100  61 100
M  END
>  <TORSDO>  (66) 
F 22

>  <SCORE>  (66) 
-12.306

>  <name>  (66) 
66

>  <ligand_id>  (66) 
66

>  <original_smiles>  (66) 
[H]c1c([H])c([H])c2c(c1[H])C([H])([H])C([H])([H])C([H])([H])C2([H])N([H])C(=O)C1([H])N(C(=O)C([H])(N([H])C(=O)C([H])(N([H])C([H])([H])[H])C([H])([H])[H])C(C([H])([H])[H])(C([H])([H])[H])C([H])([H])[H])C([H])([H])c2c([H])c(OC([H])([H])C3([H])C([H])([H])C([H])([H])C([H])([H])C3([H])C3([H])C([H])([H])C([H])(C(=O)N([H])C([H])(C([H])([H])C(=O)N4C([H])([H])C([H])([H])C([H])([H])C([H])(n5nc(-c6c([H])c([H])c(Oc7c([H])c([H])c(F)c([H])c7F)c([H])c6[H])c(C(=O)N([H])[H])c5N([H])[H])C4([H])[H])C([H])(C([H])([H])[H])C([H])([H])[H])C3([H])[H])c([H])c([H])c2C1([H])[H]

>  <smiles>  (66) 
[H]c1c([H])c([H])c2c(c1[H])C([H])([H])C([H])([H])C([H])([H])C2([H])N([H])C(=O)C1([H])N(C(=O)C([H])(N([H])C(=O)C([H])(N([H])C([H])([H])[H])C([H])([H])[H])C(C([H])([H])[H])(C([H])([H])[H])C([H])([H])[H])C([H])([H])c2c([H])c(OC([H])([H])C3([H])C([H])([H])C([H])([H])C([H])([H])C3([H])C3([H])C([H])([H])C([H])(C(=O)N([H])C([H])(C([H])([H])C(=O)N4C([H])([H])C([H])([H])C([H])([H])C([H])(n5nc(-c6c([H])c([H])c(Oc7c([H])c([H])c(F)c([H])c7F)c([H])c6[H])c(C(=O)N([H])[H])c5N([H])[H])C4([H])[H])C([H])(C([H])([H])[H])C([H])([H])[H])C3([H])[H])c([H])c([H])c2C1([H])[H]

$$$$
67:0:0
     RDKit          3D

 87 95  0  0  1  0  0  0  0  0999 V2000
  -27.6640  -20.7990   21.3870 C   0  0  0  0  0  2  0  0  0  0  0  0
  -30.8000  -19.3840   20.5060 C   0  0  0  0  0  2  0  0  0  0  0  0
  -27.3140  -20.4650   19.9450 C   0  0  0  0  0  2  0  0  0  0  0  0
  -28.5220  -22.0650   21.3110 C   0  0  0  0  0  2  0  0  0  0  0  0
  -30.6250  -21.1140   20.0870 C   0  0  0  0  0  2  0  0  0  0  0  0
  -29.3140  -19.0650   18.8580 C   0  0  0  0  0  2  0  0  0  0  0  0
  -30.0670  -17.9400   19.8990 C   0  0  0  0  0  3  0  0  0  0  0  0
  -28.6190  -20.6810   19.1770 C   0  0  0  0  0  3  0  0  0  0  0  0
  -29.2380  -22.1150   19.9390 C   0  0  0  0  0  3  0  0  0  0  0  0
  -30.7890  -16.1600   19.6720 C   0  0  0  0  0  0  0  0  0  0  0  0
  -30.9000  -13.5410   18.9850 C   0  0  0  0  0  2  0  0  0  0  0  0
  -29.9680  -13.0800   17.8220 C   0  0  0  0  0  2  0  0  0  0  0  0
  -28.5720  -12.7160   18.3430 C   0  0  0  0  0  2  0  0  0  0  0  0
  -28.0960  -13.7480   19.3910 C   0  0  0  0  0  3  0  0  0  0  0  0
  -29.1650  -14.1320   20.4420 C   0  0  0  0  0  2  0  0  0  0  0  0
  -30.3090  -14.7590   19.7310 N   0  0  0  0  0  0  0  0  0  0  0  0
  -31.9970  -16.0520   19.3750 O   0  0  0  0  0  0  0  0  0  0  0  0
  -25.8140  -14.2920   20.3450 C   0  0  0  0  0  0  0  0  0  0  0  0
  -24.7590  -13.5240   20.7490 C   0  0  0  0  0  0  0  0  0  0  0  0
  -25.1860  -12.1660   20.6200 C   0  0  0  0  0  0  0  0  0  0  0  0
  -26.8110  -13.4090   19.9850 N   0  0  0  0  0  0  0  0  0  0  0  0
  -26.4550  -12.1170   20.2160 N   0  0  0  0  0  0  0  0  0  0  0  0
  -24.4330  -10.9150   20.8010 C   0  0  0  0  0  0  0  0  0  0  0  0
  -24.8270   -9.9430   21.7470 C   0  0  0  0  0  3  0  0  0  0  0  0
  -24.0710   -8.7630   21.9190 C   0  0  0  0  0  3  0  0  0  0  0  0
  -22.9060   -8.5460   21.1450 C   0  0  0  0  0  0  0  0  0  0  0  0
  -22.5310   -9.5070   20.1880 C   0  0  0  0  0  3  0  0  0  0  0  0
  -23.2880  -10.6780   20.0140 C   0  0  0  0  0  3  0  0  0  0  0  0
  -22.1250   -7.4190   21.2250 O   0  0  0  0  0  0  0  0  0  0  0  0
  -21.9280   -6.7610   22.4120 C   0  0  0  0  0  0  0  0  0  0  0  0
  -21.3280   -7.3930   23.5230 C   0  0  0  0  0  3  0  0  0  0  0  0
  -21.0830   -6.6600   24.7030 C   0  0  0  0  0  3  0  0  0  0  0  0
  -21.4260   -5.2960   24.7680 C   0  0  0  0  0  0  0  0  0  0  0  0
  -22.0180   -4.6650   23.6610 C   0  0  0  0  0  3  0  0  0  0  0  0
  -22.2660   -5.3940   22.4850 C   0  0  0  0  0  0  0  0  0  0  0  0
  -22.8160   -4.7750   21.4140 F   0  0  0  0  0  0  0  0  0  0  0  0
  -21.1830   -4.5900   25.8980 F   0  0  0  0  0  0  0  0  0  0  0  0
  -23.3980  -14.0250   21.1310 C   0  0  0  0  0  0  0  0  0  0  0  0
  -22.7150  -13.3200   22.0240 N   0  0  0  0  0  0  0  0  0  0  0  0
  -22.9560  -15.0790   20.6750 O   0  0  0  0  0  0  0  0  0  0  0  0
  -23.0900  -12.4670   22.4140 H   0  0  0  0  0  0  0  0  0  0  0  0
  -21.8050  -13.6360   22.3250 H   0  0  0  0  0  0  0  0  0  0  0  0
  -26.0030  -15.6670   20.2230 N   0  0  0  0  0  0  0  0  0  0  0  0
  -25.2640  -16.3340   20.4140 H   0  0  0  0  0  0  0  0  0  0  0  0
  -26.8440  -16.0990   19.8650 H   0  0  0  0  0  0  0  0  0  0  0  0
  -28.8870  -24.0360   19.4380 C   0  0  0  0  0  1  0  0  0  0  0  0
  -28.7910  -25.7810   19.9150 O   0  0  0  0  0  0  0  0  0  0  0  0
  -24.8760  -31.7880   23.0770 C   0  0  0  0  0  0  0  0  0  0  0  0
  -27.7610  -26.9790   19.8600 C   0  0  0  0  0  0  0  0  0  0  0  0
  -23.8050  -30.4080   21.3490 C   0  0  0  0  0  3  0  0  0  0  0  0
  -25.3750  -28.9190   19.8730 C   0  0  0  0  0  0  0  0  0  0  0  0
  -26.3740  -30.6940   21.2860 C   0  0  0  0  0  2  0  0  0  0  0  0
  -26.5370  -29.2970   20.5540 C   0  0  0  0  0  0  0  0  0  0  0  0
  -27.7060  -28.3560   20.5180 C   0  0  0  0  0  3  0  0  0  0  0  0
  -26.5540  -26.8370   19.1240 C   0  0  0  0  0  3  0  0  0  0  0  0
  -25.4250  -27.7210   19.1370 C   0  0  0  0  0  3  0  0  0  0  0  0
  -24.1110  -29.7980   19.9490 C   0  0  0  0  0  2  0  0  0  0  0  0
  -25.0410  -30.9980   21.9580 N   0  0  0  0  0  0  0  0  0  0  0  0
  -23.7580  -31.9950   23.5810 O   0  0  0  0  0  0  0  0  0  0  0  0
  -23.1310  -29.3440   22.2570 C   0  0  0  0  0  0  0  0  0  0  0  0
  -21.8070  -29.1340   22.1200 N   0  0  0  0  0  0  0  0  0  0  0  0
  -23.8140  -28.7030   23.0600 O   0  0  0  0  0  0  0  0  0  0  0  0
  -21.3010  -29.7030   21.4550 H   0  0  0  0  0  0  0  0  0  0  0  0
  -18.4730  -27.7610   22.5990 C   0  0  0  0  0  0  0  0  0  0  0  0
  -21.0270  -28.1110   22.8300 C   0  0  0  0  0  3  0  0  0  0  0  0
  -21.1680  -26.7320   22.1440 C   0  0  0  0  0  2  0  0  0  0  0  0
  -20.0580  -26.4490   21.1280 C   0  0  0  0  0  2  0  0  0  0  0  0
  -18.6870  -26.4840   21.8060 C   0  0  0  0  0  2  0  0  0  0  0  0
  -19.5710  -28.5350   23.0650 C   0  0  0  0  0  0  0  0  0  0  0  0
  -19.3120  -29.7290   23.7730 C   0  0  0  0  0  3  0  0  0  0  0  0
  -17.9910  -30.1540   24.0120 C   0  0  0  0  0  3  0  0  0  0  0  0
  -16.9100  -29.3800   23.5580 C   0  0  0  0  0  3  0  0  0  0  0  0
  -17.1510  -28.1850   22.8580 C   0  0  0  0  0  3  0  0  0  0  0  0
  -26.0840  -32.4850   23.7780 C   0  0  0  0  0  3  0  0  0  0  0  0
  -25.6890  -33.8670   24.1190 N   0  0  0  0  0  0  0  0  0  0  0  0
  -25.9810  -34.9560   23.3960 C   0  0  0  0  0  0  0  0  0  0  0  0
  -26.6680  -34.9080   22.3730 O   0  0  0  0  0  0  0  0  0  0  0  0
  -25.0790  -33.9740   24.9170 H   0  0  0  0  0  0  0  0  0  0  0  0
  -24.1600  -36.6720   23.0890 C   0  0  0  0  0  1  0  0  0  0  0  0
  -25.4300  -36.3150   23.8810 C   0  0  0  0  0  3  0  0  0  0  0  0
  -27.5160  -37.3110   24.7150 C   0  0  0  0  0  1  0  0  0  0  0  0
  -26.4060  -37.4230   23.7720 N   0  0  0  0  0  0  0  0  0  0  0  0
  -25.9520  -38.3200   23.9260 H   0  0  0  0  0  0  0  0  0  0  0  0
  -26.5600  -31.7310   25.0820 C   0  0  1  0  0  0  0  0  0  0  0  0
  -25.4190  -31.4450   26.0890 C   0  0  0  0  0  1  0  0  0  0  0  0
  -27.2190  -30.3790   24.7340 C   0  0  0  0  0  1  0  0  0  0  0  0
  -27.6430  -32.5670   25.8050 C   0  0  0  0  0  1  0  0  0  0  0  0
  3  1  1  0
  4  1  1  0
  5  2  1  0
  6  7  1  0
  7 10  1  0
  7  2  1  0
  8  6  1  0
  8  9  1  0
  8  3  1  0
  9  5  1  0
  9  4  1  0
 10 16  1  0
 11 16  1  0
 12 13  1  0
 12 11  1  0
 14 13  1  0
 14 21  1  0
 14 15  1  0
 16 15  1  0
 17 10  2  0
 18 19  2  0
 19 38  1  0
 20 19  1  0
 20 23  1  0
 21 22  1  0
 21 18  1  0
 22 20  2  0
 23 24  1  0
 24 25  2  0
 26 29  1  0
 26 25  1  0
 27 26  2  0
 28 27  1  0
 28 23  2  0
 29 30  1  0
 30 35  2  0
 30 31  1  0
 31 32  2  0
 32 33  1  0
 33 37  1  0
 34 33  2  0
 35 34  1  0
 36 35  1  0
 38 39  1  0
 39 42  1  0
 39 41  1  0
 40 38  2  0
 43 18  1  0
 43 44  1  0
 45 43  1  0
 46 47  1  0
 48 59  2  0
 49 47  1  0
 49 54  1  0
 50 58  1  0
 50 60  1  0
 51 57  1  0
 51 53  1  0
 52 58  1  0
 53 52  1  0
 54 53  2  0
 55 56  1  0
 55 49  2  0
 56 51  2  0
 57 50  1  0
 58 48  1  0
 60 62  2  0
 61 60  1  0
 63 61  1  0
 64 73  2  0
 64 69  1  0
 65 61  1  0
 65 69  1  0
 66 65  1  0
 67 68  1  0
 67 66  1  0
 68 64  1  0
 69 70  2  0
 70 71  1  0
 72 71  2  0
 73 72  1  0
 74 48  1  0
 74 75  1  0
 74 84  1  0
 75 78  1  0
 76 80  1  0
 76 75  1  0
 77 76  2  0
 80 79  1  0
 82 80  1  0
 82 83  1  0
 82 81  1  0
 84 87  1  1
 84 85  1  0
 86 84  1  0
M  ISO  4   7 100  10 100  46 101  47 101
M  END
>  <TORSDO>  (67) 
F 17

>  <SCORE>  (67) 
-13.817

>  <name>  (67) 
67

>  <ligand_id>  (67) 
67

>  <original_smiles>  (67) 
[H]c1c([H])c([H])c2c(c1[H])C([H])([H])C([H])([H])C([H])([H])C2([H])N([H])C(=O)C1([H])N(C(=O)C([H])(N([H])C(=O)C([H])(N([H])C([H])([H])[H])C([H])([H])[H])C(C([H])([H])[H])(C([H])([H])[H])C([H])([H])[H])C([H])([H])c2c([H])c(OC([H])([H])C34C([H])([H])C([H])([H])C([H])([H])C3([H])C([H])([H])C([H])(C(=O)N3C([H])([H])C([H])([H])C([H])([H])C([H])(n5nc(-c6c([H])c([H])c(Oc7c([H])c([H])c(F)c([H])c7F)c([H])c6[H])c(C(=O)N([H])[H])c5N([H])[H])C3([H])[H])C([H])([H])C4([H])[H])c([H])c([H])c2C1([H])[H]

>  <smiles>  (67) 
[H]c1c([H])c([H])c2c(c1[H])C([H])([H])C([H])([H])C([H])([H])C2([H])N([H])C(=O)C1([H])N(C(=O)C([H])(N([H])C(=O)C([H])(N([H])C([H])([H])[H])C([H])([H])[H])C(C([H])([H])[H])(C([H])([H])[H])C([H])([H])[H])C([H])([H])c2c([H])c(OC([H])([H])C34C([H])([H])C([H])([H])C([H])([H])C3([H])C([H])([H])C([H])(C(=O)N3C([H])([H])C([H])([H])C([H])([H])C([H])(n5nc(-c6c([H])c([H])c(Oc7c([H])c([H])c(F)c([H])c7F)c([H])c6[H])c(C(=O)N([H])[H])c5N([H])[H])C3([H])[H])C([H])([H])C4([H])[H])c([H])c([H])c2C1([H])[H]

$$$$
68:0:0
     RDKit          3D

 98103  0  0  1  0  0  0  0  0999 V2000
  -21.5620  -31.1810   25.3500 C   0  0  0  0  0  2  0  0  0  0  0  0
  -22.4460  -29.8990   25.5190 C   0  0  0  0  0  2  0  0  0  0  0  0
  -20.9840  -31.3180   23.9150 C   0  0  0  0  0  2  0  0  0  0  0  0
  -22.2330  -28.9520   24.3320 C   0  0  0  0  0  2  0  0  0  0  0  0
  -21.4380  -30.1070   23.1660 N   0  0  1  0  0  4  0  0  0  0  0  0
  -22.3230  -30.5360   22.9470 H   0  0  0  0  0  0  0  0  0  0  0  0
  -23.5450  -27.3980   24.1900 C   0  0  0  0  0  1  0  0  0  0  0  0
  -23.0710  -25.1980   22.6700 C   0  0  0  0  0  1  0  0  0  0  0  0
  -24.1050  -25.9880   23.0620 C   0  0  0  0  0  2  0  0  0  0  0  0
  -25.6690  -25.1960   22.3640 C   0  0  0  0  0  1  0  0  0  0  0  0
  -26.2770  -22.4480   22.5020 C   0  0  0  0  0  1  0  0  0  0  0  0
  -26.4240  -23.5940   21.4790 C   0  0  0  0  0  2  0  0  0  0  0  0
  -27.8970  -23.1280   20.5980 N   0  0  0  0  0  4  0  0  0  0  0  0
  -28.0200  -23.8840   19.9460 H   0  0  0  0  0  0  0  0  0  0  0  0
  -28.6290  -23.2530   21.2780 H   0  0  0  0  0  0  0  0  0  0  0  0
  -28.4410  -21.6970   19.6930 C   0  0  0  0  0  3  0  0  0  0  0  0
  -30.0900  -20.9540   18.9510 C   0  0  0  0  0  3  0  0  0  0  0  0
  -30.6770  -19.6170   17.6620 C   0  0  0  0  0  2  0  0  0  0  0  0
  -32.1050  -18.5430   17.0560 C   0  0  0  0  0  0  0  0  0  0  0  0
  -33.8130  -17.6640   15.1360 C   0  0  0  0  0  2  0  0  0  0  0  0
  -34.6780  -18.7610   14.4290 C   0  0  0  0  0  2  0  0  0  0  0  0
  -33.8490  -19.5690   13.4130 C   0  0  0  0  0  2  0  0  0  0  0  0
  -32.4510  -19.8750   13.9960 C   0  0  0  0  0  3  0  0  0  0  0  0
  -31.7490  -18.6190   14.5250 C   0  0  0  0  0  2  0  0  0  0  0  0
  -32.5010  -18.2360   15.7010 N   0  0  0  0  0  0  0  0  0  0  0  0
  -32.9040  -17.9190   17.8010 O   0  0  0  0  0  0  0  0  0  0  0  0
  -30.7230  -21.6160   13.3800 C   0  0  0  0  0  0  0  0  0  0  0  0
  -30.1440  -21.9470   12.1930 C   0  0  0  0  0  0  0  0  0  0  0  0
  -30.6840  -21.0530   11.2200 C   0  0  0  0  0  0  0  0  0  0  0  0
  -31.5810  -20.5740   13.0860 N   0  0  0  0  0  0  0  0  0  0  0  0
  -31.5060  -20.1850   11.7920 N   0  0  0  0  0  0  0  0  0  0  0  0
  -30.5160  -21.0140    9.7660 C   0  0  0  0  0  0  0  0  0  0  0  0
  -30.1700  -19.8230    9.0910 C   0  0  0  0  0  3  0  0  0  0  0  0
  -29.9980  -19.8220    7.6900 C   0  0  0  0  0  3  0  0  0  0  0  0
  -30.1660  -21.0200    6.9550 C   0  0  0  0  0  0  0  0  0  0  0  0
  -30.5340  -22.1950    7.6310 C   0  0  0  0  0  3  0  0  0  0  0  0
  -30.7110  -22.1940    9.0230 C   0  0  0  0  0  3  0  0  0  0  0  0
  -30.0390  -21.1090    5.5900 O   0  0  0  0  0  0  0  0  0  0  0  0
  -29.2730  -20.2220    4.8790 C   0  0  0  0  0  0  0  0  0  0  0  0
  -27.9100  -20.0040    5.1800 C   0  0  0  0  0  3  0  0  0  0  0  0
  -27.1430  -19.1370    4.3770 C   0  0  0  0  0  3  0  0  0  0  0  0
  -27.7320  -18.4930    3.2720 C   0  0  0  0  0  0  0  0  0  0  0  0
  -29.0880  -18.7120    2.9700 C   0  0  0  0  0  3  0  0  0  0  0  0
  -29.8550  -19.5750    3.7690 C   0  0  0  0  0  0  0  0  0  0  0  0
  -31.1550  -19.8000    3.4610 F   0  0  0  0  0  0  0  0  0  0  0  0
  -26.9920  -17.6660    2.4980 F   0  0  0  0  0  0  0  0  0  0  0  0
  -29.2140  -23.1020   11.9610 C   0  0  0  0  0  0  0  0  0  0  0  0
  -28.3120  -22.9710   10.9960 N   0  0  0  0  0  0  0  0  0  0  0  0
  -29.2540  -24.1040   12.6710 O   0  0  0  0  0  0  0  0  0  0  0  0
  -28.2700  -22.1370   10.4320 H   0  0  0  0  0  0  0  0  0  0  0  0
  -27.6560  -23.7190   10.8200 H   0  0  0  0  0  0  0  0  0  0  0  0
  -30.6140  -22.1140   14.6770 N   0  0  0  0  0  0  0  0  0  0  0  0
  -30.0280  -22.9150   14.8920 H   0  0  0  0  0  0  0  0  0  0  0  0
  -31.1690  -21.8090   15.4650 H   0  0  0  0  0  0  0  0  0  0  0  0
  -20.8720  -29.9690   21.4150 C   0  0  0  0  0  1  0  0  0  0  0  0
  -21.2970  -28.5990   20.0140 C   0  0  0  0  0  1  0  0  0  0  0  0
  -22.3580  -26.9640   19.8580 C   0  0  0  0  0  2  0  0  0  0  0  0
  -23.9360  -26.2630   20.1450 O   0  0  0  0  0  0  0  0  0  0  0  0
  -25.3640  -30.3220   23.5790 C   0  0  0  0  0  0  0  0  0  0  0  0
  -25.1660  -26.3020   19.4710 C   0  0  0  0  0  3  0  0  0  0  0  0
  -23.7410  -29.6040   21.8640 C   0  0  0  0  0  3  0  0  0  0  0  0
  -24.6140  -28.8340   19.6420 C   0  0  0  0  0  3  0  0  0  0  0  0
  -26.1900  -29.2780   21.5010 C   0  0  0  0  0  2  0  0  0  0  0  0
  -25.6830  -28.3800   20.4040 C   0  0  0  0  0  3  0  0  0  0  0  0
  -26.1040  -27.0620   20.2120 C   0  0  0  0  0  2  0  0  0  0  0  0
  -24.7380  -26.8250   18.2810 C   0  0  0  0  0  2  0  0  0  0  0  0
  -24.2680  -28.1430   18.4470 C   0  0  0  0  0  2  0  0  0  0  0  0
  -23.8700  -29.9320   20.3130 C   0  0  0  0  0  2  0  0  0  0  0  0
  -25.1090  -29.7520   22.3800 N   0  0  0  0  0  0  0  0  0  0  0  0
  -24.4810  -30.8150   24.2680 O   0  0  0  0  0  0  0  0  0  0  0  0
  -23.0780  -28.1330   22.3910 C   0  0  0  0  0  3  0  0  0  0  0  0
  -21.6560  -27.5930   22.5040 N   0  0  0  0  0  0  0  0  0  0  0  0
  -23.8990  -27.4740   22.9420 O   0  0  0  0  0  0  0  0  0  0  0  0
  -21.7990  -26.5940   22.6100 H   0  0  0  0  0  0  0  0  0  0  0  0
  -17.6210  -29.1880   23.0280 C   0  0  0  0  0  0  0  0  0  0  0  0
  -20.0130  -27.8530   22.9610 C   0  0  0  0  0  3  0  0  0  0  0  0
  -19.2970  -26.9420   22.0380 C   0  0  0  0  0  2  0  0  0  0  0  0
  -18.2020  -27.5950   21.2390 C   0  0  0  0  0  2  0  0  0  0  0  0
  -17.1230  -28.0720   22.1670 C   0  0  0  0  0  2  0  0  0  0  0  0
  -18.9590  -29.1150   23.5170 C   0  0  0  0  0  0  0  0  0  0  0  0
  -19.0740  -30.0920   24.5850 C   0  0  0  0  0  3  0  0  0  0  0  0
  -18.2190  -31.1920   24.8560 C   0  0  0  0  0  3  0  0  0  0  0  0
  -16.9690  -31.2270   24.2470 C   0  0  0  0  0  3  0  0  0  0  0  0
  -16.6650  -30.1870   23.3670 C   0  0  0  0  0  3  0  0  0  0  0  0
  -26.7890  -30.3710   24.1460 C   0  0  0  0  0  3  0  0  0  0  0  0
  -26.9920  -31.7100   24.7240 N   0  0  0  0  0  0  0  0  0  0  0  0
  -27.6220  -32.7090   24.0910 C   0  0  0  0  0  0  0  0  0  0  0  0
  -28.1420  -32.5740   22.9810 O   0  0  0  0  0  0  0  0  0  0  0  0
  -26.5730  -31.9010   25.6250 H   0  0  0  0  0  0  0  0  0  0  0  0
  -26.6910  -35.0390   24.1980 C   0  0  0  0  0  1  0  0  0  0  0  0
  -27.7100  -34.0670   24.8110 C   0  0  0  0  0  3  0  0  0  0  0  0
  -30.0450  -33.9060   25.5430 C   0  0  0  0  0  1  0  0  0  0  0  0
  -29.0640  -34.6630   24.7710 N   0  0  0  0  0  0  0  0  0  0  0  0
  -29.0470  -35.6120   25.1350 H   0  0  0  0  0  0  0  0  0  0  0  0
  -27.0020  -29.2520   25.2300 C   0  0  1  0  0  0  0  0  0  0  0  0
  -25.9290  -29.1760   26.3340 C   0  0  0  0  0  1  0  0  0  0  0  0
  -27.0390  -27.8500   24.5830 C   0  0  0  0  0  1  0  0  0  0  0  0
  -28.3680  -29.4760   25.9050 C   0  0  0  0  0  1  0  0  0  0  0  0
  1  2  1  0
  3  1  1  0
  4  2  1  0
  5  3  1  0
  5  4  1  0
  5  6  1  6
  8  9  1  0
 10  9  1  0
 12 11  1  0
 13 15  1  0
 13 12  1  0
 14 13  1  0
 16 13  1  0
 17 16  2  0
 18 17  1  0
 19 18  1  0
 19 26  2  0
 20 25  1  0
 21 20  1  0
 22 23  1  0
 22 21  1  0
 23 30  1  0
 23 24  1  0
 24 25  1  0
 25 19  1  0
 27 52  1  0
 28 27  2  0
 29 31  2  0
 29 28  1  0
 30 27  1  0
 31 30  1  0
 32 29  1  0
 33 32  1  0
 34 33  2  0
 35 36  2  0
 35 34  1  0
 36 37  1  0
 37 32  2  0
 38 35  1  0
 39 40  1  0
 39 38  1  0
 41 40  2  0
 42 41  1  0
 43 42  2  0
 43 44  1  0
 44 39  2  0
 45 44  1  0
 46 42  1  0
 47 28  1  0
 47 49  2  0
 48 47  1  0
 50 48  1  0
 51 48  1  0
 52 53  1  0
 52 54  1  0
 55  5  1  0
 57 56  1  0
 57 58  1  0
 59 70  2  0
 60 58  1  0
 60 65  1  0
 61 69  1  0
 61 71  1  0
 62 67  1  0
 62 68  1  0
 62 64  1  0
 63 69  1  0
 64 65  1  0
 64 63  1  0
 66 67  1  0
 66 60  1  0
 68 61  1  0
 69 59  1  0
 71 72  1  0
 71 73  1  0
 72 74  1  0
 73  7  1  0
 75 84  2  0
 75 80  1  0
 76 72  1  0
 76 80  1  0
 77 76  1  0
 78 77  1  0
 78 79  1  0
 79 75  1  0
 80 81  2  0
 81 82  1  0
 83 82  2  0
 84 83  1  0
 85 59  1  0
 85 86  1  0
 85 95  1  0
 86 89  1  0
 87 86  1  0
 87 91  1  0
 88 87  2  0
 91 90  1  0
 93 91  1  0
 93 94  1  0
 93 92  1  0
 95 98  1  1
 95 96  1  0
 97 95  1  0
M  ISO  4  18 100  19 100  57 101  58 101
M  END
>  <TORSDO>  (68) 
F 27

>  <SCORE>  (68) 
11.948

>  <name>  (68) 
68

>  <ligand_id>  (68) 
68

>  <original_smiles>  (68) 
[H]C([H])=C(C([H])([H])C([H])(C([H])([H])[H])[N+]([H])([H])C([H])([H])C([H])([H])C([H])([H])C(=O)N1C([H])([H])C([H])([H])C([H])([H])C([H])(n2nc(-c3c([H])c([H])c(Oc4c([H])c([H])c(F)c([H])c4F)c([H])c3[H])c(C(=O)N([H])[H])c2N([H])[H])C1([H])[H])C([H])([H])C1([H])C([H])([H])C([H])([H])C([H])([H])[N+]1([H])C([H])([H])C([H])([H])C([H])([H])Oc1c([H])c([H])c2c(c1[H])C([H])([H])N(C(=O)C([H])(N([H])C(=O)C([H])(N([H])C([H])([H])[H])C([H])([H])[H])C(C([H])([H])[H])(C([H])([H])[H])C([H])([H])[H])C([H])(C(=O)N([H])C1([H])c3c([H])c([H])c([H])c([H])c3C([H])([H])C([H])([H])C1([H])[H])C2([H])[H]

>  <smiles>  (68) 
[H]C([H])=C(C([H])([H])C([H])(C([H])([H])[H])[N+]([H])([H])C([H])([H])C([H])([H])C([H])([H])C(=O)N1C([H])([H])C([H])([H])C([H])([H])C([H])(n2nc(-c3c([H])c([H])c(Oc4c([H])c([H])c(F)c([H])c4F)c([H])c3[H])c(C(=O)N([H])[H])c2N([H])[H])C1([H])[H])C([H])([H])C1([H])C([H])([H])C([H])([H])C([H])([H])[N+]1([H])C([H])([H])C([H])([H])C([H])([H])Oc1c([H])c([H])c2c(c1[H])C([H])([H])N(C(=O)C([H])(N([H])C(=O)C([H])(N([H])C([H])([H])[H])C([H])([H])[H])C(C([H])([H])[H])(C([H])([H])[H])C([H])([H])[H])C([H])(C(=O)N([H])C1([H])c3c([H])c([H])c([H])c([H])c3C([H])([H])C([H])([H])C1([H])[H])C2([H])[H]

$$$$
69:0:0
     RDKit          3D

 93102  0  0  1  0  0  0  0  0999 V2000
  -30.0070  -17.2300   21.7930 C   0  0  0  0  0  2  0  0  0  0  0  0
  -28.8830  -19.4370   19.5810 C   0  0  0  0  0  2  0  0  0  0  0  0
  -30.0530  -16.4180   20.4570 C   0  0  0  0  0  3  0  0  0  0  0  0
  -30.6270  -17.7560   19.8240 C   0  0  0  0  0  3  0  0  0  0  0  0
  -29.9050  -18.5960   18.7790 C   0  0  0  0  0  3  0  0  0  0  0  0
  -30.4860  -18.5710   21.1320 C   0  0  0  0  0  3  0  0  0  0  0  0
  -29.4850  -19.7200   20.9110 N   0  0  1  0  0  4  0  0  0  0  0  0
  -28.7560  -19.6130   21.5990 H   0  0  0  0  0  0  0  0  0  0  0  0
  -30.9340  -15.0650   20.3470 C   0  0  0  0  0  0  0  0  0  0  0  0
  -30.8310  -12.7610   19.3880 C   0  0  0  0  0  2  0  0  0  0  0  0
  -29.8950  -12.7890   18.1580 C   0  0  0  0  0  2  0  0  0  0  0  0
  -28.4310  -12.5650   18.5860 C   0  0  0  0  0  2  0  0  0  0  0  0
  -28.0200  -13.4520   19.7900 C   0  0  0  0  0  3  0  0  0  0  0  0
  -29.0790  -13.4310   20.9120 C   0  0  0  0  0  2  0  0  0  0  0  0
  -30.3710  -13.8080   20.3270 N   0  0  0  0  0  0  0  0  0  0  0  0
  -32.1260  -15.1860   20.0500 O   0  0  0  0  0  0  0  0  0  0  0  0
  -25.6350  -13.9750   20.5800 C   0  0  0  0  0  0  0  0  0  0  0  0
  -24.5870  -13.1690   20.9330 C   0  0  0  0  0  0  0  0  0  0  0  0
  -25.0710  -11.8280   20.8430 C   0  0  0  0  0  0  0  0  0  0  0  0
  -26.6880  -13.1210   20.2900 N   0  0  0  0  0  0  0  0  0  0  0  0
  -26.3580  -11.8220   20.5140 N   0  0  0  0  0  0  0  0  0  0  0  0
  -24.3690  -10.5470   20.9890 C   0  0  0  0  0  0  0  0  0  0  0  0
  -24.7840   -9.5780   21.9280 C   0  0  0  0  0  3  0  0  0  0  0  0
  -24.0800   -8.3630   22.0650 C   0  0  0  0  0  3  0  0  0  0  0  0
  -22.9470   -8.1050   21.2590 C   0  0  0  0  0  0  0  0  0  0  0  0
  -22.5480   -9.0620   20.3100 C   0  0  0  0  0  3  0  0  0  0  0  0
  -23.2530  -10.2710   20.1730 C   0  0  0  0  0  3  0  0  0  0  0  0
  -22.2180   -6.9420   21.3040 O   0  0  0  0  0  0  0  0  0  0  0  0
  -22.0480   -6.2410   22.4710 C   0  0  0  0  0  0  0  0  0  0  0  0
  -21.4820   -6.8320   23.6210 C   0  0  0  0  0  3  0  0  0  0  0  0
  -21.2640   -6.0580   24.7770 C   0  0  0  0  0  3  0  0  0  0  0  0
  -21.6030   -4.6920   24.7850 C   0  0  0  0  0  0  0  0  0  0  0  0
  -22.1620   -4.0980   23.6380 C   0  0  0  0  0  3  0  0  0  0  0  0
  -22.3830   -4.8710   22.4840 C   0  0  0  0  0  0  0  0  0  0  0  0
  -22.9030   -4.2910   21.3770 F   0  0  0  0  0  0  0  0  0  0  0  0
  -21.3860   -3.9460   25.8920 F   0  0  0  0  0  0  0  0  0  0  0  0
  -23.1870  -13.6130   21.2390 C   0  0  0  0  0  0  0  0  0  0  0  0
  -22.4860  -12.8830   22.1010 N   0  0  0  0  0  0  0  0  0  0  0  0
  -22.7180  -14.6400   20.7500 O   0  0  0  0  0  0  0  0  0  0  0  0
  -22.8780  -12.0540   22.5210 H   0  0  0  0  0  0  0  0  0  0  0  0
  -21.5470  -13.1610   22.3480 H   0  0  0  0  0  0  0  0  0  0  0  0
  -25.7750  -15.3540   20.4610 N   0  0  0  0  0  0  0  0  0  0  0  0
  -25.0010  -15.9890   20.6330 H   0  0  0  0  0  0  0  0  0  0  0  0
  -26.6070  -15.8170   20.1220 H   0  0  0  0  0  0  0  0  0  0  0  0
  -29.3460  -17.8460   17.5560 C   0  0  0  0  0  2  0  0  0  0  0  0
  -29.0090  -18.8040   16.3900 C   0  0  0  0  0  2  0  0  0  0  0  0
  -29.8990  -19.8300   14.2300 C   0  0  0  0  0  1  0  0  0  0  0  0
  -29.8780  -18.5920   15.1380 C   0  0  0  0  0  2  0  0  0  0  0  0
  -29.9670  -21.1820   21.0890 C   0  0  0  0  0  3  0  0  0  0  0  0
  -28.9200  -22.4130   20.8880 C   0  0  0  0  0  3  0  0  0  0  0  0
  -29.3990  -23.9690   20.8830 C   0  0  0  0  0  3  0  0  0  0  0  0
  -28.3470  -25.1210   20.4430 C   0  0  0  0  0  3  0  0  0  0  0  0
  -28.5940  -26.6010   20.5870 O   0  0  0  0  0  0  0  0  0  0  0  0
  -24.7690  -32.0290   23.5500 C   0  0  0  0  0  0  0  0  0  0  0  0
  -27.4860  -27.4840   20.5130 C   0  0  0  0  0  0  0  0  0  0  0  0
  -23.6170  -30.6410   21.8670 C   0  0  0  0  0  3  0  0  0  0  0  0
  -25.1140  -29.1150   20.4600 C   0  0  0  0  0  0  0  0  0  0  0  0
  -26.1640  -30.9650   21.7550 C   0  0  0  0  0  2  0  0  0  0  0  0
  -26.2690  -29.5920   21.0920 C   0  0  0  0  0  0  0  0  0  0  0  0
  -27.4590  -28.7940   21.1030 C   0  0  0  0  0  3  0  0  0  0  0  0
  -26.3010  -27.0750   19.8540 C   0  0  0  0  0  3  0  0  0  0  0  0
  -25.1360  -27.8630   19.8300 C   0  0  0  0  0  3  0  0  0  0  0  0
  -23.8700  -29.9830   20.4850 C   0  0  0  0  0  2  0  0  0  0  0  0
  -24.8670  -31.2290   22.4480 N   0  0  0  0  0  0  0  0  0  0  0  0
  -23.6710  -32.2950   24.0590 O   0  0  0  0  0  0  0  0  0  0  0  0
  -22.9350  -29.6110   22.7990 C   0  0  0  0  0  0  0  0  0  0  0  0
  -21.6240  -29.3890   22.6000 N   0  0  0  0  0  0  0  0  0  0  0  0
  -23.5880  -29.0140   23.6590 O   0  0  0  0  0  0  0  0  0  0  0  0
  -21.1560  -29.9250   21.8830 H   0  0  0  0  0  0  0  0  0  0  0  0
  -18.2550  -28.1130   22.9560 C   0  0  0  0  0  0  0  0  0  0  0  0
  -20.7940  -28.4280   23.3330 C   0  0  0  0  0  3  0  0  0  0  0  0
  -20.9480  -27.0020   22.7570 C   0  0  0  0  0  2  0  0  0  0  0  0
  -19.9000  -26.6620   21.6930 C   0  0  0  0  0  2  0  0  0  0  0  0
  -18.4920  -26.7710   22.2840 C   0  0  0  0  0  2  0  0  0  0  0  0
  -19.3380  -28.8990   23.4330 C   0  0  0  0  0  0  0  0  0  0  0  0
  -19.0670  -30.1510   24.0230 C   0  0  0  0  0  3  0  0  0  0  0  0
  -17.7440  -30.6220   24.1370 C   0  0  0  0  0  3  0  0  0  0  0  0
  -16.6760  -29.8330   23.6760 C   0  0  0  0  0  3  0  0  0  0  0  0
  -16.9310  -28.5790   23.0930 C   0  0  0  0  0  3  0  0  0  0  0  0
  -26.0290  -32.6630   24.2130 C   0  0  0  0  0  3  0  0  0  0  0  0
  -25.7100  -34.0640   24.5260 N   0  0  0  0  0  0  0  0  0  0  0  0
  -26.0390  -35.1120   23.7590 C   0  0  0  0  0  0  0  0  0  0  0  0
  -26.7140  -35.0010   22.7320 O   0  0  0  0  0  0  0  0  0  0  0  0
  -25.1150  -34.2240   25.3270 H   0  0  0  0  0  0  0  0  0  0  0  0
  -24.2970  -36.8880   23.3870 C   0  0  0  0  0  1  0  0  0  0  0  0
  -25.5430  -36.5020   24.2010 C   0  0  0  0  0  3  0  0  0  0  0  0
  -27.6720  -37.4150   25.0160 C   0  0  0  0  0  1  0  0  0  0  0  0
  -26.5680  -37.5610   24.0710 N   0  0  0  0  0  0  0  0  0  0  0  0
  -26.1570  -38.4810   24.2020 H   0  0  0  0  0  0  0  0  0  0  0  0
  -26.4980  -31.9000   25.5120 C   0  0  1  0  0  0  0  0  0  0  0  0
  -25.3530  -31.6170   26.5130 C   0  0  0  0  0  1  0  0  0  0  0  0
  -27.1490  -30.5460   25.1490 C   0  0  0  0  0  1  0  0  0  0  0  0
  -27.5810  -32.7270   26.2440 C   0  0  0  0  0  1  0  0  0  0  0  0
  2  7  1  0
  3  9  1  0
  3  1  1  0
  4  3  1  0
  4  6  1  0
  5  2  1  0
  5  4  1  0
  6  1  1  0
  7 49  1  0
  7  6  1  0
  7  8  1  1
 10 15  1  0
 11 12  1  0
 11 10  1  0
 12 13  1  0
 13 20  1  0
 13 14  1  0
 15  9  1  0
 15 14  1  0
 16  9  2  0
 17 18  2  0
 18 37  1  0
 19 18  1  0
 19 22  1  0
 20 21  1  0
 20 17  1  0
 21 19  2  0
 22 23  1  0
 23 24  2  0
 25 28  1  0
 25 24  1  0
 26 25  2  0
 27 26  1  0
 27 22  2  0
 28 29  1  0
 29 34  2  0
 29 30  1  0
 30 31  2  0
 31 32  1  0
 32 36  1  0
 33 32  2  0
 34 33  1  0
 35 34  1  0
 37 38  1  0
 38 41  1  0
 38 40  1  0
 39 37  2  0
 42 17  1  0
 42 43  1  0
 44 42  1  0
 45  5  1  0
 46 45  1  0
 47 48  1  0
 48 46  1  0
 50 49  2  0
 51 50  1  0
 52 53  1  0
 52 51  2  0
 54 65  2  0
 54 80  1  0
 55 53  1  0
 55 60  1  0
 56 64  1  0
 56 66  1  0
 57 63  1  0
 57 59  1  0
 58 64  1  0
 59 60  2  0
 59 58  1  0
 61 55  2  0
 62 61  1  0
 62 57  2  0
 63 56  1  0
 64 54  1  0
 66 68  2  0
 67 66  1  0
 67 71  1  0
 69 67  1  0
 70 79  2  0
 70 75  1  0
 71 75  1  0
 72 71  1  0
 73 74  1  0
 73 72  1  0
 74 70  1  0
 75 76  2  0
 76 77  1  0
 78 77  2  0
 79 78  1  0
 80 81  1  0
 80 90  1  0
 81 84  1  0
 82 86  1  0
 82 81  1  0
 83 82  2  0
 85 86  1  0
 88 86  1  0
 88 89  1  0
 88 87  1  0
 90 93  1  1
 90 91  1  0
 92 90  1  0
M  ISO  4   3 100   9 100  52 101  53 101
M  END
>  <TORSDO>  (69) 
F 23

>  <SCORE>  (69) 
-12.254

>  <name>  (69) 
69

>  <ligand_id>  (69) 
69

>  <original_smiles>  (69) 
[H]c1c([H])c([H])c2c(c1[H])C([H])([H])C([H])([H])C([H])([H])C2([H])N([H])C(=O)C1([H])N(C(=O)C([H])(N([H])C(=O)C([H])(N([H])C([H])([H])[H])C([H])([H])[H])C(C([H])([H])[H])(C([H])([H])[H])C([H])([H])[H])C([H])([H])c2c([H])c(OC([H])([H])C([H])([H])C([H])([H])C([H])([H])[N+]3([H])C([H])([H])C([H])(C([H])([H])C([H])([H])C([H])([H])C([H])([H])[H])C4([H])C([H])(C(=O)N5C([H])([H])C([H])([H])C([H])([H])C([H])(n6nc(-c7c([H])c([H])c(Oc8c([H])c([H])c(F)c([H])c8F)c([H])c7[H])c(C(=O)N([H])[H])c6N([H])[H])C5([H])[H])C([H])([H])C43[H])c([H])c([H])c2C1([H])[H]

>  <smiles>  (69) 
[H]c1c([H])c([H])c2c(c1[H])C([H])([H])C([H])([H])C([H])([H])C2([H])N([H])C(=O)C1([H])N(C(=O)C([H])(N([H])C(=O)C([H])(N([H])C([H])([H])[H])C([H])([H])[H])C(C([H])([H])[H])(C([H])([H])[H])C([H])([H])[H])C([H])([H])c2c([H])c(OC([H])([H])C([H])([H])C([H])([H])C([H])([H])[N+]3([H])C([H])([H])C([H])(C([H])([H])C([H])([H])C([H])([H])C([H])([H])[H])C4([H])C([H])(C(=O)N5C([H])([H])C([H])([H])C([H])([H])C([H])(n6nc(-c7c([H])c([H])c(Oc8c([H])c([H])c(F)c([H])c8F)c([H])c7[H])c(C(=O)N([H])[H])c6N([H])[H])C5([H])[H])C([H])([H])C43[H])c([H])c([H])c2C1([H])[H]

$$$$
70:0:0
     RDKit          3D

 92101  0  0  1  0  0  0  0  0999 V2000
  -32.7720  -18.3580   17.4110 C   0  0  0  0  0  3  0  0  0  0  0  0
  -32.8380  -17.6340   16.2060 C   0  0  0  0  0  3  0  0  0  0  0  0
  -30.7210  -16.5520   16.7370 C   0  0  0  0  0  3  0  0  0  0  0  0
  -31.6850  -18.1790   18.2910 C   0  0  0  0  0  0  0  0  0  0  0  0
  -30.6550  -17.2630   17.9550 C   0  0  0  0  0  0  0  0  0  0  0  0
  -31.8120  -16.7340   15.8660 C   0  0  0  0  0  0  0  0  0  0  0  0
  -30.3460  -18.8020   20.3600 C   0  0  0  0  0  3  0  0  0  0  0  0
  -29.5780  -20.0230   20.6220 C   0  0  0  0  0  2  0  0  0  0  0  0
  -31.6540  -18.9530   19.6040 C   0  0  0  0  0  2  0  0  0  0  0  0
  -29.5070  -17.0010   18.9290 C   0  0  0  0  0  2  0  0  0  0  0  0
  -29.9720  -17.1150   20.4040 C   0  0  0  0  0  3  0  0  0  0  0  0
  -31.8780  -16.0360   14.7080 F   0  0  0  0  0  0  0  0  0  0  0  0
  -30.8530  -15.6080   20.5810 C   0  0  0  0  0  0  0  0  0  0  0  0
  -30.8830  -13.1770   19.7150 C   0  0  0  0  0  2  0  0  0  0  0  0
  -30.0210  -13.0300   18.4350 C   0  0  0  0  0  2  0  0  0  0  0  0
  -28.5430  -12.7710   18.7870 C   0  0  0  0  0  2  0  0  0  0  0  0
  -28.0400  -13.6960   19.9230 C   0  0  0  0  0  3  0  0  0  0  0  0
  -29.0380  -13.8100   21.0920 C   0  0  0  0  0  2  0  0  0  0  0  0
  -30.3170  -14.2930   20.5460 N   0  0  0  0  0  0  0  0  0  0  0  0
  -32.0900  -15.6140   20.5020 O   0  0  0  0  0  0  0  0  0  0  0  0
  -25.6350  -14.2510   20.5550 C   0  0  0  0  0  0  0  0  0  0  0  0
  -24.5560  -13.4690   20.8550 C   0  0  0  0  0  0  0  0  0  0  0  0
  -25.0270  -12.1200   20.8330 C   0  0  0  0  0  0  0  0  0  0  0  0
  -26.6900  -13.3770   20.3590 N   0  0  0  0  0  0  0  0  0  0  0  0
  -26.3340  -12.0900   20.5940 N   0  0  0  0  0  0  0  0  0  0  0  0
  -24.2960  -10.8550   20.9670 C   0  0  0  0  0  0  0  0  0  0  0  0
  -24.6730   -9.8820   21.9180 C   0  0  0  0  0  3  0  0  0  0  0  0
  -23.9410   -8.6820   22.0430 C   0  0  0  0  0  3  0  0  0  0  0  0
  -22.8190   -8.4470   21.2150 C   0  0  0  0  0  0  0  0  0  0  0  0
  -22.4610   -9.4080   20.2530 C   0  0  0  0  0  3  0  0  0  0  0  0
  -23.1930  -10.5990   20.1270 C   0  0  0  0  0  3  0  0  0  0  0  0
  -22.0640   -7.2990   21.2470 O   0  0  0  0  0  0  0  0  0  0  0  0
  -21.9350   -6.5550   22.3920 C   0  0  0  0  0  0  0  0  0  0  0  0
  -21.3920   -7.0980   23.5770 C   0  0  0  0  0  3  0  0  0  0  0  0
  -21.2150   -6.2800   24.7090 C   0  0  0  0  0  3  0  0  0  0  0  0
  -21.5680   -4.9180   24.6580 C   0  0  0  0  0  0  0  0  0  0  0  0
  -22.1030   -4.3740   23.4770 C   0  0  0  0  0  3  0  0  0  0  0  0
  -22.2830   -5.1900   22.3470 C   0  0  0  0  0  0  0  0  0  0  0  0
  -22.7790   -4.6560   21.2040 F   0  0  0  0  0  0  0  0  0  0  0  0
  -21.3890   -4.1290   25.7420 F   0  0  0  0  0  0  0  0  0  0  0  0
  -23.1440  -13.9400   21.0500 C   0  0  0  0  0  0  0  0  0  0  0  0
  -22.3750  -13.2390   21.8740 N   0  0  0  0  0  0  0  0  0  0  0  0
  -22.7330  -14.9650   20.5070 O   0  0  0  0  0  0  0  0  0  0  0  0
  -22.7220  -12.4120   22.3360 H   0  0  0  0  0  0  0  0  0  0  0  0
  -21.4240  -13.5350   22.0470 H   0  0  0  0  0  0  0  0  0  0  0  0
  -25.8020  -15.6260   20.4040 N   0  0  0  0  0  0  0  0  0  0  0  0
  -25.0290  -16.2760   20.4890 H   0  0  0  0  0  0  0  0  0  0  0  0
  -26.6690  -16.0770   20.1430 H   0  0  0  0  0  0  0  0  0  0  0  0
  -29.6920  -21.6850   20.1550 C   0  0  0  0  0  2  0  0  0  0  0  0
  -29.1150  -23.2260   20.8260 C   0  0  0  0  0  2  0  0  0  0  0  0
  -28.7110  -24.7770   20.0530 C   0  0  0  0  0  2  0  0  0  0  0  0
  -28.6240  -26.3350   20.5260 O   0  0  0  0  0  0  0  0  0  0  0  0
  -24.6670  -32.0310   23.3510 C   0  0  0  0  0  0  0  0  0  0  0  0
  -27.5480  -27.3420   20.3780 C   0  0  0  0  0  0  0  0  0  0  0  0
  -23.5900  -30.5970   21.6650 C   0  0  0  0  0  3  0  0  0  0  0  0
  -25.1550  -29.0780   20.2750 C   0  0  0  0  0  0  0  0  0  0  0  0
  -26.1430  -30.9360   21.6000 C   0  0  0  0  0  2  0  0  0  0  0  0
  -26.2980  -29.5420   20.9370 C   0  0  0  0  0  0  0  0  0  0  0  0
  -27.4840  -28.6900   20.9710 C   0  0  0  0  0  3  0  0  0  0  0  0
  -26.3740  -27.0200   19.6590 C   0  0  0  0  0  3  0  0  0  0  0  0
  -25.2140  -27.8370   19.6190 C   0  0  0  0  0  3  0  0  0  0  0  0
  -23.8920  -29.9350   20.2900 C   0  0  0  0  0  2  0  0  0  0  0  0
  -24.8180  -31.2140   22.2600 N   0  0  0  0  0  0  0  0  0  0  0  0
  -23.5510  -32.2680   23.8380 O   0  0  0  0  0  0  0  0  0  0  0  0
  -22.9130  -29.5630   22.6000 C   0  0  0  0  0  0  0  0  0  0  0  0
  -21.5930  -29.3530   22.4400 N   0  0  0  0  0  0  0  0  0  0  0  0
  -23.5810  -28.9500   23.4360 O   0  0  0  0  0  0  0  0  0  0  0  0
  -21.1080  -29.9010   21.7440 H   0  0  0  0  0  0  0  0  0  0  0  0
  -18.2380  -28.0420   22.8680 C   0  0  0  0  0  0  0  0  0  0  0  0
  -20.7840  -28.3780   23.1790 C   0  0  0  0  0  3  0  0  0  0  0  0
  -20.9370  -26.9610   22.5780 C   0  0  0  0  0  2  0  0  0  0  0  0
  -19.8600  -26.6270   21.5400 C   0  0  0  0  0  2  0  0  0  0  0  0
  -18.4650  -26.7160   22.1660 C   0  0  0  0  0  2  0  0  0  0  0  0
  -19.3260  -28.8300   23.3310 C   0  0  0  0  0  0  0  0  0  0  0  0
  -19.0580  -30.0700   23.9510 C   0  0  0  0  0  3  0  0  0  0  0  0
  -17.7350  -30.5230   24.1140 C   0  0  0  0  0  3  0  0  0  0  0  0
  -16.6610  -29.7330   23.6660 C   0  0  0  0  0  3  0  0  0  0  0  0
  -16.9140  -28.4950   23.0490 C   0  0  0  0  0  3  0  0  0  0  0  0
  -25.8880  -32.7220   24.0310 C   0  0  0  0  0  3  0  0  0  0  0  0
  -26.3390  -32.0080   25.3650 C   0  0  1  0  0  0  0  0  0  0  0  0
  -25.1860  -31.7790   26.3710 C   0  0  0  0  0  1  0  0  0  0  0  0
  -26.9800  -30.6340   25.0680 C   0  0  0  0  0  1  0  0  0  0  0  0
  -27.4280  -32.8540   26.0670 C   0  0  0  0  0  1  0  0  0  0  0  0
  -25.5220  -34.1230   24.3040 N   0  0  0  0  0  0  0  0  0  0  0  0
  -25.8740  -35.1700   23.5460 C   0  0  0  0  0  0  0  0  0  0  0  0
  -26.6030  -35.0590   22.5570 O   0  0  0  0  0  0  0  0  0  0  0  0
  -24.8760  -34.2800   25.0640 H   0  0  0  0  0  0  0  0  0  0  0  0
  -24.1300  -36.9220   23.0620 C   0  0  0  0  0  1  0  0  0  0  0  0
  -25.3350  -36.5590   23.9460 C   0  0  0  0  0  3  0  0  0  0  0  0
  -27.4000  -37.5150   24.8700 C   0  0  0  0  0  1  0  0  0  0  0  0
  -26.3500  -37.6330   23.8620 N   0  0  0  0  0  0  0  0  0  0  0  0
  -25.9180  -38.5470   23.9580 H   0  0  0  0  0  0  0  0  0  0  0  0
  1  4  1  0
  2  1  2  0
  3  5  1  0
  4  9  1  0
  5  4  2  0
  5 10  1  0
  6  2  1  0
  6  3  2  0
  7 11  1  0
  7  8  1  0
  9  7  1  0
 10 11  1  0
 11 13  1  0
 12  6  1  0
 14 19  1  0
 15 16  1  0
 15 14  1  0
 17 16  1  0
 17 24  1  0
 17 18  1  0
 19 13  1  0
 19 18  1  0
 20 13  2  0
 21 22  2  0
 22 41  1  0
 23 22  1  0
 23 26  1  0
 24 21  1  0
 24 25  1  0
 25 23  2  0
 26 27  1  0
 27 28  2  0
 29 32  1  0
 29 28  1  0
 30 29  2  0
 31 30  1  0
 31 26  2  0
 32 33  1  0
 33 34  1  0
 34 35  2  0
 36 35  1  0
 36 40  1  0
 37 36  2  0
 38 33  2  0
 38 37  1  0
 39 38  1  0
 41 42  1  0
 42 45  1  0
 42 44  1  0
 43 41  2  0
 46 47  1  0
 46 21  1  0
 48 46  1  0
 49  8  1  0
 49 50  1  0
 51 52  1  0
 51 50  1  0
 53 64  2  0
 54 52  1  0
 54 59  1  0
 55 63  1  0
 55 65  1  0
 56 62  1  0
 56 58  1  0
 57 63  1  0
 58 59  2  0
 58 57  1  0
 60 54  2  0
 61 60  1  0
 61 56  2  0
 62 55  1  0
 63 53  1  0
 65 67  2  0
 66 65  1  0
 68 66  1  0
 69 78  2  0
 69 74  1  0
 70 66  1  0
 70 74  1  0
 71 70  1  0
 72 73  1  0
 72 71  1  0
 73 69  1  0
 74 75  2  0
 75 76  1  0
 77 76  2  0
 78 77  1  0
 79 53  1  0
 79 84  1  0
 79 80  1  0
 80 83  1  1
 80 81  1  0
 82 80  1  0
 84 87  1  0
 85 89  1  0
 85 84  1  0
 86 85  2  0
 89 88  1  0
 91 89  1  0
 91 92  1  0
 91 90  1  0
M  ISO  4  11 100  13 100  51 101  52 101
M  END
>  <TORSDO>  (70) 
F 19

>  <SCORE>  (70) 
-14.150

>  <name>  (70) 
70

>  <ligand_id>  (70) 
70

>  <original_smiles>  (70) 
[H]C(=C1C([H])([H])c2c([H])c([H])c(F)c([H])c2C([H])([H])C1([H])C(=O)N1C([H])([H])C([H])([H])C([H])([H])C([H])(n2nc(-c3c([H])c([H])c(Oc4c([H])c([H])c(F)c([H])c4F)c([H])c3[H])c(C(=O)N([H])[H])c2N([H])[H])C1([H])[H])C([H])([H])C([H])([H])C([H])([H])Oc1c([H])c([H])c2c(c1[H])C([H])([H])N(C(=O)C([H])(N([H])C(=O)C([H])(N([H])C([H])([H])[H])C([H])([H])[H])C(C([H])([H])[H])(C([H])([H])[H])C([H])([H])[H])C([H])(C(=O)N([H])C1([H])c3c([H])c([H])c([H])c([H])c3C([H])([H])C([H])([H])C1([H])[H])C2([H])[H]

>  <smiles>  (70) 
[H]C(=C1C([H])([H])c2c([H])c([H])c(F)c([H])c2C([H])([H])C1([H])C(=O)N1C([H])([H])C([H])([H])C([H])([H])C([H])(n2nc(-c3c([H])c([H])c(Oc4c([H])c([H])c(F)c([H])c4F)c([H])c3[H])c(C(=O)N([H])[H])c2N([H])[H])C1([H])[H])C([H])([H])C([H])([H])C([H])([H])Oc1c([H])c([H])c2c(c1[H])C([H])([H])N(C(=O)C([H])(N([H])C(=O)C([H])(N([H])C([H])([H])[H])C([H])([H])[H])C(C([H])([H])[H])(C([H])([H])[H])C([H])([H])[H])C([H])(C(=O)N([H])C1([H])c3c([H])c([H])c([H])c([H])c3C([H])([H])C([H])([H])C1([H])[H])C2([H])[H]

$$$$
71:0:0
     RDKit          3D

 91100  0  0  1  0  0  0  0  0999 V2000
  -29.3550  -24.9230   22.9140 C   0  0  0  0  0  2  0  0  0  0  0  0
  -29.4460  -23.3880   22.8960 C   0  0  0  0  0  2  0  0  0  0  0  0
  -28.0070  -25.3720   22.3440 C   0  0  0  0  0  2  0  0  0  0  0  0
  -28.5590  -22.7890   19.1950 C   0  0  0  0  0  2  0  0  0  0  0  0
  -28.4430  -21.1890   19.2470 C   0  0  0  0  0  2  0  0  0  0  0  0
  -29.3360  -21.2060   21.5250 C   0  0  0  0  0  2  0  0  0  0  0  0
  -29.4500  -22.8080   21.4670 C   0  0  0  0  0  3  0  0  0  0  0  0
  -28.3500  -23.4890   20.5780 C   0  0  0  0  0  3  0  0  0  0  0  0
  -27.8890  -25.0730   20.8350 C   0  0  0  0  0  3  0  0  0  0  0  0
  -29.3340  -20.4350   20.2240 N   0  0  1  0  0  4  0  0  0  0  0  0
  -30.2680  -20.4950   19.8480 H   0  0  0  0  0  0  0  0  0  0  0  0
  -28.2510  -26.3950   20.1920 O   0  0  0  0  0  0  0  0  0  0  0  0
  -24.6060  -31.9350   23.2530 C   0  0  0  0  0  0  0  0  0  0  0  0
  -27.1990  -27.3540   20.1420 C   0  0  0  0  0  0  0  0  0  0  0  0
  -23.3950  -30.5360   21.6220 C   0  0  0  0  0  3  0  0  0  0  0  0
  -24.8390  -29.0020   20.1670 C   0  0  0  0  0  0  0  0  0  0  0  0
  -25.9380  -30.8490   21.4280 C   0  0  0  0  0  2  0  0  0  0  0  0
  -26.0200  -29.4750   20.7600 C   0  0  0  0  0  0  0  0  0  0  0  0
  -27.2050  -28.6650   20.7370 C   0  0  0  0  0  3  0  0  0  0  0  0
  -26.0050  -26.9700   19.4930 C   0  0  0  0  0  3  0  0  0  0  0  0
  -24.8390  -27.7580   19.5200 C   0  0  0  0  0  3  0  0  0  0  0  0
  -23.5990  -29.8720   20.2380 C   0  0  0  0  0  2  0  0  0  0  0  0
  -24.6650  -31.1230   22.1570 N   0  0  0  0  0  0  0  0  0  0  0  0
  -23.5240  -32.2150   23.7910 O   0  0  0  0  0  0  0  0  0  0  0  0
  -22.7380  -29.5170   22.5860 C   0  0  0  0  0  0  0  0  0  0  0  0
  -21.4130  -29.3320   22.4600 N   0  0  0  0  0  0  0  0  0  0  0  0
  -23.4200  -28.9000   23.4060 O   0  0  0  0  0  0  0  0  0  0  0  0
  -20.9180  -29.8830   21.7740 H   0  0  0  0  0  0  0  0  0  0  0  0
  -18.0470  -28.1000   22.9670 C   0  0  0  0  0  0  0  0  0  0  0  0
  -20.6020  -28.3920   23.2360 C   0  0  0  0  0  3  0  0  0  0  0  0
  -20.7200  -26.9570   22.6720 C   0  0  0  0  0  2  0  0  0  0  0  0
  -19.6240  -26.6160   21.6570 C   0  0  0  0  0  2  0  0  0  0  0  0
  -18.2390  -26.7500   22.2970 C   0  0  0  0  0  2  0  0  0  0  0  0
  -19.1570  -28.8780   23.3920 C   0  0  0  0  0  0  0  0  0  0  0  0
  -18.9230  -30.1420   23.9760 C   0  0  0  0  0  3  0  0  0  0  0  0
  -17.6130  -30.6290   24.1400 C   0  0  0  0  0  3  0  0  0  0  0  0
  -16.5170  -29.8490   23.7290 C   0  0  0  0  0  3  0  0  0  0  0  0
  -16.7350  -28.5860   23.1510 C   0  0  0  0  0  3  0  0  0  0  0  0
  -25.8920  -32.5700   23.8680 C   0  0  0  0  0  3  0  0  0  0  0  0
  -26.4190  -31.8010   25.1420 C   0  0  1  0  0  0  0  0  0  0  0  0
  -25.3320  -31.5550   26.2140 C   0  0  0  0  0  1  0  0  0  0  0  0
  -27.0090  -30.4250   24.7520 C   0  0  0  0  0  1  0  0  0  0  0  0
  -27.5710  -32.6000   25.7950 C   0  0  0  0  0  1  0  0  0  0  0  0
  -25.5860  -33.9690   24.2000 N   0  0  0  0  0  0  0  0  0  0  0  0
  -25.9080  -35.0210   23.4360 C   0  0  0  0  0  0  0  0  0  0  0  0
  -26.5660  -34.9160   22.3970 O   0  0  0  0  0  0  0  0  0  0  0  0
  -25.0090  -34.1290   25.0130 H   0  0  0  0  0  0  0  0  0  0  0  0
  -24.1720  -36.8070   23.0960 C   0  0  0  0  0  1  0  0  0  0  0  0
  -25.4240  -36.4090   23.8950 C   0  0  0  0  0  3  0  0  0  0  0  0
  -27.5650  -37.2970   24.7010 C   0  0  0  0  0  1  0  0  0  0  0  0
  -26.4530  -37.4640   23.7700 N   0  0  0  0  0  0  0  0  0  0  0  0
  -26.0470  -38.3820   23.9270 H   0  0  0  0  0  0  0  0  0  0  0  0
  -29.0110  -18.9080   20.3830 C   0  0  0  0  0  3  0  0  0  0  0  0
  -30.1180  -17.7080   20.2320 C   0  0  0  0  0  3  0  0  0  0  0  0
  -29.7340  -16.1820   20.6970 C   0  0  0  0  0  2  0  0  0  0  0  0
  -30.5480  -14.8660   20.2180 C   0  0  0  0  0  0  0  0  0  0  0  0
  -30.3890  -12.5830   19.1840 C   0  0  0  0  0  2  0  0  0  0  0  0
  -29.4200  -12.6600   17.9800 C   0  0  0  0  0  2  0  0  0  0  0  0
  -27.9580  -12.4750   18.4350 C   0  0  0  0  0  2  0  0  0  0  0  0
  -27.6080  -13.3380   19.6760 C   0  0  0  0  0  3  0  0  0  0  0  0
  -28.6940  -13.2310   20.7710 C   0  0  0  0  0  2  0  0  0  0  0  0
  -29.9720  -13.6130   20.1650 N   0  0  0  0  0  0  0  0  0  0  0  0
  -31.6970  -15.0080   19.7880 O   0  0  0  0  0  0  0  0  0  0  0  0
  -25.2240  -13.9280   20.4320 C   0  0  0  0  0  0  0  0  0  0  0  0
  -24.1650  -13.1550   20.8130 C   0  0  0  0  0  0  0  0  0  0  0  0
  -24.6290  -11.8030   20.7770 C   0  0  0  0  0  0  0  0  0  0  0  0
  -26.2690  -13.0510   20.1850 N   0  0  0  0  0  0  0  0  0  0  0  0
  -25.9160  -11.7680   20.4540 N   0  0  0  0  0  0  0  0  0  0  0  0
  -23.9050  -10.5390   20.9780 C   0  0  0  0  0  0  0  0  0  0  0  0
  -24.3460   -9.5800   21.9160 C   0  0  0  0  0  3  0  0  0  0  0  0
  -23.6250   -8.3820   22.1070 C   0  0  0  0  0  3  0  0  0  0  0  0
  -22.4480   -8.1330   21.3600 C   0  0  0  0  0  0  0  0  0  0  0  0
  -22.0260   -9.0820   20.4120 C   0  0  0  0  0  3  0  0  0  0  0  0
  -22.7470  -10.2730   20.2200 C   0  0  0  0  0  3  0  0  0  0  0  0
  -21.7000   -6.9840   21.4590 O   0  0  0  0  0  0  0  0  0  0  0  0
  -21.6530   -6.2510   22.6180 C   0  0  0  0  0  0  0  0  0  0  0  0
  -21.2270   -6.8160   23.8400 C   0  0  0  0  0  3  0  0  0  0  0  0
  -21.1270   -6.0110   24.9910 C   0  0  0  0  0  3  0  0  0  0  0  0
  -21.4410   -4.6410   24.9220 C   0  0  0  0  0  0  0  0  0  0  0  0
  -21.8580   -4.0740   23.7050 C   0  0  0  0  0  3  0  0  0  0  0  0
  -21.9610   -4.8780   22.5550 C   0  0  0  0  0  0  0  0  0  0  0  0
  -22.3410   -4.3210   21.3800 F   0  0  0  0  0  0  0  0  0  0  0  0
  -21.3380   -3.8640   26.0260 F   0  0  0  0  0  0  0  0  0  0  0  0
  -22.7700  -13.6270   21.1040 C   0  0  0  0  0  0  0  0  0  0  0  0
  -22.0570  -12.9270   21.9790 N   0  0  0  0  0  0  0  0  0  0  0  0
  -22.3210  -14.6510   20.5910 O   0  0  0  0  0  0  0  0  0  0  0  0
  -22.4320  -12.0940   22.4090 H   0  0  0  0  0  0  0  0  0  0  0  0
  -21.1230  -13.2220   22.2210 H   0  0  0  0  0  0  0  0  0  0  0  0
  -25.3830  -15.3000   20.2480 N   0  0  0  0  0  0  0  0  0  0  0  0
  -24.6200  -15.9560   20.3650 H   0  0  0  0  0  0  0  0  0  0  0  0
  -26.2200  -15.7300   19.8780 H   0  0  0  0  0  0  0  0  0  0  0  0
  2  1  1  0
  3  1  1  0
  4  5  1  0
  5 10  1  0
  7  6  1  0
  7  2  1  0
  8  4  1  0
  8  9  1  0
  8  7  1  0
  9 12  1  0
  9  3  1  0
 10 53  1  0
 10  6  1  0
 10 11  1  6
 13 24  2  0
 14 12  1  0
 14 19  1  0
 15 23  1  0
 15 25  1  0
 16 22  1  0
 16 18  1  0
 17 23  1  0
 18 17  1  0
 19 18  2  0
 20 21  1  0
 20 14  2  0
 21 16  2  0
 22 15  1  0
 23 13  1  0
 25 27  2  0
 26 25  1  0
 28 26  1  0
 29 38  2  0
 29 34  1  0
 30 26  1  0
 30 34  1  0
 31 30  1  0
 32 33  1  0
 32 31  1  0
 33 29  1  0
 34 35  2  0
 35 36  1  0
 37 36  2  0
 38 37  1  0
 39 13  1  0
 39 44  1  0
 39 40  1  0
 40 43  1  1
 40 41  1  0
 42 40  1  0
 44 47  1  0
 45 49  1  0
 45 44  1  0
 46 45  2  0
 49 48  1  0
 51 49  1  0
 51 52  1  0
 51 50  1  0
 54 53  2  0
 54 55  1  0
 56 55  1  0
 57 62  1  0
 58 59  1  0
 58 57  1  0
 60 59  1  0
 60 67  1  0
 60 61  1  0
 62 56  1  0
 62 61  1  0
 63 56  2  0
 64 65  2  0
 65 84  1  0
 66 65  1  0
 66 69  1  0
 67 64  1  0
 67 68  1  0
 68 66  2  0
 69 70  1  0
 70 71  2  0
 72 75  1  0
 72 71  1  0
 73 72  2  0
 74 73  1  0
 74 69  2  0
 75 76  1  0
 76 77  1  0
 77 78  2  0
 79 78  1  0
 79 83  1  0
 80 79  2  0
 81 76  2  0
 81 80  1  0
 82 81  1  0
 84 85  1  0
 85 88  1  0
 85 87  1  0
 86 84  2  0
 89 90  1  0
 89 64  1  0
 91 89  1  0
M  ISO  4   9 101  12 101  55 100  56 100
M  END
>  <TORSDO>  (71) 
F 19

>  <SCORE>  (71) 
-14.353

>  <name>  (71) 
71

>  <ligand_id>  (71) 
71

>  <original_smiles>  (71) 
[H]c1c([H])c([H])c2c(c1[H])C([H])([H])C([H])([H])C([H])([H])C2([H])N([H])C(=O)C1([H])N(C(=O)C([H])(N([H])C(=O)C([H])(N([H])C([H])([H])[H])C([H])([H])[H])C(C([H])([H])[H])(C([H])([H])[H])C([H])([H])[H])C([H])([H])c2c([H])c(OC3([H])C([H])([H])C([H])([H])C([H])([H])C4([H])C3([H])C([H])([H])C([H])([H])[N+]([H])(C([H])([H])C([H])([H])C([H])([H])C(=O)N3C([H])([H])C([H])([H])C([H])([H])C([H])(n5nc(-c6c([H])c([H])c(Oc7c([H])c([H])c(F)c([H])c7F)c([H])c6[H])c(C(=O)N([H])[H])c5N([H])[H])C3([H])[H])C4([H])[H])c([H])c([H])c2C1([H])[H]

>  <smiles>  (71) 
[H]c1c([H])c([H])c2c(c1[H])C([H])([H])C([H])([H])C([H])([H])C2([H])N([H])C(=O)C1([H])N(C(=O)C([H])(N([H])C(=O)C([H])(N([H])C([H])([H])[H])C([H])([H])[H])C(C([H])([H])[H])(C([H])([H])[H])C([H])([H])[H])C([H])([H])c2c([H])c(OC3([H])C([H])([H])C([H])([H])C([H])([H])C4([H])C3([H])C([H])([H])C([H])([H])[N+]([H])(C([H])([H])C([H])([H])C([H])([H])C(=O)N3C([H])([H])C([H])([H])C([H])([H])C([H])(n5nc(-c6c([H])c([H])c(Oc7c([H])c([H])c(F)c([H])c7F)c([H])c6[H])c(C(=O)N([H])[H])c5N([H])[H])C3([H])[H])C4([H])[H])c([H])c([H])c2C1([H])[H]

$$$$
72:0:0
     RDKit          3D

 92100  0  0  1  0  0  0  0  0999 V2000
  -32.1410  -22.5930   20.6430 C   0  0  0  0  0  2  0  0  0  0  0  0
  -31.9960  -21.5950   19.4740 C   0  0  0  0  0  2  0  0  0  0  0  0
  -30.9400  -23.5370   20.7590 C   0  0  0  0  0  2  0  0  0  0  0  0
  -30.5370  -21.3680   19.0250 C   0  0  0  0  0  2  0  0  0  0  0  0
  -29.5530  -22.8360   20.8800 C   0  0  0  0  0  3  0  0  0  0  0  0
  -29.5150  -21.3700   20.1850 C   0  0  0  0  0  3  0  0  0  0  0  0
  -30.7160  -20.0560   22.1850 C   0  0  0  0  0  1  0  0  0  0  0  0
  -29.6230  -20.0180   21.0920 C   0  0  0  0  0  3  0  0  0  0  0  0
  -29.6300  -18.6840   20.3300 N   0  0  0  0  0  4  0  0  0  0  0  0
  -28.6770  -18.5170   20.0490 H   0  0  0  0  0  0  0  0  0  0  0  0
  -30.1560  -18.8230   19.4830 H   0  0  0  0  0  0  0  0  0  0  0  0
  -30.1670  -17.3990   20.9740 C   0  0  0  0  0  2  0  0  0  0  0  0
  -29.6190  -16.0020   20.4210 C   0  0  0  0  0  2  0  0  0  0  0  0
  -30.5310  -14.6970   20.3370 C   0  0  0  0  0  0  0  0  0  0  0  0
  -30.3590  -12.4360   19.3210 C   0  0  0  0  0  2  0  0  0  0  0  0
  -29.4010  -12.5570   18.1120 C   0  0  0  0  0  2  0  0  0  0  0  0
  -27.9310  -12.3890   18.5510 C   0  0  0  0  0  2  0  0  0  0  0  0
  -27.5780  -13.2540   19.7900 C   0  0  0  0  0  3  0  0  0  0  0  0
  -28.6500  -13.1070   20.8930 C   0  0  0  0  0  2  0  0  0  0  0  0
  -29.9520  -13.4530   20.3120 N   0  0  0  0  0  0  0  0  0  0  0  0
  -31.7180  -14.8340   20.0260 O   0  0  0  0  0  0  0  0  0  0  0  0
  -25.1980  -13.8550   20.5430 C   0  0  0  0  0  0  0  0  0  0  0  0
  -24.1340  -13.0830   20.9260 C   0  0  0  0  0  0  0  0  0  0  0  0
  -24.5960  -11.7310   20.8860 C   0  0  0  0  0  0  0  0  0  0  0  0
  -26.2370  -12.9730   20.2930 N   0  0  0  0  0  0  0  0  0  0  0  0
  -25.8810  -11.6910   20.5610 N   0  0  0  0  0  0  0  0  0  0  0  0
  -23.8700  -10.4690   21.0840 C   0  0  0  0  0  0  0  0  0  0  0  0
  -24.3310   -9.4860   21.9870 C   0  0  0  0  0  3  0  0  0  0  0  0
  -23.6070   -8.2890   22.1720 C   0  0  0  0  0  3  0  0  0  0  0  0
  -22.4090   -8.0660   21.4550 C   0  0  0  0  0  0  0  0  0  0  0  0
  -21.9670   -9.0370   20.5390 C   0  0  0  0  0  3  0  0  0  0  0  0
  -22.6920  -10.2260   20.3520 C   0  0  0  0  0  3  0  0  0  0  0  0
  -21.6540   -6.9210   21.5500 O   0  0  0  0  0  0  0  0  0  0  0  0
  -21.6610   -6.1470   22.6820 C   0  0  0  0  0  0  0  0  0  0  0  0
  -21.3240   -6.6740   23.9480 C   0  0  0  0  0  3  0  0  0  0  0  0
  -21.2770   -5.8280   25.0730 C   0  0  0  0  0  3  0  0  0  0  0  0
  -21.5560   -4.4550   24.9350 C   0  0  0  0  0  0  0  0  0  0  0  0
  -21.8880   -3.9280   23.6740 C   0  0  0  0  0  3  0  0  0  0  0  0
  -21.9370   -4.7710   22.5510 C   0  0  0  0  0  0  0  0  0  0  0  0
  -22.2360   -4.2530   21.3360 F   0  0  0  0  0  0  0  0  0  0  0  0
  -21.5040   -3.6400   26.0150 F   0  0  0  0  0  0  0  0  0  0  0  0
  -22.7410  -13.5600   21.2150 C   0  0  0  0  0  0  0  0  0  0  0  0
  -22.0250  -12.8640   22.0910 N   0  0  0  0  0  0  0  0  0  0  0  0
  -22.2960  -14.5850   20.7000 O   0  0  0  0  0  0  0  0  0  0  0  0
  -22.3990  -12.0340   22.5290 H   0  0  0  0  0  0  0  0  0  0  0  0
  -21.0890  -13.1630   22.3280 H   0  0  0  0  0  0  0  0  0  0  0  0
  -25.3630  -15.2260   20.3670 N   0  0  0  0  0  0  0  0  0  0  0  0
  -24.5990  -15.8830   20.4860 H   0  0  0  0  0  0  0  0  0  0  0  0
  -26.2040  -15.6570   20.0070 H   0  0  0  0  0  0  0  0  0  0  0  0
  -28.3730  -23.9160   20.6670 C   0  0  0  0  0  2  0  0  0  0  0  0
  -28.4440  -25.1650   19.6660 C   0  0  0  0  0  2  0  0  0  0  0  0
  -28.3650  -26.5430   20.2040 O   0  0  0  0  0  0  0  0  0  0  0  0
  -24.6180  -31.8970   23.2300 C   0  0  0  0  0  0  0  0  0  0  0  0
  -27.2070  -27.3360   20.1590 C   0  0  0  0  0  0  0  0  0  0  0  0
  -23.3990  -30.4950   21.6040 C   0  0  0  0  0  3  0  0  0  0  0  0
  -24.8340  -28.9400   20.1710 C   0  0  0  0  0  0  0  0  0  0  0  0
  -25.9350  -30.8150   21.3960 C   0  0  0  0  0  2  0  0  0  0  0  0
  -26.0070  -29.4350   20.7530 C   0  0  0  0  0  0  0  0  0  0  0  0
  -27.1940  -28.6440   20.7350 C   0  0  0  0  0  3  0  0  0  0  0  0
  -26.0010  -26.8830   19.5740 C   0  0  0  0  0  3  0  0  0  0  0  0
  -24.8330  -27.6700   19.5770 C   0  0  0  0  0  3  0  0  0  0  0  0
  -23.6000  -29.8150   20.2250 C   0  0  0  0  0  2  0  0  0  0  0  0
  -24.6700  -31.0860   22.1330 N   0  0  0  0  0  0  0  0  0  0  0  0
  -23.5400  -32.1760   23.7740 O   0  0  0  0  0  0  0  0  0  0  0  0
  -22.7460  -29.4800   22.5720 C   0  0  0  0  0  0  0  0  0  0  0  0
  -21.4180  -29.3010   22.4560 N   0  0  0  0  0  0  0  0  0  0  0  0
  -23.4290  -28.8560   23.3860 O   0  0  0  0  0  0  0  0  0  0  0  0
  -20.9240  -29.8570   21.7720 H   0  0  0  0  0  0  0  0  0  0  0  0
  -18.0480  -28.0970   22.9750 C   0  0  0  0  0  0  0  0  0  0  0  0
  -20.6060  -28.3660   23.2380 C   0  0  0  0  0  3  0  0  0  0  0  0
  -20.7120  -26.9310   22.6740 C   0  0  0  0  0  2  0  0  0  0  0  0
  -19.6090  -26.5960   21.6650 C   0  0  0  0  0  2  0  0  0  0  0  0
  -18.2270  -26.7420   22.3110 C   0  0  0  0  0  2  0  0  0  0  0  0
  -19.1650  -28.8650   23.3960 C   0  0  0  0  0  0  0  0  0  0  0  0
  -18.9430  -30.1320   23.9790 C   0  0  0  0  0  3  0  0  0  0  0  0
  -17.6370  -30.6310   24.1430 C   0  0  0  0  0  3  0  0  0  0  0  0
  -16.5350  -29.8600   23.7370 C   0  0  0  0  0  3  0  0  0  0  0  0
  -16.7410  -28.5950   23.1590 C   0  0  0  0  0  3  0  0  0  0  0  0
  -25.9060  -32.5310   23.8400 C   0  0  0  0  0  3  0  0  0  0  0  0
  -25.5950  -33.9260   24.1810 N   0  0  0  0  0  0  0  0  0  0  0  0
  -25.9140  -34.9850   23.4240 C   0  0  0  0  0  0  0  0  0  0  0  0
  -26.5710  -34.8900   22.3840 O   0  0  0  0  0  0  0  0  0  0  0  0
  -25.0070  -34.0740   24.9890 H   0  0  0  0  0  0  0  0  0  0  0  0
  -24.1720  -36.7720   23.1050 C   0  0  0  0  0  1  0  0  0  0  0  0
  -25.4270  -36.3690   23.8960 C   0  0  0  0  0  3  0  0  0  0  0  0
  -27.5740  -37.2570   24.6920 C   0  0  0  0  0  1  0  0  0  0  0  0
  -26.4540  -37.4280   23.7710 N   0  0  0  0  0  0  0  0  0  0  0  0
  -26.0470  -38.3450   23.9320 H   0  0  0  0  0  0  0  0  0  0  0  0
  -26.4400  -31.7560   25.1070 C   0  0  1  0  0  0  0  0  0  0  0  0
  -25.3610  -31.5140   26.1870 C   0  0  0  0  0  1  0  0  0  0  0  0
  -27.0190  -30.3810   24.7020 C   0  0  0  0  0  1  0  0  0  0  0  0
  -27.5980  -32.5510   25.7560 C   0  0  0  0  0  1  0  0  0  0  0  0
  1  3  1  0
  2  1  1  0
  3  5  1  0
  4  2  1  0
  4  6  1  0
  5 50  1  0
  6  5  1  0
  6  8  1  0
  8  7  1  0
  9 12  1  0
  9  8  1  0
 10  9  1  0
 11  9  1  0
 13 12  1  0
 14 13  1  0
 15 20  1  0
 16 17  1  0
 16 15  1  0
 18 17  1  0
 18 25  1  0
 18 19  1  0
 20 14  1  0
 20 19  1  0
 21 14  2  0
 22 23  2  0
 23 42  1  0
 24 23  1  0
 24 27  1  0
 25 22  1  0
 25 26  1  0
 26 24  2  0
 27 28  1  0
 28 29  2  0
 30 33  1  0
 30 29  1  0
 31 30  2  0
 32 31  1  0
 32 27  2  0
 33 34  1  0
 34 35  1  0
 35 36  2  0
 37 36  1  0
 37 41  1  0
 38 37  2  0
 39 34  2  0
 39 38  1  0
 40 39  1  0
 42 43  1  0
 43 46  1  0
 43 45  1  0
 44 42  2  0
 47 48  1  0
 47 22  1  0
 49 47  1  0
 51 52  1  0
 51 50  1  0
 53 64  2  0
 54 52  1  0
 54 59  1  0
 55 63  1  0
 55 65  1  0
 56 62  1  0
 56 58  1  0
 57 63  1  0
 58 57  1  0
 59 58  2  0
 60 61  1  0
 60 54  2  0
 61 56  2  0
 62 55  1  0
 63 53  1  0
 65 67  2  0
 66 65  1  0
 68 66  1  0
 69 78  2  0
 69 74  1  0
 70 66  1  0
 70 74  1  0
 71 70  1  0
 72 73  1  0
 72 71  1  0
 73 69  1  0
 74 75  2  0
 75 76  1  0
 77 76  2  0
 78 77  1  0
 79 53  1  0
 79 80  1  0
 79 89  1  0
 80 83  1  0
 81 85  1  0
 81 80  1  0
 82 81  2  0
 85 84  1  0
 87 85  1  0
 87 88  1  0
 87 86  1  0
 89 92  1  1
 89 90  1  0
 91 89  1  0
M  ISO  4  13 100  14 100  51 101  52 101
M  END
>  <TORSDO>  (72) 
F 22

>  <SCORE>  (72) 
-12.960

>  <name>  (72) 
72

>  <ligand_id>  (72) 
72

>  <original_smiles>  (72) 
[H]c1c([H])c([H])c2c(c1[H])C([H])([H])C([H])([H])C([H])([H])C2([H])N([H])C(=O)C1([H])N(C(=O)C([H])(N([H])C(=O)C([H])(N([H])C([H])([H])[H])C([H])([H])[H])C(C([H])([H])[H])(C([H])([H])[H])C([H])([H])[H])C([H])([H])c2c([H])c(OC([H])([H])C([H])([H])C3([H])C([H])([H])C([H])([H])C([H])([H])C([H])([H])C3([H])C([H])(C([H])([H])[H])[N+]([H])([H])C([H])([H])C([H])([H])C(=O)N3C([H])([H])C([H])([H])C([H])([H])C([H])(n4nc(-c5c([H])c([H])c(Oc6c([H])c([H])c(F)c([H])c6F)c([H])c5[H])c(C(=O)N([H])[H])c4N([H])[H])C3([H])[H])c([H])c([H])c2C1([H])[H]

>  <smiles>  (72) 
[H]c1c([H])c([H])c2c(c1[H])C([H])([H])C([H])([H])C([H])([H])C2([H])N([H])C(=O)C1([H])N(C(=O)C([H])(N([H])C(=O)C([H])(N([H])C([H])([H])[H])C([H])([H])[H])C(C([H])([H])[H])(C([H])([H])[H])C([H])([H])[H])C([H])([H])c2c([H])c(OC([H])([H])C([H])([H])C3([H])C([H])([H])C([H])([H])C([H])([H])C([H])([H])C3([H])C([H])(C([H])([H])[H])[N+]([H])([H])C([H])([H])C([H])([H])C(=O)N3C([H])([H])C([H])([H])C([H])([H])C([H])(n4nc(-c5c([H])c([H])c(Oc6c([H])c([H])c(F)c([H])c6F)c([H])c5[H])c(C(=O)N([H])[H])c4N([H])[H])C3([H])[H])c([H])c([H])c2C1([H])[H]

$$$$
73:0:0
     RDKit          3D

 90 96  0  0  1  0  0  0  0  0999 V2000
  -29.4850  -19.7130   22.1280 C   0  0  0  0  0  2  0  0  0  0  0  0
  -30.1670  -20.9530   22.7240 C   0  0  0  0  0  3  0  0  0  0  0  0
  -29.3980  -19.6470   20.5920 C   0  0  0  0  0  1  0  0  0  0  0  0
  -30.5970  -22.1780   21.9290 C   0  0  0  0  0  3  0  0  0  0  0  0
  -29.0760  -21.6250   20.0960 C   0  0  0  0  0  1  0  0  0  0  0  0
  -31.6510  -21.2860   22.5740 C   0  0  1  0  0  0  0  0  0  0  0  0
  -32.3780  -21.7940   23.8080 C   0  0  0  0  0  1  0  0  0  0  0  0
  -32.5850  -20.3790   21.7750 C   0  0  0  0  0  1  0  0  0  0  0  0
  -31.0090  -23.1930   19.7040 C   0  0  0  0  0  1  0  0  0  0  0  0
  -30.4490  -22.0490   20.4610 N   0  0  1  0  0  4  0  0  0  0  0  0
  -31.0370  -21.2700   20.2070 H   0  0  0  0  0  0  0  0  0  0  0  0
  -29.3190  -17.6430   20.1740 C   0  0  0  0  0  1  0  0  0  0  0  0
  -30.1810  -15.8760   20.2920 C   0  0  0  0  0  0  0  0  0  0  0  0
  -30.4170  -13.2500   19.5620 C   0  0  0  0  0  2  0  0  0  0  0  0
  -29.5700  -12.7210   18.3580 C   0  0  0  0  0  2  0  0  0  0  0  0
  -28.1580  -12.3120   18.8010 C   0  0  0  0  0  2  0  0  0  0  0  0
  -27.5880  -13.3360   19.8030 C   0  0  0  0  0  3  0  0  0  0  0  0
  -28.5810  -13.7610   20.9130 C   0  0  0  0  0  2  0  0  0  0  0  0
  -29.7350  -14.4490   20.2670 N   0  0  0  0  0  0  0  0  0  0  0  0
  -31.4260  -15.7810   20.1840 O   0  0  0  0  0  0  0  0  0  0  0  0
  -25.2290  -13.8330   20.5800 C   0  0  0  0  0  0  0  0  0  0  0  0
  -24.1710  -13.0440   20.9280 C   0  0  0  0  0  0  0  0  0  0  0  0
  -24.6450  -11.6960   20.8740 C   0  0  0  0  0  0  0  0  0  0  0  0
  -26.2760  -12.9710   20.3200 N   0  0  0  0  0  0  0  0  0  0  0  0
  -25.9410  -11.6750   20.5650 N   0  0  0  0  0  0  0  0  0  0  0  0
  -23.9150  -10.4300   21.0380 C   0  0  0  0  0  0  0  0  0  0  0  0
  -24.3680   -9.4210   21.9170 C   0  0  0  0  0  3  0  0  0  0  0  0
  -23.6330   -8.2260   22.0760 C   0  0  0  0  0  3  0  0  0  0  0  0
  -22.4310   -8.0300   21.3540 C   0  0  0  0  0  0  0  0  0  0  0  0
  -21.9960   -9.0280   20.4650 C   0  0  0  0  0  3  0  0  0  0  0  0
  -22.7310  -10.2140   20.3040 C   0  0  0  0  0  3  0  0  0  0  0  0
  -21.6660   -6.8910   21.4240 O   0  0  0  0  0  0  0  0  0  0  0  0
  -21.6860   -6.0750   22.5280 C   0  0  0  0  0  0  0  0  0  0  0  0
  -21.4020   -6.5650   23.8210 C   0  0  0  0  0  3  0  0  0  0  0  0
  -21.3660   -5.6800   24.9170 C   0  0  0  0  0  3  0  0  0  0  0  0
  -21.6050   -4.3060   24.7220 C   0  0  0  0  0  0  0  0  0  0  0  0
  -21.8820   -3.8160   23.4330 C   0  0  0  0  0  3  0  0  0  0  0  0
  -21.9190   -4.6980   22.3400 C   0  0  0  0  0  0  0  0  0  0  0  0
  -22.1660   -4.2160   21.0970 F   0  0  0  0  0  0  0  0  0  0  0  0
  -21.5630   -3.4540   25.7730 F   0  0  0  0  0  0  0  0  0  0  0  0
  -22.7720  -13.5150   21.1920 C   0  0  0  0  0  0  0  0  0  0  0  0
  -22.0400  -12.8110   22.0480 N   0  0  0  0  0  0  0  0  0  0  0  0
  -22.3380  -14.5440   20.6770 O   0  0  0  0  0  0  0  0  0  0  0  0
  -22.4040  -11.9780   22.4860 H   0  0  0  0  0  0  0  0  0  0  0  0
  -21.1010  -13.1110   22.2700 H   0  0  0  0  0  0  0  0  0  0  0  0
  -25.3860  -15.2080   20.4290 N   0  0  0  0  0  0  0  0  0  0  0  0
  -24.6150  -15.8550   20.5560 H   0  0  0  0  0  0  0  0  0  0  0  0
  -26.2350  -15.6600   20.1150 H   0  0  0  0  0  0  0  0  0  0  0  0
  -28.0890  -23.4030   20.3810 C   0  0  0  0  0  1  0  0  0  0  0  0
  -28.1950  -25.2510   20.2650 O   0  0  0  0  0  0  0  0  0  0  0  0
  -24.7000  -31.7810   23.1370 C   0  0  0  0  0  0  0  0  0  0  0  0
  -27.2320  -26.5320   20.2390 C   0  0  0  0  0  0  0  0  0  0  0  0
  -23.5340  -30.3750   21.4950 C   0  0  0  0  0  3  0  0  0  0  0  0
  -24.9920  -28.6780   20.1270 C   0  0  0  0  0  0  0  0  0  0  0  0
  -26.1220  -30.4590   21.4260 C   0  0  0  0  0  2  0  0  0  0  0  0
  -26.1850  -29.0040   20.7830 C   0  0  0  0  0  0  0  0  0  0  0  0
  -27.2840  -27.9650   20.7960 C   0  0  0  0  0  3  0  0  0  0  0  0
  -26.0020  -26.4580   19.5260 C   0  0  0  0  0  3  0  0  0  0  0  0
  -24.9490  -27.4330   19.4730 C   0  0  0  0  0  3  0  0  0  0  0  0
  -23.7980  -29.6560   20.1380 C   0  0  0  0  0  2  0  0  0  0  0  0
  -24.8110  -30.9090   22.0710 N   0  0  0  0  0  0  0  0  0  0  0  0
  -23.5980  -32.0960   23.6210 O   0  0  0  0  0  0  0  0  0  0  0  0
  -22.7840  -29.4210   22.4660 C   0  0  0  0  0  0  0  0  0  0  0  0
  -21.4470  -29.3020   22.3420 N   0  0  0  0  0  0  0  0  0  0  0  0
  -23.4210  -28.7830   23.3070 O   0  0  0  0  0  0  0  0  0  0  0  0
  -20.9810  -29.8680   21.6460 H   0  0  0  0  0  0  0  0  0  0  0  0
  -18.0340  -28.1430   22.8440 C   0  0  0  0  0  0  0  0  0  0  0  0
  -20.5990  -28.3800   23.1100 C   0  0  0  0  0  3  0  0  0  0  0  0
  -20.6800  -26.9440   22.5410 C   0  0  0  0  0  2  0  0  0  0  0  0
  -19.5780  -26.6360   21.5220 C   0  0  0  0  0  2  0  0  0  0  0  0
  -18.1960  -26.7960   22.1610 C   0  0  0  0  0  2  0  0  0  0  0  0
  -19.1620  -28.8940   23.2750 C   0  0  0  0  0  0  0  0  0  0  0  0
  -18.9530  -30.1520   23.8810 C   0  0  0  0  0  3  0  0  0  0  0  0
  -17.6510  -30.6610   24.0540 C   0  0  0  0  0  3  0  0  0  0  0  0
  -16.5400  -29.9090   23.6350 C   0  0  0  0  0  3  0  0  0  0  0  0
  -16.7330  -28.6520   23.0370 C   0  0  0  0  0  3  0  0  0  0  0  0
  -25.9500  -32.4380   23.7980 C   0  0  0  0  0  3  0  0  0  0  0  0
  -25.6000  -33.8210   24.1850 N   0  0  0  0  0  0  0  0  0  0  0  0
  -25.9140  -34.9240   23.4910 C   0  0  0  0  0  0  0  0  0  0  0  0
  -26.5800  -34.8850   22.4540 O   0  0  0  0  0  0  0  0  0  0  0  0
  -25.0060  -33.9230   24.9940 H   0  0  0  0  0  0  0  0  0  0  0  0
  -24.1490  -36.7120   23.2660 C   0  0  0  0  0  1  0  0  0  0  0  0
  -25.4150  -36.2840   24.0270 C   0  0  0  0  0  3  0  0  0  0  0  0
  -27.5550  -37.1710   24.8470 C   0  0  0  0  0  1  0  0  0  0  0  0
  -26.4250  -37.3630   23.9410 N   0  0  0  0  0  0  0  0  0  0  0  0
  -26.0060  -38.2660   24.1440 H   0  0  0  0  0  0  0  0  0  0  0  0
  -26.4620  -31.6480   25.0670 C   0  0  1  0  0  0  0  0  0  0  0  0
  -25.3640  -31.3860   26.1260 C   0  0  0  0  0  1  0  0  0  0  0  0
  -27.0570  -30.2800   24.6690 C   0  0  0  0  0  1  0  0  0  0  0  0
  -27.6030  -32.4380   25.7500 C   0  0  0  0  0  1  0  0  0  0  0  0
  2  1  1  0
  3  1  1  0
  4 10  1  0
  4  6  1  0
  4  2  1  0
  5 10  1  0
  6  2  1  0
  6  7  1  1
  8  6  1  0
  9 10  1  0
 10 11  1  6
 12 13  1  0
 14 19  1  0
 15 16  1  0
 15 14  1  0
 17 16  1  0
 17 24  1  0
 17 18  1  0
 19 13  1  0
 19 18  1  0
 20 13  2  0
 21 22  2  0
 22 41  1  0
 23 22  1  0
 23 26  1  0
 24 25  1  0
 24 21  1  0
 25 23  2  0
 26 27  1  0
 27 28  2  0
 29 32  1  0
 29 28  1  0
 30 29  2  0
 31 30  1  0
 31 26  2  0
 32 33  1  0
 33 34  1  0
 34 35  2  0
 36 35  1  0
 36 40  1  0
 37 36  2  0
 38 33  2  0
 38 37  1  0
 39 38  1  0
 41 42  1  0
 42 45  1  0
 42 44  1  0
 43 41  2  0
 46 47  1  0
 46 21  1  0
 48 46  1  0
 50 49  1  0
 51 62  2  0
 52 50  1  0
 52 57  1  0
 53 61  1  0
 53 63  1  0
 54 60  1  0
 54 56  1  0
 55 61  1  0
 56 57  2  0
 56 55  1  0
 58 52  2  0
 59 58  1  0
 59 54  2  0
 60 53  1  0
 61 51  1  0
 63 65  2  0
 64 63  1  0
 66 64  1  0
 67 76  2  0
 67 72  1  0
 68 64  1  0
 68 72  1  0
 69 68  1  0
 70 71  1  0
 70 69  1  0
 71 67  1  0
 72 73  2  0
 73 74  1  0
 75 74  2  0
 76 75  1  0
 77 51  1  0
 77 78  1  0
 77 87  1  0
 78 81  1  0
 79 83  1  0
 79 78  1  0
 80 79  2  0
 83 82  1  0
 85 83  1  0
 85 86  1  0
 85 84  1  0
 87 90  1  1
 87 88  1  0
 89 87  1  0
M  ISO  4  12 100  13 100  49 101  50 101
M  END
>  <TORSDO>  (73) 
F 18

>  <SCORE>  (73) 
-14.505

>  <name>  (73) 
73

>  <ligand_id>  (73) 
73

>  <original_smiles>  (73) 
[H]c1c([H])c([H])c2c(c1[H])C([H])([H])C([H])([H])C([H])([H])C2([H])N([H])C(=O)C1([H])N(C(=O)C([H])(N([H])C(=O)C([H])(N([H])C([H])([H])[H])C([H])([H])[H])C(C([H])([H])[H])(C([H])([H])[H])C([H])([H])[H])C([H])([H])c2c([H])c(OC([H])([H])C3([H])C([H])(C([H])([H])C(=O)N4C([H])([H])C([H])([H])C([H])([H])C([H])(n5nc(-c6c([H])c([H])c(Oc7c([H])c([H])c(F)c([H])c7F)c([H])c6[H])c(C(=O)N([H])[H])c5N([H])[H])C4([H])[H])C([H])([H])C4([H])C(C([H])([H])[H])(C([H])([H])[H])C4([H])[N+]3([H])C([H])([H])[H])c([H])c([H])c2C1([H])[H]

>  <smiles>  (73) 
[H]c1c([H])c([H])c2c(c1[H])C([H])([H])C([H])([H])C([H])([H])C2([H])N([H])C(=O)C1([H])N(C(=O)C([H])(N([H])C(=O)C([H])(N([H])C([H])([H])[H])C([H])([H])[H])C(C([H])([H])[H])(C([H])([H])[H])C([H])([H])[H])C([H])([H])c2c([H])c(OC([H])([H])C3([H])C([H])(C([H])([H])C(=O)N4C([H])([H])C([H])([H])C([H])([H])C([H])(n5nc(-c6c([H])c([H])c(Oc7c([H])c([H])c(F)c([H])c7F)c([H])c6[H])c(C(=O)N([H])[H])c5N([H])[H])C4([H])[H])C([H])([H])C4([H])C(C([H])([H])[H])(C([H])([H])[H])C4([H])[N+]3([H])C([H])([H])[H])c([H])c([H])c2C1([H])[H]

$$$$
74:0:0
     RDKit          3D

 87 93  0  0  1  0  0  0  0  0999 V2000
  -31.3830  -19.4730   20.0000 C   0  0  0  0  0  2  0  0  0  0  0  0
  -29.2680  -19.7210   19.8790 C   0  0  0  0  0  2  0  0  0  0  0  0
  -30.4780  -18.6710   21.9780 C   0  0  0  0  0  2  0  0  0  0  0  0
  -30.9140  -20.8960   20.7240 C   0  0  0  0  0  3  0  0  0  0  0  0
  -29.4750  -21.5840   20.2400 C   0  0  0  0  0  2  0  0  0  0  0  0
  -30.3990  -18.3040   20.4740 C   0  0  0  0  0  3  0  0  0  0  0  0
  -30.8840  -20.2050   22.1640 C   0  0  1  0  0  0  0  0  0  0  0  0
  -29.9510  -20.8730   23.2030 C   0  0  0  0  0  1  0  0  0  0  0  0
  -32.2980  -20.2900   22.7930 C   0  0  0  0  0  1  0  0  0  0  0  0
  -30.9500  -16.3700   20.2290 C   0  0  0  0  0  2  0  0  0  0  0  0
  -31.0540  -13.6860   19.5570 C   0  0  0  0  0  2  0  0  0  0  0  0
  -30.2170  -13.1340   18.3550 C   0  0  0  0  0  2  0  0  0  0  0  0
  -28.7900  -12.7750   18.7840 C   0  0  0  0  0  2  0  0  0  0  0  0
  -28.2450  -13.8450   19.7490 C   0  0  0  0  0  3  0  0  0  0  0  0
  -29.2330  -14.2950   20.8620 C   0  0  0  0  0  2  0  0  0  0  0  0
  -30.4200  -14.9510   20.2270 N   0  0  0  0  0  0  0  0  0  0  0  0
  -32.1690  -16.1450   20.0260 O   0  0  0  0  0  1  0  0  0  0  0  0
  -25.9100  -14.4630   20.4970 C   0  0  0  0  0  0  0  0  0  0  0  0
  -24.8050  -13.7340   20.8300 C   0  0  0  0  0  0  0  0  0  0  0  0
  -25.2030  -12.3620   20.7790 C   0  0  0  0  0  0  0  0  0  0  0  0
  -26.9110  -13.5460   20.2500 N   0  0  0  0  0  0  0  0  0  0  0  0
  -26.5000  -12.2680   20.4830 N   0  0  0  0  0  0  0  0  0  0  0  0
  -24.4000  -11.1390   20.9330 C   0  0  0  0  0  0  0  0  0  0  0  0
  -24.7420  -10.1400   21.8710 C   0  0  0  0  0  3  0  0  0  0  0  0
  -23.9370   -8.9880   22.0180 C   0  0  0  0  0  3  0  0  0  0  0  0
  -22.7740   -8.8280   21.2260 C   0  0  0  0  0  0  0  0  0  0  0  0
  -22.4500   -9.8150   20.2790 C   0  0  0  0  0  3  0  0  0  0  0  0
  -23.2550  -10.9570   20.1300 C   0  0  0  0  0  3  0  0  0  0  0  0
  -21.9470   -7.7310   21.2810 O   0  0  0  0  0  0  0  0  0  0  0  0
  -21.8020   -6.9950   22.4300 C   0  0  0  0  0  0  0  0  0  0  0  0
  -21.3130   -7.5680   23.6240 C   0  0  0  0  0  3  0  0  0  0  0  0
  -21.1140   -6.7590   24.7620 C   0  0  0  0  0  3  0  0  0  0  0  0
  -21.3940   -5.3810   24.7060 C   0  0  0  0  0  0  0  0  0  0  0  0
  -21.8740   -4.8080   23.5150 C   0  0  0  0  0  3  0  0  0  0  0  0
  -22.0750   -5.6130   22.3800 C   0  0  0  0  0  0  0  0  0  0  0  0
  -22.5180   -5.0520   21.2300 F   0  0  0  0  0  0  0  0  0  0  0  0
  -21.1950   -4.6030   25.7960 F   0  0  0  0  0  0  0  0  0  0  0  0
  -23.4320  -14.2840   21.0790 C   0  0  0  0  0  0  0  0  0  0  0  0
  -22.6500  -13.6200   21.9210 N   0  0  0  0  0  0  0  0  0  0  0  0
  -23.0670  -15.3410   20.5650 O   0  0  0  0  0  0  0  0  0  0  0  0
  -22.9610  -12.7660   22.3600 H   0  0  0  0  0  0  0  0  0  0  0  0
  -21.7270  -13.9710   22.1310 H   0  0  0  0  0  0  0  0  0  0  0  0
  -26.1480  -15.8270   20.3490 N   0  0  0  0  0  0  0  0  0  0  0  0
  -25.4160  -16.5190   20.4660 H   0  0  0  0  0  0  0  0  0  0  0  0
  -27.0290  -16.2270   20.0530 H   0  0  0  0  0  0  0  0  0  0  0  0
  -28.8570  -23.5360   19.6880 C   0  0  0  0  0 15  0  0  0  0  0  0
  -28.6720  -25.4060   19.9670 O   0  0  0  0  0  1  0  0  0  0  0  0
  -24.7000  -31.6660   22.9660 C   0  0  0  0  0  0  0  0  0  0  0  0
  -27.6360  -26.6630   19.8800 C   0  0  0  0  0  0  0  0  0  0  0  0
  -23.6400  -30.2090   21.2980 C   0  0  0  0  0  3  0  0  0  0  0  0
  -25.2220  -28.6690   19.8580 C   0  0  0  0  0  0  0  0  0  0  0  0
  -26.2140  -30.4890   21.2140 C   0  0  0  0  0  2  0  0  0  0  0  0
  -26.3910  -29.0560   20.5230 C   0  0  0  0  0  0  0  0  0  0  0  0
  -27.5610  -28.0850   20.5010 C   0  0  0  0  0  3  0  0  0  0  0  0
  -26.4130  -26.5560   19.1490 C   0  0  0  0  0  3  0  0  0  0  0  0
  -25.2850  -27.4540   19.1470 C   0  0  0  0  0  3  0  0  0  0  0  0
  -23.9490  -29.5470   19.9190 C   0  0  0  0  0  2  0  0  0  0  0  0
  -24.8750  -30.8290   21.8780 N   0  0  0  0  0  0  0  0  0  0  0  0
  -23.5810  -31.8760   23.4690 O   0  0  0  0  0  0  0  0  0  0  0  0
  -22.9800  -29.1760   22.2540 C   0  0  0  0  0  0  0  0  0  0  0  0
  -21.6690  -28.9030   22.1010 N   0  0  0  0  0  0  0  0  0  0  0  0
  -23.6660  -28.6150   23.1110 O   0  0  0  0  0  0  0  0  0  0  0  0
  -21.1560  -29.4090   21.3930 H   0  0  0  0  0  0  0  0  0  0  0  0
  -18.4120  -27.3300   22.5200 C   0  0  0  0  0  0  0  0  0  0  0  0
  -20.9200  -27.8840   22.8510 C   0  0  0  0  0  3  0  0  0  0  0  0
  -21.1920  -26.4690   22.2880 C   0  0  0  0  0  2  0  0  0  0  0  0
  -20.1650  -26.0280   21.2410 C   0  0  0  0  0  2  0  0  0  0  0  0
  -18.7580  -26.0140   21.8440 C   0  0  0  0  0  2  0  0  0  0  0  0
  -19.4260  -28.2150   22.9780 C   0  0  0  0  0  0  0  0  0  0  0  0
  -19.0460  -29.4360   23.5770 C   0  0  0  0  0  3  0  0  0  0  0  0
  -17.6870  -29.7780   23.7160 C   0  0  0  0  0  3  0  0  0  0  0  0
  -16.6890  -28.8940   23.2700 C   0  0  0  0  0  3  0  0  0  0  0  0
  -17.0520  -27.6710   22.6780 C   0  0  0  0  0  3  0  0  0  0  0  0
  -25.8950  -32.4140   23.6340 C   0  0  0  0  0  3  0  0  0  0  0  0
  -25.4510  -33.7760   24.0040 N   0  0  0  0  0  0  0  0  0  0  0  0
  -25.6900  -34.8910   23.2990 C   0  0  0  0  0  0  0  0  0  0  0  0
  -26.3580  -34.8860   22.2630 O   0  0  0  0  0  0  0  0  0  0  0  0
  -24.8480  -33.8450   24.8100 H   0  0  0  0  0  0  0  0  0  0  0  0
  -23.8050  -36.5510   23.0610 C   0  0  0  0  0  1  0  0  0  0  0  0
  -25.1000  -36.2210   23.8210 C   0  0  0  0  0  3  0  0  0  0  0  0
  -27.1670  -37.2760   24.6320 C   0  0  0  0  0  1  0  0  0  0  0  0
  -26.0340  -37.3650   23.7150 N   0  0  0  0  0  0  0  0  0  0  0  0
  -25.5520  -38.2420   23.8920 H   0  0  0  0  0  0  0  0  0  0  0  0
  -26.4440  -31.6750   24.9190 C   0  0  1  0  0  0  0  0  0  0  0  0
  -25.3520  -31.3480   25.9660 C   0  0  0  0  0  1  0  0  0  0  0  0
  -27.1400  -30.3490   24.5470 C   0  0  0  0  0  1  0  0  0  0  0  0
  -27.5180  -32.5510   25.6090 C   0  0  0  0  0  1  0  0  0  0  0  0
  1  6  1  0
  2  5  1  0
  3  7  1  0
  4  1  1  0
  4  7  1  0
  5  4  1  0
  6  2  1  0
  6  3  1  0
  7  9  1  1
  7  8  1  0
 11 16  1  0
 12 13  1  0
 12 11  1  0
 14 13  1  0
 14 21  1  0
 14 15  1  0
 16 10  1  0
 16 15  1  0
 17 10  1  0
 18 19  2  0
 19 38  1  0
 20 19  1  0
 20 23  1  0
 21 22  1  0
 21 18  1  0
 22 20  2  0
 23 24  1  0
 24 25  2  0
 26 29  1  0
 26 25  1  0
 27 26  2  0
 28 27  1  0
 28 23  2  0
 29 30  1  0
 30 31  1  0
 31 32  2  0
 33 32  1  0
 33 37  1  0
 34 33  2  0
 35 30  2  0
 35 34  1  0
 36 35  1  0
 38 39  1  0
 39 42  1  0
 39 41  1  0
 40 38  2  0
 43 44  1  0
 43 18  1  0
 45 43  1  0
 48 59  2  0
 49 47  1  0
 49 54  1  0
 50 58  1  0
 50 60  1  0
 51 57  1  0
 51 53  1  0
 52 58  1  0
 53 52  1  0
 54 53  2  0
 55 49  2  0
 56 55  1  0
 56 51  2  0
 57 50  1  0
 58 48  1  0
 60 62  2  0
 61 60  1  0
 63 61  1  0
 64 73  2  0
 64 69  1  0
 65 61  1  0
 65 69  1  0
 66 65  1  0
 67 68  1  0
 67 66  1  0
 68 64  1  0
 69 70  2  0
 70 71  1  0
 72 71  2  0
 73 72  1  0
 74 48  1  0
 74 75  1  0
 74 84  1  0
 75 78  1  0
 76 80  1  0
 76 75  1  0
 77 76  2  0
 80 79  1  0
 82 80  1  0
 82 83  1  0
 82 81  1  0
 84 87  1  1
 84 85  1  0
 86 84  1  0
M  ISO  4   6 100  10 100  46 101  47 101
M  END
>  <TORSDO>  (74) 
F 17

>  <SCORE>  (74) 
-14.510

>  <name>  (74) 
74

>  <ligand_id>  (74) 
74

>  <original_smiles>  (74) 
[H]c1c([H])c([H])c2c(c1[H])C([H])([H])C([H])([H])C([H])([H])C2([H])N([H])C(=O)C1([H])N(C(=O)C([H])(N([H])C(=O)C([H])(N([H])C([H])([H])[H])C([H])([H])[H])C(C([H])([H])[H])(C([H])([H])[H])C([H])([H])[H])C([H])([H])c2c([H])c(OC([H])([H])C3([H])C([H])([H])C4(C(=O)N5C([H])([H])C([H])([H])C([H])([H])C([H])(n6nc(-c7c([H])c([H])c(Oc8c([H])c([H])c(F)c([H])c8F)c([H])c7[H])c(C(=O)N([H])[H])c6N([H])[H])C5([H])[H])C([H])([H])C3([H])C(C([H])([H])[H])(C([H])([H])[H])C4([H])[H])c([H])c([H])c2C1([H])[H]

>  <smiles>  (74) 
[H]c1c([H])c([H])c2c(c1[H])C([H])([H])C([H])([H])C([H])([H])C2([H])N([H])C(=O)C1([H])N(C(=O)C([H])(N([H])C(=O)C([H])(N([H])C([H])([H])[H])C([H])([H])[H])C(C([H])([H])[H])(C([H])([H])[H])C([H])([H])[H])C([H])([H])c2c([H])c(OC([H])([H])C3([H])C([H])([H])C4(C(=O)N5C([H])([H])C([H])([H])C([H])([H])C([H])(n6nc(-c7c([H])c([H])c(Oc8c([H])c([H])c(F)c([H])c8F)c([H])c7[H])c(C(=O)N([H])[H])c6N([H])[H])C5([H])[H])C([H])([H])C3([H])C(C([H])([H])[H])(C([H])([H])[H])C4([H])[H])c([H])c([H])c2C1([H])[H]

$$$$
75:0:0
     RDKit          3D

 98105  0  0  1  0  0  0  0  0999 V2000
  -28.9740  -22.4540   23.8880 C   0  0  0  0  0  2  0  0  0  0  0  0
  -28.6460  -23.9180   23.5680 C   0  0  0  0  0  0  0  0  0  0  0  0
  -28.5320  -24.8050   24.7870 C   0  0  0  0  0  1  0  0  0  0  0  0
  -28.4680  -24.4450   22.4190 N   0  0  0  0  0  0  0  0  0  0  0  0
  -28.5520  -23.7080   21.1700 C   0  0  0  0  0  2  0  0  0  0  0  0
  -27.8320  -24.5130   20.0740 C   0  0  0  0  0  2  0  0  0  0  0  0
  -28.2660  -24.1310   18.6510 C   0  0  0  0  0  2  0  0  0  0  0  0
  -27.8830  -25.1600   17.5720 C   0  0  0  0  0  2  0  0  0  0  0  0
  -28.1350  -26.5010   18.0080 O   0  0  0  0  0  0  0  0  0  0  0  0
  -25.9670  -30.0030   23.7900 C   0  0  0  0  0  0  0  0  0  0  0  0
  -27.1390  -27.3070   18.5340 C   0  0  0  0  0  0  0  0  0  0  0  0
  -24.3360  -29.9070   21.9340 C   0  0  0  0  0  3  0  0  0  0  0  0
  -25.2350  -29.0480   19.7110 C   0  0  0  0  0  0  0  0  0  0  0  0
  -26.8480  -29.8000   21.4650 C   0  0  0  0  0  2  0  0  0  0  0  0
  -26.5240  -28.9590   20.2480 C   0  0  0  0  0  0  0  0  0  0  0  0
  -27.4760  -28.0960   19.6590 C   0  0  0  0  0  3  0  0  0  0  0  0
  -25.8250  -27.4030   18.0150 C   0  0  0  0  0  3  0  0  0  0  0  0
  -24.8820  -28.2760   18.5940 C   0  0  0  0  0  3  0  0  0  0  0  0
  -24.2740  -29.9990   20.3880 C   0  0  0  0  0  2  0  0  0  0  0  0
  -25.7430  -29.8820   22.4500 N   0  0  0  0  0  0  0  0  0  0  0  0
  -25.0340  -30.1780   24.5850 O   0  0  0  0  0  0  0  0  0  0  0  0
  -23.4900  -28.6980   22.3920 C   0  0  0  0  0  0  0  0  0  0  0  0
  -22.1610  -28.8070   22.2340 N   0  0  0  0  0  0  0  0  0  0  0  0
  -24.0280  -27.6870   22.8520 O   0  0  0  0  0  0  0  0  0  0  0  0
  -21.8020  -29.6700   21.8530 H   0  0  0  0  0  0  0  0  0  0  0  0
  -18.6380  -28.0130   22.0750 C   0  0  0  0  0  0  0  0  0  0  0  0
  -21.1670  -27.7850   22.5620 C   0  0  0  0  0  3  0  0  0  0  0  0
  -21.1660  -26.6530   21.5090 C   0  0  0  0  0  2  0  0  0  0  0  0
  -20.1460  -26.8770   20.3880 C   0  0  0  0  0  2  0  0  0  0  0  0
  -18.7290  -26.9810   20.9630 C   0  0  0  0  0  2  0  0  0  0  0  0
  -19.7850  -28.4020   22.8150 C   0  0  0  0  0  0  0  0  0  0  0  0
  -19.6540  -29.3890   23.8150 C   0  0  0  0  0  3  0  0  0  0  0  0
  -18.4050  -29.9790   24.0830 C   0  0  0  0  0  3  0  0  0  0  0  0
  -17.2690  -29.5770   23.3600 C   0  0  0  0  0  3  0  0  0  0  0  0
  -17.3850  -28.5960   22.3590 C   0  0  0  0  0  3  0  0  0  0  0  0
  -27.4110  -29.9530   24.3830 C   0  0  0  0  0  3  0  0  0  0  0  0
  -27.4530  -30.8860   25.5170 N   0  0  0  0  0  0  0  0  0  0  0  0
  -28.0450  -32.0850   25.4890 C   0  0  0  0  0  0  0  0  0  0  0  0
  -28.6810  -32.5000   24.5160 O   0  0  0  0  0  0  0  0  0  0  0  0
  -26.9050  -30.6370   26.3280 H   0  0  0  0  0  0  0  0  0  0  0  0
  -26.8650  -34.0670   26.4920 C   0  0  0  0  0  1  0  0  0  0  0  0
  -27.9110  -32.9700   26.7440 C   0  0  0  0  0  3  0  0  0  0  0  0
  -30.1480  -32.6200   27.6940 C   0  0  0  0  0  1  0  0  0  0  0  0
  -29.1860  -33.5870   27.1690 N   0  0  0  0  0  0  0  0  0  0  0  0
  -29.0250  -34.2910   27.8850 H   0  0  0  0  0  0  0  0  0  0  0  0
  -27.8470  -28.5050   24.8290 C   0  0  1  0  0  0  0  0  0  0  0  0
  -26.8210  -27.8010   25.7500 C   0  0  0  0  0  1  0  0  0  0  0  0
  -28.0710  -27.6010   23.5940 C   0  0  0  0  0  1  0  0  0  0  0  0
  -29.1970  -28.5720   25.5810 C   0  0  0  0  0  1  0  0  0  0  0  0
  -30.4860  -22.1450   23.8550 C   0  0  0  0  0  2  0  0  0  0  0  0
  -30.8140  -20.7980   23.1790 C   0  0  0  0  0  2  0  0  0  0  0  0
  -30.3430  -20.7670   21.7140 C   0  0  0  0  0  2  0  0  0  0  0  0
  -30.1680  -19.3940   21.1860 N   0  0  0  0  0  4  0  0  0  0  0  0
  -29.6500  -18.8380   21.8490 H   0  0  0  0  0  0  0  0  0  0  0  0
  -31.0820  -18.9770   21.0890 H   0  0  0  0  0  0  0  0  0  0  0  0
  -27.9700  -19.4450   19.9620 C   0  0  0  0  0  1  0  0  0  0  0  0
  -29.5080  -19.3380   19.8550 C   0  0  0  0  0  3  0  0  0  0  0  0
  -29.9470  -18.1010   19.0180 C   0  0  0  0  0  3  0  0  0  0  0  0
  -31.9740  -19.1920   17.8300 C   0  0  0  0  0  1  0  0  0  0  0  0
  -32.3940  -17.8260   19.9140 C   0  0  0  0  0  1  0  0  0  0  0  0
  -31.4730  -18.0170   18.6930 C   0  0  0  0  0  3  0  0  0  0  0  0
  -29.3560  -16.7420   19.5190 C   0  0  0  0  0  2  0  0  0  0  0  0
  -30.1890  -15.4920   19.1540 C   0  0  0  0  0  0  0  0  0  0  0  0
  -30.5020  -13.0400   19.1570 C   0  0  0  0  0  2  0  0  0  0  0  0
  -29.6330  -12.3670   18.0780 C   0  0  0  0  0  2  0  0  0  0  0  0
  -28.2280  -12.0620   18.6310 C   0  0  0  0  0  2  0  0  0  0  0  0
  -27.5850  -13.2930   19.3210 C   0  0  0  0  0  3  0  0  0  0  0  0
  -28.5690  -13.9480   20.3170 C   0  0  0  0  0  2  0  0  0  0  0  0
  -29.8160  -14.2630   19.6000 N   0  0  0  0  0  0  0  0  0  0  0  0
  -31.1730  -15.6390   18.4230 O   0  0  0  0  0  0  0  0  0  0  0  0
  -25.2810  -13.7620   20.3720 C   0  0  0  0  0  0  0  0  0  0  0  0
  -24.3040  -12.9250   20.8440 C   0  0  0  0  0  0  0  0  0  0  0  0
  -24.8090  -11.5990   20.6870 C   0  0  0  0  0  0  0  0  0  0  0  0
  -26.3200  -12.9390   19.9630 N   0  0  0  0  0  0  0  0  0  0  0  0
  -26.0460  -11.6320   20.2060 N   0  0  0  0  0  0  0  0  0  0  0  0
  -24.1680  -10.2980   20.9130 C   0  0  0  0  0  0  0  0  0  0  0  0
  -24.5550   -9.4590   21.9810 C   0  0  0  0  0  3  0  0  0  0  0  0
  -23.9100   -8.2200   22.1880 C   0  0  0  0  0  3  0  0  0  0  0  0
  -22.8650   -7.8110   21.3270 C   0  0  0  0  0  0  0  0  0  0  0  0
  -22.4990   -8.6400   20.2510 C   0  0  0  0  0  3  0  0  0  0  0  0
  -23.1450   -9.8690   20.0430 C   0  0  0  0  0  3  0  0  0  0  0  0
  -22.2010   -6.6130   21.4350 O   0  0  0  0  0  0  0  0  0  0  0  0
  -21.8200   -6.1090   22.6520 C   0  0  0  0  0  0  0  0  0  0  0  0
  -20.9420   -6.8110   23.5070 C   0  0  0  0  0  3  0  0  0  0  0  0
  -20.5210   -6.2250   24.7180 C   0  0  0  0  0  3  0  0  0  0  0  0
  -20.9680   -4.9380   25.0720 C   0  0  0  0  0  0  0  0  0  0  0  0
  -21.8390   -4.2360   24.2190 C   0  0  0  0  0  3  0  0  0  0  0  0
  -22.2610   -4.8190   23.0120 C   0  0  0  0  0  0  0  0  0  0  0  0
  -23.0830   -4.1290   22.1840 F   0  0  0  0  0  0  0  0  0  0  0  0
  -20.5590   -4.3730   26.2310 F   0  0  0  0  0  0  0  0  0  0  0  0
  -22.9400  -13.3260   21.3250 C   0  0  0  0  0  0  0  0  0  0  0  0
  -22.3790  -12.5780   22.2690 N   0  0  0  0  0  0  0  0  0  0  0  0
  -22.3820  -14.3370   20.8990 O   0  0  0  0  0  0  0  0  0  0  0  0
  -22.8460  -11.7600   22.6330 H   0  0  0  0  0  0  0  0  0  0  0  0
  -21.4710  -12.8280   22.6360 H   0  0  0  0  0  0  0  0  0  0  0  0
  -25.3650  -15.1440   20.2400 N   0  0  0  0  0  0  0  0  0  0  0  0
  -24.5920  -15.7560   20.4760 H   0  0  0  0  0  0  0  0  0  0  0  0
  -26.1430  -15.6340   19.8160 H   0  0  0  0  0  0  0  0  0  0  0  0
  2  1  1  0
  2  3  1  0
  4  2  2  0
  5  4  1  0
  6  5  1  0
  7  6  1  0
  8  9  1  0
  8  7  1  0
  9 11  1  0
 10 21  2  0
 11 16  1  0
 12 22  1  0
 12 20  1  0
 13 15  1  0
 13 19  1  0
 14 20  1  0
 15 14  1  0
 16 15  2  0
 17 11  2  0
 17 18  1  0
 18 13  2  0
 19 12  1  0
 20 10  1  0
 22 24  2  0
 23 22  1  0
 25 23  1  0
 26 35  2  0
 26 31  1  0
 27 23  1  0
 27 31  1  0
 28 27  1  0
 29 30  1  0
 29 28  1  0
 30 26  1  0
 31 32  2  0
 32 33  1  0
 34 33  2  0
 35 34  1  0
 36 10  1  0
 36 46  1  0
 36 37  1  0
 37 40  1  0
 38 37  1  0
 38 42  1  0
 39 38  2  0
 42 41  1  0
 42 44  1  0
 44 43  1  0
 44 45  1  0
 46 49  1  1
 46 47  1  0
 48 46  1  0
 50  1  1  0
 51 50  1  0
 52 51  1  0
 53 52  1  0
 53 54  1  0
 55 53  1  0
 57 56  1  0
 57 53  1  0
 58 62  1  0
 58 57  1  0
 59 61  1  0
 61 58  1  0
 61 60  1  0
 63 62  1  0
 63 69  1  0
 64 69  1  0
 65 66  1  0
 65 64  1  0
 67 66  1  0
 67 74  1  0
 67 68  1  0
 69 68  1  0
 70 63  2  0
 71 72  2  0
 72 91  1  0
 73 72  1  0
 73 76  1  0
 74 75  1  0
 74 71  1  0
 75 73  2  0
 76 77  1  0
 77 78  2  0
 79 82  1  0
 79 78  1  0
 80 79  2  0
 81 80  1  0
 81 76  2  0
 82 83  1  0
 83 88  2  0
 83 84  1  0
 84 85  2  0
 85 86  1  0
 86 90  1  0
 87 86  2  0
 88 87  1  0
 89 88  1  0
 91 92  1  0
 92 94  1  0
 92 95  1  0
 93 91  2  0
 96 71  1  0
 96 97  1  0
 98 96  1  0
M  ISO  4   8 101   9 101  62 100  63 100
M  END
>  <TORSDO>  (75) 
F 29

>  <SCORE>  (75) 
-6.526

>  <name>  (75) 
75

>  <ligand_id>  (75) 
75

>  <original_smiles>  (75) 
[H]c1c([H])c([H])c2c(c1[H])C([H])([H])C([H])([H])C([H])([H])C2([H])N([H])C(=O)C1([H])N(C(=O)C([H])(N([H])C(=O)C([H])(N([H])C([H])([H])[H])C([H])([H])[H])C(C([H])([H])[H])(C([H])([H])[H])C([H])([H])[H])C([H])([H])c2c([H])c(OC([H])([H])C([H])([H])C([H])([H])C([H])([H])N=C(C([H])([H])[H])C([H])([H])C([H])([H])C([H])([H])C([H])([H])[N+]([H])([H])C([H])(C([H])([H])[H])C([H])(C([H])([H])C(=O)N3C([H])([H])C([H])([H])C([H])([H])C([H])(n4nc(-c5c([H])c([H])c(Oc6c([H])c([H])c(F)c([H])c6F)c([H])c5[H])c(C(=O)N([H])[H])c4N([H])[H])C3([H])[H])C([H])(C([H])([H])[H])C([H])([H])[H])c([H])c([H])c2C1([H])[H]

>  <smiles>  (75) 
[H]c1c([H])c([H])c2c(c1[H])C([H])([H])C([H])([H])C([H])([H])C2([H])N([H])C(=O)C1([H])N(C(=O)C([H])(N([H])C(=O)C([H])(N([H])C([H])([H])[H])C([H])([H])[H])C(C([H])([H])[H])(C([H])([H])[H])C([H])([H])[H])C([H])([H])c2c([H])c(OC([H])([H])C([H])([H])C([H])([H])C([H])([H])N=C(C([H])([H])[H])C([H])([H])C([H])([H])C([H])([H])C([H])([H])[N+]([H])([H])C([H])(C([H])([H])[H])C([H])(C([H])([H])C(=O)N3C([H])([H])C([H])([H])C([H])([H])C([H])(n4nc(-c5c([H])c([H])c(Oc6c([H])c([H])c(F)c([H])c6F)c([H])c5[H])c(C(=O)N([H])[H])c4N([H])[H])C3([H])[H])C([H])(C([H])([H])[H])C([H])([H])[H])c([H])c([H])c2C1([H])[H]

$$$$
76:0:0
     RDKit          3D

 86 94  0  0  1  0  0  0  0  0999 V2000
  -29.3860  -21.6170   20.6590 C   0  0  0  0  0  0  0  0  0  0  0  0
  -29.0450  -23.0620   20.5630 C   0  0  0  0  0  3  0  0  0  0  0  0
  -30.6930  -21.3810   21.4320 C   0  0  0  0  0  2  0  0  0  0  0  0
  -28.8430  -20.0120   20.3710 C   0  0  0  0  0  2  0  0  0  0  0  0
  -31.6080  -20.2760   20.8660 C   0  0  0  0  0  2  0  0  0  0  0  0
  -31.0860  -18.8500   21.1320 C   0  0  0  0  0  2  0  0  0  0  0  0
  -29.8390  -18.5220   20.3040 C   0  0  0  0  0  3  0  0  0  0  0  0
  -27.9630  -24.3240   20.1270 C   0  0  0  0  0  2  0  0  0  0  0  0
  -28.1940  -25.9350   20.3360 O   0  0  0  0  0  0  0  0  0  0  0  0
  -24.6360  -31.8870   23.2540 C   0  0  0  0  0  0  0  0  0  0  0  0
  -27.1800  -27.0170   20.2540 C   0  0  0  0  0  0  0  0  0  0  0  0
  -23.4370  -30.4920   21.6160 C   0  0  0  0  0  3  0  0  0  0  0  0
  -24.8800  -28.8820   20.1980 C   0  0  0  0  0  0  0  0  0  0  0  0
  -26.0020  -30.7030   21.4670 C   0  0  0  0  0  2  0  0  0  0  0  0
  -26.0680  -29.2930   20.8160 C   0  0  0  0  0  0  0  0  0  0  0  0
  -27.2130  -28.3810   20.8200 C   0  0  0  0  0  3  0  0  0  0  0  0
  -25.9640  -26.7490   19.5870 C   0  0  0  0  0  3  0  0  0  0  0  0
  -24.8520  -27.6280   19.5650 C   0  0  0  0  0  3  0  0  0  0  0  0
  -23.6620  -29.8020   20.2420 C   0  0  0  0  0  2  0  0  0  0  0  0
  -24.7130  -31.0540   22.1660 N   0  0  0  0  0  0  0  0  0  0  0  0
  -23.5480  -32.1810   23.7730 O   0  0  0  0  0  0  0  0  0  0  0  0
  -22.7400  -29.5000   22.5840 C   0  0  0  0  0  0  0  0  0  0  0  0
  -21.4110  -29.3350   22.4540 N   0  0  0  0  0  0  0  0  0  0  0  0
  -23.4030  -28.8780   23.4160 O   0  0  0  0  0  0  0  0  0  0  0  0
  -20.9300  -29.8870   21.7580 H   0  0  0  0  0  0  0  0  0  0  0  0
  -18.0270  -28.1260   22.9510 C   0  0  0  0  0  0  0  0  0  0  0  0
  -20.5850  -28.4000   23.2260 C   0  0  0  0  0  3  0  0  0  0  0  0
  -20.6910  -26.9640   22.6610 C   0  0  0  0  0  2  0  0  0  0  0  0
  -19.5950  -26.6330   21.6430 C   0  0  0  0  0  2  0  0  0  0  0  0
  -18.2110  -26.7750   22.2800 C   0  0  0  0  0  2  0  0  0  0  0  0
  -19.1420  -28.8960   23.3810 C   0  0  0  0  0  0  0  0  0  0  0  0
  -18.9130  -30.1580   23.9710 C   0  0  0  0  0  3  0  0  0  0  0  0
  -17.6040  -30.6520   24.1330 C   0  0  0  0  0  3  0  0  0  0  0  0
  -16.5050  -29.8800   23.7180 C   0  0  0  0  0  3  0  0  0  0  0  0
  -16.7180  -28.6190   23.1330 C   0  0  0  0  0  3  0  0  0  0  0  0
  -25.9090  -32.5250   23.8850 C   0  0  0  0  0  3  0  0  0  0  0  0
  -25.5990  -33.9290   24.2120 N   0  0  0  0  0  0  0  0  0  0  0  0
  -25.9210  -34.9830   23.4520 C   0  0  0  0  0  0  0  0  0  0  0  0
  -26.5740  -34.8790   22.4100 O   0  0  0  0  0  0  0  0  0  0  0  0
  -25.0160  -34.0830   25.0210 H   0  0  0  0  0  0  0  0  0  0  0  0
  -24.1830  -36.7790   23.1430 C   0  0  0  0  0  1  0  0  0  0  0  0
  -25.4460  -36.3750   23.9180 C   0  0  0  0  0  3  0  0  0  0  0  0
  -27.6000  -37.2710   24.6860 C   0  0  0  0  0  1  0  0  0  0  0  0
  -26.4740  -37.4290   23.7720 N   0  0  0  0  0  0  0  0  0  0  0  0
  -26.0700  -38.3490   23.9220 H   0  0  0  0  0  0  0  0  0  0  0  0
  -26.4070  -31.7660   25.1780 C   0  0  1  0  0  0  0  0  0  0  0  0
  -25.3000  -31.5510   26.2390 C   0  0  0  0  0  1  0  0  0  0  0  0
  -26.9840  -30.3790   24.8160 C   0  0  0  0  0  1  0  0  0  0  0  0
  -27.5550  -32.5610   25.8430 C   0  0  0  0  0  1  0  0  0  0  0  0
  -29.4670  -16.7800   20.5310 C   0  0  0  0  0  2  0  0  0  0  0  0
  -30.3410  -15.2810   20.2860 C   0  0  0  0  0  0  0  0  0  0  0  0
  -30.3350  -12.8530   19.3730 C   0  0  0  0  0  2  0  0  0  0  0  0
  -29.3950  -12.7090   18.1480 C   0  0  0  0  0  2  0  0  0  0  0  0
  -27.9460  -12.4380   18.5930 C   0  0  0  0  0  2  0  0  0  0  0  0
  -27.5170  -13.3760   19.7480 C   0  0  0  0  0  3  0  0  0  0  0  0
  -28.5770  -13.4700   20.8650 C   0  0  0  0  0  2  0  0  0  0  0  0
  -29.8200  -13.9610   20.2530 N   0  0  0  0  0  0  0  0  0  0  0  0
  -31.5470  -15.3190   19.9950 O   0  0  0  0  0  0  0  0  0  0  0  0
  -25.1540  -13.9300   20.5330 C   0  0  0  0  0  0  0  0  0  0  0  0
  -24.0970  -13.1480   20.9070 C   0  0  0  0  0  0  0  0  0  0  0  0
  -24.5640  -11.7990   20.8600 C   0  0  0  0  0  0  0  0  0  0  0  0
  -26.1940  -13.0570   20.2680 N   0  0  0  0  0  0  0  0  0  0  0  0
  -25.8520  -11.7690   20.5340 N   0  0  0  0  0  0  0  0  0  0  0  0
  -23.8400  -10.5340   21.0480 C   0  0  0  0  0  0  0  0  0  0  0  0
  -24.2770   -9.5620   21.9740 C   0  0  0  0  0  3  0  0  0  0  0  0
  -23.5520   -8.3640   22.1500 C   0  0  0  0  0  3  0  0  0  0  0  0
  -22.3740   -8.1300   21.4020 C   0  0  0  0  0  0  0  0  0  0  0  0
  -21.9550   -9.0910   20.4640 C   0  0  0  0  0  3  0  0  0  0  0  0
  -22.6810  -10.2800   20.2860 C   0  0  0  0  0  3  0  0  0  0  0  0
  -21.6200   -6.9850   21.4890 O   0  0  0  0  0  0  0  0  0  0  0  0
  -21.5720   -6.2400   22.6400 C   0  0  0  0  0  0  0  0  0  0  0  0
  -21.1330   -6.7880   23.8640 C   0  0  0  0  0  3  0  0  0  0  0  0
  -21.0340   -5.9690   25.0070 C   0  0  0  0  0  3  0  0  0  0  0  0
  -21.3620   -4.6020   24.9250 C   0  0  0  0  0  0  0  0  0  0  0  0
  -21.7930   -4.0530   23.7050 C   0  0  0  0  0  3  0  0  0  0  0  0
  -21.8940   -4.8700   22.5640 C   0  0  0  0  0  0  0  0  0  0  0  0
  -22.2910   -4.3320   21.3860 F   0  0  0  0  0  0  0  0  0  0  0  0
  -21.2590   -3.8130   26.0200 F   0  0  0  0  0  0  0  0  0  0  0  0
  -22.7020  -13.6220   21.1930 C   0  0  0  0  0  0  0  0  0  0  0  0
  -21.9840  -12.9220   22.0660 N   0  0  0  0  0  0  0  0  0  0  0  0
  -22.2580  -14.6480   20.6790 O   0  0  0  0  0  0  0  0  0  0  0  0
  -22.3570  -12.0930   22.5030 H   0  0  0  0  0  0  0  0  0  0  0  0
  -21.0470  -13.2200   22.3000 H   0  0  0  0  0  0  0  0  0  0  0  0
  -25.3130  -15.3020   20.3690 N   0  0  0  0  0  0  0  0  0  0  0  0
  -24.5500  -15.9570   20.5050 H   0  0  0  0  0  0  0  0  0  0  0  0
  -26.1640  -15.7470   20.0450 H   0  0  0  0  0  0  0  0  0  0  0  0
  1  3  1  0
  2  1  2  0
  4  1  1  0
  5  6  1  0
  5  3  1  0
  7  4  1  0
  7 50  1  0
  7  6  1  0
  8  9  1  0
  8  2  1  0
 10 21  2  0
 11  9  1  0
 11 16  1  0
 12 20  1  0
 12 22  1  0
 13 19  1  0
 13 15  1  0
 14 20  1  0
 15 16  2  0
 15 14  1  0
 17 11  2  0
 18 17  1  0
 18 13  2  0
 19 12  1  0
 20 10  1  0
 22 24  2  0
 23 22  1  0
 25 23  1  0
 26 35  2  0
 26 31  1  0
 27 23  1  0
 27 31  1  0
 28 27  1  0
 29 30  1  0
 29 28  1  0
 30 26  1  0
 31 32  2  0
 32 33  1  0
 34 33  2  0
 35 34  1  0
 36 10  1  0
 36 37  1  0
 36 46  1  0
 37 40  1  0
 38 42  1  0
 38 37  1  0
 39 38  2  0
 42 41  1  0
 44 42  1  0
 44 45  1  0
 44 43  1  0
 46 49  1  1
 46 47  1  0
 48 46  1  0
 51 50  1  0
 52 57  1  0
 53 54  1  0
 53 52  1  0
 55 54  1  0
 55 62  1  0
 55 56  1  0
 57 51  1  0
 57 56  1  0
 58 51  2  0
 59 60  2  0
 60 79  1  0
 61 60  1  0
 61 64  1  0
 62 59  1  0
 62 63  1  0
 63 61  2  0
 64 65  1  0
 65 66  2  0
 67 70  1  0
 67 66  1  0
 68 67  2  0
 69 68  1  0
 69 64  2  0
 70 71  1  0
 71 72  1  0
 72 73  2  0
 74 73  1  0
 74 78  1  0
 75 74  2  0
 76 71  2  0
 76 75  1  0
 77 76  1  0
 79 80  1  0
 80 83  1  0
 80 82  1  0
 81 79  2  0
 84 85  1  0
 84 59  1  0
 86 84  1  0
M  ISO  4   8 101   9 101  50 100  51 100
M  END
>  <TORSDO>  (76) 
F 18

>  <SCORE>  (76) 
-16.240

>  <name>  (76) 
76

>  <ligand_id>  (76) 
76

>  <original_smiles>  (76) 
[H]C(=C1C([H])([H])C([H])([H])C([H])([H])C([H])(C([H])([H])C(=O)N2C([H])([H])C([H])([H])C([H])([H])C([H])(n3nc(-c4c([H])c([H])c(Oc5c([H])c([H])c(F)c([H])c5F)c([H])c4[H])c(C(=O)N([H])[H])c3N([H])[H])C2([H])[H])C1([H])[H])C([H])([H])Oc1c([H])c([H])c2c(c1[H])C([H])([H])N(C(=O)C([H])(N([H])C(=O)C([H])(N([H])C([H])([H])[H])C([H])([H])[H])C(C([H])([H])[H])(C([H])([H])[H])C([H])([H])[H])C([H])(C(=O)N([H])C1([H])c3c([H])c([H])c([H])c([H])c3C([H])([H])C([H])([H])C1([H])[H])C2([H])[H]

>  <smiles>  (76) 
[H]C(=C1C([H])([H])C([H])([H])C([H])([H])C([H])(C([H])([H])C(=O)N2C([H])([H])C([H])([H])C([H])([H])C([H])(n3nc(-c4c([H])c([H])c(Oc5c([H])c([H])c(F)c([H])c5F)c([H])c4[H])c(C(=O)N([H])[H])c3N([H])[H])C2([H])[H])C1([H])[H])C([H])([H])Oc1c([H])c([H])c2c(c1[H])C([H])([H])N(C(=O)C([H])(N([H])C(=O)C([H])(N([H])C([H])([H])[H])C([H])([H])[H])C(C([H])([H])[H])(C([H])([H])[H])C([H])([H])[H])C([H])(C(=O)N([H])C1([H])c3c([H])c([H])c([H])c([H])c3C([H])([H])C([H])([H])C1([H])[H])C2([H])[H]

$$$$
77:0:0
     RDKit          3D

 89 97  0  0  1  0  0  0  0  0999 V2000
  -29.5220  -20.6300   20.0520 C   0  0  0  0  0  0  0  0  0  0  0  0
  -30.3980  -21.0390   18.8900 C   0  0  0  0  0  1  0  0  0  0  0  0
  -29.3550  -19.3260   20.4020 N   0  0  0  0  0  0  0  0  0  0  0  0
  -29.0550  -22.0310   20.8280 C   0  0  0  0  0  2  0  0  0  0  0  0
  -28.1000  -23.2940   20.2480 C   0  0  0  0  0  2  0  0  0  0  0  0
  -28.4580  -24.8930   19.8150 C   0  0  0  0  0  2  0  0  0  0  0  0
  -28.2890  -26.2940   20.4780 O   0  0  0  0  0  0  0  0  0  0  0  0
  -24.6360  -32.0030   23.3010 C   0  0  0  0  0  0  0  0  0  0  0  0
  -27.2180  -27.2470   20.3300 C   0  0  0  0  0  0  0  0  0  0  0  0
  -23.4420  -30.5930   21.6700 C   0  0  0  0  0  3  0  0  0  0  0  0
  -24.8900  -28.9980   20.2610 C   0  0  0  0  0  0  0  0  0  0  0  0
  -25.9950  -30.8510   21.5140 C   0  0  0  0  0  2  0  0  0  0  0  0
  -26.0630  -29.4480   20.8790 C   0  0  0  0  0  0  0  0  0  0  0  0
  -27.2200  -28.5850   20.9000 C   0  0  0  0  0  3  0  0  0  0  0  0
  -26.0210  -26.8910   19.6740 C   0  0  0  0  0  3  0  0  0  0  0  0
  -24.8830  -27.7320   19.6460 C   0  0  0  0  0  3  0  0  0  0  0  0
  -23.6680  -29.9020   20.2960 C   0  0  0  0  0  2  0  0  0  0  0  0
  -24.7110  -31.1730   22.2160 N   0  0  0  0  0  0  0  0  0  0  0  0
  -23.5470  -32.2940   23.8200 O   0  0  0  0  0  0  0  0  0  0  0  0
  -22.7570  -29.5980   22.6410 C   0  0  0  0  0  0  0  0  0  0  0  0
  -21.4350  -29.4130   22.4940 N   0  0  0  0  0  0  0  0  0  0  0  0
  -23.4200  -28.9940   23.4890 O   0  0  0  0  0  0  0  0  0  0  0  0
  -20.9540  -29.9550   21.7890 H   0  0  0  0  0  0  0  0  0  0  0  0
  -18.0560  -28.1850   22.9500 C   0  0  0  0  0  0  0  0  0  0  0  0
  -20.6060  -28.4840   23.2670 C   0  0  0  0  0  3  0  0  0  0  0  0
  -20.7360  -27.0390   22.7290 C   0  0  0  0  0  2  0  0  0  0  0  0
  -19.6620  -26.6810   21.6980 C   0  0  0  0  0  2  0  0  0  0  0  0
  -18.2640  -26.8230   22.3050 C   0  0  0  0  0  2  0  0  0  0  0  0
  -19.1560  -28.9690   23.3860 C   0  0  0  0  0  0  0  0  0  0  0  0
  -18.9070  -30.2420   23.9460 C   0  0  0  0  0  3  0  0  0  0  0  0
  -17.5910  -30.7270   24.0770 C   0  0  0  0  0  3  0  0  0  0  0  0
  -16.5070  -29.9370   23.6560 C   0  0  0  0  0  3  0  0  0  0  0  0
  -16.7400  -28.6690   23.0960 C   0  0  0  0  0  3  0  0  0  0  0  0
  -25.9110  -32.6460   23.9310 C   0  0  0  0  0  3  0  0  0  0  0  0
  -25.5940  -34.0420   24.2660 N   0  0  0  0  0  0  0  0  0  0  0  0
  -25.9180  -35.1020   23.5120 C   0  0  0  0  0  0  0  0  0  0  0  0
  -26.5860  -35.0060   22.4790 O   0  0  0  0  0  0  0  0  0  0  0  0
  -25.0090  -34.1930   25.0750 H   0  0  0  0  0  0  0  0  0  0  0  0
  -24.1770  -36.8870   23.1840 C   0  0  0  0  0  1  0  0  0  0  0  0
  -25.4300  -36.4870   23.9800 C   0  0  0  0  0  3  0  0  0  0  0  0
  -27.5690  -37.3820   24.7890 C   0  0  0  0  0  1  0  0  0  0  0  0
  -26.4540  -37.5470   23.8590 N   0  0  0  0  0  0  0  0  0  0  0  0
  -26.0420  -38.4630   24.0190 H   0  0  0  0  0  0  0  0  0  0  0  0
  -26.4230  -31.8820   25.2130 C   0  0  1  0  0  0  0  0  0  0  0  0
  -25.3260  -31.6290   26.2750 C   0  0  0  0  0  1  0  0  0  0  0  0
  -27.0320  -30.5140   24.8270 C   0  0  0  0  0  1  0  0  0  0  0  0
  -27.5570  -32.6920   25.8870 C   0  0  0  0  0  1  0  0  0  0  0  0
  -29.9410  -17.9950   19.7430 C   0  0  0  0  0  3  0  0  0  0  0  0
  -29.8480  -16.5150   20.5570 C   0  0  0  0  0  2  0  0  0  0  0  0
  -30.5440  -15.0720   20.0880 C   0  0  0  0  0  0  0  0  0  0  0  0
  -30.3830  -12.7270   19.1250 C   0  0  0  0  0  2  0  0  0  0  0  0
  -29.4170  -12.7150   17.9190 C   0  0  0  0  0  2  0  0  0  0  0  0
  -27.9700  -12.4880   18.3900 C   0  0  0  0  0  2  0  0  0  0  0  0
  -27.6000  -13.3880   19.5970 C   0  0  0  0  0  3  0  0  0  0  0  0
  -28.6910  -13.3850   20.6880 C   0  0  0  0  0  2  0  0  0  0  0  0
  -29.9500  -13.8030   20.0590 N   0  0  0  0  0  0  0  0  0  0  0  0
  -31.7060  -15.1210   19.6710 O   0  0  0  0  0  0  0  0  0  0  0  0
  -25.2400  -13.9240   20.4310 C   0  0  0  0  0  0  0  0  0  0  0  0
  -24.2000  -13.1310   20.8240 C   0  0  0  0  0  0  0  0  0  0  0  0
  -24.6770  -11.7870   20.7570 C   0  0  0  0  0  0  0  0  0  0  0  0
  -26.2850  -13.0640   20.1370 N   0  0  0  0  0  0  0  0  0  0  0  0
  -25.9570  -11.7730   20.4040 N   0  0  0  0  0  0  0  0  0  0  0  0
  -23.9720  -10.5130   20.9540 C   0  0  0  0  0  0  0  0  0  0  0  0
  -24.4220   -9.5580   21.8910 C   0  0  0  0  0  3  0  0  0  0  0  0
  -23.7170   -8.3500   22.0750 C   0  0  0  0  0  3  0  0  0  0  0  0
  -22.5480   -8.0870   21.3240 C   0  0  0  0  0  0  0  0  0  0  0  0
  -22.1200   -9.0290   20.3740 C   0  0  0  0  0  3  0  0  0  0  0  0
  -22.8240  -10.2300   20.1870 C   0  0  0  0  0  3  0  0  0  0  0  0
  -21.8130   -6.9290   21.4160 O   0  0  0  0  0  0  0  0  0  0  0  0
  -21.7430   -6.2140   22.5850 C   0  0  0  0  0  0  0  0  0  0  0  0
  -21.2660   -6.7880   23.7840 C   0  0  0  0  0  3  0  0  0  0  0  0
  -21.1430   -5.9980   24.9430 C   0  0  0  0  0  3  0  0  0  0  0  0
  -21.4890   -4.6330   24.9060 C   0  0  0  0  0  0  0  0  0  0  0  0
  -21.9590   -4.0590   23.7120 C   0  0  0  0  0  3  0  0  0  0  0  0
  -22.0840   -4.8470   22.5550 C   0  0  0  0  0  0  0  0  0  0  0  0
  -22.5180   -4.2840   21.4020 F   0  0  0  0  0  0  0  0  0  0  0  0
  -21.3650   -3.8710   26.0180 F   0  0  0  0  0  0  0  0  0  0  0  0
  -22.8080  -13.5860   21.1490 C   0  0  0  0  0  0  0  0  0  0  0  0
  -22.1180  -12.8700   22.0280 N   0  0  0  0  0  0  0  0  0  0  0  0
  -22.3430  -14.6150   20.6570 O   0  0  0  0  0  0  0  0  0  0  0  0
  -22.5080  -12.0410   22.4520 H   0  0  0  0  0  0  0  0  0  0  0  0
  -21.1840  -13.1580   22.2840 H   0  0  0  0  0  0  0  0  0  0  0  0
  -25.3850  -15.3000   20.2710 N   0  0  0  0  0  0  0  0  0  0  0  0
  -24.6210  -15.9460   20.4370 H   0  0  0  0  0  0  0  0  0  0  0  0
  -26.2270  -15.7540   19.9430 H   0  0  0  0  0  0  0  0  0  0  0  0
  -29.2680  -17.7290   18.3670 C   0  0  0  0  0  2  0  0  0  0  0  0
  -28.9990  -18.3500   15.8710 C   0  0  0  0  0  2  0  0  0  0  0  0
  -29.0600  -19.6900   16.5540 C   0  0  0  0  0  2  0  0  0  0  0  0
  -29.7770  -18.4980   17.1580 C   0  0  0  0  0  3  0  0  0  0  0  0
  1  3  2  0
  1  4  1  0
  2  1  1  0
  5  4  1  0
  6  5  1  0
  6  7  1  0
  8 19  2  0
  9  7  1  0
  9 14  1  0
 10 18  1  0
 10 20  1  0
 11 17  1  0
 11 13  1  0
 12 18  1  0
 13 14  2  0
 13 12  1  0
 15  9  2  0
 16 15  1  0
 16 11  2  0
 17 10  1  0
 18  8  1  0
 20 22  2  0
 21 20  1  0
 23 21  1  0
 24 33  2  0
 24 29  1  0
 25 21  1  0
 25 29  1  0
 26 25  1  0
 27 28  1  0
 27 26  1  0
 28 24  1  0
 29 30  2  0
 30 31  1  0
 32 31  2  0
 33 32  1  0
 34  8  1  0
 34 35  1  0
 34 44  1  0
 35 38  1  0
 36 40  1  0
 36 35  1  0
 37 36  2  0
 40 39  1  0
 42 40  1  0
 42 43  1  0
 42 41  1  0
 44 47  1  1
 44 45  1  0
 46 44  1  0
 48 86  1  0
 48  3  1  0
 48 49  1  0
 50 49  1  0
 51 56  1  0
 52 53  1  0
 52 51  1  0
 54 53  1  0
 54 61  1  0
 54 55  1  0
 56 50  1  0
 56 55  1  0
 57 50  2  0
 58 59  2  0
 59 78  1  0
 60 59  1  0
 60 63  1  0
 61 62  1  0
 61 58  1  0
 62 60  2  0
 63 64  1  0
 64 65  2  0
 66 69  1  0
 66 65  1  0
 67 66  2  0
 68 67  1  0
 68 63  2  0
 69 70  1  0
 70 71  1  0
 71 72  2  0
 73 72  1  0
 73 77  1  0
 74 73  2  0
 75 70  2  0
 75 74  1  0
 76 75  1  0
 78 79  1  0
 79 82  1  0
 79 81  1  0
 80 78  2  0
 83 58  1  0
 83 84  1  0
 85 83  1  0
 87 88  1  0
 87 89  1  0
 88 89  1  0
 89 86  1  0
M  ISO  4   6 101   7 101  49 100  50 100
M  END
>  <TORSDO>  (77) 
F 23

>  <SCORE>  (77) 
-13.205

>  <name>  (77) 
77

>  <ligand_id>  (77) 
77

>  <original_smiles>  (77) 
[H]c1c([H])c([H])c2c(c1[H])C([H])([H])C([H])([H])C([H])([H])C2([H])N([H])C(=O)C1([H])N(C(=O)C([H])(N([H])C(=O)C([H])(N([H])C([H])([H])[H])C([H])([H])[H])C(C([H])([H])[H])(C([H])([H])[H])C([H])([H])[H])C([H])([H])c2c([H])c(OC([H])([H])C([H])([H])C([H])([H])C(=NC([H])(C([H])([H])C(=O)N3C([H])([H])C([H])([H])C([H])([H])C([H])(n4nc(-c5c([H])c([H])c(Oc6c([H])c([H])c(F)c([H])c6F)c([H])c5[H])c(C(=O)N([H])[H])c4N([H])[H])C3([H])[H])C([H])([H])C3([H])C([H])([H])C3([H])[H])C([H])([H])[H])c([H])c([H])c2C1([H])[H]

>  <smiles>  (77) 
[H]c1c([H])c([H])c2c(c1[H])C([H])([H])C([H])([H])C([H])([H])C2([H])N([H])C(=O)C1([H])N(C(=O)C([H])(N([H])C(=O)C([H])(N([H])C([H])([H])[H])C([H])([H])[H])C(C([H])([H])[H])(C([H])([H])[H])C([H])([H])[H])C([H])([H])c2c([H])c(OC([H])([H])C([H])([H])C([H])([H])C(=NC([H])(C([H])([H])C(=O)N3C([H])([H])C([H])([H])C([H])([H])C([H])(n4nc(-c5c([H])c([H])c(Oc6c([H])c([H])c(F)c([H])c6F)c([H])c5[H])c(C(=O)N([H])[H])c4N([H])[H])C3([H])[H])C([H])([H])C3([H])C([H])([H])C3([H])[H])C([H])([H])[H])c([H])c([H])c2C1([H])[H]

$$$$
78:0:0
     RDKit          3D

 90 99  0  0  1  0  0  0  0  0999 V2000
  -29.4300  -20.5290   20.5030 C   0  0  0  0  0  0  0  0  0  0  0  0
  -29.1400  -18.7680   16.5540 C   0  0  0  0  0  2  0  0  0  0  0  0
  -29.6660  -17.5460   17.3180 C   0  0  0  0  0  2  0  0  0  0  0  0
  -28.7090  -19.7900   17.6200 C   0  0  0  0  0  2  0  0  0  0  0  0
  -29.0120  -17.6250   18.6860 C   0  0  0  0  0  3  0  0  0  0  0  0
  -28.3210  -18.9670   18.8550 C   0  0  0  0  0  3  0  0  0  0  0  0
  -29.8560  -17.8210   19.9560 C   0  0  0  0  0  3  0  0  0  0  0  0
  -29.0380  -19.1470   20.1210 N   0  0  0  0  0  0  0  0  0  0  0  0
  -30.5410  -20.6990   21.0050 O   0  0  0  0  0  0  0  0  0  0  0  0
  -29.8320  -16.4170   20.8540 C   0  0  0  0  0  2  0  0  0  0  0  0
  -30.5850  -15.0170   20.3910 C   0  0  0  0  0  0  0  0  0  0  0  0
  -30.4760  -12.6990   19.3790 C   0  0  0  0  0  2  0  0  0  0  0  0
  -29.5530  -12.7300   18.1380 C   0  0  0  0  0  2  0  0  0  0  0  0
  -28.0820  -12.5160   18.5450 C   0  0  0  0  0  2  0  0  0  0  0  0
  -27.6740  -13.3900   19.7580 C   0  0  0  0  0  3  0  0  0  0  0  0
  -28.7180  -13.3380   20.8920 C   0  0  0  0  0  2  0  0  0  0  0  0
  -30.0070  -13.7530   20.3240 N   0  0  0  0  0  0  0  0  0  0  0  0
  -31.7600  -15.1020   20.0130 O   0  0  0  0  0  0  0  0  0  0  0  0
  -25.2700  -13.9400   20.4470 C   0  0  0  0  0  0  0  0  0  0  0  0
  -24.2120  -13.1520   20.8090 C   0  0  0  0  0  0  0  0  0  0  0  0
  -24.6980  -11.8090   20.8020 C   0  0  0  0  0  0  0  0  0  0  0  0
  -26.3300  -13.0760   20.2350 N   0  0  0  0  0  0  0  0  0  0  0  0
  -25.9950  -11.7900   20.5110 N   0  0  0  0  0  0  0  0  0  0  0  0
  -23.9880  -10.5370   20.9950 C   0  0  0  0  0  0  0  0  0  0  0  0
  -24.4190   -9.5870   21.9490 C   0  0  0  0  0  3  0  0  0  0  0  0
  -23.7070   -8.3830   22.1320 C   0  0  0  0  0  3  0  0  0  0  0  0
  -22.5480   -8.1190   21.3620 C   0  0  0  0  0  0  0  0  0  0  0  0
  -22.1370   -9.0570   20.3990 C   0  0  0  0  0  3  0  0  0  0  0  0
  -22.8500  -10.2530   20.2140 C   0  0  0  0  0  3  0  0  0  0  0  0
  -21.8110   -6.9640   21.4520 O   0  0  0  0  0  0  0  0  0  0  0  0
  -21.7520   -6.2340   22.6120 C   0  0  0  0  0  0  0  0  0  0  0  0
  -21.2960   -6.7980   23.8240 C   0  0  0  0  0  3  0  0  0  0  0  0
  -21.1860   -5.9930   24.9770 C   0  0  0  0  0  3  0  0  0  0  0  0
  -21.5220   -4.6280   24.9190 C   0  0  0  0  0  0  0  0  0  0  0  0
  -21.9700   -4.0630   23.7100 C   0  0  0  0  0  3  0  0  0  0  0  0
  -22.0820   -4.8640   22.5600 C   0  0  0  0  0  0  0  0  0  0  0  0
  -22.4940   -4.3110   21.3940 F   0  0  0  0  0  0  0  0  0  0  0  0
  -21.4090   -3.8540   26.0230 F   0  0  0  0  0  0  0  0  0  0  0  0
  -22.8040  -13.6100   21.0520 C   0  0  0  0  0  0  0  0  0  0  0  0
  -22.0730  -12.9150   21.9160 N   0  0  0  0  0  0  0  0  0  0  0  0
  -22.3580  -14.6220   20.5100 O   0  0  0  0  0  0  0  0  0  0  0  0
  -22.4460  -12.1000   22.3790 H   0  0  0  0  0  0  0  0  0  0  0  0
  -21.1270  -13.2050   22.1190 H   0  0  0  0  0  0  0  0  0  0  0  0
  -25.4140  -15.3110   20.2570 N   0  0  0  0  0  0  0  0  0  0  0  0
  -24.6360  -15.9540   20.3550 H   0  0  0  0  0  0  0  0  0  0  0  0
  -26.2640  -15.7660   19.9510 H   0  0  0  0  0  0  0  0  0  0  0  0
  -28.5000  -21.8690   20.2270 C   0  0  0  0  0  2  0  0  0  0  0  0
  -28.9300  -23.4680   20.5040 C   0  0  0  0  0  3  0  0  0  0  0  0
  -27.9460  -24.7790   20.1480 C   0  0  0  0  0  3  0  0  0  0  0  0
  -28.2290  -26.2920   20.3460 O   0  0  0  0  0  0  0  0  0  0  0  0
  -24.6110  -32.0010   23.2460 C   0  0  0  0  0  0  0  0  0  0  0  0
  -27.1740  -27.2670   20.2600 C   0  0  0  0  0  0  0  0  0  0  0  0
  -23.4050  -30.5910   21.6220 C   0  0  0  0  0  3  0  0  0  0  0  0
  -24.8460  -29.0030   20.2110 C   0  0  0  0  0  0  0  0  0  0  0  0
  -25.9580  -30.8540   21.4510 C   0  0  0  0  0  2  0  0  0  0  0  0
  -26.0270  -29.4560   20.8150 C   0  0  0  0  0  0  0  0  0  0  0  0
  -27.1910  -28.6020   20.8240 C   0  0  0  0  0  3  0  0  0  0  0  0
  -25.9680  -26.9120   19.6140 C   0  0  0  0  0  3  0  0  0  0  0  0
  -24.8300  -27.7440   19.5950 C   0  0  0  0  0  3  0  0  0  0  0  0
  -23.6220  -29.9010   20.2500 C   0  0  0  0  0  2  0  0  0  0  0  0
  -24.6780  -31.1710   22.1610 N   0  0  0  0  0  0  0  0  0  0  0  0
  -23.5260  -32.2930   23.7720 O   0  0  0  0  0  0  0  0  0  0  0  0
  -22.7250  -29.5950   22.5940 C   0  0  0  0  0  0  0  0  0  0  0  0
  -21.3980  -29.4220   22.4660 N   0  0  0  0  0  0  0  0  0  0  0  0
  -23.3950  -28.9790   23.4280 O   0  0  0  0  0  0  0  0  0  0  0  0
  -20.9150  -29.9710   21.7670 H   0  0  0  0  0  0  0  0  0  0  0  0
  -18.0130  -28.2370   22.9770 C   0  0  0  0  0  0  0  0  0  0  0  0
  -20.5720  -28.4960   23.2460 C   0  0  0  0  0  3  0  0  0  0  0  0
  -20.6720  -27.0570   22.6890 C   0  0  0  0  0  2  0  0  0  0  0  0
  -19.5720  -26.7240   21.6770 C   0  0  0  0  0  2  0  0  0  0  0  0
  -18.1880  -26.8800   22.3160 C   0  0  0  0  0  2  0  0  0  0  0  0
  -19.1330  -29.0020   23.3990 C   0  0  0  0  0  0  0  0  0  0  0  0
  -18.9150  -30.2710   23.9780 C   0  0  0  0  0  3  0  0  0  0  0  0
  -17.6100  -30.7740   24.1390 C   0  0  0  0  0  3  0  0  0  0  0  0
  -16.5050  -30.0060   23.7320 C   0  0  0  0  0  3  0  0  0  0  0  0
  -16.7080  -28.7400   23.1550 C   0  0  0  0  0  3  0  0  0  0  0  0
  -25.8910  -32.6370   23.8660 C   0  0  0  0  0  3  0  0  0  0  0  0
  -26.4030  -31.8750   25.1500 C   0  0  1  0  0  0  0  0  0  0  0  0
  -25.3070  -31.6460   26.2170 C   0  0  0  0  0  1  0  0  0  0  0  0
  -26.9840  -30.4930   24.7730 C   0  0  0  0  0  1  0  0  0  0  0  0
  -27.5530  -32.6720   25.8100 C   0  0  0  0  0  1  0  0  0  0  0  0
  -25.5810  -34.0390   24.1920 N   0  0  0  0  0  0  0  0  0  0  0  0
  -25.9140  -35.0910   23.4320 C   0  0  0  0  0  0  0  0  0  0  0  0
  -26.5810  -34.9840   22.4000 O   0  0  0  0  0  0  0  0  0  0  0  0
  -24.9880  -34.1960   24.9930 H   0  0  0  0  0  0  0  0  0  0  0  0
  -24.1900  -36.8930   23.0830 C   0  0  0  0  0  1  0  0  0  0  0  0
  -25.4320  -36.4830   23.8900 C   0  0  0  0  0  3  0  0  0  0  0  0
  -27.5700  -37.3650   24.7170 C   0  0  0  0  0  1  0  0  0  0  0  0
  -26.4670  -37.5330   23.7740 N   0  0  0  0  0  0  0  0  0  0  0  0
  -26.0640  -38.4550   23.9170 H   0  0  0  0  0  0  0  0  0  0  0  0
  1  9  2  0
  2  3  1  0
  2  4  1  0
  5  3  1  0
  5  6  1  0
  5  7  1  0
  6  4  1  0
  6  8  1  0
  7  8  1  0
  7 10  1  0
  8  1  1  0
 11 10  1  0
 12 17  1  0
 13 14  1  0
 13 12  1  0
 15 14  1  0
 15 22  1  0
 15 16  1  0
 17 11  1  0
 17 16  1  0
 18 11  2  0
 19 20  2  0
 20 39  1  0
 21 20  1  0
 21 24  1  0
 22 19  1  0
 22 23  1  0
 23 21  2  0
 24 25  1  0
 25 26  2  0
 27 30  1  0
 27 26  1  0
 28 27  2  0
 29 28  1  0
 29 24  2  0
 30 31  1  0
 31 32  1  0
 32 33  2  0
 34 33  1  0
 34 38  1  0
 35 34  2  0
 36 31  2  0
 36 35  1  0
 37 36  1  0
 39 40  1  0
 40 43  1  0
 40 42  1  0
 41 39  2  0
 44 45  1  0
 44 19  1  0
 46 44  1  0
 47  1  1  0
 47 48  1  0
 49 50  1  0
 49 48  2  0
 51 62  2  0
 52 50  1  0
 52 57  1  0
 53 61  1  0
 53 63  1  0
 54 60  1  0
 54 56  1  0
 55 61  1  0
 56 57  2  0
 56 55  1  0
 58 52  2  0
 59 58  1  0
 59 54  2  0
 60 53  1  0
 61 51  1  0
 63 65  2  0
 64 63  1  0
 66 64  1  0
 67 76  2  0
 67 72  1  0
 68 64  1  0
 68 72  1  0
 69 68  1  0
 70 71  1  0
 70 69  1  0
 71 67  1  0
 72 73  2  0
 73 74  1  0
 75 74  2  0
 76 75  1  0
 77 51  1  0
 77 82  1  0
 77 78  1  0
 78 81  1  1
 78 79  1  0
 80 78  1  0
 82 85  1  0
 83 87  1  0
 83 82  1  0
 84 83  2  0
 87 86  1  0
 89 87  1  0
 89 90  1  0
 89 88  1  0
M  ISO  4  10 100  11 100  49 101  50 101
M  END
>  <TORSDO>  (78) 
F 20

>  <SCORE>  (78) 
-13.509

>  <name>  (78) 
78

>  <ligand_id>  (78) 
78

>  <original_smiles>  (78) 
[H]c1c([H])c([H])c2c(c1[H])C([H])([H])C([H])([H])C([H])([H])C2([H])N([H])C(=O)C1([H])N(C(=O)C([H])(N([H])C(=O)C([H])(N([H])C([H])([H])[H])C([H])([H])[H])C(C([H])([H])[H])(C([H])([H])[H])C([H])([H])[H])C([H])([H])c2c([H])c(OC([H])([H])C([H])([H])C([H])([H])C(=O)N3C([H])(C([H])([H])C(=O)N4C([H])([H])C([H])([H])C([H])([H])C([H])(n5nc(-c6c([H])c([H])c(Oc7c([H])c([H])c(F)c([H])c7F)c([H])c6[H])c(C(=O)N([H])[H])c5N([H])[H])C4([H])[H])C4([H])C([H])([H])C([H])([H])C([H])([H])C34[H])c([H])c([H])c2C1([H])[H]

>  <smiles>  (78) 
[H]c1c([H])c([H])c2c(c1[H])C([H])([H])C([H])([H])C([H])([H])C2([H])N([H])C(=O)C1([H])N(C(=O)C([H])(N([H])C(=O)C([H])(N([H])C([H])([H])[H])C([H])([H])[H])C(C([H])([H])[H])(C([H])([H])[H])C([H])([H])[H])C([H])([H])c2c([H])c(OC([H])([H])C([H])([H])C([H])([H])C(=O)N3C([H])(C([H])([H])C(=O)N4C([H])([H])C([H])([H])C([H])([H])C([H])(n5nc(-c6c([H])c([H])c(Oc7c([H])c([H])c(F)c([H])c7F)c([H])c6[H])c(C(=O)N([H])[H])c5N([H])[H])C4([H])[H])C4([H])C([H])([H])C([H])([H])C([H])([H])C34[H])c([H])c([H])c2C1([H])[H]

$$$$
79:0:0
     RDKit          3D

 93102  0  0  1  0  0  0  0  0999 V2000
  -29.8860  -20.9910   21.1670 C   0  0  0  0  0  3  0  0  0  0  0  0
  -31.0050  -21.7920   21.7980 C   0  0  0  0  0  2  0  0  0  0  0  0
  -31.4630  -18.5060   24.2600 C   0  0  0  0  0  2  0  0  0  0  0  0
  -30.2190  -19.3330   24.5480 C   0  0  0  0  0  2  0  0  0  0  0  0
  -31.2210  -17.6900   23.0010 C   0  0  0  0  0  2  0  0  0  0  0  0
  -29.8010  -19.6440   21.9570 C   0  0  0  0  0  3  0  0  0  0  0  0
  -29.9230  -20.2820   23.3820 C   0  0  0  0  0  3  0  0  0  0  0  0
  -30.9470  -21.4440   23.2850 C   0  0  0  0  0  3  0  0  0  0  0  0
  -30.8880  -18.4830   21.7020 C   0  0  0  0  0  3  0  0  0  0  0  0
  -30.6090  -22.6350   24.2010 C   0  0  0  0  0  1  0  0  0  0  0  0
  -28.8940  -21.5110   20.5240 N   0  0  0  0  0  2  0  0  0  0  0  0
  -30.6540  -17.4160   20.5330 C   0  0  0  0  0  2  0  0  0  0  0  0
  -30.3790  -15.8870   20.9110 C   0  0  0  0  0  2  0  0  0  0  0  0
  -31.0250  -14.7220   20.0850 C   0  0  0  0  0  0  0  0  0  0  0  0
  -30.7140  -12.5280   18.9470 C   0  0  0  0  0  2  0  0  0  0  0  0
  -29.7140  -12.6950   17.7810 C   0  0  0  0  0  2  0  0  0  0  0  0
  -28.2550  -12.5780   18.2720 C   0  0  0  0  0  2  0  0  0  0  0  0
  -27.9790  -13.4380   19.5350 C   0  0  0  0  0  3  0  0  0  0  0  0
  -29.0760  -13.2070   20.5970 C   0  0  0  0  0  2  0  0  0  0  0  0
  -30.3720  -13.5240   19.9780 N   0  0  0  0  0  0  0  0  0  0  0  0
  -32.1060  -14.9130   19.5210 O   0  0  0  0  0  0  0  0  0  0  0  0
  -25.6570  -14.1070   20.4200 C   0  0  0  0  0  0  0  0  0  0  0  0
  -24.5690  -13.3640   20.7940 C   0  0  0  0  0  0  0  0  0  0  0  0
  -24.9560  -11.9980   20.6420 C   0  0  0  0  0  0  0  0  0  0  0  0
  -26.6410  -13.1950   20.0700 N   0  0  0  0  0  0  0  0  0  0  0  0
  -26.2250  -11.9160   20.2600 N   0  0  0  0  0  0  0  0  0  0  0  0
  -24.1750  -10.7620   20.7840 C   0  0  0  0  0  0  0  0  0  0  0  0
  -24.6310   -9.6850   21.5750 C   0  0  0  0  0  3  0  0  0  0  0  0
  -23.8530   -8.5160   21.7100 C   0  0  0  0  0  3  0  0  0  0  0  0
  -22.6030   -8.4150   21.0530 C   0  0  0  0  0  0  0  0  0  0  0  0
  -22.1650   -9.4800   20.2470 C   0  0  0  0  0  3  0  0  0  0  0  0
  -22.9430  -10.6420   20.1090 C   0  0  0  0  0  3  0  0  0  0  0  0
  -21.7910   -7.3070   21.1070 O   0  0  0  0  0  0  0  0  0  0  0  0
  -21.8220   -6.4430   22.1710 C   0  0  0  0  0  0  0  0  0  0  0  0
  -21.5800   -6.8790   23.4930 C   0  0  0  0  0  3  0  0  0  0  0  0
  -21.5530   -5.9440   24.5470 C   0  0  0  0  0  3  0  0  0  0  0  0
  -21.7570   -4.5760   24.2840 C   0  0  0  0  0  0  0  0  0  0  0  0
  -21.9910   -4.1400   22.9680 C   0  0  0  0  0  3  0  0  0  0  0  0
  -22.0220   -5.0720   21.9150 C   0  0  0  0  0  0  0  0  0  0  0  0
  -22.2280   -4.6430   20.6450 F   0  0  0  0  0  0  0  0  0  0  0  0
  -21.7230   -3.6780   25.2960 F   0  0  0  0  0  0  0  0  0  0  0  0
  -23.2140  -13.8900   21.1740 C   0  0  0  0  0  0  0  0  0  0  0  0
  -22.5010  -13.1810   22.0420 N   0  0  0  0  0  0  0  0  0  0  0  0
  -22.7980  -14.9620   20.7360 O   0  0  0  0  0  0  0  0  0  0  0  0
  -22.8470  -12.3130   22.4240 H   0  0  0  0  0  0  0  0  0  0  0  0
  -21.5920  -13.5150   22.3300 H   0  0  0  0  0  0  0  0  0  0  0  0
  -25.8850  -15.4760   20.3280 N   0  0  0  0  0  0  0  0  0  0  0  0
  -25.1670  -16.1620   20.5360 H   0  0  0  0  0  0  0  0  0  0  0  0
  -26.7440  -15.8950   19.9960 H   0  0  0  0  0  0  0  0  0  0  0  0
  -28.3680  -22.8280   20.9800 C   0  0  0  0  0  2  0  0  0  0  0  0
  -28.7780  -24.1400   20.2200 C   0  0  0  0  0  2  0  0  0  0  0  0
  -28.1470  -25.4000   20.9190 C   0  0  0  0  0  2  0  0  0  0  0  0
  -28.3770  -26.7290   20.3620 O   0  0  0  0  0  0  0  0  0  0  0  0
  -24.6090  -32.0590   23.3460 C   0  0  0  0  0  0  0  0  0  0  0  0
  -27.2500  -27.5400   20.3250 C   0  0  0  0  0  0  0  0  0  0  0  0
  -23.4060  -30.6290   21.7290 C   0  0  0  0  0  3  0  0  0  0  0  0
  -24.8610  -29.0750   20.3180 C   0  0  0  0  0  0  0  0  0  0  0  0
  -25.9350  -30.9790   21.5260 C   0  0  0  0  0  2  0  0  0  0  0  0
  -26.0240  -29.5990   20.8970 C   0  0  0  0  0  0  0  0  0  0  0  0
  -27.2250  -28.8400   20.8940 C   0  0  0  0  0  3  0  0  0  0  0  0
  -26.0710  -27.0520   19.7210 C   0  0  0  0  0  3  0  0  0  0  0  0
  -24.8810  -27.8010   19.7260 C   0  0  0  0  0  3  0  0  0  0  0  0
  -23.6130  -29.9300   20.3610 C   0  0  0  0  0  2  0  0  0  0  0  0
  -24.6680  -31.2390   22.2570 N   0  0  0  0  0  0  0  0  0  0  0  0
  -23.5260  -32.3380   23.8810 O   0  0  0  0  0  0  0  0  0  0  0  0
  -22.7570  -29.6200   22.7070 C   0  0  0  0  0  0  0  0  0  0  0  0
  -21.4400  -29.4060   22.5590 N   0  0  0  0  0  0  0  0  0  0  0  0
  -23.4370  -29.0320   23.5510 O   0  0  0  0  0  0  0  0  0  0  0  0
  -20.9540  -29.9340   21.8480 H   0  0  0  0  0  0  0  0  0  0  0  0
  -18.0920  -28.1060   22.9810 C   0  0  0  0  0  0  0  0  0  0  0  0
  -20.6270  -28.4690   23.3350 C   0  0  0  0  0  3  0  0  0  0  0  0
  -20.8030  -27.0210   22.8220 C   0  0  0  0  0  2  0  0  0  0  0  0
  -19.7510  -26.6170   21.7830 C   0  0  0  0  0  2  0  0  0  0  0  0
  -18.3420  -26.7370   22.3700 C   0  0  0  0  0  2  0  0  0  0  0  0
  -19.1660  -28.9260   23.4180 C   0  0  0  0  0  0  0  0  0  0  0  0
  -18.8810  -30.2040   23.9450 C   0  0  0  0  0  3  0  0  0  0  0  0
  -17.5540  -30.6630   24.0410 C   0  0  0  0  0  3  0  0  0  0  0  0
  -16.4940  -29.8410   23.6220 C   0  0  0  0  0  3  0  0  0  0  0  0
  -16.7640  -28.5640   23.0990 C   0  0  0  0  0  3  0  0  0  0  0  0
  -25.8920  -32.7020   23.9560 C   0  0  0  0  0  3  0  0  0  0  0  0
  -25.5830  -34.1080   24.2570 N   0  0  0  0  0  0  0  0  0  0  0  0
  -25.9240  -35.1450   23.4810 C   0  0  0  0  0  0  0  0  0  0  0  0
  -26.6030  -35.0200   22.4580 O   0  0  0  0  0  0  0  0  0  0  0  0
  -24.9830  -34.2780   25.0500 H   0  0  0  0  0  0  0  0  0  0  0  0
  -24.1930  -36.9250   23.0860 C   0  0  0  0  0  1  0  0  0  0  0  0
  -25.4350  -36.5430   23.9060 C   0  0  0  0  0  3  0  0  0  0  0  0
  -27.5690  -37.4450   24.7190 C   0  0  0  0  0  1  0  0  0  0  0  0
  -26.4670  -37.5930   23.7710 N   0  0  0  0  0  0  0  0  0  0  0  0
  -26.0620  -38.5170   23.8950 H   0  0  0  0  0  0  0  0  0  0  0  0
  -26.4070  -31.9560   25.2490 C   0  0  1  0  0  0  0  0  0  0  0  0
  -25.3110  -31.7330   26.3160 C   0  0  0  0  0  1  0  0  0  0  0  0
  -27.0010  -30.5770   24.8820 C   0  0  0  0  0  1  0  0  0  0  0  0
  -27.5500  -32.7690   25.9000 C   0  0  0  0  0  1  0  0  0  0  0  0
  1 11  1  0
  1  2  1  0
  1  6  1  0
  2  8  1  0
  3  4  1  0
  5  3  1  0
  6  7  1  0
  7  4  1  0
  8  7  1  0
  8 10  1  0
  9  6  1  0
  9  5  1  0
 11 50  1  0
 12 13  1  0
 12  9  1  0
 14 13  1  0
 15 20  1  0
 16 17  1  0
 16 15  1  0
 17 18  1  0
 18 25  1  0
 18 19  1  0
 20 14  1  0
 20 19  1  0
 21 14  2  0
 22 23  2  0
 23 42  1  0
 24 27  1  0
 24 23  1  0
 25 26  1  0
 25 22  1  0
 26 24  2  0
 27 28  1  0
 28 29  2  0
 30 33  1  0
 30 29  1  0
 31 30  2  0
 32 31  1  0
 32 27  2  0
 33 34  1  0
 34 35  1  0
 35 36  2  0
 37 36  1  0
 37 41  1  0
 38 37  2  0
 39 34  2  0
 39 38  1  0
 40 39  1  0
 42 43  1  0
 43 46  1  0
 43 45  1  0
 44 42  2  0
 47 22  1  0
 47 48  1  0
 49 47  1  0
 51 52  1  0
 51 50  1  0
 53 52  1  0
 54 65  2  0
 54 80  1  0
 55 53  1  0
 55 60  1  0
 56 64  1  0
 56 66  1  0
 57 63  1  0
 57 59  1  0
 58 64  1  0
 59 58  1  0
 60 59  2  0
 61 62  1  0
 61 55  2  0
 62 57  2  0
 63 56  1  0
 64 54  1  0
 66 68  2  0
 67 66  1  0
 67 71  1  0
 69 67  1  0
 70 79  2  0
 70 75  1  0
 71 75  1  0
 72 71  1  0
 73 74  1  0
 73 72  1  0
 74 70  1  0
 75 76  2  0
 76 77  1  0
 78 77  2  0
 79 78  1  0
 80 81  1  0
 80 90  1  0
 81 84  1  0
 82 86  1  0
 82 81  1  0
 83 82  2  0
 85 86  1  0
 88 89  1  0
 88 86  1  0
 88 87  1  0
 90 93  1  1
 90 91  1  0
 92 90  1  0
M  ISO  4  13 100  14 100  52 101  53 101
M  END
>  <TORSDO>  (79) 
F 21

>  <SCORE>  (79) 
-9.450

>  <name>  (79) 
79

>  <ligand_id>  (79) 
79

>  <original_smiles>  (79) 
[H]c1c([H])c([H])c2c(c1[H])C([H])([H])C([H])([H])C([H])([H])C2([H])N([H])C(=O)C1([H])N(C(=O)C([H])(N([H])C(=O)C([H])(N([H])C([H])([H])[H])C([H])([H])[H])C(C([H])([H])[H])(C([H])([H])[H])C([H])([H])[H])C([H])([H])c2c([H])c(OC([H])([H])C([H])([H])C([H])([H])N=C3C([H])([H])C([H])(C([H])([H])[H])C4([H])C([H])([H])C([H])([H])C([H])([H])C([H])(C([H])([H])C([H])([H])C(=O)N5C([H])([H])C([H])([H])C([H])([H])C([H])(n6nc(-c7c([H])c([H])c(Oc8c([H])c([H])c(F)c([H])c8F)c([H])c7[H])c(C(=O)N([H])[H])c6N([H])[H])C5([H])[H])C34[H])c([H])c([H])c2C1([H])[H]

>  <smiles>  (79) 
[H]c1c([H])c([H])c2c(c1[H])C([H])([H])C([H])([H])C([H])([H])C2([H])N([H])C(=O)C1([H])N(C(=O)C([H])(N([H])C(=O)C([H])(N([H])C([H])([H])[H])C([H])([H])[H])C(C([H])([H])[H])(C([H])([H])[H])C([H])([H])[H])C([H])([H])c2c([H])c(OC([H])([H])C([H])([H])C([H])([H])N=C3C([H])([H])C([H])(C([H])([H])[H])C4([H])C([H])([H])C([H])([H])C([H])([H])C([H])(C([H])([H])C([H])([H])C(=O)N5C([H])([H])C([H])([H])C([H])([H])C([H])(n6nc(-c7c([H])c([H])c(Oc8c([H])c([H])c(F)c([H])c8F)c([H])c7[H])c(C(=O)N([H])[H])c6N([H])[H])C5([H])[H])C34[H])c([H])c([H])c2C1([H])[H]

$$$$
80:0:0
     RDKit          3D

 92100  0  0  1  0  0  0  0  0999 V2000
  -29.9010  -19.2160   19.4430 C   0  0  0  0  0  0  0  0  0  0  0  0
  -29.9870  -20.5640   19.8790 N   0  0  0  0  0  0  0  0  0  0  0  0
  -28.8680  -18.8590   18.8770 O   0  0  0  0  0  0  0  0  0  0  0  0
  -30.8690  -20.7990   20.3160 H   0  0  0  0  0  0  0  0  0  0  0  0
  -31.9350  -18.5700   20.8360 C   0  0  0  0  0  2  0  0  0  0  0  0
  -31.1570  -18.4570   22.1770 C   0  0  0  0  0  2  0  0  0  0  0  0
  -29.8970  -16.4240   21.2180 C   0  0  0  0  0  2  0  0  0  0  0  0
  -30.8440  -16.4350   19.9940 C   0  0  0  0  0  3  0  0  0  0  0  0
  -31.0810  -18.0700   19.6330 C   0  0  0  0  0  3  0  0  0  0  0  0
  -30.5510  -17.0540   22.4870 C   0  0  2  0  0  0  0  0  0  0  0  0
  -29.4530  -17.2160   23.5570 C   0  0  0  0  0  1  0  0  0  0  0  0
  -31.6340  -16.1290   23.0920 C   0  0  0  0  0  1  0  0  0  0  0  0
  -31.2650  -15.0400   19.1750 C   0  0  0  0  0  0  0  0  0  0  0  0
  -30.7390  -12.8400   18.0090 C   0  0  0  0  0  2  0  0  0  0  0  0
  -29.5380  -13.0330   17.0490 C   0  0  0  0  0  2  0  0  0  0  0  0
  -28.1910  -12.8950   17.7890 C   0  0  0  0  0  2  0  0  0  0  0  0
  -28.1810  -13.6610   19.1380 C   0  0  0  0  0  3  0  0  0  0  0  0
  -29.4600  -13.3370   19.9460 C   0  0  0  0  0  2  0  0  0  0  0  0
  -30.5930  -13.8100   19.1370 N   0  0  0  0  0  0  0  0  0  0  0  0
  -32.3030  -15.0890   18.5010 O   0  0  0  0  0  0  0  0  0  0  0  0
  -26.1150  -14.3490   20.4960 C   0  0  0  0  0  0  0  0  0  0  0  0
  -25.0690  -13.6300   21.0040 C   0  0  0  0  0  0  0  0  0  0  0  0
  -25.3230  -12.2680   20.6620 C   0  0  0  0  0  0  0  0  0  0  0  0
  -26.9550  -13.4250   19.8940 N   0  0  0  0  0  0  0  0  0  0  0  0
  -26.4930  -12.1560   20.0440 N   0  0  0  0  0  0  0  0  0  0  0  0
  -24.4900  -11.0710   20.8350 C   0  0  0  0  0  0  0  0  0  0  0  0
  -24.9350   -9.9640   21.5900 C   0  0  0  0  0  3  0  0  0  0  0  0
  -24.1070   -8.8340   21.7600 C   0  0  0  0  0  3  0  0  0  0  0  0
  -22.8180   -8.8030   21.1760 C   0  0  0  0  0  0  0  0  0  0  0  0
  -22.3880   -9.8990   20.4060 C   0  0  0  0  0  3  0  0  0  0  0  0
  -23.2160  -11.0210   20.2330 C   0  0  0  0  0  3  0  0  0  0  0  0
  -21.9540   -7.7390   21.2670 O   0  0  0  0  0  0  0  0  0  0  0  0
  -21.8880   -6.9610   22.3950 C   0  0  0  0  0  0  0  0  0  0  0  0
  -21.6140   -7.5120   23.6650 C   0  0  0  0  0  3  0  0  0  0  0  0
  -21.4860   -6.6690   24.7870 C   0  0  0  0  0  3  0  0  0  0  0  0
  -21.6220   -5.2750   24.6390 C   0  0  0  0  0  0  0  0  0  0  0  0
  -21.8900   -4.7240   23.3740 C   0  0  0  0  0  3  0  0  0  0  0  0
  -22.0190   -5.5640   22.2540 C   0  0  0  0  0  0  0  0  0  0  0  0
  -22.2560   -5.0260   21.0340 F   0  0  0  0  0  0  0  0  0  0  0  0
  -21.4920   -4.4630   25.7140 F   0  0  0  0  0  0  0  0  0  0  0  0
  -23.8510  -14.1890   21.6810 C   0  0  0  0  0  0  0  0  0  0  0  0
  -23.2680  -13.4380   22.6090 N   0  0  0  0  0  0  0  0  0  0  0  0
  -23.4380  -15.3200   21.4260 O   0  0  0  0  0  0  0  0  0  0  0  0
  -23.6210  -12.5190   22.8320 H   0  0  0  0  0  0  0  0  0  0  0  0
  -22.4580  -13.7860   23.1020 H   0  0  0  0  0  0  0  0  0  0  0  0
  -26.4040  -15.7080   20.4730 N   0  0  0  0  0  0  0  0  0  0  0  0
  -25.7740  -16.4000   20.8640 H   0  0  0  0  0  0  0  0  0  0  0  0
  -27.2030  -16.1190   20.0090 H   0  0  0  0  0  0  0  0  0  0  0  0
  -28.9290  -21.7280   19.8970 C   0  0  0  0  0  2  0  0  0  0  0  0
  -29.2470  -23.3330   20.2670 C   0  0  0  0  0  3  0  0  0  0  0  0
  -28.1400  -24.5780   20.0710 C   0  0  0  0  0  3  0  0  0  0  0  0
  -28.3410  -26.0930   20.3240 O   0  0  0  0  0  0  0  0  0  0  0  0
  -24.5060  -31.6480   23.2320 C   0  0  0  0  0  0  0  0  0  0  0  0
  -27.2530  -27.0310   20.2300 C   0  0  0  0  0  0  0  0  0  0  0  0
  -23.3690  -30.2380   21.5590 C   0  0  0  0  0  3  0  0  0  0  0  0
  -24.8810  -28.7050   20.1570 C   0  0  0  0  0  0  0  0  0  0  0  0
  -25.9180  -30.5630   21.4500 C   0  0  0  0  0  2  0  0  0  0  0  0
  -26.0350  -29.1790   20.7930 C   0  0  0  0  0  0  0  0  0  0  0  0
  -27.2210  -28.3570   20.8140 C   0  0  0  0  0  3  0  0  0  0  0  0
  -26.0720  -26.6510   19.5540 C   0  0  0  0  0  3  0  0  0  0  0  0
  -24.9100  -27.4530   19.5230 C   0  0  0  0  0  3  0  0  0  0  0  0
  -23.6330  -29.5720   20.1820 C   0  0  0  0  0  2  0  0  0  0  0  0
  -24.6160  -30.8370   22.1350 N   0  0  0  0  0  0  0  0  0  0  0  0
  -23.4030  -31.9080   23.7370 O   0  0  0  0  0  0  0  0  0  0  0  0
  -22.6910  -29.2120   22.5000 C   0  0  0  0  0  0  0  0  0  0  0  0
  -21.3880  -28.9530   22.2870 N   0  0  0  0  0  0  0  0  0  0  0  0
  -23.3410  -28.6510   23.3860 O   0  0  0  0  0  0  0  0  0  0  0  0
  -20.9190  -29.4600   21.5500 H   0  0  0  0  0  0  0  0  0  0  0  0
  -18.0780  -27.5050   22.5420 C   0  0  0  0  0  0  0  0  0  0  0  0
  -20.5730  -27.9860   23.0260 C   0  0  0  0  0  3  0  0  0  0  0  0
  -20.8380  -26.5440   22.5340 C   0  0  0  0  0  2  0  0  0  0  0  0
  -19.8650  -26.0900   21.4430 C   0  0  0  0  0  2  0  0  0  0  0  0
  -18.4210  -26.1480   21.9510 C   0  0  0  0  0  2  0  0  0  0  0  0
  -19.0890  -28.3740   23.0320 C   0  0  0  0  0  0  0  0  0  0  0  0
  -18.7170  -29.6370   23.5410 C   0  0  0  0  0  3  0  0  0  0  0  0
  -17.3660  -30.0340   23.5670 C   0  0  0  0  0  3  0  0  0  0  0  0
  -16.3690  -29.1650   23.0940 C   0  0  0  0  0  3  0  0  0  0  0  0
  -16.7250  -27.9020   22.5870 C   0  0  0  0  0  3  0  0  0  0  0  0
  -25.7580  -32.3040   23.8900 C   0  0  0  0  0  3  0  0  0  0  0  0
  -26.2240  -31.5660   25.2060 C   0  0  1  0  0  0  0  0  0  0  0  0
  -25.0880  -31.3400   26.2300 C   0  0  0  0  0  1  0  0  0  0  0  0
  -26.8380  -30.1860   24.8740 C   0  0  0  0  0  1  0  0  0  0  0  0
  -27.3370  -32.3880   25.8990 C   0  0  0  0  0  1  0  0  0  0  0  0
  -25.4270  -33.7080   24.1800 N   0  0  0  0  0  0  0  0  0  0  0  0
  -25.7770  -34.7490   23.4130 C   0  0  0  0  0  0  0  0  0  0  0  0
  -26.4790  -34.6300   22.4050 O   0  0  0  0  0  0  0  0  0  0  0  0
  -24.8060  -33.8740   24.9580 H   0  0  0  0  0  0  0  0  0  0  0  0
  -24.0490  -36.5270   22.9780 C   0  0  0  0  0  1  0  0  0  0  0  0
  -25.2710  -36.1450   23.8290 C   0  0  0  0  0  3  0  0  0  0  0  0
  -27.3790  -37.0610   24.6950 C   0  0  0  0  0  1  0  0  0  0  0  0
  -26.3010  -37.2020   23.7200 N   0  0  0  0  0  0  0  0  0  0  0  0
  -25.8860  -38.1230   23.8380 H   0  0  0  0  0  0  0  0  0  0  0  0
  1  2  1  0
  2 49  1  0
  2  4  1  0
  3  1  2  0
  5  6  1  0
  6 10  1  0
  7 10  1  0
  8 13  1  0
  8  7  1  0
  9  1  1  0
  9  8  1  0
  9  5  1  0
 10 12  1  1
 10 11  1  0
 14 19  1  0
 15 16  1  0
 15 14  1  0
 17 16  1  0
 17 24  1  0
 17 18  1  0
 19 13  1  0
 19 18  1  0
 20 13  2  0
 21 22  2  0
 22 41  1  0
 23 26  1  0
 23 22  1  0
 24 25  1  0
 24 21  1  0
 25 23  2  0
 26 27  1  0
 27 28  2  0
 29 32  1  0
 29 28  1  0
 30 29  2  0
 31 30  1  0
 31 26  2  0
 32 33  1  0
 33 34  1  0
 34 35  2  0
 36 35  1  0
 36 40  1  0
 37 36  2  0
 38 33  2  0
 38 37  1  0
 39 38  1  0
 41 42  1  0
 42 44  1  0
 42 45  1  0
 43 41  2  0
 46 21  1  0
 46 47  1  0
 48 46  1  0
 49 50  1  0
 51 50  2  0
 51 52  1  0
 53 64  2  0
 54 52  1  0
 54 59  1  0
 55 63  1  0
 55 65  1  0
 56 62  1  0
 56 58  1  0
 57 63  1  0
 58 59  2  0
 58 57  1  0
 60 54  2  0
 61 60  1  0
 61 56  2  0
 62 55  1  0
 63 53  1  0
 65 67  2  0
 66 65  1  0
 68 66  1  0
 69 78  2  0
 69 74  1  0
 70 66  1  0
 70 74  1  0
 71 70  1  0
 72 73  1  0
 72 71  1  0
 73 69  1  0
 74 75  2  0
 75 76  1  0
 77 76  2  0
 78 77  1  0
 79 53  1  0
 79 84  1  0
 79 80  1  0
 80 83  1  1
 80 81  1  0
 82 80  1  0
 84 87  1  0
 85 89  1  0
 85 84  1  0
 86 85  2  0
 89 88  1  0
 91 89  1  0
 91 92  1  0
 91 90  1  0
M  ISO  4   8 100  13 100  51 101  52 101
M  END
>  <TORSDO>  (80) 
F 20

>  <SCORE>  (80) 
-4.800

>  <name>  (80) 
80

>  <ligand_id>  (80) 
80

>  <original_smiles>  (80) 
[H]c1c([H])c([H])c2c(c1[H])C([H])([H])C([H])([H])C([H])([H])C2([H])N([H])C(=O)C1([H])N(C(=O)C([H])(N([H])C(=O)C([H])(N([H])C([H])([H])[H])C([H])([H])[H])C(C([H])([H])[H])(C([H])([H])[H])C([H])([H])[H])C([H])([H])c2c([H])c(OC([H])([H])C([H])([H])C([H])([H])N([H])C(=O)C3([H])C([H])([H])C([H])([H])C(C([H])([H])[H])(C([H])([H])[H])C([H])([H])C3([H])C(=O)N3C([H])([H])C([H])([H])C([H])([H])C([H])(n4nc(-c5c([H])c([H])c(Oc6c([H])c([H])c(F)c([H])c6F)c([H])c5[H])c(C(=O)N([H])[H])c4N([H])[H])C3([H])[H])c([H])c([H])c2C1([H])[H]

>  <smiles>  (80) 
[H]c1c([H])c([H])c2c(c1[H])C([H])([H])C([H])([H])C([H])([H])C2([H])N([H])C(=O)C1([H])N(C(=O)C([H])(N([H])C(=O)C([H])(N([H])C([H])([H])[H])C([H])([H])[H])C(C([H])([H])[H])(C([H])([H])[H])C([H])([H])[H])C([H])([H])c2c([H])c(OC([H])([H])C([H])([H])C([H])([H])N([H])C(=O)C3([H])C([H])([H])C([H])([H])C(C([H])([H])[H])(C([H])([H])[H])C([H])([H])C3([H])C(=O)N3C([H])([H])C([H])([H])C([H])([H])C([H])(n4nc(-c5c([H])c([H])c(Oc6c([H])c([H])c(F)c([H])c6F)c([H])c5[H])c(C(=O)N([H])[H])c4N([H])[H])C3([H])[H])c([H])c([H])c2C1([H])[H]

$$$$
81:0:0
     RDKit          3D

 95105  0  0  1  0  0  0  0  0999 V2000
  -30.8190  -14.5290   20.3920 C   0  0  0  0  0  0  0  0  0  0  0  0
  -30.4160  -12.3710   19.3410 C   0  0  0  0  0  2  0  0  0  0  0  0
  -29.4720  -12.5540   18.1320 C   0  0  0  0  0  2  0  0  0  0  0  0
  -28.0010  -12.5050   18.5660 C   0  0  0  0  0  2  0  0  0  0  0  0
  -27.6840  -13.3880   19.8030 C   0  0  0  0  0  3  0  0  0  0  0  0
  -28.7390  -13.2030   20.9180 C   0  0  0  0  0  2  0  0  0  0  0  0
  -30.0680  -13.4000   20.3220 N   0  0  0  0  0  0  0  0  0  0  0  0
  -32.0380  -14.5060   20.5350 O   0  0  0  0  0  0  0  0  0  0  0  0
  -30.7840  -15.8420   18.4310 C   0  0  0  0  0  0  0  0  0  0  0  0
  -28.3440  -18.5200   17.2150 C   0  0  0  0  0  2  0  0  0  0  0  0
  -30.8380  -17.8420   19.5040 C   0  0  0  0  0  2  0  0  0  0  0  0
  -27.0750  -19.0670   17.8780 C   0  0  0  0  0  2  0  0  0  0  0  0
  -27.9690  -18.6860   20.1680 C   0  0  0  0  0  2  0  0  0  0  0  0
  -30.4730  -17.2940   18.1260 C   0  0  0  0  0  3  0  0  0  0  0  0
  -28.9280  -17.3820   18.0570 C   0  0  0  0  0  3  0  0  0  0  0  0
  -28.5380  -17.3500   19.5660 C   0  0  0  0  0  3  0  0  0  0  0  0
  -29.8800  -16.8800   20.2180 C   0  0  0  0  0  3  0  0  0  0  0  0
  -30.3080  -15.5610   19.6710 N   0  0  0  0  0  0  0  0  0  0  0  0
  -27.4220  -19.6740   19.1860 N   0  0  1  0  0  4  0  0  0  0  0  0
  -31.4210  -15.1290   17.6470 O   0  0  0  0  0  0  0  0  0  0  0  0
  -26.5430  -19.9950   19.5690 H   0  0  0  0  0  0  0  0  0  0  0  0
  -25.2790  -14.0550   20.4420 C   0  0  0  0  0  0  0  0  0  0  0  0
  -24.1870  -13.3070   20.7900 C   0  0  0  0  0  0  0  0  0  0  0  0
  -24.6310  -11.9510   20.8180 C   0  0  0  0  0  0  0  0  0  0  0  0
  -26.3210  -13.1540   20.2760 N   0  0  0  0  0  0  0  0  0  0  0  0
  -25.9330  -11.8870   20.5700 N   0  0  0  0  0  0  0  0  0  0  0  0
  -23.8820  -10.7040   21.0120 C   0  0  0  0  0  0  0  0  0  0  0  0
  -24.2850   -9.7430   21.9660 C   0  0  0  0  0  3  0  0  0  0  0  0
  -23.5390   -8.5610   22.1480 C   0  0  0  0  0  3  0  0  0  0  0  0
  -22.3740   -8.3300   21.3760 C   0  0  0  0  0  0  0  0  0  0  0  0
  -21.9910   -9.2790   20.4120 C   0  0  0  0  0  3  0  0  0  0  0  0
  -22.7400  -10.4550   20.2280 C   0  0  0  0  0  3  0  0  0  0  0  0
  -21.6000   -7.2000   21.4690 O   0  0  0  0  0  0  0  0  0  0  0  0
  -21.5420   -6.4600   22.6230 C   0  0  0  0  0  0  0  0  0  0  0  0
  -21.1660   -7.0320   23.8570 C   0  0  0  0  0  3  0  0  0  0  0  0
  -21.0530   -6.2210   25.0030 C   0  0  0  0  0  3  0  0  0  0  0  0
  -21.3060   -4.8390   24.9170 C   0  0  0  0  0  0  0  0  0  0  0  0
  -21.6760   -4.2660   23.6870 C   0  0  0  0  0  3  0  0  0  0  0  0
  -21.7900   -5.0760   22.5420 C   0  0  0  0  0  0  0  0  0  0  0  0
  -22.1260   -4.5150   21.3550 F   0  0  0  0  0  0  0  0  0  0  0  0
  -21.1910   -4.0570   26.0150 F   0  0  0  0  0  0  0  0  0  0  0  0
  -22.7860  -13.8100   20.9880 C   0  0  0  0  0  0  0  0  0  0  0  0
  -22.0200  -13.1580   21.8550 N   0  0  0  0  0  0  0  0  0  0  0  0
  -22.3790  -14.8180   20.4120 O   0  0  0  0  0  0  0  0  0  0  0  0
  -22.3610  -12.3440   22.3450 H   0  0  0  0  0  0  0  0  0  0  0  0
  -21.0790  -13.4780   22.0350 H   0  0  0  0  0  0  0  0  0  0  0  0
  -25.4620  -15.4160   20.2330 N   0  0  0  0  0  0  0  0  0  0  0  0
  -24.7000  -16.0800   20.3060 H   0  0  0  0  0  0  0  0  0  0  0  0
  -26.3450  -15.8360   19.9850 H   0  0  0  0  0  0  0  0  0  0  0  0
  -28.2570  -20.8960   19.0160 C   0  0  0  0  0  2  0  0  0  0  0  0
  -27.9930  -22.0110   20.0430 C   0  0  0  0  0  2  0  0  0  0  0  0
  -28.7000  -23.3040   19.5960 C   0  0  0  0  0  2  0  0  0  0  0  0
  -28.4200  -24.5360   20.4670 C   0  0  0  0  0  2  0  0  0  0  0  0
  -28.9930  -25.8080   19.8100 C   0  0  0  0  0  2  0  0  0  0  0  0
  -28.7490  -26.9890   20.5650 O   0  0  0  0  0  0  0  0  0  0  0  0
  -24.6080  -32.0200   23.3500 C   0  0  0  0  0  0  0  0  0  0  0  0
  -27.5250  -27.6180   20.4770 C   0  0  0  0  0  0  0  0  0  0  0  0
  -23.5170  -30.5470   21.6870 C   0  0  0  0  0  3  0  0  0  0  0  0
  -25.0770  -29.0280   20.3620 C   0  0  0  0  0  0  0  0  0  0  0  0
  -26.0340  -30.9820   21.5920 C   0  0  0  0  0  2  0  0  0  0  0  0
  -26.1860  -29.6020   20.9940 C   0  0  0  0  0  0  0  0  0  0  0  0
  -27.4070  -28.8970   21.0590 C   0  0  0  0  0  3  0  0  0  0  0  0
  -26.3960  -27.0570   19.8340 C   0  0  0  0  0  3  0  0  0  0  0  0
  -25.1750  -27.7520   19.7840 C   0  0  0  0  0  3  0  0  0  0  0  0
  -23.8070  -29.8470   20.3330 C   0  0  0  0  0  2  0  0  0  0  0  0
  -24.7350  -31.2000   22.2690 N   0  0  0  0  0  0  0  0  0  0  0  0
  -23.4980  -32.2700   23.8370 O   0  0  0  0  0  0  0  0  0  0  0  0
  -22.8580  -29.5250   22.6400 C   0  0  0  0  0  0  0  0  0  0  0  0
  -21.5440  -29.3070   22.4660 N   0  0  0  0  0  0  0  0  0  0  0  0
  -23.5260  -28.9290   23.4890 O   0  0  0  0  0  0  0  0  0  0  0  0
  -21.0650  -29.8410   21.7540 H   0  0  0  0  0  0  0  0  0  0  0  0
  -18.1830  -28.0490   22.8640 C   0  0  0  0  0  0  0  0  0  0  0  0
  -20.7230  -28.3630   23.2230 C   0  0  0  0  0  3  0  0  0  0  0  0
  -20.8760  -26.9270   22.6710 C   0  0  0  0  0  2  0  0  0  0  0  0
  -19.8170  -26.5670   21.6240 C   0  0  0  0  0  2  0  0  0  0  0  0
  -18.4110  -26.6930   22.2170 C   0  0  0  0  0  2  0  0  0  0  0  0
  -19.2690  -28.8390   23.3230 C   0  0  0  0  0  0  0  0  0  0  0  0
  -19.0060  -30.1070   23.8860 C   0  0  0  0  0  3  0  0  0  0  0  0
  -17.6860  -30.5850   23.9960 C   0  0  0  0  0  3  0  0  0  0  0  0
  -16.6130  -29.7920   23.5550 C   0  0  0  0  0  3  0  0  0  0  0  0
  -16.8620  -28.5260   22.9960 C   0  0  0  0  0  3  0  0  0  0  0  0
  -25.8480  -32.7020   24.0090 C   0  0  0  0  0  3  0  0  0  0  0  0
  -26.3300  -31.9760   25.3250 C   0  0  1  0  0  0  0  0  0  0  0  0
  -25.1960  -31.7190   26.3440 C   0  0  0  0  0  1  0  0  0  0  0  0
  -26.9800  -30.6130   24.9890 C   0  0  0  0  0  1  0  0  0  0  0  0
  -27.4200  -32.8230   26.0220 C   0  0  0  0  0  1  0  0  0  0  0  0
  -25.4890  -34.0990   24.2860 N   0  0  0  0  0  0  0  0  0  0  0  0
  -25.8250  -35.1370   23.5090 C   0  0  0  0  0  0  0  0  0  0  0  0
  -26.5420  -35.0240   22.5100 O   0  0  0  0  0  0  0  0  0  0  0  0
  -24.8580  -34.2600   25.0580 H   0  0  0  0  0  0  0  0  0  0  0  0
  -24.0600  -36.8620   23.0290 C   0  0  0  0  0  1  0  0  0  0  0  0
  -25.2800  -36.5240   23.9020 C   0  0  0  0  0  3  0  0  0  0  0  0
  -27.3570  -37.4920   24.7810 C   0  0  0  0  0  1  0  0  0  0  0  0
  -26.2860  -37.6030   23.7950 N   0  0  0  0  0  0  0  0  0  0  0  0
  -25.8490  -38.5140   23.9030 H   0  0  0  0  0  0  0  0  0  0  0  0
  1  8  2  0
  2  7  1  0
  3  4  1  0
  3  2  1  0
  5  4  1  0
  5 25  1  0
  5  6  1  0
  7  1  1  0
  7  6  1  0
  9 18  1  0
 10 12  1  0
 12 19  1  0
 14  9  1  0
 14 11  1  0
 15 10  1  0
 15 14  1  0
 15 16  1  0
 16 13  1  0
 16 17  1  0
 17 11  1  0
 18 17  1  0
 18  1  1  0
 19 21  1  1
 19 13  1  0
 20  9  2  0
 22 23  2  0
 23 24  1  0
 23 42  1  0
 24 27  1  0
 25 22  1  0
 25 26  1  0
 26 24  2  0
 27 28  1  0
 28 29  2  0
 30 33  1  0
 30 29  1  0
 31 30  2  0
 32 31  1  0
 32 27  2  0
 33 34  1  0
 34 35  1  0
 35 36  2  0
 37 36  1  0
 37 41  1  0
 38 37  2  0
 39 34  2  0
 39 38  1  0
 40 39  1  0
 42 43  1  0
 43 46  1  0
 43 45  1  0
 44 42  2  0
 47 48  1  0
 47 22  1  0
 49 47  1  0
 50 19  1  0
 50 51  1  0
 52 51  1  0
 52 53  1  0
 54 53  1  0
 54 55  1  0
 56 67  2  0
 57 55  1  0
 57 62  1  0
 58 66  1  0
 58 68  1  0
 59 61  1  0
 60 66  1  0
 61 62  2  0
 61 60  1  0
 63 57  2  0
 64 63  1  0
 64 59  2  0
 65 59  1  0
 65 58  1  0
 66 56  1  0
 68 70  2  0
 69 68  1  0
 71 69  1  0
 72 81  2  0
 72 77  1  0
 73 69  1  0
 73 77  1  0
 74 73  1  0
 75 76  1  0
 75 74  1  0
 76 72  1  0
 77 78  2  0
 78 79  1  0
 80 79  2  0
 81 80  1  0
 82 56  1  0
 82 87  1  0
 82 83  1  0
 83 86  1  1
 83 84  1  0
 85 83  1  0
 87 90  1  0
 88 92  1  0
 88 87  1  0
 89 88  2  0
 92 91  1  0
 94 92  1  0
 94 95  1  0
 94 93  1  0
M  ISO  4   1 100  18 100  54 101  55 101
M  END
>  <TORSDO>  (81) 
F 20

>  <SCORE>  (81) 
-13.307

>  <name>  (81) 
81

>  <ligand_id>  (81) 
81

>  <original_smiles>  (81) 
[H]c1c([H])c([H])c2c(c1[H])C([H])([H])C([H])([H])C([H])([H])C2([H])N([H])C(=O)C1([H])N(C(=O)C([H])(N([H])C(=O)C([H])(N([H])C([H])([H])[H])C([H])([H])[H])C(C([H])([H])[H])(C([H])([H])[H])C([H])([H])[H])C([H])([H])c2c([H])c(OC([H])([H])C([H])([H])C([H])([H])C([H])([H])C([H])([H])[N+]3([H])C([H])([H])C([H])([H])C4([H])C5([H])C(=O)N(C(=O)N6C([H])([H])C([H])([H])C([H])([H])C([H])(n7nc(-c8c([H])c([H])c(Oc9c([H])c([H])c(F)c([H])c9F)c([H])c8[H])c(C(=O)N([H])[H])c7N([H])[H])C6([H])[H])C([H])(C5([H])[H])C4([H])C3([H])[H])c([H])c([H])c2C1([H])[H]

>  <smiles>  (81) 
[H]c1c([H])c([H])c2c(c1[H])C([H])([H])C([H])([H])C([H])([H])C2([H])N([H])C(=O)C1([H])N(C(=O)C([H])(N([H])C(=O)C([H])(N([H])C([H])([H])[H])C([H])([H])[H])C(C([H])([H])[H])(C([H])([H])[H])C([H])([H])[H])C([H])([H])c2c([H])c(OC([H])([H])C([H])([H])C([H])([H])C([H])([H])C([H])([H])[N+]3([H])C([H])([H])C([H])([H])C4([H])C5([H])C(=O)N(C(=O)N6C([H])([H])C([H])([H])C([H])([H])C([H])(n7nc(-c8c([H])c([H])c(Oc9c([H])c([H])c(F)c([H])c9F)c([H])c8[H])c(C(=O)N([H])[H])c7N([H])[H])C6([H])[H])C([H])(C5([H])[H])C4([H])C3([H])[H])c([H])c([H])c2C1([H])[H]

$$$$
82:0:0
     RDKit          3D

 86 94  0  0  1  0  0  0  0  0999 V2000
  -28.2390  -22.4170   19.0970 C   0  0  0  0  0  2  0  0  0  0  0  0
  -28.8670  -23.3650   20.0980 C   0  0  0  0  0  3  0  0  0  0  0  0
  -28.5440  -21.7640   20.4240 C   0  0  0  0  0  3  0  0  0  0  0  0
  -29.1520  -19.2230   20.3080 C   0  0  0  0  0  0  0  0  0  0  0  0
  -27.7470  -18.8600   20.7620 C   0  0  0  0  0  1  0  0  0  0  0  0
  -29.4830  -20.5260   20.1790 N   0  0  0  0  0  0  0  0  0  0  0  0
  -30.0940  -17.8780   20.0150 C   0  0  0  0  0  3  0  0  0  0  0  0
  -29.6750  -16.2900   20.3700 C   0  0  0  0  0  3  0  0  0  0  0  0
  -30.5220  -14.9290   19.9660 C   0  0  0  0  0  0  0  0  0  0  0  0
  -30.3920  -12.6030   18.9690 C   0  0  0  0  0  2  0  0  0  0  0  0
  -29.3890  -12.6100   17.7890 C   0  0  0  0  0  2  0  0  0  0  0  0
  -27.9470  -12.3890   18.2880 C   0  0  0  0  0  2  0  0  0  0  0  0
  -27.6050  -13.2760   19.5130 C   0  0  0  0  0  3  0  0  0  0  0  0
  -28.7180  -13.2380   20.5820 C   0  0  0  0  0  2  0  0  0  0  0  0
  -29.9690  -13.6530   19.9360 N   0  0  0  0  0  0  0  0  0  0  0  0
  -31.6820  -15.0480   19.5570 O   0  0  0  0  0  0  0  0  0  0  0  0
  -25.2630  -13.8280   20.3930 C   0  0  0  0  0  0  0  0  0  0  0  0
  -24.2230  -13.0390   20.8010 C   0  0  0  0  0  0  0  0  0  0  0  0
  -24.6910  -11.6920   20.7130 C   0  0  0  0  0  0  0  0  0  0  0  0
  -26.2950  -12.9610   20.0750 N   0  0  0  0  0  0  0  0  0  0  0  0
  -25.9630  -11.6690   20.3320 N   0  0  0  0  0  0  0  0  0  0  0  0
  -23.9800  -10.4210   20.9130 C   0  0  0  0  0  0  0  0  0  0  0  0
  -24.4200   -9.4690   21.8580 C   0  0  0  0  0  3  0  0  0  0  0  0
  -23.7090   -8.2630   22.0460 C   0  0  0  0  0  3  0  0  0  0  0  0
  -22.5430   -8.0020   21.2870 C   0  0  0  0  0  0  0  0  0  0  0  0
  -22.1220   -8.9430   20.3310 C   0  0  0  0  0  3  0  0  0  0  0  0
  -22.8350  -10.1390   20.1410 C   0  0  0  0  0  3  0  0  0  0  0  0
  -21.8040   -6.8470   21.3820 O   0  0  0  0  0  0  0  0  0  0  0  0
  -21.6990   -6.1540   22.5610 C   0  0  0  0  0  0  0  0  0  0  0  0
  -21.1910   -6.7530   23.7340 C   0  0  0  0  0  3  0  0  0  0  0  0
  -21.0350   -5.9860   24.9060 C   0  0  0  0  0  3  0  0  0  0  0  0
  -21.3780   -4.6200   24.9050 C   0  0  0  0  0  0  0  0  0  0  0  0
  -21.8810   -4.0210   23.7360 C   0  0  0  0  0  3  0  0  0  0  0  0
  -22.0390   -4.7860   22.5670 C   0  0  0  0  0  0  0  0  0  0  0  0
  -22.5020   -4.1990   21.4370 F   0  0  0  0  0  0  0  0  0  0  0  0
  -21.2220   -3.8800   26.0270 F   0  0  0  0  0  0  0  0  0  0  0  0
  -22.8400  -13.5010   21.1590 C   0  0  0  0  0  0  0  0  0  0  0  0
  -22.1630  -12.7840   22.0480 N   0  0  0  0  0  0  0  0  0  0  0  0
  -22.3690  -14.5340   20.6840 O   0  0  0  0  0  0  0  0  0  0  0  0
  -22.5590  -11.9500   22.4550 H   0  0  0  0  0  0  0  0  0  0  0  0
  -21.2370  -13.0750   22.3290 H   0  0  0  0  0  0  0  0  0  0  0  0
  -25.4090  -15.2040   20.2420 N   0  0  0  0  0  0  0  0  0  0  0  0
  -24.6450  -15.8470   20.4170 H   0  0  0  0  0  0  0  0  0  0  0  0
  -26.2320  -15.6570   19.8690 H   0  0  0  0  0  0  0  0  0  0  0  0
  -28.0080  -24.7270   20.5050 C   0  0  0  0  0  2  0  0  0  0  0  0
  -28.2770  -26.2160   20.1670 O   0  0  0  0  0  0  0  0  0  0  0  0
  -24.5800  -31.8350   23.1650 C   0  0  0  0  0  0  0  0  0  0  0  0
  -27.2040  -27.1700   20.1370 C   0  0  0  0  0  0  0  0  0  0  0  0
  -23.3910  -30.4270   21.5270 C   0  0  0  0  0  3  0  0  0  0  0  0
  -24.8550  -28.8720   20.1010 C   0  0  0  0  0  0  0  0  0  0  0  0
  -25.9390  -30.7270   21.3570 C   0  0  0  0  0  2  0  0  0  0  0  0
  -26.0280  -29.3370   20.7090 C   0  0  0  0  0  0  0  0  0  0  0  0
  -27.2060  -28.5020   20.7090 C   0  0  0  0  0  3  0  0  0  0  0  0
  -26.0080  -26.8060   19.4820 C   0  0  0  0  0  3  0  0  0  0  0  0
  -24.8560  -27.6180   19.4710 C   0  0  0  0  0  3  0  0  0  0  0  0
  -23.6180  -29.7530   20.1460 C   0  0  0  0  0  2  0  0  0  0  0  0
  -24.6560  -31.0170   22.0720 N   0  0  0  0  0  0  0  0  0  0  0  0
  -23.4910  -32.1080   23.6940 O   0  0  0  0  0  0  0  0  0  0  0  0
  -22.7260  -29.4110   22.4870 C   0  0  0  0  0  0  0  0  0  0  0  0
  -21.4000  -29.2240   22.3580 N   0  0  0  0  0  0  0  0  0  0  0  0
  -23.4030  -28.7930   23.3120 O   0  0  0  0  0  0  0  0  0  0  0  0
  -20.9100  -29.7740   21.6660 H   0  0  0  0  0  0  0  0  0  0  0  0
  -18.0340  -27.9830   22.8510 C   0  0  0  0  0  0  0  0  0  0  0  0
  -20.5880  -28.2800   23.1300 C   0  0  0  0  0  3  0  0  0  0  0  0
  -20.7110  -26.8470   22.5630 C   0  0  0  0  0  2  0  0  0  0  0  0
  -19.6180  -26.5040   21.5440 C   0  0  0  0  0  2  0  0  0  0  0  0
  -18.2310  -26.6330   22.1800 C   0  0  0  0  0  2  0  0  0  0  0  0
  -19.1400  -28.7630   23.2820 C   0  0  0  0  0  0  0  0  0  0  0  0
  -18.9000  -30.0230   23.8700 C   0  0  0  0  0  3  0  0  0  0  0  0
  -17.5880  -30.5050   24.0310 C   0  0  0  0  0  3  0  0  0  0  0  0
  -16.4960  -29.7230   23.6150 C   0  0  0  0  0  3  0  0  0  0  0  0
  -16.7200  -28.4640   23.0300 C   0  0  0  0  0  3  0  0  0  0  0  0
  -25.8530  -32.4800   23.7910 C   0  0  0  0  0  3  0  0  0  0  0  0
  -26.3780  -31.7070   25.0630 C   0  0  1  0  0  0  0  0  0  0  0  0
  -25.2890  -31.4530   26.1320 C   0  0  0  0  0  1  0  0  0  0  0  0
  -26.9760  -30.3370   24.6670 C   0  0  0  0  0  1  0  0  0  0  0  0
  -27.5220  -32.5100   25.7280 C   0  0  0  0  0  1  0  0  0  0  0  0
  -25.5250  -33.8730   24.1360 N   0  0  0  0  0  0  0  0  0  0  0  0
  -25.8410  -34.9380   23.3890 C   0  0  0  0  0  0  0  0  0  0  0  0
  -26.5070  -34.8550   22.3540 O   0  0  0  0  0  0  0  0  0  0  0  0
  -24.9310  -34.0090   24.9400 H   0  0  0  0  0  0  0  0  0  0  0  0
  -24.0900  -36.7180   23.0660 C   0  0  0  0  0  1  0  0  0  0  0  0
  -25.3410  -36.3170   23.8660 C   0  0  0  0  0  3  0  0  0  0  0  0
  -27.4690  -37.2200   24.6960 C   0  0  0  0  0  1  0  0  0  0  0  0
  -26.3610  -37.3830   23.7580 N   0  0  0  0  0  0  0  0  0  0  0  0
  -25.9460  -38.2970   23.9150 H   0  0  0  0  0  0  0  0  0  0  0  0
  1  2  1  0
  1  3  1  0
  2  3  1  0
  2 45  1  0
  3  6  1  0
  4  5  1  0
  6  4  2  0
  7  4  1  0
  7  8  2  0
  9  8  1  0
 10 15  1  0
 11 12  1  0
 11 10  1  0
 13 12  1  0
 13 20  1  0
 13 14  1  0
 15  9  1  0
 15 14  1  0
 16  9  2  0
 17 18  2  0
 18 37  1  0
 19 18  1  0
 19 22  1  0
 20 21  1  0
 20 17  1  0
 21 19  2  0
 22 23  1  0
 23 24  2  0
 25 28  1  0
 25 24  1  0
 26 25  2  0
 27 26  1  0
 27 22  2  0
 28 29  1  0
 29 34  2  0
 29 30  1  0
 30 31  2  0
 32 31  1  0
 32 36  1  0
 33 32  2  0
 34 33  1  0
 35 34  1  0
 37 38  1  0
 38 41  1  0
 38 40  1  0
 39 37  2  0
 42 17  1  0
 42 43  1  0
 44 42  1  0
 46 45  1  0
 47 58  2  0
 48 46  1  0
 48 53  1  0
 49 57  1  0
 49 59  1  0
 50 56  1  0
 50 52  1  0
 51 57  1  0
 52 51  1  0
 53 52  2  0
 54 48  2  0
 55 54  1  0
 55 50  2  0
 56 49  1  0
 57 47  1  0
 59 61  2  0
 60 59  1  0
 62 60  1  0
 63 72  2  0
 63 68  1  0
 64 60  1  0
 64 68  1  0
 65 64  1  0
 66 67  1  0
 66 65  1  0
 67 63  1  0
 68 69  2  0
 69 70  1  0
 71 70  2  0
 72 71  1  0
 73 47  1  0
 73 78  1  0
 73 74  1  0
 74 77  1  1
 74 75  1  0
 76 74  1  0
 78 81  1  0
 79 83  1  0
 79 78  1  0
 80 79  2  0
 83 82  1  0
 85 83  1  0
 85 86  1  0
 85 84  1  0
M  ISO  4   8 100   9 100  45 101  46 101
M  END
>  <TORSDO>  (82) 
F 20

>  <SCORE>  (82) 
-13.080

>  <name>  (82) 
82

>  <ligand_id>  (82) 
82

>  <original_smiles>  (82) 
[H]c1c([H])c([H])c2c(c1[H])C([H])([H])C([H])([H])C([H])([H])C2([H])N([H])C(=O)C1([H])N(C(=O)C([H])(N([H])C(=O)C([H])(N([H])C([H])([H])[H])C([H])([H])[H])C(C([H])([H])[H])(C([H])([H])[H])C([H])([H])[H])C([H])([H])c2c([H])c(OC([H])([H])C3([H])C([H])([H])C3([H])N=C(C([H])([H])[H])C([H])([H])C([H])([H])C(=O)N3C([H])([H])C([H])([H])C([H])([H])C([H])(n4nc(-c5c([H])c([H])c(Oc6c([H])c([H])c(F)c([H])c6F)c([H])c5[H])c(C(=O)N([H])[H])c4N([H])[H])C3([H])[H])c([H])c([H])c2C1([H])[H]

>  <smiles>  (82) 
[H]c1c([H])c([H])c2c(c1[H])C([H])([H])C([H])([H])C([H])([H])C2([H])N([H])C(=O)C1([H])N(C(=O)C([H])(N([H])C(=O)C([H])(N([H])C([H])([H])[H])C([H])([H])[H])C(C([H])([H])[H])(C([H])([H])[H])C([H])([H])[H])C([H])([H])c2c([H])c(OC([H])([H])C3([H])C([H])([H])C3([H])N=C(C([H])([H])[H])C([H])([H])C([H])([H])C(=O)N3C([H])([H])C([H])([H])C([H])([H])C([H])(n4nc(-c5c([H])c([H])c(Oc6c([H])c([H])c(F)c([H])c6F)c([H])c5[H])c(C(=O)N([H])[H])c4N([H])[H])C3([H])[H])c([H])c([H])c2C1([H])[H]

$$$$
83:0:0
     RDKit          3D

 92100  0  0  1  0  0  0  0  0999 V2000
  -30.3460  -19.8030   20.6810 C   0  0  0  0  0  3  0  0  0  0  0  0
  -32.4570  -19.2730   23.8700 C   0  0  0  0  0  2  0  0  0  0  0  0
  -31.4600  -20.3280   24.3650 C   0  0  0  0  0  2  0  0  0  0  0  0
  -32.1150  -19.0360   22.3960 C   0  0  0  0  0  2  0  0  0  0  0  0
  -30.6950  -20.7990   23.1220 C   0  0  0  0  0  2  0  0  0  0  0  0
  -30.6840  -19.5840   22.1890 C   0  0  0  0  0  3  0  0  0  0  0  0
  -30.3070  -18.4340   19.9780 N   0  0  0  0  0  4  0  0  0  0  0  0
  -30.0410  -18.6180   19.0230 H   0  0  0  0  0  0  0  0  0  0  0  0
  -31.2550  -18.0990   19.9150 H   0  0  0  0  0  0  0  0  0  0  0  0
  -29.4560  -17.2470   20.4280 C   0  0  0  0  0  2  0  0  0  0  0  0
  -30.0720  -15.9810   21.2280 C   0  0  0  0  0  2  0  0  0  0  0  0
  -30.6540  -14.6810   20.5160 C   0  0  0  0  0  0  0  0  0  0  0  0
  -30.4360  -12.4210   19.4680 C   0  0  0  0  0  2  0  0  0  0  0  0
  -29.5150  -12.5150   18.2310 C   0  0  0  0  0  2  0  0  0  0  0  0
  -28.0360  -12.3520   18.6370 C   0  0  0  0  0  2  0  0  0  0  0  0
  -27.6540  -13.2280   19.8620 C   0  0  0  0  0  3  0  0  0  0  0  0
  -28.6990  -13.1070   20.9940 C   0  0  0  0  0  2  0  0  0  0  0  0
  -30.0120  -13.4630   20.4350 N   0  0  0  0  0  0  0  0  0  0  0  0
  -31.7740  -14.8020   20.0140 O   0  0  0  0  0  0  0  0  0  0  0  0
  -25.2550  -13.8180   20.5660 C   0  0  0  0  0  0  0  0  0  0  0  0
  -24.1830  -13.0430   20.9170 C   0  0  0  0  0  0  0  0  0  0  0  0
  -24.6400  -11.6900   20.8700 C   0  0  0  0  0  0  0  0  0  0  0  0
  -26.3000  -12.9390   20.3300 N   0  0  0  0  0  0  0  0  0  0  0  0
  -25.9350  -11.6530   20.5730 N   0  0  0  0  0  0  0  0  0  0  0  0
  -23.9070  -10.4290   21.0370 C   0  0  0  0  0  0  0  0  0  0  0  0
  -24.3610   -9.4210   21.9160 C   0  0  0  0  0  3  0  0  0  0  0  0
  -23.6280   -8.2250   22.0750 C   0  0  0  0  0  3  0  0  0  0  0  0
  -22.4260   -8.0270   21.3540 C   0  0  0  0  0  0  0  0  0  0  0  0
  -21.9900   -9.0240   20.4630 C   0  0  0  0  0  3  0  0  0  0  0  0
  -22.7240  -10.2110   20.3020 C   0  0  0  0  0  3  0  0  0  0  0  0
  -21.6640   -6.8850   21.4230 O   0  0  0  0  0  0  0  0  0  0  0  0
  -21.6860   -6.0720   22.5260 C   0  0  0  0  0  0  0  0  0  0  0  0
  -21.4030   -6.5620   23.8200 C   0  0  0  0  0  3  0  0  0  0  0  0
  -21.3660   -5.6770   24.9160 C   0  0  0  0  0  3  0  0  0  0  0  0
  -21.6050   -4.3040   24.7220 C   0  0  0  0  0  0  0  0  0  0  0  0
  -21.8830   -3.8120   23.4350 C   0  0  0  0  0  3  0  0  0  0  0  0
  -21.9200   -4.6940   22.3400 C   0  0  0  0  0  0  0  0  0  0  0  0
  -22.1660   -4.2120   21.0980 F   0  0  0  0  0  0  0  0  0  0  0  0
  -21.5630   -3.4530   25.7740 F   0  0  0  0  0  0  0  0  0  0  0  0
  -22.7840  -13.5210   21.1810 C   0  0  0  0  0  0  0  0  0  0  0  0
  -22.0480  -12.8190   22.0350 N   0  0  0  0  0  0  0  0  0  0  0  0
  -22.3520  -14.5500   20.6650 O   0  0  0  0  0  0  0  0  0  0  0  0
  -22.4100  -11.9870   22.4760 H   0  0  0  0  0  0  0  0  0  0  0  0
  -21.1060  -13.1180   22.2470 H   0  0  0  0  0  0  0  0  0  0  0  0
  -25.4220  -15.1920   20.4090 N   0  0  0  0  0  0  0  0  0  0  0  0
  -24.6480  -15.8390   20.5230 H   0  0  0  0  0  0  0  0  0  0  0  0
  -26.2650  -15.6360   20.0700 H   0  0  0  0  0  0  0  0  0  0  0  0
  -29.2410  -20.9310   20.2700 C   0  0  0  0  0  2  0  0  0  0  0  0
  -29.3860  -22.4920   20.7140 C   0  0  0  0  0  2  0  0  0  0  0  0
  -28.6840  -23.7250   19.9270 C   0  0  0  0  0  2  0  0  0  0  0  0
  -28.3050  -25.0840   20.7220 C   0  0  0  0  0  2  0  0  0  0  0  0
  -28.3650  -26.4450   20.1080 O   0  0  0  0  0  0  0  0  0  0  0  0
  -24.6290  -31.8540   23.1940 C   0  0  0  0  0  0  0  0  0  0  0  0
  -27.2360  -27.2880   20.1370 C   0  0  0  0  0  0  0  0  0  0  0  0
  -23.4270  -30.4760   21.5330 C   0  0  0  0  0  3  0  0  0  0  0  0
  -24.8780  -28.9150   20.1160 C   0  0  0  0  0  0  0  0  0  0  0  0
  -25.9660  -30.7850   21.3580 C   0  0  0  0  0  2  0  0  0  0  0  0
  -26.0460  -29.4020   20.7130 C   0  0  0  0  0  0  0  0  0  0  0  0
  -27.2310  -28.6040   20.7060 C   0  0  0  0  0  3  0  0  0  0  0  0
  -26.0450  -26.8500   19.5270 C   0  0  0  0  0  3  0  0  0  0  0  0
  -24.8800  -27.6470   19.5110 C   0  0  0  0  0  3  0  0  0  0  0  0
  -23.6460  -29.8010   20.1520 C   0  0  0  0  0  2  0  0  0  0  0  0
  -24.6930  -31.0550   22.0880 N   0  0  0  0  0  0  0  0  0  0  0  0
  -23.5440  -32.1290   23.7250 O   0  0  0  0  0  0  0  0  0  0  0  0
  -22.7510  -29.4600   22.4850 C   0  0  0  0  0  0  0  0  0  0  0  0
  -21.4210  -29.3070   22.3650 N   0  0  0  0  0  0  0  0  0  0  0  0
  -23.4220  -28.8110   23.2910 O   0  0  0  0  0  0  0  0  0  0  0  0
  -20.9370  -29.8830   21.6890 H   0  0  0  0  0  0  0  0  0  0  0  0
  -18.0310  -28.1420   22.8460 C   0  0  0  0  0  0  0  0  0  0  0  0
  -20.5910  -28.3720   23.1280 C   0  0  0  0  0  3  0  0  0  0  0  0
  -20.6810  -26.9430   22.5410 C   0  0  0  0  0  2  0  0  0  0  0  0
  -19.5790  -26.6400   21.5220 C   0  0  0  0  0  2  0  0  0  0  0  0
  -18.1960  -26.7980   22.1600 C   0  0  0  0  0  2  0  0  0  0  0  0
  -19.1560  -28.8870   23.2900 C   0  0  0  0  0  0  0  0  0  0  0  0
  -18.9490  -30.1480   23.8910 C   0  0  0  0  0  3  0  0  0  0  0  0
  -17.6500  -30.6600   24.0570 C   0  0  0  0  0  3  0  0  0  0  0  0
  -16.5390  -29.9110   23.6330 C   0  0  0  0  0  3  0  0  0  0  0  0
  -16.7300  -28.6540   23.0310 C   0  0  0  0  0  3  0  0  0  0  0  0
  -25.9100  -32.4740   23.8290 C   0  0  0  0  0  3  0  0  0  0  0  0
  -25.5930  -33.8530   24.2240 N   0  0  0  0  0  0  0  0  0  0  0  0
  -25.9050  -34.9430   23.5090 C   0  0  0  0  0  0  0  0  0  0  0  0
  -26.5610  -34.8920   22.4660 O   0  0  0  0  0  0  0  0  0  0  0  0
  -25.0160  -33.9680   25.0440 H   0  0  0  0  0  0  0  0  0  0  0  0
  -24.1500  -36.7260   23.2640 C   0  0  0  0  0  1  0  0  0  0  0  0
  -25.4110  -36.3050   24.0350 C   0  0  0  0  0  3  0  0  0  0  0  0
  -27.5580  -37.1780   24.8480 C   0  0  0  0  0  1  0  0  0  0  0  0
  -26.4270  -37.3760   23.9440 N   0  0  0  0  0  0  0  0  0  0  0  0
  -26.0150  -38.2830   24.1470 H   0  0  0  0  0  0  0  0  0  0  0  0
  -26.4480  -31.6540   25.0640 C   0  0  1  0  0  0  0  0  0  0  0  0
  -25.3710  -31.3690   26.1370 C   0  0  0  0  0  1  0  0  0  0  0  0
  -27.0280  -30.2980   24.6010 C   0  0  0  0  0  1  0  0  0  0  0  0
  -27.6080  -32.4200   25.7430 C   0  0  0  0  0  1  0  0  0  0  0  0
  1 48  1  0
  1  6  1  0
  2  3  1  0
  4  2  1  0
  5  3  1  0
  6  4  1  0
  6  5  1  0
  7 10  1  0
  7  1  1  0
  8  7  1  0
  9  7  1  0
 10 11  1  0
 12 11  1  0
 13 18  1  0
 14 15  1  0
 14 13  1  0
 16 15  1  0
 16 23  1  0
 16 17  1  0
 18 12  1  0
 18 17  1  0
 19 12  2  0
 20 21  2  0
 21 40  1  0
 22 21  1  0
 22 25  1  0
 23 20  1  0
 23 24  1  0
 24 22  2  0
 25 26  1  0
 26 27  2  0
 28 31  1  0
 28 27  1  0
 29 28  2  0
 30 29  1  0
 30 25  2  0
 31 32  1  0
 32 33  1  0
 33 34  2  0
 35 34  1  0
 35 39  1  0
 36 35  2  0
 37 32  2  0
 37 36  1  0
 38 37  1  0
 40 41  1  0
 41 44  1  0
 41 43  1  0
 42 40  2  0
 45 46  1  0
 45 20  1  0
 47 45  1  0
 48 49  1  0
 50 49  1  0
 50 51  1  0
 52 54  1  0
 52 51  1  0
 53 64  2  0
 54 59  1  0
 55 63  1  0
 55 65  1  0
 56 62  1  0
 56 58  1  0
 57 63  1  0
 58 57  1  0
 59 58  2  0
 60 54  2  0
 61 60  1  0
 61 56  2  0
 62 55  1  0
 63 53  1  0
 65 67  2  0
 66 65  1  0
 68 66  1  0
 69 78  2  0
 69 74  1  0
 70 66  1  0
 70 74  1  0
 71 70  1  0
 72 73  1  0
 72 71  1  0
 73 69  1  0
 74 75  2  0
 75 76  1  0
 77 76  2  0
 78 77  1  0
 79 53  1  0
 79 80  1  0
 79 89  1  0
 80 83  1  0
 81 85  1  0
 81 80  1  0
 82 81  2  0
 85 84  1  0
 87 85  1  0
 87 88  1  0
 87 86  1  0
 89 92  1  1
 89 90  1  0
 91 89  1  0
M  ISO  4  11 100  12 100  51 101  52 101
M  END
>  <TORSDO>  (83) 
F 24

>  <SCORE>  (83) 
-10.580

>  <name>  (83) 
83

>  <ligand_id>  (83) 
83

>  <original_smiles>  (83) 
[H]c1c([H])c([H])c2c(c1[H])C([H])([H])C([H])([H])C([H])([H])C2([H])N([H])C(=O)C1([H])N(C(=O)C([H])(N([H])C(=O)C([H])(N([H])C([H])([H])[H])C([H])([H])[H])C(C([H])([H])[H])(C([H])([H])[H])C([H])([H])[H])C([H])([H])c2c([H])c(OC([H])([H])C([H])([H])C([H])([H])C([H])([H])C([H])(C3([H])C([H])([H])C([H])([H])C([H])([H])C3([H])[H])[N+]([H])([H])C([H])([H])C([H])([H])C(=O)N3C([H])([H])C([H])([H])C([H])([H])C([H])(n4nc(-c5c([H])c([H])c(Oc6c([H])c([H])c(F)c([H])c6F)c([H])c5[H])c(C(=O)N([H])[H])c4N([H])[H])C3([H])[H])c([H])c([H])c2C1([H])[H]

>  <smiles>  (83) 
[H]c1c([H])c([H])c2c(c1[H])C([H])([H])C([H])([H])C([H])([H])C2([H])N([H])C(=O)C1([H])N(C(=O)C([H])(N([H])C(=O)C([H])(N([H])C([H])([H])[H])C([H])([H])[H])C(C([H])([H])[H])(C([H])([H])[H])C([H])([H])[H])C([H])([H])c2c([H])c(OC([H])([H])C([H])([H])C([H])([H])C([H])([H])C([H])(C3([H])C([H])([H])C([H])([H])C([H])([H])C3([H])[H])[N+]([H])([H])C([H])([H])C([H])([H])C(=O)N3C([H])([H])C([H])([H])C([H])([H])C([H])(n4nc(-c5c([H])c([H])c(Oc6c([H])c([H])c(F)c([H])c6F)c([H])c5[H])c(C(=O)N([H])[H])c4N([H])[H])C3([H])[H])c([H])c([H])c2C1([H])[H]

$$$$
84:0:0
     RDKit          3D

 95104  0  0  1  0  0  0  0  0999 V2000
  -31.3910  -19.2460   18.5520 N   0  0  0  0  0  4  0  0  0  0  0  0
  -31.1670  -19.5460   17.6060 H   0  0  0  0  0  0  0  0  0  0  0  0
  -32.3500  -18.9520   18.4340 H   0  0  0  0  0  0  0  0  0  0  0  0
  -29.2120  -18.5950   22.2850 C   0  0  0  0  0  2  0  0  0  0  0  0
  -28.9570  -17.9550   21.1350 C   0  0  0  0  0  3  0  0  0  0  0  0
  -30.2380  -17.9050   23.1430 C   0  0  0  0  0  2  0  0  0  0  0  0
  -30.8210  -16.7970   22.2350 C   0  0  0  0  0  2  0  0  0  0  0  0
  -28.9690  -18.2060   18.6080 C   0  0  0  0  0  2  0  0  0  0  0  0
  -29.8650  -16.6750   21.0140 C   0  0  0  0  0  3  0  0  0  0  0  0
  -30.6220  -16.4410   19.6170 C   0  0  0  0  0  3  0  0  0  0  0  0
  -30.4950  -17.9570   18.8290 C   0  0  0  0  0  3  0  0  0  0  0  0
  -28.2050  -18.6230   19.9160 C   0  0  1  0  0  0  0  0  0  0  0  0
  -26.6870  -18.2660   19.8490 C   0  0  0  0  0  1  0  0  0  0  0  0
  -28.1550  -20.1900   20.0120 C   0  0  0  0  0  1  0  0  0  0  0  0
  -31.4020  -14.9760   19.2770 C   0  0  0  0  0  0  0  0  0  0  0  0
  -31.0770  -12.6590   18.2420 C   0  0  0  0  0  2  0  0  0  0  0  0
  -29.9300  -12.7040   17.1970 C   0  0  0  0  0  2  0  0  0  0  0  0
  -28.5330  -12.5680   17.8360 C   0  0  0  0  0  2  0  0  0  0  0  0
  -28.3860  -13.4350   19.1130 C   0  0  0  0  0  3  0  0  0  0  0  0
  -29.6220  -13.3000   20.0460 C   0  0  0  0  0  2  0  0  0  0  0  0
  -30.8000  -13.7130   19.2710 N   0  0  0  0  0  0  0  0  0  0  0  0
  -32.5590  -15.0060   18.8300 O   0  0  0  0  0  0  0  0  0  0  0  0
  -26.1710  -14.0780   20.2340 C   0  0  0  0  0  0  0  0  0  0  0  0
  -25.1100  -13.3450   20.6880 C   0  0  0  0  0  0  0  0  0  0  0  0
  -25.4950  -11.9830   20.5290 C   0  0  0  0  0  0  0  0  0  0  0  0
  -27.1180  -13.1700   19.7960 N   0  0  0  0  0  0  0  0  0  0  0  0
  -26.7320  -11.8960   20.0520 N   0  0  0  0  0  0  0  0  0  0  0  0
  -24.7270  -10.7560   20.7690 C   0  0  0  0  0  0  0  0  0  0  0  0
  -25.0830   -9.8610   21.7990 C   0  0  0  0  0  3  0  0  0  0  0  0
  -24.3100   -8.7030   22.0330 C   0  0  0  0  0  3  0  0  0  0  0  0
  -23.1680   -8.4420   21.2420 C   0  0  0  0  0  0  0  0  0  0  0  0
  -22.8260   -9.3320   20.2070 C   0  0  0  0  0  3  0  0  0  0  0  0
  -23.5980  -10.4810   19.9700 C   0  0  0  0  0  3  0  0  0  0  0  0
  -22.3760   -7.3300   21.3770 O   0  0  0  0  0  0  0  0  0  0  0  0
  -22.0500   -6.8240   22.6090 C   0  0  0  0  0  0  0  0  0  0  0  0
  -21.4010   -7.6070   23.5880 C   0  0  0  0  0  3  0  0  0  0  0  0
  -21.0190   -7.0250   24.8110 C   0  0  0  0  0  3  0  0  0  0  0  0
  -21.2850   -5.6670   25.0630 C   0  0  0  0  0  0  0  0  0  0  0  0
  -21.9310   -4.8860   24.0900 C   0  0  0  0  0  3  0  0  0  0  0  0
  -22.3090   -5.4610   22.8630 C   0  0  0  0  0  0  0  0  0  0  0  0
  -22.9090   -4.6960   21.9200 F   0  0  0  0  0  0  0  0  0  0  0  0
  -20.9100   -5.1100   26.2390 F   0  0  0  0  0  0  0  0  0  0  0  0
  -23.7930  -13.8950   21.1560 C   0  0  0  0  0  0  0  0  0  0  0  0
  -23.1680  -13.2200   22.1120 N   0  0  0  0  0  0  0  0  0  0  0  0
  -23.3380  -14.9570   20.7420 O   0  0  0  0  0  0  0  0  0  0  0  0
  -23.5560  -12.3730   22.4960 H   0  0  0  0  0  0  0  0  0  0  0  0
  -22.3000  -13.5680   22.4820 H   0  0  0  0  0  0  0  0  0  0  0  0
  -26.4020  -15.4300   20.1740 N   0  0  0  0  0  0  0  0  0  0  0  0
  -25.7520  -16.0330   20.6660 H   0  0  0  0  0  0  0  0  0  0  0  0
  -27.3190  -15.8350   20.0440 H   0  0  0  0  0  0  0  0  0  0  0  0
  -31.3530  -20.5590   19.4510 C   0  0  0  0  0  3  0  0  0  0  0  0
  -30.9580  -22.0830   18.8620 C   0  0  0  0  0  3  0  0  0  0  0  0
  -30.7360  -23.5350   19.6960 C   0  0  0  0  0  3  0  0  0  0  0  0
  -29.7690  -24.8290   19.2060 C   0  0  0  0  0  3  0  0  0  0  0  0
  -29.7180  -26.2390   19.8380 O   0  0  0  0  0  0  0  0  0  0  0  0
  -25.7810  -31.1290   23.6410 C   0  0  0  0  0  0  0  0  0  0  0  0
  -28.5860  -27.1370   19.8770 C   0  0  0  0  0  0  0  0  0  0  0  0
  -24.6610  -30.0890   21.6950 C   0  0  0  0  0  3  0  0  0  0  0  0
  -26.2020  -28.8110   20.0710 C   0  0  0  0  0  0  0  0  0  0  0  0
  -27.2180  -30.3770   21.7150 C   0  0  0  0  0  2  0  0  0  0  0  0
  -27.3370  -29.1430   20.8160 C   0  0  0  0  0  0  0  0  0  0  0  0
  -28.5250  -28.3240   20.7090 C   0  0  0  0  0  3  0  0  0  0  0  0
  -27.4160  -26.8920   19.1150 C   0  0  0  0  0  3  0  0  0  0  0  0
  -26.2570  -27.6970   19.2050 C   0  0  0  0  0  3  0  0  0  0  0  0
  -24.9490  -29.6590   20.2300 C   0  0  0  0  0  2  0  0  0  0  0  0
  -25.9060  -30.5440   22.4060 N   0  0  0  0  0  0  0  0  0  0  0  0
  -24.6690  -31.3120   24.1590 O   0  0  0  0  0  0  0  0  0  0  0  0
  -23.9320  -28.9360   22.4250 C   0  0  0  0  0  0  0  0  0  0  0  0
  -22.6210  -28.7840   22.1560 N   0  0  0  0  0  0  0  0  0  0  0  0
  -24.5590  -28.1740   23.1580 O   0  0  0  0  0  0  0  0  0  0  0  0
  -22.1730  -29.4170   21.5050 H   0  0  0  0  0  0  0  0  0  0  0  0
  -19.2180  -27.6060   22.1890 C   0  0  0  0  0  0  0  0  0  0  0  0
  -21.7610  -27.7240   22.6780 C   0  0  0  0  0  3  0  0  0  0  0  0
  -21.8940  -26.4300   21.8380 C   0  0  0  0  0  2  0  0  0  0  0  0
  -20.8530  -26.2540   20.7260 C   0  0  0  0  0  2  0  0  0  0  0  0
  -19.4100  -26.4490   21.2160 C   0  0  0  0  0  2  0  0  0  0  0  0
  -20.3160  -28.2040   22.8660 C   0  0  0  0  0  0  0  0  0  0  0  0
  -20.0690  -29.3190   23.7000 C   0  0  0  0  0  3  0  0  0  0  0  0
  -18.7580  -29.8030   23.8950 C   0  0  0  0  0  3  0  0  0  0  0  0
  -17.6850  -29.1780   23.2520 C   0  0  0  0  0  3  0  0  0  0  0  0
  -17.9130  -28.0840   22.3940 C   0  0  0  0  0  3  0  0  0  0  0  0
  -27.0270  -31.6060   24.4490 C   0  0  0  0  0  3  0  0  0  0  0  0
  -26.6760  -32.8830   25.0930 N   0  0  0  0  0  0  0  0  0  0  0  0
  -27.0510  -34.0890   24.6520 C   0  0  0  0  0  0  0  0  0  0  0  0
  -27.8040  -34.2410   23.6860 O   0  0  0  0  0  0  0  0  0  0  0  0
  -25.9860  -32.8430   25.8280 H   0  0  0  0  0  0  0  0  0  0  0  0
  -25.3430  -35.9330   24.6410 C   0  0  0  0  0  1  0  0  0  0  0  0
  -26.5240  -35.3240   25.4090 C   0  0  0  0  0  3  0  0  0  0  0  0
  -28.5800  -35.9350   26.5990 C   0  0  0  0  0  1  0  0  0  0  0  0
  -27.5580  -36.3570   25.6440 N   0  0  0  0  0  0  0  0  0  0  0  0
  -27.1410  -37.2220   25.9810 H   0  0  0  0  0  0  0  0  0  0  0  0
  -27.5130  -30.5630   25.5290 C   0  0  1  0  0  0  0  0  0  0  0  0
  -26.3920  -30.0720   26.4720 C   0  0  0  0  0  1  0  0  0  0  0  0
  -28.1090  -29.3110   24.8510 C   0  0  0  0  0  1  0  0  0  0  0  0
  -28.6380  -31.1770   26.4020 C   0  0  0  0  0  1  0  0  0  0  0  0
  1 51  1  0
  2  1  1  0
  3  1  1  0
  4  6  1  0
  5  4  1  0
  7  6  1  0
  8 11  1  0
  8 12  1  0
  9  5  1  0
  9  7  1  0
 10 15  1  0
 10  9  1  0
 11  1  1  0
 11 10  1  0
 12 14  1  1
 12  5  1  0
 13 12  1  0
 16 21  1  0
 17 18  1  0
 17 16  1  0
 19 18  1  0
 19 26  1  0
 19 20  1  0
 21 15  1  0
 21 20  1  0
 22 15  2  0
 23 24  2  0
 24 43  1  0
 25 24  1  0
 25 28  1  0
 26 27  1  0
 26 23  1  0
 27 25  2  0
 28 29  1  0
 29 30  2  0
 31 34  1  0
 31 30  1  0
 32 31  2  0
 33 32  1  0
 33 28  2  0
 34 35  1  0
 35 40  2  0
 35 36  1  0
 36 37  2  0
 37 38  1  0
 38 42  1  0
 39 38  2  0
 40 39  1  0
 41 40  1  0
 43 44  1  0
 44 47  1  0
 44 46  1  0
 45 43  2  0
 48 23  1  0
 48 49  1  0
 50 48  1  0
 52 51  2  0
 52 53  1  0
 54 53  2  0
 54 55  1  0
 55 57  1  0
 56 67  2  0
 57 62  1  0
 58 66  1  0
 58 68  1  0
 59 65  1  0
 59 61  1  0
 60 66  1  0
 61 60  1  0
 62 61  2  0
 63 64  1  0
 63 57  2  0
 64 59  2  0
 65 58  1  0
 66 56  1  0
 68 70  2  0
 69 68  1  0
 71 69  1  0
 72 81  2  0
 72 77  1  0
 73 69  1  0
 73 77  1  0
 74 73  1  0
 75 76  1  0
 75 74  1  0
 76 72  1  0
 77 78  2  0
 78 79  1  0
 80 79  2  0
 81 80  1  0
 82 56  1  0
 82 83  1  0
 82 92  1  0
 83 86  1  0
 84 83  1  0
 84 88  1  0
 85 84  2  0
 88 87  1  0
 88 90  1  0
 90 91  1  0
 90 89  1  0
 92 95  1  1
 92 93  1  0
 94 92  1  0
M  ISO  4  10 100  15 100  54 101  55 101
M  END
>  <TORSDO>  (84) 
F 21

>  <SCORE>  (84) 
-6.327

>  <name>  (84) 
84

>  <ligand_id>  (84) 
84

>  <original_smiles>  (84) 
[H]C1=C2C([H])(C([H])([H])C1([H])[H])C([H])(C(=O)N1C([H])([H])C([H])([H])C([H])([H])C([H])(n3nc(-c4c([H])c([H])c(Oc5c([H])c([H])c(F)c([H])c5F)c([H])c4[H])c(C(=O)N([H])[H])c3N([H])[H])C1([H])[H])C([H])([N+]([H])([H])C([H])([H])C([H])([H])C([H])([H])C([H])([H])Oc1c([H])c([H])c3c(c1[H])C([H])([H])N(C(=O)C([H])(N([H])C(=O)C([H])(N([H])C([H])([H])[H])C([H])([H])[H])C(C([H])([H])[H])(C([H])([H])[H])C([H])([H])[H])C([H])(C(=O)N([H])C1([H])c4c([H])c([H])c([H])c([H])c4C([H])([H])C([H])([H])C1([H])[H])C3([H])[H])C([H])([H])C2(C([H])([H])[H])C([H])([H])[H]

>  <smiles>  (84) 
[H]C1=C2C([H])(C([H])([H])C1([H])[H])C([H])(C(=O)N1C([H])([H])C([H])([H])C([H])([H])C([H])(n3nc(-c4c([H])c([H])c(Oc5c([H])c([H])c(F)c([H])c5F)c([H])c4[H])c(C(=O)N([H])[H])c3N([H])[H])C1([H])[H])C([H])([N+]([H])([H])C([H])([H])C([H])([H])C([H])([H])C([H])([H])Oc1c([H])c([H])c3c(c1[H])C([H])([H])N(C(=O)C([H])(N([H])C(=O)C([H])(N([H])C([H])([H])[H])C([H])([H])[H])C(C([H])([H])[H])(C([H])([H])[H])C([H])([H])[H])C([H])(C(=O)N([H])C1([H])c4c([H])c([H])c([H])c([H])c4C([H])([H])C([H])([H])C1([H])[H])C3([H])[H])C([H])([H])C2(C([H])([H])[H])C([H])([H])[H]

$$$$
85:0:0
     RDKit          3D

 93101  0  0  1  0  0  0  0  0999 V2000
  -28.2670  -22.3440   19.7130 C   0  0  0  0  0  3  0  0  0  0  0  0
  -29.1130  -24.7370   22.6410 C   0  0  0  0  0  2  0  0  0  0  0  0
  -28.3770  -23.6030   23.3540 C   0  0  0  0  0  2  0  0  0  0  0  0
  -28.9840  -24.4440   21.1490 C   0  0  0  0  0  2  0  0  0  0  0  0
  -28.1110  -22.5240   22.2950 C   0  0  0  0  0  2  0  0  0  0  0  0
  -28.9030  -22.9130   21.0260 C   0  0  0  0  0  3  0  0  0  0  0  0
  -28.5100  -20.8700   19.5620 N   0  0  0  0  0  4  0  0  0  0  0  0
  -27.8630  -20.4290   20.1970 H   0  0  0  0  0  0  0  0  0  0  0  0
  -28.2250  -20.5810   18.6380 H   0  0  0  0  0  0  0  0  0  0  0  0
  -29.8510  -20.2790   19.8610 C   0  0  0  0  0  2  0  0  0  0  0  0
  -29.7500  -18.7460   20.1480 C   0  0  0  0  0  2  0  0  0  0  0  0
  -31.0800  -18.0010   20.4880 C   0  0  0  0  0  2  0  0  0  0  0  0
  -30.8910  -16.5640   21.0960 C   0  0  0  0  0  2  0  0  0  0  0  0
  -31.5920  -15.3670   20.3900 C   0  0  0  0  0  0  0  0  0  0  0  0
  -31.3230  -13.1680   19.2700 C   0  0  0  0  0  2  0  0  0  0  0  0
  -30.3760  -13.3270   18.0610 C   0  0  0  0  0  2  0  0  0  0  0  0
  -28.8980  -13.2200   18.4890 C   0  0  0  0  0  2  0  0  0  0  0  0
  -28.5680  -14.0910   19.7320 C   0  0  0  0  0  3  0  0  0  0  0  0
  -29.6200  -13.8690   20.8420 C   0  0  0  0  0  2  0  0  0  0  0  0
  -30.9410  -14.1740   20.2730 N   0  0  0  0  0  0  0  0  0  0  0  0
  -32.7070  -15.5450   19.8880 O   0  0  0  0  0  0  0  0  0  0  0  0
  -26.2040  -14.7520   20.5110 C   0  0  0  0  0  0  0  0  0  0  0  0
  -25.1090  -14.0010   20.8420 C   0  0  0  0  0  0  0  0  0  0  0  0
  -25.5120  -12.6360   20.7120 C   0  0  0  0  0  0  0  0  0  0  0  0
  -27.2100  -13.8450   20.2100 N   0  0  0  0  0  0  0  0  0  0  0  0
  -26.7960  -12.5640   20.3870 N   0  0  0  0  0  0  0  0  0  0  0  0
  -24.7360  -11.3960   20.8210 C   0  0  0  0  0  0  0  0  0  0  0  0
  -25.1000  -10.3720   21.7260 C   0  0  0  0  0  3  0  0  0  0  0  0
  -24.3250   -9.1980   21.8270 C   0  0  0  0  0  3  0  0  0  0  0  0
  -23.1700   -9.0380   21.0230 C   0  0  0  0  0  0  0  0  0  0  0  0
  -22.8270  -10.0490   20.1080 C   0  0  0  0  0  3  0  0  0  0  0  0
  -23.6030  -11.2150   20.0040 C   0  0  0  0  0  3  0  0  0  0  0  0
  -22.3720   -7.9200   21.0350 O   0  0  0  0  0  0  0  0  0  0  0  0
  -22.1530   -7.2030   22.1850 C   0  0  0  0  0  0  0  0  0  0  0  0
  -21.5860   -7.7960   23.3360 C   0  0  0  0  0  3  0  0  0  0  0  0
  -21.3130   -7.0080   24.4700 C   0  0  0  0  0  3  0  0  0  0  0  0
  -21.5980   -5.6300   24.4560 C   0  0  0  0  0  0  0  0  0  0  0  0
  -22.1580   -5.0360   23.3120 C   0  0  0  0  0  3  0  0  0  0  0  0
  -22.4310   -5.8220   22.1770 C   0  0  0  0  0  0  0  0  0  0  0  0
  -22.9490   -5.2410   21.0680 F   0  0  0  0  0  0  0  0  0  0  0  0
  -21.3300   -4.8690   25.5440 F   0  0  0  0  0  0  0  0  0  0  0  0
  -23.7350  -14.5160   21.1630 C   0  0  0  0  0  0  0  0  0  0  0  0
  -22.9880  -13.7940   21.9900 N   0  0  0  0  0  0  0  0  0  0  0  0
  -23.3320  -15.5890   20.7160 O   0  0  0  0  0  0  0  0  0  0  0  0
  -23.3260  -12.9240   22.3750 H   0  0  0  0  0  0  0  0  0  0  0  0
  -22.0650  -14.1170   22.2440 H   0  0  0  0  0  0  0  0  0  0  0  0
  -26.4230  -16.1230   20.4180 N   0  0  0  0  0  0  0  0  0  0  0  0
  -25.6810  -16.7970   20.5740 H   0  0  0  0  0  0  0  0  0  0  0  0
  -27.2860  -16.5500   20.1060 H   0  0  0  0  0  0  0  0  0  0  0  0
  -28.5360  -23.1520   18.3950 C   0  0  0  0  0  3  0  0  0  0  0  0
  -28.1790  -24.6720   18.4520 C   0  0  0  0  0  3  0  0  0  0  0  0
  -28.1530  -25.4450   17.1120 C   0  0  0  0  0  2  0  0  0  0  0  0
  -27.9910  -26.8610   17.3230 O   0  0  0  0  0  0  0  0  0  0  0  0
  -24.5730  -30.6430   22.3240 C   0  0  0  0  0  0  0  0  0  0  0  0
  -26.7830  -27.4020   17.7280 C   0  0  0  0  0  0  0  0  0  0  0  0
  -23.1460  -29.6140   20.5870 C   0  0  0  0  0  3  0  0  0  0  0  0
  -24.3700  -28.6280   18.5800 C   0  0  0  0  0  0  0  0  0  0  0  0
  -25.5800  -30.2250   20.0790 C   0  0  0  0  0  2  0  0  0  0  0  0
  -25.5960  -29.0780   19.0840 C   0  0  0  0  0  0  0  0  0  0  0  0
  -26.8010  -28.4690   18.6590 C   0  0  0  0  0  3  0  0  0  0  0  0
  -25.5310  -26.9530   17.2470 C   0  0  0  0  0  3  0  0  0  0  0  0
  -24.3330  -27.5620   17.6660 C   0  0  0  0  0  3  0  0  0  0  0  0
  -23.1250  -29.3360   19.0610 C   0  0  0  0  0  2  0  0  0  0  0  0
  -24.4620  -30.1620   21.0520 N   0  0  0  0  0  0  0  0  0  0  0  0
  -23.5990  -30.6710   23.0870 O   0  0  0  0  0  0  0  0  0  0  0  0
  -22.7210  -28.3280   21.3300 C   0  0  0  0  0  0  0  0  0  0  0  0
  -21.4150  -28.0150   21.2870 N   0  0  0  0  0  0  0  0  0  0  0  0
  -23.5580  -27.6210   21.9000 O   0  0  0  0  0  0  0  0  0  0  0  0
  -20.7950  -28.6500   20.8060 H   0  0  0  0  0  0  0  0  0  0  0  0
  -18.2750  -26.2790   21.7100 C   0  0  0  0  0  0  0  0  0  0  0  0
  -20.7950  -26.8310   21.8780 C   0  0  0  0  0  3  0  0  0  0  0  0
  -21.0220  -25.5820   20.9960 C   0  0  0  0  0  2  0  0  0  0  0  0
  -19.8820  -25.3280   20.0040 C   0  0  0  0  0  2  0  0  0  0  0  0
  -18.5570  -25.1390   20.7460 C   0  0  0  0  0  2  0  0  0  0  0  0
  -19.3230  -27.0840   22.2280 C   0  0  0  0  0  0  0  0  0  0  0  0
  -19.0040  -28.1530   23.0930 C   0  0  0  0  0  3  0  0  0  0  0  0
  -17.6660  -28.4190   23.4430 C   0  0  0  0  0  3  0  0  0  0  0  0
  -16.6340  -27.6090   22.9400 C   0  0  0  0  0  3  0  0  0  0  0  0
  -16.9380  -26.5400   22.0780 C   0  0  0  0  0  3  0  0  0  0  0  0
  -25.9240  -31.2010   22.8690 C   0  0  0  0  0  3  0  0  0  0  0  0
  -26.7460  -30.1390   23.6980 C   0  0  1  0  0  0  0  0  0  0  0  0
  -25.9230  -29.4430   24.8070 C   0  0  0  0  0  1  0  0  0  0  0  0
  -27.3090  -29.0380   22.7680 C   0  0  0  0  0  1  0  0  0  0  0  0
  -27.9690  -30.8210   24.3590 C   0  0  0  0  0  1  0  0  0  0  0  0
  -25.6180  -32.3780   23.6930 N   0  0  0  0  0  0  0  0  0  0  0  0
  -25.8060  -33.6470   23.3050 C   0  0  0  0  0  0  0  0  0  0  0  0
  -26.3320  -33.9480   22.2300 O   0  0  0  0  0  0  0  0  0  0  0  0
  -25.1340  -32.2070   24.5620 H   0  0  0  0  0  0  0  0  0  0  0  0
  -24.0270  -35.3670   23.7420 C   0  0  0  0  0  1  0  0  0  0  0  0
  -25.3390  -34.7600   24.2620 C   0  0  0  0  0  3  0  0  0  0  0  0
  -27.5200  -35.3890   25.1980 C   0  0  0  0  0  1  0  0  0  0  0  0
  -26.3430  -35.8290   24.4550 N   0  0  0  0  0  0  0  0  0  0  0  0
  -25.9360  -36.6210   24.9450 H   0  0  0  0  0  0  0  0  0  0  0  0
  1 50  1  0
  1  6  1  0
  2  3  1  0
  4  2  1  0
  5  3  1  0
  6  4  1  0
  6  5  1  0
  7  1  1  0
  7 10  1  0
  7  8  1  0
  9  7  1  0
 10 11  1  0
 11 12  1  0
 12 13  1  0
 14 13  1  0
 15 20  1  0
 16 17  1  0
 16 15  1  0
 18 17  1  0
 18 25  1  0
 18 19  1  0
 20 14  1  0
 20 19  1  0
 21 14  2  0
 22 23  2  0
 23 42  1  0
 24 27  1  0
 24 23  1  0
 25 26  1  0
 25 22  1  0
 26 24  2  0
 27 28  1  0
 28 29  2  0
 30 33  1  0
 30 29  1  0
 31 30  2  0
 32 31  1  0
 32 27  2  0
 33 34  1  0
 34 35  1  0
 35 36  2  0
 37 36  1  0
 37 41  1  0
 38 37  2  0
 39 34  2  0
 39 38  1  0
 40 39  1  0
 42 43  1  0
 43 46  1  0
 43 45  1  0
 44 42  2  0
 47 22  1  0
 47 48  1  0
 49 47  1  0
 50 51  2  0
 52 53  1  0
 52 51  1  0
 53 55  1  0
 54 65  2  0
 55 60  1  0
 56 64  1  0
 56 66  1  0
 57 63  1  0
 57 59  1  0
 58 64  1  0
 59 58  1  0
 60 59  2  0
 61 62  1  0
 61 55  2  0
 62 57  2  0
 63 56  1  0
 64 54  1  0
 66 68  2  0
 67 66  1  0
 69 67  1  0
 70 79  2  0
 70 75  1  0
 71 67  1  0
 71 75  1  0
 72 71  1  0
 73 74  1  0
 73 72  1  0
 74 70  1  0
 75 76  2  0
 76 77  1  0
 78 77  2  0
 79 78  1  0
 80 54  1  0
 80 85  1  0
 80 81  1  0
 81 84  1  1
 81 82  1  0
 83 81  1  0
 85 88  1  0
 86 85  1  0
 86 90  1  0
 87 86  2  0
 90 89  1  0
 90 92  1  0
 92 93  1  0
 92 91  1  0
M  ISO  4  13 100  14 100  52 101  53 101
M  END
>  <TORSDO>  (85) 
F 25

>  <SCORE>  (85) 
-6.294

>  <name>  (85) 
85

>  <ligand_id>  (85) 
85

>  <original_smiles>  (85) 
[H]c1c([H])c([H])c2c(c1[H])C([H])([H])C([H])([H])C([H])([H])C2([H])N([H])C(=O)C1([H])N(C(=O)C([H])(N([H])C(=O)C([H])(N([H])C([H])([H])[H])C([H])([H])[H])C(C([H])([H])[H])(C([H])([H])[H])C([H])([H])[H])C([H])([H])c2c([H])c(OC([H])([H])C([H])([H])C([H])([H])C([H])(C3([H])C([H])([H])C([H])([H])C([H])([H])C3([H])[H])[N+]([H])([H])C([H])([H])C([H])([H])C([H])([H])C([H])([H])C(=O)N3C([H])([H])C([H])([H])C([H])([H])C([H])(n4nc(-c5c([H])c([H])c(Oc6c([H])c([H])c(F)c([H])c6F)c([H])c5[H])c(C(=O)N([H])[H])c4N([H])[H])C3([H])[H])c([H])c([H])c2C1([H])[H]

>  <smiles>  (85) 
[H]c1c([H])c([H])c2c(c1[H])C([H])([H])C([H])([H])C([H])([H])C2([H])N([H])C(=O)C1([H])N(C(=O)C([H])(N([H])C(=O)C([H])(N([H])C([H])([H])[H])C([H])([H])[H])C(C([H])([H])[H])(C([H])([H])[H])C([H])([H])[H])C([H])([H])c2c([H])c(OC([H])([H])C([H])([H])C([H])([H])C([H])(C3([H])C([H])([H])C([H])([H])C([H])([H])C3([H])[H])[N+]([H])([H])C([H])([H])C([H])([H])C([H])([H])C([H])([H])C(=O)N3C([H])([H])C([H])([H])C([H])([H])C([H])(n4nc(-c5c([H])c([H])c(Oc6c([H])c([H])c(F)c([H])c6F)c([H])c5[H])c(C(=O)N([H])[H])c4N([H])[H])C3([H])[H])c([H])c([H])c2C1([H])[H]

$$$$
86:0:0
     RDKit          3D

 84 92  0  0  1  0  0  0  0  0999 V2000
  -30.2130  -22.7570   20.5520 C   0  0  0  0  0  2  0  0  0  0  0  0
  -28.9210  -22.4680   20.3350 C   0  0  0  0  0  0  0  0  0  0  0  0
  -28.6150  -20.6720   20.2460 C   0  0  0  0  0  2  0  0  0  0  0  0
  -29.5010  -18.1010   19.1410 C   0  0  0  0  0  2  0  0  0  0  0  0
  -29.3820  -17.1770   20.3380 C   0  0  0  0  0  3  0  0  0  0  0  0
  -29.5800  -19.0570   20.3150 C   0  0  0  0  0  3  0  0  0  0  0  0
  -30.2790  -15.5900   20.1950 C   0  0  0  0  0  0  0  0  0  0  0  0
  -30.3750  -13.0710   19.3670 C   0  0  0  0  0  2  0  0  0  0  0  0
  -29.4740  -12.7610   18.1380 C   0  0  0  0  0  2  0  0  0  0  0  0
  -28.0380  -12.4250   18.5770 C   0  0  0  0  0  2  0  0  0  0  0  0
  -27.5450  -13.3970   19.6740 C   0  0  0  0  0  3  0  0  0  0  0  0
  -28.5790  -13.6390   20.7950 C   0  0  0  0  0  2  0  0  0  0  0  0
  -29.7840  -14.2250   20.1710 N   0  0  0  0  0  0  0  0  0  0  0  0
  -31.5000  -15.5590   19.9600 O   0  0  0  0  0  0  0  0  0  0  0  0
  -25.1760  -13.9060   20.4440 C   0  0  0  0  0  0  0  0  0  0  0  0
  -24.1260  -13.1140   20.8120 C   0  0  0  0  0  0  0  0  0  0  0  0
  -24.6120  -11.7700   20.7790 C   0  0  0  0  0  0  0  0  0  0  0  0
  -26.2290  -13.0480   20.1930 N   0  0  0  0  0  0  0  0  0  0  0  0
  -25.9050  -11.7550   20.4640 N   0  0  0  0  0  0  0  0  0  0  0  0
  -23.9000  -10.4980   20.9690 C   0  0  0  0  0  0  0  0  0  0  0  0
  -24.3270   -9.5430   21.9170 C   0  0  0  0  0  3  0  0  0  0  0  0
  -23.6110   -8.3400   22.0960 C   0  0  0  0  0  3  0  0  0  0  0  0
  -22.4520   -8.0830   21.3250 C   0  0  0  0  0  0  0  0  0  0  0  0
  -22.0430   -9.0260   20.3670 C   0  0  0  0  0  3  0  0  0  0  0  0
  -22.7600  -10.2210   20.1860 C   0  0  0  0  0  3  0  0  0  0  0  0
  -21.7070   -6.9300   21.4120 O   0  0  0  0  0  0  0  0  0  0  0  0
  -21.6330   -6.2070   22.5760 C   0  0  0  0  0  0  0  0  0  0  0  0
  -21.1460   -6.7710   23.7750 C   0  0  0  0  0  3  0  0  0  0  0  0
  -21.0220   -5.9730   24.9290 C   0  0  0  0  0  3  0  0  0  0  0  0
  -21.3750   -4.6110   24.8850 C   0  0  0  0  0  0  0  0  0  0  0  0
  -21.8540   -4.0450   23.6910 C   0  0  0  0  0  3  0  0  0  0  0  0
  -21.9790   -4.8410   22.5390 C   0  0  0  0  0  0  0  0  0  0  0  0
  -22.4220   -4.2860   21.3850 F   0  0  0  0  0  0  0  0  0  0  0  0
  -21.2480   -3.8410   25.9920 F   0  0  0  0  0  0  0  0  0  0  0  0
  -22.7230  -13.5730   21.0800 C   0  0  0  0  0  0  0  0  0  0  0  0
  -22.0050  -12.8730   21.9490 N   0  0  0  0  0  0  0  0  0  0  0  0
  -22.2730  -14.5900   20.5520 O   0  0  0  0  0  0  0  0  0  0  0  0
  -22.3830  -12.0520   22.3980 H   0  0  0  0  0  0  0  0  0  0  0  0
  -21.0620  -13.1630   22.1710 H   0  0  0  0  0  0  0  0  0  0  0  0
  -25.3200  -15.2790   20.2710 N   0  0  0  0  0  0  0  0  0  0  0  0
  -24.5450  -15.9240   20.3890 H   0  0  0  0  0  0  0  0  0  0  0  0
  -26.1630  -15.7310   19.9410 H   0  0  0  0  0  0  0  0  0  0  0  0
  -27.8900  -23.9670   20.1990 C   0  0  0  0  0  2  0  0  0  0  0  0
  -28.1560  -25.6660   20.3390 O   0  0  0  0  0  0  0  0  0  0  0  0
  -24.6780  -31.8880   23.2640 C   0  0  0  0  0  0  0  0  0  0  0  0
  -27.1840  -26.8540   20.2780 C   0  0  0  0  0  0  0  0  0  0  0  0
  -23.4810  -30.4980   21.6270 C   0  0  0  0  0  3  0  0  0  0  0  0
  -24.9200  -28.8530   20.2150 C   0  0  0  0  0  0  0  0  0  0  0  0
  -26.0580  -30.6460   21.5010 C   0  0  0  0  0  2  0  0  0  0  0  0
  -26.1150  -29.2190   20.8470 C   0  0  0  0  0  0  0  0  0  0  0  0
  -27.2350  -28.2460   20.8470 C   0  0  0  0  0  3  0  0  0  0  0  0
  -25.9570  -26.6790   19.5940 C   0  0  0  0  0  3  0  0  0  0  0  0
  -24.8760  -27.6080   19.5650 C   0  0  0  0  0  3  0  0  0  0  0  0
  -23.7150  -29.8020   20.2560 C   0  0  0  0  0  2  0  0  0  0  0  0
  -24.7630  -31.0410   22.1840 N   0  0  0  0  0  0  0  0  0  0  0  0
  -23.5880  -32.1930   23.7770 O   0  0  0  0  0  0  0  0  0  0  0  0
  -22.7630  -29.5210   22.5960 C   0  0  0  0  0  0  0  0  0  0  0  0
  -21.4300  -29.3720   22.4690 N   0  0  0  0  0  0  0  0  0  0  0  0
  -23.4150  -28.8950   23.4350 O   0  0  0  0  0  0  0  0  0  0  0  0
  -20.9550  -29.9270   21.7710 H   0  0  0  0  0  0  0  0  0  0  0  0
  -18.0360  -28.1790   22.9690 C   0  0  0  0  0  0  0  0  0  0  0  0
  -20.5970  -28.4430   23.2410 C   0  0  0  0  0  3  0  0  0  0  0  0
  -20.6960  -27.0070   22.6750 C   0  0  0  0  0  2  0  0  0  0  0  0
  -19.5990  -26.6810   21.6570 C   0  0  0  0  0  2  0  0  0  0  0  0
  -18.2140  -26.8290   22.2940 C   0  0  0  0  0  2  0  0  0  0  0  0
  -19.1540  -28.9440   23.3980 C   0  0  0  0  0  0  0  0  0  0  0  0
  -18.9310  -30.2040   23.9930 C   0  0  0  0  0  3  0  0  0  0  0  0
  -17.6230  -30.7010   24.1600 C   0  0  0  0  0  3  0  0  0  0  0  0
  -16.5210  -29.9350   23.7430 C   0  0  0  0  0  3  0  0  0  0  0  0
  -16.7280  -28.6750   23.1530 C   0  0  0  0  0  3  0  0  0  0  0  0
  -25.9480  -32.5280   23.9040 C   0  0  0  0  0  3  0  0  0  0  0  0
  -26.4370  -31.7660   25.1980 C   0  0  1  0  0  0  0  0  0  0  0  0
  -25.3290  -31.5520   26.2550 C   0  0  0  0  0  1  0  0  0  0  0  0
  -27.0120  -30.3770   24.8400 C   0  0  0  0  0  1  0  0  0  0  0  0
  -27.5880  -32.5560   25.8660 C   0  0  0  0  0  1  0  0  0  0  0  0
  -25.6350  -33.9320   24.2380 N   0  0  0  0  0  0  0  0  0  0  0  0
  -25.9450  -34.9920   23.4800 C   0  0  0  0  0  0  0  0  0  0  0  0
  -26.5830  -34.8920   22.4290 O   0  0  0  0  0  0  0  0  0  0  0  0
  -25.0630  -34.0820   25.0560 H   0  0  0  0  0  0  0  0  0  0  0  0
  -24.1920  -36.7840   23.2200 C   0  0  0  0  0  1  0  0  0  0  0  0
  -25.4780  -36.3830   23.9610 C   0  0  0  0  0  3  0  0  0  0  0  0
  -27.6480  -37.2890   24.6740 C   0  0  0  0  0  1  0  0  0  0  0  0
  -26.4970  -37.4410   23.7870 N   0  0  0  0  0  0  0  0  0  0  0  0
  -26.0940  -38.3600   23.9470 H   0  0  0  0  0  0  0  0  0  0  0  0
  2  1  2  0
  3  2  1  0
  4  6  1  0
  4  5  1  0
  5  7  1  0
  6  3  1  0
  6  5  1  0
  8 13  1  0
  9 10  1  0
  9  8  1  0
 11 10  1  0
 11 18  1  0
 11 12  1  0
 13  7  1  0
 13 12  1  0
 14  7  2  0
 15 16  2  0
 16 35  1  0
 17 16  1  0
 17 20  1  0
 18 15  1  0
 18 19  1  0
 19 17  2  0
 20 21  1  0
 21 22  2  0
 23 26  1  0
 23 22  1  0
 24 23  2  0
 25 24  1  0
 25 20  2  0
 26 27  1  0
 27 28  1  0
 28 29  2  0
 30 29  1  0
 30 34  1  0
 31 30  2  0
 32 27  2  0
 32 31  1  0
 33 32  1  0
 35 36  1  0
 36 39  1  0
 36 38  1  0
 37 35  2  0
 40 41  1  0
 40 15  1  0
 42 40  1  0
 43  2  1  0
 43 44  1  0
 45 56  2  0
 46 44  1  0
 46 51  1  0
 47 55  1  0
 47 57  1  0
 48 54  1  0
 48 50  1  0
 49 55  1  0
 50 49  1  0
 51 50  2  0
 52 46  2  0
 53 52  1  0
 53 48  2  0
 54 47  1  0
 55 45  1  0
 57 59  2  0
 58 57  1  0
 60 58  1  0
 61 70  2  0
 61 66  1  0
 62 58  1  0
 62 66  1  0
 63 62  1  0
 64 65  1  0
 64 63  1  0
 65 61  1  0
 66 67  2  0
 67 68  1  0
 69 68  2  0
 70 69  1  0
 71 45  1  0
 71 76  1  0
 71 72  1  0
 72 75  1  1
 72 73  1  0
 74 72  1  0
 76 79  1  0
 77 81  1  0
 77 76  1  0
 78 77  2  0
 81 80  1  0
 83 84  1  0
 83 81  1  0
 83 82  1  0
M  ISO  4   5 100   7 100  43 101  44 101
M  END
>  <TORSDO>  (86) 
F 19

>  <SCORE>  (86) 
-16.407

>  <name>  (86) 
86

>  <ligand_id>  (86) 
86

>  <original_smiles>  (86) 
[H]C([H])=C(C([H])([H])Oc1c([H])c([H])c2c(c1[H])C([H])([H])N(C(=O)C([H])(N([H])C(=O)C([H])(N([H])C([H])([H])[H])C([H])([H])[H])C(C([H])([H])[H])(C([H])([H])[H])C([H])([H])[H])C([H])(C(=O)N([H])C1([H])c3c([H])c([H])c([H])c([H])c3C([H])([H])C([H])([H])C1([H])[H])C2([H])[H])C([H])([H])C1([H])C([H])([H])C1([H])C(=O)N1C([H])([H])C([H])([H])C([H])([H])C([H])(n2nc(-c3c([H])c([H])c(Oc4c([H])c([H])c(F)c([H])c4F)c([H])c3[H])c(C(=O)N([H])[H])c2N([H])[H])C1([H])[H]

>  <smiles>  (86) 
[H]C([H])=C(C([H])([H])Oc1c([H])c([H])c2c(c1[H])C([H])([H])N(C(=O)C([H])(N([H])C(=O)C([H])(N([H])C([H])([H])[H])C([H])([H])[H])C(C([H])([H])[H])(C([H])([H])[H])C([H])([H])[H])C([H])(C(=O)N([H])C1([H])c3c([H])c([H])c([H])c([H])c3C([H])([H])C([H])([H])C1([H])[H])C2([H])[H])C([H])([H])C1([H])C([H])([H])C1([H])C(=O)N1C([H])([H])C([H])([H])C([H])([H])C([H])(n2nc(-c3c([H])c([H])c(Oc4c([H])c([H])c(F)c([H])c4F)c([H])c3[H])c(C(=O)N([H])[H])c2N([H])[H])C1([H])[H]

$$$$
87:0:0
     RDKit          3D

 93101  0  0  1  0  0  0  0  0999 V2000
  -28.2520  -18.7140   17.7690 C   0  0  0  0  0  2  0  0  0  0  0  0
  -28.5890  -19.0500   19.0260 C   0  0  0  0  0  0  0  0  0  0  0  0
  -30.9520  -17.8980   19.2740 C   0  0  0  0  0  2  0  0  0  0  0  0
  -29.6110  -18.3190   19.8350 C   0  0  0  0  0  3  0  0  0  0  0  0
  -29.9130  -16.8490   19.5890 C   0  0  0  0  0  3  0  0  0  0  0  0
  -30.0480  -15.8990   20.7720 C   0  0  0  0  0  3  0  0  0  0  0  0
  -28.5920  -14.6680   22.4050 C   0  0  0  0  0  1  0  0  0  0  0  0
  -28.7170  -15.3160   21.0830 N   0  0  0  0  0  4  0  0  0  0  0  0
  -28.0470  -16.0710   21.0780 H   0  0  0  0  0  0  0  0  0  0  0  0
  -28.4080  -14.6740   20.3730 H   0  0  0  0  0  0  0  0  0  0  0  0
  -31.2020  -14.8500   20.6430 C   0  0  0  0  0  2  0  0  0  0  0  0
  -31.2830  -13.9650   19.3770 C   0  0  0  0  0  0  0  0  0  0  0  0
  -30.6000  -11.9500   18.1150 C   0  0  0  0  0  2  0  0  0  0  0  0
  -29.5050  -12.2720   17.0830 C   0  0  0  0  0  2  0  0  0  0  0  0
  -28.1080  -12.2060   17.7300 C   0  0  0  0  0  2  0  0  0  0  0  0
  -28.0340  -13.0170   19.0470 C   0  0  0  0  0  3  0  0  0  0  0  0
  -29.2170  -12.6620   19.9780 C   0  0  0  0  0  2  0  0  0  0  0  0
  -30.4650  -12.8890   19.2370 N   0  0  0  0  0  0  0  0  0  0  0  0
  -32.1770  -14.2150   18.5600 O   0  0  0  0  0  0  0  0  0  0  0  0
  -25.8380  -13.7990   20.1450 C   0  0  0  0  0  0  0  0  0  0  0  0
  -24.7700  -13.1040   20.6470 C   0  0  0  0  0  0  0  0  0  0  0  0
  -25.0880  -11.7220   20.4840 C   0  0  0  0  0  0  0  0  0  0  0  0
  -26.7440  -12.8420   19.7120 N   0  0  0  0  0  0  0  0  0  0  0  0
  -26.3050  -11.5870   19.9740 N   0  0  0  0  0  0  0  0  0  0  0  0
  -24.2840  -10.5170   20.7330 C   0  0  0  0  0  0  0  0  0  0  0  0
  -24.7120   -9.5190   21.6350 C   0  0  0  0  0  3  0  0  0  0  0  0
  -23.9170   -8.3780   21.8710 C   0  0  0  0  0  3  0  0  0  0  0  0
  -22.6770   -8.2260   21.2050 C   0  0  0  0  0  0  0  0  0  0  0  0
  -22.2670   -9.2100   20.2880 C   0  0  0  0  0  3  0  0  0  0  0  0
  -23.0640  -10.3430   20.0510 C   0  0  0  0  0  3  0  0  0  0  0  0
  -21.8500   -7.1390   21.3520 O   0  0  0  0  0  0  0  0  0  0  0  0
  -21.7650   -6.4530   22.5370 C   0  0  0  0  0  0  0  0  0  0  0  0
  -21.3970   -7.0920   23.7430 C   0  0  0  0  0  3  0  0  0  0  0  0
  -21.2540   -6.3360   24.9240 C   0  0  0  0  0  3  0  0  0  0  0  0
  -21.4700   -4.9450   24.9010 C   0  0  0  0  0  0  0  0  0  0  0  0
  -21.8340   -4.3080   23.7020 C   0  0  0  0  0  3  0  0  0  0  0  0
  -21.9780   -5.0600   22.5220 C   0  0  0  0  0  0  0  0  0  0  0  0
  -22.3070   -4.4380   21.3650 F   0  0  0  0  0  0  0  0  0  0  0  0
  -21.3260   -4.2180   26.0340 F   0  0  0  0  0  0  0  0  0  0  0  0
  -23.4820  -13.6850   21.1500 C   0  0  0  0  0  0  0  0  0  0  0  0
  -22.8530  -13.0340   22.1220 N   0  0  0  0  0  0  0  0  0  0  0  0
  -23.0480  -14.7500   20.7130 O   0  0  0  0  0  0  0  0  0  0  0  0
  -23.2230  -12.1750   22.4990 H   0  0  0  0  0  0  0  0  0  0  0  0
  -21.9890  -13.4020   22.4940 H   0  0  0  0  0  0  0  0  0  0  0  0
  -26.1220  -15.1550   20.0000 N   0  0  0  0  0  0  0  0  0  0  0  0
  -25.3150  -15.7480   20.1650 H   0  0  0  0  0  0  0  0  0  0  0  0
  -26.5530  -15.4020   19.1150 H   0  0  0  0  0  0  0  0  0  0  0  0
  -27.9300  -20.2250   19.7240 C   0  0  0  0  0  2  0  0  0  0  0  0
  -28.7450  -21.5210   19.5910 C   0  0  0  0  0  2  0  0  0  0  0  0
  -28.1050  -22.6850   20.3620 C   0  0  0  0  0  2  0  0  0  0  0  0
  -28.6030  -24.0720   19.9210 C   0  0  0  0  0  2  0  0  0  0  0  0
  -28.1960  -25.1630   20.9230 C   0  0  0  0  0  2  0  0  0  0  0  0
  -28.4110  -26.4730   20.3930 O   0  0  0  0  0  0  0  0  0  0  0  0
  -24.5440  -31.7410   23.1450 C   0  0  0  0  0  0  0  0  0  0  0  0
  -27.2680  -27.2240   20.2850 C   0  0  0  0  0  0  0  0  0  0  0  0
  -23.4010  -30.3360   21.4590 C   0  0  0  0  0  3  0  0  0  0  0  0
  -24.9030  -28.7540   20.1360 C   0  0  0  0  0  0  0  0  0  0  0  0
  -25.9390  -30.6510   21.3950 C   0  0  0  0  0  2  0  0  0  0  0  0
  -26.0360  -29.2730   20.7770 C   0  0  0  0  0  0  0  0  0  0  0  0
  -27.2240  -28.5180   20.8440 C   0  0  0  0  0  3  0  0  0  0  0  0
  -26.1250  -26.7120   19.6360 C   0  0  0  0  0  3  0  0  0  0  0  0
  -24.9420  -27.4720   19.5580 C   0  0  0  0  0  3  0  0  0  0  0  0
  -23.6720  -29.6290   20.1020 C   0  0  0  0  0  2  0  0  0  0  0  0
  -24.6430  -30.9240   22.0580 N   0  0  0  0  0  0  0  0  0  0  0  0
  -23.4410  -32.0440   23.6210 O   0  0  0  0  0  0  0  0  0  0  0  0
  -22.6780  -29.3450   22.3980 C   0  0  0  0  0  0  0  0  0  0  0  0
  -21.3460  -29.2580   22.2600 N   0  0  0  0  0  0  0  0  0  0  0  0
  -23.3120  -28.6590   23.2020 O   0  0  0  0  0  0  0  0  0  0  0  0
  -20.9020  -29.8550   21.5770 H   0  0  0  0  0  0  0  0  0  0  0  0
  -17.8830  -28.3790   22.7990 C   0  0  0  0  0  0  0  0  0  0  0  0
  -20.4600  -28.3670   23.0070 C   0  0  0  0  0  3  0  0  0  0  0  0
  -20.4050  -26.9650   22.3560 C   0  0  0  0  0  2  0  0  0  0  0  0
  -19.2510  -26.8080   21.3600 C   0  0  0  0  0  2  0  0  0  0  0  0
  -17.9080  -27.0540   22.0520 C   0  0  0  0  0  2  0  0  0  0  0  0
  -19.0830  -29.0020   23.2330 C   0  0  0  0  0  0  0  0  0  0  0  0
  -19.0080  -30.2470   23.8920 C   0  0  0  0  0  3  0  0  0  0  0  0
  -17.7670  -30.8680   24.1210 C   0  0  0  0  0  3  0  0  0  0  0  0
  -16.5800  -30.2390   23.7030 C   0  0  0  0  0  3  0  0  0  0  0  0
  -16.6400  -28.9960   23.0490 C   0  0  0  0  0  3  0  0  0  0  0  0
  -25.8090  -32.3520   23.8250 C   0  0  0  0  0  3  0  0  0  0  0  0
  -26.2610  -31.5680   25.1170 C   0  0  1  0  0  0  0  0  0  0  0  0
  -25.1210  -31.3490   26.1380 C   0  0  0  0  0  1  0  0  0  0  0  0
  -26.8360  -30.1820   24.7420 C   0  0  0  0  0  1  0  0  0  0  0  0
  -27.3960  -32.3400   25.8310 C   0  0  0  0  0  1  0  0  0  0  0  0
  -25.5050  -33.7530   24.1470 N   0  0  0  0  0  0  0  0  0  0  0  0
  -25.8790  -34.8010   23.4020 C   0  0  0  0  0  0  0  0  0  0  0  0
  -26.5890  -34.6920   22.3990 O   0  0  0  0  0  0  0  0  0  0  0  0
  -24.8780  -33.9130   24.9220 H   0  0  0  0  0  0  0  0  0  0  0  0
  -24.1750  -36.6010   22.9870 C   0  0  0  0  0  1  0  0  0  0  0  0
  -25.3860  -36.1940   23.8400 C   0  0  0  0  0  3  0  0  0  0  0  0
  -27.4960  -37.0680   24.7390 C   0  0  0  0  0  1  0  0  0  0  0  0
  -26.4290  -37.2380   23.7580 N   0  0  0  0  0  0  0  0  0  0  0  0
  -26.0240  -38.1620   23.8860 H   0  0  0  0  0  0  0  0  0  0  0  0
  1  2  2  0
  2 48  1  0
  3  5  1  0
  3  4  1  0
  4  2  1  0
  5  4  1  0
  5  6  1  0
  6 11  1  0
  6  8  1  0
  8  7  1  0
  9  8  1  0
 10  8  1  0
 12 11  1  0
 13 18  1  0
 14 15  1  0
 14 13  1  0
 16 15  1  0
 16 23  1  0
 16 17  1  0
 18 12  1  0
 18 17  1  0
 19 12  2  0
 20 21  2  0
 21 40  1  0
 22 21  1  0
 22 25  1  0
 23 24  1  0
 23 20  1  0
 24 22  2  0
 25 26  1  0
 26 27  2  0
 28 31  1  0
 28 27  1  0
 29 28  2  0
 30 29  1  0
 30 25  2  0
 31 32  1  0
 32 33  1  0
 33 34  2  0
 35 34  1  0
 35 39  1  0
 36 35  2  0
 37 32  2  0
 37 36  1  0
 38 37  1  0
 40 41  1  0
 41 44  1  0
 41 43  1  0
 42 40  2  0
 45 20  1  0
 45 46  1  0
 47 45  1  0
 49 48  1  0
 49 50  1  0
 51 50  1  0
 51 52  1  0
 53 52  1  0
 54 65  2  0
 55 53  1  0
 55 60  1  0
 56 64  1  0
 56 66  1  0
 57 59  1  0
 58 64  1  0
 59 60  2  0
 59 58  1  0
 61 55  2  0
 62 61  1  0
 62 57  2  0
 63 57  1  0
 63 56  1  0
 64 54  1  0
 66 68  2  0
 67 66  1  0
 69 67  1  0
 70 79  2  0
 70 75  1  0
 71 67  1  0
 71 75  1  0
 72 71  1  0
 73 74  1  0
 73 72  1  0
 74 70  1  0
 75 76  2  0
 76 77  1  0
 78 77  2  0
 79 78  1  0
 80 54  1  0
 80 85  1  0
 80 81  1  0
 81 84  1  1
 81 82  1  0
 83 81  1  0
 85 88  1  0
 86 90  1  0
 86 85  1  0
 87 86  2  0
 90 89  1  0
 92 90  1  0
 92 93  1  0
 92 91  1  0
M  ISO  4  11 100  12 100  52 101  53 101
M  END
>  <TORSDO>  (87) 
F 25

>  <SCORE>  (87) 
-8.717

>  <name>  (87) 
87

>  <ligand_id>  (87) 
87

>  <original_smiles>  (87) 
[H]C([H])=C(C([H])([H])C([H])([H])C([H])([H])C([H])([H])C([H])([H])Oc1c([H])c([H])c2c(c1[H])C([H])([H])N(C(=O)C([H])(N([H])C(=O)C([H])(N([H])C([H])([H])[H])C([H])([H])[H])C(C([H])([H])[H])(C([H])([H])[H])C([H])([H])[H])C([H])(C(=O)N([H])C1([H])c3c([H])c([H])c([H])c([H])c3C([H])([H])C([H])([H])C1([H])[H])C2([H])[H])C1([H])C([H])([H])C1([H])C([H])(C([H])([H])C(=O)N1C([H])([H])C([H])([H])C([H])([H])C([H])(n2nc(-c3c([H])c([H])c(Oc4c([H])c([H])c(F)c([H])c4F)c([H])c3[H])c(C(=O)N([H])[H])c2N([H])[H])C1([H])[H])[N+]([H])([H])C([H])([H])[H]

>  <smiles>  (87) 
[H]C([H])=C(C([H])([H])C([H])([H])C([H])([H])C([H])([H])C([H])([H])Oc1c([H])c([H])c2c(c1[H])C([H])([H])N(C(=O)C([H])(N([H])C(=O)C([H])(N([H])C([H])([H])[H])C([H])([H])[H])C(C([H])([H])[H])(C([H])([H])[H])C([H])([H])[H])C([H])(C(=O)N([H])C1([H])c3c([H])c([H])c([H])c([H])c3C([H])([H])C([H])([H])C1([H])[H])C2([H])[H])C1([H])C([H])([H])C1([H])C([H])(C([H])([H])C(=O)N1C([H])([H])C([H])([H])C([H])([H])C([H])(n2nc(-c3c([H])c([H])c(Oc4c([H])c([H])c(F)c([H])c4F)c([H])c3[H])c(C(=O)N([H])[H])c2N([H])[H])C1([H])[H])[N+]([H])([H])C([H])([H])[H]

$$$$
88:0:0
     RDKit          3D

 92100  0  0  1  0  0  0  0  0999 V2000
  -29.1600  -20.6600   21.0600 N   0  0  0  0  0  4  0  0  0  0  0  0
  -28.3550  -20.5960   21.6650 H   0  0  0  0  0  0  0  0  0  0  0  0
  -29.9490  -20.8680   21.6500 H   0  0  0  0  0  0  0  0  0  0  0  0
  -30.3330  -19.3300   19.2430 C   0  0  0  0  0  1  0  0  0  0  0  0
  -29.3920  -19.3020   20.4720 C   0  0  0  0  0  3  0  0  0  0  0  0
  -31.8030  -17.7890   23.0680 C   0  0  0  0  0  2  0  0  0  0  0  0
  -31.2530  -16.5060   22.4480 C   0  0  0  0  0  2  0  0  0  0  0  0
  -30.9590  -18.9350   22.5030 C   0  0  0  0  0  2  0  0  0  0  0  0
  -30.4720  -16.9330   21.1940 C   0  0  0  0  0  3  0  0  0  0  0  0
  -29.8680  -18.3150   21.5980 C   0  0  0  0  0  3  0  0  0  0  0  0
  -29.4940  -15.8070   20.7280 C   0  0  0  0  0  2  0  0  0  0  0  0
  -30.1920  -14.6010   20.0350 C   0  0  0  0  0  0  0  0  0  0  0  0
  -29.9540  -12.4090   18.9190 C   0  0  0  0  0  2  0  0  0  0  0  0
  -28.9260  -12.5440   17.7760 C   0  0  0  0  0  2  0  0  0  0  0  0
  -27.4970  -12.3070   18.3040 C   0  0  0  0  0  2  0  0  0  0  0  0
  -27.1890  -13.1320   19.5820 C   0  0  0  0  0  3  0  0  0  0  0  0
  -28.3290  -13.0060   20.6170 C   0  0  0  0  0  2  0  0  0  0  0  0
  -29.5880  -13.3820   19.9620 N   0  0  0  0  0  0  0  0  0  0  0  0
  -31.2540  -14.8190   19.4460 O   0  0  0  0  0  0  0  0  0  0  0  0
  -24.8140  -13.5730   20.4690 C   0  0  0  0  0  0  0  0  0  0  0  0
  -23.8270  -12.7290   20.9040 C   0  0  0  0  0  0  0  0  0  0  0  0
  -24.3720  -11.4110   20.8240 C   0  0  0  0  0  0  0  0  0  0  0  0
  -25.8950  -12.7640   20.1550 N   0  0  0  0  0  0  0  0  0  0  0  0
  -25.6360  -11.4580   20.4240 N   0  0  0  0  0  0  0  0  0  0  0  0
  -23.7420  -10.1020   21.0510 C   0  0  0  0  0  0  0  0  0  0  0  0
  -24.2470   -9.1980   22.0110 C   0  0  0  0  0  3  0  0  0  0  0  0
  -23.6160   -7.9540   22.2250 C   0  0  0  0  0  3  0  0  0  0  0  0
  -22.4660   -7.6050   21.4770 C   0  0  0  0  0  0  0  0  0  0  0  0
  -21.9820   -8.4990   20.5060 C   0  0  0  0  0  3  0  0  0  0  0  0
  -22.6150   -9.7340   20.2910 C   0  0  0  0  0  3  0  0  0  0  0  0
  -21.8020   -6.4070   21.5970 O   0  0  0  0  0  0  0  0  0  0  0  0
  -21.7520   -5.7290   22.7890 C   0  0  0  0  0  0  0  0  0  0  0  0
  -21.2030   -6.3080   23.9540 C   0  0  0  0  0  3  0  0  0  0  0  0
  -21.1090   -5.5510   25.1390 C   0  0  0  0  0  3  0  0  0  0  0  0
  -21.5520   -4.2150   25.1590 C   0  0  0  0  0  0  0  0  0  0  0  0
  -22.0930   -3.6350   23.9990 C   0  0  0  0  0  3  0  0  0  0  0  0
  -22.1900   -4.3890   22.8160 C   0  0  0  0  0  0  0  0  0  0  0  0
  -22.6930   -3.8190   21.6950 F   0  0  0  0  0  0  0  0  0  0  0  0
  -21.4540   -3.4850   26.2940 F   0  0  0  0  0  0  0  0  0  0  0  0
  -22.4250  -13.1130   21.2820 C   0  0  0  0  0  0  0  0  0  0  0  0
  -21.8110  -12.3620   22.1890 N   0  0  0  0  0  0  0  0  0  0  0  0
  -21.8850  -14.1100   20.8070 O   0  0  0  0  0  0  0  0  0  0  0  0
  -22.2620  -11.5540   22.5920 H   0  0  0  0  0  0  0  0  0  0  0  0
  -20.8740  -12.5990   22.4850 H   0  0  0  0  0  0  0  0  0  0  0  0
  -24.8800  -14.9530   20.2950 N   0  0  0  0  0  0  0  0  0  0  0  0
  -24.0850  -15.5610   20.4590 H   0  0  0  0  0  0  0  0  0  0  0  0
  -25.6790  -15.4400   19.9120 H   0  0  0  0  0  0  0  0  0  0  0  0
  -28.9680  -21.8240   20.1460 C   0  0  0  0  0  2  0  0  0  0  0  0
  -28.6990  -23.1470   20.9130 C   0  0  0  0  0  2  0  0  0  0  0  0
  -28.6330  -24.4210   20.0270 C   0  0  0  0  0  2  0  0  0  0  0  0
  -28.3970  -25.7140   20.8450 C   0  0  0  0  0  2  0  0  0  0  0  0
  -28.4150  -26.9050   20.0410 O   0  0  0  0  0  0  0  0  0  0  0  0
  -24.6130  -32.0120   23.2400 C   0  0  0  0  0  0  0  0  0  0  0  0
  -27.2510  -27.6370   20.0710 C   0  0  0  0  0  0  0  0  0  0  0  0
  -23.3940  -30.6200   21.5980 C   0  0  0  0  0  3  0  0  0  0  0  0
  -24.8420  -29.1110   20.1340 C   0  0  0  0  0  0  0  0  0  0  0  0
  -25.9130  -31.0080   21.3640 C   0  0  0  0  0  2  0  0  0  0  0  0
  -26.0030  -29.6460   20.7060 C   0  0  0  0  0  0  0  0  0  0  0  0
  -27.2140  -28.9170   20.6670 C   0  0  0  0  0  3  0  0  0  0  0  0
  -26.0750  -27.1100   19.4990 C   0  0  0  0  0  3  0  0  0  0  0  0
  -24.8710  -27.8430   19.5280 C   0  0  0  0  0  3  0  0  0  0  0  0
  -23.5890  -29.9560   20.2080 C   0  0  0  0  0  2  0  0  0  0  0  0
  -24.6590  -31.2280   22.1260 N   0  0  0  0  0  0  0  0  0  0  0  0
  -23.5370  -32.2660   23.8000 O   0  0  0  0  0  0  0  0  0  0  0  0
  -22.7690  -29.5810   22.5550 C   0  0  0  0  0  0  0  0  0  0  0  0
  -21.4480  -29.3680   22.4260 N   0  0  0  0  0  0  0  0  0  0  0  0
  -23.4660  -28.9700   23.3690 O   0  0  0  0  0  0  0  0  0  0  0  0
  -20.9470  -29.9140   21.7390 H   0  0  0  0  0  0  0  0  0  0  0  0
  -18.1040  -28.0860   22.9060 C   0  0  0  0  0  0  0  0  0  0  0  0
  -20.6530  -28.4090   23.1920 C   0  0  0  0  0  3  0  0  0  0  0  0
  -20.7960  -26.9820   22.6170 C   0  0  0  0  0  2  0  0  0  0  0  0
  -19.7100  -26.6300   21.5950 C   0  0  0  0  0  2  0  0  0  0  0  0
  -18.3210  -26.7410   22.2300 C   0  0  0  0  0  2  0  0  0  0  0  0
  -19.2000  -28.8760   23.3420 C   0  0  0  0  0  0  0  0  0  0  0  0
  -18.9460  -30.1340   23.9310 C   0  0  0  0  0  3  0  0  0  0  0  0
  -17.6290  -30.6030   24.0880 C   0  0  0  0  0  3  0  0  0  0  0  0
  -16.5470  -29.8080   23.6690 C   0  0  0  0  0  3  0  0  0  0  0  0
  -16.7850  -28.5510   23.0850 C   0  0  0  0  0  3  0  0  0  0  0  0
  -25.9020  -32.6470   23.8480 C   0  0  0  0  0  3  0  0  0  0  0  0
  -25.5890  -34.0400   24.1930 N   0  0  0  0  0  0  0  0  0  0  0  0
  -25.8990  -35.1000   23.4340 C   0  0  0  0  0  0  0  0  0  0  0  0
  -26.5490  -35.0080   22.3890 O   0  0  0  0  0  0  0  0  0  0  0  0
  -25.0110  -34.1830   25.0070 H   0  0  0  0  0  0  0  0  0  0  0  0
  -24.1410  -36.8730   23.1320 C   0  0  0  0  0  1  0  0  0  0  0  0
  -25.4070  -36.4800   23.9080 C   0  0  0  0  0  3  0  0  0  0  0  0
  -27.5520  -37.3870   24.6890 C   0  0  0  0  0  1  0  0  0  0  0  0
  -26.4260  -37.5440   23.7730 N   0  0  0  0  0  0  0  0  0  0  0  0
  -26.0120  -38.4590   23.9350 H   0  0  0  0  0  0  0  0  0  0  0  0
  -26.4460  -31.8670   25.1080 C   0  0  1  0  0  0  0  0  0  0  0  0
  -25.3670  -31.5910   26.1810 C   0  0  0  0  0  1  0  0  0  0  0  0
  -27.0530  -30.5070   24.6900 C   0  0  0  0  0  1  0  0  0  0  0  0
  -27.5870  -32.6740   25.7720 C   0  0  0  0  0  1  0  0  0  0  0  0
  1  3  1  0
  1  2  1  0
  5  4  1  0
  5  1  1  0
  7  6  1  0
  8  6  1  0
  9 11  1  0
  9 10  1  0
  9  7  1  0
 10  5  1  0
 10  8  1  0
 12 11  1  0
 13 18  1  0
 14 15  1  0
 14 13  1  0
 16 15  1  0
 16 23  1  0
 16 17  1  0
 18 12  1  0
 18 17  1  0
 19 12  2  0
 20 21  2  0
 21 40  1  0
 22 21  1  0
 22 25  1  0
 23 24  1  0
 23 20  1  0
 24 22  2  0
 25 26  1  0
 26 27  2  0
 28 31  1  0
 28 27  1  0
 29 28  2  0
 30 29  1  0
 30 25  2  0
 31 32  1  0
 32 37  2  0
 32 33  1  0
 33 34  2  0
 34 35  1  0
 35 39  1  0
 36 35  2  0
 37 36  1  0
 38 37  1  0
 40 41  1  0
 41 44  1  0
 41 43  1  0
 42 40  2  0
 45 46  1  0
 45 20  1  0
 47 45  1  0
 48 49  1  0
 48  1  1  0
 50 51  1  0
 50 49  1  0
 52 54  1  0
 52 51  1  0
 53 64  2  0
 54 59  1  0
 55 63  1  0
 55 65  1  0
 56 62  1  0
 56 58  1  0
 57 63  1  0
 58 57  1  0
 59 58  2  0
 60 61  1  0
 60 54  2  0
 61 56  2  0
 62 55  1  0
 63 53  1  0
 65 67  2  0
 66 65  1  0
 68 66  1  0
 69 78  2  0
 69 74  1  0
 70 66  1  0
 70 74  1  0
 71 70  1  0
 72 73  1  0
 72 71  1  0
 73 69  1  0
 74 75  2  0
 75 76  1  0
 77 76  2  0
 78 77  1  0
 79 53  1  0
 79 80  1  0
 79 89  1  0
 80 83  1  0
 81 85  1  0
 81 80  1  0
 82 81  2  0
 85 84  1  0
 87 85  1  0
 87 88  1  0
 87 86  1  0
 89 92  1  1
 89 90  1  0
 91 89  1  0
M  ISO  4  11 100  12 100  51 101  52 101
M  END
>  <TORSDO>  (88) 
F 23

>  <SCORE>  (88) 
-10.585

>  <name>  (88) 
88

>  <ligand_id>  (88) 
88

>  <original_smiles>  (88) 
[H]c1c([H])c([H])c2c(c1[H])C([H])([H])C([H])([H])C([H])([H])C2([H])N([H])C(=O)C1([H])N(C(=O)C([H])(N([H])C(=O)C([H])(N([H])C([H])([H])[H])C([H])([H])[H])C(C([H])([H])[H])(C([H])([H])[H])C([H])([H])[H])C([H])([H])c2c([H])c(OC([H])([H])C([H])([H])C([H])([H])C([H])([H])[N+]([H])([H])C([H])(C([H])([H])[H])C3([H])C([H])([H])C([H])([H])C([H])([H])C3([H])C([H])([H])C(=O)N3C([H])([H])C([H])([H])C([H])([H])C([H])(n4nc(-c5c([H])c([H])c(Oc6c([H])c([H])c(F)c([H])c6F)c([H])c5[H])c(C(=O)N([H])[H])c4N([H])[H])C3([H])[H])c([H])c([H])c2C1([H])[H]

>  <smiles>  (88) 
[H]c1c([H])c([H])c2c(c1[H])C([H])([H])C([H])([H])C([H])([H])C2([H])N([H])C(=O)C1([H])N(C(=O)C([H])(N([H])C(=O)C([H])(N([H])C([H])([H])[H])C([H])([H])[H])C(C([H])([H])[H])(C([H])([H])[H])C([H])([H])[H])C([H])([H])c2c([H])c(OC([H])([H])C([H])([H])C([H])([H])C([H])([H])[N+]([H])([H])C([H])(C([H])([H])[H])C3([H])C([H])([H])C([H])([H])C([H])([H])C3([H])C([H])([H])C(=O)N3C([H])([H])C([H])([H])C([H])([H])C([H])(n4nc(-c5c([H])c([H])c(Oc6c([H])c([H])c(F)c([H])c6F)c([H])c5[H])c(C(=O)N([H])[H])c4N([H])[H])C3([H])[H])c([H])c([H])c2C1([H])[H]

$$$$
89:0:0
     RDKit          3D

 95103  0  0  1  0  0  0  0  0999 V2000
  -30.2960  -19.6080   18.6460 C   0  0  0  0  0  0  0  0  0  0  0  0
  -29.7830  -18.6040   19.3870 N   0  0  0  0  0  0  0  0  0  0  0  0
  -31.4670  -19.5800   18.2650 O   0  0  0  0  0  0  0  0  0  0  0  0
  -28.9740  -18.8770   19.9280 H   0  0  0  0  0  0  0  0  0  0  0  0
  -28.4610  -17.3840   17.8280 C   0  0  0  0  0  2  0  0  0  0  0  0
  -27.1540  -17.9280   18.4850 C   0  0  0  0  0  2  0  0  0  0  0  0
  -27.9860  -16.7860   20.7270 C   0  0  0  0  0  2  0  0  0  0  0  0
  -29.0650  -16.1480   19.8360 C   0  0  0  0  0  3  0  0  0  0  0  0
  -29.6100  -17.2370   18.8450 C   0  0  0  0  0  3  0  0  0  0  0  0
  -26.8470  -17.5470   19.9810 C   0  0  1  0  0  0  0  0  0  0  0  0
  -26.5580  -18.8500   20.7610 C   0  0  0  0  0  1  0  0  0  0  0  0
  -25.5420  -16.7300   20.0570 C   0  0  0  0  0  1  0  0  0  0  0  0
  -30.0550  -15.3000   20.6930 C   0  0  0  0  0  2  0  0  0  0  0  0
  -30.6250  -13.9670   20.1420 C   0  0  0  0  0  0  0  0  0  0  0  0
  -30.5100  -11.5350   19.6680 C   0  0  0  0  0  2  0  0  0  0  0  0
  -29.6180  -11.3010   18.4310 C   0  0  0  0  0  2  0  0  0  0  0  0
  -28.1400  -11.1780   18.8450 C   0  0  0  0  0  2  0  0  0  0  0  0
  -27.6920  -12.3200   19.7890 C   0  0  0  0  0  3  0  0  0  0  0  0
  -28.7040  -12.5290   20.9440 C   0  0  0  0  0  2  0  0  0  0  0  0
  -30.0290  -12.7540   20.3490 N   0  0  0  0  0  0  0  0  0  0  0  0
  -31.6960  -14.0540   19.5400 O   0  0  0  0  0  0  0  0  0  0  0  0
  -25.3100  -13.0150   20.4700 C   0  0  0  0  0  0  0  0  0  0  0  0
  -24.2240  -12.2980   20.8750 C   0  0  0  0  0  0  0  0  0  0  0  0
  -24.6520  -10.9360   20.9100 C   0  0  0  0  0  0  0  0  0  0  0  0
  -26.3370  -12.1040   20.2860 N   0  0  0  0  0  0  0  0  0  0  0  0
  -25.9400  -10.8480   20.6070 N   0  0  0  0  0  0  0  0  0  0  0  0
  -23.8930   -9.7090   21.1630 C   0  0  0  0  0  0  0  0  0  0  0  0
  -24.3450   -8.7350   22.0820 C   0  0  0  0  0  3  0  0  0  0  0  0
  -23.5860   -7.5710   22.3240 C   0  0  0  0  0  3  0  0  0  0  0  0
  -22.3610   -7.3710   21.6460 C   0  0  0  0  0  0  0  0  0  0  0  0
  -21.9280   -8.3280   20.7120 C   0  0  0  0  0  3  0  0  0  0  0  0
  -22.6860   -9.4850   20.4680 C   0  0  0  0  0  3  0  0  0  0  0  0
  -21.5650   -6.2630   21.7980 O   0  0  0  0  0  0  0  0  0  0  0  0
  -21.6050   -5.5020   22.9380 C   0  0  0  0  0  0  0  0  0  0  0  0
  -21.3410   -6.0470   24.2110 C   0  0  0  0  0  3  0  0  0  0  0  0
  -21.3260   -5.2110   25.3460 C   0  0  0  0  0  3  0  0  0  0  0  0
  -21.5620   -3.8310   25.2080 C   0  0  0  0  0  0  0  0  0  0  0  0
  -21.8190   -3.2850   23.9380 C   0  0  0  0  0  3  0  0  0  0  0  0
  -21.8400   -4.1190   22.8050 C   0  0  0  0  0  0  0  0  0  0  0  0
  -22.0710   -3.5830   21.5830 F   0  0  0  0  0  0  0  0  0  0  0  0
  -21.5370   -3.0250   26.2970 F   0  0  0  0  0  0  0  0  0  0  0  0
  -22.8420  -12.8260   21.1450 C   0  0  0  0  0  0  0  0  0  0  0  0
  -22.1130  -12.2020   22.0590 N   0  0  0  0  0  0  0  0  0  0  0  0
  -22.4210  -13.8360   20.5790 O   0  0  0  0  0  0  0  0  0  0  0  0
  -22.4590  -11.3850   22.5460 H   0  0  0  0  0  0  0  0  0  0  0  0
  -21.1860  -12.5380   22.2730 H   0  0  0  0  0  0  0  0  0  0  0  0
  -25.5030  -14.3700   20.2400 N   0  0  0  0  0  0  0  0  0  0  0  0
  -24.7630  -15.0180   20.4870 H   0  0  0  0  0  0  0  0  0  0  0  0
  -26.4160  -14.8020   20.2660 H   0  0  0  0  0  0  0  0  0  0  0  0
  -29.3740  -20.7280   18.0940 C   0  0  0  0  0  2  0  0  0  0  0  0
  -28.5210  -21.6290   19.0390 C   0  0  0  0  0  2  0  0  0  0  0  0
  -29.2530  -22.8390   19.6750 C   0  0  0  0  0  2  0  0  0  0  0  0
  -28.3290  -24.0110   20.1320 C   0  0  0  0  0  2  0  0  0  0  0  0
  -28.4670  -25.3050   19.2880 C   0  0  0  0  0  2  0  0  0  0  0  0
  -28.2820  -26.5070   20.0570 O   0  0  0  0  0  0  0  0  0  0  0  0
  -24.5740  -31.7190   23.1620 C   0  0  0  0  0  0  0  0  0  0  0  0
  -27.0930  -27.2130   20.0490 C   0  0  0  0  0  0  0  0  0  0  0  0
  -23.3280  -30.3470   21.5300 C   0  0  0  0  0  3  0  0  0  0  0  0
  -24.7300  -28.7850   20.0890 C   0  0  0  0  0  0  0  0  0  0  0  0
  -25.8600  -30.6470   21.3120 C   0  0  0  0  0  2  0  0  0  0  0  0
  -25.9070  -29.2750   20.6690 C   0  0  0  0  0  0  0  0  0  0  0  0
  -27.0840  -28.4950   20.6480 C   0  0  0  0  0  3  0  0  0  0  0  0
  -25.8930  -26.7280   19.4790 C   0  0  0  0  0  3  0  0  0  0  0  0
  -24.7210  -27.5090   19.4960 C   0  0  0  0  0  3  0  0  0  0  0  0
  -23.5120  -29.6770   20.1440 C   0  0  0  0  0  2  0  0  0  0  0  0
  -24.6060  -30.9190   22.0600 N   0  0  0  0  0  0  0  0  0  0  0  0
  -23.5030  -32.0170   23.7110 O   0  0  0  0  0  0  0  0  0  0  0  0
  -22.6610  -29.3360   22.4910 C   0  0  0  0  0  0  0  0  0  0  0  0
  -21.3280  -29.1880   22.3670 N   0  0  0  0  0  0  0  0  0  0  0  0
  -23.3380  -28.6950   23.3000 O   0  0  0  0  0  0  0  0  0  0  0  0
  -20.8540  -29.7290   21.6600 H   0  0  0  0  0  0  0  0  0  0  0  0
  -17.9250  -28.0950   22.9160 C   0  0  0  0  0  0  0  0  0  0  0  0
  -20.4920  -28.2880   23.1600 C   0  0  0  0  0  3  0  0  0  0  0  0
  -20.5450  -26.8500   22.6020 C   0  0  0  0  0  2  0  0  0  0  0  0
  -19.4350  -26.5820   21.5750 C   0  0  0  0  0  2  0  0  0  0  0  0
  -18.0650  -26.7360   22.2480 C   0  0  0  0  0  2  0  0  0  0  0  0
  -19.0690  -28.8310   23.3250 C   0  0  0  0  0  0  0  0  0  0  0  0
  -18.8960  -30.1040   23.9160 C   0  0  0  0  0  3  0  0  0  0  0  0
  -17.6100  -30.6340   24.1020 C   0  0  0  0  0  3  0  0  0  0  0  0
  -16.4790  -29.8920   23.7170 C   0  0  0  0  0  3  0  0  0  0  0  0
  -16.6360  -28.6260   23.1280 C   0  0  0  0  0  3  0  0  0  0  0  0
  -25.8790  -32.3220   23.7730 C   0  0  0  0  0  3  0  0  0  0  0  0
  -25.6050  -33.7260   24.1100 N   0  0  0  0  0  0  0  0  0  0  0  0
  -25.9560  -34.7700   23.3490 C   0  0  0  0  0  0  0  0  0  0  0  0
  -26.6130  -34.6540   22.3110 O   0  0  0  0  0  0  0  0  0  0  0  0
  -25.0240  -33.8920   24.9190 H   0  0  0  0  0  0  0  0  0  0  0  0
  -24.2560  -36.5940   23.0260 C   0  0  0  0  0  1  0  0  0  0  0  0
  -25.5060  -36.1700   23.8120 C   0  0  0  0  0  3  0  0  0  0  0  0
  -27.6760  -37.0160   24.5900 C   0  0  0  0  0  1  0  0  0  0  0  0
  -26.5540  -37.2020   23.6720 N   0  0  0  0  0  0  0  0  0  0  0  0
  -26.1720  -38.1320   23.8290 H   0  0  0  0  0  0  0  0  0  0  0  0
  -26.3910  -31.5340   25.0400 C   0  0  1  0  0  0  0  0  0  0  0  0
  -25.3050  -31.3120   26.1210 C   0  0  0  0  0  1  0  0  0  0  0  0
  -26.9360  -30.1460   24.6290 C   0  0  0  0  0  1  0  0  0  0  0  0
  -27.5670  -32.2970   25.6950 C   0  0  0  0  0  1  0  0  0  0  0  0
  1  2  1  0
  2  4  1  0
  3  1  2  0
  5  6  1  0
  5  9  1  0
  6 10  1  0
  8 13  1  0
  8  7  1  0
  9  2  1  0
  9  8  1  0
 10 12  1  6
 10  7  1  0
 10 11  1  0
 14 20  1  0
 14 13  1  0
 15 20  1  0
 16 17  1  0
 16 15  1  0
 18 17  1  0
 18 25  1  0
 18 19  1  0
 20 19  1  0
 21 14  2  0
 22 23  2  0
 23 24  1  0
 23 42  1  0
 24 27  1  0
 25 22  1  0
 25 26  1  0
 26 24  2  0
 27 28  1  0
 28 29  2  0
 30 33  1  0
 30 29  1  0
 31 30  2  0
 32 31  1  0
 32 27  2  0
 33 34  1  0
 34 35  1  0
 35 36  2  0
 37 36  1  0
 37 41  1  0
 38 37  2  0
 39 34  2  0
 39 38  1  0
 40 39  1  0
 42 43  1  0
 43 46  1  0
 43 45  1  0
 44 42  2  0
 47 49  1  0
 47 22  1  0
 47 48  1  0
 50  1  1  0
 50 51  1  0
 51 52  1  0
 52 53  1  0
 54 55  1  0
 54 53  1  0
 56 67  2  0
 57 55  1  0
 57 62  1  0
 58 66  1  0
 58 68  1  0
 59 65  1  0
 59 61  1  0
 60 66  1  0
 61 60  1  0
 62 61  2  0
 63 64  1  0
 63 57  2  0
 64 59  2  0
 65 58  1  0
 66 56  1  0
 68 70  2  0
 69 68  1  0
 71 69  1  0
 72 81  2  0
 72 77  1  0
 73 69  1  0
 73 77  1  0
 74 73  1  0
 75 76  1  0
 75 74  1  0
 76 72  1  0
 77 78  2  0
 78 79  1  0
 80 79  2  0
 81 80  1  0
 82 56  1  0
 82 83  1  0
 82 92  1  0
 83 86  1  0
 84 88  1  0
 84 83  1  0
 85 84  2  0
 88 87  1  0
 90 88  1  0
 90 91  1  0
 90 89  1  0
 92 95  1  1
 92 93  1  0
 94 92  1  0
M  ISO  4  13 100  14 100  54 101  55 101
M  END
>  <TORSDO>  (89) 
F 23

>  <SCORE>  (89) 
-9.660

>  <name>  (89) 
89

>  <ligand_id>  (89) 
89

>  <original_smiles>  (89) 
[H]c1c([H])c([H])c2c(c1[H])C([H])([H])C([H])([H])C([H])([H])C2([H])N([H])C(=O)C1([H])N(C(=O)C([H])(N([H])C(=O)C([H])(N([H])C([H])([H])[H])C([H])([H])[H])C(C([H])([H])[H])(C([H])([H])[H])C([H])([H])[H])C([H])([H])c2c([H])c(OC([H])([H])C([H])([H])C([H])([H])C([H])([H])C([H])([H])C(=O)N([H])C3([H])C([H])([H])C([H])([H])C(C([H])([H])[H])(C([H])([H])[H])C([H])([H])C3([H])C([H])([H])C(=O)N3C([H])([H])C([H])([H])C([H])([H])C([H])(n4nc(-c5c([H])c([H])c(Oc6c([H])c([H])c(F)c([H])c6F)c([H])c5[H])c(C(=O)N([H])[H])c4N([H])[H])C3([H])[H])c([H])c([H])c2C1([H])[H]

>  <smiles>  (89) 
[H]c1c([H])c([H])c2c(c1[H])C([H])([H])C([H])([H])C([H])([H])C2([H])N([H])C(=O)C1([H])N(C(=O)C([H])(N([H])C(=O)C([H])(N([H])C([H])([H])[H])C([H])([H])[H])C(C([H])([H])[H])(C([H])([H])[H])C([H])([H])[H])C([H])([H])c2c([H])c(OC([H])([H])C([H])([H])C([H])([H])C([H])([H])C([H])([H])C(=O)N([H])C3([H])C([H])([H])C([H])([H])C(C([H])([H])[H])(C([H])([H])[H])C([H])([H])C3([H])C([H])([H])C(=O)N3C([H])([H])C([H])([H])C([H])([H])C([H])(n4nc(-c5c([H])c([H])c(Oc6c([H])c([H])c(F)c([H])c6F)c([H])c5[H])c(C(=O)N([H])[H])c4N([H])[H])C3([H])[H])c([H])c([H])c2C1([H])[H]

$$$$
90:0:0
     RDKit          3D

102112  0  0  1  0  0  0  0  0999 V2000
  -31.7170  -23.5850   22.2910 C   0  0  0  0  0  2  0  0  0  0  0  0
  -31.3360  -23.0810   23.6830 C   0  0  0  0  0  2  0  0  0  0  0  0
  -28.7740  -20.1960   26.0880 C   0  0  0  0  0  2  0  0  0  0  0  0
  -29.7380  -22.2530   22.0630 C   0  0  0  0  0  2  0  0  0  0  0  0
  -27.4300  -20.7620   25.6020 C   0  0  0  0  0  2  0  0  0  0  0  0
  -29.8110  -21.0720   25.4180 C   0  0  0  0  0  3  0  0  0  0  0  0
  -30.3930  -20.6480   24.0560 C   0  0  0  0  0  3  0  0  0  0  0  0
  -29.1010  -22.2010   24.6850 C   0  0  0  0  0  3  0  0  0  0  0  0
  -30.4320  -23.4910   21.4660 C   0  0  0  0  0  3  0  0  0  0  0  0
  -30.1580  -22.0940   23.5430 C   0  0  1  0  0  0  0  0  0  0  0  0
  -26.7010  -22.7080   24.2480 C   0  0  0  0  0  1  0  0  0  0  0  0
  -27.7300  -21.6690   24.4640 N   0  0  2  0  0  4  0  0  0  0  0  0
  -27.7510  -21.0810   23.6450 H   0  0  0  0  0  0  0  0  0  0  0  0
  -29.5570  -24.6780   21.5970 N   0  0  0  0  0  4  0  0  0  0  0  0
  -29.4190  -24.8750   22.5750 H   0  0  0  0  0  0  0  0  0  0  0  0
  -28.6610  -24.4210   21.2080 H   0  0  0  0  0  0  0  0  0  0  0  0
  -29.9810  -25.9310   20.9190 C   0  0  0  0  0  2  0  0  0  0  0  0
  -28.7450  -26.6360   20.3360 C   0  0  0  0  0  2  0  0  0  0  0  0
  -28.8600  -28.0630   20.3270 O   0  0  0  0  0  0  0  0  0  0  0  0
  -24.9750  -32.5330   24.2420 C   0  0  0  0  0  0  0  0  0  0  0  0
  -27.6690  -28.7550   20.4210 C   0  0  0  0  0  0  0  0  0  0  0  0
  -23.7710  -31.3910   22.4090 C   0  0  0  0  0  3  0  0  0  0  0  0
  -25.2340  -30.1620   20.7230 C   0  0  0  0  0  0  0  0  0  0  0  0
  -26.2820  -31.8520   22.2360 C   0  0  0  0  0  2  0  0  0  0  0  0
  -26.3900  -30.6130   21.3730 C   0  0  0  0  0  0  0  0  0  0  0  0
  -27.6090  -29.9160   21.2220 C   0  0  0  0  0  3  0  0  0  0  0  0
  -26.4950  -28.3320   19.7510 C   0  0  0  0  0  3  0  0  0  0  0  0
  -25.2800  -29.0200   19.9100 C   0  0  0  0  0  3  0  0  0  0  0  0
  -23.9690  -30.9600   20.9310 C   0  0  0  0  0  2  0  0  0  0  0  0
  -25.0280  -31.9290   23.0210 N   0  0  0  0  0  0  0  0  0  0  0  0
  -23.8990  -32.6800   24.8370 O   0  0  0  0  0  0  0  0  0  0  0  0
  -23.1690  -30.2030   23.1940 C   0  0  0  0  0  0  0  0  0  0  0  0
  -21.9320  -29.8180   22.8370 N   0  0  0  0  0  0  0  0  0  0  0  0
  -23.8150  -29.6340   24.0770 O   0  0  0  0  0  0  0  0  0  0  0  0
  -21.4660  -30.3400   22.1090 H   0  0  0  0  0  0  0  0  0  0  0  0
  -18.8740  -27.9150   22.5450 C   0  0  0  0  0  0  0  0  0  0  0  0
  -21.1790  -28.7040   23.4110 C   0  0  0  0  0  3  0  0  0  0  0  0
  -21.7200  -27.3460   22.9060 C   0  0  0  0  0  2  0  0  0  0  0  0
  -20.9840  -26.8270   21.6660 C   0  0  0  0  0  2  0  0  0  0  0  0
  -19.4910  -26.6560   21.9600 C   0  0  0  0  0  2  0  0  0  0  0  0
  -19.6700  -28.8840   23.2130 C   0  0  0  0  0  0  0  0  0  0  0  0
  -19.0530  -30.0540   23.7070 C   0  0  0  0  0  3  0  0  0  0  0  0
  -17.6700  -30.2610   23.5460 C   0  0  0  0  0  3  0  0  0  0  0  0
  -16.8850  -29.2910   22.9000 C   0  0  0  0  0  3  0  0  0  0  0  0
  -17.4860  -28.1200   22.4040 C   0  0  0  0  0  3  0  0  0  0  0  0
  -26.2580  -33.0870   24.9360 C   0  0  0  0  0  3  0  0  0  0  0  0
  -26.0250  -34.5090   25.2260 N   0  0  0  0  0  0  0  0  0  0  0  0
  -26.5530  -35.5240   24.5290 C   0  0  0  0  0  0  0  0  0  0  0  0
  -27.3570  -35.3560   23.6080 O   0  0  0  0  0  0  0  0  0  0  0  0
  -25.3340  -34.7190   25.9320 H   0  0  0  0  0  0  0  0  0  0  0  0
  -25.0870  -37.4670   23.8980 C   0  0  0  0  0  1  0  0  0  0  0  0
  -26.1190  -36.9500   24.9140 C   0  0  0  0  0  3  0  0  0  0  0  0
  -28.1480  -37.6200   26.1220 C   0  0  0  0  0  1  0  0  0  0  0  0
  -27.2460  -37.9030   25.0090 N   0  0  0  0  0  0  0  0  0  0  0  0
  -26.9040  -38.8550   25.1140 H   0  0  0  0  0  0  0  0  0  0  0  0
  -26.6420  -32.3040   26.2510 C   0  0  1  0  0  0  0  0  0  0  0  0
  -25.4560  -32.1020   27.2230 C   0  0  0  0  0  1  0  0  0  0  0  0
  -27.2130  -30.9090   25.9080 C   0  0  0  0  0  1  0  0  0  0  0  0
  -27.7570  -33.0650   27.0080 C   0  0  0  0  0  1  0  0  0  0  0  0
  -31.7820  -19.9960   23.9790 C   0  0  0  0  0  2  0  0  0  0  0  0
  -31.7110  -18.4680   23.9220 C   0  0  0  0  0  0  0  0  0  0  0  0
  -32.2110  -17.7810   25.1730 C   0  0  0  0  0  1  0  0  0  0  0  0
  -31.2730  -17.7750   22.9420 N   0  0  0  0  0  0  0  0  0  0  0  0
  -30.7970  -18.4450   21.7440 C   0  0  0  0  0  2  0  0  0  0  0  0
  -30.9640  -17.5510   20.5110 C   0  0  0  0  0  2  0  0  0  0  0  0
  -30.0590  -16.2950   20.5110 C   0  0  0  0  0  2  0  0  0  0  0  0
  -30.4670  -15.2550   19.4540 C   0  0  0  0  0  0  0  0  0  0  0  0
  -30.2800  -12.9870   18.4920 C   0  0  0  0  0  2  0  0  0  0  0  0
  -29.1990  -12.9050   17.4020 C   0  0  0  0  0  2  0  0  0  0  0  0
  -27.8220  -12.6170   18.0270 C   0  0  0  0  0  2  0  0  0  0  0  0
  -27.4940  -13.5710   19.2040 C   0  0  0  0  0  3  0  0  0  0  0  0
  -28.6740  -13.6530   20.1990 C   0  0  0  0  0  2  0  0  0  0  0  0
  -29.8880  -14.0260   19.4540 N   0  0  0  0  0  0  0  0  0  0  0  0
  -31.3380  -15.5650   18.6350 O   0  0  0  0  0  0  0  0  0  0  0  0
  -25.3610  -13.9610   20.5950 C   0  0  0  0  0  0  0  0  0  0  0  0
  -24.3270  -13.1310   20.9350 C   0  0  0  0  0  0  0  0  0  0  0  0
  -24.6430  -11.8570   20.3730 C   0  0  0  0  0  0  0  0  0  0  0  0
  -26.2500  -13.1850   19.8680 N   0  0  0  0  0  0  0  0  0  0  0  0
  -25.8300  -11.8960   19.7820 N   0  0  0  0  0  0  0  0  0  0  0  0
  -23.8590  -10.6150   20.3140 C   0  0  0  0  0  0  0  0  0  0  0  0
  -24.2910   -9.4380   20.9640 C   0  0  0  0  0  3  0  0  0  0  0  0
  -23.5110   -8.2630   20.9090 C   0  0  0  0  0  3  0  0  0  0  0  0
  -22.2850   -8.2570   20.2030 C   0  0  0  0  0  0  0  0  0  0  0  0
  -21.8700   -9.4250   19.5400 C   0  0  0  0  0  3  0  0  0  0  0  0
  -22.6500  -10.5930   19.5910 C   0  0  0  0  0  3  0  0  0  0  0  0
  -21.4750   -7.1550   20.0740 O   0  0  0  0  0  0  0  0  0  0  0  0
  -21.2120   -6.3270   21.1350 C   0  0  0  0  0  0  0  0  0  0  0  0
  -20.6420   -6.8080   22.3330 C   0  0  0  0  0  3  0  0  0  0  0  0
  -20.3250   -5.9100   23.3720 C   0  0  0  0  0  3  0  0  0  0  0  0
  -20.5670   -4.5330   23.2120 C   0  0  0  0  0  0  0  0  0  0  0  0
  -21.1300   -4.0500   22.0170 C   0  0  0  0  0  3  0  0  0  0  0  0
  -21.4480   -4.9450   20.9800 C   0  0  0  0  0  0  0  0  0  0  0  0
  -21.9710   -4.4720   19.8230 F   0  0  0  0  0  0  0  0  0  0  0  0
  -20.2540   -3.6690   24.2070 F   0  0  0  0  0  0  0  0  0  0  0  0
  -23.0690  -13.5190   21.6580 C   0  0  0  0  0  0  0  0  0  0  0  0
  -22.4910  -12.5960   22.4190 N   0  0  0  0  0  0  0  0  0  0  0  0
  -22.6180  -14.6610   21.5910 O   0  0  0  0  0  0  0  0  0  0  0  0
  -22.8710  -11.6630   22.4890 H   0  0  0  0  0  0  0  0  0  0  0  0
  -21.6560  -12.8260   22.9390 H   0  0  0  0  0  0  0  0  0  0  0  0
  -25.6120  -15.3100   20.8270 N   0  0  0  0  0  0  0  0  0  0  0  0
  -24.9300  -15.9120   21.2750 H   0  0  0  0  0  0  0  0  0  0  0  0
  -26.4050  -15.8150   20.4510 H   0  0  0  0  0  0  0  0  0  0  0  0
  1  2  1  0
  5  3  1  0
  6  3  1  0
  7 60  1  0
  7  6  1  0
  8 12  1  0
  8  6  1  0
  9 14  1  0
  9  4  1  0
  9  1  1  0
 10  4  1  6
 10  2  1  0
 10  7  1  0
 10  8  1  0
 11 12  1  0
 12  5  1  0
 12 13  1  6
 14 15  1  0
 16 14  1  0
 17 14  1  0
 18 17  1  0
 19 18  1  0
 19 21  1  0
 20 31  2  0
 21 26  1  0
 22 30  1  0
 22 32  1  0
 23 29  1  0
 23 25  1  0
 24 30  1  0
 25 24  1  0
 26 25  2  0
 27 28  1  0
 27 21  2  0
 28 23  2  0
 29 22  1  0
 30 20  1  0
 32 34  2  0
 33 32  1  0
 35 33  1  0
 36 41  1  0
 37 33  1  0
 38 37  1  0
 39 40  1  0
 39 38  1  0
 40 36  1  0
 41 37  1  0
 41 42  2  0
 43 42  1  0
 44 43  2  0
 45 36  2  0
 45 44  1  0
 46 20  1  0
 46 47  1  0
 46 56  1  0
 47 50  1  0
 48 52  1  0
 48 47  1  0
 49 48  2  0
 52 51  1  0
 52 54  1  0
 54 55  1  0
 54 53  1  0
 56 59  1  1
 56 57  1  0
 58 56  1  0
 61 60  1  0
 61 62  1  0
 63 61  2  0
 64 63  1  0
 65 66  1  0
 65 64  1  0
 67 66  1  0
 68 73  1  0
 69 70  1  0
 69 68  1  0
 71 70  1  0
 71 78  1  0
 71 72  1  0
 73 67  1  0
 73 72  1  0
 74 67  2  0
 75100  1  0
 75 76  2  0
 76 95  1  0
 77 76  1  0
 78 75  1  0
 79 78  1  0
 79 77  2  0
 80 77  1  0
 80 81  1  0
 82 81  2  0
 83 82  1  0
 84 85  1  0
 84 83  2  0
 85 80  2  0
 86 83  1  0
 86 87  1  0
 87 88  1  0
 88 89  2  0
 90 89  1  0
 90 94  1  0
 91 90  2  0
 92 87  2  0
 92 91  1  0
 93 92  1  0
 95 96  1  0
 96 98  1  0
 96 99  1  0
 97 95  2  0
100101  1  0
102100  1  0
M  ISO  4  18 101  19 101  66 100  67 100
M  END
>  <TORSDO>  (90) 
F 24

>  <SCORE>  (90) 
27.951

>  <name>  (90) 
90

>  <ligand_id>  (90) 
90

>  <original_smiles>  (90) 
[H]c1c([H])c([H])c2c(c1[H])C([H])([H])C([H])([H])C([H])([H])C2([H])N([H])C(=O)C1([H])N(C(=O)C([H])(N([H])C(=O)C([H])(N([H])C([H])([H])[H])C([H])([H])[H])C(C([H])([H])[H])(C([H])([H])[H])C([H])([H])[H])C([H])([H])c2c([H])c(OC([H])([H])C([H])([H])[N+]([H])([H])C3([H])C([H])([H])C([H])([H])C4(C3([H])[H])C([H])(C([H])([H])C(=NC([H])([H])C([H])([H])C([H])([H])C(=O)N3C([H])([H])C([H])([H])C([H])([H])C([H])(n5nc(-c6c([H])c([H])c(Oc7c([H])c([H])c(F)c([H])c7F)c([H])c6[H])c(C(=O)N([H])[H])c5N([H])[H])C3([H])[H])C([H])([H])[H])C3([H])C([H])([H])C([H])([H])[N+]([H])(C([H])([H])[H])C34[H])c([H])c([H])c2C1([H])[H]

>  <smiles>  (90) 
[H]c1c([H])c([H])c2c(c1[H])C([H])([H])C([H])([H])C([H])([H])C2([H])N([H])C(=O)C1([H])N(C(=O)C([H])(N([H])C(=O)C([H])(N([H])C([H])([H])[H])C([H])([H])[H])C(C([H])([H])[H])(C([H])([H])[H])C([H])([H])[H])C([H])([H])c2c([H])c(OC([H])([H])C([H])([H])[N+]([H])([H])C3([H])C([H])([H])C([H])([H])C4(C3([H])[H])C([H])(C([H])([H])C(=NC([H])([H])C([H])([H])C([H])([H])C(=O)N3C([H])([H])C([H])([H])C([H])([H])C([H])(n5nc(-c6c([H])c([H])c(Oc7c([H])c([H])c(F)c([H])c7F)c([H])c6[H])c(C(=O)N([H])[H])c5N([H])[H])C3([H])[H])C([H])([H])[H])C3([H])C([H])([H])C([H])([H])[N+]([H])(C([H])([H])[H])C34[H])c([H])c([H])c2C1([H])[H]

$$$$
91:0:0
     RDKit          3D

 85 91  0  0  1  0  0  0  0  0999 V2000
  -31.2270  -19.4010   20.8540 C   0  0  0  0  0  2  0  0  0  0  0  0
  -30.8830  -19.7020   19.3900 C   0  0  0  0  0  2  0  0  0  0  0  0
  -28.9870  -20.4770   21.5310 C   0  0  0  0  0  2  0  0  0  0  0  0
  -29.3630  -17.9320   20.2940 C   0  0  0  0  0  2  0  0  0  0  0  0
  -29.8390  -19.0160   21.4050 C   0  0  0  0  0  3  0  0  0  0  0  0
  -29.3500  -19.6870   19.4980 C   0  0  0  0  0  3  0  0  0  0  0  0
  -29.0190  -21.4530   20.2350 C   0  0  0  0  0  2  0  0  0  0  0  0
  -30.1680  -16.0900   20.1400 C   0  0  0  0  0  2  0  0  0  0  0  0
  -30.4240  -13.4260   19.4370 C   0  0  0  0  0  2  0  0  0  0  0  0
  -29.5910  -12.8470   18.2450 C   0  0  0  0  0  2  0  0  0  0  0  0
  -28.1910  -12.4140   18.6950 C   0  0  0  0  0  2  0  0  0  0  0  0
  -27.6080  -13.4450   19.6810 C   0  0  0  0  0  3  0  0  0  0  0  0
  -28.5940  -13.9230   20.7810 C   0  0  0  0  0  2  0  0  0  0  0  0
  -29.7330  -14.6420   20.1300 N   0  0  0  0  0  0  0  0  0  0  0  0
  -31.4040  -15.9660   19.9490 O   0  0  0  0  0  1  0  0  0  0  0  0
  -25.2440  -13.9330   20.4370 C   0  0  0  0  0  0  0  0  0  0  0  0
  -24.1920  -13.1450   20.8030 C   0  0  0  0  0  0  0  0  0  0  0  0
  -24.6770  -11.7990   20.7820 C   0  0  0  0  0  0  0  0  0  0  0  0
  -26.3000  -13.0760   20.2020 N   0  0  0  0  0  0  0  0  0  0  0  0
  -25.9740  -11.7820   20.4750 N   0  0  0  0  0  0  0  0  0  0  0  0
  -23.9570  -10.5320   20.9770 C   0  0  0  0  0  0  0  0  0  0  0  0
  -24.3820   -9.5750   21.9250 C   0  0  0  0  0  3  0  0  0  0  0  0
  -23.6550   -8.3790   22.1120 C   0  0  0  0  0  3  0  0  0  0  0  0
  -22.4890   -8.1290   21.3500 C   0  0  0  0  0  0  0  0  0  0  0  0
  -22.0820   -9.0750   20.3920 C   0  0  0  0  0  3  0  0  0  0  0  0
  -22.8080  -10.2620   20.2040 C   0  0  0  0  0  3  0  0  0  0  0  0
  -21.7360   -6.9830   21.4440 O   0  0  0  0  0  0  0  0  0  0  0  0
  -21.6760   -6.2520   22.6030 C   0  0  0  0  0  0  0  0  0  0  0  0
  -21.2340   -6.8180   23.8180 C   0  0  0  0  0  3  0  0  0  0  0  0
  -21.1210   -6.0140   24.9700 C   0  0  0  0  0  3  0  0  0  0  0  0
  -21.4420   -4.6450   24.9090 C   0  0  0  0  0  0  0  0  0  0  0  0
  -21.8760   -4.0780   23.6980 C   0  0  0  0  0  3  0  0  0  0  0  0
  -21.9910   -4.8790   22.5480 C   0  0  0  0  0  0  0  0  0  0  0  0
  -22.3910   -4.3230   21.3790 F   0  0  0  0  0  0  0  0  0  0  0  0
  -21.3280   -3.8710   26.0130 F   0  0  0  0  0  0  0  0  0  0  0  0
  -22.7890  -13.6110   21.0510 C   0  0  0  0  0  0  0  0  0  0  0  0
  -22.0610  -12.9280   21.9260 N   0  0  0  0  0  0  0  0  0  0  0  0
  -22.3470  -14.6210   20.5050 O   0  0  0  0  0  0  0  0  0  0  0  0
  -22.4320  -12.1120   22.3910 H   0  0  0  0  0  0  0  0  0  0  0  0
  -21.1180  -13.2250   22.1340 H   0  0  0  0  0  0  0  0  0  0  0  0
  -25.3900  -15.3050   20.2510 N   0  0  0  0  0  0  0  0  0  0  0  0
  -24.6160  -15.9510   20.3570 H   0  0  0  0  0  0  0  0  0  0  0  0
  -26.2390  -15.7530   19.9270 H   0  0  0  0  0  0  0  0  0  0  0  0
  -28.1520  -23.3560   19.9680 C   0  0  0  0  0 15  0  0  0  0  0  0
  -28.2070  -25.2290   20.2140 O   0  0  0  0  0  1  0  0  0  0  0  0
  -24.7140  -31.7880   23.1770 C   0  0  0  0  0  0  0  0  0  0  0  0
  -27.2590  -26.5510   20.1590 C   0  0  0  0  0  0  0  0  0  0  0  0
  -23.5450  -30.4000   21.5230 C   0  0  0  0  0  3  0  0  0  0  0  0
  -25.0060  -28.7270   20.1070 C   0  0  0  0  0  0  0  0  0  0  0  0
  -26.1340  -30.4830   21.4380 C   0  0  0  0  0  2  0  0  0  0  0  0
  -26.2020  -29.0340   20.7650 C   0  0  0  0  0  0  0  0  0  0  0  0
  -27.2980  -27.9820   20.7520 C   0  0  0  0  0  3  0  0  0  0  0  0
  -26.0250  -26.5170   19.4400 C   0  0  0  0  0  3  0  0  0  0  0  0
  -24.9700  -27.4980   19.4190 C   0  0  0  0  0  3  0  0  0  0  0  0
  -23.8050  -29.7010   20.1510 C   0  0  0  0  0  2  0  0  0  0  0  0
  -24.8250  -30.9300   22.0980 N   0  0  0  0  0  0  0  0  0  0  0  0
  -23.6130  -32.0890   23.6740 O   0  0  0  0  0  0  0  0  0  0  0  0
  -22.8080  -29.4290   22.4860 C   0  0  0  0  0  0  0  0  0  0  0  0
  -21.4700  -29.2990   22.3680 N   0  0  0  0  0  0  0  0  0  0  0  0
  -23.4550  -28.7880   23.3170 O   0  0  0  0  0  0  0  0  0  0  0  0
  -20.9960  -29.8660   21.6800 H   0  0  0  0  0  0  0  0  0  0  0  0
  -18.0680  -28.1190   22.9050 C   0  0  0  0  0  0  0  0  0  0  0  0
  -20.6370  -28.3570   23.1300 C   0  0  0  0  0  3  0  0  0  0  0  0
  -20.7110  -26.9370   22.5220 C   0  0  0  0  0  2  0  0  0  0  0  0
  -19.5910  -26.6520   21.5150 C   0  0  0  0  0  2  0  0  0  0  0  0
  -18.2210  -26.7910   22.1850 C   0  0  0  0  0  2  0  0  0  0  0  0
  -19.2020  -28.8630   23.3340 C   0  0  0  0  0  0  0  0  0  0  0  0
  -19.0000  -30.1040   23.9770 C   0  0  0  0  0  3  0  0  0  0  0  0
  -17.7000  -30.6030   24.1900 C   0  0  0  0  0  3  0  0  0  0  0  0
  -16.5840  -29.8590   23.7710 C   0  0  0  0  0  3  0  0  0  0  0  0
  -16.7690  -28.6180   23.1360 C   0  0  0  0  0  3  0  0  0  0  0  0
  -25.9610  -32.4470   23.8400 C   0  0  0  0  0  3  0  0  0  0  0  0
  -25.6180  -33.8390   24.2080 N   0  0  0  0  0  0  0  0  0  0  0  0
  -25.9250  -34.9300   23.4940 C   0  0  0  0  0  0  0  0  0  0  0  0
  -26.5790  -34.8750   22.4510 O   0  0  0  0  0  0  0  0  0  0  0  0
  -25.0300  -33.9530   25.0210 H   0  0  0  0  0  0  0  0  0  0  0  0
  -24.1580  -36.7160   23.2700 C   0  0  0  0  0  1  0  0  0  0  0  0
  -25.4370  -36.3010   24.0150 C   0  0  0  0  0  3  0  0  0  0  0  0
  -27.5850  -37.2090   24.7910 C   0  0  0  0  0  1  0  0  0  0  0  0
  -26.4470  -37.3770   23.8920 N   0  0  0  0  0  0  0  0  0  0  0  0
  -26.0300  -38.2850   24.0740 H   0  0  0  0  0  0  0  0  0  0  0  0
  -26.4580  -31.6720   25.1240 C   0  0  1  0  0  0  0  0  0  0  0  0
  -25.3480  -31.4240   26.1740 C   0  0  0  0  0  1  0  0  0  0  0  0
  -27.0550  -30.2970   24.7500 C   0  0  0  0  0  1  0  0  0  0  0  0
  -27.5940  -32.4670   25.8090 C   0  0  0  0  0  1  0  0  0  0  0  0
  1  5  1  0
  2  1  1  0
  5  4  1  0
  5  3  1  0
  6  2  1  0
  6  7  1  0
  6  4  1  0
  7  3  1  0
  9 14  1  0
 10 11  1  0
 10  9  1  0
 12 11  1  0
 12 19  1  0
 12 13  1  0
 14  8  1  0
 14 13  1  0
 15  8  1  0
 16 17  2  0
 17 36  1  0
 18 17  1  0
 18 21  1  0
 19 16  1  0
 19 20  1  0
 20 18  2  0
 21 22  1  0
 22 23  2  0
 24 27  1  0
 24 23  1  0
 25 24  2  0
 26 25  1  0
 26 21  2  0
 27 28  1  0
 28 29  1  0
 29 30  2  0
 31 30  1  0
 31 35  1  0
 32 31  2  0
 33 28  2  0
 33 32  1  0
 34 33  1  0
 36 37  1  0
 37 40  1  0
 37 39  1  0
 38 36  2  0
 41 42  1  0
 41 16  1  0
 43 41  1  0
 46 57  2  0
 47 45  1  0
 47 52  1  0
 48 56  1  0
 48 58  1  0
 49 55  1  0
 49 51  1  0
 50 56  1  0
 51 50  1  0
 52 51  2  0
 53 47  2  0
 54 53  1  0
 54 49  2  0
 55 48  1  0
 56 46  1  0
 58 60  2  0
 59 58  1  0
 61 59  1  0
 62 71  2  0
 62 67  1  0
 63 59  1  0
 63 67  1  0
 64 63  1  0
 65 66  1  0
 65 64  1  0
 66 62  1  0
 67 68  2  0
 68 69  1  0
 70 69  2  0
 71 70  1  0
 72 46  1  0
 72 73  1  0
 72 82  1  0
 73 76  1  0
 74 78  1  0
 74 73  1  0
 75 74  2  0
 78 77  1  0
 80 78  1  0
 80 81  1  0
 80 79  1  0
 82 85  1  1
 82 83  1  0
 84 82  1  0
M  ISO  4   4 100   8 100  44 101  45 101
M  END
>  <TORSDO>  (91) 
F 17

>  <SCORE>  (91) 
-15.787

>  <name>  (91) 
91

>  <ligand_id>  (91) 
91

>  <original_smiles>  (91) 
[H]c1c([H])c([H])c2c(c1[H])C([H])([H])C([H])([H])C([H])([H])C2([H])N([H])C(=O)C1([H])N(C(=O)C([H])(N([H])C(=O)C([H])(N([H])C([H])([H])[H])C([H])([H])[H])C(C([H])([H])[H])(C([H])([H])[H])C([H])([H])[H])C([H])([H])c2c([H])c(OC([H])([H])C3([H])C([H])([H])C4([H])C([H])([H])C([H])([H])C3([H])C4([H])C(=O)N3C([H])([H])C([H])([H])C([H])([H])C([H])(n4nc(-c5c([H])c([H])c(Oc6c([H])c([H])c(F)c([H])c6F)c([H])c5[H])c(C(=O)N([H])[H])c4N([H])[H])C3([H])[H])c([H])c([H])c2C1([H])[H]

>  <smiles>  (91) 
[H]c1c([H])c([H])c2c(c1[H])C([H])([H])C([H])([H])C([H])([H])C2([H])N([H])C(=O)C1([H])N(C(=O)C([H])(N([H])C(=O)C([H])(N([H])C([H])([H])[H])C([H])([H])[H])C(C([H])([H])[H])(C([H])([H])[H])C([H])([H])[H])C([H])([H])c2c([H])c(OC([H])([H])C3([H])C([H])([H])C4([H])C([H])([H])C([H])([H])C3([H])C4([H])C(=O)N3C([H])([H])C([H])([H])C([H])([H])C([H])(n4nc(-c5c([H])c([H])c(Oc6c([H])c([H])c(F)c([H])c6F)c([H])c5[H])c(C(=O)N([H])[H])c4N([H])[H])C3([H])[H])c([H])c([H])c2C1([H])[H]

$$$$
92:0:0
     RDKit          3D

 96105  0  0  1  0  0  0  0  0999 V2000
  -28.8240  -19.6460   21.9420 C   0  0  0  0  0  2  0  0  0  0  0  0
  -28.8700  -18.8650   18.9530 C   0  0  0  0  0  2  0  0  0  0  0  0
  -30.8570  -18.7480   20.7490 C   0  0  0  0  0  3  0  0  0  0  0  0
  -30.1210  -18.8050   22.1260 C   0  0  0  0  0  3  0  0  0  0  0  0
  -28.9040  -20.2740   20.5590 C   0  0  0  0  0  3  0  0  0  0  0  0
  -29.9830  -19.5390   19.7790 C   0  0  0  0  0  3  0  0  0  0  0  0
  -27.8730  -19.9070   19.4730 C   0  0  0  0  0  3  0  0  0  0  0  0
  -31.3450  -20.7080   23.2240 C   0  0  0  0  0  3  0  0  0  0  0  0
  -31.0420  -19.3920   23.2010 C   0  0  0  0  0  0  0  0  0  0  0  0
  -32.2280  -21.4620   24.1970 C   0  0  0  0  0  1  0  0  0  0  0  0
  -31.5780  -18.3740   24.1950 C   0  0  0  0  0  1  0  0  0  0  0  0
  -27.5560  -21.0100   18.5320 N   0  0  0  0  0  4  0  0  0  0  0  0
  -26.9020  -20.6700   17.8460 H   0  0  0  0  0  0  0  0  0  0  0  0
  -28.3880  -21.2970   18.0400 H   0  0  0  0  0  0  0  0  0  0  0  0
  -26.9810  -22.1890   19.2210 C   0  0  0  0  0  2  0  0  0  0  0  0
  -26.8710  -23.4640   18.3640 C   0  0  0  0  0  2  0  0  0  0  0  0
  -27.0620  -24.7100   19.2420 C   0  0  0  0  0  2  0  0  0  0  0  0
  -27.1020  -25.9190   18.4850 O   0  0  0  0  0  0  0  0  0  0  0  0
  -25.2150  -30.8920   23.1970 C   0  0  0  0  0  0  0  0  0  0  0  0
  -26.1660  -26.8480   18.8630 C   0  0  0  0  0  0  0  0  0  0  0  0
  -23.4630  -30.2010   21.5940 C   0  0  0  0  0  3  0  0  0  0  0  0
  -24.2460  -28.7570   19.6500 C   0  0  0  0  0  0  0  0  0  0  0  0
  -25.9380  -30.0520   20.9640 C   0  0  0  0  0  2  0  0  0  0  0  0
  -25.5760  -28.8830   20.0740 C   0  0  0  0  0  0  0  0  0  0  0  0
  -26.5430  -27.9410   19.6690 C   0  0  0  0  0  3  0  0  0  0  0  0
  -24.8210  -26.7220   18.4520 C   0  0  0  0  0  3  0  0  0  0  0  0
  -23.8600  -27.6720   18.8440 C   0  0  0  0  0  3  0  0  0  0  0  0
  -23.2830  -29.8310   20.0970 C   0  0  0  0  0  2  0  0  0  0  0  0
  -24.9030  -30.3780   21.9730 N   0  0  0  0  0  0  0  0  0  0  0  0
  -24.3320  -31.2600   23.9840 O   0  0  0  0  0  0  0  0  0  0  0  0
  -22.7240  -29.1530   22.4540 C   0  0  0  0  0  0  0  0  0  0  0  0
  -21.3800  -29.1620   22.3830 N   0  0  0  0  0  0  0  0  0  0  0  0
  -23.3510  -28.3470   23.1450 O   0  0  0  0  0  0  0  0  0  0  0  0
  -20.9430  -29.8600   21.7980 H   0  0  0  0  0  0  0  0  0  0  0  0
  -17.9220  -28.1880   22.7250 C   0  0  0  0  0  0  0  0  0  0  0  0
  -20.4810  -28.2460   23.0810 C   0  0  0  0  0  3  0  0  0  0  0  0
  -20.4990  -26.8480   22.4250 C   0  0  0  0  0  2  0  0  0  0  0  0
  -19.4190  -26.6790   21.3520 C   0  0  0  0  0  2  0  0  0  0  0  0
  -18.0270  -26.8800   21.9590 C   0  0  0  0  0  2  0  0  0  0  0  0
  -19.0770  -28.8410   23.2320 C   0  0  0  0  0  0  0  0  0  0  0  0
  -18.9310  -30.0800   23.8930 C   0  0  0  0  0  3  0  0  0  0  0  0
  -17.6610  -30.6640   24.0540 C   0  0  0  0  0  3  0  0  0  0  0  0
  -16.5200  -30.0060   23.5650 C   0  0  0  0  0  3  0  0  0  0  0  0
  -16.6480  -28.7670   22.9100 C   0  0  0  0  0  3  0  0  0  0  0  0
  -26.6990  -31.0640   23.6550 C   0  0  0  0  0  3  0  0  0  0  0  0
  -26.7980  -32.3460   24.3660 N   0  0  0  0  0  0  0  0  0  0  0  0
  -27.3050  -33.4680   23.8370 C   0  0  0  0  0  0  0  0  0  0  0  0
  -27.8160  -33.5100   22.7150 O   0  0  0  0  0  0  0  0  0  0  0  0
  -26.3540  -32.3990   25.2710 H   0  0  0  0  0  0  0  0  0  0  0  0
  -26.0740  -35.6280   24.2050 C   0  0  0  0  0  1  0  0  0  0  0  0
  -27.2340  -34.7450   24.6900 C   0  0  0  0  0  3  0  0  0  0  0  0
  -29.5910  -34.8610   25.3750 C   0  0  0  0  0  1  0  0  0  0  0  0
  -28.4900  -35.5270   24.6820 N   0  0  0  0  0  0  0  0  0  0  0  0
  -28.3490  -36.4380   25.1090 H   0  0  0  0  0  0  0  0  0  0  0  0
  -27.2130  -29.8810   24.5680 C   0  0  1  0  0  0  0  0  0  0  0  0
  -26.2850  -29.5730   25.7670 C   0  0  0  0  0  1  0  0  0  0  0  0
  -27.3660  -28.5800   23.7460 C   0  0  0  0  0  1  0  0  0  0  0  0
  -28.6160  -30.2170   25.1260 C   0  0  0  0  0  1  0  0  0  0  0  0
  -31.5950  -16.0860   20.3040 C   0  0  0  0  0  3  0  0  0  0  0  0
  -31.1550  -17.3540   20.1720 C   0  0  0  0  0  3  0  0  0  0  0  0
  -32.0730  -14.9450   19.5150 C   0  0  0  0  0  0  0  0  0  0  0  0
  -31.5820  -12.6620   18.6930 C   0  0  0  0  0  2  0  0  0  0  0  0
  -30.5260  -12.7060   17.5690 C   0  0  0  0  0  2  0  0  0  0  0  0
  -29.1080  -12.6710   18.1660 C   0  0  0  0  0  2  0  0  0  0  0  0
  -28.9190  -13.7180   19.2950 C   0  0  0  0  0  3  0  0  0  0  0  0
  -30.0710  -13.6370   20.3210 C   0  0  0  0  0  2  0  0  0  0  0  0
  -31.3410  -13.7970   19.6000 N   0  0  0  0  0  0  0  0  0  0  0  0
  -33.0810  -15.0180   18.8020 O   0  0  0  0  0  0  0  0  0  0  0  0
  -26.7710  -14.5470   20.4380 C   0  0  0  0  0  0  0  0  0  0  0  0
  -25.6520  -13.8850   20.8720 C   0  0  0  0  0  0  0  0  0  0  0  0
  -25.8830  -12.5010   20.6020 C   0  0  0  0  0  0  0  0  0  0  0  0
  -27.6170  -13.5700   19.9380 N   0  0  0  0  0  0  0  0  0  0  0  0
  -27.0960  -12.3270   20.0940 N   0  0  0  0  0  0  0  0  0  0  0  0
  -25.0010  -11.3350   20.7480 C   0  0  0  0  0  0  0  0  0  0  0  0
  -25.3480  -10.2450   21.5750 C   0  0  0  0  0  3  0  0  0  0  0  0
  -24.4730   -9.1450   21.7150 C   0  0  0  0  0  3  0  0  0  0  0  0
  -23.2380   -9.1290   21.0260 C   0  0  0  0  0  0  0  0  0  0  0  0
  -22.9060  -10.2090   20.1880 C   0  0  0  0  0  3  0  0  0  0  0  0
  -23.7800  -11.3010   20.0460 C   0  0  0  0  0  3  0  0  0  0  0  0
  -22.3390   -8.0920   21.0780 O   0  0  0  0  0  0  0  0  0  0  0  0
  -22.1470   -7.3660   22.2260 C   0  0  0  0  0  0  0  0  0  0  0  0
  -21.7280   -7.9730   23.4290 C   0  0  0  0  0  3  0  0  0  0  0  0
  -21.4740   -7.1790   24.5650 C   0  0  0  0  0  3  0  0  0  0  0  0
  -21.6280   -5.7810   24.4980 C   0  0  0  0  0  0  0  0  0  0  0  0
  -22.0390   -5.1760   23.2960 C   0  0  0  0  0  3  0  0  0  0  0  0
  -22.2940   -5.9660   22.1620 C   0  0  0  0  0  0  0  0  0  0  0  0
  -22.6700   -5.3750   21.0030 F   0  0  0  0  0  0  0  0  0  0  0  0
  -21.3750   -5.0170   25.5850 F   0  0  0  0  0  0  0  0  0  0  0  0
  -24.4000  -14.5070   21.4170 C   0  0  0  0  0  0  0  0  0  0  0  0
  -23.7110  -13.8090   22.3120 N   0  0  0  0  0  0  0  0  0  0  0  0
  -24.0530  -15.6430   21.0910 O   0  0  0  0  0  0  0  0  0  0  0  0
  -24.0130  -12.8870   22.5910 H   0  0  0  0  0  0  0  0  0  0  0  0
  -22.8790  -14.2020   22.7260 H   0  0  0  0  0  0  0  0  0  0  0  0
  -27.1350  -15.8900   20.4060 N   0  0  0  0  0  0  0  0  0  0  0  0
  -26.5270  -16.6350   20.7290 H   0  0  0  0  0  0  0  0  0  0  0  0
  -28.0210  -16.2240   20.0500 H   0  0  0  0  0  0  0  0  0  0  0  0
  1  4  1  0
  2  7  1  0
  3 60  1  0
  3  4  1  0
  4  9  1  0
  5  1  1  0
  6  2  1  0
  6  5  1  0
  6  3  1  0
  7 12  1  0
  7  5  1  0
  8 10  1  0
  9  8  2  0
  9 11  1  0
 12 15  1  0
 13 12  1  0
 14 12  1  0
 16 15  1  0
 16 17  1  0
 18 20  1  0
 18 17  1  0
 19 30  2  0
 20 25  1  0
 21 29  1  0
 21 31  1  0
 22 24  1  0
 22 28  1  0
 23 29  1  0
 24 23  1  0
 25 24  2  0
 26 27  1  0
 26 20  2  0
 27 22  2  0
 28 21  1  0
 29 19  1  0
 31 33  2  0
 32 31  1  0
 34 32  1  0
 35 44  2  0
 35 40  1  0
 36 32  1  0
 36 40  1  0
 37 36  1  0
 38 39  1  0
 38 37  1  0
 39 35  1  0
 40 41  2  0
 41 42  1  0
 43 42  2  0
 44 43  1  0
 45 19  1  0
 45 46  1  0
 45 55  1  0
 46 49  1  0
 47 46  1  0
 47 51  1  0
 48 47  2  0
 51 50  1  0
 53 51  1  0
 53 54  1  0
 53 52  1  0
 55 58  1  1
 55 56  1  0
 57 55  1  0
 60 59  2  0
 61 67  1  0
 61 59  1  0
 62 67  1  0
 63 64  1  0
 63 62  1  0
 65 64  1  0
 65 72  1  0
 65 66  1  0
 67 66  1  0
 68 61  2  0
 69 70  2  0
 70 89  1  0
 71 74  1  0
 71 70  1  0
 72 73  1  0
 72 69  1  0
 73 71  2  0
 74 75  1  0
 75 76  2  0
 77 80  1  0
 77 76  1  0
 78 77  2  0
 79 78  1  0
 79 74  2  0
 80 81  1  0
 81 82  1  0
 82 83  2  0
 84 83  1  0
 84 88  1  0
 85 84  2  0
 86 81  2  0
 86 85  1  0
 87 86  1  0
 89 90  1  0
 90 92  1  0
 90 93  1  0
 91 89  2  0
 94 69  1  0
 94 95  1  0
 96 94  1  0
M  ISO  4  17 101  18 101  59 100  61 100
M  END
>  <TORSDO>  (92) 
F 22

>  <SCORE>  (92) 
-6.254

>  <name>  (92) 
92

>  <ligand_id>  (92) 
92

>  <original_smiles>  (92) 
[H]C(C(=O)N1C([H])([H])C([H])([H])C([H])([H])C([H])(n2nc(-c3c([H])c([H])c(Oc4c([H])c([H])c(F)c([H])c4F)c([H])c3[H])c(C(=O)N([H])[H])c2N([H])[H])C1([H])[H])=C([H])C1([H])C([H])(C(=C([H])C([H])([H])[H])C([H])([H])[H])C([H])([H])C2([H])C1([H])C([H])([H])C2([H])[N+]([H])([H])C([H])([H])C([H])([H])C([H])([H])Oc1c([H])c([H])c2c(c1[H])C([H])([H])N(C(=O)C([H])(N([H])C(=O)C([H])(N([H])C([H])([H])[H])C([H])([H])[H])C(C([H])([H])[H])(C([H])([H])[H])C([H])([H])[H])C([H])(C(=O)N([H])C1([H])c3c([H])c([H])c([H])c([H])c3C([H])([H])C([H])([H])C1([H])[H])C2([H])[H]

>  <smiles>  (92) 
[H]C(C(=O)N1C([H])([H])C([H])([H])C([H])([H])C([H])(n2nc(-c3c([H])c([H])c(Oc4c([H])c([H])c(F)c([H])c4F)c([H])c3[H])c(C(=O)N([H])[H])c2N([H])[H])C1([H])[H])=C([H])C1([H])C([H])(C(=C([H])C([H])([H])[H])C([H])([H])[H])C([H])([H])C2([H])C1([H])C([H])([H])C2([H])[N+]([H])([H])C([H])([H])C([H])([H])C([H])([H])Oc1c([H])c([H])c2c(c1[H])C([H])([H])N(C(=O)C([H])(N([H])C(=O)C([H])(N([H])C([H])([H])[H])C([H])([H])[H])C(C([H])([H])[H])(C([H])([H])[H])C([H])([H])[H])C([H])(C(=O)N([H])C1([H])c3c([H])c([H])c([H])c([H])c3C([H])([H])C([H])([H])C1([H])[H])C2([H])[H]

$$$$
93:0:0
     RDKit          3D

 94104  0  0  1  0  0  0  0  0999 V2000
  -28.0250  -17.3080   18.6190 C   0  0  0  0  0  2  0  0  0  0  0  0
  -28.8920  -17.1670   19.9320 C   0  0  0  0  0  3  0  0  0  0  0  0
  -28.6840  -18.5070   20.6740 C   0  0  0  0  0  3  0  0  0  0  0  0
  -29.5420  -19.3980   19.7810 C   0  0  0  0  0  3  0  0  0  0  0  0
  -30.3080  -17.0080   19.3810 C   0  0  0  0  0  3  0  0  0  0  0  0
  -30.0800  -18.4380   18.6950 C   0  0  0  0  0  3  0  0  0  0  0  0
  -29.6500  -19.5150   21.2660 C   0  0  2  0  0  0  0  0  0  0  0  0
  -30.8070  -19.0360   22.0860 C   0  0  0  0  0  1  0  0  0  0  0  0
  -29.1270  -20.8850   21.7530 C   0  0  0  0  0  1  0  0  0  0  0  0
  -28.7880  -18.3990   17.9680 N   0  0  1  0  0  4  0  0  0  0  0  0
  -28.3960  -19.1470   18.5340 H   0  0  0  0  0  0  0  0  0  0  0  0
  -30.5250  -15.6000   18.6500 C   0  0  0  0  0  2  0  0  0  0  0  0
  -31.2040  -14.2910   19.2650 C   0  0  0  0  0  0  0  0  0  0  0  0
  -30.7840  -11.9480   18.6420 C   0  0  0  0  0  2  0  0  0  0  0  0
  -29.7200  -11.9330   17.5340 C   0  0  0  0  0  2  0  0  0  0  0  0
  -28.2920  -11.9270   18.1140 C   0  0  0  0  0  2  0  0  0  0  0  0
  -28.0780  -12.9800   19.2250 C   0  0  0  0  0  3  0  0  0  0  0  0
  -29.2460  -12.9980   20.2260 C   0  0  0  0  0  2  0  0  0  0  0  0
  -30.5000  -13.1220   19.4820 N   0  0  0  0  0  0  0  0  0  0  0  0
  -32.4240  -14.2300   19.0710 O   0  0  0  0  0  0  0  0  0  0  0  0
  -25.8780  -13.7640   20.3430 C   0  0  0  0  0  0  0  0  0  0  0  0
  -24.8170  -13.0710   20.8500 C   0  0  0  0  0  0  0  0  0  0  0  0
  -25.1140  -11.6900   20.6450 C   0  0  0  0  0  0  0  0  0  0  0  0
  -26.7980  -12.8110   19.9030 N   0  0  0  0  0  0  0  0  0  0  0  0
  -26.3350  -11.5580   20.1310 N   0  0  0  0  0  0  0  0  0  0  0  0
  -24.2580  -10.5140   20.8350 C   0  0  0  0  0  0  0  0  0  0  0  0
  -24.5700   -9.5180   21.7870 C   0  0  0  0  0  3  0  0  0  0  0  0
  -23.7100   -8.4130   21.9760 C   0  0  0  0  0  3  0  0  0  0  0  0
  -22.5240   -8.3030   21.2190 C   0  0  0  0  0  0  0  0  0  0  0  0
  -22.2180   -9.2850   20.2600 C   0  0  0  0  0  3  0  0  0  0  0  0
  -23.0770  -10.3810   20.0670 C   0  0  0  0  0  3  0  0  0  0  0  0
  -21.6400   -7.2550   21.3180 O   0  0  0  0  0  0  0  0  0  0  0  0
  -21.3900   -6.6350   22.5150 C   0  0  0  0  0  0  0  0  0  0  0  0
  -20.8650   -7.3350   23.6220 C   0  0  0  0  0  3  0  0  0  0  0  0
  -20.5690   -6.6450   24.8150 C   0  0  0  0  0  3  0  0  0  0  0  0
  -20.7770   -5.2580   24.8960 C   0  0  0  0  0  0  0  0  0  0  0  0
  -21.2970   -4.5570   23.7970 C   0  0  0  0  0  3  0  0  0  0  0  0
  -21.5990   -5.2430   22.6050 C   0  0  0  0  0  0  0  0  0  0  0  0
  -22.0760   -4.5580   21.5390 F   0  0  0  0  0  0  0  0  0  0  0  0
  -20.4830   -4.5960   26.0410 F   0  0  0  0  0  0  0  0  0  0  0  0
  -23.5570  -13.6790   21.3910 C   0  0  0  0  0  0  0  0  0  0  0  0
  -22.8940  -13.0200   22.3430 N   0  0  0  0  0  0  0  0  0  0  0  0
  -23.1640  -14.7780   20.9990 O   0  0  0  0  0  0  0  0  0  0  0  0
  -23.2220  -12.1280   22.6870 H   0  0  0  0  0  0  0  0  0  0  0  0
  -22.0710  -13.4450   22.7490 H   0  0  0  0  0  0  0  0  0  0  0  0
  -26.0730  -15.1210   20.2110 N   0  0  0  0  0  0  0  0  0  0  0  0
  -25.3160  -15.7780   20.3930 H   0  0  0  0  0  0  0  0  0  0  0  0
  -26.8700  -15.5620   19.7730 H   0  0  0  0  0  0  0  0  0  0  0  0
  -28.5240  -19.1650   16.6890 C   0  0  0  0  0  2  0  0  0  0  0  0
  -27.8280  -20.5660   17.0100 C   0  0  0  0  0  2  0  0  0  0  0  0
  -28.2170  -21.9670   16.4070 C   0  0  0  0  0  3  0  0  0  0  0  0
  -27.8300  -23.2400   17.2850 C   0  0  0  0  0  3  0  0  0  0  0  0
  -28.2650  -24.6850   16.7480 C   0  0  0  0  0  2  0  0  0  0  0  0
  -28.4590  -25.8720   17.6110 O   0  0  0  0  0  0  0  0  0  0  0  0
  -25.1170  -30.2720   22.3570 C   0  0  0  0  0  0  0  0  0  0  0  0
  -27.3840  -26.6810   17.9730 C   0  0  0  0  0  0  0  0  0  0  0  0
  -23.7910  -29.3980   20.4730 C   0  0  0  0  0  3  0  0  0  0  0  0
  -25.0970  -28.2640   18.6070 C   0  0  0  0  0  0  0  0  0  0  0  0
  -26.3380  -29.6980   20.2360 C   0  0  0  0  0  2  0  0  0  0  0  0
  -26.3190  -28.5440   19.2270 C   0  0  0  0  0  0  0  0  0  0  0  0
  -27.4650  -27.7720   18.9010 C   0  0  0  0  0  3  0  0  0  0  0  0
  -26.1150  -26.4090   17.4200 C   0  0  0  0  0  3  0  0  0  0  0  0
  -24.9840  -27.1860   17.7210 C   0  0  0  0  0  3  0  0  0  0  0  0
  -23.9020  -29.1250   18.9540 C   0  0  0  0  0  2  0  0  0  0  0  0
  -25.1060  -29.7960   21.0760 N   0  0  0  0  0  0  0  0  0  0  0  0
  -24.0670  -30.4200   23.0010 O   0  0  0  0  0  0  0  0  0  0  0  0
  -23.1440  -28.1660   21.1560 C   0  0  0  0  0  0  0  0  0  0  0  0
  -21.8120  -28.0080   20.9960 N   0  0  0  0  0  0  0  0  0  0  0  0
  -23.8270  -27.3760   21.7960 O   0  0  0  0  0  0  0  0  0  0  0  0
  -21.3210  -28.6370   20.3680 H   0  0  0  0  0  0  0  0  0  0  0  0
  -18.4390  -26.7050   21.2760 C   0  0  0  0  0  0  0  0  0  0  0  0
  -21.0190  -26.9230   21.5640 C   0  0  0  0  0  3  0  0  0  0  0  0
  -21.1320  -25.6480   20.7110 C   0  0  0  0  0  2  0  0  0  0  0  0
  -20.0350  -25.5700   19.6630 C   0  0  0  0  0  2  0  0  0  0  0  0
  -18.6630  -25.5230   20.3440 C   0  0  0  0  0  2  0  0  0  0  0  0
  -19.5670  -27.3530   21.8610 C   0  0  0  0  0  0  0  0  0  0  0  0
  -19.3360  -28.4410   22.7410 C   0  0  0  0  0  3  0  0  0  0  0  0
  -18.0210  -28.8830   23.0270 C   0  0  0  0  0  3  0  0  0  0  0  0
  -16.9290  -28.2480   22.4260 C   0  0  0  0  0  3  0  0  0  0  0  0
  -17.1270  -27.1650   21.5410 C   0  0  0  0  0  3  0  0  0  0  0  0
  -26.4430  -30.7010   23.0650 C   0  0  0  0  0  3  0  0  0  0  0  0
  -26.1540  -31.9180   23.8350 N   0  0  0  0  0  0  0  0  0  0  0  0
  -26.5340  -33.1550   23.4850 C   0  0  0  0  0  0  0  0  0  0  0  0
  -27.2240  -33.3840   22.4860 O   0  0  0  0  0  0  0  0  0  0  0  0
  -25.5490  -31.8120   24.6350 H   0  0  0  0  0  0  0  0  0  0  0  0
  -24.8930  -35.0550   23.6940 C   0  0  0  0  0  1  0  0  0  0  0  0
  -26.0670  -34.3260   24.3750 C   0  0  0  0  0  3  0  0  0  0  0  0
  -28.1690  -34.7450   25.5660 C   0  0  0  0  0  1  0  0  0  0  0  0
  -27.1430  -35.2920   24.6840 N   0  0  0  0  0  0  0  0  0  0  0  0
  -26.7670  -36.1310   25.1140 H   0  0  0  0  0  0  0  0  0  0  0  0
  -27.0350  -29.5780   23.9980 C   0  0  1  0  0  0  0  0  0  0  0  0
  -26.0190  -29.0010   25.0140 C   0  0  0  0  0  1  0  0  0  0  0  0
  -27.5790  -28.4000   23.1580 C   0  0  0  0  0  1  0  0  0  0  0  0
  -28.2410  -30.1440   24.7870 C   0  0  0  0  0  1  0  0  0  0  0  0
  2  1  1  0
  2  3  1  0
  3  7  1  0
  4  3  1  0
  4  7  1  0
  5 12  1  0
  5  2  1  0
  6 10  1  0
  6  5  1  0
  6  4  1  0
  7  9  1  6
  7  8  1  0
 10 11  1  1
 10  1  1  0
 12 13  1  0
 13 19  1  0
 14 19  1  0
 15 16  1  0
 15 14  1  0
 17 16  1  0
 17 24  1  0
 17 18  1  0
 19 18  1  0
 20 13  2  0
 21 22  2  0
 22 41  1  0
 23 26  1  0
 23 22  1  0
 24 25  1  0
 24 21  1  0
 25 23  2  0
 26 27  1  0
 27 28  2  0
 29 32  1  0
 29 28  1  0
 30 29  2  0
 31 30  1  0
 31 26  2  0
 32 33  1  0
 33 38  2  0
 33 34  1  0
 34 35  2  0
 35 36  1  0
 36 40  1  0
 37 36  2  0
 38 37  1  0
 39 38  1  0
 41 42  1  0
 42 44  1  0
 42 45  1  0
 43 41  2  0
 46 21  1  0
 46 47  1  0
 48 46  1  0
 49 50  1  0
 49 10  1  0
 51 50  1  0
 51 52  2  0
 53 52  1  0
 53 54  1  0
 54 56  1  0
 55 66  2  0
 56 61  1  0
 57 65  1  0
 57 67  1  0
 58 64  1  0
 58 60  1  0
 59 65  1  0
 60 59  1  0
 61 60  2  0
 62 63  1  0
 62 56  2  0
 63 58  2  0
 64 57  1  0
 65 55  1  0
 67 69  2  0
 68 67  1  0
 70 68  1  0
 71 80  2  0
 71 76  1  0
 72 68  1  0
 72 76  1  0
 73 72  1  0
 74 75  1  0
 74 73  1  0
 75 71  1  0
 76 77  2  0
 77 78  1  0
 79 78  2  0
 80 79  1  0
 81 55  1  0
 81 82  1  0
 81 91  1  0
 82 85  1  0
 83 82  1  0
 83 87  1  0
 84 83  2  0
 87 86  1  0
 87 89  1  0
 89 90  1  0
 89 88  1  0
 91 94  1  1
 91 92  1  0
 93 91  1  0
M  ISO  4  12 100  13 100  53 101  54 101
M  END
>  <TORSDO>  (93) 
F 22

>  <SCORE>  (93) 
-7.306

>  <name>  (93) 
93

>  <ligand_id>  (93) 
93

>  <original_smiles>  (93) 
[H]c1c([H])c([H])c2c(c1[H])C([H])([H])C([H])([H])C([H])([H])C2([H])N([H])C(=O)C1([H])N(C(=O)C([H])(N([H])C(=O)C([H])(N([H])C([H])([H])[H])C([H])([H])[H])C(C([H])([H])[H])(C([H])([H])[H])C([H])([H])[H])C([H])([H])c2c([H])c(OC([H])([H])C([H])([H])C([H])([H])C([H])([H])C([H])([H])[N+]3([H])C([H])([H])C4([H])C5([H])C([H])(C5(C([H])([H])[H])C([H])([H])[H])C3([H])C4([H])C([H])([H])C(=O)N3C([H])([H])C([H])([H])C([H])([H])C([H])(n4nc(-c5c([H])c([H])c(Oc6c([H])c([H])c(F)c([H])c6F)c([H])c5[H])c(C(=O)N([H])[H])c4N([H])[H])C3([H])[H])c([H])c([H])c2C1([H])[H]

>  <smiles>  (93) 
[H]c1c([H])c([H])c2c(c1[H])C([H])([H])C([H])([H])C([H])([H])C2([H])N([H])C(=O)C1([H])N(C(=O)C([H])(N([H])C(=O)C([H])(N([H])C([H])([H])[H])C([H])([H])[H])C(C([H])([H])[H])(C([H])([H])[H])C([H])([H])[H])C([H])([H])c2c([H])c(OC([H])([H])C([H])([H])C([H])([H])C([H])([H])C([H])([H])[N+]3([H])C([H])([H])C4([H])C5([H])C([H])(C5(C([H])([H])[H])C([H])([H])[H])C3([H])C4([H])C([H])([H])C(=O)N3C([H])([H])C([H])([H])C([H])([H])C([H])(n4nc(-c5c([H])c([H])c(Oc6c([H])c([H])c(F)c([H])c6F)c([H])c5[H])c(C(=O)N([H])[H])c4N([H])[H])C3([H])[H])c([H])c([H])c2C1([H])[H]

$$$$
94:0:0
     RDKit          3D

 89 97  0  0  1  0  0  0  0  0999 V2000
  -29.2760  -22.0940   20.0790 C   0  0  0  0  0  3  0  0  0  0  0  0
  -29.2030  -20.7530   20.5480 C   0  0  0  0  0  0  0  0  0  0  0  0
  -28.3760  -20.4250   21.7760 C   0  0  0  0  0  1  0  0  0  0  0  0
  -30.6570  -18.3250   17.8930 C   0  0  0  0  0  2  0  0  0  0  0  0
  -30.5830  -19.6690   18.6160 C   0  0  0  0  0  2  0  0  0  0  0  0
  -29.4520  -17.5520   18.4120 C   0  0  0  0  0  2  0  0  0  0  0  0
  -29.9960  -19.4080   20.0200 C   0  0  0  0  0  3  0  0  0  0  0  0
  -29.4250  -17.8240   19.9250 C   0  0  0  0  0  3  0  0  0  0  0  0
  -29.9760  -16.4690   20.7680 C   0  0  0  0  0  2  0  0  0  0  0  0
  -30.6580  -15.0590   20.2240 C   0  0  0  0  0  0  0  0  0  0  0  0
  -30.5230  -12.7180   19.2620 C   0  0  0  0  0  2  0  0  0  0  0  0
  -29.5890  -12.7330   18.0290 C   0  0  0  0  0  2  0  0  0  0  0  0
  -28.1240  -12.5270   18.4590 C   0  0  0  0  0  2  0  0  0  0  0  0
  -27.7330  -13.4240   19.6610 C   0  0  0  0  0  3  0  0  0  0  0  0
  -28.7910  -13.3880   20.7840 C   0  0  0  0  0  2  0  0  0  0  0  0
  -30.0720  -13.7940   20.1900 N   0  0  0  0  0  0  0  0  0  0  0  0
  -31.8180  -15.1260   19.8010 O   0  0  0  0  0  0  0  0  0  0  0  0
  -25.3470  -13.9880   20.3900 C   0  0  0  0  0  0  0  0  0  0  0  0
  -24.2880  -13.2070   20.7650 C   0  0  0  0  0  0  0  0  0  0  0  0
  -24.7640  -11.8600   20.7490 C   0  0  0  0  0  0  0  0  0  0  0  0
  -26.3970  -13.1170   20.1580 N   0  0  0  0  0  0  0  0  0  0  0  0
  -26.0560  -11.8320   20.4390 N   0  0  0  0  0  0  0  0  0  0  0  0
  -24.0480  -10.5930   20.9520 C   0  0  0  0  0  0  0  0  0  0  0  0
  -24.4740   -9.6460   21.9090 C   0  0  0  0  0  3  0  0  0  0  0  0
  -23.7550   -8.4460   22.0990 C   0  0  0  0  0  3  0  0  0  0  0  0
  -22.5960   -8.1840   21.3310 C   0  0  0  0  0  0  0  0  0  0  0  0
  -22.1900   -9.1190   20.3620 C   0  0  0  0  0  3  0  0  0  0  0  0
  -22.9100  -10.3100   20.1710 C   0  0  0  0  0  3  0  0  0  0  0  0
  -21.8500   -7.0330   21.4280 O   0  0  0  0  0  0  0  0  0  0  0  0
  -21.7780   -6.3190   22.5970 C   0  0  0  0  0  0  0  0  0  0  0  0
  -21.2980   -6.8950   23.7930 C   0  0  0  0  0  3  0  0  0  0  0  0
  -21.1760   -6.1070   24.9550 C   0  0  0  0  0  3  0  0  0  0  0  0
  -21.5220   -4.7430   24.9200 C   0  0  0  0  0  0  0  0  0  0  0  0
  -21.9940   -4.1660   23.7280 C   0  0  0  0  0  3  0  0  0  0  0  0
  -22.1190   -4.9520   22.5690 C   0  0  0  0  0  0  0  0  0  0  0  0
  -22.5540   -4.3860   21.4160 F   0  0  0  0  0  0  0  0  0  0  0  0
  -21.3980   -3.9830   26.0340 F   0  0  0  0  0  0  0  0  0  0  0  0
  -22.8870  -13.6750   21.0320 C   0  0  0  0  0  0  0  0  0  0  0  0
  -22.1670  -12.9800   21.9050 N   0  0  0  0  0  0  0  0  0  0  0  0
  -22.4410  -14.6920   20.5030 O   0  0  0  0  0  0  0  0  0  0  0  0
  -22.5430  -12.1580   22.3530 H   0  0  0  0  0  0  0  0  0  0  0  0
  -21.2280  -13.2750   22.1300 H   0  0  0  0  0  0  0  0  0  0  0  0
  -25.5020  -15.3590   20.2010 N   0  0  0  0  0  0  0  0  0  0  0  0
  -24.7380  -16.0160   20.3110 H   0  0  0  0  0  0  0  0  0  0  0  0
  -26.3560  -15.7970   19.8790 H   0  0  0  0  0  0  0  0  0  0  0  0
  -29.6950  -23.9780   21.7570 C   0  0  0  0  0  1  0  0  0  0  0  0
  -28.7160  -23.5310   20.6620 C   0  0  0  0  0  3  0  0  0  0  0  0
  -28.3980  -24.8840   19.7300 C   0  0  0  0  0  2  0  0  0  0  0  0
  -28.3530  -26.3570   20.2280 O   0  0  0  0  0  0  0  0  0  0  0  0
  -24.6190  -31.9110   23.2340 C   0  0  0  0  0  0  0  0  0  0  0  0
  -27.2570  -27.2840   20.1380 C   0  0  0  0  0  0  0  0  0  0  0  0
  -23.4370  -30.5260   21.5720 C   0  0  0  0  0  3  0  0  0  0  0  0
  -24.9040  -28.9900   20.1270 C   0  0  0  0  0  0  0  0  0  0  0  0
  -25.9860  -30.8240   21.4160 C   0  0  0  0  0  2  0  0  0  0  0  0
  -26.0750  -29.4440   20.7450 C   0  0  0  0  0  0  0  0  0  0  0  0
  -27.2490  -28.6060   20.7340 C   0  0  0  0  0  3  0  0  0  0  0  0
  -26.0570  -26.9250   19.4840 C   0  0  0  0  0  3  0  0  0  0  0  0
  -24.9080  -27.7450   19.4820 C   0  0  0  0  0  3  0  0  0  0  0  0
  -23.6670  -29.8730   20.1840 C   0  0  0  0  0  2  0  0  0  0  0  0
  -24.7010  -31.1080   22.1300 N   0  0  0  0  0  0  0  0  0  0  0  0
  -23.5290  -32.1780   23.7620 O   0  0  0  0  0  0  0  0  0  0  0  0
  -22.7690  -29.4960   22.5160 C   0  0  0  0  0  0  0  0  0  0  0  0
  -21.4500  -29.2860   22.3560 N   0  0  0  0  0  0  0  0  0  0  0  0
  -23.4390  -28.8900   23.3550 O   0  0  0  0  0  0  0  0  0  0  0  0
  -20.9640  -29.8280   21.6550 H   0  0  0  0  0  0  0  0  0  0  0  0
  -18.1040  -27.9620   22.7480 C   0  0  0  0  0  0  0  0  0  0  0  0
  -20.6380  -28.3260   23.1080 C   0  0  0  0  0  3  0  0  0  0  0  0
  -20.8160  -26.8930   22.5570 C   0  0  0  0  0  2  0  0  0  0  0  0
  -19.7680  -26.5160   21.5060 C   0  0  0  0  0  2  0  0  0  0  0  0
  -18.3570  -26.6140   22.0940 C   0  0  0  0  0  2  0  0  0  0  0  0
  -19.1740  -28.7740   23.2090 C   0  0  0  0  0  0  0  0  0  0  0  0
  -18.8830  -30.0330   23.7760 C   0  0  0  0  0  3  0  0  0  0  0  0
  -17.5530  -30.4820   23.8890 C   0  0  0  0  0  3  0  0  0  0  0  0
  -16.4970  -29.6690   23.4430 C   0  0  0  0  0  3  0  0  0  0  0  0
  -16.7720  -28.4120   22.8780 C   0  0  0  0  0  3  0  0  0  0  0  0
  -25.8910  -32.5500   23.8730 C   0  0  0  0  0  3  0  0  0  0  0  0
  -26.3790  -31.7920   25.1680 C   0  0  1  0  0  0  0  0  0  0  0  0
  -25.2660  -31.5680   26.2180 C   0  0  0  0  0  1  0  0  0  0  0  0
  -26.9640  -30.4070   24.8050 C   0  0  0  0  0  1  0  0  0  0  0  0
  -27.5190  -32.5910   25.8420 C   0  0  0  0  0  1  0  0  0  0  0  0
  -25.5790  -33.9530   24.1850 N   0  0  0  0  0  0  0  0  0  0  0  0
  -25.9310  -35.0010   23.4270 C   0  0  0  0  0  0  0  0  0  0  0  0
  -26.6190  -34.8870   22.4100 O   0  0  0  0  0  0  0  0  0  0  0  0
  -24.9750  -34.1170   24.9770 H   0  0  0  0  0  0  0  0  0  0  0  0
  -24.2230  -36.8050   23.0230 C   0  0  0  0  0  1  0  0  0  0  0  0
  -25.4410  -36.3960   23.8660 C   0  0  0  0  0  3  0  0  0  0  0  0
  -27.5570  -37.2740   24.7520 C   0  0  0  0  0  1  0  0  0  0  0  0
  -26.4830  -37.4420   23.7760 N   0  0  0  0  0  0  0  0  0  0  0  0
  -26.0790  -38.3660   23.9050 H   0  0  0  0  0  0  0  0  0  0  0  0
  1  2  2  0
  1 47  1  0
  2  3  1  0
  4  6  1  0
  4  5  1  0
  5  7  1  0
  6  8  1  0
  7  2  1  0
  8  7  1  0
  8  9  1  0
 10  9  1  0
 11 16  1  0
 12 13  1  0
 12 11  1  0
 14 13  1  0
 14 21  1  0
 14 15  1  0
 16 10  1  0
 16 15  1  0
 17 10  2  0
 18 19  2  0
 19 38  1  0
 20 19  1  0
 20 23  1  0
 21 18  1  0
 21 22  1  0
 22 20  2  0
 23 24  1  0
 24 25  2  0
 26 29  1  0
 26 25  1  0
 27 26  2  0
 28 27  1  0
 28 23  2  0
 29 30  1  0
 30 31  1  0
 31 32  2  0
 33 32  1  0
 33 37  1  0
 34 33  2  0
 35 30  2  0
 35 34  1  0
 36 35  1  0
 38 39  1  0
 39 42  1  0
 39 41  1  0
 40 38  2  0
 43 44  1  0
 43 18  1  0
 45 43  1  0
 47 46  1  0
 48 49  1  0
 48 47  1  0
 50 61  2  0
 51 49  1  0
 51 56  1  0
 52 60  1  0
 52 62  1  0
 53 59  1  0
 53 55  1  0
 54 60  1  0
 55 54  1  0
 56 55  2  0
 57 51  2  0
 58 57  1  0
 58 53  2  0
 59 52  1  0
 60 50  1  0
 62 64  2  0
 63 62  1  0
 65 63  1  0
 66 75  2  0
 66 71  1  0
 67 63  1  0
 67 71  1  0
 68 67  1  0
 69 70  1  0
 69 68  1  0
 70 66  1  0
 71 72  2  0
 72 73  1  0
 74 73  2  0
 75 74  1  0
 76 50  1  0
 76 81  1  0
 76 77  1  0
 77 80  1  1
 77 78  1  0
 79 77  1  0
 81 84  1  0
 82 86  1  0
 82 81  1  0
 83 82  2  0
 86 85  1  0
 88 86  1  0
 88 89  1  0
 88 87  1  0
M  ISO  4   9 100  10 100  48 101  49 101
M  END
>  <TORSDO>  (94) 
F 20

>  <SCORE>  (94) 
-12.777

>  <name>  (94) 
94

>  <ligand_id>  (94) 
94

>  <original_smiles>  (94) 
[H]C(=C(C([H])([H])[H])C1([H])C([H])([H])C([H])([H])C([H])([H])C1([H])C([H])([H])C(=O)N1C([H])([H])C([H])([H])C([H])([H])C([H])(n2nc(-c3c([H])c([H])c(Oc4c([H])c([H])c(F)c([H])c4F)c([H])c3[H])c(C(=O)N([H])[H])c2N([H])[H])C1([H])[H])C([H])(C([H])([H])[H])C([H])([H])Oc1c([H])c([H])c2c(c1[H])C([H])([H])N(C(=O)C([H])(N([H])C(=O)C([H])(N([H])C([H])([H])[H])C([H])([H])[H])C(C([H])([H])[H])(C([H])([H])[H])C([H])([H])[H])C([H])(C(=O)N([H])C1([H])c3c([H])c([H])c([H])c([H])c3C([H])([H])C([H])([H])C1([H])[H])C2([H])[H]

>  <smiles>  (94) 
[H]C(=C(C([H])([H])[H])C1([H])C([H])([H])C([H])([H])C([H])([H])C1([H])C([H])([H])C(=O)N1C([H])([H])C([H])([H])C([H])([H])C([H])(n2nc(-c3c([H])c([H])c(Oc4c([H])c([H])c(F)c([H])c4F)c([H])c3[H])c(C(=O)N([H])[H])c2N([H])[H])C1([H])[H])C([H])(C([H])([H])[H])C([H])([H])Oc1c([H])c([H])c2c(c1[H])C([H])([H])N(C(=O)C([H])(N([H])C(=O)C([H])(N([H])C([H])([H])[H])C([H])([H])[H])C(C([H])([H])[H])(C([H])([H])[H])C([H])([H])[H])C([H])(C(=O)N([H])C1([H])c3c([H])c([H])c([H])c([H])c3C([H])([H])C([H])([H])C1([H])[H])C2([H])[H]

$$$$
95:0:0
     RDKit          3D

 92100  0  0  1  0  0  0  0  0999 V2000
  -30.6930  -19.8440   21.7760 C   0  0  0  0  0  2  0  0  0  0  0  0
  -28.3590  -20.4500   21.0870 C   0  0  0  0  0  2  0  0  0  0  0  0
  -29.4160  -19.6120   20.9550 C   0  0  0  0  0  0  0  0  0  0  0  0
  -27.9820  -17.6990   17.9430 C   0  0  0  0  0  3  0  0  0  0  0  0
  -29.3120  -17.8680   17.1330 C   0  0  0  0  0  3  0  0  0  0  0  0
  -28.0520  -17.8530   19.4860 C   0  0  0  0  0  2  0  0  0  0  0  0
  -30.6780  -17.9310   17.9260 C   0  0  0  0  0  2  0  0  0  0  0  0
  -29.3840  -18.4790   19.8820 C   0  0  0  0  0  3  0  0  0  0  0  0
  -30.5630  -17.5080   19.4230 C   0  0  0  0  0  3  0  0  0  0  0  0
  -30.3420  -15.9300   19.3030 C   0  0  0  0  0  2  0  0  0  0  0  0
  -30.9780  -14.8130   20.1750 C   0  0  0  0  0  0  0  0  0  0  0  0
  -30.6470  -12.6250   19.1950 C   0  0  0  0  0  2  0  0  0  0  0  0
  -29.7120  -12.8000   17.9860 C   0  0  0  0  0  2  0  0  0  0  0  0
  -28.2520  -12.6390   18.4320 C   0  0  0  0  0  2  0  0  0  0  0  0
  -27.8760  -13.5350   19.6340 C   0  0  0  0  0  3  0  0  0  0  0  0
  -28.9410  -13.4540   20.7510 C   0  0  0  0  0  2  0  0  0  0  0  0
  -30.2940  -13.6340   20.2020 N   0  0  0  0  0  0  0  0  0  0  0  0
  -32.2060  -14.8580   20.2260 O   0  0  0  0  0  0  0  0  0  0  0  0
  -25.5000  -14.1730   20.3520 C   0  0  0  0  0  0  0  0  0  0  0  0
  -24.4180  -13.4310   20.7000 C   0  0  0  0  0  0  0  0  0  0  0  0
  -24.8650  -12.0760   20.7010 C   0  0  0  0  0  0  0  0  0  0  0  0
  -26.5350  -13.2810   20.1300 N   0  0  0  0  0  0  0  0  0  0  0  0
  -26.1590  -12.0070   20.4110 N   0  0  0  0  0  0  0  0  0  0  0  0
  -24.1310  -10.8290   20.9050 C   0  0  0  0  0  0  0  0  0  0  0  0
  -24.5360   -9.8870   21.8720 C   0  0  0  0  0  3  0  0  0  0  0  0
  -23.8030   -8.6980   22.0530 C   0  0  0  0  0  3  0  0  0  0  0  0
  -22.6520   -8.4460   21.2690 C   0  0  0  0  0  0  0  0  0  0  0  0
  -22.2750   -9.3770   20.2870 C   0  0  0  0  0  3  0  0  0  0  0  0
  -23.0080  -10.5570   20.1050 C   0  0  0  0  0  3  0  0  0  0  0  0
  -21.8750   -7.3200   21.3670 O   0  0  0  0  0  0  0  0  0  0  0  0
  -21.7650   -6.6330   22.5470 C   0  0  0  0  0  0  0  0  0  0  0  0
  -21.2850   -7.2450   23.7240 C   0  0  0  0  0  3  0  0  0  0  0  0
  -21.1240   -6.4800   24.8970 C   0  0  0  0  0  3  0  0  0  0  0  0
  -21.4250   -5.1040   24.8910 C   0  0  0  0  0  0  0  0  0  0  0  0
  -21.8930   -4.4930   23.7120 C   0  0  0  0  0  3  0  0  0  0  0  0
  -22.0650   -5.2570   22.5460 C   0  0  0  0  0  0  0  0  0  0  0  0
  -22.5050   -4.6620   21.4110 F   0  0  0  0  0  0  0  0  0  0  0  0
  -21.2500   -4.3650   26.0110 F   0  0  0  0  0  0  0  0  0  0  0  0
  -23.0200  -13.9280   20.9440 C   0  0  0  0  0  0  0  0  0  0  0  0
  -22.2870  -13.2620   21.8220 N   0  0  0  0  0  0  0  0  0  0  0  0
  -22.6030  -14.9550   20.3980 O   0  0  0  0  0  0  0  0  0  0  0  0
  -22.6590  -12.4590   22.3090 H   0  0  0  0  0  0  0  0  0  0  0  0
  -21.3610  -13.5940   22.0500 H   0  0  0  0  0  0  0  0  0  0  0  0
  -25.6620  -15.5440   20.1740 N   0  0  0  0  0  0  0  0  0  0  0  0
  -24.8620  -16.1560   20.2670 H   0  0  0  0  0  0  0  0  0  0  0  0
  -26.5120  -16.0200   19.9140 H   0  0  0  0  0  0  0  0  0  0  0  0
  -30.7200  -21.1570   22.6340 C   0  0  0  0  0  2  0  0  0  0  0  0
  -30.7890  -22.4880   21.8150 C   0  0  0  0  0  2  0  0  0  0  0  0
  -29.7940  -23.6120   22.2240 C   0  0  0  0  0  2  0  0  0  0  0  0
  -29.8210  -24.8290   21.2580 C   0  0  0  0  0  2  0  0  0  0  0  0
  -28.6850  -25.8740   21.4930 C   0  0  0  0  0  2  0  0  0  0  0  0
  -28.6430  -26.8480   20.4270 O   0  0  0  0  0  0  0  0  0  0  0  0
  -24.6430  -31.9770   23.2850 C   0  0  0  0  0  0  0  0  0  0  0  0
  -27.4690  -27.5680   20.3580 C   0  0  0  0  0  0  0  0  0  0  0  0
  -23.5150  -30.5460   21.6120 C   0  0  0  0  0  3  0  0  0  0  0  0
  -25.0420  -29.0270   20.2430 C   0  0  0  0  0  0  0  0  0  0  0  0
  -26.0330  -30.9560   21.4890 C   0  0  0  0  0  2  0  0  0  0  0  0
  -26.1670  -29.5780   20.8730 C   0  0  0  0  0  0  0  0  0  0  0  0
  -27.3800  -28.8570   20.9340 C   0  0  0  0  0  3  0  0  0  0  0  0
  -26.3450  -27.0360   19.6940 C   0  0  0  0  0  3  0  0  0  0  0  0
  -25.1320  -27.7560   19.6420 C   0  0  0  0  0  3  0  0  0  0  0  0
  -23.7800  -29.8650   20.2420 C   0  0  0  0  0  2  0  0  0  0  0  0
  -24.7480  -31.1720   22.1910 N   0  0  0  0  0  0  0  0  0  0  0  0
  -23.5400  -32.2320   23.7960 O   0  0  0  0  0  0  0  0  0  0  0  0
  -22.8530  -29.5160   22.5580 C   0  0  0  0  0  0  0  0  0  0  0  0
  -21.5250  -29.3420   22.4440 N   0  0  0  0  0  0  0  0  0  0  0  0
  -23.5370  -28.8800   23.3590 O   0  0  0  0  0  0  0  0  0  0  0  0
  -21.0060  -29.9640   21.8340 H   0  0  0  0  0  0  0  0  0  0  0  0
  -18.1790  -28.1010   22.8680 C   0  0  0  0  0  0  0  0  0  0  0  0
  -20.7250  -28.3760   23.1960 C   0  0  0  0  0  3  0  0  0  0  0  0
  -20.8470  -26.9480   22.6050 C   0  0  0  0  0  2  0  0  0  0  0  0
  -19.7770  -26.6470   21.5590 C   0  0  0  0  0  2  0  0  0  0  0  0
  -18.3790  -26.7680   22.1700 C   0  0  0  0  0  2  0  0  0  0  0  0
  -19.2800  -28.8650   23.3370 C   0  0  0  0  0  0  0  0  0  0  0  0
  -19.0380  -30.1140   23.9470 C   0  0  0  0  0  3  0  0  0  0  0  0
  -17.7270  -30.6030   24.0870 C   0  0  0  0  0  3  0  0  0  0  0  0
  -16.6390  -29.8340   23.6310 C   0  0  0  0  0  3  0  0  0  0  0  0
  -16.8640  -28.5780   23.0390 C   0  0  0  0  0  3  0  0  0  0  0  0
  -25.8990  -32.6360   23.9340 C   0  0  0  0  0  3  0  0  0  0  0  0
  -25.5630  -34.0320   24.2400 N   0  0  0  0  0  0  0  0  0  0  0  0
  -25.9050  -35.0800   23.4750 C   0  0  0  0  0  0  0  0  0  0  0  0
  -26.6120  -34.9750   22.4690 O   0  0  0  0  0  0  0  0  0  0  0  0
  -24.9390  -34.1930   25.0170 H   0  0  0  0  0  0  0  0  0  0  0  0
  -24.1620  -36.8380   23.0440 C   0  0  0  0  0  1  0  0  0  0  0  0
  -25.3800  -36.4650   23.9040 C   0  0  0  0  0  3  0  0  0  0  0  0
  -27.4710  -37.3910   24.7990 C   0  0  0  0  0  1  0  0  0  0  0  0
  -26.3990  -37.5330   23.8140 N   0  0  0  0  0  0  0  0  0  0  0  0
  -25.9710  -38.4470   23.9380 H   0  0  0  0  0  0  0  0  0  0  0  0
  -26.3940  -31.8850   25.2290 C   0  0  1  0  0  0  0  0  0  0  0  0
  -25.2710  -31.6250   26.2600 C   0  0  0  0  0  1  0  0  0  0  0  0
  -27.0270  -30.5230   24.8590 C   0  0  0  0  0  1  0  0  0  0  0  0
  -27.5030  -32.7100   25.9240 C   0  0  0  0  0  1  0  0  0  0  0  0
  1 47  1  0
  3  2  2  0
  3  1  1  0
  4  6  1  0
  5  7  1  0
  5  4  2  0
  6  8  1  0
  7  9  1  0
  8  3  1  0
  9 10  1  0
  9  8  1  0
 10 11  1  0
 11 17  1  0
 11 18  2  0
 12 17  1  0
 13 14  1  0
 13 12  1  0
 15 14  1  0
 15 22  1  0
 15 16  1  0
 17 16  1  0
 19 20  2  0
 20 21  1  0
 20 39  1  0
 21 24  1  0
 22 19  1  0
 22 23  1  0
 23 21  2  0
 24 25  1  0
 25 26  2  0
 27 30  1  0
 27 26  1  0
 28 27  2  0
 29 28  1  0
 29 24  2  0
 30 31  1  0
 31 32  1  0
 32 33  2  0
 34 33  1  0
 34 38  1  0
 35 34  2  0
 36 31  2  0
 36 35  1  0
 37 36  1  0
 39 40  1  0
 40 43  1  0
 40 42  1  0
 41 39  2  0
 44 45  1  0
 44 19  1  0
 46 44  1  0
 48 49  1  0
 48 47  1  0
 50 51  1  0
 50 49  1  0
 52 51  1  0
 53 64  2  0
 54 52  1  0
 54 59  1  0
 55 63  1  0
 55 65  1  0
 56 58  1  0
 57 63  1  0
 58 59  2  0
 58 57  1  0
 60 54  2  0
 61 60  1  0
 61 56  2  0
 62 56  1  0
 62 55  1  0
 63 53  1  0
 65 67  2  0
 66 65  1  0
 68 66  1  0
 69 78  2  0
 69 74  1  0
 70 66  1  0
 70 74  1  0
 71 70  1  0
 72 73  1  0
 72 71  1  0
 73 69  1  0
 74 75  2  0
 75 76  1  0
 77 76  2  0
 78 77  1  0
 79 53  1  0
 79 80  1  0
 79 89  1  0
 80 83  1  0
 81 85  1  0
 81 80  1  0
 82 81  2  0
 85 84  1  0
 87 85  1  0
 87 88  1  0
 87 86  1  0
 89 92  1  1
 89 90  1  0
 91 89  1  0
M  ISO  4  10 100  11 100  51 101  52 101
M  END
>  <TORSDO>  (95) 
F 24

>  <SCORE>  (95) 
-12.011

>  <name>  (95) 
95

>  <ligand_id>  (95) 
95

>  <original_smiles>  (95) 
[H]C([H])=C(C([H])([H])C([H])([H])C([H])([H])C([H])([H])C([H])([H])C([H])([H])Oc1c([H])c([H])c2c(c1[H])C([H])([H])N(C(=O)C([H])(N([H])C(=O)C([H])(N([H])C([H])([H])[H])C([H])([H])[H])C(C([H])([H])[H])(C([H])([H])[H])C([H])([H])[H])C([H])(C(=O)N([H])C1([H])c3c([H])c([H])c([H])c([H])c3C([H])([H])C([H])([H])C1([H])[H])C2([H])[H])C1([H])C([H])([H])C([H])([H])C([H])([H])C([H])([H])C1([H])C([H])([H])C(=O)N1C([H])([H])C([H])([H])C([H])([H])C([H])(n2nc(-c3c([H])c([H])c(Oc4c([H])c([H])c(F)c([H])c4F)c([H])c3[H])c(C(=O)N([H])[H])c2N([H])[H])C1([H])[H]

>  <smiles>  (95) 
[H]C([H])=C(C([H])([H])C([H])([H])C([H])([H])C([H])([H])C([H])([H])C([H])([H])Oc1c([H])c([H])c2c(c1[H])C([H])([H])N(C(=O)C([H])(N([H])C(=O)C([H])(N([H])C([H])([H])[H])C([H])([H])[H])C(C([H])([H])[H])(C([H])([H])[H])C([H])([H])[H])C([H])(C(=O)N([H])C1([H])c3c([H])c([H])c([H])c([H])c3C([H])([H])C([H])([H])C1([H])[H])C2([H])[H])C1([H])C([H])([H])C([H])([H])C([H])([H])C([H])([H])C1([H])C([H])([H])C(=O)N1C([H])([H])C([H])([H])C([H])([H])C([H])(n2nc(-c3c([H])c([H])c(Oc4c([H])c([H])c(F)c([H])c4F)c([H])c3[H])c(C(=O)N([H])[H])c2N([H])[H])C1([H])[H]

$$$$
