0:0:0
     RDKit          3D

 95104  0  0  1  0  0  0  0  0999 V2000
  -30.1480  -20.7240   21.0400 C   0  0  0  0  0  0  0  0  0  0  0  0
  -29.4900  -21.6780   20.3420 N   0  0  0  0  0  0  0  0  0  0  0  0
  -30.4870  -20.9300   22.2110 O   0  0  0  0  0  0  0  0  0  0  0  0
  -29.2330  -21.4810   19.3830 H   0  0  0  0  0  0  0  0  0  0  0  0
  -28.9830  -17.9410   21.8620 C   0  0  0  0  0  2  0  0  0  0  0  0
  -30.1930  -17.7520   22.8070 C   0  0  0  0  0  2  0  0  0  0  0  0
  -29.8750  -16.9200   19.6720 C   0  0  0  0  0  2  0  0  0  0  0  0
  -31.7860  -16.3690   21.3050 C   0  0  0  0  0  2  0  0  0  0  0  0
  -30.5670  -15.8030   20.5300 C   0  0  0  0  0  3  0  0  0  0  0  0
  -30.5450  -19.3520   20.4090 C   0  0  0  0  0  3  0  0  0  0  0  0
  -29.4430  -18.2380   20.4160 C   0  0  0  0  0  3  0  0  0  0  0  0
  -31.5470  -17.7020   22.0550 C   0  0  0  0  0  3  0  0  0  0  0  0
  -31.7310  -18.8810   21.1640 N   0  0  0  0  0  4  0  0  0  0  0  0
  -31.9060  -19.6830   21.7600 H   0  0  0  0  0  0  0  0  0  0  0  0
  -32.5230  -18.7740   20.5550 H   0  0  0  0  0  0  0  0  0  0  0  0
  -31.0120  -14.5800   19.6650 C   0  0  0  0  0  0  0  0  0  0  0  0
  -30.4900  -12.4920   18.4460 C   0  0  0  0  0  2  0  0  0  0  0  0
  -29.4080  -12.7870   17.3870 C   0  0  0  0  0  2  0  0  0  0  0  0
  -27.9970  -12.6550   17.9950 C   0  0  0  0  0  2  0  0  0  0  0  0
  -27.8530  -13.4140   19.3420 C   0  0  0  0  0  3  0  0  0  0  0  0
  -29.0390  -13.0990   20.2820 C   0  0  0  0  0  2  0  0  0  0  0  0
  -30.2850  -13.4260   19.5690 N   0  0  0  0  0  0  0  0  0  0  0  0
  -32.0370  -14.7370   18.9960 O   0  0  0  0  0  0  0  0  0  0  0  0
  -25.5920  -14.0240   20.4040 C   0  0  0  0  0  0  0  0  0  0  0  0
  -24.5550  -13.2530   20.8570 C   0  0  0  0  0  0  0  0  0  0  0  0
  -24.9600  -11.8960   20.6710 C   0  0  0  0  0  0  0  0  0  0  0  0
  -26.5670  -13.1360   19.9760 N   0  0  0  0  0  0  0  0  0  0  0  0
  -26.1970  -11.8470   20.1920 N   0  0  0  0  0  0  0  0  0  0  0  0
  -24.2210  -10.6420   20.8690 C   0  0  0  0  0  0  0  0  0  0  0  0
  -24.6670   -9.6570   21.7780 C   0  0  0  0  0  3  0  0  0  0  0  0
  -23.9290   -8.4690   21.9650 C   0  0  0  0  0  3  0  0  0  0  0  0
  -22.7310   -8.2550   21.2420 C   0  0  0  0  0  0  0  0  0  0  0  0
  -22.3040   -9.2280   20.3210 C   0  0  0  0  0  3  0  0  0  0  0  0
  -23.0420  -10.4080   20.1320 C   0  0  0  0  0  3  0  0  0  0  0  0
  -21.9640   -7.1200   21.3380 O   0  0  0  0  0  0  0  0  0  0  0  0
  -21.8190   -6.4470   22.5250 C   0  0  0  0  0  0  0  0  0  0  0  0
  -21.2900   -7.0700   23.6750 C   0  0  0  0  0  3  0  0  0  0  0  0
  -21.0930   -6.3250   24.8540 C   0  0  0  0  0  3  0  0  0  0  0  0
  -21.4170   -4.9550   24.8830 C   0  0  0  0  0  0  0  0  0  0  0  0
  -21.9400   -4.3300   23.7370 C   0  0  0  0  0  3  0  0  0  0  0  0
  -22.1370   -5.0740   22.5610 C   0  0  0  0  0  0  0  0  0  0  0  0
  -22.6220   -4.4630   21.4530 F   0  0  0  0  0  0  0  0  0  0  0  0
  -21.2220   -4.2360   26.0130 F   0  0  0  0  0  0  0  0  0  0  0  0
  -23.2230  -13.7450   21.3450 C   0  0  0  0  0  0  0  0  0  0  0  0
  -22.5980  -13.0140   22.2630 N   0  0  0  0  0  0  0  0  0  0  0  0
  -22.7490  -14.8090   20.9510 O   0  0  0  0  0  0  0  0  0  0  0  0
  -22.9960  -12.1490   22.6020 H   0  0  0  0  0  0  0  0  0  0  0  0
  -21.7100  -13.3210   22.6320 H   0  0  0  0  0  0  0  0  0  0  0  0
  -25.7800  -15.3980   20.3010 N   0  0  0  0  0  0  0  0  0  0  0  0
  -25.0580  -16.0640   20.5570 H   0  0  0  0  0  0  0  0  0  0  0  0
  -26.5960  -15.8380   19.8970 H   0  0  0  0  0  0  0  0  0  0  0  0
  -29.0020  -22.9400   20.9530 C   0  0  0  0  0  2  0  0  0  0  0  0
  -29.1070  -24.2330   20.0910 C   0  0  0  0  0  2  0  0  0  0  0  0
  -28.5840  -25.4760   20.8710 C   0  0  0  0  0  2  0  0  0  0  0  0
  -28.6970  -26.7460   20.1940 O   0  0  0  0  0  0  0  0  0  0  0  0
  -24.6890  -31.8320   23.2150 C   0  0  0  0  0  0  0  0  0  0  0  0
  -27.5300  -27.4820   20.1700 C   0  0  0  0  0  0  0  0  0  0  0  0
  -23.5620  -30.4050   21.5400 C   0  0  0  0  0  3  0  0  0  0  0  0
  -25.0920  -28.9210   20.1350 C   0  0  0  0  0  0  0  0  0  0  0  0
  -26.0800  -30.8420   21.3960 C   0  0  0  0  0  2  0  0  0  0  0  0
  -26.2230  -29.4760   20.7500 C   0  0  0  0  0  0  0  0  0  0  0  0
  -27.4470  -28.7660   20.7610 C   0  0  0  0  0  3  0  0  0  0  0  0
  -26.3850  -26.9450   19.5450 C   0  0  0  0  0  3  0  0  0  0  0  0
  -25.1700  -27.6550   19.5280 C   0  0  0  0  0  3  0  0  0  0  0  0
  -23.8220  -29.7410   20.1610 C   0  0  0  0  0  2  0  0  0  0  0  0
  -24.7940  -31.0420   22.1090 N   0  0  0  0  0  0  0  0  0  0  0  0
  -23.5890  -32.0680   23.7320 O   0  0  0  0  0  0  0  0  0  0  0  0
  -22.9210  -29.3590   22.4810 C   0  0  0  0  0  0  0  0  0  0  0  0
  -21.6110  -29.1210   22.3100 N   0  0  0  0  0  0  0  0  0  0  0  0
  -23.6020  -28.7630   23.3200 O   0  0  0  0  0  0  0  0  0  0  0  0
  -21.1210  -29.6590   21.6090 H   0  0  0  0  0  0  0  0  0  0  0  0
  -18.2770  -27.7760   22.6800 C   0  0  0  0  0  0  0  0  0  0  0  0
  -20.8070  -28.1520   23.0530 C   0  0  0  0  0  3  0  0  0  0  0  0
  -20.9980  -26.7230   22.4930 C   0  0  0  0  0  2  0  0  0  0  0  0
  -19.9530  -26.3460   21.4370 C   0  0  0  0  0  2  0  0  0  0  0  0
  -18.5420  -26.4310   22.0240 C   0  0  0  0  0  2  0  0  0  0  0  0
  -19.3410  -28.5900   23.1480 C   0  0  0  0  0  0  0  0  0  0  0  0
  -19.0430  -29.8460   23.7200 C   0  0  0  0  0  3  0  0  0  0  0  0
  -17.7120  -30.2890   23.8290 C   0  0  0  0  0  3  0  0  0  0  0  0
  -16.6600  -29.4730   23.3780 C   0  0  0  0  0  3  0  0  0  0  0  0
  -16.9430  -28.2180   22.8090 C   0  0  0  0  0  3  0  0  0  0  0  0
  -25.9410  -32.4980   23.8640 C   0  0  0  0  0  3  0  0  0  0  0  0
  -26.4610  -31.7310   25.1420 C   0  0  1  0  0  0  0  0  0  0  0  0
  -25.3520  -31.4200   26.1730 C   0  0  0  0  0  1  0  0  0  0  0  0
  -27.1240  -30.3910   24.7420 C   0  0  0  0  0  1  0  0  0  0  0  0
  -27.5500  -32.5700   25.8500 C   0  0  0  0  0  1  0  0  0  0  0  0
  -25.5830  -33.8830   24.2010 N   0  0  0  0  0  0  0  0  0  0  0  0
  -25.8920  -34.9510   23.4520 C   0  0  0  0  0  0  0  0  0  0  0  0
  -26.5810  -34.8770   22.4310 O   0  0  0  0  0  0  0  0  0  0  0  0
  -24.9700  -34.0110   24.9920 H   0  0  0  0  0  0  0  0  0  0  0  0
  -24.1050  -36.6830   23.0880 C   0  0  0  0  0  1  0  0  0  0  0  0
  -25.3520  -36.3180   23.9100 C   0  0  0  0  0  3  0  0  0  0  0  0
  -27.4430  -37.2770   24.7670 C   0  0  0  0  0  1  0  0  0  0  0  0
  -26.3480  -37.4080   23.8110 N   0  0  0  0  0  0  0  0  0  0  0  0
  -25.9090  -38.3140   23.9540 H   0  0  0  0  0  0  0  0  0  0  0  0
  1  3  2  0
  2 52  1  0
  2  1  1  0
  4  2  1  0
  5  6  1  0
  7  9  1  0
  9 16  1  0
  9  8  1  0
 10 11  1  0
 10  1  1  0
 10 13  1  0
 11  7  1  0
 11  5  1  0
 12  8  1  0
 12  6  1  0
 13 14  1  0
 13 12  1  0
 15 13  1  0
 17 22  1  0
 18 19  1  0
 18 17  1  0
 20 19  1  0
 20 27  1  0
 20 21  1  0
 22 16  1  0
 22 21  1  0
 23 16  2  0
 24 25  2  0
 25 44  1  0
 26 25  1  0
 26 29  1  0
 27 28  1  0
 27 24  1  0
 28 26  2  0
 29 30  1  0
 30 31  2  0
 32 35  1  0
 32 31  1  0
 33 32  2  0
 34 33  1  0
 34 29  2  0
 35 36  1  0
 36 41  2  0
 36 37  1  0
 37 38  2  0
 38 39  1  0
 39 43  1  0
 40 39  2  0
 41 40  1  0
 42 41  1  0
 44 45  1  0
 45 47  1  0
 45 48  1  0
 46 44  2  0
 49 24  1  0
 49 50  1  0
 51 49  1  0
 53 54  1  0
 53 52  1  0
 55 54  1  0
 56 67  2  0
 57 55  1  0
 57 62  1  0
 58 66  1  0
 58 68  1  0
 59 65  1  0
 59 61  1  0
 60 66  1  0
 61 62  2  0
 61 60  1  0
 63 57  2  0
 64 63  1  0
 64 59  2  0
 65 58  1  0
 66 56  1  0
 68 70  2  0
 69 68  1  0
 71 69  1  0
 72 81  2  0
 72 77  1  0
 73 69  1  0
 73 77  1  0
 74 73  1  0
 75 76  1  0
 75 74  1  0
 76 72  1  0
 77 78  2  0
 78 79  1  0
 80 79  2  0
 81 80  1  0
 82 56  1  0
 82 87  1  0
 82 83  1  0
 83 86  1  1
 83 84  1  0
 85 83  1  0
 87 90  1  0
 88 92  1  0
 88 87  1  0
 89 88  2  0
 92 91  1  0
 94 92  1  0
 94 95  1  0
 94 93  1  0
M  ISO  4   9 100  16 100  54 101  55 101
M  END
>  <TORSDO>  (1) 
F 20

>  <SCORE>  (1) 
-10.742

>  <name>  (1) 
0

>  <ligand_id>  (1) 
0

>  <original_smiles>  (1) 
[H]c1c([H])c([H])c2c(c1[H])C([H])([H])C([H])([H])C([H])([H])C2([H])N([H])C(=O)C1([H])N(C(=O)C([H])(N([H])C(=O)C([H])(N([H])C([H])([H])[H])C([H])([H])[H])C(C([H])([H])[H])(C([H])([H])[H])C([H])([H])[H])C([H])([H])c2c([H])c(OC([H])([H])C([H])([H])C([H])([H])N([H])C(=O)C3([H])C4([H])C([H])([H])C([H])([H])C([H])(C([H])([H])C([H])(C(=O)N5C([H])([H])C([H])([H])C([H])([H])C([H])(n6nc(-c7c([H])c([H])c(Oc8c([H])c([H])c(F)c([H])c8F)c([H])c7[H])c(C(=O)N([H])[H])c6N([H])[H])C5([H])[H])C4([H])[H])[N+]3([H])[H])c([H])c([H])c2C1([H])[H]

>  <smiles>  (1) 
[H]c1c([H])c([H])c2c(c1[H])C([H])([H])C([H])([H])C([H])([H])C2([H])N([H])C(=O)C1([H])N(C(=O)C([H])(N([H])C(=O)C([H])(N([H])C([H])([H])[H])C([H])([H])[H])C(C([H])([H])[H])(C([H])([H])[H])C([H])([H])[H])C([H])([H])c2c([H])c(OC([H])([H])C([H])([H])C([H])([H])N([H])C(=O)C3([H])C4([H])C([H])([H])C([H])([H])C([H])(C([H])([H])C([H])(C(=O)N5C([H])([H])C([H])([H])C([H])([H])C([H])(n6nc(-c7c([H])c([H])c(Oc8c([H])c([H])c(F)c([H])c8F)c([H])c7[H])c(C(=O)N([H])[H])c6N([H])[H])C5([H])[H])C4([H])[H])[N+]3([H])[H])c([H])c([H])c2C1([H])[H]

$$$$
1:0:0
     RDKit          3D

 96 99  0  0  1  0  0  0  0  0999 V2000
  -25.5070  -23.3480   18.3660 C   0  0  0  0  0  3  0  0  0  0  0  0
  -27.0400  -22.4400   17.8660 C   0  0  0  0  0  3  0  0  0  0  0  0
  -28.2660  -21.3200   19.9730 C   0  0  0  0  0  3  0  0  0  0  0  0
  -28.1840  -21.3060   18.6280 C   0  0  0  0  0  0  0  0  0  0  0  0
  -27.5010  -22.1760   20.9600 C   0  0  0  0  0  1  0  0  0  0  0  0
  -29.3740  -20.5180   15.5320 C   0  0  0  0  0  2  0  0  0  0  0  0
  -30.7690  -20.9660   16.0180 C   0  0  0  0  0  2  0  0  0  0  0  0
  -28.7200  -19.6570   16.6270 C   0  0  0  0  0  2  0  0  0  0  0  0
  -31.0500  -20.2370   17.3380 C   0  0  0  0  0  3  0  0  0  0  0  0
  -29.3220  -20.1280   17.9510 C   0  0  0  0  0  3  0  0  0  0  0  0
  -31.8360  -18.1280   16.0760 C   0  0  0  0  0  2  0  0  0  0  0  0
  -32.2680  -18.9960   17.0090 C   0  0  0  0  0  0  0  0  0  0  0  0
  -33.8310  -18.5810   17.4160 C   0  0  0  0  0  0  0  0  0  0  0  0
  -35.2130  -16.3820   17.7810 C   0  0  0  0  0  2  0  0  0  0  0  0
  -34.5810  -15.1960   16.9940 C   0  0  0  0  0  2  0  0  0  0  0  0
  -33.3260  -14.6530   17.7120 C   0  0  0  0  0  2  0  0  0  0  0  0
  -32.4450  -15.8110   18.2340 C   0  0  0  0  0  3  0  0  0  0  0  0
  -33.2410  -16.8180   19.0560 C   0  0  0  0  0  2  0  0  0  0  0  0
  -34.1380  -17.3970   18.1020 N   0  0  0  0  0  0  0  0  0  0  0  0
  -34.8780  -19.0350   16.8860 O   0  0  0  0  0  0  0  0  0  0  0  0
  -30.4640  -16.1880   19.7590 C   0  0  0  0  0  0  0  0  0  0  0  0
  -29.5180  -15.3320   20.2390 C   0  0  0  0  0  0  0  0  0  0  0  0
  -29.8680  -14.0380   19.7450 C   0  0  0  0  0  0  0  0  0  0  0  0
  -31.3000  -15.4010   18.9900 N   0  0  0  0  0  0  0  0  0  0  0  0
  -30.9890  -14.0900   19.0450 N   0  0  0  0  0  0  0  0  0  0  0  0
  -29.1660  -12.7600   19.8330 C   0  0  0  0  0  0  0  0  0  0  0  0
  -29.1890  -11.9850   21.0120 C   0  0  0  0  0  3  0  0  0  0  0  0
  -28.4910  -10.7610   21.0710 C   0  0  0  0  0  3  0  0  0  0  0  0
  -27.7630  -10.3070   19.9450 C   0  0  0  0  0  0  0  0  0  0  0  0
  -27.7700  -11.0720   18.7650 C   0  0  0  0  0  3  0  0  0  0  0  0
  -28.4690  -12.2870   18.7070 C   0  0  0  0  0  3  0  0  0  0  0  0
  -27.0730   -9.1220   19.9010 O   0  0  0  0  0  0  0  0  0  0  0  0
  -25.9370   -8.9270   20.6440 C   0  0  0  0  0  0  0  0  0  0  0  0
  -24.7380   -9.6180   20.3690 C   0  0  0  0  0  3  0  0  0  0  0  0
  -23.5760   -9.3340   21.1130 C   0  0  0  0  0  3  0  0  0  0  0  0
  -23.6090   -8.3540   22.1240 C   0  0  0  0  0  0  0  0  0  0  0  0
  -24.8020   -7.6600   22.3940 C   0  0  0  0  0  3  0  0  0  0  0  0
  -25.9630   -7.9450   21.6550 C   0  0  0  0  0  0  0  0  0  0  0  0
  -27.1050   -7.2600   21.9040 F   0  0  0  0  0  0  0  0  0  0  0  0
  -22.4910   -8.0730   22.8330 F   0  0  0  0  0  0  0  0  0  0  0  0
  -28.3030  -15.7110   21.0280 C   0  0  0  0  0  0  0  0  0  0  0  0
  -27.8240  -14.8110   21.8780 N   0  0  0  0  0  0  0  0  0  0  0  0
  -27.7980  -16.8290   20.9260 O   0  0  0  0  0  0  0  0  0  0  0  0
  -28.2560  -13.9030   21.9740 H   0  0  0  0  0  0  0  0  0  0  0  0
  -27.0170  -15.0310   22.4430 H   0  0  0  0  0  0  0  0  0  0  0  0
  -30.6680  -17.5590   19.8870 N   0  0  0  0  0  0  0  0  0  0  0  0
  -30.0380  -18.1520   20.4140 H   0  0  0  0  0  0  0  0  0  0  0  0
  -31.4330  -18.0670   19.4600 H   0  0  0  0  0  0  0  0  0  0  0  0
  -24.1630  -24.1980   17.4470 C   0  0  0  0  0  2  0  0  0  0  0  0
  -22.4370  -24.0350   17.2580 N   0  0  0  0  0  4  0  0  0  0  0  0
  -22.0560  -24.5180   18.0570 H   0  0  0  0  0  0  0  0  0  0  0  0
  -22.2640  -23.0640   17.4700 H   0  0  0  0  0  0  0  0  0  0  0  0
  -21.2610  -24.4110   15.9340 C   0  0  0  0  0  1  0  0  0  0  0  0
  -22.2950  -25.5180   13.4600 C   0  0  0  0  0 15  0  0  0  0  0  0
  -24.2760  -26.1020   13.4150 C   0  0  0  0  0  1  0  0  0  0  0  0
  -25.8590  -26.2490   14.3540 O   0  0  0  0  0  0  0  0  0  0  0  0
  -26.5070  -27.9520   19.4770 C   0  0  0  0  0  0  0  0  0  0  0  0
  -27.2990  -26.3160   14.1020 C   0  0  0  0  0  3  0  0  0  0  0  0
  -25.4250  -28.6300   17.4030 C   0  0  0  0  0  3  0  0  0  0  0  0
  -26.8390  -28.5560   15.2250 C   0  0  0  0  0  3  0  0  0  0  0  0
  -27.8900  -27.9970   17.4090 C   0  0  0  0  0  2  0  0  0  0  0  0
  -27.6670  -27.6970   15.9480 C   0  0  0  0  0  3  0  0  0  0  0  0
  -28.0910  -26.5400   15.2740 C   0  0  0  0  0  2  0  0  0  0  0  0
  -27.4070  -27.3250   13.1900 C   0  0  0  0  0  2  0  0  0  0  0  0
  -26.8990  -28.4870   13.7960 C   0  0  0  0  0  2  0  0  0  0  0  0
  -25.8110  -29.3190   16.0370 C   0  0  0  0  0  2  0  0  0  0  0  0
  -26.6310  -28.2140   18.1520 N   0  0  0  0  0  0  0  0  0  0  0  0
  -25.4380  -28.1450   20.0760 O   0  0  0  0  0  0  0  0  0  0  0  0
  -24.5110  -27.3750   17.3410 C   0  0  0  0  0  0  0  0  0  0  0  0
  -23.6740  -27.1240   18.3110 N   0  0  0  0  0  0  0  0  0  0  0  0
  -24.6020  -26.5330   16.4580 O   0  0  0  0  0  0  0  0  0  0  0  0
  -23.6620  -27.7330   19.1180 H   0  0  0  0  0  0  0  0  0  0  0  0
  -20.7250  -26.8120   20.4070 C   0  0  0  0  0  0  0  0  0  0  0  0
  -22.4700  -26.2890   18.0970 C   0  0  0  0  0  2  0  0  0  0  0  0
  -21.2390  -26.8810   16.5590 C   0  0  0  0  0 15  0  0  0  0  0  0
  -19.3410  -27.8950   17.5380 C   0  0  0  0  0 15  0  0  0  0  0  0
  -19.4380  -27.6690   19.5310 C   0  0  0  0  0  1  0  0  0  0  0  0
  -22.0060  -26.2880   19.7870 C   0  0  0  0  0  0  0  0  0  0  0  0
  -23.0090  -25.7970   20.7170 C   0  0  0  0  0  3  0  0  0  0  0  0
  -22.8470  -25.6390   22.1180 C   0  0  0  0  0  3  0  0  0  0  0  0
  -21.5970  -25.9370   22.6730 C   0  0  0  0  0  3  0  0  0  0  0  0
  -20.5830  -26.4990   21.8340 C   0  0  0  0  0  3  0  0  0  0  0  0
  -27.7120  -27.4270   20.2930 C   0  0  0  0  0  3  0  0  0  0  0  0
  -27.7450  -25.8560   20.4110 C   0  0  1  0  0  0  0  0  0  0  0  0
  -26.3810  -25.2260   20.7780 C   0  0  0  0  0  1  0  0  0  0  0  0
  -28.2200  -25.2050   19.0920 C   0  0  0  0  0  1  0  0  0  0  0  0
  -28.7690  -25.4520   21.4950 C   0  0  0  0  0  1  0  0  0  0  0  0
  -27.6150  -28.0560   21.6130 N   0  0  0  0  0  0  0  0  0  0  0  0
  -28.4030  -29.0510   22.0330 C   0  0  0  0  0  0  0  0  0  0  0  0
  -29.3570  -29.4730   21.3720 O   0  0  0  0  0  0  0  0  0  0  0  0
  -26.8240  -27.7960   22.1840 H   0  0  0  0  0  0  0  0  0  0  0  0
  -27.4580  -31.0570   23.2190 C   0  0  0  0  0  1  0  0  0  0  0  0
  -28.0870  -29.6690   23.4080 C   0  0  0  0  0  3  0  0  0  0  0  0
  -29.7790  -28.4780   24.7270 C   0  0  0  0  0  1  0  0  0  0  0  0
  -29.2730  -29.7740   24.2850 N   0  0  0  0  0  0  0  0  0  0  0  0
  -29.0590  -30.3290   25.1110 H   0  0  0  0  0  0  0  0  0  0  0  0
  2  1  2  0
  2  4  1  0
  3  5  1  0
  4  3  2  0
  6  7  1  0
  6  8  1  0
  7  9  1  0
  8 10  1  0
  9 12  1  0
  9 10  1  0
 10  4  1  0
 11 12  2  0
 12 13  1  0
 13 19  1  0
 14 19  1  0
 15 16  1  0
 15 14  1  0
 17 16  1  0
 17 24  1  0
 17 18  1  0
 19 18  1  0
 20 13  2  0
 21 46  1  0
 21 22  2  0
 22 41  1  0
 23 26  1  0
 23 22  1  0
 24 25  1  0
 24 21  1  0
 25 23  2  0
 26 27  1  0
 27 28  2  0
 29 28  1  0
 30 29  2  0
 31 30  1  0
 31 26  2  0
 32 29  1  0
 32 33  1  0
 33 38  1  0
 34 33  2  0
 34 35  1  0
 35 36  2  0
 36 37  1  0
 36 40  1  0
 38 39  1  0
 38 37  2  0
 41 42  1  0
 42 44  1  0
 42 45  1  0
 43 41  2  0
 46 47  1  0
 48 46  1  0
 49  1  1  0
 50 49  1  0
 50 52  1  0
 50 51  1  0
 53 50  1  0
 55 56  1  0
 57 68  2  0
 58 56  1  0
 58 63  1  0
 59 69  1  0
 59 67  1  0
 60 65  1  0
 60 62  1  0
 60 66  1  0
 61 67  1  0
 62 63  1  0
 62 61  1  0
 64 65  1  0
 64 58  1  0
 66 59  1  0
 67 57  1  0
 69 70  1  0
 70 72  1  0
 71 69  2  0
 73 82  1  0
 74 70  1  0
 74 78  1  0
 77 73  1  0
 78 73  2  0
 78 79  1  0
 79 80  2  0
 80 81  1  0
 82 81  2  0
 83 57  1  0
 83 84  1  0
 83 88  1  0
 84 85  1  1
 84 87  1  0
 86 84  1  0
 88 89  1  0
 88 91  1  0
 89 93  1  0
 90 89  2  0
 93 92  1  0
 93 95  1  0
 95 94  1  0
 95 96  1  0
M  ISO  4  12 100  13 100  55 101  56 101
M  END
>  <TORSDO>  (2) 
F 25

>  <SCORE>  (2) 
-4.554

>  <name>  (2) 
1

>  <ligand_id>  (2) 
1

>  <original_smiles>  (2) 
[H]C([H])=C(C(=O)N1C([H])([H])C([H])([H])C([H])([H])C([H])(n2nc(-c3c([H])c([H])c(Oc4c([H])c([H])c(F)c([H])c4F)c([H])c3[H])c(C(=O)N([H])[H])c2N([H])[H])C1([H])[H])C1([H])C([H])([H])C([H])([H])C([H])([H])C1([H])C(=C([H])C([H])([H])[H])C([H])([H])C([H])([H])C([H])([H])[N+]([H])([H])C([H])([H])C([H])([H])C([H])([H])Oc1c([H])c([H])c2c(c1[H])C([H])([H])N(C(=O)C([H])(N([H])C(=O)C([H])(N([H])C([H])([H])[H])C([H])([H])[H])C(C([H])([H])[H])(C([H])([H])[H])C([H])([H])[H])C([H])(C(=O)N([H])C1([H])c3c([H])c([H])c([H])c([H])c3C([H])([H])C([H])([H])C1([H])[H])C2([H])[H]

>  <smiles>  (2) 
[H]C([H])=C(C(=O)N1C([H])([H])C([H])([H])C([H])([H])C([H])(n2nc(-c3c([H])c([H])c(Oc4c([H])c([H])c(F)c([H])c4F)c([H])c3[H])c(C(=O)N([H])[H])c2N([H])[H])C1([H])[H])C1([H])C([H])([H])C([H])([H])C([H])([H])C1([H])C(=C([H])C([H])([H])[H])C([H])([H])C([H])([H])C([H])([H])[N+]([H])([H])C([H])([H])C([H])([H])C([H])([H])Oc1c([H])c([H])c2c(c1[H])C([H])([H])N(C(=O)C([H])(N([H])C(=O)C([H])(N([H])C([H])([H])[H])C([H])([H])[H])C(C([H])([H])[H])(C([H])([H])[H])C([H])([H])[H])C([H])(C(=O)N([H])C1([H])c3c([H])c([H])c([H])c([H])c3C([H])([H])C([H])([H])C1([H])[H])C2([H])[H]

$$$$
2:0:0
     RDKit          3D

 92100  0  0  1  0  0  0  0  0999 V2000
  -27.2990  -21.2180   20.9830 N   0  0  0  0  0  4  0  0  0  0  0  0
  -27.7080  -20.9780   21.8710 H   0  0  0  0  0  0  0  0  0  0  0  0
  -26.3630  -20.8460   20.9760 H   0  0  0  0  0  0  0  0  0  0  0  0
  -28.0410  -20.5600   19.8860 C   0  0  0  0  0  2  0  0  0  0  0  0
  -29.5870  -17.3830   21.6430 C   0  0  0  0  0  2  0  0  0  0  0  0
  -31.0130  -18.0300   19.6570 C   0  0  0  0  0  2  0  0  0  0  0  0
  -28.4950  -18.3630   21.1750 C   0  0  0  0  0  2  0  0  0  0  0  0
  -29.9280  -19.0200   19.2070 C   0  0  0  0  0  2  0  0  0  0  0  0
  -30.4190  -16.8540   20.4600 C   0  0  0  0  0  3  0  0  0  0  0  0
  -29.0970  -19.5510   20.3920 C   0  0  0  0  0  3  0  0  0  0  0  0
  -31.5000  -15.8500   20.9260 C   0  0  0  0  0  2  0  0  0  0  0  0
  -31.8030  -14.7740   19.8710 C   0  0  0  0  0  0  0  0  0  0  0  0
  -31.2540  -12.6470   18.7400 C   0  0  0  0  0  2  0  0  0  0  0  0
  -30.2310  -12.8540   17.6090 C   0  0  0  0  0  2  0  0  0  0  0  0
  -28.7940  -12.7860   18.1560 C   0  0  0  0  0  2  0  0  0  0  0  0
  -28.5920  -13.6970   19.3940 C   0  0  0  0  0  3  0  0  0  0  0  0
  -29.7140  -13.4800   20.4320 C   0  0  0  0  0  2  0  0  0  0  0  0
  -31.0160  -13.6710   19.7670 N   0  0  0  0  0  0  0  0  0  0  0  0
  -32.7840  -14.9560   19.1440 O   0  0  0  0  0  0  0  0  0  0  0  0
  -26.3550  -14.4650   20.4120 C   0  0  0  0  0  0  0  0  0  0  0  0
  -25.2480  -13.7690   20.8160 C   0  0  0  0  0  0  0  0  0  0  0  0
  -25.5510  -12.3900   20.6020 C   0  0  0  0  0  0  0  0  0  0  0  0
  -27.2690  -13.5150   19.9860 N   0  0  0  0  0  0  0  0  0  0  0  0
  -26.7930  -12.2550   20.1540 N   0  0  0  0  0  0  0  0  0  0  0  0
  -24.7140  -11.1930   20.7430 C   0  0  0  0  0  0  0  0  0  0  0  0
  -25.0650  -10.1440   21.6200 C   0  0  0  0  0  3  0  0  0  0  0  0
  -24.2350   -9.0110   21.7520 C   0  0  0  0  0  3  0  0  0  0  0  0
  -23.0380   -8.9180   21.0030 C   0  0  0  0  0  0  0  0  0  0  0  0
  -22.7040   -9.9540   20.1120 C   0  0  0  0  0  3  0  0  0  0  0  0
  -23.5340  -11.0790   19.9790 C   0  0  0  0  0  3  0  0  0  0  0  0
  -22.1830   -7.8430   21.0450 O   0  0  0  0  0  0  0  0  0  0  0  0
  -21.9900   -7.1230   22.1960 C   0  0  0  0  0  0  0  0  0  0  0  0
  -21.5350   -7.7290   23.3870 C   0  0  0  0  0  3  0  0  0  0  0  0
  -21.2820   -6.9400   24.5280 C   0  0  0  0  0  3  0  0  0  0  0  0
  -21.4760   -5.5470   24.4770 C   0  0  0  0  0  0  0  0  0  0  0  0
  -21.9250   -4.9400   23.2910 C   0  0  0  0  0  3  0  0  0  0  0  0
  -22.1770   -5.7270   22.1530 C   0  0  0  0  0  0  0  0  0  0  0  0
  -22.5890   -5.1350   21.0060 F   0  0  0  0  0  0  0  0  0  0  0  0
  -21.2270   -4.7870   25.5700 F   0  0  0  0  0  0  0  0  0  0  0  0
  -23.9450  -14.3490   21.2830 C   0  0  0  0  0  0  0  0  0  0  0  0
  -23.2500  -13.6520   22.1740 N   0  0  0  0  0  0  0  0  0  0  0  0
  -23.5580  -15.4510   20.8950 O   0  0  0  0  0  0  0  0  0  0  0  0
  -23.5780  -12.7570   22.5070 H   0  0  0  0  0  0  0  0  0  0  0  0
  -22.3760  -14.0160   22.5280 H   0  0  0  0  0  0  0  0  0  0  0  0
  -26.6520  -15.8230   20.3540 N   0  0  0  0  0  0  0  0  0  0  0  0
  -25.9790  -16.5360   20.6110 H   0  0  0  0  0  0  0  0  0  0  0  0
  -27.5170  -16.2060   19.9940 H   0  0  0  0  0  0  0  0  0  0  0  0
  -27.2060  -22.6910   20.8830 C   0  0  0  0  0  2  0  0  0  0  0  0
  -28.4810  -23.3820   21.4060 C   0  0  0  0  0  2  0  0  0  0  0  0
  -28.4230  -24.9180   21.3300 C   0  0  0  0  0  2  0  0  0  0  0  0
  -28.6840  -25.4830   19.9230 C   0  0  0  0  0  2  0  0  0  0  0  0
  -28.6470  -26.9090   19.9640 O   0  0  0  0  0  0  0  0  0  0  0  0
  -24.7020  -31.8250   23.2410 C   0  0  0  0  0  0  0  0  0  0  0  0
  -27.4260  -27.5480   20.0110 C   0  0  0  0  0  0  0  0  0  0  0  0
  -23.5170  -30.4550   21.5570 C   0  0  0  0  0  3  0  0  0  0  0  0
  -24.9950  -28.9890   20.0880 C   0  0  0  0  0  0  0  0  0  0  0  0
  -26.0350  -30.8670   21.3710 C   0  0  0  0  0  2  0  0  0  0  0  0
  -26.1430  -29.5220   20.6860 C   0  0  0  0  0  0  0  0  0  0  0  0
  -27.3610  -28.8100   20.6410 C   0  0  0  0  0  3  0  0  0  0  0  0
  -26.2530  -27.0180   19.4220 C   0  0  0  0  0  3  0  0  0  0  0  0
  -25.0420  -27.7340   19.4600 C   0  0  0  0  0  3  0  0  0  0  0  0
  -23.7360  -29.8220   20.1590 C   0  0  0  0  0  2  0  0  0  0  0  0
  -24.7690  -31.0620   22.1150 N   0  0  0  0  0  0  0  0  0  0  0  0
  -23.6160  -32.0620   23.7890 O   0  0  0  0  0  0  0  0  0  0  0  0
  -22.8880  -29.3920   22.4830 C   0  0  0  0  0  0  0  0  0  0  0  0
  -21.5670  -29.1890   22.3470 N   0  0  0  0  0  0  0  0  0  0  0  0
  -23.5830  -28.7510   23.2760 O   0  0  0  0  0  0  0  0  0  0  0  0
  -21.0670  -29.7620   21.6810 H   0  0  0  0  0  0  0  0  0  0  0  0
  -18.2130  -27.9360   22.8190 C   0  0  0  0  0  0  0  0  0  0  0  0
  -20.7680  -28.2130   23.0860 C   0  0  0  0  0  3  0  0  0  0  0  0
  -20.8830  -26.8060   22.4560 C   0  0  0  0  0  2  0  0  0  0  0  0
  -19.7790  -26.5080   21.4360 C   0  0  0  0  0  2  0  0  0  0  0  0
  -18.4010  -26.6130   22.0920 C   0  0  0  0  0  2  0  0  0  0  0  0
  -19.3250  -28.6940   23.2710 C   0  0  0  0  0  0  0  0  0  0  0  0
  -19.0950  -29.9330   23.9070 C   0  0  0  0  0  3  0  0  0  0  0  0
  -17.7860  -30.4150   24.0940 C   0  0  0  0  0  3  0  0  0  0  0  0
  -16.6890  -29.6530   23.6580 C   0  0  0  0  0  3  0  0  0  0  0  0
  -16.9030  -28.4140   23.0280 C   0  0  0  0  0  3  0  0  0  0  0  0
  -25.9780  -32.4570   23.8800 C   0  0  0  0  0  3  0  0  0  0  0  0
  -25.6500  -33.8430   24.2340 N   0  0  0  0  0  0  0  0  0  0  0  0
  -25.9790  -34.9130   23.4980 C   0  0  0  0  0  0  0  0  0  0  0  0
  -26.6620  -34.8380   22.4730 O   0  0  0  0  0  0  0  0  0  0  0  0
  -25.0420  -33.9770   25.0290 H   0  0  0  0  0  0  0  0  0  0  0  0
  -24.2300  -36.6900   23.1640 C   0  0  0  0  0  1  0  0  0  0  0  0
  -25.4710  -36.2870   23.9770 C   0  0  0  0  0  3  0  0  0  0  0  0
  -27.5880  -37.1840   24.8400 C   0  0  0  0  0  1  0  0  0  0  0  0
  -26.4910  -37.3550   23.8900 N   0  0  0  0  0  0  0  0  0  0  0  0
  -26.0710  -38.2670   24.0480 H   0  0  0  0  0  0  0  0  0  0  0  0
  -26.5010  -31.6640   25.1400 C   0  0  1  0  0  0  0  0  0  0  0  0
  -25.4060  -31.3850   26.1960 C   0  0  0  0  0  1  0  0  0  0  0  0
  -27.1110  -30.3070   24.7200 C   0  0  0  0  0  1  0  0  0  0  0  0
  -27.6350  -32.4640   25.8270 C   0  0  0  0  0  1  0  0  0  0  0  0
  1  2  1  0
  3  1  1  0
  4  1  1  0
  6  9  1  0
  7  5  1  0
  8  6  1  0
  8 10  1  0
  9 11  1  0
  9  5  1  0
 10  4  1  0
 10  7  1  0
 12 11  1  0
 13 18  1  0
 14 15  1  0
 14 13  1  0
 16 15  1  0
 16 23  1  0
 16 17  1  0
 18 12  1  0
 18 17  1  0
 19 12  2  0
 20 21  2  0
 21 40  1  0
 22 25  1  0
 22 21  1  0
 23 24  1  0
 23 20  1  0
 24 22  2  0
 25 26  1  0
 26 27  2  0
 28 31  1  0
 28 27  1  0
 29 28  2  0
 30 29  1  0
 30 25  2  0
 31 32  1  0
 32 33  1  0
 33 34  2  0
 35 34  1  0
 35 39  1  0
 36 35  2  0
 37 32  2  0
 37 36  1  0
 38 37  1  0
 40 41  1  0
 41 43  1  0
 41 44  1  0
 42 40  2  0
 45 20  1  0
 45 46  1  0
 47 45  1  0
 48  1  1  0
 48 49  1  0
 50 49  1  0
 51 52  1  0
 51 50  1  0
 52 54  1  0
 53 64  2  0
 54 59  1  0
 55 63  1  0
 55 65  1  0
 56 62  1  0
 56 58  1  0
 57 63  1  0
 58 57  1  0
 59 58  2  0
 60 61  1  0
 60 54  2  0
 61 56  2  0
 62 55  1  0
 63 53  1  0
 65 67  2  0
 66 65  1  0
 68 66  1  0
 69 78  2  0
 69 74  1  0
 70 66  1  0
 70 74  1  0
 71 70  1  0
 72 73  1  0
 72 71  1  0
 73 69  1  0
 74 75  2  0
 75 76  1  0
 77 76  2  0
 78 77  1  0
 79 53  1  0
 79 80  1  0
 79 89  1  0
 80 83  1  0
 81 85  1  0
 81 80  1  0
 82 81  2  0
 85 84  1  0
 87 85  1  0
 87 88  1  0
 87 86  1  0
 89 92  1  1
 89 90  1  0
 91 89  1  0
M  ISO  4  11 100  12 100  51 101  52 101
M  END
>  <TORSDO>  (3) 
F 23

>  <SCORE>  (3) 
-10.153

>  <name>  (3) 
2

>  <ligand_id>  (3) 
2

>  <original_smiles>  (3) 
[H]c1c([H])c([H])c2c(c1[H])C([H])([H])C([H])([H])C([H])([H])C2([H])N([H])C(=O)C1([H])N(C(=O)C([H])(N([H])C(=O)C([H])(N([H])C([H])([H])[H])C([H])([H])[H])C(C([H])([H])[H])(C([H])([H])[H])C([H])([H])[H])C([H])([H])c2c([H])c(OC([H])([H])C([H])([H])C([H])([H])C([H])([H])[N+]([H])([H])C([H])([H])C3([H])C([H])([H])C([H])([H])C([H])(C([H])([H])C(=O)N4C([H])([H])C([H])([H])C([H])([H])C([H])(n5nc(-c6c([H])c([H])c(Oc7c([H])c([H])c(F)c([H])c7F)c([H])c6[H])c(C(=O)N([H])[H])c5N([H])[H])C4([H])[H])C([H])([H])C3([H])[H])c([H])c([H])c2C1([H])[H]

>  <smiles>  (3) 
[H]c1c([H])c([H])c2c(c1[H])C([H])([H])C([H])([H])C([H])([H])C2([H])N([H])C(=O)C1([H])N(C(=O)C([H])(N([H])C(=O)C([H])(N([H])C([H])([H])[H])C([H])([H])[H])C(C([H])([H])[H])(C([H])([H])[H])C([H])([H])[H])C([H])([H])c2c([H])c(OC([H])([H])C([H])([H])C([H])([H])C([H])([H])[N+]([H])([H])C([H])([H])C3([H])C([H])([H])C([H])([H])C([H])(C([H])([H])C(=O)N4C([H])([H])C([H])([H])C([H])([H])C([H])(n5nc(-c6c([H])c([H])c(Oc7c([H])c([H])c(F)c([H])c7F)c([H])c6[H])c(C(=O)N([H])[H])c5N([H])[H])C4([H])[H])C([H])([H])C3([H])[H])c([H])c([H])c2C1([H])[H]

$$$$
3:0:0
     RDKit          3D

 84 92  0  0  1  0  0  0  0  0999 V2000
  -27.0000  -22.0240   20.5370 C   0  0  0  0  0  2  0  0  0  0  0  0
  -27.8970  -22.0460   21.7200 C   0  0  0  0  0  2  0  0  0  0  0  0
  -28.4930  -22.2180   20.3210 C   0  0  1  0  0  0  0  0  0  0  0  0
  -29.2030  -20.5690   19.6690 C   0  0  0  0  0  2  0  0  0  0  0  0
  -29.6180  -17.3490   19.8800 C   0  0  0  0  0  2  0  0  0  0  0  0
  -29.8390  -18.8640   20.1200 C   0  0  0  0  0  2  0  0  0  0  0  0
  -30.4470  -15.8500   19.9820 C   0  0  0  0  0  0  0  0  0  0  0  0
  -30.5250  -13.2940   19.1850 C   0  0  0  0  0  2  0  0  0  0  0  0
  -29.6110  -12.9100   17.9820 C   0  0  0  0  0  2  0  0  0  0  0  0
  -28.1920  -12.5670   18.4450 C   0  0  0  0  0  2  0  0  0  0  0  0
  -27.7070  -13.5480   19.5320 C   0  0  0  0  0  3  0  0  0  0  0  0
  -28.7590  -13.8700   20.6180 C   0  0  0  0  0  2  0  0  0  0  0  0
  -29.9230  -14.4780   19.9420 N   0  0  0  0  0  0  0  0  0  0  0  0
  -31.6880  -15.7490   19.8480 O   0  0  0  0  0  0  0  0  0  0  0  0
  -25.3660  -14.0480   20.3810 C   0  0  0  0  0  0  0  0  0  0  0  0
  -24.3230  -13.2550   20.7780 C   0  0  0  0  0  0  0  0  0  0  0  0
  -24.8110  -11.9140   20.7200 C   0  0  0  0  0  0  0  0  0  0  0  0
  -26.4080  -13.1930   20.0910 N   0  0  0  0  0  0  0  0  0  0  0  0
  -26.0940  -11.8970   20.3650 N   0  0  0  0  0  0  0  0  0  0  0  0
  -24.1010  -10.6400   20.9240 C   0  0  0  0  0  0  0  0  0  0  0  0
  -24.5310   -9.6890   21.8760 C   0  0  0  0  0  3  0  0  0  0  0  0
  -23.8110   -8.4870   22.0620 C   0  0  0  0  0  3  0  0  0  0  0  0
  -22.6480   -8.2260   21.3030 C   0  0  0  0  0  0  0  0  0  0  0  0
  -22.2350   -9.1690   20.3430 C   0  0  0  0  0  3  0  0  0  0  0  0
  -22.9560  -10.3620   20.1540 C   0  0  0  0  0  3  0  0  0  0  0  0
  -21.9030   -7.0750   21.3980 O   0  0  0  0  0  0  0  0  0  0  0  0
  -21.8240   -6.3700   22.5720 C   0  0  0  0  0  0  0  0  0  0  0  0
  -21.3200   -6.9510   23.7570 C   0  0  0  0  0  3  0  0  0  0  0  0
  -21.1800   -6.1690   24.9200 C   0  0  0  0  0  3  0  0  0  0  0  0
  -21.5390   -4.8050   24.9020 C   0  0  0  0  0  0  0  0  0  0  0  0
  -22.0340   -4.2280   23.7220 C   0  0  0  0  0  3  0  0  0  0  0  0
  -22.1730   -5.0050   22.5610 C   0  0  0  0  0  0  0  0  0  0  0  0
  -22.6290   -4.4360   21.4210 F   0  0  0  0  0  0  0  0  0  0  0  0
  -21.4020   -4.0540   26.0190 F   0  0  0  0  0  0  0  0  0  0  0  0
  -22.9310  -13.7150   21.0870 C   0  0  0  0  0  0  0  0  0  0  0  0
  -22.2290  -13.0080   21.9600 N   0  0  0  0  0  0  0  0  0  0  0  0
  -22.4760  -14.7420   20.5840 O   0  0  0  0  0  0  0  0  0  0  0  0
  -22.6110  -12.1770   22.3890 H   0  0  0  0  0  0  0  0  0  0  0  0
  -21.3000  -13.3040   22.2120 H   0  0  0  0  0  0  0  0  0  0  0  0
  -25.5050  -15.4250   20.2210 N   0  0  0  0  0  0  0  0  0  0  0  0
  -24.7360  -16.0640   20.3840 H   0  0  0  0  0  0  0  0  0  0  0  0
  -26.3400  -15.8890   19.8850 H   0  0  0  0  0  0  0  0  0  0  0  0
  -28.6990  -24.0580   19.8960 C   0  0  0  0  0  2  0  0  0  0  0  0
  -28.2730  -25.7480   20.2130 O   0  0  0  0  0  0  0  0  0  0  0  0
  -24.6670  -31.9070   23.0850 C   0  0  0  0  0  0  0  0  0  0  0  0
  -27.2540  -26.9100   20.0400 C   0  0  0  0  0  0  0  0  0  0  0  0
  -23.4760  -30.4980   21.4530 C   0  0  0  0  0  3  0  0  0  0  0  0
  -24.9390  -28.8790   20.0070 C   0  0  0  0  0  0  0  0  0  0  0  0
  -26.0460  -30.7040   21.2840 C   0  0  0  0  0  2  0  0  0  0  0  0
  -26.1340  -29.2770   20.6140 C   0  0  0  0  0  0  0  0  0  0  0  0
  -27.2730  -28.3190   20.6010 C   0  0  0  0  0  3  0  0  0  0  0  0
  -26.0360  -26.7340   19.3380 C   0  0  0  0  0  3  0  0  0  0  0  0
  -24.9320  -27.6390   19.3360 C   0  0  0  0  0  3  0  0  0  0  0  0
  -23.7090  -29.8040   20.0770 C   0  0  0  0  0  2  0  0  0  0  0  0
  -24.7530  -31.0630   21.9960 N   0  0  0  0  0  0  0  0  0  0  0  0
  -23.5780  -32.1840   23.6180 O   0  0  0  0  0  0  0  0  0  0  0  0
  -22.7900  -29.5080   22.4290 C   0  0  0  0  0  0  0  0  0  0  0  0
  -21.4590  -29.3370   22.3330 N   0  0  0  0  0  0  0  0  0  0  0  0
  -23.4720  -28.8840   23.2450 O   0  0  0  0  0  0  0  0  0  0  0  0
  -20.9610  -29.8930   21.6550 H   0  0  0  0  0  0  0  0  0  0  0  0
  -18.0970  -28.0830   22.8950 C   0  0  0  0  0  0  0  0  0  0  0  0
  -20.6590  -28.3790   23.1070 C   0  0  0  0  0  3  0  0  0  0  0  0
  -20.7660  -26.9560   22.5100 C   0  0  0  0  0  2  0  0  0  0  0  0
  -19.6470  -26.6370   21.5140 C   0  0  0  0  0  2  0  0  0  0  0  0
  -18.2780  -26.7500   22.1890 C   0  0  0  0  0  2  0  0  0  0  0  0
  -19.2130  -28.8570   23.3140 C   0  0  0  0  0  0  0  0  0  0  0  0
  -18.9890  -30.1030   23.9380 C   0  0  0  0  0  3  0  0  0  0  0  0
  -17.6800  -30.5750   24.1530 C   0  0  0  0  0  3  0  0  0  0  0  0
  -16.5800  -29.8000   23.7480 C   0  0  0  0  0  3  0  0  0  0  0  0
  -16.7880  -28.5590   23.1250 C   0  0  0  0  0  3  0  0  0  0  0  0
  -25.9270  -32.5750   23.7130 C   0  0  0  0  0  3  0  0  0  0  0  0
  -26.4610  -31.8060   24.9880 C   0  0  1  0  0  0  0  0  0  0  0  0
  -25.3780  -31.5540   26.0630 C   0  0  0  0  0  1  0  0  0  0  0  0
  -27.0570  -30.4350   24.6020 C   0  0  0  0  0  1  0  0  0  0  0  0
  -27.6070  -32.6100   25.6450 C   0  0  0  0  0  1  0  0  0  0  0  0
  -25.5900  -33.9660   24.0750 N   0  0  0  0  0  0  0  0  0  0  0  0
  -25.9220  -35.0490   23.3580 C   0  0  0  0  0  0  0  0  0  0  0  0
  -26.6030  -34.9820   22.3340 O   0  0  0  0  0  0  0  0  0  0  0  0
  -24.9790  -34.0880   24.8680 H   0  0  0  0  0  0  0  0  0  0  0  0
  -24.2010  -36.8600   23.0310 C   0  0  0  0  0  1  0  0  0  0  0  0
  -25.4240  -36.4220   23.8540 C   0  0  0  0  0  3  0  0  0  0  0  0
  -27.5340  -37.2930   24.7630 C   0  0  0  0  0  1  0  0  0  0  0  0
  -26.4530  -37.4810   23.7980 N   0  0  0  0  0  0  0  0  0  0  0  0
  -26.0440  -38.3950   23.9590 H   0  0  0  0  0  0  0  0  0  0  0  0
  1  2  1  0
  3  1  1  0
  3  2  1  0
  4  6  1  0
  3  4  1  6
  5  7  1  0
  5  6  1  0
  8 13  1  0
  9 10  1  0
  9  8  1  0
 11 10  1  0
 11 18  1  0
 11 12  1  0
 13  7  1  0
 13 12  1  0
 14  7  2  0
 15 16  2  0
 16 35  1  0
 17 16  1  0
 17 20  1  0
 18 19  1  0
 18 15  1  0
 19 17  2  0
 20 21  1  0
 21 22  2  0
 23 26  1  0
 23 22  1  0
 24 23  2  0
 25 24  1  0
 25 20  2  0
 26 27  1  0
 27 28  1  0
 28 29  2  0
 30 29  1  0
 30 34  1  0
 31 30  2  0
 32 27  2  0
 32 31  1  0
 33 32  1  0
 35 36  1  0
 36 39  1  0
 36 38  1  0
 37 35  2  0
 40 15  1  0
 40 41  1  0
 42 40  1  0
 43 44  1  0
 43  3  1  0
 45 56  2  0
 46 44  1  0
 46 51  1  0
 47 55  1  0
 47 57  1  0
 48 54  1  0
 48 50  1  0
 49 55  1  0
 50 49  1  0
 51 50  2  0
 52 46  2  0
 53 52  1  0
 53 48  2  0
 54 47  1  0
 55 45  1  0
 57 59  2  0
 58 57  1  0
 60 58  1  0
 61 70  2  0
 61 66  1  0
 62 58  1  0
 62 66  1  0
 63 62  1  0
 64 65  1  0
 64 63  1  0
 65 61  1  0
 66 67  2  0
 67 68  1  0
 69 68  2  0
 70 69  1  0
 71 45  1  0
 71 76  1  0
 71 72  1  0
 72 75  1  1
 72 73  1  0
 74 72  1  0
 76 79  1  0
 77 81  1  0
 77 76  1  0
 78 77  2  0
 81 80  1  0
 83 81  1  0
 83 84  1  0
 83 82  1  0
M  ISO  4   5 100   7 100  43 101  44 101
M  END
>  <TORSDO>  (4) 
F 19

>  <SCORE>  (4) 
-15.941

>  <name>  (4) 
3

>  <ligand_id>  (4) 
3

>  <original_smiles>  (4) 
[H]C(C(=O)N1C([H])([H])C([H])([H])C([H])([H])C([H])(n2nc(-c3c([H])c([H])c(Oc4c([H])c([H])c(F)c([H])c4F)c([H])c3[H])c(C(=O)N([H])[H])c2N([H])[H])C1([H])[H])=C([H])C([H])([H])C1(C([H])([H])Oc2c([H])c([H])c3c(c2[H])C([H])([H])N(C(=O)C([H])(N([H])C(=O)C([H])(N([H])C([H])([H])[H])C([H])([H])[H])C(C([H])([H])[H])(C([H])([H])[H])C([H])([H])[H])C([H])(C(=O)N([H])C2([H])c4c([H])c([H])c([H])c([H])c4C([H])([H])C([H])([H])C2([H])[H])C3([H])[H])C([H])([H])C1([H])[H]

>  <smiles>  (4) 
[H]C(C(=O)N1C([H])([H])C([H])([H])C([H])([H])C([H])(n2nc(-c3c([H])c([H])c(Oc4c([H])c([H])c(F)c([H])c4F)c([H])c3[H])c(C(=O)N([H])[H])c2N([H])[H])C1([H])[H])=C([H])C([H])([H])C1(C([H])([H])Oc2c([H])c([H])c3c(c2[H])C([H])([H])N(C(=O)C([H])(N([H])C(=O)C([H])(N([H])C([H])([H])[H])C([H])([H])[H])C(C([H])([H])[H])(C([H])([H])[H])C([H])([H])[H])C([H])(C(=O)N([H])C2([H])c4c([H])c([H])c([H])c([H])c4C([H])([H])C([H])([H])C2([H])[H])C3([H])[H])C([H])([H])C1([H])[H]

$$$$
4:0:0
     RDKit          3D

 97105  0  0  1  0  0  0  0  0999 V2000
  -29.6960  -21.8370   22.4130 C   0  0  0  0  0  3  0  0  0  0  0  0
  -29.9260  -22.2820   24.8790 C   0  0  0  0  0  2  0  0  0  0  0  0
  -30.5030  -22.1780   23.6700 C   0  0  0  0  0  0  0  0  0  0  0  0
  -31.9910  -22.4280   23.4880 C   0  0  0  0  0  1  0  0  0  0  0  0
  -30.0670  -20.5070   21.8550 N   0  0  0  0  0  4  0  0  0  0  0  0
  -29.3090  -20.1770   21.2760 H   0  0  0  0  0  0  0  0  0  0  0  0
  -30.8550  -20.5880   21.2370 H   0  0  0  0  0  0  0  0  0  0  0  0
  -31.9550  -17.8380   23.6710 C   0  0  0  0  0  2  0  0  0  0  0  0
  -31.0910  -17.0220   22.7110 C   0  0  0  0  0  2  0  0  0  0  0  0
  -31.8220  -19.2650   23.1630 C   0  0  0  0  0  2  0  0  0  0  0  0
  -30.0330  -17.9920   22.1260 C   0  0  0  0  0  3  0  0  0  0  0  0
  -30.3400  -19.3730   22.7760 C   0  0  0  0  0  3  0  0  0  0  0  0
  -29.7790  -17.1560   19.8680 C   0  0  0  0  0  0  0  0  0  0  0  0
  -29.6780  -17.5150   18.3950 C   0  0  0  0  0  1  0  0  0  0  0  0
  -30.1160  -18.1000   20.6680 N   0  0  0  0  0  0  0  0  0  0  0  0
  -29.3750  -15.7170   20.2670 C   0  0  0  0  0  2  0  0  0  0  0  0
  -30.1380  -14.5520   19.5660 C   0  0  0  0  0  0  0  0  0  0  0  0
  -29.8420  -12.3580   18.4730 C   0  0  0  0  0  2  0  0  0  0  0  0
  -28.7330  -12.4870   17.4060 C   0  0  0  0  0  2  0  0  0  0  0  0
  -27.3400  -12.2650   18.0300 C   0  0  0  0  0  2  0  0  0  0  0  0
  -27.1230  -13.1150   19.3080 C   0  0  0  0  0  3  0  0  0  0  0  0
  -28.3230  -12.9680   20.2700 C   0  0  0  0  0  2  0  0  0  0  0  0
  -29.5450  -13.3280   19.5360 N   0  0  0  0  0  0  0  0  0  0  0  0
  -31.1980  -14.7660   18.9670 O   0  0  0  0  0  0  0  0  0  0  0  0
  -24.8360  -13.6330   20.3650 C   0  0  0  0  0  0  0  0  0  0  0  0
  -23.8550  -12.8170   20.8660 C   0  0  0  0  0  0  0  0  0  0  0  0
  -24.3520  -11.4840   20.7430 C   0  0  0  0  0  0  0  0  0  0  0  0
  -25.8620  -12.7900   19.9670 N   0  0  0  0  0  0  0  0  0  0  0  0
  -25.5850  -11.4930   20.2550 N   0  0  0  0  0  0  0  0  0  0  0  0
  -23.7040  -10.1920   21.0060 C   0  0  0  0  0  0  0  0  0  0  0  0
  -24.2430   -9.2710   21.9320 C   0  0  0  0  0  3  0  0  0  0  0  0
  -23.5890   -8.0450   22.1820 C   0  0  0  0  0  3  0  0  0  0  0  0
  -22.3870   -7.7310   21.5060 C   0  0  0  0  0  0  0  0  0  0  0  0
  -21.8690   -8.6420   20.5680 C   0  0  0  0  0  3  0  0  0  0  0  0
  -22.5220   -9.8600   20.3180 C   0  0  0  0  0  3  0  0  0  0  0  0
  -21.6990   -6.5530   21.6630 O   0  0  0  0  0  0  0  0  0  0  0  0
  -21.6860   -5.8820   22.8600 C   0  0  0  0  0  0  0  0  0  0  0  0
  -21.2280   -6.4890   24.0500 C   0  0  0  0  0  3  0  0  0  0  0  0
  -21.1680   -5.7420   25.2440 C   0  0  0  0  0  3  0  0  0  0  0  0
  -21.5560   -4.3890   25.2480 C   0  0  0  0  0  0  0  0  0  0  0  0
  -22.0090   -3.7820   24.0630 C   0  0  0  0  0  3  0  0  0  0  0  0
  -22.0700   -4.5260   22.8720 C   0  0  0  0  0  0  0  0  0  0  0  0
  -22.4870   -3.9300   21.7290 F   0  0  0  0  0  0  0  0  0  0  0  0
  -21.4900   -3.6690   26.3920 F   0  0  0  0  0  0  0  0  0  0  0  0
  -22.4950  -13.2400   21.3390 C   0  0  0  0  0  0  0  0  0  0  0  0
  -21.9320  -12.5190   22.3040 N   0  0  0  0  0  0  0  0  0  0  0  0
  -21.9430  -14.2420   20.8870 O   0  0  0  0  0  0  0  0  0  0  0  0
  -22.3930  -11.7070   22.6850 H   0  0  0  0  0  0  0  0  0  0  0  0
  -21.0260  -12.7830   22.6630 H   0  0  0  0  0  0  0  0  0  0  0  0
  -24.9320  -15.0100   20.1920 N   0  0  0  0  0  0  0  0  0  0  0  0
  -24.1670  -15.6380   20.4150 H   0  0  0  0  0  0  0  0  0  0  0  0
  -25.7080  -15.4770   19.7370 H   0  0  0  0  0  0  0  0  0  0  0  0
  -29.8540  -22.9270   21.3180 C   0  0  0  0  0  2  0  0  0  0  0  0
  -29.3590  -24.3470   21.6800 C   0  0  0  0  0  2  0  0  0  0  0  0
  -30.1060  -25.4400   20.8820 C   0  0  0  0  0  2  0  0  0  0  0  0
  -29.3950  -26.8050   20.8610 C   0  0  0  0  0  2  0  0  0  0  0  0
  -28.4200  -26.7570   19.8300 O   0  0  0  0  0  0  0  0  0  0  0  0
  -24.6790  -31.7350   23.3560 C   0  0  0  0  0  0  0  0  0  0  0  0
  -27.2920  -27.5290   19.9640 C   0  0  0  0  0  0  0  0  0  0  0  0
  -23.4450  -30.4210   21.6610 C   0  0  0  0  0  3  0  0  0  0  0  0
  -24.8810  -28.9890   20.1150 C   0  0  0  0  0  0  0  0  0  0  0  0
  -25.9580  -30.8250   21.4260 C   0  0  0  0  0  2  0  0  0  0  0  0
  -26.0440  -29.4930   20.7130 C   0  0  0  0  0  0  0  0  0  0  0  0
  -27.2540  -28.7690   20.6440 C   0  0  0  0  0  3  0  0  0  0  0  0
  -26.1190  -27.0420   19.3560 C   0  0  0  0  0  3  0  0  0  0  0  0
  -24.9100  -27.7590   19.4350 C   0  0  0  0  0  3  0  0  0  0  0  0
  -23.6270  -29.8260   20.2380 C   0  0  0  0  0  2  0  0  0  0  0  0
  -24.7130  -31.0040   22.2070 N   0  0  0  0  0  0  0  0  0  0  0  0
  -23.6090  -31.9640   23.9380 O   0  0  0  0  0  0  0  0  0  0  0  0
  -22.8280  -29.3360   22.5730 C   0  0  0  0  0  0  0  0  0  0  0  0
  -21.5180  -29.0920   22.4070 N   0  0  0  0  0  0  0  0  0  0  0  0
  -23.5240  -28.7210   23.3840 O   0  0  0  0  0  0  0  0  0  0  0  0
  -21.0160  -29.6460   21.7270 H   0  0  0  0  0  0  0  0  0  0  0  0
  -18.2190  -27.6510   22.7100 C   0  0  0  0  0  0  0  0  0  0  0  0
  -20.7310  -28.0900   23.1270 C   0  0  0  0  0  3  0  0  0  0  0  0
  -20.9710  -26.6750   22.5510 C   0  0  0  0  0  2  0  0  0  0  0  0
  -19.9540  -26.2820   21.4750 C   0  0  0  0  0  2  0  0  0  0  0  0
  -18.5310  -26.3230   22.0410 C   0  0  0  0  0  2  0  0  0  0  0  0
  -19.2540  -28.4870   23.2060 C   0  0  0  0  0  0  0  0  0  0  0  0
  -18.9120  -29.7290   23.7860 C   0  0  0  0  0  3  0  0  0  0  0  0
  -17.5680  -30.1350   23.8780 C   0  0  0  0  0  3  0  0  0  0  0  0
  -16.5460  -29.2950   23.4010 C   0  0  0  0  0  3  0  0  0  0  0  0
  -16.8720  -28.0550   22.8230 C   0  0  0  0  0  3  0  0  0  0  0  0
  -25.9760  -32.3380   23.9810 C   0  0  0  0  0  3  0  0  0  0  0  0
  -26.5110  -31.5180   25.2180 C   0  0  1  0  0  0  0  0  0  0  0  0
  -25.4270  -31.2160   26.2780 C   0  0  0  0  0  1  0  0  0  0  0  0
  -27.1140  -30.1690   24.7600 C   0  0  0  0  0  1  0  0  0  0  0  0
  -27.6510  -32.3000   25.9130 C   0  0  0  0  0  1  0  0  0  0  0  0
  -25.6770  -33.7240   24.3620 N   0  0  0  0  0  0  0  0  0  0  0  0
  -26.0170  -34.8020   23.6420 C   0  0  0  0  0  0  0  0  0  0  0  0
  -26.6870  -34.7320   22.6070 O   0  0  0  0  0  0  0  0  0  0  0  0
  -25.0830  -33.8530   25.1680 H   0  0  0  0  0  0  0  0  0  0  0  0
  -24.2980  -36.6140   23.3540 C   0  0  0  0  0  1  0  0  0  0  0  0
  -25.5370  -36.1750   24.1500 C   0  0  0  0  0  3  0  0  0  0  0  0
  -27.6790  -37.0160   25.0080 C   0  0  0  0  0  1  0  0  0  0  0  0
  -26.5760  -37.2240   24.0730 N   0  0  0  0  0  0  0  0  0  0  0  0
  -26.1750  -38.1410   24.2570 H   0  0  0  0  0  0  0  0  0  0  0  0
  1 53  1  0
  1  3  1  0
  3  2  2  0
  4  3  1  0
  5  1  1  0
  6  5  1  0
  7  5  1  0
  9  8  1  0
 10  8  1  0
 11 15  1  0
 11  9  1  0
 11 12  1  0
 12  5  1  0
 12 10  1  0
 13 16  1  0
 13 15  2  0
 14 13  1  0
 17 16  1  0
 18 23  1  0
 19 20  1  0
 19 18  1  0
 21 20  1  0
 21 28  1  0
 21 22  1  0
 23 17  1  0
 23 22  1  0
 24 17  2  0
 25 26  2  0
 26 45  1  0
 27 26  1  0
 27 30  1  0
 28 29  1  0
 28 25  1  0
 29 27  2  0
 30 31  1  0
 31 32  2  0
 33 36  1  0
 33 32  1  0
 34 33  2  0
 35 34  1  0
 35 30  2  0
 36 37  1  0
 37 42  2  0
 37 38  1  0
 38 39  2  0
 39 40  1  0
 40 44  1  0
 41 40  2  0
 42 41  1  0
 43 42  1  0
 45 46  1  0
 46 49  1  0
 46 48  1  0
 47 45  2  0
 50 25  1  0
 50 51  1  0
 52 50  1  0
 53 54  1  0
 55 54  1  0
 56 55  1  0
 57 59  1  0
 57 56  1  0
 58 69  2  0
 59 64  1  0
 60 68  1  0
 60 70  1  0
 61 67  1  0
 61 63  1  0
 62 68  1  0
 63 62  1  0
 64 63  2  0
 65 66  1  0
 65 59  2  0
 66 61  2  0
 67 60  1  0
 68 58  1  0
 70 72  2  0
 71 70  1  0
 73 71  1  0
 74 83  2  0
 74 79  1  0
 75 71  1  0
 75 79  1  0
 76 75  1  0
 77 78  1  0
 77 76  1  0
 78 74  1  0
 79 80  2  0
 80 81  1  0
 82 81  2  0
 83 82  1  0
 84 58  1  0
 84 89  1  0
 84 85  1  0
 85 88  1  1
 85 86  1  0
 87 85  1  0
 89 92  1  0
 90 94  1  0
 90 89  1  0
 91 90  2  0
 94 93  1  0
 96 94  1  0
 96 97  1  0
 96 95  1  0
M  ISO  4  16 100  17 100  56 101  57 101
M  END
>  <TORSDO>  (5) 
F 25

>  <SCORE>  (5) 
-6.709

>  <name>  (5) 
4

>  <ligand_id>  (5) 
4

>  <original_smiles>  (5) 
[H]C([H])=C(C([H])([H])[H])C([H])(C([H])([H])C([H])([H])C([H])([H])C([H])([H])Oc1c([H])c([H])c2c(c1[H])C([H])([H])N(C(=O)C([H])(N([H])C(=O)C([H])(N([H])C([H])([H])[H])C([H])([H])[H])C(C([H])([H])[H])(C([H])([H])[H])C([H])([H])[H])C([H])(C(=O)N([H])C1([H])c3c([H])c([H])c([H])c([H])c3C([H])([H])C([H])([H])C1([H])[H])C2([H])[H])[N+]([H])([H])C1([H])C([H])([H])C([H])([H])C([H])([H])C1([H])N=C(C([H])([H])[H])C([H])([H])C(=O)N1C([H])([H])C([H])([H])C([H])([H])C([H])(n2nc(-c3c([H])c([H])c(Oc4c([H])c([H])c(F)c([H])c4F)c([H])c3[H])c(C(=O)N([H])[H])c2N([H])[H])C1([H])[H]

>  <smiles>  (5) 
[H]C([H])=C(C([H])([H])[H])C([H])(C([H])([H])C([H])([H])C([H])([H])C([H])([H])Oc1c([H])c([H])c2c(c1[H])C([H])([H])N(C(=O)C([H])(N([H])C(=O)C([H])(N([H])C([H])([H])[H])C([H])([H])[H])C(C([H])([H])[H])(C([H])([H])[H])C([H])([H])[H])C([H])(C(=O)N([H])C1([H])c3c([H])c([H])c([H])c([H])c3C([H])([H])C([H])([H])C1([H])[H])C2([H])[H])[N+]([H])([H])C1([H])C([H])([H])C([H])([H])C([H])([H])C1([H])N=C(C([H])([H])[H])C([H])([H])C(=O)N1C([H])([H])C([H])([H])C([H])([H])C([H])(n2nc(-c3c([H])c([H])c(Oc4c([H])c([H])c(F)c([H])c4F)c([H])c3[H])c(C(=O)N([H])[H])c2N([H])[H])C1([H])[H]

$$$$
5:0:0
     RDKit          3D

 90 98  0  0  1  0  0  0  0  0999 V2000
  -29.9670  -23.0540   20.0340 C   0  0  0  0  0  3  0  0  0  0  0  0
  -29.6030  -24.3690   20.1540 C   0  0  0  0  0  2  0  0  0  0  0  0
  -31.1500  -22.2630   19.6700 C   0  0  0  0  0  2  0  0  0  0  0  0
  -29.7550  -21.5420   19.8290 C   0  0  0  0  0  3  0  0  0  0  0  0
  -29.8070  -20.5330   20.9660 N   0  0  0  0  0  4  0  0  0  0  0  0
  -28.9020  -20.0910   20.9870 H   0  0  0  0  0  0  0  0  0  0  0  0
  -29.8890  -21.0230   21.8420 H   0  0  0  0  0  0  0  0  0  0  0  0
  -31.9930  -19.7550   21.9250 C   0  0  0  0  0  1  0  0  0  0  0  0
  -30.8530  -19.4270   20.9300 C   0  0  0  0  0  3  0  0  0  0  0  0
  -30.4010  -17.9430   21.3060 C   0  0  0  0  0  2  0  0  0  0  0  0
  -29.7080  -15.7890   19.8900 C   0  0  0  0  0  3  0  0  0  0  0  0
  -29.6370  -17.1050   20.2710 C   0  0  0  0  0  3  0  0  0  0  0  0
  -30.5970  -14.6600   20.2680 C   0  0  0  0  0  0  0  0  0  0  0  0
  -30.3640  -12.3990   19.3050 C   0  0  0  0  0  2  0  0  0  0  0  0
  -29.4170  -12.5210   18.0890 C   0  0  0  0  0  2  0  0  0  0  0  0
  -27.9440  -12.3610   18.5230 C   0  0  0  0  0  2  0  0  0  0  0  0
  -27.5780  -13.2440   19.7440 C   0  0  0  0  0  3  0  0  0  0  0  0
  -28.6520  -13.1570   20.8530 C   0  0  0  0  0  2  0  0  0  0  0  0
  -29.9720  -13.4420   20.2680 N   0  0  0  0  0  0  0  0  0  0  0  0
  -31.8180  -14.7520   20.1370 O   0  0  0  0  0  0  0  0  0  0  0  0
  -25.2010  -13.8690   20.4800 C   0  0  0  0  0  0  0  0  0  0  0  0
  -24.1320  -13.1050   20.8530 C   0  0  0  0  0  0  0  0  0  0  0  0
  -24.5870  -11.7520   20.8340 C   0  0  0  0  0  0  0  0  0  0  0  0
  -26.2390  -12.9760   20.2480 N   0  0  0  0  0  0  0  0  0  0  0  0
  -25.8770  -11.7020   20.5270 N   0  0  0  0  0  0  0  0  0  0  0  0
  -23.8580  -10.4960   21.0330 C   0  0  0  0  0  0  0  0  0  0  0  0
  -24.2980   -9.5270   21.9620 C   0  0  0  0  0  3  0  0  0  0  0  0
  -23.5680   -8.3330   22.1460 C   0  0  0  0  0  3  0  0  0  0  0  0
  -22.3870   -8.1010   21.4020 C   0  0  0  0  0  0  0  0  0  0  0  0
  -21.9680   -9.0580   20.4610 C   0  0  0  0  0  3  0  0  0  0  0  0
  -22.6980  -10.2440   20.2740 C   0  0  0  0  0  3  0  0  0  0  0  0
  -21.6290   -6.9600   21.4980 O   0  0  0  0  0  0  0  0  0  0  0  0
  -21.5990   -6.2090   22.6460 C   0  0  0  0  0  0  0  0  0  0  0  0
  -21.2160   -6.7620   23.8870 C   0  0  0  0  0  3  0  0  0  0  0  0
  -21.1350   -5.9390   25.0280 C   0  0  0  0  0  3  0  0  0  0  0  0
  -21.4250   -4.5650   24.9290 C   0  0  0  0  0  0  0  0  0  0  0  0
  -21.8020   -4.0130   23.6930 C   0  0  0  0  0  3  0  0  0  0  0  0
  -21.8870   -4.8330   22.5540 C   0  0  0  0  0  0  0  0  0  0  0  0
  -22.2300   -4.2920   21.3590 F   0  0  0  0  0  0  0  0  0  0  0  0
  -21.3390   -3.7730   26.0230 F   0  0  0  0  0  0  0  0  0  0  0  0
  -22.7350  -13.5910   21.1190 C   0  0  0  0  0  0  0  0  0  0  0  0
  -22.0040  -12.9070   21.9910 N   0  0  0  0  0  0  0  0  0  0  0  0
  -22.3020  -14.6140   20.5880 O   0  0  0  0  0  0  0  0  0  0  0  0
  -22.3670  -12.0800   22.4420 H   0  0  0  0  0  0  0  0  0  0  0  0
  -21.0690  -13.2150   22.2130 H   0  0  0  0  0  0  0  0  0  0  0  0
  -25.3710  -15.2400   20.2940 N   0  0  0  0  0  0  0  0  0  0  0  0
  -24.6100  -15.8990   20.4150 H   0  0  0  0  0  0  0  0  0  0  0  0
  -26.2340  -15.6790   19.9990 H   0  0  0  0  0  0  0  0  0  0  0  0
  -28.2390  -25.0900   20.1630 C   0  0  0  0  0  2  0  0  0  0  0  0
  -28.3620  -26.5550   20.1720 O   0  0  0  0  0  0  0  0  0  0  0  0
  -24.6060  -31.8650   23.2260 C   0  0  0  0  0  0  0  0  0  0  0  0
  -27.2060  -27.3410   20.1520 C   0  0  0  0  0  0  0  0  0  0  0  0
  -23.3880  -30.4650   21.5950 C   0  0  0  0  0  3  0  0  0  0  0  0
  -24.8280  -28.9170   20.1620 C   0  0  0  0  0  0  0  0  0  0  0  0
  -25.9210  -30.7980   21.3850 C   0  0  0  0  0  2  0  0  0  0  0  0
  -25.9980  -29.4220   20.7420 C   0  0  0  0  0  0  0  0  0  0  0  0
  -27.1900  -28.6460   20.7230 C   0  0  0  0  0  3  0  0  0  0  0  0
  -26.0100  -26.8730   19.5620 C   0  0  0  0  0  3  0  0  0  0  0  0
  -24.8340  -27.6470   19.5650 C   0  0  0  0  0  3  0  0  0  0  0  0
  -23.5910  -29.7870   20.2140 C   0  0  0  0  0  2  0  0  0  0  0  0
  -24.6570  -31.0600   22.1260 N   0  0  0  0  0  0  0  0  0  0  0  0
  -23.5270  -32.1420   23.7700 O   0  0  0  0  0  0  0  0  0  0  0  0
  -22.7360  -29.4480   22.5600 C   0  0  0  0  0  0  0  0  0  0  0  0
  -21.4090  -29.2720   22.4430 N   0  0  0  0  0  0  0  0  0  0  0  0
  -23.4210  -28.8190   23.3700 O   0  0  0  0  0  0  0  0  0  0  0  0
  -20.9160  -29.8350   21.7650 H   0  0  0  0  0  0  0  0  0  0  0  0
  -18.0340  -28.0800   22.9600 C   0  0  0  0  0  0  0  0  0  0  0  0
  -20.5940  -28.3360   23.2190 C   0  0  0  0  0  3  0  0  0  0  0  0
  -20.6900  -26.9030   22.6470 C   0  0  0  0  0  2  0  0  0  0  0  0
  -19.5840  -26.5800   21.6360 C   0  0  0  0  0  2  0  0  0  0  0  0
  -18.2060  -26.7290   22.2870 C   0  0  0  0  0  2  0  0  0  0  0  0
  -19.1560  -28.8410   23.3830 C   0  0  0  0  0  0  0  0  0  0  0  0
  -18.9420  -30.1070   23.9720 C   0  0  0  0  0  3  0  0  0  0  0  0
  -17.6380  -30.6100   24.1440 C   0  0  0  0  0  3  0  0  0  0  0  0
  -16.5310  -29.8460   23.7370 C   0  0  0  0  0  3  0  0  0  0  0  0
  -16.7300  -28.5840   23.1500 C   0  0  0  0  0  3  0  0  0  0  0  0
  -25.8940  -32.4950   23.8390 C   0  0  0  0  0  3  0  0  0  0  0  0
  -25.5850  -33.8910   24.1820 N   0  0  0  0  0  0  0  0  0  0  0  0
  -25.9090  -34.9500   23.4290 C   0  0  0  0  0  0  0  0  0  0  0  0
  -26.5700  -34.8540   22.3900 O   0  0  0  0  0  0  0  0  0  0  0  0
  -24.9950  -34.0380   24.9880 H   0  0  0  0  0  0  0  0  0  0  0  0
  -24.1740  -36.7430   23.1050 C   0  0  0  0  0  1  0  0  0  0  0  0
  -25.4240  -36.3350   23.9000 C   0  0  0  0  0  3  0  0  0  0  0  0
  -27.5680  -37.2150   24.7130 C   0  0  0  0  0  1  0  0  0  0  0  0
  -26.4540  -37.3890   23.7850 N   0  0  0  0  0  0  0  0  0  0  0  0
  -26.0500  -38.3080   23.9460 H   0  0  0  0  0  0  0  0  0  0  0  0
  -26.4260  -31.7160   25.1040 C   0  0  1  0  0  0  0  0  0  0  0  0
  -25.3470  -31.4710   26.1840 C   0  0  0  0  0  1  0  0  0  0  0  0
  -27.0070  -30.3420   24.6950 C   0  0  0  0  0  1  0  0  0  0  0  0
  -27.5850  -32.5070   25.7570 C   0  0  0  0  0  1  0  0  0  0  0  0
  1  2  1  0
  2 49  1  0
  3  4  1  0
  3  1  1  0
  4  1  1  0
  4  5  1  0
  5  6  1  0
  5  7  1  0
  9  5  1  0
  9 10  1  0
  9  8  1  0
 11 13  1  0
 11 12  2  0
 12 10  1  0
 14 19  1  0
 15 16  1  0
 15 14  1  0
 17 16  1  0
 17 24  1  0
 17 18  1  0
 19 13  1  0
 19 18  1  0
 20 13  2  0
 21 22  2  0
 22 41  1  0
 23 22  1  0
 23 26  1  0
 24 21  1  0
 24 25  1  0
 25 23  2  0
 26 27  1  0
 27 28  2  0
 29 32  1  0
 29 28  1  0
 30 29  2  0
 31 30  1  0
 31 26  2  0
 32 33  1  0
 33 34  1  0
 34 35  2  0
 36 35  1  0
 36 40  1  0
 37 36  2  0
 38 33  2  0
 38 37  1  0
 39 38  1  0
 41 42  1  0
 42 45  1  0
 42 44  1  0
 43 41  2  0
 46 47  1  0
 46 21  1  0
 48 46  1  0
 49 50  1  0
 51 62  2  0
 52 50  1  0
 52 57  1  0
 53 61  1  0
 53 63  1  0
 54 60  1  0
 54 56  1  0
 55 61  1  0
 56 55  1  0
 57 56  2  0
 58 59  1  0
 58 52  2  0
 59 54  2  0
 60 53  1  0
 61 51  1  0
 63 65  2  0
 64 63  1  0
 66 64  1  0
 67 76  2  0
 67 72  1  0
 68 64  1  0
 68 72  1  0
 69 68  1  0
 70 71  1  0
 70 69  1  0
 71 67  1  0
 72 73  2  0
 73 74  1  0
 75 74  2  0
 76 75  1  0
 77 51  1  0
 77 78  1  0
 77 87  1  0
 78 81  1  0
 79 83  1  0
 79 78  1  0
 80 79  2  0
 83 82  1  0
 85 83  1  0
 85 86  1  0
 85 84  1  0
 87 90  1  1
 87 88  1  0
 89 87  1  0
M  ISO  4  11 100  13 100  49 101  50 101
M  END
>  <TORSDO>  (6) 
F 21

>  <SCORE>  (6) 
-13.404

>  <name>  (6) 
5

>  <ligand_id>  (6) 
5

>  <original_smiles>  (6) 
[H]C(C(=O)N1C([H])([H])C([H])([H])C([H])([H])C([H])(n2nc(-c3c([H])c([H])c(Oc4c([H])c([H])c(F)c([H])c4F)c([H])c3[H])c(C(=O)N([H])[H])c2N([H])[H])C1([H])[H])=C([H])C([H])([H])C([H])(C([H])([H])[H])[N+]([H])([H])C1([H])C(=C([H])C([H])([H])Oc2c([H])c([H])c3c(c2[H])C([H])([H])N(C(=O)C([H])(N([H])C(=O)C([H])(N([H])C([H])([H])[H])C([H])([H])[H])C(C([H])([H])[H])(C([H])([H])[H])C([H])([H])[H])C([H])(C(=O)N([H])C2([H])c4c([H])c([H])c([H])c([H])c4C([H])([H])C([H])([H])C2([H])[H])C3([H])[H])C1([H])[H]

>  <smiles>  (6) 
[H]C(C(=O)N1C([H])([H])C([H])([H])C([H])([H])C([H])(n2nc(-c3c([H])c([H])c(Oc4c([H])c([H])c(F)c([H])c4F)c([H])c3[H])c(C(=O)N([H])[H])c2N([H])[H])C1([H])[H])=C([H])C([H])([H])C([H])(C([H])([H])[H])[N+]([H])([H])C1([H])C(=C([H])C([H])([H])Oc2c([H])c([H])c3c(c2[H])C([H])([H])N(C(=O)C([H])(N([H])C(=O)C([H])(N([H])C([H])([H])[H])C([H])([H])[H])C(C([H])([H])[H])(C([H])([H])[H])C([H])([H])[H])C([H])(C(=O)N([H])C2([H])c4c([H])c([H])c([H])c([H])c4C([H])([H])C([H])([H])C2([H])[H])C3([H])[H])C1([H])[H]

$$$$
6:0:0
     RDKit          3D

 88 96  0  0  1  0  0  0  0  0999 V2000
  -29.0580  -22.4720   20.7740 C   0  0  0  0  0  2  0  0  0  0  0  0
  -29.4340  -20.0130   20.4130 C   0  0  0  0  0  0  0  0  0  0  0  0
  -29.2490  -18.5610   19.8680 C   0  0  0  0  0  0  0  0  0  0  0  0
  -30.4760  -19.8370   21.5040 C   0  0  0  0  0  2  0  0  0  0  0  0
  -30.6820  -18.3080   21.7480 C   0  0  0  0  0  2  0  0  0  0  0  0
  -30.2470  -17.5240   20.4860 C   0  0  0  0  0  3  0  0  0  0  0  0
  -28.8590  -21.1510   20.0640 N   0  0  0  0  0  0  0  0  0  0  0  0
  -28.4120  -18.2320   19.0210 O   0  0  0  0  0  0  0  0  0  0  0  0
  -29.7580  -16.0010   20.7380 C   0  0  0  0  0  2  0  0  0  0  0  0
  -30.5740  -14.7320   20.2120 C   0  0  0  0  0  0  0  0  0  0  0  0
  -30.3550  -12.5120   19.0820 C   0  0  0  0  0  2  0  0  0  0  0  0
  -29.3690  -12.6640   17.8980 C   0  0  0  0  0  2  0  0  0  0  0  0
  -27.9110  -12.4790   18.3670 C   0  0  0  0  0  2  0  0  0  0  0  0
  -27.5890  -13.3140   19.6320 C   0  0  0  0  0  3  0  0  0  0  0  0
  -28.6810  -13.1410   20.7120 C   0  0  0  0  0  2  0  0  0  0  0  0
  -29.9710  -13.5010   20.1110 N   0  0  0  0  0  0  0  0  0  0  0  0
  -31.7190  -14.8950   19.7760 O   0  0  0  0  0  0  0  0  0  0  0  0
  -25.2160  -13.9090   20.4170 C   0  0  0  0  0  0  0  0  0  0  0  0
  -24.1600  -13.1330   20.8120 C   0  0  0  0  0  0  0  0  0  0  0  0
  -24.6250  -11.7830   20.7690 C   0  0  0  0  0  0  0  0  0  0  0  0
  -26.2550  -13.0300   20.1530 N   0  0  0  0  0  0  0  0  0  0  0  0
  -25.9060  -11.7460   20.4260 N   0  0  0  0  0  0  0  0  0  0  0  0
  -23.9060  -10.5180   20.9750 C   0  0  0  0  0  0  0  0  0  0  0  0
  -24.3570   -9.5540   21.9030 C   0  0  0  0  0  3  0  0  0  0  0  0
  -23.6390   -8.3550   22.0970 C   0  0  0  0  0  3  0  0  0  0  0  0
  -22.4550   -8.1110   21.3620 C   0  0  0  0  0  0  0  0  0  0  0  0
  -22.0230   -9.0630   20.4220 C   0  0  0  0  0  3  0  0  0  0  0  0
  -22.7420  -10.2540   20.2260 C   0  0  0  0  0  3  0  0  0  0  0  0
  -21.7060   -6.9640   21.4650 O   0  0  0  0  0  0  0  0  0  0  0  0
  -21.6710   -6.2320   22.6240 C   0  0  0  0  0  0  0  0  0  0  0  0
  -21.2450   -6.7930   23.8470 C   0  0  0  0  0  3  0  0  0  0  0  0
  -21.1560   -5.9850   24.9990 C   0  0  0  0  0  3  0  0  0  0  0  0
  -21.4840   -4.6170   24.9270 C   0  0  0  0  0  0  0  0  0  0  0  0
  -21.9040   -4.0560   23.7080 C   0  0  0  0  0  3  0  0  0  0  0  0
  -21.9930   -4.8600   22.5590 C   0  0  0  0  0  0  0  0  0  0  0  0
  -22.3780   -4.3100   21.3820 F   0  0  0  0  0  0  0  0  0  0  0  0
  -21.3910   -3.8390   26.0300 F   0  0  0  0  0  0  0  0  0  0  0  0
  -22.7700  -13.6080   21.1190 C   0  0  0  0  0  0  0  0  0  0  0  0
  -22.0670  -12.9080   22.0030 N   0  0  0  0  0  0  0  0  0  0  0  0
  -22.3170  -14.6310   20.6100 O   0  0  0  0  0  0  0  0  0  0  0  0
  -22.4520  -12.0790   22.4310 H   0  0  0  0  0  0  0  0  0  0  0  0
  -21.1350  -13.2040   22.2540 H   0  0  0  0  0  0  0  0  0  0  0  0
  -25.3740  -15.2800   20.2420 N   0  0  0  0  0  0  0  0  0  0  0  0
  -24.6070  -15.9310   20.3710 H   0  0  0  0  0  0  0  0  0  0  0  0
  -26.2100  -15.7220   19.8790 H   0  0  0  0  0  0  0  0  0  0  0  0
  -28.6420  -23.8130   19.9750 C   0  0  0  0  0  2  0  0  0  0  0  0
  -28.3580  -25.1650   20.8060 C   0  0  0  0  0  2  0  0  0  0  0  0
  -28.4180  -26.5200   20.1900 O   0  0  0  0  0  0  0  0  0  0  0  0
  -24.5990  -31.8820   23.2250 C   0  0  0  0  0  0  0  0  0  0  0  0
  -27.2800  -27.3410   20.2030 C   0  0  0  0  0  0  0  0  0  0  0  0
  -23.4210  -30.4770   21.5700 C   0  0  0  0  0  3  0  0  0  0  0  0
  -24.8980  -28.9270   20.1650 C   0  0  0  0  0  0  0  0  0  0  0  0
  -25.9590  -30.8160   21.4070 C   0  0  0  0  0  2  0  0  0  0  0  0
  -26.0580  -29.4340   20.7680 C   0  0  0  0  0  0  0  0  0  0  0  0
  -27.2540  -28.6550   20.7690 C   0  0  0  0  0  3  0  0  0  0  0  0
  -26.0990  -26.8800   19.5870 C   0  0  0  0  0  3  0  0  0  0  0  0
  -24.9220  -27.6560   19.5630 C   0  0  0  0  0  3  0  0  0  0  0  0
  -23.6540  -29.7960   20.1950 C   0  0  0  0  0  2  0  0  0  0  0  0
  -24.6790  -31.0760   22.1260 N   0  0  0  0  0  0  0  0  0  0  0  0
  -23.5090  -32.1520   23.7500 O   0  0  0  0  0  0  0  0  0  0  0  0
  -22.7530  -29.4590   22.5250 C   0  0  0  0  0  0  0  0  0  0  0  0
  -21.4260  -29.2880   22.3960 N   0  0  0  0  0  0  0  0  0  0  0  0
  -23.4280  -28.8250   23.3410 O   0  0  0  0  0  0  0  0  0  0  0  0
  -20.9410  -29.8540   21.7130 H   0  0  0  0  0  0  0  0  0  0  0  0
  -18.0420  -28.1060   22.8860 C   0  0  0  0  0  0  0  0  0  0  0  0
  -20.6020  -28.3470   23.1560 C   0  0  0  0  0  3  0  0  0  0  0  0
  -20.6930  -26.9210   22.5650 C   0  0  0  0  0  2  0  0  0  0  0  0
  -19.5880  -26.6160   21.5490 C   0  0  0  0  0  2  0  0  0  0  0  0
  -18.2080  -26.7620   22.1960 C   0  0  0  0  0  2  0  0  0  0  0  0
  -19.1660  -28.8570   23.3220 C   0  0  0  0  0  0  0  0  0  0  0  0
  -18.9550  -30.1150   23.9270 C   0  0  0  0  0  3  0  0  0  0  0  0
  -17.6530  -30.6210   24.1010 C   0  0  0  0  0  3  0  0  0  0  0  0
  -16.5440  -29.8680   23.6810 C   0  0  0  0  0  3  0  0  0  0  0  0
  -16.7390  -28.6120   23.0790 C   0  0  0  0  0  3  0  0  0  0  0  0
  -25.8730  -32.5200   23.8640 C   0  0  0  0  0  3  0  0  0  0  0  0
  -26.3710  -31.7550   25.1520 C   0  0  1  0  0  0  0  0  0  0  0  0
  -25.2630  -31.5220   26.2060 C   0  0  0  0  0  1  0  0  0  0  0  0
  -26.9610  -30.3760   24.7740 C   0  0  0  0  0  1  0  0  0  0  0  0
  -27.5120  -32.5520   25.8260 C   0  0  0  0  0  1  0  0  0  0  0  0
  -25.5580  -33.9190   24.1840 N   0  0  0  0  0  0  0  0  0  0  0  0
  -25.8960  -34.9690   23.4240 C   0  0  0  0  0  0  0  0  0  0  0  0
  -26.5760  -34.8620   22.4000 O   0  0  0  0  0  0  0  0  0  0  0  0
  -24.9580  -34.0760   24.9800 H   0  0  0  0  0  0  0  0  0  0  0  0
  -24.1720  -36.7610   23.0400 C   0  0  0  0  0  1  0  0  0  0  0  0
  -25.4020  -36.3600   23.8700 C   0  0  0  0  0  3  0  0  0  0  0  0
  -27.5240  -37.2500   24.7270 C   0  0  0  0  0  1  0  0  0  0  0  0
  -26.4360  -37.4130   23.7660 N   0  0  0  0  0  0  0  0  0  0  0  0
  -26.0270  -38.3330   23.9030 H   0  0  0  0  0  0  0  0  0  0  0  0
  2  4  1  0
  3  2  1  0
  3  6  1  0
  4  5  1  0
  6  9  1  0
  6  5  1  0
  7  2  2  0
  7  1  1  0
  8  3  2  0
 10  9  1  0
 11 16  1  0
 12 13  1  0
 12 11  1  0
 14 13  1  0
 14 21  1  0
 14 15  1  0
 16 10  1  0
 16 15  1  0
 17 10  2  0
 18 19  2  0
 19 38  1  0
 20 19  1  0
 20 23  1  0
 21 18  1  0
 21 22  1  0
 22 20  2  0
 23 24  1  0
 24 25  2  0
 26 29  1  0
 26 25  1  0
 27 26  2  0
 28 27  1  0
 28 23  2  0
 29 30  1  0
 30 31  1  0
 31 32  2  0
 33 32  1  0
 33 37  1  0
 34 33  2  0
 35 30  2  0
 35 34  1  0
 36 35  1  0
 38 39  1  0
 39 42  1  0
 39 41  1  0
 40 38  2  0
 43 44  1  0
 43 18  1  0
 45 43  1  0
 46  1  1  0
 46 47  1  0
 48 50  1  0
 48 47  1  0
 49 60  2  0
 50 55  1  0
 51 59  1  0
 51 61  1  0
 52 58  1  0
 52 54  1  0
 53 59  1  0
 54 55  2  0
 54 53  1  0
 56 50  2  0
 57 56  1  0
 57 52  2  0
 58 51  1  0
 59 49  1  0
 61 63  2  0
 62 61  1  0
 64 62  1  0
 65 74  2  0
 65 70  1  0
 66 62  1  0
 66 70  1  0
 67 66  1  0
 68 69  1  0
 68 67  1  0
 69 65  1  0
 70 71  2  0
 71 72  1  0
 73 72  2  0
 74 73  1  0
 75 49  1  0
 75 80  1  0
 75 76  1  0
 76 79  1  1
 76 77  1  0
 78 76  1  0
 80 83  1  0
 81 85  1  0
 81 80  1  0
 82 81  2  0
 85 84  1  0
 87 85  1  0
 87 88  1  0
 87 86  1  0
M  ISO  4   9 100  10 100  47 101  48 101
M  END
>  <TORSDO>  (7) 
F 20

>  <SCORE>  (7) 
-13.851

>  <name>  (7) 
6

>  <ligand_id>  (7) 
6

>  <original_smiles>  (7) 
[H]c1c([H])c([H])c2c(c1[H])C([H])([H])C([H])([H])C([H])([H])C2([H])N([H])C(=O)C1([H])N(C(=O)C([H])(N([H])C(=O)C([H])(N([H])C([H])([H])[H])C([H])([H])[H])C(C([H])([H])[H])(C([H])([H])[H])C([H])([H])[H])C([H])([H])c2c([H])c(OC([H])([H])C([H])([H])C([H])([H])N=C3C(=O)C([H])(C([H])([H])C(=O)N4C([H])([H])C([H])([H])C([H])([H])C([H])(n5nc(-c6c([H])c([H])c(Oc7c([H])c([H])c(F)c([H])c7F)c([H])c6[H])c(C(=O)N([H])[H])c5N([H])[H])C4([H])[H])C([H])([H])C3([H])[H])c([H])c([H])c2C1([H])[H]

>  <smiles>  (7) 
[H]c1c([H])c([H])c2c(c1[H])C([H])([H])C([H])([H])C([H])([H])C2([H])N([H])C(=O)C1([H])N(C(=O)C([H])(N([H])C(=O)C([H])(N([H])C([H])([H])[H])C([H])([H])[H])C(C([H])([H])[H])(C([H])([H])[H])C([H])([H])[H])C([H])([H])c2c([H])c(OC([H])([H])C([H])([H])C([H])([H])N=C3C(=O)C([H])(C([H])([H])C(=O)N4C([H])([H])C([H])([H])C([H])([H])C([H])(n5nc(-c6c([H])c([H])c(Oc7c([H])c([H])c(F)c([H])c7F)c([H])c6[H])c(C(=O)N([H])[H])c5N([H])[H])C4([H])[H])C([H])([H])C3([H])[H])c([H])c([H])c2C1([H])[H]

$$$$
7:0:0
     RDKit          3D

 95104  0  0  1  0  0  0  0  0999 V2000
  -30.6160  -22.1240   25.4100 C   0  0  0  0  0  2  0  0  0  0  0  0
  -29.8530  -20.8330   25.1020 C   0  0  0  0  0  2  0  0  0  0  0  0
  -31.4920  -22.5780   24.2210 C   0  0  0  0  0  2  0  0  0  0  0  0
  -28.9160  -21.0000   23.8910 C   0  0  0  0  0  2  0  0  0  0  0  0
  -31.6950  -21.1800   22.0980 C   0  0  0  0  0  2  0  0  0  0  0  0
  -31.5080  -21.0060   20.5660 C   0  0  0  0  0  2  0  0  0  0  0  0
  -28.4580  -22.1520   21.6400 C   0  0  0  0  0  2  0  0  0  0  0  0
  -30.8870  -22.3190   22.8080 C   0  0  0  0  0  3  0  0  0  0  0  0
  -29.3290  -22.1460   22.9320 C   0  0  0  0  0  3  0  0  0  0  0  0
  -30.0330  -20.7740   20.2480 C   0  0  0  0  0  3  0  0  0  0  0  0
  -29.2750  -22.1840   20.4090 N   0  0  1  0  0  4  0  0  0  0  0  0
  -30.0670  -22.7090   20.7540 H   0  0  0  0  0  0  0  0  0  0  0  0
  -29.6550  -19.3990   19.6000 N   0  0  0  0  0  0  0  0  0  0  0  0
  -29.5030  -19.5160   18.6020 H   0  0  0  0  0  0  0  0  0  0  0  0
  -30.4910  -18.0830   19.8740 C   0  0  0  0  0  2  0  0  0  0  0  0
  -29.9550  -16.4750   19.8260 C   0  0  0  0  0  2  0  0  0  0  0  0
  -30.8480  -15.0660   19.6490 C   0  0  0  0  0  0  0  0  0  0  0  0
  -30.6750  -12.6750   18.8120 C   0  0  0  0  0  2  0  0  0  0  0  0
  -29.6320  -12.6370   17.6680 C   0  0  0  0  0  2  0  0  0  0  0  0
  -28.2010  -12.4760   18.2200 C   0  0  0  0  0  2  0  0  0  0  0  0
  -27.9220  -13.4340   19.4060 C   0  0  0  0  0  3  0  0  0  0  0  0
  -29.0660  -13.4180   20.4360 C   0  0  0  0  0  2  0  0  0  0  0  0
  -30.2980  -13.7880   19.7290 N   0  0  0  0  0  0  0  0  0  0  0  0
  -32.0190  -15.1320   19.2530 O   0  0  0  0  0  0  0  0  0  0  0  0
  -25.6830  -14.1200   20.4340 C   0  0  0  0  0  0  0  0  0  0  0  0
  -24.6110  -13.3900   20.8760 C   0  0  0  0  0  0  0  0  0  0  0  0
  -24.9740  -12.0190   20.7170 C   0  0  0  0  0  0  0  0  0  0  0  0
  -26.6280  -13.1920   20.0290 N   0  0  0  0  0  0  0  0  0  0  0  0
  -26.2190  -11.9180   20.2630 N   0  0  0  0  0  0  0  0  0  0  0  0
  -24.1860  -10.7970   20.9200 C   0  0  0  0  0  0  0  0  0  0  0  0
  -24.6160   -9.7780   21.7980 C   0  0  0  0  0  3  0  0  0  0  0  0
  -23.8310   -8.6180   21.9880 C   0  0  0  0  0  3  0  0  0  0  0  0
  -22.6030   -8.4730   21.3020 C   0  0  0  0  0  0  0  0  0  0  0  0
  -22.1900   -9.4800   20.4110 C   0  0  0  0  0  3  0  0  0  0  0  0
  -22.9740  -10.6300   20.2200 C   0  0  0  0  0  3  0  0  0  0  0  0
  -21.7880   -7.3720   21.4060 O   0  0  0  0  0  0  0  0  0  0  0  0
  -21.7010   -6.6470   22.5670 C   0  0  0  0  0  0  0  0  0  0  0  0
  -21.2940   -7.2370   23.7840 C   0  0  0  0  0  3  0  0  0  0  0  0
  -21.1520   -6.4440   24.9370 C   0  0  0  0  0  3  0  0  0  0  0  0
  -21.4010   -5.0590   24.8770 C   0  0  0  0  0  0  0  0  0  0  0  0
  -21.8010   -4.4680   23.6650 C   0  0  0  0  0  3  0  0  0  0  0  0
  -21.9460   -5.2610   22.5120 C   0  0  0  0  0  0  0  0  0  0  0  0
  -22.3090   -4.6830   21.3420 F   0  0  0  0  0  0  0  0  0  0  0  0
  -21.2570   -4.2940   25.9830 F   0  0  0  0  0  0  0  0  0  0  0  0
  -23.2890  -13.9370   21.3280 C   0  0  0  0  0  0  0  0  0  0  0  0
  -22.6270  -13.2490   22.2510 N   0  0  0  0  0  0  0  0  0  0  0  0
  -22.8570  -15.0070   20.8980 O   0  0  0  0  0  0  0  0  0  0  0  0
  -22.9970  -12.3840   22.6180 H   0  0  0  0  0  0  0  0  0  0  0  0
  -21.7410  -13.5860   22.5970 H   0  0  0  0  0  0  0  0  0  0  0  0
  -25.9230  -15.4850   20.3190 N   0  0  0  0  0  0  0  0  0  0  0  0
  -25.2250  -16.1820   20.5550 H   0  0  0  0  0  0  0  0  0  0  0  0
  -26.7740  -15.8890   19.9460 H   0  0  0  0  0  0  0  0  0  0  0  0
  -28.7170  -23.2560   19.3830 C   0  0  0  0  0  2  0  0  0  0  0  0
  -28.9890  -24.9450   19.3470 C   0  0  0  0  0  2  0  0  0  0  0  0
  -28.6060  -26.2530   20.1180 O   0  0  0  0  0  0  0  0  0  0  0  0
  -24.5650  -31.5770   23.1220 C   0  0  0  0  0  0  0  0  0  0  0  0
  -27.4960  -27.1590   19.9610 C   0  0  0  0  0  0  0  0  0  0  0  0
  -23.4870  -30.1730   21.4020 C   0  0  0  0  0  3  0  0  0  0  0  0
  -25.0620  -28.7540   19.9340 C   0  0  0  0  0  0  0  0  0  0  0  0
  -26.0170  -30.6120   21.3010 C   0  0  0  0  0  2  0  0  0  0  0  0
  -26.1930  -29.2540   20.5900 C   0  0  0  0  0  0  0  0  0  0  0  0
  -27.4040  -28.4680   20.5930 C   0  0  0  0  0  3  0  0  0  0  0  0
  -26.3390  -26.7600   19.2590 C   0  0  0  0  0  3  0  0  0  0  0  0
  -25.1480  -27.5250   19.2530 C   0  0  0  0  0  3  0  0  0  0  0  0
  -23.7770  -29.5690   19.9990 C   0  0  0  0  0  2  0  0  0  0  0  0
  -24.7060  -30.8090   21.9980 N   0  0  0  0  0  0  0  0  0  0  0  0
  -23.4550  -31.7700   23.6410 O   0  0  0  0  0  0  0  0  0  0  0  0
  -22.8590  -29.0890   22.3120 C   0  0  0  0  0  0  0  0  0  0  0  0
  -21.5310  -28.9030   22.2190 N   0  0  0  0  0  0  0  0  0  0  0  0
  -23.5700  -28.4220   23.0680 O   0  0  0  0  0  0  0  0  0  0  0  0
  -21.0110  -29.5040   21.5940 H   0  0  0  0  0  0  0  0  0  0  0  0
  -18.1860  -27.6340   22.7970 C   0  0  0  0  0  0  0  0  0  0  0  0
  -20.7550  -27.8960   22.9490 C   0  0  0  0  0  3  0  0  0  0  0  0
  -20.8300  -26.5180   22.2510 C   0  0  0  0  0  2  0  0  0  0  0  0
  -19.6770  -26.2740   21.2710 C   0  0  0  0  0  2  0  0  0  0  0  0
  -18.3300  -26.3510   21.9960 C   0  0  0  0  0  2  0  0  0  0  0  0
  -19.3230  -28.3650   23.2310 C   0  0  0  0  0  0  0  0  0  0  0  0
  -19.1330  -29.5650   23.9480 C   0  0  0  0  0  3  0  0  0  0  0  0
  -17.8370  -30.0360   24.2330 C   0  0  0  0  0  3  0  0  0  0  0  0
  -16.7150  -29.3030   23.8110 C   0  0  0  0  0  3  0  0  0  0  0  0
  -16.8900  -28.1040   23.0980 C   0  0  0  0  0  3  0  0  0  0  0  0
  -25.7900  -32.2690   23.7980 C   0  0  0  0  0  3  0  0  0  0  0  0
  -25.4060  -33.6570   24.1020 N   0  0  0  0  0  0  0  0  0  0  0  0
  -25.7350  -34.7220   23.3600 C   0  0  0  0  0  0  0  0  0  0  0  0
  -26.4580  -34.6430   22.3640 O   0  0  0  0  0  0  0  0  0  0  0  0
  -24.7620  -33.7900   24.8660 H   0  0  0  0  0  0  0  0  0  0  0  0
  -23.9500  -36.4500   22.9420 C   0  0  0  0  0  1  0  0  0  0  0  0
  -25.1780  -36.0930   23.7940 C   0  0  0  0  0  3  0  0  0  0  0  0
  -27.2380  -37.0770   24.6980 C   0  0  0  0  0  1  0  0  0  0  0  0
  -26.1690  -37.1870   23.7100 N   0  0  0  0  0  0  0  0  0  0  0  0
  -25.7190  -38.0900   23.8310 H   0  0  0  0  0  0  0  0  0  0  0  0
  -26.2700  -31.5330   25.1100 C   0  0  1  0  0  0  0  0  0  0  0  0
  -25.1330  -31.2830   26.1290 C   0  0  0  0  0  1  0  0  0  0  0  0
  -26.9130  -30.1660   24.7780 C   0  0  0  0  0  1  0  0  0  0  0  0
  -27.3630  -32.3760   25.8100 C   0  0  0  0  0  1  0  0  0  0  0  0
  2  1  1  0
  3  1  1  0
  4  2  1  0
  6  5  1  0
  8  5  1  0
  8  9  1  0
  8  3  1  0
  9  7  1  0
  9  4  1  0
 10 13  1  0
 10 11  1  0
 10  6  1  0
 11 12  1  1
 11  7  1  0
 13 15  1  0
 14 13  1  0
 16 15  1  0
 17 23  1  0
 17 16  1  0
 18 23  1  0
 19 20  1  0
 19 18  1  0
 21 20  1  0
 21 28  1  0
 21 22  1  0
 23 22  1  0
 24 17  2  0
 25 26  2  0
 26 45  1  0
 27 26  1  0
 27 30  1  0
 28 29  1  0
 28 25  1  0
 29 27  2  0
 30 31  1  0
 31 32  2  0
 33 36  1  0
 33 32  1  0
 34 33  2  0
 35 34  1  0
 35 30  2  0
 36 37  1  0
 37 38  1  0
 38 39  2  0
 40 39  1  0
 40 44  1  0
 41 40  2  0
 42 37  2  0
 42 41  1  0
 43 42  1  0
 45 46  1  0
 46 49  1  0
 46 48  1  0
 47 45  2  0
 50 25  1  0
 50 51  1  0
 52 50  1  0
 53 11  1  0
 54 53  1  0
 54 55  1  0
 56 67  2  0
 57 55  1  0
 57 62  1  0
 58 66  1  0
 58 68  1  0
 59 65  1  0
 59 61  1  0
 60 66  1  0
 61 62  2  0
 61 60  1  0
 63 57  2  0
 64 63  1  0
 64 59  2  0
 65 58  1  0
 66 56  1  0
 68 70  2  0
 69 68  1  0
 71 69  1  0
 72 81  2  0
 72 77  1  0
 73 69  1  0
 73 77  1  0
 74 73  1  0
 75 76  1  0
 75 74  1  0
 76 72  1  0
 77 78  2  0
 78 79  1  0
 80 79  2  0
 81 80  1  0
 82 56  1  0
 82 83  1  0
 82 92  1  0
 83 86  1  0
 84 88  1  0
 84 83  1  0
 85 84  2  0
 88 87  1  0
 90 88  1  0
 90 91  1  0
 90 89  1  0
 92 95  1  1
 92 93  1  0
 94 92  1  0
M  ISO  4  16 100  17 100  54 101  55 101
M  END
>  <TORSDO>  (8) 
F 21

>  <SCORE>  (8) 
-9.582

>  <name>  (8) 
7

>  <ligand_id>  (8) 
7

>  <original_smiles>  (8) 
[H]c1c([H])c([H])c2c(c1[H])C([H])([H])C([H])([H])C([H])([H])C2([H])N([H])C(=O)C1([H])N(C(=O)C([H])(N([H])C(=O)C([H])(N([H])C([H])([H])[H])C([H])([H])[H])C(C([H])([H])[H])(C([H])([H])[H])C([H])([H])[H])C([H])([H])c2c([H])c(OC([H])([H])C([H])([H])[N+]3([H])C([H])([H])C4([H])C([H])([H])C([H])([H])C([H])([H])C([H])([H])C4([H])C([H])([H])C([H])([H])C3([H])N([H])C([H])([H])C([H])([H])C(=O)N3C([H])([H])C([H])([H])C([H])([H])C([H])(n4nc(-c5c([H])c([H])c(Oc6c([H])c([H])c(F)c([H])c6F)c([H])c5[H])c(C(=O)N([H])[H])c4N([H])[H])C3([H])[H])c([H])c([H])c2C1([H])[H]

>  <smiles>  (8) 
[H]c1c([H])c([H])c2c(c1[H])C([H])([H])C([H])([H])C([H])([H])C2([H])N([H])C(=O)C1([H])N(C(=O)C([H])(N([H])C(=O)C([H])(N([H])C([H])([H])[H])C([H])([H])[H])C(C([H])([H])[H])(C([H])([H])[H])C([H])([H])[H])C([H])([H])c2c([H])c(OC([H])([H])C([H])([H])[N+]3([H])C([H])([H])C4([H])C([H])([H])C([H])([H])C([H])([H])C([H])([H])C4([H])C([H])([H])C([H])([H])C3([H])N([H])C([H])([H])C([H])([H])C(=O)N3C([H])([H])C([H])([H])C([H])([H])C([H])(n4nc(-c5c([H])c([H])c(Oc6c([H])c([H])c(F)c([H])c6F)c([H])c5[H])c(C(=O)N([H])[H])c4N([H])[H])C3([H])[H])c([H])c([H])c2C1([H])[H]

$$$$
8:0:0
     RDKit          3D

 91100  0  0  1  0  0  0  0  0999 V2000
  -29.2780  -20.7490   20.7090 C   0  0  0  0  0  3  0  0  0  0  0  0
  -29.8170  -20.2880   22.0450 C   0  0  0  0  0  2  0  0  0  0  0  0
  -29.2410  -17.8150   20.0980 C   0  0  0  0  0  2  0  0  0  0  0  0
  -29.6710  -19.4130   19.8130 C   0  0  0  0  0  3  0  0  0  0  0  0
  -30.4520  -16.7900   19.6450 C   0  0  0  0  0  3  0  0  0  0  0  0
  -31.1370  -19.2030   20.2290 C   0  0  0  0  0  3  0  0  0  0  0  0
  -31.6580  -17.7800   19.7730 C   0  0  0  0  0  3  0  0  0  0  0  0
  -31.1780  -19.5740   21.7580 C   0  0  2  0  0  0  0  0  0  0  0  0
  -32.4350  -17.9410   18.4430 C   0  0  0  0  0  1  0  0  0  0  0  0
  -31.3590  -18.3860   22.7350 C   0  0  0  0  0  1  0  0  0  0  0  0
  -32.3550  -20.5460   22.0070 C   0  0  0  0  0  1  0  0  0  0  0  0
  -28.8700  -22.0540   20.6680 N   0  0  0  0  0  0  0  0  0  0  0  0
  -30.8380  -15.1350   19.5820 C   0  0  0  0  0  0  0  0  0  0  0  0
  -30.5440  -12.7440   18.7950 C   0  0  0  0  0  2  0  0  0  0  0  0
  -29.5270  -12.6440   17.6410 C   0  0  0  0  0  2  0  0  0  0  0  0
  -28.1180  -12.4210   18.2120 C   0  0  0  0  0  2  0  0  0  0  0  0
  -27.7980  -13.3840   19.3850 C   0  0  0  0  0  3  0  0  0  0  0  0
  -28.9490  -13.5360   20.3990 C   0  0  0  0  0  2  0  0  0  0  0  0
  -30.1510  -13.9160   19.6510 N   0  0  0  0  0  0  0  0  0  0  0  0
  -32.0130  -14.9760   19.2430 O   0  0  0  0  0  0  0  0  0  0  0  0
  -25.5500  -13.9180   20.4670 C   0  0  0  0  0  0  0  0  0  0  0  0
  -24.5260  -13.1290   20.9040 C   0  0  0  0  0  0  0  0  0  0  0  0
  -24.9570  -11.7770   20.7220 C   0  0  0  0  0  0  0  0  0  0  0  0
  -26.5370  -13.0510   20.0320 N   0  0  0  0  0  0  0  0  0  0  0  0
  -26.2010  -11.7520   20.2550 N   0  0  0  0  0  0  0  0  0  0  0  0
  -24.2320  -10.5130   20.9090 C   0  0  0  0  0  0  0  0  0  0  0  0
  -24.6800   -9.5320   21.8210 C   0  0  0  0  0  3  0  0  0  0  0  0
  -23.9550   -8.3340   21.9990 C   0  0  0  0  0  3  0  0  0  0  0  0
  -22.7670   -8.1070   21.2640 C   0  0  0  0  0  0  0  0  0  0  0  0
  -22.3380   -9.0760   20.3390 C   0  0  0  0  0  3  0  0  0  0  0  0
  -23.0630  -10.2660   20.1600 C   0  0  0  0  0  3  0  0  0  0  0  0
  -22.0110   -6.9630   21.3510 O   0  0  0  0  0  0  0  0  0  0  0  0
  -21.8710   -6.2790   22.5320 C   0  0  0  0  0  0  0  0  0  0  0  0
  -21.3280   -6.8880   23.6840 C   0  0  0  0  0  3  0  0  0  0  0  0
  -21.1390   -6.1300   24.8580 C   0  0  0  0  0  3  0  0  0  0  0  0
  -21.4810   -4.7650   24.8780 C   0  0  0  0  0  0  0  0  0  0  0  0
  -22.0160   -4.1560   23.7290 C   0  0  0  0  0  3  0  0  0  0  0  0
  -22.2080   -4.9110   22.5580 C   0  0  0  0  0  0  0  0  0  0  0  0
  -22.7050   -4.3140   21.4480 F   0  0  0  0  0  0  0  0  0  0  0  0
  -21.2920   -4.0350   26.0020 F   0  0  0  0  0  0  0  0  0  0  0  0
  -23.1810  -13.5990   21.3730 C   0  0  0  0  0  0  0  0  0  0  0  0
  -22.5560  -12.8620   22.2840 N   0  0  0  0  0  0  0  0  0  0  0  0
  -22.6990  -14.6570   20.9670 O   0  0  0  0  0  0  0  0  0  0  0  0
  -22.9610  -12.0070   22.6360 H   0  0  0  0  0  0  0  0  0  0  0  0
  -21.6580  -13.1580   22.6370 H   0  0  0  0  0  0  0  0  0  0  0  0
  -25.7220  -15.2970   20.3700 N   0  0  0  0  0  0  0  0  0  0  0  0
  -24.9980  -15.9550   20.6350 H   0  0  0  0  0  0  0  0  0  0  0  0
  -26.5410  -15.7450   19.9830 H   0  0  0  0  0  0  0  0  0  0  0  0
  -28.6020  -23.2380   19.6710 C   0  0  0  0  0  3  0  0  0  0  0  0
  -28.0640  -24.7260   20.3040 C   0  0  0  0  0  2  0  0  0  0  0  0
  -28.2760  -26.2030   19.8260 O   0  0  0  0  0  0  0  0  0  0  0  0
  -24.5710  -31.7400   23.0420 C   0  0  0  0  0  0  0  0  0  0  0  0
  -27.2060  -27.1710   19.8460 C   0  0  0  0  0  0  0  0  0  0  0  0
  -23.3770  -30.3520   21.3950 C   0  0  0  0  0  3  0  0  0  0  0  0
  -24.8380  -28.8580   19.8960 C   0  0  0  0  0  0  0  0  0  0  0  0
  -25.9190  -30.6940   21.1810 C   0  0  0  0  0  2  0  0  0  0  0  0
  -26.0180  -29.3220   20.4930 C   0  0  0  0  0  0  0  0  0  0  0  0
  -27.2040  -28.4950   20.4490 C   0  0  0  0  0  3  0  0  0  0  0  0
  -26.0020  -26.8190   19.2020 C   0  0  0  0  0  3  0  0  0  0  0  0
  -24.8420  -27.6220   19.2320 C   0  0  0  0  0  3  0  0  0  0  0  0
  -23.5850  -29.7160   19.9950 C   0  0  0  0  0  2  0  0  0  0  0  0
  -24.6440  -30.9490   21.9270 N   0  0  0  0  0  0  0  0  0  0  0  0
  -23.4900  -31.9770   23.6010 O   0  0  0  0  0  0  0  0  0  0  0  0
  -22.7510  -29.2980   22.3430 C   0  0  0  0  0  0  0  0  0  0  0  0
  -21.4360  -29.0510   22.2020 N   0  0  0  0  0  0  0  0  0  0  0  0
  -23.4510  -28.7080   23.1700 O   0  0  0  0  0  0  0  0  0  0  0  0
  -20.9240  -29.5800   21.5090 H   0  0  0  0  0  0  0  0  0  0  0  0
  -18.1430  -27.6000   22.6150 C   0  0  0  0  0  0  0  0  0  0  0  0
  -20.6640  -28.0610   22.9590 C   0  0  0  0  0  3  0  0  0  0  0  0
  -20.8950  -26.6340   22.4080 C   0  0  0  0  0  2  0  0  0  0  0  0
  -19.8550  -26.2170   21.3640 C   0  0  0  0  0  2  0  0  0  0  0  0
  -18.4450  -26.2620   21.9620 C   0  0  0  0  0  2  0  0  0  0  0  0
  -19.1850  -28.4520   23.0690 C   0  0  0  0  0  0  0  0  0  0  0  0
  -18.8490  -29.6990   23.6390 C   0  0  0  0  0  3  0  0  0  0  0  0
  -17.5050  -30.0980   23.7600 C   0  0  0  0  0  3  0  0  0  0  0  0
  -16.4770  -29.2440   23.3230 C   0  0  0  0  0  3  0  0  0  0  0  0
  -16.7970  -27.9980   22.7550 C   0  0  0  0  0  3  0  0  0  0  0  0
  -25.8430  -32.3980   23.6580 C   0  0  0  0  0  3  0  0  0  0  0  0
  -25.4960  -33.7790   24.0290 N   0  0  0  0  0  0  0  0  0  0  0  0
  -25.8080  -34.8660   23.3100 C   0  0  0  0  0  0  0  0  0  0  0  0
  -26.4820  -34.8100   22.2780 O   0  0  0  0  0  0  0  0  0  0  0  0
  -24.8960  -33.8930   24.8320 H   0  0  0  0  0  0  0  0  0  0  0  0
  -24.0450  -36.6390   23.0100 C   0  0  0  0  0  1  0  0  0  0  0  0
  -25.2890  -36.2280   23.8130 C   0  0  0  0  0  3  0  0  0  0  0  0
  -27.3990  -37.1300   24.6890 C   0  0  0  0  0  1  0  0  0  0  0  0
  -26.3010  -37.3050   23.7430 N   0  0  0  0  0  0  0  0  0  0  0  0
  -25.8740  -38.2110   23.9180 H   0  0  0  0  0  0  0  0  0  0  0  0
  -26.3990  -31.6170   24.9120 C   0  0  1  0  0  0  0  0  0  0  0  0
  -25.3290  -31.3270   25.9920 C   0  0  0  0  0  1  0  0  0  0  0  0
  -27.0170  -30.2630   24.4900 C   0  0  0  0  0  1  0  0  0  0  0  0
  -27.5340  -32.4320   25.5740 C   0  0  0  0  0  1  0  0  0  0  0  0
  1 12  1  0
  1  2  1  0
  4  3  1  0
  4  6  1  0
  4  1  1  0
  5 13  1  0
  5  7  1  0
  5  3  1  0
  6  8  1  0
  7  9  1  0
  7  6  1  0
  8 11  1  6
  8  2  1  0
  8 10  1  0
 13 19  1  0
 14 19  1  0
 15 16  1  0
 15 14  1  0
 17 16  1  0
 17 24  1  0
 17 18  1  0
 19 18  1  0
 20 13  2  0
 21 22  2  0
 22 41  1  0
 23 22  1  0
 23 26  1  0
 24 25  1  0
 24 21  1  0
 25 23  2  0
 26 27  1  0
 27 28  2  0
 29 32  1  0
 29 28  1  0
 30 29  2  0
 31 30  1  0
 31 26  2  0
 32 33  1  0
 33 38  2  0
 33 34  1  0
 34 35  2  0
 35 36  1  0
 36 40  1  0
 37 36  2  0
 38 37  1  0
 39 38  1  0
 41 42  1  0
 42 44  1  0
 42 45  1  0
 43 41  2  0
 46 21  1  0
 46 47  1  0
 48 46  1  0
 49 50  1  0
 49 12  2  0
 51 53  1  0
 51 50  1  0
 52 63  2  0
 53 58  1  0
 54 62  1  0
 54 64  1  0
 55 61  1  0
 55 57  1  0
 56 62  1  0
 57 56  1  0
 58 57  2  0
 59 60  1  0
 59 53  2  0
 60 55  2  0
 61 54  1  0
 62 52  1  0
 64 66  2  0
 65 64  1  0
 67 65  1  0
 68 77  2  0
 68 73  1  0
 69 65  1  0
 69 73  1  0
 70 69  1  0
 71 72  1  0
 71 70  1  0
 72 68  1  0
 73 74  2  0
 74 75  1  0
 76 75  2  0
 77 76  1  0
 78 52  1  0
 78 79  1  0
 78 88  1  0
 79 82  1  0
 80 84  1  0
 80 79  1  0
 81 80  2  0
 84 83  1  0
 86 84  1  0
 86 87  1  0
 86 85  1  0
 88 91  1  1
 88 89  1  0
 90 88  1  0
M  ISO  4   5 100  13 100  50 101  51 101
M  END
>  <TORSDO>  (9) 
F 18

>  <SCORE>  (9) 
-14.817

>  <name>  (9) 
8

>  <ligand_id>  (9) 
8

>  <original_smiles>  (9) 
[H]c1c([H])c([H])c2c(c1[H])C([H])([H])C([H])([H])C([H])([H])C2([H])N([H])C(=O)C1([H])N(C(=O)C([H])(N([H])C(=O)C([H])(N([H])C([H])([H])[H])C([H])([H])[H])C(C([H])([H])[H])(C([H])([H])[H])C([H])([H])[H])C([H])([H])c2c([H])c(OC([H])([H])C([H])([H])N=C3C([H])([H])C(C([H])([H])[H])(C([H])([H])[H])C4([H])C3([H])C([H])([H])C([H])(C(=O)N3C([H])([H])C([H])([H])C([H])([H])C([H])(n5nc(-c6c([H])c([H])c(Oc7c([H])c([H])c(F)c([H])c7F)c([H])c6[H])c(C(=O)N([H])[H])c5N([H])[H])C3([H])[H])C4([H])C([H])([H])[H])c([H])c([H])c2C1([H])[H]

>  <smiles>  (9) 
[H]c1c([H])c([H])c2c(c1[H])C([H])([H])C([H])([H])C([H])([H])C2([H])N([H])C(=O)C1([H])N(C(=O)C([H])(N([H])C(=O)C([H])(N([H])C([H])([H])[H])C([H])([H])[H])C(C([H])([H])[H])(C([H])([H])[H])C([H])([H])[H])C([H])([H])c2c([H])c(OC([H])([H])C([H])([H])N=C3C([H])([H])C(C([H])([H])[H])(C([H])([H])[H])C4([H])C3([H])C([H])([H])C([H])(C(=O)N3C([H])([H])C([H])([H])C([H])([H])C([H])(n5nc(-c6c([H])c([H])c(Oc7c([H])c([H])c(F)c([H])c7F)c([H])c6[H])c(C(=O)N([H])[H])c5N([H])[H])C3([H])[H])C4([H])C([H])([H])[H])c([H])c([H])c2C1([H])[H]

$$$$
9:0:0
     RDKit          3D

 95103  0  0  1  0  0  0  0  0999 V2000
  -24.6740  -21.4990   17.2390 C   0  0  0  0  0  2  0  0  0  0  0  0
  -25.9320  -20.6380   17.1590 C   0  0  0  0  0  2  0  0  0  0  0  0
  -25.0700  -22.6820   18.1300 C   0  0  0  0  0  2  0  0  0  0  0  0
  -26.5420  -20.7260   18.5650 C   0  0  0  0  0  3  0  0  0  0  0  0
  -26.1690  -22.1450   19.0810 C   0  0  0  0  0  3  0  0  0  0  0  0
  -27.2830  -23.1030   19.3440 N   0  0  0  0  0  4  0  0  0  0  0  0
  -27.8620  -22.6980   20.0620 H   0  0  0  0  0  0  0  0  0  0  0  0
  -26.8800  -23.9320   19.7470 H   0  0  0  0  0  0  0  0  0  0  0  0
  -28.1570  -23.4960   18.2090 C   0  0  0  0  0  2  0  0  0  0  0  0
  -29.2980  -24.4580   18.6160 C   0  0  0  0  0  2  0  0  0  0  0  0
  -28.9930  -25.9690   18.5080 C   0  0  0  0  0  2  0  0  0  0  0  0
  -28.5700  -26.5290   19.7510 O   0  0  0  0  0  0  0  0  0  0  0  0
  -24.7320  -31.4630   23.1410 C   0  0  0  0  0  0  0  0  0  0  0  0
  -27.3900  -27.2340   19.7800 C   0  0  0  0  0  0  0  0  0  0  0  0
  -23.5260  -30.1600   21.4160 C   0  0  0  0  0  3  0  0  0  0  0  0
  -24.9820  -28.7130   19.9010 C   0  0  0  0  0  0  0  0  0  0  0  0
  -26.0500  -30.5270   21.2450 C   0  0  0  0  0  2  0  0  0  0  0  0
  -26.1360  -29.1970   20.5310 C   0  0  0  0  0  0  0  0  0  0  0  0
  -27.3340  -28.4530   20.4890 C   0  0  0  0  0  3  0  0  0  0  0  0
  -26.2170  -26.7580   19.1520 C   0  0  0  0  0  3  0  0  0  0  0  0
  -25.0160  -27.4840   19.2170 C   0  0  0  0  0  3  0  0  0  0  0  0
  -23.7390  -29.5670   19.9970 C   0  0  0  0  0  2  0  0  0  0  0  0
  -24.7870  -30.7290   21.9930 N   0  0  0  0  0  0  0  0  0  0  0  0
  -23.6530  -31.7030   23.6960 O   0  0  0  0  0  0  0  0  0  0  0  0
  -22.8780  -29.0800   22.3120 C   0  0  0  0  0  0  0  0  0  0  0  0
  -21.5500  -28.9200   22.1870 N   0  0  0  0  0  0  0  0  0  0  0  0
  -23.5650  -28.3930   23.0740 O   0  0  0  0  0  0  0  0  0  0  0  0
  -21.0640  -29.5230   21.5410 H   0  0  0  0  0  0  0  0  0  0  0  0
  -18.1700  -27.7220   22.6140 C   0  0  0  0  0  0  0  0  0  0  0  0
  -20.7310  -27.9390   22.9010 C   0  0  0  0  0  3  0  0  0  0  0  0
  -20.8190  -26.5490   22.2320 C   0  0  0  0  0  2  0  0  0  0  0  0
  -19.7180  -26.3060   21.1960 C   0  0  0  0  0  2  0  0  0  0  0  0
  -18.3360  -26.4210   21.8470 C   0  0  0  0  0  2  0  0  0  0  0  0
  -19.2960  -28.4460   23.0940 C   0  0  0  0  0  0  0  0  0  0  0  0
  -19.0870  -29.6700   23.7660 C   0  0  0  0  0  3  0  0  0  0  0  0
  -17.7860  -30.1720   23.9610 C   0  0  0  0  0  3  0  0  0  0  0  0
  -16.6760  -29.4420   23.4980 C   0  0  0  0  0  3  0  0  0  0  0  0
  -16.8680  -28.2200   22.8310 C   0  0  0  0  0  3  0  0  0  0  0  0
  -26.0200  -32.0540   23.7980 C   0  0  0  0  0  3  0  0  0  0  0  0
  -25.7290  -33.4430   24.1790 N   0  0  0  0  0  0  0  0  0  0  0  0
  -26.0690  -34.5160   23.4570 C   0  0  0  0  0  0  0  0  0  0  0  0
  -26.7410  -34.4430   22.4230 O   0  0  0  0  0  0  0  0  0  0  0  0
  -25.1400  -33.5770   24.9890 H   0  0  0  0  0  0  0  0  0  0  0  0
  -24.3460  -36.3240   23.1700 C   0  0  0  0  0  1  0  0  0  0  0  0
  -25.5910  -35.8920   23.9600 C   0  0  0  0  0  3  0  0  0  0  0  0
  -27.7330  -36.7420   24.8020 C   0  0  0  0  0  1  0  0  0  0  0  0
  -26.6270  -36.9430   23.8720 N   0  0  0  0  0  0  0  0  0  0  0  0
  -26.2250  -37.8610   24.0470 H   0  0  0  0  0  0  0  0  0  0  0  0
  -26.5140  -31.2280   25.0490 C   0  0  1  0  0  0  0  0  0  0  0  0
  -25.4110  -30.9720   26.1020 C   0  0  0  0  0  1  0  0  0  0  0  0
  -27.0690  -29.8540   24.6050 C   0  0  0  0  0  1  0  0  0  0  0  0
  -27.6810  -31.9710   25.7430 C   0  0  0  0  0  1  0  0  0  0  0  0
  -28.0090  -20.2230   18.6450 C   0  0  0  0  0  2  0  0  0  0  0  0
  -28.1320  -18.9480   19.4560 C   0  0  0  0  0  3  0  0  0  0  0  0
  -29.2610  -18.5250   20.0460 C   0  0  0  0  0  3  0  0  0  0  0  0
  -29.8540  -17.6360   22.3260 C   0  0  0  0  0  1  0  0  0  0  0  0
  -29.3220  -17.2950   20.9280 C   0  0  0  0  0  3  0  0  0  0  0  0
  -30.8950  -15.2760   20.7800 C   0  0  0  0  0  3  0  0  0  0  0  0
  -30.0780  -16.1870   20.2170 C   0  0  0  0  0  3  0  0  0  0  0  0
  -31.4750  -14.2530   19.9340 C   0  0  0  0  0  0  0  0  0  0  0  0
  -30.9600  -12.1530   18.7490 C   0  0  0  0  0  2  0  0  0  0  0  0
  -29.9560  -12.4420   17.6130 C   0  0  0  0  0  2  0  0  0  0  0  0
  -28.5010  -12.4060   18.1270 C   0  0  0  0  0  2  0  0  0  0  0  0
  -28.3030  -13.2400   19.4180 C   0  0  0  0  0  3  0  0  0  0  0  0
  -29.4010  -12.9080   20.4530 C   0  0  0  0  0  2  0  0  0  0  0  0
  -30.7140  -13.1330   19.8160 N   0  0  0  0  0  0  0  0  0  0  0  0
  -32.5230  -14.4300   19.3050 O   0  0  0  0  0  0  0  0  0  0  0  0
  -26.0040  -14.0190   20.2840 C   0  0  0  0  0  0  0  0  0  0  0  0
  -24.9020  -13.3240   20.7080 C   0  0  0  0  0  0  0  0  0  0  0  0
  -25.2530  -11.9420   20.6210 C   0  0  0  0  0  0  0  0  0  0  0  0
  -26.9610  -13.0650   19.9720 N   0  0  0  0  0  0  0  0  0  0  0  0
  -26.5140  -11.8100   20.2260 N   0  0  0  0  0  0  0  0  0  0  0  0
  -24.4440  -10.7360   20.8350 C   0  0  0  0  0  0  0  0  0  0  0  0
  -24.8360   -9.7370   21.7530 C   0  0  0  0  0  3  0  0  0  0  0  0
  -24.0330   -8.5930   21.9540 C   0  0  0  0  0  3  0  0  0  0  0  0
  -22.8230   -8.4400   21.2380 C   0  0  0  0  0  0  0  0  0  0  0  0
  -22.4480   -9.4250   20.3050 C   0  0  0  0  0  3  0  0  0  0  0  0
  -23.2520  -10.5600   20.1020 C   0  0  0  0  0  3  0  0  0  0  0  0
  -21.9940   -7.3500   21.3480 O   0  0  0  0  0  0  0  0  0  0  0  0
  -21.8850   -6.6450   22.5200 C   0  0  0  0  0  0  0  0  0  0  0  0
  -21.5030   -7.2650   23.7290 C   0  0  0  0  0  3  0  0  0  0  0  0
  -21.3330   -6.4920   24.8940 C   0  0  0  0  0  3  0  0  0  0  0  0
  -21.5350   -5.0990   24.8520 C   0  0  0  0  0  0  0  0  0  0  0  0
  -21.9080   -4.4780   23.6460 C   0  0  0  0  0  3  0  0  0  0  0  0
  -22.0790   -5.2490   22.4830 C   0  0  0  0  0  0  0  0  0  0  0  0
  -22.4170   -4.6440   21.3200 F   0  0  0  0  0  0  0  0  0  0  0  0
  -21.3630   -4.3550   25.9680 F   0  0  0  0  0  0  0  0  0  0  0  0
  -23.5670  -13.9000   21.0830 C   0  0  0  0  0  0  0  0  0  0  0  0
  -22.8660  -13.2680   22.0200 N   0  0  0  0  0  0  0  0  0  0  0  0
  -23.1540  -14.9440   20.5780 O   0  0  0  0  0  0  0  0  0  0  0  0
  -23.2110  -12.4240   22.4520 H   0  0  0  0  0  0  0  0  0  0  0  0
  -21.9750  -13.6400   22.3170 H   0  0  0  0  0  0  0  0  0  0  0  0
  -26.2670  -15.3760   20.1320 N   0  0  0  0  0  0  0  0  0  0  0  0
  -25.5850  -16.0970   20.3370 H   0  0  0  0  0  0  0  0  0  0  0  0
  -27.1610  -15.7430   19.8350 H   0  0  0  0  0  0  0  0  0  0  0  0
  1  3  1  0
  2  1  1  0
  2  4  1  0
  3  5  1  0
  4 53  1  0
  4  5  1  0
  5  6  1  0
  6  8  1  0
  6  7  1  0
  9 10  1  0
  9  6  1  0
 11 10  1  0
 11 12  1  0
 12 14  1  0
 13 24  2  0
 14 19  1  0
 15 23  1  0
 15 25  1  0
 16 22  1  0
 16 18  1  0
 17 23  1  0
 18 17  1  0
 19 18  2  0
 20 21  1  0
 20 14  2  0
 21 16  2  0
 22 15  1  0
 23 13  1  0
 25 27  2  0
 26 25  1  0
 28 26  1  0
 29 38  2  0
 29 34  1  0
 30 26  1  0
 30 34  1  0
 31 30  1  0
 32 33  1  0
 32 31  1  0
 33 29  1  0
 34 35  2  0
 35 36  1  0
 37 36  2  0
 38 37  1  0
 39 13  1  0
 39 40  1  0
 39 49  1  0
 40 43  1  0
 41 45  1  0
 41 40  1  0
 42 41  2  0
 45 44  1  0
 47 45  1  0
 47 48  1  0
 47 46  1  0
 49 52  1  1
 49 50  1  0
 51 49  1  0
 53 54  1  0
 54 55  2  0
 55 57  1  0
 57 56  1  0
 59 58  2  0
 59 57  1  0
 60 58  1  0
 61 66  1  0
 62 63  1  0
 62 61  1  0
 64 63  1  0
 64 71  1  0
 64 65  1  0
 66 60  1  0
 66 65  1  0
 67 60  2  0
 68 69  2  0
 69 88  1  0
 70 69  1  0
 70 73  1  0
 71 72  1  0
 71 68  1  0
 72 70  2  0
 73 74  1  0
 74 75  2  0
 76 79  1  0
 76 75  1  0
 77 76  2  0
 78 77  1  0
 78 73  2  0
 79 80  1  0
 80 81  1  0
 81 82  2  0
 83 82  1  0
 83 87  1  0
 84 83  2  0
 85 80  2  0
 85 84  1  0
 86 85  1  0
 88 89  1  0
 89 92  1  0
 89 91  1  0
 90 88  2  0
 93 68  1  0
 93 94  1  0
 95 93  1  0
M  ISO  4  11 101  12 101  58 100  60 100
M  END
>  <TORSDO>  (10) 
F 24

>  <SCORE>  (10) 
-10.971

>  <name>  (10) 
9

>  <ligand_id>  (10) 
9

>  <original_smiles>  (10) 
[H]C(C(=O)N1C([H])([H])C([H])([H])C([H])([H])C([H])(n2nc(-c3c([H])c([H])c(Oc4c([H])c([H])c(F)c([H])c4F)c([H])c3[H])c(C(=O)N([H])[H])c2N([H])[H])C1([H])[H])=C([H])C([H])(C([H])=C([H])C([H])([H])C1([H])C([H])([H])C([H])([H])C([H])([H])C1([H])[N+]([H])([H])C([H])([H])C([H])([H])C([H])([H])Oc1c([H])c([H])c2c(c1[H])C([H])([H])N(C(=O)C([H])(N([H])C(=O)C([H])(N([H])C([H])([H])[H])C([H])([H])[H])C(C([H])([H])[H])(C([H])([H])[H])C([H])([H])[H])C([H])(C(=O)N([H])C1([H])c3c([H])c([H])c([H])c([H])c3C([H])([H])C([H])([H])C1([H])[H])C2([H])[H])C([H])([H])[H]

>  <smiles>  (10) 
[H]C(C(=O)N1C([H])([H])C([H])([H])C([H])([H])C([H])(n2nc(-c3c([H])c([H])c(Oc4c([H])c([H])c(F)c([H])c4F)c([H])c3[H])c(C(=O)N([H])[H])c2N([H])[H])C1([H])[H])=C([H])C([H])(C([H])=C([H])C([H])([H])C1([H])C([H])([H])C([H])([H])C([H])([H])C1([H])[N+]([H])([H])C([H])([H])C([H])([H])C([H])([H])Oc1c([H])c([H])c2c(c1[H])C([H])([H])N(C(=O)C([H])(N([H])C(=O)C([H])(N([H])C([H])([H])[H])C([H])([H])[H])C(C([H])([H])[H])(C([H])([H])[H])C([H])([H])[H])C([H])(C(=O)N([H])C1([H])c3c([H])c([H])c([H])c([H])c3C([H])([H])C([H])([H])C1([H])[H])C2([H])[H])C([H])([H])[H]

$$$$
10:0:0
     RDKit          3D

 90 98  0  0  1  0  0  0  0  0999 V2000
  -30.7760  -21.4250   21.0390 C   0  0  0  0  0  3  0  0  0  0  0  0
  -30.8340  -20.0820   20.9940 C   0  0  0  0  0  3  0  0  0  0  0  0
  -29.6060  -22.2070   20.5860 C   0  0  0  0  0  0  0  0  0  0  0  0
  -28.3540  -19.9690   20.6800 C   0  0  0  0  0  2  0  0  0  0  0  0
  -29.6790  -19.1870   20.5780 C   0  0  0  0  0  3  0  0  0  0  0  0
  -28.3990  -21.3950   20.0770 C   0  0  0  0  0  3  0  0  0  0  0  0
  -28.3560  -21.3720   18.5370 C   0  0  0  0  0  1  0  0  0  0  0  0
  -29.6950  -23.4810   20.6300 N   0  0  0  0  0  0  0  0  0  0  0  0
  -29.6400  -17.9010   21.4320 C   0  0  0  0  0  2  0  0  0  0  0  0
  -29.9460  -15.5030   20.7130 C   0  0  0  0  0  3  0  0  0  0  0  0
  -30.4350  -16.7520   20.8300 C   0  0  0  0  0  3  0  0  0  0  0  0
  -30.7020  -14.4180   20.0820 C   0  0  0  0  0  0  0  0  0  0  0  0
  -30.3480  -12.2810   18.9030 C   0  0  0  0  0  2  0  0  0  0  0  0
  -29.3300  -12.5220   17.7670 C   0  0  0  0  0  2  0  0  0  0  0  0
  -27.8800  -12.3970   18.2780 C   0  0  0  0  0  2  0  0  0  0  0  0
  -27.6350  -13.2010   19.5820 C   0  0  0  0  0  3  0  0  0  0  0  0
  -28.7480  -12.8910   20.6080 C   0  0  0  0  0  2  0  0  0  0  0  0
  -30.0380  -13.2310   19.9820 N   0  0  0  0  0  0  0  0  0  0  0  0
  -31.8020  -14.5990   19.5470 O   0  0  0  0  0  0  0  0  0  0  0  0
  -25.2970  -13.8450   20.4490 C   0  0  0  0  0  0  0  0  0  0  0  0
  -24.2350  -13.0860   20.8600 C   0  0  0  0  0  0  0  0  0  0  0  0
  -24.6600  -11.7250   20.7590 C   0  0  0  0  0  0  0  0  0  0  0  0
  -26.3050  -12.9480   20.1300 N   0  0  0  0  0  0  0  0  0  0  0  0
  -25.9260  -11.6670   20.3690 N   0  0  0  0  0  0  0  0  0  0  0  0
  -23.9200  -10.4730   20.9560 C   0  0  0  0  0  0  0  0  0  0  0  0
  -24.3590   -9.4930   21.8730 C   0  0  0  0  0  3  0  0  0  0  0  0
  -23.6210   -8.3040   22.0570 C   0  0  0  0  0  3  0  0  0  0  0  0
  -22.4300   -8.0880   21.3240 C   0  0  0  0  0  0  0  0  0  0  0  0
  -22.0080   -9.0580   20.3970 C   0  0  0  0  0  3  0  0  0  0  0  0
  -22.7470  -10.2390   20.2110 C   0  0  0  0  0  3  0  0  0  0  0  0
  -21.6620   -6.9530   21.4180 O   0  0  0  0  0  0  0  0  0  0  0  0
  -21.5910   -6.2270   22.5790 C   0  0  0  0  0  0  0  0  0  0  0  0
  -21.1380   -6.7970   23.7890 C   0  0  0  0  0  3  0  0  0  0  0  0
  -21.0160   -5.9960   24.9420 C   0  0  0  0  0  3  0  0  0  0  0  0
  -21.3350   -4.6260   24.8870 C   0  0  0  0  0  0  0  0  0  0  0  0
  -21.7810   -4.0550   23.6820 C   0  0  0  0  0  3  0  0  0  0  0  0
  -21.9050   -4.8540   22.5300 C   0  0  0  0  0  0  0  0  0  0  0  0
  -22.3150   -4.2930   21.3660 F   0  0  0  0  0  0  0  0  0  0  0  0
  -21.2090   -3.8550   25.9930 F   0  0  0  0  0  0  0  0  0  0  0  0
  -22.8680  -13.5840   21.2340 C   0  0  0  0  0  0  0  0  0  0  0  0
  -22.1770  -12.8700   22.1170 N   0  0  0  0  0  0  0  0  0  0  0  0
  -22.4240  -14.6370   20.7810 O   0  0  0  0  0  0  0  0  0  0  0  0
  -22.5510  -12.0160   22.5030 H   0  0  0  0  0  0  0  0  0  0  0  0
  -21.2620  -13.1820   22.4100 H   0  0  0  0  0  0  0  0  0  0  0  0
  -25.4840  -15.2170   20.3020 N   0  0  0  0  0  0  0  0  0  0  0  0
  -24.7460  -15.8870   20.4840 H   0  0  0  0  0  0  0  0  0  0  0  0
  -26.3290  -15.6450   19.9440 H   0  0  0  0  0  0  0  0  0  0  0  0
  -28.6810  -24.3780   20.0840 C   0  0  0  0  0  2  0  0  0  0  0  0
  -28.6660  -25.7110   20.8610 C   0  0  0  0  0  2  0  0  0  0  0  0
  -28.4900  -26.8110   19.9750 O   0  0  0  0  0  0  0  0  0  0  0  0
  -24.5950  -31.8500   23.1560 C   0  0  0  0  0  0  0  0  0  0  0  0
  -27.2940  -27.4750   20.0560 C   0  0  0  0  0  0  0  0  0  0  0  0
  -23.4070  -30.4550   21.4920 C   0  0  0  0  0  3  0  0  0  0  0  0
  -24.8800  -28.9330   20.0710 C   0  0  0  0  0  0  0  0  0  0  0  0
  -25.9280  -30.8360   21.3140 C   0  0  0  0  0  2  0  0  0  0  0  0
  -26.0280  -29.4720   20.6680 C   0  0  0  0  0  0  0  0  0  0  0  0
  -27.2390  -28.7490   20.6590 C   0  0  0  0  0  3  0  0  0  0  0  0
  -26.1330  -26.9320   19.4710 C   0  0  0  0  0  3  0  0  0  0  0  0
  -24.9250  -27.6580   19.4740 C   0  0  0  0  0  3  0  0  0  0  0  0
  -23.6300  -29.7840   20.1100 C   0  0  0  0  0  2  0  0  0  0  0  0
  -24.6610  -31.0620   22.0460 N   0  0  0  0  0  0  0  0  0  0  0  0
  -23.5090  -32.1130   23.6900 O   0  0  0  0  0  0  0  0  0  0  0  0
  -22.7540  -29.4250   22.4380 C   0  0  0  0  0  0  0  0  0  0  0  0
  -21.4270  -29.2630   22.3190 N   0  0  0  0  0  0  0  0  0  0  0  0
  -23.4360  -28.7730   23.2320 O   0  0  0  0  0  0  0  0  0  0  0  0
  -20.9380  -29.8370   21.6460 H   0  0  0  0  0  0  0  0  0  0  0  0
  -18.0350  -28.1420   22.8620 C   0  0  0  0  0  0  0  0  0  0  0  0
  -20.6050  -28.3220   23.0770 C   0  0  0  0  0  3  0  0  0  0  0  0
  -20.6550  -26.9110   22.4480 C   0  0  0  0  0  2  0  0  0  0  0  0
  -19.5200  -26.6530   21.4530 C   0  0  0  0  0  2  0  0  0  0  0  0
  -18.1580  -26.8130   22.1350 C   0  0  0  0  0  2  0  0  0  0  0  0
  -19.1840  -28.8580   23.2880 C   0  0  0  0  0  0  0  0  0  0  0  0
  -19.0170  -30.1070   23.9260 C   0  0  0  0  0  3  0  0  0  0  0  0
  -17.7310  -30.6380   24.1410 C   0  0  0  0  0  3  0  0  0  0  0  0
  -16.5960  -29.9170   23.7310 C   0  0  0  0  0  3  0  0  0  0  0  0
  -16.7490  -28.6710   23.0990 C   0  0  0  0  0  3  0  0  0  0  0  0
  -25.8750  -32.4800   23.7910 C   0  0  0  0  0  3  0  0  0  0  0  0
  -26.3970  -31.6910   25.0540 C   0  0  1  0  0  0  0  0  0  0  0  0
  -25.3030  -31.4210   26.1130 C   0  0  0  0  0  1  0  0  0  0  0  0
  -26.9990  -30.3290   24.6390 C   0  0  0  0  0  1  0  0  0  0  0  0
  -27.5390  -32.4860   25.7340 C   0  0  0  0  0  1  0  0  0  0  0  0
  -25.5570  -33.8700   24.1400 N   0  0  0  0  0  0  0  0  0  0  0  0
  -25.8820  -34.9360   23.3940 C   0  0  0  0  0  0  0  0  0  0  0  0
  -26.5540  -34.8500   22.3620 O   0  0  0  0  0  0  0  0  0  0  0  0
  -24.9610  -34.0110   24.9420 H   0  0  0  0  0  0  0  0  0  0  0  0
  -24.1420  -36.7180   23.0580 C   0  0  0  0  0  1  0  0  0  0  0  0
  -25.3820  -36.3130   23.8680 C   0  0  0  0  0  3  0  0  0  0  0  0
  -27.5050  -37.2010   24.7230 C   0  0  0  0  0  1  0  0  0  0  0  0
  -26.4080  -37.3750   23.7740 N   0  0  0  0  0  0  0  0  0  0  0  0
  -25.9950  -38.2900   23.9340 H   0  0  0  0  0  0  0  0  0  0  0  0
  2  1  2  0
  3  8  2  0
  3  1  1  0
  5  4  1  0
  5  2  1  0
  5  9  1  0
  6  7  1  0
  6  3  1  0
  6  4  1  0
 10 11  2  0
 11  9  1  0
 12 10  1  0
 13 18  1  0
 14 15  1  0
 14 13  1  0
 16 15  1  0
 16 23  1  0
 16 17  1  0
 18 12  1  0
 18 17  1  0
 19 12  2  0
 20 21  2  0
 21 40  1  0
 22 21  1  0
 22 25  1  0
 23 24  1  0
 23 20  1  0
 24 22  2  0
 25 26  1  0
 26 27  2  0
 28 31  1  0
 28 27  1  0
 29 28  2  0
 30 29  1  0
 30 25  2  0
 31 32  1  0
 32 33  1  0
 33 34  2  0
 35 34  1  0
 35 39  1  0
 36 35  2  0
 37 32  2  0
 37 36  1  0
 38 37  1  0
 40 41  1  0
 41 44  1  0
 41 43  1  0
 42 40  2  0
 45 20  1  0
 45 46  1  0
 47 45  1  0
 48  8  1  0
 48 49  1  0
 50 52  1  0
 50 49  1  0
 51 62  2  0
 52 57  1  0
 53 61  1  0
 53 63  1  0
 54 60  1  0
 54 56  1  0
 55 61  1  0
 56 55  1  0
 57 56  2  0
 58 59  1  0
 58 52  2  0
 59 54  2  0
 60 53  1  0
 61 51  1  0
 63 65  2  0
 64 63  1  0
 66 64  1  0
 67 76  2  0
 67 72  1  0
 68 64  1  0
 68 72  1  0
 69 68  1  0
 70 71  1  0
 70 69  1  0
 71 67  1  0
 72 73  2  0
 73 74  1  0
 75 74  2  0
 76 75  1  0
 77 51  1  0
 77 82  1  0
 77 78  1  0
 78 81  1  1
 78 79  1  0
 80 78  1  0
 82 85  1  0
 83 87  1  0
 83 82  1  0
 84 83  2  0
 87 86  1  0
 89 87  1  0
 89 90  1  0
 89 88  1  0
M  ISO  4  10 100  12 100  49 101  50 101
M  END
>  <TORSDO>  (11) 
F 20

>  <SCORE>  (11) 
-13.585

>  <name>  (11) 
10

>  <ligand_id>  (11) 
10

>  <original_smiles>  (11) 
[H]C(C(=O)N1C([H])([H])C([H])([H])C([H])([H])C([H])(n2nc(-c3c([H])c([H])c(Oc4c([H])c([H])c(F)c([H])c4F)c([H])c3[H])c(C(=O)N([H])[H])c2N([H])[H])C1([H])[H])=C([H])C([H])([H])C1([H])C([H])=C([H])C(=NC([H])([H])C([H])([H])Oc2c([H])c([H])c3c(c2[H])C([H])([H])N(C(=O)C([H])(N([H])C(=O)C([H])(N([H])C([H])([H])[H])C([H])([H])[H])C(C([H])([H])[H])(C([H])([H])[H])C([H])([H])[H])C([H])(C(=O)N([H])C2([H])c4c([H])c([H])c([H])c([H])c4C([H])([H])C([H])([H])C2([H])[H])C3([H])[H])C([H])(C([H])([H])[H])C1([H])[H]

>  <smiles>  (11) 
[H]C(C(=O)N1C([H])([H])C([H])([H])C([H])([H])C([H])(n2nc(-c3c([H])c([H])c(Oc4c([H])c([H])c(F)c([H])c4F)c([H])c3[H])c(C(=O)N([H])[H])c2N([H])[H])C1([H])[H])=C([H])C([H])([H])C1([H])C([H])=C([H])C(=NC([H])([H])C([H])([H])Oc2c([H])c([H])c3c(c2[H])C([H])([H])N(C(=O)C([H])(N([H])C(=O)C([H])(N([H])C([H])([H])[H])C([H])([H])[H])C(C([H])([H])[H])(C([H])([H])[H])C([H])([H])[H])C([H])(C(=O)N([H])C2([H])c4c([H])c([H])c([H])c([H])c4C([H])([H])C([H])([H])C2([H])[H])C3([H])[H])C([H])(C([H])([H])[H])C1([H])[H]

$$$$
11:0:0
     RDKit          3D

 84 92  0  0  1  0  0  0  0  0999 V2000
  -28.8930  -21.9460   19.0630 C   0  0  0  0  0  2  0  0  0  0  0  0
  -28.7210  -21.0810   20.2900 C   0  0  0  0  0  3  0  0  0  0  0  0
  -28.9180  -22.8570   20.2680 C   0  0  0  0  0  3  0  0  0  0  0  0
  -29.6700  -19.5870   20.3180 C   0  0  0  0  0  2  0  0  0  0  0  0
  -29.3690  -16.5090   20.5230 C   0  0  0  0  0  3  0  0  0  0  0  0
  -29.1370  -17.9710   20.5380 C   0  0  0  0  0  3  0  0  0  0  0  0
  -30.3490  -15.2550   20.2670 C   0  0  0  0  0  0  0  0  0  0  0  0
  -30.3730  -12.8300   19.3470 C   0  0  0  0  0  2  0  0  0  0  0  0
  -29.4240  -12.6850   18.1260 C   0  0  0  0  0  2  0  0  0  0  0  0
  -27.9740  -12.4140   18.5720 C   0  0  0  0  0  2  0  0  0  0  0  0
  -27.5490  -13.3380   19.7390 C   0  0  0  0  0  3  0  0  0  0  0  0
  -28.6160  -13.3990   20.8520 C   0  0  0  0  0  2  0  0  0  0  0  0
  -29.8500  -13.9230   20.2400 N   0  0  0  0  0  0  0  0  0  0  0  0
  -31.5510  -15.3280   19.9690 O   0  0  0  0  0  0  0  0  0  0  0  0
  -25.1780  -13.8860   20.5140 C   0  0  0  0  0  0  0  0  0  0  0  0
  -24.1240  -13.1020   20.8930 C   0  0  0  0  0  0  0  0  0  0  0  0
  -24.5990  -11.7540   20.8510 C   0  0  0  0  0  0  0  0  0  0  0  0
  -26.2240  -13.0170   20.2550 N   0  0  0  0  0  0  0  0  0  0  0  0
  -25.8870  -11.7290   20.5250 N   0  0  0  0  0  0  0  0  0  0  0  0
  -23.8810  -10.4870   21.0430 C   0  0  0  0  0  0  0  0  0  0  0  0
  -24.3310   -9.5150   21.9620 C   0  0  0  0  0  3  0  0  0  0  0  0
  -23.6110   -8.3130   22.1430 C   0  0  0  0  0  3  0  0  0  0  0  0
  -22.4270   -8.0770   21.4060 C   0  0  0  0  0  0  0  0  0  0  0  0
  -21.9950   -9.0390   20.4760 C   0  0  0  0  0  3  0  0  0  0  0  0
  -22.7160  -10.2300   20.2920 C   0  0  0  0  0  3  0  0  0  0  0  0
  -21.6770   -6.9290   21.4970 O   0  0  0  0  0  0  0  0  0  0  0  0
  -21.6540   -6.1750   22.6430 C   0  0  0  0  0  0  0  0  0  0  0  0
  -21.2470   -6.7140   23.8820 C   0  0  0  0  0  3  0  0  0  0  0  0
  -21.1700   -5.8860   25.0210 C   0  0  0  0  0  3  0  0  0  0  0  0
  -21.4890   -4.5200   24.9200 C   0  0  0  0  0  0  0  0  0  0  0  0
  -21.8900   -3.9790   23.6860 C   0  0  0  0  0  3  0  0  0  0  0  0
  -21.9680   -4.8040   22.5490 C   0  0  0  0  0  0  0  0  0  0  0  0
  -22.3340   -4.2730   21.3580 F   0  0  0  0  0  0  0  0  0  0  0  0
  -21.4090   -3.7220   26.0110 F   0  0  0  0  0  0  0  0  0  0  0  0
  -22.7260  -13.5700   21.1760 C   0  0  0  0  0  0  0  0  0  0  0  0
  -22.0130  -12.8710   22.0530 N   0  0  0  0  0  0  0  0  0  0  0  0
  -22.2770  -14.5900   20.6570 O   0  0  0  0  0  0  0  0  0  0  0  0
  -22.3900  -12.0460   22.4950 H   0  0  0  0  0  0  0  0  0  0  0  0
  -21.0760  -13.1660   22.2850 H   0  0  0  0  0  0  0  0  0  0  0  0
  -25.3300  -15.2590   20.3410 N   0  0  0  0  0  0  0  0  0  0  0  0
  -24.5570  -15.9050   20.4620 H   0  0  0  0  0  0  0  0  0  0  0  0
  -26.1620  -15.7030   19.9770 H   0  0  0  0  0  0  0  0  0  0  0  0
  -27.9340  -24.3240   20.1690 C   0  0  0  0  0  2  0  0  0  0  0  0
  -28.2000  -25.9350   20.2600 O   0  0  0  0  0  0  0  0  0  0  0  0
  -24.6470  -31.8710   23.2280 C   0  0  0  0  0  0  0  0  0  0  0  0
  -27.1760  -27.0090   20.2080 C   0  0  0  0  0  0  0  0  0  0  0  0
  -23.4380  -30.4770   21.5990 C   0  0  0  0  0  3  0  0  0  0  0  0
  -24.8730  -28.8690   20.1730 C   0  0  0  0  0  0  0  0  0  0  0  0
  -26.0030  -30.6900   21.4340 C   0  0  0  0  0  2  0  0  0  0  0  0
  -26.0660  -29.2820   20.7810 C   0  0  0  0  0  0  0  0  0  0  0  0
  -27.2130  -28.3730   20.7730 C   0  0  0  0  0  3  0  0  0  0  0  0
  -25.9510  -26.7390   19.5570 C   0  0  0  0  0  3  0  0  0  0  0  0
  -24.8390  -27.6160   19.5410 C   0  0  0  0  0  3  0  0  0  0  0  0
  -23.6560  -29.7900   20.2240 C   0  0  0  0  0  2  0  0  0  0  0  0
  -24.7180  -31.0390   22.1410 N   0  0  0  0  0  0  0  0  0  0  0  0
  -23.5620  -32.1650   23.7560 O   0  0  0  0  0  0  0  0  0  0  0  0
  -22.7480  -29.4840   22.5710 C   0  0  0  0  0  0  0  0  0  0  0  0
  -21.4160  -29.3240   22.4530 N   0  0  0  0  0  0  0  0  0  0  0  0
  -23.4170  -28.8590   23.3970 O   0  0  0  0  0  0  0  0  0  0  0  0
  -20.9310  -29.8790   21.7630 H   0  0  0  0  0  0  0  0  0  0  0  0
  -18.0340  -28.1210   22.9740 C   0  0  0  0  0  0  0  0  0  0  0  0
  -20.5940  -28.3910   23.2320 C   0  0  0  0  0  3  0  0  0  0  0  0
  -20.6960  -26.9540   22.6660 C   0  0  0  0  0  2  0  0  0  0  0  0
  -19.5920  -26.6250   21.6550 C   0  0  0  0  0  2  0  0  0  0  0  0
  -18.2110  -26.7700   22.3020 C   0  0  0  0  0  2  0  0  0  0  0  0
  -19.1520  -28.8890   23.3960 C   0  0  0  0  0  0  0  0  0  0  0  0
  -18.9300  -30.1510   23.9880 C   0  0  0  0  0  3  0  0  0  0  0  0
  -17.6250  -30.6470   24.1600 C   0  0  0  0  0  3  0  0  0  0  0  0
  -16.5210  -29.8780   23.7510 C   0  0  0  0  0  3  0  0  0  0  0  0
  -16.7270  -28.6160   23.1650 C   0  0  0  0  0  3  0  0  0  0  0  0
  -25.9250  -32.5100   23.8520 C   0  0  0  0  0  3  0  0  0  0  0  0
  -26.4390  -31.7410   25.1320 C   0  0  1  0  0  0  0  0  0  0  0  0
  -25.3470  -31.5130   26.2030 C   0  0  0  0  0  1  0  0  0  0  0  0
  -27.0160  -30.3580   24.7510 C   0  0  0  0  0  1  0  0  0  0  0  0
  -27.5950  -32.5320   25.7890 C   0  0  0  0  0  1  0  0  0  0  0  0
  -25.6120  -33.9090   24.1920 N   0  0  0  0  0  0  0  0  0  0  0  0
  -25.9260  -34.9710   23.4390 C   0  0  0  0  0  0  0  0  0  0  0  0
  -26.5710  -34.8760   22.3910 O   0  0  0  0  0  0  0  0  0  0  0  0
  -25.0350  -34.0560   25.0070 H   0  0  0  0  0  0  0  0  0  0  0  0
  -24.1790  -36.7630   23.1570 C   0  0  0  0  0  1  0  0  0  0  0  0
  -25.4510  -36.3570   23.9190 C   0  0  0  0  0  3  0  0  0  0  0  0
  -27.6100  -37.2520   24.6770 C   0  0  0  0  0  1  0  0  0  0  0  0
  -26.4740  -37.4160   23.7720 N   0  0  0  0  0  0  0  0  0  0  0  0
  -26.0690  -38.3340   23.9350 H   0  0  0  0  0  0  0  0  0  0  0  0
  1  3  1  0
  1  2  1  0
  2  4  1  0
  3 43  1  0
  3  2  1  0
  4  6  1  0
  5  6  2  0
  7  5  1  0
  8 13  1  0
  9 10  1  0
  9  8  1  0
 11 10  1  0
 11 18  1  0
 11 12  1  0
 13  7  1  0
 13 12  1  0
 14  7  2  0
 15 16  2  0
 16 35  1  0
 17 16  1  0
 17 20  1  0
 18 15  1  0
 18 19  1  0
 19 17  2  0
 20 21  1  0
 21 22  2  0
 23 26  1  0
 23 22  1  0
 24 23  2  0
 25 24  1  0
 25 20  2  0
 26 27  1  0
 27 28  1  0
 28 29  2  0
 30 29  1  0
 30 34  1  0
 31 30  2  0
 32 27  2  0
 32 31  1  0
 33 32  1  0
 35 36  1  0
 36 39  1  0
 36 38  1  0
 37 35  2  0
 40 41  1  0
 40 15  1  0
 42 40  1  0
 43 44  1  0
 45 56  2  0
 46 44  1  0
 46 51  1  0
 47 55  1  0
 47 57  1  0
 48 54  1  0
 48 50  1  0
 49 55  1  0
 50 49  1  0
 51 50  2  0
 52 46  2  0
 53 52  1  0
 53 48  2  0
 54 47  1  0
 55 45  1  0
 57 59  2  0
 58 57  1  0
 60 58  1  0
 61 70  2  0
 61 66  1  0
 62 58  1  0
 62 66  1  0
 63 62  1  0
 64 65  1  0
 64 63  1  0
 65 61  1  0
 66 67  2  0
 67 68  1  0
 69 68  2  0
 70 69  1  0
 71 45  1  0
 71 76  1  0
 71 72  1  0
 72 75  1  1
 72 73  1  0
 74 72  1  0
 76 79  1  0
 77 81  1  0
 77 76  1  0
 78 77  2  0
 81 80  1  0
 83 81  1  0
 83 84  1  0
 83 82  1  0
M  ISO  4   5 100   7 100  43 101  44 101
M  END
>  <TORSDO>  (12) 
F 19

>  <SCORE>  (12) 
-15.451

>  <name>  (12) 
11

>  <ligand_id>  (12) 
11

>  <original_smiles>  (12) 
[H]C(C(=O)N1C([H])([H])C([H])([H])C([H])([H])C([H])(n2nc(-c3c([H])c([H])c(Oc4c([H])c([H])c(F)c([H])c4F)c([H])c3[H])c(C(=O)N([H])[H])c2N([H])[H])C1([H])[H])=C([H])C([H])([H])C1([H])C([H])([H])C1([H])C([H])([H])Oc1c([H])c([H])c2c(c1[H])C([H])([H])N(C(=O)C([H])(N([H])C(=O)C([H])(N([H])C([H])([H])[H])C([H])([H])[H])C(C([H])([H])[H])(C([H])([H])[H])C([H])([H])[H])C([H])(C(=O)N([H])C1([H])c3c([H])c([H])c([H])c([H])c3C([H])([H])C([H])([H])C1([H])[H])C2([H])[H]

>  <smiles>  (12) 
[H]C(C(=O)N1C([H])([H])C([H])([H])C([H])([H])C([H])(n2nc(-c3c([H])c([H])c(Oc4c([H])c([H])c(F)c([H])c4F)c([H])c3[H])c(C(=O)N([H])[H])c2N([H])[H])C1([H])[H])=C([H])C([H])([H])C1([H])C([H])([H])C1([H])C([H])([H])Oc1c([H])c([H])c2c(c1[H])C([H])([H])N(C(=O)C([H])(N([H])C(=O)C([H])(N([H])C([H])([H])[H])C([H])([H])[H])C(C([H])([H])[H])(C([H])([H])[H])C([H])([H])[H])C([H])(C(=O)N([H])C1([H])c3c([H])c([H])c([H])c([H])c3C([H])([H])C([H])([H])C1([H])[H])C2([H])[H]

$$$$
12:0:0
     RDKit          3D

 93 92  0  0  1  0  0  0  0  0999 V2000
  -18.5780  -29.2010   22.1150 C   0  0  0  0  0  1  0  0  0  0  0  0
  -18.9690  -26.6390   24.3280 C   0  0  0  0  0 15  0  0  0  0  0  0
  -19.7330  -28.8640   20.8200 C   0  0  0  0  0  2  0  0  0  0  0  0
  -20.4550  -25.4690   23.1750 C   0  0  0  0  0 15  0  0  0  0  0  0
  -20.7450  -27.3900   20.9500 C   0  0  0  0  0  2  0  0  0  0  0  0
  -23.2730  -26.5270   19.6420 C   0  0  0  0  0  0  0  0  0  0  0  0
  -22.2380  -27.4720   20.1210 N   0  0  0  0  0  0  0  0  0  0  0  0
  -23.0150  -26.0240   18.5460 O   0  0  0  0  0  0  0  0  0  0  0  0
  -22.7570  -28.1970   20.5890 H   0  0  0  0  0  0  0  0  0  0  0  0
  -24.7690  -25.9120   20.3660 C   0  0  0  0  0  2  0  0  0  0  0  0
  -26.3650  -26.2850   20.3950 O   0  0  0  0  0  0  0  0  0  0  0  0
  -24.6620  -31.9450   23.2460 C   0  0  0  0  0  0  0  0  0  0  0  0
  -26.8580  -27.4480   19.9270 C   0  0  0  0  0  3  0  0  0  0  0  0
  -23.4930  -30.6090   21.5900 C   0  0  0  0  0  3  0  0  0  0  0  0
  -24.9070  -29.3170   19.8990 C   0  0  0  0  0  3  0  0  0  0  0  0
  -26.0210  -30.8440   21.4810 C   0  0  0  0  0  2  0  0  0  0  0  0
  -26.0020  -29.5400   20.7270 C   0  0  0  0  0  0  0  0  0  0  0  0
  -27.0160  -28.5610   20.7900 C   0  0  0  0  0  3  0  0  0  0  0  0
  -26.1400  -27.5630   18.7720 C   0  0  0  0  0  3  0  0  0  0  0  0
  -25.0650  -28.4460   18.8180 C   0  0  0  0  0  3  0  0  0  0  0  0
  -23.6790  -30.1680   20.1120 C   0  0  0  0  0  2  0  0  0  0  0  0
  -24.7360  -31.1980   22.1200 N   0  0  0  0  0  0  0  0  0  0  0  0
  -23.5760  -32.2030   23.7840 O   0  0  0  0  0  0  0  0  0  0  0  0
  -23.1470  -29.4570   22.5440 C   0  0  0  0  0  0  0  0  0  0  0  0
  -21.9310  -29.0710   22.6320 N   0  0  0  0  0  0  0  0  0  0  0  0
  -23.9770  -28.8700   23.2220 O   0  0  0  0  0  0  0  0  0  0  0  0
  -21.1800  -29.5720   22.1710 H   0  0  0  0  0  0  0  0  0  0  0  0
  -18.6980  -27.0010   22.1920 C   0  0  0  0  0  3  0  0  0  0  0  0
  -21.6440  -27.7530   23.1790 C   0  0  0  0  0  3  0  0  0  0  0  0
  -22.3140  -26.2860   22.2590 C   0  0  0  0  0  1  0  0  0  0  0  0
  -20.8660  -25.1470   20.9700 C   0  0  0  0  0  1  0  0  0  0  0  0
  -19.0100  -25.7000   21.2010 C   0  0  0  0  0  2  0  0  0  0  0  0
  -20.1350  -28.0480   23.1670 C   0  0  0  0  0  3  0  0  0  0  0  0
  -19.5770  -29.0940   24.2730 C   0  0  0  0  0  3  0  0  0  0  0  0
  -18.0810  -29.3230   24.5360 C   0  0  0  0  0  3  0  0  0  0  0  0
  -16.9800  -28.5250   23.8630 C   0  0  0  0  0  3  0  0  0  0  0  0
  -17.2020  -27.4040   22.7910 C   0  0  0  0  0  3  0  0  0  0  0  0
  -25.9500  -32.5150   23.8840 C   0  0  0  0  0  3  0  0  0  0  0  0
  -25.6360  -33.8900   24.2740 N   0  0  0  0  0  0  0  0  0  0  0  0
  -25.9120  -34.9630   23.5230 C   0  0  0  0  0  0  0  0  0  0  0  0
  -26.5440  -34.8970   22.4650 O   0  0  0  0  0  0  0  0  0  0  0  0
  -25.0820  -34.0140   25.1090 H   0  0  0  0  0  0  0  0  0  0  0  0
  -24.1520  -36.7380   23.2570 C   0  0  0  0  0  1  0  0  0  0  0  0
  -25.4110  -36.3240   24.0350 C   0  0  0  0  0  3  0  0  0  0  0  0
  -27.5630  -37.1840   24.8420 C   0  0  0  0  0  1  0  0  0  0  0  0
  -26.4270  -37.3930   23.9490 N   0  0  0  0  0  0  0  0  0  0  0  0
  -26.0160  -38.2960   24.1680 H   0  0  0  0  0  0  0  0  0  0  0  0
  -26.4610  -31.6700   25.1130 C   0  0  1  0  0  0  0  0  0  0  0  0
  -25.3710  -31.3770   26.1690 C   0  0  0  0  0  1  0  0  0  0  0  0
  -27.0470  -30.3100   24.6660 C   0  0  0  0  0  1  0  0  0  0  0  0
  -27.6150  -32.4330   25.7980 C   0  0  0  0  0  1  0  0  0  0  0  0
  -23.4130  -22.3250   22.8780 C   0  0  0  0  0  2  0  0  0  0  0  0
  -22.0020  -23.5480   22.8250 N   0  0  0  0  0  1  0  0  0  0  0  0
  -24.9070  -23.8620   24.3140 C   0  0  0  0  0  1  0  0  0  0  0  0
  -24.0580  -22.5800   24.2440 C   0  0  0  0  0  2  0  0  0  0  0  0
  -25.1290  -20.4830   22.0400 C   0  0  0  0  0 15  0  0  0  0  0  0
  -26.6270  -18.2980   21.7840 C   0  0  0  0  0 15  0  0  0  0  0  0
  -28.3320  -16.6480   21.0490 C   0  0  0  0  0  2  0  0  0  0  0  0
  -29.8540  -14.1990   19.9180 C   0  0  0  0  0  2  0  0  0  0  0  0
  -29.4810  -13.1860   18.7030 C   0  0  0  0  0  2  0  0  0  0  0  0
  -28.2120  -12.3810   18.9720 C   0  0  0  0  0  2  0  0  0  0  0  0
  -27.3930  -13.3160   19.8560 C   0  0  0  0  0  3  0  0  0  0  0  0
  -28.0690  -13.8210   21.1420 C   0  0  0  0  0  2  0  0  0  0  0  0
  -28.6890  -15.0830   20.7270 N   0  0  0  0  0  0  0  0  0  0  0  0
  -29.6020  -16.8130   20.7560 O   0  0  0  0  0  1  0  0  0  0  0  0
  -25.1060  -13.7980   20.5390 C   0  0  0  0  0  0  0  0  0  0  0  0
  -24.0790  -13.0110   20.9300 C   0  0  0  0  0  0  0  0  0  0  0  0
  -24.5660  -11.6660   20.8750 C   0  0  0  0  0  0  0  0  0  0  0  0
  -26.1140  -12.9130   20.2480 N   0  0  0  0  0  0  0  0  0  0  0  0
  -25.8410  -11.6280   20.5270 N   0  0  0  0  0  0  0  0  0  0  0  0
  -23.8640  -10.4050   21.0480 C   0  0  0  0  0  0  0  0  0  0  0  0
  -24.3380   -9.4050   21.9230 C   0  0  0  0  0  3  0  0  0  0  0  0
  -23.6140   -8.2050   22.0750 C   0  0  0  0  0  3  0  0  0  0  0  0
  -22.4130   -8.0090   21.3530 C   0  0  0  0  0  0  0  0  0  0  0  0
  -21.9670   -9.0000   20.4620 C   0  0  0  0  0  3  0  0  0  0  0  0
  -22.6900  -10.1890   20.3050 C   0  0  0  0  0  3  0  0  0  0  0  0
  -21.6520   -6.8700   21.4240 O   0  0  0  0  0  0  0  0  0  0  0  0
  -21.6780   -6.0620   22.5310 C   0  0  0  0  0  0  0  0  0  0  0  0
  -21.3950   -6.5560   23.8240 C   0  0  0  0  0  3  0  0  0  0  0  0
  -21.3660   -5.6740   24.9210 C   0  0  0  0  0  3  0  0  0  0  0  0
  -21.6060   -4.3000   24.7270 C   0  0  0  0  0  0  0  0  0  0  0  0
  -21.8810   -3.8070   23.4400 C   0  0  0  0  0  3  0  0  0  0  0  0
  -21.9160   -4.6860   22.3440 C   0  0  0  0  0  0  0  0  0  0  0  0
  -22.1630   -4.2050   21.1020 F   0  0  0  0  0  0  0  0  0  0  0  0
  -21.5640   -3.4510   25.7790 F   0  0  0  0  0  0  0  0  0  0  0  0
  -22.6980  -13.4970   21.2130 C   0  0  0  0  0  0  0  0  0  0  0  0
  -21.9710  -12.8010   22.0770 N   0  0  0  0  0  0  0  0  0  0  0  0
  -22.2800  -14.5370   20.7040 O   0  0  0  0  0  0  0  0  0  0  0  0
  -22.3310  -11.9670   22.5170 H   0  0  0  0  0  0  0  0  0  0  0  0
  -21.0340  -13.1050   22.3060 H   0  0  0  0  0  0  0  0  0  0  0  0
  -25.2680  -15.1760   20.3850 N   0  0  0  0  0  0  0  0  0  0  0  0
  -24.4600  -15.7890   20.4320 H   0  0  0  0  0  0  0  0  0  0  0  0
  -26.0270  -15.5690   19.8470 H   0  0  0  0  0  0  0  0  0  0  0  0
  3  5  1  0
  3  1  1  0
  6  7  1  0
  6 10  1  0
  7  9  1  0
  7  5  1  0
  8  6  2  0
 10 11  1  0
 12 23  2  0
 13 11  1  0
 13 18  1  0
 14 22  1  0
 14 24  1  0
 15 20  1  0
 15 21  1  0
 15 17  1  0
 16 22  1  0
 17 18  2  0
 17 16  1  0
 19 20  2  0
 19 13  1  0
 21 14  1  0
 22 12  1  0
 24 25  1  0
 24 26  2  0
 25 29  1  0
 27 25  1  0
 28 37  2  0
 29 30  1  0
 31 32  1  0
 32 28  1  0
 33 29  1  0
 33 34  2  0
 34 35  1  0
 36 35  2  0
 37 36  1  0
 38 12  1  0
 38 39  1  0
 38 48  1  0
 39 42  1  0
 40 44  1  0
 40 39  1  0
 41 40  2  0
 44 43  1  0
 46 44  1  0
 46 47  1  0
 46 45  1  0
 48 51  1  1
 48 49  1  0
 50 48  1  0
 52 55  1  0
 53 52  1  0
 55 54  1  0
 59 64  1  0
 60 61  1  0
 60 59  1  0
 62 61  1  0
 62 69  1  0
 62 63  1  0
 64 58  1  0
 64 63  1  0
 65 58  1  0
 66 67  2  0
 67 86  1  0
 68 67  1  0
 68 71  1  0
 69 70  1  0
 69 66  1  0
 70 68  2  0
 71 72  1  0
 72 73  2  0
 74 77  1  0
 74 73  1  0
 75 74  2  0
 76 75  1  0
 76 71  2  0
 77 78  1  0
 78 79  1  0
 79 80  2  0
 81 80  1  0
 81 85  1  0
 82 81  2  0
 83 78  2  0
 83 82  1  0
 84 83  1  0
 86 87  1  0
 87 90  1  0
 87 89  1  0
 88 86  2  0
 91 92  1  0
 91 66  1  0
 93 91  1  0
M  ISO  4  10 101  11 101  57 100  58 100
M  END
>  <TORSDO>  (13) 
F 22

>  <SCORE>  (13) 
21.139

>  <name>  (13) 
12

>  <ligand_id>  (13) 
12

>  <original_smiles>  (13) 
[H]c1c([H])c([H])c2c(c1[H])C([H])([H])C([H])([H])C([H])([H])C2([H])N([H])C(=O)C1([H])N(C(=O)C([H])(N([H])C(=O)C([H])(N([H])C([H])([H])[H])C([H])([H])[H])C(C([H])([H])[H])(C([H])([H])[H])C([H])([H])[H])C([H])([H])c2c([H])c(OC([H])([H])C(=O)N([H])C3([H])C([H])([H])C([H])([H])C([H])([H])C3([H])N=C(C([H])([H])C([H])([H])[H])C([H])([H])C([H])([H])C(=O)N3C([H])([H])C([H])([H])C([H])([H])C([H])(n4nc(-c5c([H])c([H])c(Oc6c([H])c([H])c(F)c([H])c6F)c([H])c5[H])c(C(=O)N([H])[H])c4N([H])[H])C3([H])[H])c([H])c([H])c2C1([H])[H]

>  <smiles>  (13) 
[H]c1c([H])c([H])c2c(c1[H])C([H])([H])C([H])([H])C([H])([H])C2([H])N([H])C(=O)C1([H])N(C(=O)C([H])(N([H])C(=O)C([H])(N([H])C([H])([H])[H])C([H])([H])[H])C(C([H])([H])[H])(C([H])([H])[H])C([H])([H])[H])C([H])([H])c2c([H])c(OC([H])([H])C(=O)N([H])C3([H])C([H])([H])C([H])([H])C([H])([H])C3([H])N=C(C([H])([H])C([H])([H])[H])C([H])([H])C([H])([H])C(=O)N3C([H])([H])C([H])([H])C([H])([H])C([H])(n4nc(-c5c([H])c([H])c(Oc6c([H])c([H])c(F)c([H])c6F)c([H])c5[H])c(C(=O)N([H])[H])c4N([H])[H])C3([H])[H])c([H])c([H])c2C1([H])[H]

$$$$
13:0:0
     RDKit          3D

101109  0  0  1  0  0  0  0  0999 V2000
  -34.8430  -20.9500   17.2750 C   0  0  0  0  0  2  0  0  0  0  0  0
  -34.6970  -19.4730   16.8740 C   0  0  0  0  0  2  0  0  0  0  0  0
  -33.4950  -21.5590   17.6960 C   0  0  0  0  0  2  0  0  0  0  0  0
  -33.9930  -18.6470   17.9660 C   0  0  0  0  0  2  0  0  0  0  0  0
  -32.8550  -20.7470   18.8410 C   0  0  0  0  0  3  0  0  0  0  0  0
  -32.6460  -19.2750   18.3790 C   0  0  0  0  0  3  0  0  0  0  0  0
  -30.8340  -17.8470   19.3560 C   0  0  0  0  0  0  0  0  0  0  0  0
  -32.0230  -18.4570   19.4150 N   0  0  0  0  0  0  0  0  0  0  0  0
  -30.1670  -17.7690   18.3230 O   0  0  0  0  0  0  0  0  0  0  0  0
  -32.4410  -18.4380   20.3390 H   0  0  0  0  0  0  0  0  0  0  0  0
  -30.2780  -17.3050   20.6870 C   0  0  0  0  0  3  0  0  0  0  0  0
  -30.8340  -18.6470   22.5940 C   0  0  0  0  0  0  0  0  0  0  0  0
  -29.5730  -19.4970   22.5050 C   0  0  0  0  0  1  0  0  0  0  0  0
  -31.7750  -19.0610   23.7040 C   0  0  0  0  0  1  0  0  0  0  0  0
  -31.1290  -17.6700   21.8240 N   0  0  0  0  0  0  0  0  0  0  0  0
  -29.8720  -15.8020   20.7110 C   0  0  0  0  0  2  0  0  0  0  0  0
  -30.5380  -14.7730   19.7610 C   0  0  0  0  0  0  0  0  0  0  0  0
  -30.2130  -12.6720   18.4820 C   0  0  0  0  0  2  0  0  0  0  0  0
  -29.1600  -12.9120   17.3800 C   0  0  0  0  0  2  0  0  0  0  0  0
  -27.7290  -12.7240   17.9270 C   0  0  0  0  0  2  0  0  0  0  0  0
  -27.4890  -13.5020   19.2460 C   0  0  0  0  0  3  0  0  0  0  0  0
  -28.6340  -13.2110   20.2420 C   0  0  0  0  0  2  0  0  0  0  0  0
  -29.9020  -13.5830   19.5910 N   0  0  0  0  0  0  0  0  0  0  0  0
  -31.5760  -15.0520   19.1530 O   0  0  0  0  0  0  0  0  0  0  0  0
  -25.1290  -14.0520   20.1250 C   0  0  0  0  0  0  0  0  0  0  0  0
  -24.1130  -13.2510   20.5760 C   0  0  0  0  0  0  0  0  0  0  0  0
  -24.6100  -11.9150   20.5130 C   0  0  0  0  0  0  0  0  0  0  0  0
  -26.1800  -13.2000   19.8210 N   0  0  0  0  0  0  0  0  0  0  0  0
  -25.8730  -11.9090   20.1070 N   0  0  0  0  0  0  0  0  0  0  0  0
  -23.9380  -10.6320   20.7610 C   0  0  0  0  0  0  0  0  0  0  0  0
  -24.4030   -9.7330   21.7450 C   0  0  0  0  0  3  0  0  0  0  0  0
  -23.7300   -8.5130   21.9740 C   0  0  0  0  0  3  0  0  0  0  0  0
  -22.5760   -8.1870   21.2220 C   0  0  0  0  0  0  0  0  0  0  0  0
  -22.1320   -9.0760   20.2260 C   0  0  0  0  0  3  0  0  0  0  0  0
  -22.8080  -10.2870   19.9950 C   0  0  0  0  0  3  0  0  0  0  0  0
  -21.8710   -7.0160   21.3600 O   0  0  0  0  0  0  0  0  0  0  0  0
  -21.7740   -6.3730   22.5670 C   0  0  0  0  0  0  0  0  0  0  0  0
  -21.1630   -6.9780   23.6880 C   0  0  0  0  0  3  0  0  0  0  0  0
  -21.0220   -6.2550   24.8900 C   0  0  0  0  0  3  0  0  0  0  0  0
  -21.4840   -4.9270   24.9720 C   0  0  0  0  0  0  0  0  0  0  0  0
  -22.0910   -4.3230   23.8560 C   0  0  0  0  0  3  0  0  0  0  0  0
  -22.2330   -5.0430   22.6570 C   0  0  0  0  0  0  0  0  0  0  0  0
  -22.7980   -4.4470   21.5790 F   0  0  0  0  0  0  0  0  0  0  0  0
  -21.3420   -4.2300   26.1220 F   0  0  0  0  0  0  0  0  0  0  0  0
  -22.7260  -13.6900   20.9530 C   0  0  0  0  0  0  0  0  0  0  0  0
  -22.0820  -12.9670   21.8650 N   0  0  0  0  0  0  0  0  0  0  0  0
  -22.2230  -14.7050   20.4770 O   0  0  0  0  0  0  0  0  0  0  0  0
  -22.5000  -12.1430   22.2720 H   0  0  0  0  0  0  0  0  0  0  0  0
  -21.1570  -13.2430   22.1610 H   0  0  0  0  0  0  0  0  0  0  0  0
  -25.2390  -15.4260   19.9300 N   0  0  0  0  0  0  0  0  0  0  0  0
  -24.4680  -16.0640   20.0920 H   0  0  0  0  0  0  0  0  0  0  0  0
  -26.0510  -15.8830   19.5320 H   0  0  0  0  0  0  0  0  0  0  0  0
  -31.5980  -21.4270   19.4280 C   0  0  0  0  0  0  0  0  0  0  0  0
  -30.8190  -22.1410   18.6030 N   0  0  0  0  0  0  0  0  0  0  0  0
  -31.3460  -21.3160   20.6300 O   0  0  0  0  0  0  0  0  0  0  0  0
  -31.0970  -22.1890   17.6300 H   0  0  0  0  0  0  0  0  0  0  0  0
  -29.5910  -22.8310   18.9830 C   0  0  0  0  0  2  0  0  0  0  0  0
  -29.8830  -24.1290   19.7560 C   0  0  0  0  0  2  0  0  0  0  0  0
  -28.6350  -24.7270   20.4210 C   0  0  0  0  0  2  0  0  0  0  0  0
  -28.8580  -26.1710   20.8950 C   0  0  0  0  0  2  0  0  0  0  0  0
  -28.6660  -27.0760   19.8090 O   0  0  0  0  0  0  0  0  0  0  0  0
  -24.6860  -31.8020   23.3080 C   0  0  0  0  0  0  0  0  0  0  0  0
  -27.4760  -27.7510   19.8770 C   0  0  0  0  0  0  0  0  0  0  0  0
  -23.5190  -30.4890   21.5650 C   0  0  0  0  0  3  0  0  0  0  0  0
  -25.0200  -29.1230   20.0200 C   0  0  0  0  0  0  0  0  0  0  0  0
  -26.0230  -30.9680   21.3820 C   0  0  0  0  0  2  0  0  0  0  0  0
  -26.1570  -29.6550   20.6420 C   0  0  0  0  0  0  0  0  0  0  0  0
  -27.3880  -28.9720   20.5770 C   0  0  0  0  0  3  0  0  0  0  0  0
  -26.3290  -27.2200   19.2540 C   0  0  0  0  0  3  0  0  0  0  0  0
  -25.0970  -27.9000   19.3280 C   0  0  0  0  0  3  0  0  0  0  0  0
  -23.7430  -29.9230   20.1360 C   0  0  0  0  0  2  0  0  0  0  0  0
  -24.7600  -31.0960   22.1450 N   0  0  0  0  0  0  0  0  0  0  0  0
  -23.6010  -31.9900   23.8720 O   0  0  0  0  0  0  0  0  0  0  0  0
  -22.9130  -29.3730   22.4450 C   0  0  0  0  0  0  0  0  0  0  0  0
  -21.6090  -29.1110   22.2620 N   0  0  0  0  0  0  0  0  0  0  0  0
  -23.6130  -28.7480   23.2460 O   0  0  0  0  0  0  0  0  0  0  0  0
  -21.1040  -29.6730   21.5910 H   0  0  0  0  0  0  0  0  0  0  0  0
  -18.3180  -27.6480   22.5440 C   0  0  0  0  0  0  0  0  0  0  0  0
  -20.8350  -28.0780   22.9480 C   0  0  0  0  0  3  0  0  0  0  0  0
  -21.0710  -26.6890   22.3120 C   0  0  0  0  0  2  0  0  0  0  0  0
  -20.0420  -26.3360   21.2340 C   0  0  0  0  0  2  0  0  0  0  0  0
  -18.6260  -26.3490   21.8160 C   0  0  0  0  0  2  0  0  0  0  0  0
  -19.3570  -28.4670   23.0610 C   0  0  0  0  0  0  0  0  0  0  0  0
  -19.0200  -29.6820   23.6940 C   0  0  0  0  0  3  0  0  0  0  0  0
  -17.6760  -30.0800   23.8200 C   0  0  0  0  0  3  0  0  0  0  0  0
  -16.6500  -29.2560   23.3230 C   0  0  0  0  0  3  0  0  0  0  0  0
  -16.9720  -28.0430   22.6880 C   0  0  0  0  0  3  0  0  0  0  0  0
  -25.9550  -32.4260   23.9700 C   0  0  0  0  0  3  0  0  0  0  0  0
  -26.3890  -31.6940   25.2980 C   0  0  1  0  0  0  0  0  0  0  0  0
  -25.2380  -31.5170   26.3160 C   0  0  0  0  0  1  0  0  0  0  0  0
  -26.9610  -30.2910   24.9870 C   0  0  0  0  0  1  0  0  0  0  0  0
  -27.5190  -32.4920   25.9920 C   0  0  0  0  0  1  0  0  0  0  0  0
  -25.6690  -33.8450   24.2250 N   0  0  0  0  0  0  0  0  0  0  0  0
  -26.0850  -34.8530   23.4480 C   0  0  0  0  0  0  0  0  0  0  0  0
  -26.8240  -34.6910   22.4750 O   0  0  0  0  0  0  0  0  0  0  0  0
  -25.0210  -34.0460   24.9710 H   0  0  0  0  0  0  0  0  0  0  0  0
  -24.4670  -36.6920   22.8780 C   0  0  0  0  0  1  0  0  0  0  0  0
  -25.6090  -36.2720   23.8150 C   0  0  0  0  0  3  0  0  0  0  0  0
  -27.6790  -37.1190   24.8280 C   0  0  0  0  0  1  0  0  0  0  0  0
  -26.6850  -37.2850   23.7710 N   0  0  0  0  0  0  0  0  0  0  0  0
  -26.3000  -38.2230   23.8420 H   0  0  0  0  0  0  0  0  0  0  0  0
  1  3  1  0
  2  1  1  0
  2  4  1  0
  3  5  1  0
  4  6  1  0
  5 53  1  0
  6  5  1  0
  6  8  1  0
  7  8  1  0
  7 11  1  0
  8 10  1  0
  9  7  2  0
 11 16  1  0
 11 15  1  0
 12 14  1  0
 13 12  1  0
 15 12  2  0
 17 16  1  0
 18 23  1  0
 19 20  1  0
 19 18  1  0
 21 20  1  0
 21 28  1  0
 21 22  1  0
 23 17  1  0
 23 22  1  0
 24 17  2  0
 25 26  2  0
 26 45  1  0
 27 26  1  0
 27 30  1  0
 28 29  1  0
 28 25  1  0
 29 27  2  0
 30 31  1  0
 31 32  2  0
 33 36  1  0
 33 32  1  0
 34 33  2  0
 35 34  1  0
 35 30  2  0
 36 37  1  0
 37 42  2  0
 37 38  1  0
 38 39  2  0
 39 40  1  0
 40 44  1  0
 41 40  2  0
 42 41  1  0
 43 42  1  0
 45 46  1  0
 46 49  1  0
 46 48  1  0
 47 45  2  0
 50 51  1  0
 50 25  1  0
 52 50  1  0
 53 55  2  0
 54 57  1  0
 54 53  1  0
 56 54  1  0
 57 58  1  0
 58 59  1  0
 59 60  1  0
 61 63  1  0
 61 60  1  0
 62 73  2  0
 63 68  1  0
 64 72  1  0
 64 74  1  0
 65 71  1  0
 65 67  1  0
 66 72  1  0
 67 66  1  0
 68 67  2  0
 69 70  1  0
 69 63  2  0
 70 65  2  0
 71 64  1  0
 72 62  1  0
 74 76  2  0
 75 74  1  0
 77 75  1  0
 78 87  2  0
 78 83  1  0
 79 75  1  0
 79 83  1  0
 80 79  1  0
 81 82  1  0
 81 80  1  0
 82 78  1  0
 83 84  2  0
 84 85  1  0
 86 85  2  0
 87 86  1  0
 88 62  1  0
 88 93  1  0
 88 89  1  0
 89 92  1  1
 89 90  1  0
 91 89  1  0
 93 96  1  0
 94 98  1  0
 94 93  1  0
 95 94  2  0
 98 97  1  0
100 98  1  0
100101  1  0
100 99  1  0
M  ISO  4  16 100  17 100  60 101  61 101
M  END
>  <TORSDO>  (14) 
F 25

>  <SCORE>  (14) 
-8.890

>  <name>  (14) 
13

>  <ligand_id>  (14) 
13

>  <original_smiles>  (14) 
[H]c1c([H])c([H])c2c(c1[H])C([H])([H])C([H])([H])C([H])([H])C2([H])N([H])C(=O)C1([H])N(C(=O)C([H])(N([H])C(=O)C([H])(N([H])C([H])([H])[H])C([H])([H])[H])C(C([H])([H])[H])(C([H])([H])[H])C([H])([H])[H])C([H])([H])c2c([H])c(OC([H])([H])C([H])([H])C([H])([H])C([H])([H])N([H])C(=O)C3([H])C([H])([H])C([H])([H])C([H])([H])C([H])([H])C3([H])N([H])C(=O)C([H])(N=C(C([H])([H])[H])C([H])([H])[H])C([H])([H])C(=O)N3C([H])([H])C([H])([H])C([H])([H])C([H])(n4nc(-c5c([H])c([H])c(Oc6c([H])c([H])c(F)c([H])c6F)c([H])c5[H])c(C(=O)N([H])[H])c4N([H])[H])C3([H])[H])c([H])c([H])c2C1([H])[H]

>  <smiles>  (14) 
[H]c1c([H])c([H])c2c(c1[H])C([H])([H])C([H])([H])C([H])([H])C2([H])N([H])C(=O)C1([H])N(C(=O)C([H])(N([H])C(=O)C([H])(N([H])C([H])([H])[H])C([H])([H])[H])C(C([H])([H])[H])(C([H])([H])[H])C([H])([H])[H])C([H])([H])c2c([H])c(OC([H])([H])C([H])([H])C([H])([H])C([H])([H])N([H])C(=O)C3([H])C([H])([H])C([H])([H])C([H])([H])C([H])([H])C3([H])N([H])C(=O)C([H])(N=C(C([H])([H])[H])C([H])([H])[H])C([H])([H])C(=O)N3C([H])([H])C([H])([H])C([H])([H])C([H])(n4nc(-c5c([H])c([H])c(Oc6c([H])c([H])c(F)c([H])c6F)c([H])c5[H])c(C(=O)N([H])[H])c4N([H])[H])C3([H])[H])c([H])c([H])c2C1([H])[H]

$$$$
14:0:0
     RDKit          3D

 92100  0  0  1  0  0  0  0  0999 V2000
  -28.4870  -19.3170   19.5660 C   0  0  0  0  0  3  0  0  0  0  0  0
  -27.8340  -20.4170   19.1180 C   0  0  0  0  0  3  0  0  0  0  0  0
  -29.6980  -20.0020   21.8260 C   0  0  0  0  0  2  0  0  0  0  0  0
  -31.2020  -19.6970   21.9660 C   0  0  0  0  0  2  0  0  0  0  0  0
  -29.1180  -18.8920   20.9020 C   0  0  0  0  0  3  0  0  0  0  0  0
  -31.5110  -18.8020   20.7590 C   0  0  0  0  0  3  0  0  0  0  0  0
  -31.7630  -19.6390   19.4770 C   0  0  0  0  0  1  0  0  0  0  0  0
  -30.2890  -17.9880   20.7120 N   0  0  2  0  0  4  0  0  0  0  0  0
  -30.3030  -17.5690   21.6280 H   0  0  0  0  0  0  0  0  0  0  0  0
  -30.2940  -16.7640   19.8570 C   0  0  0  0  0  2  0  0  0  0  0  0
  -30.6880  -15.5370   20.7310 C   0  0  0  0  0  2  0  0  0  0  0  0
  -31.2570  -14.3120   19.9780 C   0  0  0  0  0  0  0  0  0  0  0  0
  -30.9280  -12.0560   19.0190 C   0  0  0  0  0  2  0  0  0  0  0  0
  -29.9580  -12.1590   17.8220 C   0  0  0  0  0  2  0  0  0  0  0  0
  -28.4860  -12.1150   18.2880 C   0  0  0  0  0  2  0  0  0  0  0  0
  -28.2010  -13.0800   19.4730 C   0  0  0  0  0  3  0  0  0  0  0  0
  -29.2660  -12.8730   20.5670 C   0  0  0  0  0  2  0  0  0  0  0  0
  -30.5790  -13.1340   19.9620 N   0  0  0  0  0  0  0  0  0  0  0  0
  -32.3280  -14.4420   19.3770 O   0  0  0  0  0  0  0  0  0  0  0  0
  -25.8880  -13.8860   20.2730 C   0  0  0  0  0  0  0  0  0  0  0  0
  -24.7770  -13.2050   20.6780 C   0  0  0  0  0  0  0  0  0  0  0  0
  -25.1160  -11.8180   20.6090 C   0  0  0  0  0  0  0  0  0  0  0  0
  -26.8490  -12.9220   19.9990 N   0  0  0  0  0  0  0  0  0  0  0  0
  -26.3840  -11.6720   20.2460 N   0  0  0  0  0  0  0  0  0  0  0  0
  -24.2920  -10.6190   20.8070 C   0  0  0  0  0  0  0  0  0  0  0  0
  -24.6080   -9.6610   21.7940 C   0  0  0  0  0  3  0  0  0  0  0  0
  -23.7900   -8.5240   21.9790 C   0  0  0  0  0  3  0  0  0  0  0  0
  -22.6410   -8.3390   21.1720 C   0  0  0  0  0  0  0  0  0  0  0  0
  -22.3460   -9.2820   20.1730 C   0  0  0  0  0  3  0  0  0  0  0  0
  -23.1650  -10.4090   19.9870 C   0  0  0  0  0  3  0  0  0  0  0  0
  -21.8050   -7.2520   21.2650 O   0  0  0  0  0  0  0  0  0  0  0  0
  -21.5660   -6.6300   22.4630 C   0  0  0  0  0  0  0  0  0  0  0  0
  -21.0230   -7.3200   23.5700 C   0  0  0  0  0  3  0  0  0  0  0  0
  -20.7270   -6.6260   24.7580 C   0  0  0  0  0  3  0  0  0  0  0  0
  -20.9590   -5.2380   24.8420 C   0  0  0  0  0  0  0  0  0  0  0  0
  -21.4910   -4.5470   23.7380 C   0  0  0  0  0  3  0  0  0  0  0  0
  -21.7900   -5.2400   22.5540 C   0  0  0  0  0  0  0  0  0  0  0  0
  -22.2830   -4.5650   21.4860 F   0  0  0  0  0  0  0  0  0  0  0  0
  -20.6670   -4.5690   25.9800 F   0  0  0  0  0  0  0  0  0  0  0  0
  -23.4310  -13.7900   21.0120 C   0  0  0  0  0  0  0  0  0  0  0  0
  -22.7000  -13.1720   21.9310 N   0  0  0  0  0  0  0  0  0  0  0  0
  -23.0480  -14.8360   20.4880 O   0  0  0  0  0  0  0  0  0  0  0  0
  -23.0140  -12.3230   22.3790 H   0  0  0  0  0  0  0  0  0  0  0  0
  -21.7940  -13.5450   22.1840 H   0  0  0  0  0  0  0  0  0  0  0  0
  -26.1610  -15.2430   20.0870 N   0  0  0  0  0  0  0  0  0  0  0  0
  -25.4180  -15.9330   20.1350 H   0  0  0  0  0  0  0  0  0  0  0  0
  -26.9590  -15.5630   19.5570 H   0  0  0  0  0  0  0  0  0  0  0  0
  -27.4050  -21.7430   19.7640 C   0  0  0  0  0  2  0  0  0  0  0  0
  -28.4880  -22.8620   19.6540 C   0  0  0  0  0  2  0  0  0  0  0  0
  -27.9780  -24.2710   19.2160 C   0  0  0  0  0  2  0  0  0  0  0  0
  -28.8920  -25.4890   19.5500 C   0  0  0  0  0  2  0  0  0  0  0  0
  -28.6820  -26.6540   18.7300 O   0  0  0  0  0  0  0  0  0  0  0  0
  -25.1000  -31.1780   22.9410 C   0  0  0  0  0  0  0  0  0  0  0  0
  -27.5230  -27.3620   18.9550 C   0  0  0  0  0  0  0  0  0  0  0  0
  -23.7970  -30.0820   21.1520 C   0  0  0  0  0  3  0  0  0  0  0  0
  -25.1470  -28.8280   19.3970 C   0  0  0  0  0  0  0  0  0  0  0  0
  -26.3130  -30.4620   20.8840 C   0  0  0  0  0  2  0  0  0  0  0  0
  -26.3410  -29.2280   20.0090 C   0  0  0  0  0  0  0  0  0  0  0  0
  -27.5310  -28.4930   19.7960 C   0  0  0  0  0  3  0  0  0  0  0  0
  -26.3210  -27.0110   18.2980 C   0  0  0  0  0  3  0  0  0  0  0  0
  -25.1300  -27.7170   18.5370 C   0  0  0  0  0  3  0  0  0  0  0  0
  -23.9180  -29.6650   19.6630 C   0  0  0  0  0  2  0  0  0  0  0  0
  -25.0920  -30.5820   21.7160 N   0  0  0  0  0  0  0  0  0  0  0  0
  -24.0530  -31.3480   23.5820 O   0  0  0  0  0  0  0  0  0  0  0  0
  -23.2020  -28.9050   21.9520 C   0  0  0  0  0  0  0  0  0  0  0  0
  -21.8740  -28.7250   21.8530 N   0  0  0  0  0  0  0  0  0  0  0  0
  -23.9260  -28.1640   22.6250 O   0  0  0  0  0  0  0  0  0  0  0  0
  -21.3510  -29.3750   21.2810 H   0  0  0  0  0  0  0  0  0  0  0  0
  -18.5490  -27.3670   22.2080 C   0  0  0  0  0  0  0  0  0  0  0  0
  -21.1010  -27.6570   22.4810 C   0  0  0  0  0  3  0  0  0  0  0  0
  -21.2350  -26.3390   21.6840 C   0  0  0  0  0  2  0  0  0  0  0  0
  -20.1220  -26.1370   20.6530 C   0  0  0  0  0  2  0  0  0  0  0  0
  -18.7530  -26.1380   21.3350 C   0  0  0  0  0  2  0  0  0  0  0  0
  -19.6530  -28.0880   22.7340 C   0  0  0  0  0  0  0  0  0  0  0  0
  -19.4100  -29.2450   23.5080 C   0  0  0  0  0  3  0  0  0  0  0  0
  -18.0940  -29.6740   23.7690 C   0  0  0  0  0  3  0  0  0  0  0  0
  -17.0060  -28.9420   23.2590 C   0  0  0  0  0  3  0  0  0  0  0  0
  -17.2350  -27.7940   22.4830 C   0  0  0  0  0  3  0  0  0  0  0  0
  -26.4260  -31.6930   23.5860 C   0  0  0  0  0  3  0  0  0  0  0  0
  -26.1360  -32.9840   24.2200 N   0  0  0  0  0  0  0  0  0  0  0  0
  -26.4490  -34.1790   23.6980 C   0  0  0  0  0  0  0  0  0  0  0  0
  -27.0860  -34.3010   22.6470 O   0  0  0  0  0  0  0  0  0  0  0  0
  -25.5700  -32.9640   25.0560 H   0  0  0  0  0  0  0  0  0  0  0  0
  -24.7210  -36.0060   23.7790 C   0  0  0  0  0  1  0  0  0  0  0  0
  -25.9780  -35.4340   24.4550 C   0  0  0  0  0  3  0  0  0  0  0  0
  -28.1370  -36.1130   25.4080 C   0  0  0  0  0  1  0  0  0  0  0  0
  -27.0130  -36.4840   24.5530 N   0  0  0  0  0  0  0  0  0  0  0  0
  -26.6180  -37.3510   24.9060 H   0  0  0  0  0  0  0  0  0  0  0  0
  -27.0450  -30.6850   24.6320 C   0  0  1  0  0  0  0  0  0  0  0  0
  -26.0450  -30.2040   25.7090 C   0  0  0  0  0  1  0  0  0  0  0  0
  -27.5980  -29.4290   23.9190 C   0  0  0  0  0  1  0  0  0  0  0  0
  -28.2380  -31.3500   25.3570 C   0  0  0  0  0  1  0  0  0  0  0  0
  2  1  2  0
  2 48  1  0
  3  4  1  0
  5  1  1  0
  5  3  1  0
  6  7  1  0
  6  4  1  0
  8  6  1  0
  8  5  1  0
  8  9  1  1
 10  8  1  0
 10 11  1  0
 12 11  1  0
 13 18  1  0
 14 15  1  0
 14 13  1  0
 16 15  1  0
 16 23  1  0
 16 17  1  0
 18 12  1  0
 18 17  1  0
 19 12  2  0
 20 21  2  0
 21 40  1  0
 22 21  1  0
 22 25  1  0
 23 24  1  0
 23 20  1  0
 24 22  2  0
 25 26  1  0
 26 27  2  0
 28 31  1  0
 28 27  1  0
 29 28  2  0
 30 29  1  0
 30 25  2  0
 31 32  1  0
 32 37  2  0
 32 33  1  0
 33 34  2  0
 34 35  1  0
 35 39  1  0
 36 35  2  0
 37 36  1  0
 38 37  1  0
 40 41  1  0
 41 44  1  0
 41 43  1  0
 42 40  2  0
 45 46  1  0
 45 20  1  0
 47 45  1  0
 49 48  1  0
 50 51  1  0
 50 49  1  0
 52 54  1  0
 52 51  1  0
 53 64  2  0
 54 59  1  0
 55 63  1  0
 55 65  1  0
 56 62  1  0
 56 58  1  0
 57 63  1  0
 58 57  1  0
 59 58  2  0
 60 61  1  0
 60 54  2  0
 61 56  2  0
 62 55  1  0
 63 53  1  0
 65 67  2  0
 66 65  1  0
 68 66  1  0
 69 78  2  0
 69 74  1  0
 70 66  1  0
 70 74  1  0
 71 70  1  0
 72 73  1  0
 72 71  1  0
 73 69  1  0
 74 75  2  0
 75 76  1  0
 77 76  2  0
 78 77  1  0
 79 53  1  0
 79 80  1  0
 79 89  1  0
 80 83  1  0
 81 80  1  0
 81 85  1  0
 82 81  2  0
 85 84  1  0
 85 87  1  0
 87 88  1  0
 87 86  1  0
 89 92  1  1
 89 90  1  0
 91 89  1  0
M  ISO  4  11 100  12 100  51 101  52 101
M  END
>  <TORSDO>  (15) 
F 23

>  <SCORE>  (15) 
-9.708

>  <name>  (15) 
14

>  <ligand_id>  (15) 
14

>  <original_smiles>  (15) 
[H]C(=C([H])C1([H])C([H])([H])C([H])([H])C([H])(C([H])([H])[H])[N+]1([H])C([H])([H])C([H])([H])C(=O)N1C([H])([H])C([H])([H])C([H])([H])C([H])(n2nc(-c3c([H])c([H])c(Oc4c([H])c([H])c(F)c([H])c4F)c([H])c3[H])c(C(=O)N([H])[H])c2N([H])[H])C1([H])[H])C([H])([H])C([H])([H])C([H])([H])C([H])([H])Oc1c([H])c([H])c2c(c1[H])C([H])([H])N(C(=O)C([H])(N([H])C(=O)C([H])(N([H])C([H])([H])[H])C([H])([H])[H])C(C([H])([H])[H])(C([H])([H])[H])C([H])([H])[H])C([H])(C(=O)N([H])C1([H])c3c([H])c([H])c([H])c([H])c3C([H])([H])C([H])([H])C1([H])[H])C2([H])[H]

>  <smiles>  (15) 
[H]C(=C([H])C1([H])C([H])([H])C([H])([H])C([H])(C([H])([H])[H])[N+]1([H])C([H])([H])C([H])([H])C(=O)N1C([H])([H])C([H])([H])C([H])([H])C([H])(n2nc(-c3c([H])c([H])c(Oc4c([H])c([H])c(F)c([H])c4F)c([H])c3[H])c(C(=O)N([H])[H])c2N([H])[H])C1([H])[H])C([H])([H])C([H])([H])C([H])([H])C([H])([H])Oc1c([H])c([H])c2c(c1[H])C([H])([H])N(C(=O)C([H])(N([H])C(=O)C([H])(N([H])C([H])([H])[H])C([H])([H])[H])C(C([H])([H])[H])(C([H])([H])[H])C([H])([H])[H])C([H])(C(=O)N([H])C1([H])c3c([H])c([H])c([H])c([H])c3C([H])([H])C([H])([H])C1([H])[H])C2([H])[H]

$$$$
15:0:0
     RDKit          3D

 85 92  0  0  1  0  0  0  0  0999 V2000
  -29.9290  -22.9250   18.9720 C   0  0  0  0  0  1  0  0  0  0  0  0
  -29.0330  -22.7000   20.1980 C   0  0  0  0  0  3  0  0  0  0  0  0
  -28.7560  -20.9550   20.3300 C   0  0  0  0  0  3  0  0  0  0  0  0
  -29.5340  -19.6820   20.2670 C   0  0  0  0  0  0  0  0  0  0  0  0
  -31.0210  -19.8360   20.0310 C   0  0  0  0  0  1  0  0  0  0  0  0
  -29.0630  -18.1160   20.4410 C   0  0  0  0  0  3  0  0  0  0  0  0
  -29.3260  -16.6380   20.4330 C   0  0  0  0  0  3  0  0  0  0  0  0
  -30.3100  -15.3490   20.2200 C   0  0  0  0  0  0  0  0  0  0  0  0
  -30.3690  -12.8870   19.3390 C   0  0  0  0  0  2  0  0  0  0  0  0
  -29.4290  -12.6790   18.1180 C   0  0  0  0  0  2  0  0  0  0  0  0
  -27.9860  -12.3850   18.5680 C   0  0  0  0  0  2  0  0  0  0  0  0
  -27.5410  -13.3280   19.7120 C   0  0  0  0  0  3  0  0  0  0  0  0
  -28.6020  -13.4530   20.8240 C   0  0  0  0  0  2  0  0  0  0  0  0
  -29.8220  -14.0020   20.2010 N   0  0  0  0  0  0  0  0  0  0  0  0
  -31.5190  -15.3970   19.9440 O   0  0  0  0  0  0  0  0  0  0  0  0
  -25.1740  -13.8650   20.4930 C   0  0  0  0  0  0  0  0  0  0  0  0
  -24.1220  -13.0790   20.8740 C   0  0  0  0  0  0  0  0  0  0  0  0
  -24.6010  -11.7320   20.8350 C   0  0  0  0  0  0  0  0  0  0  0  0
  -26.2200  -12.9990   20.2340 N   0  0  0  0  0  0  0  0  0  0  0  0
  -25.8890  -11.7100   20.5070 N   0  0  0  0  0  0  0  0  0  0  0  0
  -23.8850  -10.4630   21.0300 C   0  0  0  0  0  0  0  0  0  0  0  0
  -24.3330   -9.4960   21.9550 C   0  0  0  0  0  3  0  0  0  0  0  0
  -23.6150   -8.2950   22.1400 C   0  0  0  0  0  3  0  0  0  0  0  0
  -22.4340   -8.0530   21.3990 C   0  0  0  0  0  0  0  0  0  0  0  0
  -22.0040   -9.0090   20.4630 C   0  0  0  0  0  3  0  0  0  0  0  0
  -22.7230  -10.2020   20.2750 C   0  0  0  0  0  3  0  0  0  0  0  0
  -21.6860   -6.9040   21.4930 O   0  0  0  0  0  0  0  0  0  0  0  0
  -21.6570   -6.1560   22.6430 C   0  0  0  0  0  0  0  0  0  0  0  0
  -21.2460   -6.7040   23.8790 C   0  0  0  0  0  3  0  0  0  0  0  0
  -21.1650   -5.8840   25.0210 C   0  0  0  0  0  3  0  0  0  0  0  0
  -21.4820   -4.5150   24.9300 C   0  0  0  0  0  0  0  0  0  0  0  0
  -21.8850   -3.9660   23.6990 C   0  0  0  0  0  3  0  0  0  0  0  0
  -21.9680   -4.7840   22.5590 C   0  0  0  0  0  0  0  0  0  0  0  0
  -22.3360   -4.2460   21.3720 F   0  0  0  0  0  0  0  0  0  0  0  0
  -21.3960   -3.7240   26.0250 F   0  0  0  0  0  0  0  0  0  0  0  0
  -22.7240  -13.5440   21.1570 C   0  0  0  0  0  0  0  0  0  0  0  0
  -22.0120  -12.8460   22.0350 N   0  0  0  0  0  0  0  0  0  0  0  0
  -22.2730  -14.5630   20.6360 O   0  0  0  0  0  0  0  0  0  0  0  0
  -22.3920  -12.0230   22.4780 H   0  0  0  0  0  0  0  0  0  0  0  0
  -21.0740  -13.1410   22.2680 H   0  0  0  0  0  0  0  0  0  0  0  0
  -25.3220  -15.2370   20.3160 N   0  0  0  0  0  0  0  0  0  0  0  0
  -24.5460  -15.8810   20.4290 H   0  0  0  0  0  0  0  0  0  0  0  0
  -26.1500  -15.6800   19.9410 H   0  0  0  0  0  0  0  0  0  0  0  0
  -27.9490  -24.1700   20.2170 C   0  0  0  0  0  2  0  0  0  0  0  0
  -28.1830  -25.8230   20.2420 O   0  0  0  0  0  0  0  0  0  0  0  0
  -24.6500  -31.8560   23.1920 C   0  0  0  0  0  0  0  0  0  0  0  0
  -27.1700  -26.9300   20.1940 C   0  0  0  0  0  0  0  0  0  0  0  0
  -23.4430  -30.4600   21.5640 C   0  0  0  0  0  3  0  0  0  0  0  0
  -24.8790  -28.8360   20.1460 C   0  0  0  0  0  0  0  0  0  0  0  0
  -26.0110  -30.6510   21.4090 C   0  0  0  0  0  2  0  0  0  0  0  0
  -26.0720  -29.2360   20.7590 C   0  0  0  0  0  0  0  0  0  0  0  0
  -27.2110  -28.3060   20.7530 C   0  0  0  0  0  3  0  0  0  0  0  0
  -25.9430  -26.6870   19.5350 C   0  0  0  0  0  3  0  0  0  0  0  0
  -24.8400  -27.5830   19.5120 C   0  0  0  0  0  3  0  0  0  0  0  0
  -23.6660  -29.7670   20.1920 C   0  0  0  0  0  2  0  0  0  0  0  0
  -24.7240  -31.0160   22.1080 N   0  0  0  0  0  0  0  0  0  0  0  0
  -23.5630  -32.1550   23.7160 O   0  0  0  0  0  0  0  0  0  0  0  0
  -22.7450  -29.4740   22.5380 C   0  0  0  0  0  0  0  0  0  0  0  0
  -21.4120  -29.3210   22.4230 N   0  0  0  0  0  0  0  0  0  0  0  0
  -23.4100  -28.8450   23.3660 O   0  0  0  0  0  0  0  0  0  0  0  0
  -20.9290  -29.8780   21.7340 H   0  0  0  0  0  0  0  0  0  0  0  0
  -18.0250  -28.1340   22.9570 C   0  0  0  0  0  0  0  0  0  0  0  0
  -20.5870  -28.3920   23.2030 C   0  0  0  0  0  3  0  0  0  0  0  0
  -20.6790  -26.9570   22.6340 C   0  0  0  0  0  2  0  0  0  0  0  0
  -19.5690  -26.6350   21.6270 C   0  0  0  0  0  2  0  0  0  0  0  0
  -18.1920  -26.7850   22.2800 C   0  0  0  0  0  2  0  0  0  0  0  0
  -19.1490  -28.8960   23.3750 C   0  0  0  0  0  0  0  0  0  0  0  0
  -18.9350  -30.1570   23.9720 C   0  0  0  0  0  3  0  0  0  0  0  0
  -17.6310  -30.6590   24.1510 C   0  0  0  0  0  3  0  0  0  0  0  0
  -16.5230  -29.8960   23.7460 C   0  0  0  0  0  3  0  0  0  0  0  0
  -16.7210  -28.6350   23.1550 C   0  0  0  0  0  3  0  0  0  0  0  0
  -25.9250  -32.4960   23.8190 C   0  0  0  0  0  3  0  0  0  0  0  0
  -26.4420  -31.7240   25.0950 C   0  0  1  0  0  0  0  0  0  0  0  0
  -25.3520  -31.4890   26.1670 C   0  0  0  0  0  1  0  0  0  0  0  0
  -27.0210  -30.3430   24.7090 C   0  0  0  0  0  1  0  0  0  0  0  0
  -27.5970  -32.5140   25.7550 C   0  0  0  0  0  1  0  0  0  0  0  0
  -25.6080  -33.8930   24.1700 N   0  0  0  0  0  0  0  0  0  0  0  0
  -25.9140  -34.9620   23.4210 C   0  0  0  0  0  0  0  0  0  0  0  0
  -26.5540  -34.8770   22.3710 O   0  0  0  0  0  0  0  0  0  0  0  0
  -25.0340  -34.0310   24.9880 H   0  0  0  0  0  0  0  0  0  0  0  0
  -24.1560  -36.7480   23.1650 C   0  0  0  0  0  1  0  0  0  0  0  0
  -25.4350  -36.3440   23.9150 C   0  0  0  0  0  3  0  0  0  0  0  0
  -27.5960  -37.2450   24.6580 C   0  0  0  0  0  1  0  0  0  0  0  0
  -26.4520  -37.4080   23.7650 N   0  0  0  0  0  0  0  0  0  0  0  0
  -26.0450  -38.3240   23.9360 H   0  0  0  0  0  0  0  0  0  0  0  0
  2  1  1  0
  2 44  1  0
  2  3  1  0
  4  3  2  0
  4  6  1  0
  5  4  1  0
  7  6  2  0
  8  7  1  0
  9 14  1  0
 10 11  1  0
 10  9  1  0
 12 11  1  0
 12 19  1  0
 12 13  1  0
 14  8  1  0
 14 13  1  0
 15  8  2  0
 16 17  2  0
 17 36  1  0
 18 17  1  0
 18 21  1  0
 19 16  1  0
 19 20  1  0
 20 18  2  0
 21 22  1  0
 22 23  2  0
 24 27  1  0
 24 23  1  0
 25 24  2  0
 26 25  1  0
 26 21  2  0
 27 28  1  0
 28 29  1  0
 29 30  2  0
 31 30  1  0
 31 35  1  0
 32 31  2  0
 33 28  2  0
 33 32  1  0
 34 33  1  0
 36 37  1  0
 37 40  1  0
 37 39  1  0
 38 36  2  0
 41 42  1  0
 41 16  1  0
 43 41  1  0
 44 45  1  0
 46 57  2  0
 47 45  1  0
 47 52  1  0
 48 56  1  0
 48 58  1  0
 49 55  1  0
 49 51  1  0
 50 56  1  0
 51 50  1  0
 52 51  2  0
 53 47  2  0
 54 53  1  0
 54 49  2  0
 55 48  1  0
 56 46  1  0
 58 60  2  0
 59 58  1  0
 61 59  1  0
 62 71  2  0
 62 67  1  0
 63 59  1  0
 63 67  1  0
 64 63  1  0
 65 66  1  0
 65 64  1  0
 66 62  1  0
 67 68  2  0
 68 69  1  0
 70 69  2  0
 71 70  1  0
 72 46  1  0
 72 77  1  0
 72 73  1  0
 73 76  1  1
 73 74  1  0
 75 73  1  0
 77 80  1  0
 78 82  1  0
 78 77  1  0
 79 78  2  0
 82 81  1  0
 84 82  1  0
 84 85  1  0
 84 83  1  0
M  ISO  4   7 100   8 100  44 101  45 101
M  END
>  <TORSDO>  (16) 
F 19

>  <SCORE>  (16) 
-15.539

>  <name>  (16) 
15

>  <ligand_id>  (16) 
15

>  <original_smiles>  (16) 
[H]C(C(=O)N1C([H])([H])C([H])([H])C([H])([H])C([H])(n2nc(-c3c([H])c([H])c(Oc4c([H])c([H])c(F)c([H])c4F)c([H])c3[H])c(C(=O)N([H])[H])c2N([H])[H])C1([H])[H])=C([H])C(=C([H])C([H])(C([H])([H])[H])C([H])([H])Oc1c([H])c([H])c2c(c1[H])C([H])([H])N(C(=O)C([H])(N([H])C(=O)C([H])(N([H])C([H])([H])[H])C([H])([H])[H])C(C([H])([H])[H])(C([H])([H])[H])C([H])([H])[H])C([H])(C(=O)N([H])C1([H])c3c([H])c([H])c([H])c([H])c3C([H])([H])C([H])([H])C1([H])[H])C2([H])[H])C([H])([H])[H]

>  <smiles>  (16) 
[H]C(C(=O)N1C([H])([H])C([H])([H])C([H])([H])C([H])(n2nc(-c3c([H])c([H])c(Oc4c([H])c([H])c(F)c([H])c4F)c([H])c3[H])c(C(=O)N([H])[H])c2N([H])[H])C1([H])[H])=C([H])C(=C([H])C([H])(C([H])([H])[H])C([H])([H])Oc1c([H])c([H])c2c(c1[H])C([H])([H])N(C(=O)C([H])(N([H])C(=O)C([H])(N([H])C([H])([H])[H])C([H])([H])[H])C(C([H])([H])[H])(C([H])([H])[H])C([H])([H])[H])C([H])(C(=O)N([H])C1([H])c3c([H])c([H])c([H])c([H])c3C([H])([H])C([H])([H])C1([H])[H])C2([H])[H])C([H])([H])[H]

$$$$
16:0:0
     RDKit          3D

 90 98  0  0  1  0  0  0  0  0999 V2000
  -29.8640  -21.9130   20.6820 C   0  0  0  0  0  3  0  0  0  0  0  0
  -27.1860  -19.2530   19.7190 C   0  0  0  0  0  2  0  0  0  0  0  0
  -28.0080  -17.9750   19.9590 C   0  0  0  0  0  2  0  0  0  0  0  0
  -28.0410  -20.5310   19.6040 C   0  0  0  0  0  2  0  0  0  0  0  0
  -29.9730  -19.4040   20.7330 C   0  0  0  0  0  2  0  0  0  0  0  0
  -29.5160  -18.2360   19.8120 C   0  0  0  0  0  3  0  0  0  0  0  0
  -29.0920  -20.6190   20.6600 N   0  0  1  0  0  4  0  0  0  0  0  0
  -28.5820  -20.6100   21.5320 H   0  0  0  0  0  0  0  0  0  0  0  0
  -30.0030  -15.7370   20.2550 C   0  0  0  0  0  3  0  0  0  0  0  0
  -30.3910  -16.9800   19.8850 C   0  0  0  0  0  3  0  0  0  0  0  0
  -30.8970  -14.5800   20.0940 C   0  0  0  0  0  0  0  0  0  0  0  0
  -30.7030  -12.2630   19.2920 C   0  0  0  0  0  2  0  0  0  0  0  0
  -29.7510  -12.2710   18.0720 C   0  0  0  0  0  2  0  0  0  0  0  0
  -28.2720  -12.1680   18.4960 C   0  0  0  0  0  2  0  0  0  0  0  0
  -27.9080  -13.1560   19.6340 C   0  0  0  0  0  3  0  0  0  0  0  0
  -28.9650  -13.0850   20.7630 C   0  0  0  0  0  2  0  0  0  0  0  0
  -30.2890  -13.3620   20.1770 N   0  0  0  0  0  0  0  0  0  0  0  0
  -32.0580  -14.6980   19.6900 O   0  0  0  0  0  0  0  0  0  0  0  0
  -25.5500  -13.8460   20.3980 C   0  0  0  0  0  0  0  0  0  0  0  0
  -24.4620  -13.1110   20.7920 C   0  0  0  0  0  0  0  0  0  0  0  0
  -24.8750  -11.7450   20.7420 C   0  0  0  0  0  0  0  0  0  0  0  0
  -26.5570  -12.9290   20.1410 N   0  0  0  0  0  0  0  0  0  0  0  0
  -26.1550  -11.6590   20.4040 N   0  0  0  0  0  0  0  0  0  0  0  0
  -24.1070  -10.5090   20.9360 C   0  0  0  0  0  0  0  0  0  0  0  0
  -24.5040   -9.5380   21.8810 C   0  0  0  0  0  3  0  0  0  0  0  0
  -23.7390   -8.3660   22.0690 C   0  0  0  0  0  3  0  0  0  0  0  0
  -22.5660   -8.1580   21.3080 C   0  0  0  0  0  0  0  0  0  0  0  0
  -22.1850   -9.1180   20.3550 C   0  0  0  0  0  3  0  0  0  0  0  0
  -22.9500  -10.2820   20.1670 C   0  0  0  0  0  3  0  0  0  0  0  0
  -21.7740   -7.0390   21.4050 O   0  0  0  0  0  0  0  0  0  0  0  0
  -21.6600   -6.3380   22.5770 C   0  0  0  0  0  0  0  0  0  0  0  0
  -21.2030   -6.9460   23.7690 C   0  0  0  0  0  3  0  0  0  0  0  0
  -21.0300   -6.1710   24.9320 C   0  0  0  0  0  3  0  0  0  0  0  0
  -21.3060   -4.7900   24.9070 C   0  0  0  0  0  0  0  0  0  0  0  0
  -21.7510   -4.1830   23.7210 C   0  0  0  0  0  3  0  0  0  0  0  0
  -21.9260   -4.9540   22.5600 C   0  0  0  0  0  0  0  0  0  0  0  0
  -22.3390   -4.3570   21.4140 F   0  0  0  0  0  0  0  0  0  0  0  0
  -21.1310   -4.0480   26.0250 F   0  0  0  0  0  0  0  0  0  0  0  0
  -23.0890  -13.6350   21.0960 C   0  0  0  0  0  0  0  0  0  0  0  0
  -22.3620  -12.9700   21.9870 N   0  0  0  0  0  0  0  0  0  0  0  0
  -22.6730  -14.6740   20.5850 O   0  0  0  0  0  0  0  0  0  0  0  0
  -22.7070  -12.1310   22.4250 H   0  0  0  0  0  0  0  0  0  0  0  0
  -21.4420  -13.3100   22.2310 H   0  0  0  0  0  0  0  0  0  0  0  0
  -25.7550  -15.2130   20.2200 N   0  0  0  0  0  0  0  0  0  0  0  0
  -25.0150  -15.8950   20.3430 H   0  0  0  0  0  0  0  0  0  0  0  0
  -26.6010  -15.6070   19.8340 H   0  0  0  0  0  0  0  0  0  0  0  0
  -29.0540  -23.1740   20.2840 C   0  0  0  0  0  3  0  0  0  0  0  0
  -29.7590  -24.5490   20.3880 C   0  0  0  0  0  2  0  0  0  0  0  0
  -28.9700  -25.5990   19.5670 C   0  0  0  0  0  2  0  0  0  0  0  0
  -28.8020  -26.8520   20.2470 O   0  0  0  0  0  0  0  0  0  0  0  0
  -24.6120  -31.7490   23.2590 C   0  0  0  0  0  0  0  0  0  0  0  0
  -27.5740  -27.4940   20.1830 C   0  0  0  0  0  0  0  0  0  0  0  0
  -23.5340  -30.3350   21.5420 C   0  0  0  0  0  3  0  0  0  0  0  0
  -25.1070  -28.8970   20.1470 C   0  0  0  0  0  0  0  0  0  0  0  0
  -26.0490  -30.7980   21.4590 C   0  0  0  0  0  2  0  0  0  0  0  0
  -26.2170  -29.4470   20.7970 C   0  0  0  0  0  0  0  0  0  0  0  0
  -27.4460  -28.7490   20.8210 C   0  0  0  0  0  3  0  0  0  0  0  0
  -26.4390  -26.9680   19.5120 C   0  0  0  0  0  3  0  0  0  0  0  0
  -25.2110  -27.6540   19.5070 C   0  0  0  0  0  3  0  0  0  0  0  0
  -23.8270  -29.6980   20.1590 C   0  0  0  0  0  2  0  0  0  0  0  0
  -24.7470  -30.9750   22.1450 N   0  0  0  0  0  0  0  0  0  0  0  0
  -23.4980  -31.9670   23.7580 O   0  0  0  0  0  0  0  0  0  0  0  0
  -22.8880  -29.2640   22.4520 C   0  0  0  0  0  0  0  0  0  0  0  0
  -21.5740  -29.0430   22.2770 N   0  0  0  0  0  0  0  0  0  0  0  0
  -23.5660  -28.6390   23.2720 O   0  0  0  0  0  0  0  0  0  0  0  0
  -21.0890  -29.6030   21.5900 H   0  0  0  0  0  0  0  0  0  0  0  0
  -18.2200  -27.7590   22.6630 C   0  0  0  0  0  0  0  0  0  0  0  0
  -20.7650  -28.0590   22.9940 C   0  0  0  0  0  3  0  0  0  0  0  0
  -20.9100  -26.6530   22.3660 C   0  0  0  0  0  2  0  0  0  0  0  0
  -19.8340  -26.3470   21.3200 C   0  0  0  0  0  2  0  0  0  0  0  0
  -18.4380  -26.4400   21.9420 C   0  0  0  0  0  2  0  0  0  0  0  0
  -19.3130  -28.5270   23.1430 C   0  0  0  0  0  0  0  0  0  0  0  0
  -19.0570  -29.7630   23.7760 C   0  0  0  0  0  3  0  0  0  0  0  0
  -17.7390  -30.2320   23.9330 C   0  0  0  0  0  3  0  0  0  0  0  0
  -16.6590  -29.4610   23.4690 C   0  0  0  0  0  3  0  0  0  0  0  0
  -16.9000  -28.2260   22.8410 C   0  0  0  0  0  3  0  0  0  0  0  0
  -25.8440  -32.4180   23.9430 C   0  0  0  0  0  3  0  0  0  0  0  0
  -25.4830  -33.8130   24.2350 N   0  0  0  0  0  0  0  0  0  0  0  0
  -25.8190  -34.8610   23.4730 C   0  0  0  0  0  0  0  0  0  0  0  0
  -26.5370  -34.7590   22.4720 O   0  0  0  0  0  0  0  0  0  0  0  0
  -24.8510  -33.9640   25.0080 H   0  0  0  0  0  0  0  0  0  0  0  0
  -24.0540  -36.5910   23.0150 C   0  0  0  0  0  1  0  0  0  0  0  0
  -25.2740  -36.2420   23.8820 C   0  0  0  0  0  3  0  0  0  0  0  0
  -27.3470  -37.2060   24.7780 C   0  0  0  0  0  1  0  0  0  0  0  0
  -26.2800  -37.3220   23.7880 N   0  0  0  0  0  0  0  0  0  0  0  0
  -25.8410  -38.2330   23.9010 H   0  0  0  0  0  0  0  0  0  0  0  0
  -26.3090  -31.6740   25.2550 C   0  0  1  0  0  0  0  0  0  0  0  0
  -25.1620  -31.4130   26.2590 C   0  0  0  0  0  1  0  0  0  0  0  0
  -26.9520  -30.3120   24.9090 C   0  0  0  0  0  1  0  0  0  0  0  0
  -27.3950  -32.5070   25.9730 C   0  0  0  0  0  1  0  0  0  0  0  0
  2  3  1  0
  4  2  1  0
  4  7  1  0
  6 10  1  0
  6  3  1  0
  6  5  1  0
  7  1  1  0
  7  5  1  0
  7  8  1  1
 10  9  2  0
 11 17  1  0
 11  9  1  0
 12 17  1  0
 13 14  1  0
 13 12  1  0
 15 14  1  0
 15 22  1  0
 15 16  1  0
 17 16  1  0
 18 11  2  0
 19 20  2  0
 20 39  1  0
 21 20  1  0
 21 24  1  0
 22 19  1  0
 22 23  1  0
 23 21  2  0
 24 25  1  0
 25 26  2  0
 27 30  1  0
 27 26  1  0
 28 27  2  0
 29 28  1  0
 29 24  2  0
 30 31  1  0
 31 32  1  0
 32 33  2  0
 34 33  1  0
 34 38  1  0
 35 34  2  0
 36 31  2  0
 36 35  1  0
 37 36  1  0
 39 40  1  0
 40 43  1  0
 40 42  1  0
 41 39  2  0
 44 45  1  0
 44 19  1  0
 46 44  1  0
 47 48  1  0
 47  1  2  0
 49 50  1  0
 49 48  1  0
 51 62  2  0
 52 50  1  0
 52 57  1  0
 53 61  1  0
 53 63  1  0
 54 60  1  0
 54 56  1  0
 55 61  1  0
 56 57  2  0
 56 55  1  0
 58 52  2  0
 59 58  1  0
 59 54  2  0
 60 53  1  0
 61 51  1  0
 63 65  2  0
 64 63  1  0
 66 64  1  0
 67 76  2  0
 67 72  1  0
 68 64  1  0
 68 72  1  0
 69 68  1  0
 70 71  1  0
 70 69  1  0
 71 67  1  0
 72 73  2  0
 73 74  1  0
 75 74  2  0
 76 75  1  0
 77 51  1  0
 77 78  1  0
 77 87  1  0
 78 81  1  0
 79 83  1  0
 79 78  1  0
 80 79  2  0
 83 82  1  0
 85 83  1  0
 85 86  1  0
 85 84  1  0
 87 90  1  1
 87 88  1  0
 89 87  1  0
M  ISO  4   9 100  11 100  49 101  50 101
M  END
>  <TORSDO>  (17) 
F 21

>  <SCORE>  (17) 
-13.145

>  <name>  (17) 
16

>  <ligand_id>  (17) 
16

>  <original_smiles>  (17) 
[H]C(C(=O)N1C([H])([H])C([H])([H])C([H])([H])C([H])(n2nc(-c3c([H])c([H])c(Oc4c([H])c([H])c(F)c([H])c4F)c([H])c3[H])c(C(=O)N([H])[H])c2N([H])[H])C1([H])[H])=C([H])C1([H])C([H])([H])C([H])([H])C([H])([H])[N+]([H])(C([H])([H])C([H])([H])C([H])([H])C([H])([H])Oc2c([H])c([H])c3c(c2[H])C([H])([H])N(C(=O)C([H])(N([H])C(=O)C([H])(N([H])C([H])([H])[H])C([H])([H])[H])C(C([H])([H])[H])(C([H])([H])[H])C([H])([H])[H])C([H])(C(=O)N([H])C2([H])c4c([H])c([H])c([H])c([H])c4C([H])([H])C([H])([H])C2([H])[H])C3([H])[H])C1([H])[H]

>  <smiles>  (17) 
[H]C(C(=O)N1C([H])([H])C([H])([H])C([H])([H])C([H])(n2nc(-c3c([H])c([H])c(Oc4c([H])c([H])c(F)c([H])c4F)c([H])c3[H])c(C(=O)N([H])[H])c2N([H])[H])C1([H])[H])=C([H])C1([H])C([H])([H])C([H])([H])C([H])([H])[N+]([H])(C([H])([H])C([H])([H])C([H])([H])C([H])([H])Oc2c([H])c([H])c3c(c2[H])C([H])([H])N(C(=O)C([H])(N([H])C(=O)C([H])(N([H])C([H])([H])[H])C([H])([H])[H])C(C([H])([H])[H])(C([H])([H])[H])C([H])([H])[H])C([H])(C(=O)N([H])C2([H])c4c([H])c([H])c([H])c([H])c4C([H])([H])C([H])([H])C2([H])[H])C3([H])[H])C1([H])[H]

$$$$
17:0:0
     RDKit          3D

 83 91  0  0  1  0  0  0  0  0999 V2000
  -28.4290  -23.0850   21.3850 C   0  0  0  0  0  2  0  0  0  0  0  0
  -28.8600  -22.1780   20.2300 C   0  0  0  0  0  3  0  0  0  0  0  0
  -27.9320  -23.8540   20.1750 C   0  0  0  0  0  3  0  0  0  0  0  0
  -28.1150  -25.5960   20.3060 O   0  0  0  0  0  0  0  0  0  0  0  0
  -24.6280  -31.8860   23.2110 C   0  0  0  0  0  0  0  0  0  0  0  0
  -27.1370  -26.7990   20.2460 C   0  0  0  0  0  0  0  0  0  0  0  0
  -23.4310  -30.4800   21.5880 C   0  0  0  0  0  3  0  0  0  0  0  0
  -24.8700  -28.8240   20.1810 C   0  0  0  0  0  0  0  0  0  0  0  0
  -26.0090  -30.6220   21.4550 C   0  0  0  0  0  2  0  0  0  0  0  0
  -26.0680  -29.1870   20.8080 C   0  0  0  0  0  0  0  0  0  0  0  0
  -27.1860  -28.2020   20.8070 C   0  0  0  0  0  3  0  0  0  0  0  0
  -25.9060  -26.6410   19.5620 C   0  0  0  0  0  3  0  0  0  0  0  0
  -24.8260  -27.5760   19.5340 C   0  0  0  0  0  3  0  0  0  0  0  0
  -23.6640  -29.7750   20.2210 C   0  0  0  0  0  2  0  0  0  0  0  0
  -24.7140  -31.0290   22.1370 N   0  0  0  0  0  0  0  0  0  0  0  0
  -23.5380  -32.1910   23.7250 O   0  0  0  0  0  0  0  0  0  0  0  0
  -22.7170  -29.5100   22.5680 C   0  0  0  0  0  0  0  0  0  0  0  0
  -21.3850  -29.3530   22.4440 N   0  0  0  0  0  0  0  0  0  0  0  0
  -23.3740  -28.8950   23.4110 O   0  0  0  0  0  0  0  0  0  0  0  0
  -20.9050  -29.8990   21.7420 H   0  0  0  0  0  0  0  0  0  0  0  0
  -18.0000  -28.1400   22.9650 C   0  0  0  0  0  0  0  0  0  0  0  0
  -20.5590  -28.4230   23.2250 C   0  0  0  0  0  3  0  0  0  0  0  0
  -20.6650  -26.9840   22.6680 C   0  0  0  0  0  2  0  0  0  0  0  0
  -19.5670  -26.6450   21.6570 C   0  0  0  0  0  2  0  0  0  0  0  0
  -18.1830  -26.7880   22.2980 C   0  0  0  0  0  2  0  0  0  0  0  0
  -19.1140  -28.9150   23.3850 C   0  0  0  0  0  0  0  0  0  0  0  0
  -18.8840  -30.1770   23.9750 C   0  0  0  0  0  3  0  0  0  0  0  0
  -17.5750  -30.6660   24.1440 C   0  0  0  0  0  3  0  0  0  0  0  0
  -16.4760  -29.8910   23.7360 C   0  0  0  0  0  3  0  0  0  0  0  0
  -16.6900  -28.6290   23.1530 C   0  0  0  0  0  3  0  0  0  0  0  0
  -25.8950  -32.5370   23.8440 C   0  0  0  0  0  3  0  0  0  0  0  0
  -25.5700  -33.9360   24.1880 N   0  0  0  0  0  0  0  0  0  0  0  0
  -25.8660  -35.0050   23.4370 C   0  0  0  0  0  0  0  0  0  0  0  0
  -26.4980  -34.9180   22.3820 O   0  0  0  0  0  0  0  0  0  0  0  0
  -25.0030  -34.0740   25.0110 H   0  0  0  0  0  0  0  0  0  0  0  0
  -24.1010  -36.7860   23.1950 C   0  0  0  0  0  1  0  0  0  0  0  0
  -25.3910  -36.3880   23.9310 C   0  0  0  0  0  3  0  0  0  0  0  0
  -27.5530  -37.3060   24.6510 C   0  0  0  0  0  1  0  0  0  0  0  0
  -26.4020  -37.4560   23.7650 N   0  0  0  0  0  0  0  0  0  0  0  0
  -25.9910  -38.3710   23.9310 H   0  0  0  0  0  0  0  0  0  0  0  0
  -26.4040  -31.7740   25.1300 C   0  0  1  0  0  0  0  0  0  0  0  0
  -25.3060  -31.5430   26.1960 C   0  0  0  0  0  1  0  0  0  0  0  0
  -26.9920  -30.3940   24.7610 C   0  0  0  0  0  1  0  0  0  0  0  0
  -27.5510  -32.5740   25.7930 C   0  0  0  0  0  1  0  0  0  0  0  0
  -28.6470  -20.2830   20.3540 C   0  0  0  0  0  2  0  0  0  0  0  0
  -29.3950  -17.1640   20.3150 C   0  0  0  0  0  3  0  0  0  0  0  0
  -29.5900  -18.6870   20.2100 C   0  0  0  0  0  3  0  0  0  0  0  0
  -30.2460  -15.6860   20.1570 C   0  0  0  0  0  0  0  0  0  0  0  0
  -30.3370  -13.1480   19.3360 C   0  0  0  0  0  2  0  0  0  0  0  0
  -29.4210  -12.7900   18.1280 C   0  0  0  0  0  2  0  0  0  0  0  0
  -28.0030  -12.4340   18.5980 C   0  0  0  0  0  2  0  0  0  0  0  0
  -27.5150  -13.4140   19.6900 C   0  0  0  0  0  3  0  0  0  0  0  0
  -28.5640  -13.7010   20.7860 C   0  0  0  0  0  2  0  0  0  0  0  0
  -29.7420  -14.3140   20.1330 N   0  0  0  0  0  0  0  0  0  0  0  0
  -31.4680  -15.6250   19.9180 O   0  0  0  0  0  0  0  0  0  0  0  0
  -25.1700  -13.9130   20.5260 C   0  0  0  0  0  0  0  0  0  0  0  0
  -24.1270  -13.1190   20.9060 C   0  0  0  0  0  0  0  0  0  0  0  0
  -24.6060  -11.7740   20.8380 C   0  0  0  0  0  0  0  0  0  0  0  0
  -26.2140  -13.0550   20.2350 N   0  0  0  0  0  0  0  0  0  0  0  0
  -25.8910  -11.7590   20.4920 N   0  0  0  0  0  0  0  0  0  0  0  0
  -23.8920  -10.5020   21.0220 C   0  0  0  0  0  0  0  0  0  0  0  0
  -24.3270   -9.5360   21.9570 C   0  0  0  0  0  3  0  0  0  0  0  0
  -23.6080   -8.3340   22.1310 C   0  0  0  0  0  3  0  0  0  0  0  0
  -22.4400   -8.0880   21.3710 C   0  0  0  0  0  0  0  0  0  0  0  0
  -22.0240   -9.0430   20.4260 C   0  0  0  0  0  3  0  0  0  0  0  0
  -22.7430  -10.2370   20.2500 C   0  0  0  0  0  3  0  0  0  0  0  0
  -21.6930   -6.9370   21.4540 O   0  0  0  0  0  0  0  0  0  0  0  0
  -21.6130   -6.2130   22.6170 C   0  0  0  0  0  0  0  0  0  0  0  0
  -21.1160   -6.7750   23.8120 C   0  0  0  0  0  3  0  0  0  0  0  0
  -20.9860   -5.9750   24.9650 C   0  0  0  0  0  3  0  0  0  0  0  0
  -21.3430   -4.6150   24.9240 C   0  0  0  0  0  0  0  0  0  0  0  0
  -21.8340   -4.0520   23.7320 C   0  0  0  0  0  3  0  0  0  0  0  0
  -21.9650   -4.8480   22.5810 C   0  0  0  0  0  0  0  0  0  0  0  0
  -22.4180   -4.2950   21.4310 F   0  0  0  0  0  0  0  0  0  0  0  0
  -21.2130   -3.8450   26.0290 F   0  0  0  0  0  0  0  0  0  0  0  0
  -22.7320  -13.5800   21.2120 C   0  0  0  0  0  0  0  0  0  0  0  0
  -22.0290  -12.8670   22.0850 N   0  0  0  0  0  0  0  0  0  0  0  0
  -22.2770  -14.6080   20.7130 O   0  0  0  0  0  0  0  0  0  0  0  0
  -22.4130  -12.0360   22.5100 H   0  0  0  0  0  0  0  0  0  0  0  0
  -21.0940  -13.1580   22.3330 H   0  0  0  0  0  0  0  0  0  0  0  0
  -25.3150  -15.2890   20.3710 N   0  0  0  0  0  0  0  0  0  0  0  0
  -24.5460  -15.9330   20.5160 H   0  0  0  0  0  0  0  0  0  0  0  0
  -26.1490  -15.7420   20.0190 H   0  0  0  0  0  0  0  0  0  0  0  0
  2 45  1  0
  2  1  1  0
  3  2  1  0
  3  4  1  0
  3  1  1  0
  5 16  2  0
  6  4  1  0
  6 11  1  0
  7 15  1  0
  7 17  1  0
  8 14  1  0
  8 10  1  0
  9 15  1  0
 10  9  1  0
 11 10  2  0
 12  6  2  0
 13 12  1  0
 13  8  2  0
 14  7  1  0
 15  5  1  0
 17 19  2  0
 18 17  1  0
 20 18  1  0
 21 30  2  0
 21 26  1  0
 22 18  1  0
 22 26  1  0
 23 22  1  0
 24 25  1  0
 24 23  1  0
 25 21  1  0
 26 27  2  0
 27 28  1  0
 29 28  2  0
 30 29  1  0
 31  5  1  0
 31 32  1  0
 31 41  1  0
 32 35  1  0
 33 37  1  0
 33 32  1  0
 34 33  2  0
 37 36  1  0
 39 40  1  0
 39 37  1  0
 39 38  1  0
 41 44  1  1
 41 42  1  0
 43 41  1  0
 47 46  2  0
 47 45  1  0
 48 46  1  0
 49 54  1  0
 50 51  1  0
 50 49  1  0
 52 51  1  0
 52 59  1  0
 52 53  1  0
 54 48  1  0
 54 53  1  0
 55 48  2  0
 56 57  2  0
 57 76  1  0
 58 57  1  0
 58 61  1  0
 59 60  1  0
 59 56  1  0
 60 58  2  0
 61 62  1  0
 62 63  2  0
 64 67  1  0
 64 63  1  0
 65 64  2  0
 66 65  1  0
 66 61  2  0
 67 68  1  0
 68 69  1  0
 69 70  2  0
 71 70  1  0
 71 75  1  0
 72 71  2  0
 73 68  2  0
 73 72  1  0
 74 73  1  0
 76 77  1  0
 77 80  1  0
 77 79  1  0
 78 76  2  0
 81 82  1  0
 81 56  1  0
 83 81  1  0
M  ISO  4   3 101   4 101  46 100  48 100
M  END
>  <TORSDO>  (18) 
F 18

>  <SCORE>  (18) 
-16.425

>  <name>  (18) 
17

>  <ligand_id>  (18) 
17

>  <original_smiles>  (18) 
[H]C(C(=O)N1C([H])([H])C([H])([H])C([H])([H])C([H])(n2nc(-c3c([H])c([H])c(Oc4c([H])c([H])c(F)c([H])c4F)c([H])c3[H])c(C(=O)N([H])[H])c2N([H])[H])C1([H])[H])=C([H])C([H])([H])C1([H])C([H])([H])C1([H])Oc1c([H])c([H])c2c(c1[H])C([H])([H])N(C(=O)C([H])(N([H])C(=O)C([H])(N([H])C([H])([H])[H])C([H])([H])[H])C(C([H])([H])[H])(C([H])([H])[H])C([H])([H])[H])C([H])(C(=O)N([H])C1([H])c3c([H])c([H])c([H])c([H])c3C([H])([H])C([H])([H])C1([H])[H])C2([H])[H]

>  <smiles>  (18) 
[H]C(C(=O)N1C([H])([H])C([H])([H])C([H])([H])C([H])(n2nc(-c3c([H])c([H])c(Oc4c([H])c([H])c(F)c([H])c4F)c([H])c3[H])c(C(=O)N([H])[H])c2N([H])[H])C1([H])[H])=C([H])C([H])([H])C1([H])C([H])([H])C1([H])Oc1c([H])c([H])c2c(c1[H])C([H])([H])N(C(=O)C([H])(N([H])C(=O)C([H])(N([H])C([H])([H])[H])C([H])([H])[H])C(C([H])([H])[H])(C([H])([H])[H])C([H])([H])[H])C([H])(C(=O)N([H])C1([H])c3c([H])c([H])c([H])c([H])c3C([H])([H])C([H])([H])C1([H])[H])C2([H])[H]

$$$$
18:0:0
     RDKit          3D

 90 99  0  0  1  0  0  0  0  0999 V2000
  -29.3510  -23.2390   21.3930 C   0  0  0  0  0  0  0  0  0  0  0  0
  -29.1210  -24.5610   21.1990 C   0  0  0  0  0  3  0  0  0  0  0  0
  -30.1550  -22.7370   22.5780 C   0  0  0  0  0  2  0  0  0  0  0  0
  -30.5270  -21.2750   22.2790 C   0  0  0  0  0  2  0  0  0  0  0  0
  -28.0600  -20.9770   21.3220 C   0  0  0  0  0  2  0  0  0  0  0  0
  -28.8960  -22.0270   20.6390 C   0  0  0  0  0  3  0  0  0  0  0  0
  -29.5630  -20.7730   21.2130 C   0  0  1  0  0  0  0  0  0  0  0  0
  -28.2580  -25.2470   20.1450 C   0  0  0  0  0  2  0  0  0  0  0  0
  -28.3910  -26.6940   20.1910 O   0  0  0  0  0  0  0  0  0  0  0  0
  -24.5980  -31.9160   23.2450 C   0  0  0  0  0  0  0  0  0  0  0  0
  -27.2340  -27.4570   20.1510 C   0  0  0  0  0  0  0  0  0  0  0  0
  -23.3900  -30.5150   21.6060 C   0  0  0  0  0  3  0  0  0  0  0  0
  -24.8440  -28.9890   20.1660 C   0  0  0  0  0  0  0  0  0  0  0  0
  -25.9190  -30.8730   21.4050 C   0  0  0  0  0  2  0  0  0  0  0  0
  -26.0050  -29.5010   20.7590 C   0  0  0  0  0  0  0  0  0  0  0  0
  -27.2030  -28.7440   20.7470 C   0  0  0  0  0  3  0  0  0  0  0  0
  -26.0580  -26.9800   19.5260 C   0  0  0  0  0  3  0  0  0  0  0  0
  -24.8680  -27.7290   19.5450 C   0  0  0  0  0  3  0  0  0  0  0  0
  -23.5980  -29.8460   20.2210 C   0  0  0  0  0  2  0  0  0  0  0  0
  -24.6540  -31.1160   22.1430 N   0  0  0  0  0  0  0  0  0  0  0  0
  -23.5180  -32.1830   23.7910 O   0  0  0  0  0  0  0  0  0  0  0  0
  -22.7460  -29.4870   22.5640 C   0  0  0  0  0  0  0  0  0  0  0  0
  -21.4210  -29.2990   22.4420 N   0  0  0  0  0  0  0  0  0  0  0  0
  -23.4340  -28.8630   23.3740 O   0  0  0  0  0  0  0  0  0  0  0  0
  -20.9230  -29.8570   21.7620 H   0  0  0  0  0  0  0  0  0  0  0  0
  -18.0570  -28.0840   22.9470 C   0  0  0  0  0  0  0  0  0  0  0  0
  -20.6140  -28.3560   23.2150 C   0  0  0  0  0  3  0  0  0  0  0  0
  -20.7230  -26.9240   22.6410 C   0  0  0  0  0  2  0  0  0  0  0  0
  -19.6220  -26.5950   21.6280 C   0  0  0  0  0  2  0  0  0  0  0  0
  -18.2400  -26.7350   22.2740 C   0  0  0  0  0  2  0  0  0  0  0  0
  -19.1730  -28.8520   23.3750 C   0  0  0  0  0  0  0  0  0  0  0  0
  -18.9480  -30.1150   23.9650 C   0  0  0  0  0  3  0  0  0  0  0  0
  -17.6400  -30.6090   24.1320 C   0  0  0  0  0  3  0  0  0  0  0  0
  -16.5390  -29.8380   23.7210 C   0  0  0  0  0  3  0  0  0  0  0  0
  -16.7500  -28.5770   23.1340 C   0  0  0  0  0  3  0  0  0  0  0  0
  -25.8860  -32.5510   23.8580 C   0  0  0  0  0  3  0  0  0  0  0  0
  -26.4110  -31.7830   25.1320 C   0  0  1  0  0  0  0  0  0  0  0  0
  -25.3250  -31.5430   26.2060 C   0  0  0  0  0  1  0  0  0  0  0  0
  -26.9950  -30.4060   24.7370 C   0  0  0  0  0  1  0  0  0  0  0  0
  -27.5640  -32.5790   25.7880 C   0  0  0  0  0  1  0  0  0  0  0  0
  -25.5750  -33.9490   24.1870 N   0  0  0  0  0  0  0  0  0  0  0  0
  -25.8950  -34.9990   23.4200 C   0  0  0  0  0  0  0  0  0  0  0  0
  -26.5540  -34.8960   22.3820 O   0  0  0  0  0  0  0  0  0  0  0  0
  -24.9900  -34.1040   24.9950 H   0  0  0  0  0  0  0  0  0  0  0  0
  -24.1480  -36.7770   23.0830 C   0  0  0  0  0  1  0  0  0  0  0  0
  -25.4040  -36.3870   23.8770 C   0  0  0  0  0  3  0  0  0  0  0  0
  -27.5480  -37.2880   24.6660 C   0  0  0  0  0  1  0  0  0  0  0  0
  -26.4260  -37.4470   23.7440 N   0  0  0  0  0  0  0  0  0  0  0  0
  -26.0160  -38.3640   23.9000 H   0  0  0  0  0  0  0  0  0  0  0  0
  -30.1600  -19.6010   20.3850 C   0  0  0  0  0  2  0  0  0  0  0  0
  -28.4730  -18.3800   18.9100 C   0  0  0  0  0  1  0  0  0  0  0  0
  -29.3040  -18.3020   20.2050 C   0  0  0  0  0  3  0  0  0  0  0  0
  -29.8060  -15.7870   20.5710 C   0  0  0  0  0  3  0  0  0  0  0  0
  -30.1550  -17.0220   20.1210 C   0  0  0  0  0  3  0  0  0  0  0  0
  -30.6620  -14.6110   20.3220 C   0  0  0  0  0  0  0  0  0  0  0  0
  -30.4190  -12.3870   19.2860 C   0  0  0  0  0  2  0  0  0  0  0  0
  -29.4850  -12.5520   18.0650 C   0  0  0  0  0  2  0  0  0  0  0  0
  -28.0050  -12.4220   18.4820 C   0  0  0  0  0  2  0  0  0  0  0  0
  -27.6550  -13.2800   19.7270 C   0  0  0  0  0  3  0  0  0  0  0  0
  -28.7050  -13.0850   20.8420 C   0  0  0  0  0  2  0  0  0  0  0  0
  -30.0270  -13.4020   20.2810 N   0  0  0  0  0  0  0  0  0  0  0  0
  -31.8370  -14.7240   19.9580 O   0  0  0  0  0  0  0  0  0  0  0  0
  -25.2540  -13.8980   20.4110 C   0  0  0  0  0  0  0  0  0  0  0  0
  -24.1840  -13.1310   20.7820 C   0  0  0  0  0  0  0  0  0  0  0  0
  -24.6470  -11.7800   20.7790 C   0  0  0  0  0  0  0  0  0  0  0  0
  -26.3010  -13.0120   20.2020 N   0  0  0  0  0  0  0  0  0  0  0  0
  -25.9380  -11.7350   20.4820 N   0  0  0  0  0  0  0  0  0  0  0  0
  -23.9220  -10.5190   20.9850 C   0  0  0  0  0  0  0  0  0  0  0  0
  -24.3600   -9.5590   21.9240 C   0  0  0  0  0  3  0  0  0  0  0  0
  -23.6330   -8.3630   22.1160 C   0  0  0  0  0  3  0  0  0  0  0  0
  -22.4560   -8.1190   21.3690 C   0  0  0  0  0  0  0  0  0  0  0  0
  -22.0390   -9.0680   20.4190 C   0  0  0  0  0  3  0  0  0  0  0  0
  -22.7650  -10.2540   20.2260 C   0  0  0  0  0  3  0  0  0  0  0  0
  -21.7010   -6.9760   21.4700 O   0  0  0  0  0  0  0  0  0  0  0  0
  -21.6690   -6.2340   22.6240 C   0  0  0  0  0  0  0  0  0  0  0  0
  -21.2740   -6.7940   23.8580 C   0  0  0  0  0  3  0  0  0  0  0  0
  -21.1900   -5.9810   25.0060 C   0  0  0  0  0  3  0  0  0  0  0  0
  -21.4900   -4.6080   24.9190 C   0  0  0  0  0  0  0  0  0  0  0  0
  -21.8780   -4.0480   23.6900 C   0  0  0  0  0  3  0  0  0  0  0  0
  -21.9640   -4.8590   22.5450 C   0  0  0  0  0  0  0  0  0  0  0  0
  -22.3170   -4.3100   21.3570 F   0  0  0  0  0  0  0  0  0  0  0  0
  -21.4030   -3.8240   26.0180 F   0  0  0  0  0  0  0  0  0  0  0  0
  -22.7830  -13.6090   21.0370 C   0  0  0  0  0  0  0  0  0  0  0  0
  -22.0520  -12.9260   21.9110 N   0  0  0  0  0  0  0  0  0  0  0  0
  -22.3450  -14.6230   20.4960 O   0  0  0  0  0  0  0  0  0  0  0  0
  -22.4210  -12.1040   22.3690 H   0  0  0  0  0  0  0  0  0  0  0  0
  -21.1130  -13.2260   22.1260 H   0  0  0  0  0  0  0  0  0  0  0  0
  -25.4270  -15.2650   20.2180 N   0  0  0  0  0  0  0  0  0  0  0  0
  -24.6810  -15.9400   20.3380 H   0  0  0  0  0  0  0  0  0  0  0  0
  -26.3000  -15.6900   19.9280 H   0  0  0  0  0  0  0  0  0  0  0  0
  1  3  1  0
  2  1  2  0
  4  3  1  0
  6  7  1  0
  6  5  1  0
  6  1  1  0
  7 50  1  6
  7  5  1  0
  7  4  1  0
  8  9  1  0
  8  2  1  0
 10 21  2  0
 11  9  1  0
 11 16  1  0
 12 20  1  0
 12 22  1  0
 13 19  1  0
 13 15  1  0
 14 20  1  0
 15 14  1  0
 16 15  2  0
 17 18  1  0
 17 11  2  0
 18 13  2  0
 19 12  1  0
 20 10  1  0
 22 24  2  0
 23 22  1  0
 25 23  1  0
 26 35  2  0
 26 31  1  0
 27 23  1  0
 27 31  1  0
 28 27  1  0
 29 30  1  0
 29 28  1  0
 30 26  1  0
 31 32  2  0
 32 33  1  0
 34 33  2  0
 35 34  1  0
 36 10  1  0
 36 41  1  0
 36 37  1  0
 37 40  1  1
 37 38  1  0
 39 37  1  0
 41 44  1  0
 42 46  1  0
 42 41  1  0
 43 42  2  0
 46 45  1  0
 48 46  1  0
 48 49  1  0
 48 47  1  0
 52 51  1  0
 52 50  1  0
 54 52  1  0
 54 53  2  0
 55 53  1  0
 56 61  1  0
 57 58  1  0
 57 56  1  0
 59 58  1  0
 59 66  1  0
 59 60  1  0
 61 55  1  0
 61 60  1  0
 62 55  2  0
 63 64  2  0
 64 83  1  0
 65 64  1  0
 65 68  1  0
 66 63  1  0
 66 67  1  0
 67 65  2  0
 68 69  1  0
 69 70  2  0
 71 74  1  0
 71 70  1  0
 72 71  2  0
 73 72  1  0
 73 68  2  0
 74 75  1  0
 75 76  1  0
 76 77  2  0
 78 77  1  0
 78 82  1  0
 79 78  2  0
 80 75  2  0
 80 79  1  0
 81 80  1  0
 83 84  1  0
 84 87  1  0
 84 86  1  0
 85 83  2  0
 88 89  1  0
 88 63  1  0
 90 88  1  0
M  ISO  4   8 101   9 101  53 100  55 100
M  END
>  <TORSDO>  (19) 
F 20

>  <SCORE>  (19) 
-13.850

>  <name>  (19) 
18

>  <ligand_id>  (19) 
18

>  <original_smiles>  (19) 
[H]C(C(=O)N1C([H])([H])C([H])([H])C([H])([H])C([H])(n2nc(-c3c([H])c([H])c(Oc4c([H])c([H])c(F)c([H])c4F)c([H])c3[H])c(C(=O)N([H])[H])c2N([H])[H])C1([H])[H])=C([H])C([H])(C([H])([H])[H])C([H])([H])C12C([H])([H])C([H])([H])C(=C([H])C([H])([H])Oc3c([H])c([H])c4c(c3[H])C([H])([H])N(C(=O)C([H])(N([H])C(=O)C([H])(N([H])C([H])([H])[H])C([H])([H])[H])C(C([H])([H])[H])(C([H])([H])[H])C([H])([H])[H])C([H])(C(=O)N([H])C3([H])c5c([H])c([H])c([H])c([H])c5C([H])([H])C([H])([H])C3([H])[H])C4([H])[H])C1([H])C2([H])[H]

>  <smiles>  (19) 
[H]C(C(=O)N1C([H])([H])C([H])([H])C([H])([H])C([H])(n2nc(-c3c([H])c([H])c(Oc4c([H])c([H])c(F)c([H])c4F)c([H])c3[H])c(C(=O)N([H])[H])c2N([H])[H])C1([H])[H])=C([H])C([H])(C([H])([H])[H])C([H])([H])C12C([H])([H])C([H])([H])C(=C([H])C([H])([H])Oc3c([H])c([H])c4c(c3[H])C([H])([H])N(C(=O)C([H])(N([H])C(=O)C([H])(N([H])C([H])([H])[H])C([H])([H])[H])C(C([H])([H])[H])(C([H])([H])[H])C([H])([H])[H])C([H])(C(=O)N([H])C3([H])c5c([H])c([H])c([H])c([H])c5C([H])([H])C([H])([H])C3([H])[H])C4([H])[H])C1([H])C2([H])[H]

$$$$
19:0:0
     RDKit          3D

 95104  0  0  1  0  0  0  0  0999 V2000
  -35.7600  -21.3690   14.4540 C   0  0  0  0  0  2  0  0  0  0  0  0
  -35.6070  -22.1490   15.6890 C   0  0  0  0  0  3  0  0  0  0  0  0
  -37.7680  -25.3000   20.3750 C   0  0  0  0  0  3  0  0  0  0  0  0
  -36.5690  -24.7350   20.8490 C   0  0  0  0  0  3  0  0  0  0  0  0
  -38.3100  -24.8700   19.1490 C   0  0  0  0  0  3  0  0  0  0  0  0
  -35.9450  -23.7040   20.1280 C   0  0  0  0  0  3  0  0  0  0  0  0
  -37.6660  -23.8620   18.3990 C   0  0  0  0  0  0  0  0  0  0  0  0
  -36.5070  -23.2420   18.9230 C   0  0  0  0  0  0  0  0  0  0  0  0
  -38.1160  -23.4760   17.0540 C   0  0  0  0  0  0  0  0  0  0  0  0
  -38.7110  -24.3340   16.2010 C   0  0  0  0  0  2  0  0  0  0  0  0
  -35.8000  -22.1040   18.1870 C   0  0  0  0  0  2  0  0  0  0  0  0
  -37.8210  -22.0310   16.6940 C   0  0  0  0  0  2  0  0  0  0  0  0
  -36.3760  -21.7450   16.8720 N   0  0  2  0  0  4  0  0  0  0  0  0
  -36.3320  -20.7390   16.8850 H   0  0  0  0  0  0  0  0  0  0  0  0
  -36.8700  -20.2590   13.7130 C   0  0  0  0  0  2  0  0  0  0  0  0
  -37.4230  -18.5700   13.9150 C   0  0  0  0  0  2  0  0  0  0  0  0
  -38.7610  -17.6580   14.5740 C   0  0  0  0  0  0  0  0  0  0  0  0
  -40.5430  -15.8440   14.1870 C   0  0  0  0  0  2  0  0  0  0  0  0
  -40.7160  -15.5250   12.6830 C   0  0  0  0  0  2  0  0  0  0  0  0
  -39.7380  -14.4210   12.2400 C   0  0  0  0  0  2  0  0  0  0  0  0
  -38.3060  -14.6590   12.7870 C   0  0  0  0  0  3  0  0  0  0  0  0
  -38.2860  -15.0890   14.2700 C   0  0  0  0  0  2  0  0  0  0  0  0
  -39.1270  -16.2940   14.4140 N   0  0  0  0  0  0  0  0  0  0  0  0
  -39.6480  -18.3090   15.1440 O   0  0  0  0  0  0  0  0  0  0  0  0
  -36.4950  -13.4190   11.4790 C   0  0  0  0  0  0  0  0  0  0  0  0
  -35.9870  -12.1580   11.5600 C   0  0  0  0  0  0  0  0  0  0  0  0
  -36.5990  -11.5620   12.7050 C   0  0  0  0  0  0  0  0  0  0  0  0
  -37.4060  -13.5400   12.5130 N   0  0  0  0  0  0  0  0  0  0  0  0
  -37.4080  -12.4330   13.3040 N   0  0  0  0  0  0  0  0  0  0  0  0
  -36.5010  -10.1920   13.2250 C   0  0  0  0  0  0  0  0  0  0  0  0
  -35.5310   -9.8360   14.1890 C   0  0  0  0  0  3  0  0  0  0  0  0
  -35.4440   -8.5100   14.6620 C   0  0  0  0  0  3  0  0  0  0  0  0
  -36.3300   -7.5240   14.1670 C   0  0  0  0  0  0  0  0  0  0  0  0
  -37.3090   -7.8860   13.2240 C   0  0  0  0  0  3  0  0  0  0  0  0
  -37.3970   -9.2080   12.7560 C   0  0  0  0  0  3  0  0  0  0  0  0
  -36.3380   -6.2150   14.5790 O   0  0  0  0  0  0  0  0  0  0  0  0
  -35.2910   -5.3710   14.3120 C   0  0  0  0  0  0  0  0  0  0  0  0
  -34.9510   -4.9970   12.9920 C   0  0  0  0  0  3  0  0  0  0  0  0
  -33.9130   -4.0710   12.7690 C   0  0  0  0  0  3  0  0  0  0  0  0
  -33.2200   -3.5130   13.8600 C   0  0  0  0  0  0  0  0  0  0  0  0
  -33.5610   -3.8790   15.1730 C   0  0  0  0  0  3  0  0  0  0  0  0
  -34.5970   -4.8030   15.3980 C   0  0  0  0  0  0  0  0  0  0  0  0
  -34.9350   -5.1370   16.6660 F   0  0  0  0  0  0  0  0  0  0  0  0
  -32.2310   -2.6130   13.6460 F   0  0  0  0  0  0  0  0  0  0  0  0
  -35.0550  -11.5130   10.5740 C   0  0  0  0  0  0  0  0  0  0  0  0
  -33.9480  -10.9630   11.0540 N   0  0  0  0  0  0  0  0  0  0  0  0
  -35.2830  -11.5470    9.3650 O   0  0  0  0  0  0  0  0  0  0  0  0
  -33.7400  -10.9800   12.0420 H   0  0  0  0  0  0  0  0  0  0  0  0
  -33.2870  -10.5350   10.4190 H   0  0  0  0  0  0  0  0  0  0  0  0
  -36.2810  -14.4750   10.6030 N   0  0  0  0  0  0  0  0  0  0  0  0
  -35.5050  -14.4510    9.9530 H   0  0  0  0  0  0  0  0  0  0  0  0
  -36.6420  -15.4010   10.7770 H   0  0  0  0  0  0  0  0  0  0  0  0
  -34.6680  -23.4850   16.2470 C   0  0  0  0  0  2  0  0  0  0  0  0
  -34.9530  -25.2430   16.1690 C   0  0  0  0  0  2  0  0  0  0  0  0
  -34.5540  -26.5120   17.1000 O   0  0  0  0  0  0  0  0  0  0  0  0
  -34.8720  -34.0530   17.0740 C   0  0  0  0  0  0  0  0  0  0  0  0
  -35.2420  -27.8150   17.2250 C   0  0  0  0  0  0  0  0  0  0  0  0
  -36.9690  -32.7950   16.7900 C   0  0  0  0  0  3  0  0  0  0  0  0
  -36.8730  -30.2770   17.3570 C   0  0  0  0  0  0  0  0  0  0  0  0
  -35.0280  -31.7530   18.1240 C   0  0  0  0  0  2  0  0  0  0  0  0
  -35.5240  -30.3400   17.7190 C   0  0  0  0  0  0  0  0  0  0  0  0
  -34.7240  -29.1170   17.6820 C   0  0  0  0  0  3  0  0  0  0  0  0
  -36.6210  -27.8610   16.9250 C   0  0  0  0  0  3  0  0  0  0  0  0
  -37.4180  -29.0340   16.9890 C   0  0  0  0  0  3  0  0  0  0  0  0
  -37.7070  -31.5580   17.3740 C   0  0  0  0  0  2  0  0  0  0  0  0
  -35.5700  -32.9000   17.3160 N   0  0  0  0  0  0  0  0  0  0  0  0
  -35.3730  -34.9980   16.4440 O   0  0  0  0  0  0  0  0  0  0  0  0
  -37.0360  -32.7480   15.2440 C   0  0  0  0  0  0  0  0  0  0  0  0
  -38.2030  -33.0860   14.6640 N   0  0  0  0  0  0  0  0  0  0  0  0
  -36.0560  -32.3880   14.5890 O   0  0  0  0  0  0  0  0  0  0  0  0
  -38.9610  -33.3900   15.2590 H   0  0  0  0  0  0  0  0  0  0  0  0
  -40.8060  -33.5150   12.1770 C   0  0  0  0  0  0  0  0  0  0  0  0
  -38.4880  -33.0460   13.2270 C   0  0  0  0  0  3  0  0  0  0  0  0
  -38.6750  -31.5920   12.7340 C   0  0  0  0  0  2  0  0  0  0  0  0
  -40.1370  -31.1370   12.7380 C   0  0  0  0  0  2  0  0  0  0  0  0
  -40.9850  -32.0430   11.8390 C   0  0  0  0  0  2  0  0  0  0  0  0
  -39.6420  -33.9820   12.8430 C   0  0  0  0  0  0  0  0  0  0  0  0
  -39.5450  -35.3530   13.1620 C   0  0  0  0  0  3  0  0  0  0  0  0
  -40.5810  -36.2470   12.8300 C   0  0  0  0  0  3  0  0  0  0  0  0
  -41.7230  -35.7790   12.1580 C   0  0  0  0  0  3  0  0  0  0  0  0
  -41.8350  -34.4160   11.8320 C   0  0  0  0  0  3  0  0  0  0  0  0
  -33.4150  -34.2510   17.5930 C   0  0  0  0  0  3  0  0  0  0  0  0
  -33.3810  -35.4910   18.3860 N   0  0  0  0  0  0  0  0  0  0  0  0
  -33.4070  -35.5480   19.7250 C   0  0  0  0  0  0  0  0  0  0  0  0
  -33.4040  -34.5380   20.4330 O   0  0  0  0  0  0  0  0  0  0  0  0
  -33.4340  -36.3570   17.8700 H   0  0  0  0  0  0  0  0  0  0  0  0
  -34.8740  -37.2680   20.8340 C   0  0  0  0  0  1  0  0  0  0  0  0
  -33.4420  -36.9420   20.3820 C   0  0  0  0  0  3  0  0  0  0  0  0
  -31.1420  -37.3530   21.1400 C   0  0  0  0  0  1  0  0  0  0  0  0
  -32.5200  -37.0750   21.5320 N   0  0  0  0  0  0  0  0  0  0  0  0
  -32.8270  -37.8160   22.1560 H   0  0  0  0  0  0  0  0  0  0  0  0
  -32.3460  -34.3190   16.4320 C   0  0  1  0  0  0  0  0  0  0  0  0
  -32.2790  -35.6970   15.7300 C   0  0  0  0  0  1  0  0  0  0  0  0
  -32.6390  -33.2560   15.3480 C   0  0  0  0  0  1  0  0  0  0  0  0
  -30.9390  -34.0040   16.9920 C   0  0  0  0  0  1  0  0  0  0  0  0
  2  1  1  0
  2 53  1  0
  2 13  1  0
  3  4  1  0
  5  3  2  0
  6  4  2  0
  7  8  2  0
  7  5  1  0
  8  6  1  0
  9  7  1  0
 10  9  2  0
 11  8  1  0
 12 13  1  0
 12  9  1  0
 13 14  1  1
 13 11  1  0
 15 16  1  0
 15  1  1  0
 16 17  1  0
 17 24  2  0
 18 23  1  0
 19 18  1  0
 20 19  1  0
 21 20  1  0
 21 22  1  0
 22 23  1  0
 23 17  1  0
 25 26  2  0
 25 28  1  0
 26 27  1  0
 27 30  1  0
 27 29  2  0
 28 21  1  0
 28 29  1  0
 30 31  1  0
 31 32  2  0
 33 36  1  0
 33 32  1  0
 34 33  2  0
 35 34  1  0
 35 30  2  0
 37 36  1  0
 37 42  1  0
 38 37  2  0
 39 38  1  0
 39 40  2  0
 40 41  1  0
 41 42  2  0
 42 43  1  0
 44 40  1  0
 45 46  1  0
 45 26  1  0
 46 48  1  0
 47 45  2  0
 49 46  1  0
 50 52  1  0
 50 25  1  0
 51 50  1  0
 54 53  1  0
 54 55  1  0
 55 57  1  0
 56 66  1  0
 57 62  1  0
 58 68  1  0
 58 66  1  0
 58 65  1  0
 59 65  1  0
 59 61  1  0
 61 60  1  0
 62 61  2  0
 63 64  1  0
 63 57  2  0
 64 59  2  0
 66 60  1  0
 67 56  2  0
 69 68  1  0
 69 71  1  0
 70 68  2  0
 72 77  1  0
 73 69  1  0
 74 75  1  0
 74 73  1  0
 76 72  1  0
 76 75  1  0
 77 78  2  0
 77 73  1  0
 79 78  1  0
 80 79  2  0
 81 80  1  0
 81 72  2  0
 82 56  1  0
 82 83  1  0
 83 84  1  0
 84 88  1  0
 84 85  2  0
 86 83  1  0
 88 87  1  0
 88 90  1  0
 89 90  1  0
 90 91  1  0
 92 95  1  1
 92 82  1  0
 93 92  1  0
 94 92  1  0
M  ISO  4  16 100  17 100  54 101  55 101
M  END
>  <TORSDO>  (20) 
F 21

>  <SCORE>  (20) 
-4.326

>  <name>  (20) 
19

>  <ligand_id>  (20) 
19

>  <original_smiles>  (20) 
[H]C([H])=C1c2c([H])c([H])c([H])c([H])c2C([H])([H])[N+]([H])(C(=C([H])C([H])([H])C([H])([H])C(=O)N2C([H])([H])C([H])([H])C([H])([H])C([H])(n3nc(-c4c([H])c([H])c(Oc5c([H])c([H])c(F)c([H])c5F)c([H])c4[H])c(C(=O)N([H])[H])c3N([H])[H])C2([H])[H])C([H])([H])C([H])([H])Oc2c([H])c([H])c3c(c2[H])C([H])([H])N(C(=O)C([H])(N([H])C(=O)C([H])(N([H])C([H])([H])[H])C([H])([H])[H])C(C([H])([H])[H])(C([H])([H])[H])C([H])([H])[H])C([H])(C(=O)N([H])C2([H])c4c([H])c([H])c([H])c([H])c4C([H])([H])C([H])([H])C2([H])[H])C3([H])[H])C1([H])[H]

>  <smiles>  (20) 
[H]C([H])=C1c2c([H])c([H])c([H])c([H])c2C([H])([H])[N+]([H])(C(=C([H])C([H])([H])C([H])([H])C(=O)N2C([H])([H])C([H])([H])C([H])([H])C([H])(n3nc(-c4c([H])c([H])c(Oc5c([H])c([H])c(F)c([H])c5F)c([H])c4[H])c(C(=O)N([H])[H])c3N([H])[H])C2([H])[H])C([H])([H])C([H])([H])Oc2c([H])c([H])c3c(c2[H])C([H])([H])N(C(=O)C([H])(N([H])C(=O)C([H])(N([H])C([H])([H])[H])C([H])([H])[H])C(C([H])([H])[H])(C([H])([H])[H])C([H])([H])[H])C([H])(C(=O)N([H])C2([H])c4c([H])c([H])c([H])c([H])c4C([H])([H])C([H])([H])C2([H])[H])C3([H])[H])C1([H])[H]

$$$$
20:0:0
     RDKit          3D

 94102  0  0  1  0  0  0  0  0999 V2000
  -28.3000  -20.7280   18.1520 C   0  0  0  0  0  2  0  0  0  0  0  0
  -29.3640  -20.5460   17.0500 C   0  0  0  0  0  2  0  0  0  0  0  0
  -30.7850  -21.0470   17.3850 C   0  0  0  0  0  2  0  0  0  0  0  0
  -33.1770  -20.3870   17.9350 C   0  0  0  0  0  1  0  0  0  0  0  0
  -31.6990  -19.9780   18.0200 C   0  0  0  0  0  3  0  0  0  0  0  0
  -30.8210  -18.4700   19.8370 C   0  0  0  0  0  3  0  0  0  0  0  0
  -31.3400  -19.6490   19.4580 C   0  0  0  0  0  3  0  0  0  0  0  0
  -30.5540  -18.0430   21.2660 C   0  0  0  0  0  2  0  0  0  0  0  0
  -30.5340  -15.6540   22.4820 C   0  0  0  0  0  2  0  0  0  0  0  0
  -30.1910  -15.4910   21.0180 C   0  0  0  0  0  3  0  0  0  0  0  0
  -31.0790  -16.6360   21.4720 C   0  0  0  0  0  3  0  0  0  0  0  0
  -30.8320  -14.4070   20.2040 C   0  0  0  0  0  0  0  0  0  0  0  0
  -30.3980  -12.3400   18.9240 C   0  0  0  0  0  2  0  0  0  0  0  0
  -29.4140  -12.6610   17.7810 C   0  0  0  0  0  2  0  0  0  0  0  0
  -27.9560  -12.5620   18.2720 C   0  0  0  0  0  2  0  0  0  0  0  0
  -27.7100  -13.3280   19.6010 C   0  0  0  0  0  3  0  0  0  0  0  0
  -28.8050  -12.9960   20.6390 C   0  0  0  0  0  2  0  0  0  0  0  0
  -30.1130  -13.2700   20.0250 N   0  0  0  0  0  0  0  0  0  0  0  0
  -31.9010  -14.6140   19.6200 O   0  0  0  0  0  0  0  0  0  0  0  0
  -25.3460  -13.9590   20.4050 C   0  0  0  0  0  0  0  0  0  0  0  0
  -24.2830  -13.1950   20.8100 C   0  0  0  0  0  0  0  0  0  0  0  0
  -24.7260  -11.8390   20.7480 C   0  0  0  0  0  0  0  0  0  0  0  0
  -26.3710  -13.0670   20.1250 N   0  0  0  0  0  0  0  0  0  0  0  0
  -26.0010  -11.7860   20.3840 N   0  0  0  0  0  0  0  0  0  0  0  0
  -23.9930  -10.5850   20.9580 C   0  0  0  0  0  0  0  0  0  0  0  0
  -24.4530   -9.6010   21.8610 C   0  0  0  0  0  3  0  0  0  0  0  0
  -23.7210   -8.4100   22.0550 C   0  0  0  0  0  3  0  0  0  0  0  0
  -22.5130   -8.1960   21.3490 C   0  0  0  0  0  0  0  0  0  0  0  0
  -22.0710   -9.1690   20.4360 C   0  0  0  0  0  3  0  0  0  0  0  0
  -22.8020  -10.3520   20.2390 C   0  0  0  0  0  3  0  0  0  0  0  0
  -21.7480   -7.0610   21.4560 O   0  0  0  0  0  0  0  0  0  0  0  0
  -21.7410   -6.3040   22.6010 C   0  0  0  0  0  0  0  0  0  0  0  0
  -21.4060   -6.8560   23.8560 C   0  0  0  0  0  3  0  0  0  0  0  0
  -21.3430   -6.0270   24.9950 C   0  0  0  0  0  3  0  0  0  0  0  0
  -21.6060   -4.6480   24.8780 C   0  0  0  0  0  0  0  0  0  0  0  0
  -21.9340   -4.0970   23.6280 C   0  0  0  0  0  3  0  0  0  0  0  0
  -21.9990   -4.9230   22.4920 C   0  0  0  0  0  0  0  0  0  0  0  0
  -22.2960   -4.3830   21.2850 F   0  0  0  0  0  0  0  0  0  0  0  0
  -21.5380   -3.8510   25.9710 F   0  0  0  0  0  0  0  0  0  0  0  0
  -22.9040  -13.6890   21.1470 C   0  0  0  0  0  0  0  0  0  0  0  0
  -22.2100  -12.9990   22.0470 N   0  0  0  0  0  0  0  0  0  0  0  0
  -22.4520  -14.7170   20.6470 O   0  0  0  0  0  0  0  0  0  0  0  0
  -22.5900  -12.1650   22.4690 H   0  0  0  0  0  0  0  0  0  0  0  0
  -21.2880  -13.3090   22.3180 H   0  0  0  0  0  0  0  0  0  0  0  0
  -25.5190  -15.3280   20.2350 N   0  0  0  0  0  0  0  0  0  0  0  0
  -24.7670  -15.9920   20.3880 H   0  0  0  0  0  0  0  0  0  0  0  0
  -26.3660  -15.7590   19.8870 H   0  0  0  0  0  0  0  0  0  0  0  0
  -27.6960  -22.1440   18.2380 C   0  0  0  0  0  2  0  0  0  0  0  0
  -28.4750  -23.0690   19.0940 N   0  0  0  0  0  4  0  0  0  0  0  0
  -29.4080  -23.1590   18.7230 H   0  0  0  0  0  0  0  0  0  0  0  0
  -28.5460  -22.6590   20.0140 H   0  0  0  0  0  0  0  0  0  0  0  0
  -27.8570  -24.4140   19.2000 C   0  0  0  0  0  2  0  0  0  0  0  0
  -28.4560  -25.3120   20.3110 C   0  0  0  0  0  2  0  0  0  0  0  0
  -28.4250  -26.7310   20.0620 O   0  0  0  0  0  0  0  0  0  0  0  0
  -24.6480  -31.8730   23.2620 C   0  0  0  0  0  0  0  0  0  0  0  0
  -27.2310  -27.4220   20.1300 C   0  0  0  0  0  0  0  0  0  0  0  0
  -23.4190  -30.4870   21.6250 C   0  0  0  0  0  3  0  0  0  0  0  0
  -24.8460  -28.9480   20.1900 C   0  0  0  0  0  0  0  0  0  0  0  0
  -25.9470  -30.8270   21.4080 C   0  0  0  0  0  2  0  0  0  0  0  0
  -26.0150  -29.4570   20.7690 C   0  0  0  0  0  0  0  0  0  0  0  0
  -27.2110  -28.7020   20.7370 C   0  0  0  0  0  3  0  0  0  0  0  0
  -26.0420  -26.9450   19.5370 C   0  0  0  0  0  3  0  0  0  0  0  0
  -24.8530  -27.6890   19.5770 C   0  0  0  0  0  3  0  0  0  0  0  0
  -23.6110  -29.8150   20.2430 C   0  0  0  0  0  2  0  0  0  0  0  0
  -24.6900  -31.0760   22.1570 N   0  0  0  0  0  0  0  0  0  0  0  0
  -23.5720  -32.1500   23.8090 O   0  0  0  0  0  0  0  0  0  0  0  0
  -22.7700  -29.4640   22.5840 C   0  0  0  0  0  0  0  0  0  0  0  0
  -21.4440  -29.2860   22.4610 N   0  0  0  0  0  0  0  0  0  0  0  0
  -23.4560  -28.8320   23.3920 O   0  0  0  0  0  0  0  0  0  0  0  0
  -20.9560  -29.8470   21.7760 H   0  0  0  0  0  0  0  0  0  0  0  0
  -18.0680  -28.1020   22.9600 C   0  0  0  0  0  0  0  0  0  0  0  0
  -20.6270  -28.3500   23.2300 C   0  0  0  0  0  3  0  0  0  0  0  0
  -20.7240  -26.9200   22.6510 C   0  0  0  0  0  2  0  0  0  0  0  0
  -19.6190  -26.6020   21.6370 C   0  0  0  0  0  2  0  0  0  0  0  0
  -18.2390  -26.7510   22.2840 C   0  0  0  0  0  2  0  0  0  0  0  0
  -19.1890  -28.8590   23.3900 C   0  0  0  0  0  0  0  0  0  0  0  0
  -18.9770  -30.1220   23.9820 C   0  0  0  0  0  3  0  0  0  0  0  0
  -17.6750  -30.6300   24.1470 C   0  0  0  0  0  3  0  0  0  0  0  0
  -16.5670  -29.8700   23.7350 C   0  0  0  0  0  3  0  0  0  0  0  0
  -16.7640  -28.6080   23.1470 C   0  0  0  0  0  3  0  0  0  0  0  0
  -25.9450  -32.4890   23.8740 C   0  0  0  0  0  3  0  0  0  0  0  0
  -26.4700  -31.7010   25.1360 C   0  0  1  0  0  0  0  0  0  0  0  0
  -25.3860  -31.4590   26.2120 C   0  0  0  0  0  1  0  0  0  0  0  0
  -27.0390  -30.3230   24.7230 C   0  0  0  0  0  1  0  0  0  0  0  0
  -27.6380  -32.4780   25.7890 C   0  0  0  0  0  1  0  0  0  0  0  0
  -25.6480  -33.8860   24.2170 N   0  0  0  0  0  0  0  0  0  0  0  0
  -25.9790  -34.9390   23.4560 C   0  0  0  0  0  0  0  0  0  0  0  0
  -26.6390  -34.8350   22.4170 O   0  0  0  0  0  0  0  0  0  0  0  0
  -25.0630  -34.0400   25.0240 H   0  0  0  0  0  0  0  0  0  0  0  0
  -24.2550  -36.7370   23.1240 C   0  0  0  0  0  1  0  0  0  0  0  0
  -25.5050  -36.3280   23.9210 C   0  0  0  0  0  3  0  0  0  0  0  0
  -27.6560  -37.1950   24.7250 C   0  0  0  0  0  1  0  0  0  0  0  0
  -26.5420  -37.3760   23.7980 N   0  0  0  0  0  0  0  0  0  0  0  0
  -26.1440  -38.2980   23.9540 H   0  0  0  0  0  0  0  0  0  0  0  0
  1 48  1  0
  2  3  1  0
  2  1  1  0
  3  5  1  0
  5  4  1  0
  5  7  1  0
  6  8  1  0
  7  6  2  0
 10 12  1  0
 10 11  1  0
 10  9  1  0
 11  8  1  0
 11  9  1  0
 13 18  1  0
 14 15  1  0
 14 13  1  0
 16 15  1  0
 16 23  1  0
 16 17  1  0
 18 12  1  0
 18 17  1  0
 19 12  2  0
 20 21  2  0
 21 40  1  0
 22 21  1  0
 22 25  1  0
 23 24  1  0
 23 20  1  0
 24 22  2  0
 25 26  1  0
 26 27  2  0
 28 31  1  0
 28 27  1  0
 29 28  2  0
 30 29  1  0
 30 25  2  0
 31 32  1  0
 32 33  1  0
 33 34  2  0
 35 34  1  0
 35 39  1  0
 36 35  2  0
 37 32  2  0
 37 36  1  0
 38 37  1  0
 40 41  1  0
 41 44  1  0
 41 43  1  0
 42 40  2  0
 45 46  1  0
 45 20  1  0
 47 45  1  0
 48 49  1  0
 49 52  1  0
 49 51  1  0
 50 49  1  0
 52 53  1  0
 54 56  1  0
 54 53  1  0
 55 66  2  0
 56 61  1  0
 57 65  1  0
 57 67  1  0
 58 64  1  0
 58 60  1  0
 59 65  1  0
 60 59  1  0
 61 60  2  0
 62 63  1  0
 62 56  2  0
 63 58  2  0
 64 57  1  0
 65 55  1  0
 67 69  2  0
 68 67  1  0
 70 68  1  0
 71 80  2  0
 71 76  1  0
 72 68  1  0
 72 76  1  0
 73 72  1  0
 74 75  1  0
 74 73  1  0
 75 71  1  0
 76 77  2  0
 77 78  1  0
 79 78  2  0
 80 79  1  0
 81 55  1  0
 81 86  1  0
 81 82  1  0
 82 85  1  1
 82 83  1  0
 84 82  1  0
 86 89  1  0
 87 91  1  0
 87 86  1  0
 88 87  2  0
 91 90  1  0
 93 91  1  0
 93 94  1  0
 93 92  1  0
M  ISO  4  10 100  12 100  53 101  54 101
M  END
>  <TORSDO>  (21) 
F 26

>  <SCORE>  (21) 
-11.330

>  <name>  (21) 
20

>  <ligand_id>  (21) 
20

>  <original_smiles>  (21) 
[H]C(=C([H])C([H])(C([H])([H])[H])C([H])([H])C([H])([H])C([H])([H])C([H])([H])[N+]([H])([H])C([H])([H])C([H])([H])Oc1c([H])c([H])c2c(c1[H])C([H])([H])N(C(=O)C([H])(N([H])C(=O)C([H])(N([H])C([H])([H])[H])C([H])([H])[H])C(C([H])([H])[H])(C([H])([H])[H])C([H])([H])[H])C([H])(C(=O)N([H])C1([H])c3c([H])c([H])c([H])c([H])c3C([H])([H])C([H])([H])C1([H])[H])C2([H])[H])C([H])([H])C1([H])C([H])([H])C1([H])C(=O)N1C([H])([H])C([H])([H])C([H])([H])C([H])(n2nc(-c3c([H])c([H])c(Oc4c([H])c([H])c(F)c([H])c4F)c([H])c3[H])c(C(=O)N([H])[H])c2N([H])[H])C1([H])[H]

>  <smiles>  (21) 
[H]C(=C([H])C([H])(C([H])([H])[H])C([H])([H])C([H])([H])C([H])([H])C([H])([H])[N+]([H])([H])C([H])([H])C([H])([H])Oc1c([H])c([H])c2c(c1[H])C([H])([H])N(C(=O)C([H])(N([H])C(=O)C([H])(N([H])C([H])([H])[H])C([H])([H])[H])C(C([H])([H])[H])(C([H])([H])[H])C([H])([H])[H])C([H])(C(=O)N([H])C1([H])c3c([H])c([H])c([H])c([H])c3C([H])([H])C([H])([H])C1([H])[H])C2([H])[H])C([H])([H])C1([H])C([H])([H])C1([H])C(=O)N1C([H])([H])C([H])([H])C([H])([H])C([H])(n2nc(-c3c([H])c([H])c(Oc4c([H])c([H])c(F)c([H])c4F)c([H])c3[H])c(C(=O)N([H])[H])c2N([H])[H])C1([H])[H]

$$$$
21:0:0
     RDKit          3D

 86 91  0  0  1  0  0  0  0  0999 V2000
  -29.3310  -17.8430   20.0110 C   0  0  0  0  0  0  0  0  0  0  0  0
  -29.4580  -19.3970   20.4080 C   0  0  0  0  0  3  0  0  0  0  0  0
  -28.2840  -17.8760   18.8820 C   0  0  0  0  0  2  0  0  0  0  0  0
  -27.3420  -19.1580   18.7720 C   0  0  0  0  0  2  0  0  0  0  0  0
  -27.9090  -20.6430   18.6740 C   0  0  0  0  0  2  0  0  0  0  0  0
  -28.7910  -21.1780   19.8560 C   0  0  0  0  0  1  0  0  0  0  0  0
  -30.0830  -16.1610   20.2210 C   0  0  0  0  0  0  0  0  0  0  0  0
  -30.3190  -13.4970   19.4700 C   0  0  0  0  0  2  0  0  0  0  0  0
  -29.4940  -12.8460   18.3060 C   0  0  0  0  0  2  0  0  0  0  0  0
  -28.1110  -12.3890   18.7810 C   0  0  0  0  0  2  0  0  0  0  0  0
  -27.5090  -13.4340   19.7370 C   0  0  0  0  0  3  0  0  0  0  0  0
  -28.4920  -13.9710   20.8160 C   0  0  0  0  0  2  0  0  0  0  0  0
  -29.5990  -14.7210   20.1280 N   0  0  0  0  0  0  0  0  0  0  0  0
  -31.3270  -15.9600   20.2430 O   0  0  0  0  0  0  0  0  0  0  0  0
  -25.1440  -13.9170   20.4850 C   0  0  0  0  0  0  0  0  0  0  0  0
  -24.0890  -13.1290   20.8380 C   0  0  0  0  0  0  0  0  0  0  0  0
  -24.5750  -11.7840   20.8290 C   0  0  0  0  0  0  0  0  0  0  0  0
  -26.2040  -13.0600   20.2690 N   0  0  0  0  0  0  0  0  0  0  0  0
  -25.8760  -11.7660   20.5410 N   0  0  0  0  0  0  0  0  0  0  0  0
  -23.8520  -10.5180   21.0170 C   0  0  0  0  0  0  0  0  0  0  0  0
  -24.2660   -9.5580   21.9670 C   0  0  0  0  0  3  0  0  0  0  0  0
  -23.5350   -8.3640   22.1480 C   0  0  0  0  0  3  0  0  0  0  0  0
  -22.3730   -8.1210   21.3770 C   0  0  0  0  0  0  0  0  0  0  0  0
  -21.9760   -9.0690   20.4190 C   0  0  0  0  0  3  0  0  0  0  0  0
  -22.7090  -10.2520   20.2350 C   0  0  0  0  0  3  0  0  0  0  0  0
  -21.6170   -6.9750   21.4650 O   0  0  0  0  0  0  0  0  0  0  0  0
  -21.5520   -6.2410   22.6210 C   0  0  0  0  0  0  0  0  0  0  0  0
  -21.1180   -6.8050   23.8400 C   0  0  0  0  0  3  0  0  0  0  0  0
  -20.9960   -5.9960   24.9880 C   0  0  0  0  0  3  0  0  0  0  0  0
  -21.3090   -4.6250   24.9220 C   0  0  0  0  0  0  0  0  0  0  0  0
  -21.7400   -4.0600   23.7070 C   0  0  0  0  0  3  0  0  0  0  0  0
  -21.8580   -4.8640   22.5610 C   0  0  0  0  0  0  0  0  0  0  0  0
  -22.2520   -4.3110   21.3890 F   0  0  0  0  0  0  0  0  0  0  0  0
  -21.1880   -3.8460   26.0210 F   0  0  0  0  0  0  0  0  0  0  0  0
  -22.6810  -13.5950   21.0600 C   0  0  0  0  0  0  0  0  0  0  0  0
  -21.9370  -12.9180   21.9240 N   0  0  0  0  0  0  0  0  0  0  0  0
  -22.2500  -14.6060   20.5060 O   0  0  0  0  0  0  0  0  0  0  0  0
  -22.2950  -12.1070   22.4070 H   0  0  0  0  0  0  0  0  0  0  0  0
  -20.9900  -13.2170   22.1120 H   0  0  0  0  0  0  0  0  0  0  0  0
  -25.2830  -15.2880   20.2870 N   0  0  0  0  0  0  0  0  0  0  0  0
  -24.4950  -15.9190   20.3810 H   0  0  0  0  0  0  0  0  0  0  0  0
  -26.1230  -15.7470   19.9650 H   0  0  0  0  0  0  0  0  0  0  0  0
  -30.4220  -19.6830   21.2930 O   0  0  0  0  0  0  0  0  0  0  0  0
  -30.5970  -20.6160   21.2430 H   0  0  0  0  0  0  0  0  0  0  0  0
  -28.2050  -23.1690   20.4180 C   0  0  0  0  0 15  0  0  0  0  0  0
  -28.1760  -25.0910   20.2080 O   0  0  0  0  0  1  0  0  0  0  0  0
  -24.6780  -31.8130   23.1520 C   0  0  0  0  0  0  0  0  0  0  0  0
  -27.2120  -26.4270   20.2560 C   0  0  0  0  0  0  0  0  0  0  0  0
  -23.5090  -30.3770   21.5440 C   0  0  0  0  0  3  0  0  0  0  0  0
  -24.9610  -28.6490   20.1840 C   0  0  0  0  0  0  0  0  0  0  0  0
  -26.1030  -30.4350   21.4550 C   0  0  0  0  0  2  0  0  0  0  0  0
  -26.1680  -28.9580   20.8220 C   0  0  0  0  0  0  0  0  0  0  0  0
  -27.2650  -27.8890   20.8080 C   0  0  0  0  0  3  0  0  0  0  0  0
  -25.9610  -26.4060   19.5650 C   0  0  0  0  0  3  0  0  0  0  0  0
  -24.9140  -27.3990   19.5320 C   0  0  0  0  0  3  0  0  0  0  0  0
  -23.7660  -29.6340   20.1970 C   0  0  0  0  0  2  0  0  0  0  0  0
  -24.7930  -30.9190   22.1000 N   0  0  0  0  0  0  0  0  0  0  0  0
  -23.5760  -32.1270   23.6390 O   0  0  0  0  0  0  0  0  0  0  0  0
  -22.7650  -29.4410   22.5390 C   0  0  0  0  0  0  0  0  0  0  0  0
  -21.4290  -29.3020   22.4190 N   0  0  0  0  0  0  0  0  0  0  0  0
  -23.4110  -28.8280   23.3930 O   0  0  0  0  0  0  0  0  0  0  0  0
  -20.9580  -29.8430   21.7060 H   0  0  0  0  0  0  0  0  0  0  0  0
  -18.0320  -28.1010   22.9640 C   0  0  0  0  0  0  0  0  0  0  0  0
  -20.5940  -28.3810   23.2070 C   0  0  0  0  0  3  0  0  0  0  0  0
  -20.6940  -26.9390   22.6580 C   0  0  0  0  0  2  0  0  0  0  0  0
  -19.5890  -26.6000   21.6520 C   0  0  0  0  0  2  0  0  0  0  0  0
  -18.2100  -26.7460   22.3000 C   0  0  0  0  0  2  0  0  0  0  0  0
  -19.1490  -28.8760   23.3760 C   0  0  0  0  0  0  0  0  0  0  0  0
  -18.9240  -30.1370   23.9680 C   0  0  0  0  0  3  0  0  0  0  0  0
  -17.6170  -30.6280   24.1430 C   0  0  0  0  0  3  0  0  0  0  0  0
  -16.5150  -29.8520   23.7440 C   0  0  0  0  0  3  0  0  0  0  0  0
  -16.7230  -28.5890   23.1620 C   0  0  0  0  0  3  0  0  0  0  0  0
  -25.9210  -32.4980   23.7990 C   0  0  0  0  0  3  0  0  0  0  0  0
  -25.5690  -33.8970   24.1330 N   0  0  0  0  0  0  0  0  0  0  0  0
  -25.8890  -34.9770   23.4040 C   0  0  0  0  0  0  0  0  0  0  0  0
  -26.5610  -34.8970   22.3740 O   0  0  0  0  0  0  0  0  0  0  0  0
  -24.9660  -34.0290   24.9320 H   0  0  0  0  0  0  0  0  0  0  0  0
  -24.1400  -36.7700   23.1060 C   0  0  0  0  0  1  0  0  0  0  0  0
  -25.3990  -36.3600   23.8900 C   0  0  0  0  0  3  0  0  0  0  0  0
  -27.5340  -37.2680   24.7030 C   0  0  0  0  0  1  0  0  0  0  0  0
  -26.4200  -37.4270   23.7710 N   0  0  0  0  0  0  0  0  0  0  0  0
  -26.0070  -38.3440   23.9220 H   0  0  0  0  0  0  0  0  0  0  0  0
  -26.4180  -31.7610   25.1070 C   0  0  1  0  0  0  0  0  0  0  0  0
  -25.3090  -31.5390   26.1640 C   0  0  0  0  0  1  0  0  0  0  0  0
  -27.0170  -30.3790   24.7700 C   0  0  0  0  0  1  0  0  0  0  0  0
  -27.5550  -32.5750   25.7670 C   0  0  0  0  0  1  0  0  0  0  0  0
  1  7  1  0
  1  2  2  0
  2 43  1  0
  3  1  1  0
  4  3  1  0
  5  4  1  0
  5  6  1  0
  7 14  2  0
  8 13  1  0
  9 10  1  0
  9  8  1  0
 11 10  1  0
 11 18  1  0
 11 12  1  0
 13  7  1  0
 13 12  1  0
 15 16  2  0
 16 35  1  0
 17 16  1  0
 17 20  1  0
 18 15  1  0
 18 19  1  0
 19 17  2  0
 20 21  1  0
 21 22  2  0
 23 26  1  0
 23 22  1  0
 24 23  2  0
 25 24  1  0
 25 20  2  0
 26 27  1  0
 27 28  1  0
 28 29  2  0
 30 29  1  0
 30 34  1  0
 31 30  2  0
 32 27  2  0
 32 31  1  0
 33 32  1  0
 35 36  1  0
 36 39  1  0
 36 38  1  0
 37 35  2  0
 40 41  1  0
 40 15  1  0
 42 40  1  0
 44 43  1  0
 46 48  1  0
 47 58  2  0
 48 53  1  0
 49 57  1  0
 49 59  1  0
 50 56  1  0
 50 52  1  0
 51 57  1  0
 52 51  1  0
 53 52  2  0
 54 48  2  0
 55 54  1  0
 55 50  2  0
 56 49  1  0
 57 47  1  0
 59 61  2  0
 60 59  1  0
 62 60  1  0
 63 72  2  0
 63 68  1  0
 64 60  1  0
 64 68  1  0
 65 64  1  0
 66 67  1  0
 66 65  1  0
 67 63  1  0
 68 69  2  0
 69 70  1  0
 71 70  2  0
 72 71  1  0
 73 47  1  0
 73 74  1  0
 73 83  1  0
 74 77  1  0
 75 79  1  0
 75 74  1  0
 76 75  2  0
 79 78  1  0
 81 79  1  0
 81 82  1  0
 81 80  1  0
 83 86  1  1
 83 84  1  0
 85 83  1  0
M  ISO  4   1 100   7 100  45 101  46 101
M  END
>  <TORSDO>  (22) 
F 18

>  <SCORE>  (22) 
-16.270

>  <name>  (22) 
21

>  <ligand_id>  (22) 
21

>  <original_smiles>  (22) 
[H]OC1=C(C(=O)N2C([H])([H])C([H])([H])C([H])([H])C([H])(n3nc(-c4c([H])c([H])c(Oc5c([H])c([H])c(F)c([H])c5F)c([H])c4[H])c(C(=O)N([H])[H])c3N([H])[H])C2([H])[H])C([H])([H])C([H])([H])C([H])([H])C1([H])C([H])([H])Oc1c([H])c([H])c2c(c1[H])C([H])([H])N(C(=O)C([H])(N([H])C(=O)C([H])(N([H])C([H])([H])[H])C([H])([H])[H])C(C([H])([H])[H])(C([H])([H])[H])C([H])([H])[H])C([H])(C(=O)N([H])C1([H])c3c([H])c([H])c([H])c([H])c3C([H])([H])C([H])([H])C1([H])[H])C2([H])[H]

>  <smiles>  (22) 
[H]OC1=C(C(=O)N2C([H])([H])C([H])([H])C([H])([H])C([H])(n3nc(-c4c([H])c([H])c(Oc5c([H])c([H])c(F)c([H])c5F)c([H])c4[H])c(C(=O)N([H])[H])c3N([H])[H])C2([H])[H])C([H])([H])C([H])([H])C([H])([H])C1([H])C([H])([H])Oc1c([H])c([H])c2c(c1[H])C([H])([H])N(C(=O)C([H])(N([H])C(=O)C([H])(N([H])C([H])([H])[H])C([H])([H])[H])C(C([H])([H])[H])(C([H])([H])[H])C([H])([H])[H])C([H])(C(=O)N([H])C1([H])c3c([H])c([H])c([H])c([H])c3C([H])([H])C([H])([H])C1([H])[H])C2([H])[H]

$$$$
22:0:0
     RDKit          3D

 89 97  0  0  1  0  0  0  0  0999 V2000
  -29.1820  -21.5550   21.6500 C   0  0  0  0  0  3  0  0  0  0  0  0
  -28.8160  -21.8500   19.2990 C   0  0  0  0  0  3  0  0  0  0  0  0
  -28.9580  -22.9520   21.8430 C   0  0  0  0  0  3  0  0  0  0  0  0
  -28.5860  -23.2520   19.4940 C   0  0  0  0  0  3  0  0  0  0  0  0
  -29.0900  -20.9480   20.3710 C   0  0  0  0  0  0  0  0  0  0  0  0
  -28.6270  -23.8460   20.7830 C   0  0  0  0  0  0  0  0  0  0  0  0
  -29.1620  -19.3790   20.1420 C   0  0  0  0  0  2  0  0  0  0  0  0
  -30.2460  -17.3090   21.1040 C   0  0  0  0  0  0  0  0  0  0  0  0
  -31.2480  -16.8580   22.1560 C   0  0  0  0  0  1  0  0  0  0  0  0
  -30.0840  -18.6100   21.0180 N   0  0  0  0  0  0  0  0  0  0  0  0
  -29.5440  -16.0990   20.3520 C   0  0  0  0  0  2  0  0  0  0  0  0
  -30.3800  -14.7590   20.0610 C   0  0  0  0  0  0  0  0  0  0  0  0
  -30.1590  -12.5250   18.9880 C   0  0  0  0  0  2  0  0  0  0  0  0
  -29.1490  -12.6530   17.8250 C   0  0  0  0  0  2  0  0  0  0  0  0
  -27.7040  -12.4550   18.3260 C   0  0  0  0  0  2  0  0  0  0  0  0
  -27.3940  -13.2800   19.6030 C   0  0  0  0  0  3  0  0  0  0  0  0
  -28.5180  -13.1380   20.6520 C   0  0  0  0  0  2  0  0  0  0  0  0
  -29.7850  -13.5200   20.0160 N   0  0  0  0  0  0  0  0  0  0  0  0
  -31.5370  -14.8800   19.6480 O   0  0  0  0  0  0  0  0  0  0  0  0
  -25.0310  -13.7940   20.4690 C   0  0  0  0  0  0  0  0  0  0  0  0
  -24.0060  -12.9850   20.8780 C   0  0  0  0  0  0  0  0  0  0  0  0
  -24.5000  -11.6470   20.7920 C   0  0  0  0  0  0  0  0  0  0  0  0
  -26.0840  -12.9480   20.1570 N   0  0  0  0  0  0  0  0  0  0  0  0
  -25.7730  -11.6510   20.4130 N   0  0  0  0  0  0  0  0  0  0  0  0
  -23.8170  -10.3630   20.9910 C   0  0  0  0  0  0  0  0  0  0  0  0
  -24.2960   -9.4050   21.9120 C   0  0  0  0  0  3  0  0  0  0  0  0
  -23.6100   -8.1860   22.1000 C   0  0  0  0  0  3  0  0  0  0  0  0
  -22.4300   -7.9150   21.3670 C   0  0  0  0  0  0  0  0  0  0  0  0
  -21.9690   -8.8620   20.4350 C   0  0  0  0  0  3  0  0  0  0  0  0
  -22.6570  -10.0730   20.2450 C   0  0  0  0  0  3  0  0  0  0  0  0
  -21.7130   -6.7480   21.4660 O   0  0  0  0  0  0  0  0  0  0  0  0
  -21.6900   -6.0100   22.6230 C   0  0  0  0  0  0  0  0  0  0  0  0
  -21.2350   -6.5530   23.8450 C   0  0  0  0  0  3  0  0  0  0  0  0
  -21.1650   -5.7410   24.9930 C   0  0  0  0  0  3  0  0  0  0  0  0
  -21.5400   -4.3860   24.9230 C   0  0  0  0  0  0  0  0  0  0  0  0
  -21.9880   -3.8420   23.7050 C   0  0  0  0  0  3  0  0  0  0  0  0
  -22.0610   -4.6520   22.5590 C   0  0  0  0  0  0  0  0  0  0  0  0
  -22.4740   -4.1180   21.3840 F   0  0  0  0  0  0  0  0  0  0  0  0
  -21.4650   -3.6030   26.0230 F   0  0  0  0  0  0  0  0  0  0  0  0
  -22.6140  -13.4190   21.2350 C   0  0  0  0  0  0  0  0  0  0  0  0
  -21.9510  -12.6840   22.1220 N   0  0  0  0  0  0  0  0  0  0  0  0
  -22.1230  -14.4440   20.7630 O   0  0  0  0  0  0  0  0  0  0  0  0
  -22.3630  -11.8540   22.5220 H   0  0  0  0  0  0  0  0  0  0  0  0
  -21.0190  -12.9550   22.4030 H   0  0  0  0  0  0  0  0  0  0  0  0
  -25.1510  -15.1720   20.3140 N   0  0  0  0  0  0  0  0  0  0  0  0
  -24.3710  -15.8000   20.4770 H   0  0  0  0  0  0  0  0  0  0  0  0
  -25.9680  -15.6430   19.9480 H   0  0  0  0  0  0  0  0  0  0  0  0
  -28.1030  -25.3000   21.1310 C   0  0  0  0  0  2  0  0  0  0  0  0
  -28.3770  -26.5110   20.3210 O   0  0  0  0  0  0  0  0  0  0  0  0
  -24.5990  -31.9470   23.2460 C   0  0  0  0  0  0  0  0  0  0  0  0
  -27.2950  -27.4020   20.2560 C   0  0  0  0  0  0  0  0  0  0  0  0
  -23.4340  -30.5320   21.5900 C   0  0  0  0  0  3  0  0  0  0  0  0
  -24.9220  -28.9900   20.1920 C   0  0  0  0  0  0  0  0  0  0  0  0
  -25.9710  -30.8740   21.4450 C   0  0  0  0  0  2  0  0  0  0  0  0
  -26.0760  -29.4940   20.8060 C   0  0  0  0  0  0  0  0  0  0  0  0
  -27.2700  -28.7100   20.8310 C   0  0  0  0  0  3  0  0  0  0  0  0
  -26.1250  -26.9550   19.6090 C   0  0  0  0  0  3  0  0  0  0  0  0
  -24.9480  -27.7260   19.5820 C   0  0  0  0  0  3  0  0  0  0  0  0
  -23.6760  -29.8530   20.2170 C   0  0  0  0  0  2  0  0  0  0  0  0
  -24.6860  -31.1360   22.1510 N   0  0  0  0  0  0  0  0  0  0  0  0
  -23.5060  -32.2170   23.7640 O   0  0  0  0  0  0  0  0  0  0  0  0
  -22.7630  -29.5160   22.5450 C   0  0  0  0  0  0  0  0  0  0  0  0
  -21.4400  -29.3300   22.4000 N   0  0  0  0  0  0  0  0  0  0  0  0
  -23.4340  -28.8950   23.3720 O   0  0  0  0  0  0  0  0  0  0  0  0
  -20.9560  -29.8830   21.7060 H   0  0  0  0  0  0  0  0  0  0  0  0
  -18.0580  -28.1370   22.8760 C   0  0  0  0  0  0  0  0  0  0  0  0
  -20.6150  -28.3910   23.1630 C   0  0  0  0  0  3  0  0  0  0  0  0
  -20.7180  -26.9620   22.5850 C   0  0  0  0  0  2  0  0  0  0  0  0
  -19.6230  -26.6440   21.5620 C   0  0  0  0  0  2  0  0  0  0  0  0
  -18.2360  -26.7900   22.1960 C   0  0  0  0  0  2  0  0  0  0  0  0
  -19.1750  -28.8960   23.3160 C   0  0  0  0  0  0  0  0  0  0  0  0
  -18.9530  -30.1580   23.9100 C   0  0  0  0  0  3  0  0  0  0  0  0
  -17.6480  -30.6600   24.0700 C   0  0  0  0  0  3  0  0  0  0  0  0
  -16.5460  -29.8980   23.6460 C   0  0  0  0  0  3  0  0  0  0  0  0
  -16.7500  -28.6390   23.0540 C   0  0  0  0  0  3  0  0  0  0  0  0
  -25.8690  -32.5910   23.8860 C   0  0  0  0  0  3  0  0  0  0  0  0
  -26.3660  -31.8330   25.1770 C   0  0  1  0  0  0  0  0  0  0  0  0
  -25.2520  -31.5950   26.2240 C   0  0  0  0  0  1  0  0  0  0  0  0
  -26.9690  -30.4580   24.8080 C   0  0  0  0  0  1  0  0  0  0  0  0
  -27.4940  -32.6430   25.8600 C   0  0  0  0  0  1  0  0  0  0  0  0
  -25.5480  -33.9910   24.1990 N   0  0  0  0  0  0  0  0  0  0  0  0
  -25.8870  -35.0390   23.4370 C   0  0  0  0  0  0  0  0  0  0  0  0
  -26.5720  -34.9320   22.4180 O   0  0  0  0  0  0  0  0  0  0  0  0
  -24.9450  -34.1490   24.9930 H   0  0  0  0  0  0  0  0  0  0  0  0
  -24.1580  -36.8210   23.0370 C   0  0  0  0  0  1  0  0  0  0  0  0
  -25.3850  -36.4280   23.8770 C   0  0  0  0  0  3  0  0  0  0  0  0
  -27.4980  -37.3280   24.7440 C   0  0  0  0  0  1  0  0  0  0  0  0
  -26.4140  -37.4860   23.7770 N   0  0  0  0  0  0  0  0  0  0  0  0
  -26.0010  -38.4060   23.9130 H   0  0  0  0  0  0  0  0  0  0  0  0
  1  3  1  0
  2  4  2  0
  2  5  1  0
  4  6  1  0
  5  1  2  0
  6 48  1  0
  6  3  2  0
  7  5  1  0
  7 10  1  0
  8  9  1  0
 10  8  2  0
 11  8  1  0
 12 11  1  0
 13 18  1  0
 14 15  1  0
 14 13  1  0
 16 15  1  0
 16 23  1  0
 16 17  1  0
 18 12  1  0
 18 17  1  0
 19 12  2  0
 20 21  2  0
 21 40  1  0
 22 21  1  0
 22 25  1  0
 23 24  1  0
 23 20  1  0
 24 22  2  0
 25 26  1  0
 26 27  2  0
 28 31  1  0
 28 27  1  0
 29 28  2  0
 30 29  1  0
 30 25  2  0
 31 32  1  0
 32 33  1  0
 33 34  2  0
 35 34  1  0
 35 39  1  0
 36 35  2  0
 37 32  2  0
 37 36  1  0
 38 37  1  0
 40 41  1  0
 41 44  1  0
 41 43  1  0
 42 40  2  0
 45 20  1  0
 45 46  1  0
 47 45  1  0
 49 48  1  0
 50 61  2  0
 51 49  1  0
 51 56  1  0
 52 60  1  0
 52 62  1  0
 53 59  1  0
 53 55  1  0
 54 60  1  0
 55 56  2  0
 55 54  1  0
 57 51  2  0
 58 57  1  0
 58 53  2  0
 59 52  1  0
 60 50  1  0
 62 64  2  0
 63 62  1  0
 65 63  1  0
 66 75  2  0
 66 71  1  0
 67 63  1  0
 67 71  1  0
 68 67  1  0
 69 70  1  0
 69 68  1  0
 70 66  1  0
 71 72  2  0
 72 73  1  0
 74 73  2  0
 75 74  1  0
 76 50  1  0
 76 81  1  0
 76 77  1  0
 77 80  1  1
 77 78  1  0
 79 77  1  0
 81 84  1  0
 82 86  1  0
 82 81  1  0
 83 82  2  0
 86 85  1  0
 88 86  1  0
 88 89  1  0
 88 87  1  0
M  ISO  4  11 100  12 100  48 101  49 101
M  END
>  <TORSDO>  (23) 
F 20

>  <SCORE>  (23) 
-13.709

>  <name>  (23) 
22

>  <ligand_id>  (23) 
22

>  <original_smiles>  (23) 
[H]c1c([H])c([H])c2c(c1[H])C([H])([H])C([H])([H])C([H])([H])C2([H])N([H])C(=O)C1([H])N(C(=O)C([H])(N([H])C(=O)C([H])(N([H])C([H])([H])[H])C([H])([H])[H])C(C([H])([H])[H])(C([H])([H])[H])C([H])([H])[H])C([H])([H])c2c([H])c(OC([H])([H])c3c([H])c([H])c(C([H])([H])N=C(C([H])([H])[H])C([H])([H])C(=O)N4C([H])([H])C([H])([H])C([H])([H])C([H])(n5nc(-c6c([H])c([H])c(Oc7c([H])c([H])c(F)c([H])c7F)c([H])c6[H])c(C(=O)N([H])[H])c5N([H])[H])C4([H])[H])c([H])c3[H])c([H])c([H])c2C1([H])[H]

>  <smiles>  (23) 
[H]c1c([H])c([H])c2c(c1[H])C([H])([H])C([H])([H])C([H])([H])C2([H])N([H])C(=O)C1([H])N(C(=O)C([H])(N([H])C(=O)C([H])(N([H])C([H])([H])[H])C([H])([H])[H])C(C([H])([H])[H])(C([H])([H])[H])C([H])([H])[H])C([H])([H])c2c([H])c(OC([H])([H])c3c([H])c([H])c(C([H])([H])N=C(C([H])([H])[H])C([H])([H])C(=O)N4C([H])([H])C([H])([H])C([H])([H])C([H])(n5nc(-c6c([H])c([H])c(Oc7c([H])c([H])c(F)c([H])c7F)c([H])c6[H])c(C(=O)N([H])[H])c5N([H])[H])C4([H])[H])c([H])c3[H])c([H])c([H])c2C1([H])[H]

$$$$
23:0:0
     RDKit          3D

 91 98  0  0  1  0  0  0  0  0999 V2000
  -30.2810  -21.3140   20.4370 C   0  0  0  0  0  2  0  0  0  0  0  0
  -29.9730  -19.8670   20.4290 N   0  0  0  0  0  4  0  0  0  0  0  0
  -29.3830  -19.6920   19.6290 H   0  0  0  0  0  0  0  0  0  0  0  0
  -29.4420  -19.6310   21.2510 H   0  0  0  0  0  0  0  0  0  0  0  0
  -32.0740  -19.0310   21.5170 C   0  0  0  0  0  1  0  0  0  0  0  0
  -31.1490  -18.9740   20.2830 C   0  0  0  0  0  3  0  0  0  0  0  0
  -29.8540  -17.4440   18.6730 C   0  0  0  0  0  1  0  0  0  0  0  0
  -30.7320  -17.5180   19.9380 C   0  0  0  0  0  3  0  0  0  0  0  0
  -30.0880  -15.4390   21.3610 C   0  0  0  0  0  3  0  0  0  0  0  0
  -30.0850  -16.7690   21.1050 C   0  0  0  0  0  3  0  0  0  0  0  0
  -30.7180  -14.4350   20.5050 C   0  0  0  0  0  0  0  0  0  0  0  0
  -30.3610  -12.3400   19.2500 C   0  0  0  0  0  2  0  0  0  0  0  0
  -29.4150  -12.6040   18.0620 C   0  0  0  0  0  2  0  0  0  0  0  0
  -27.9410  -12.4670   18.4920 C   0  0  0  0  0  2  0  0  0  0  0  0
  -27.6260  -13.2670   19.7830 C   0  0  0  0  0  3  0  0  0  0  0  0
  -28.6780  -12.9700   20.8720 C   0  0  0  0  0  2  0  0  0  0  0  0
  -30.0110  -13.2830   20.3240 N   0  0  0  0  0  0  0  0  0  0  0  0
  -31.8010  -14.6210   19.9430 O   0  0  0  0  0  0  0  0  0  0  0  0
  -25.2270  -13.8860   20.4880 C   0  0  0  0  0  0  0  0  0  0  0  0
  -24.1580  -13.1170   20.8620 C   0  0  0  0  0  0  0  0  0  0  0  0
  -24.6180  -11.7650   20.8410 C   0  0  0  0  0  0  0  0  0  0  0  0
  -26.2700  -13.0010   20.2610 N   0  0  0  0  0  0  0  0  0  0  0  0
  -25.9070  -11.7210   20.5290 N   0  0  0  0  0  0  0  0  0  0  0  0
  -23.8920  -10.5040   21.0400 C   0  0  0  0  0  0  0  0  0  0  0  0
  -24.3390   -9.5320   21.9630 C   0  0  0  0  0  3  0  0  0  0  0  0
  -23.6150   -8.3350   22.1490 C   0  0  0  0  0  3  0  0  0  0  0  0
  -22.4290   -8.1010   21.4130 C   0  0  0  0  0  0  0  0  0  0  0  0
  -22.0020   -9.0610   20.4790 C   0  0  0  0  0  3  0  0  0  0  0  0
  -22.7260  -10.2500   20.2910 C   0  0  0  0  0  3  0  0  0  0  0  0
  -21.6720   -6.9580   21.5110 O   0  0  0  0  0  0  0  0  0  0  0  0
  -21.6540   -6.2040   22.6560 C   0  0  0  0  0  0  0  0  0  0  0  0
  -21.2750   -6.7490   23.9020 C   0  0  0  0  0  3  0  0  0  0  0  0
  -21.2040   -5.9200   25.0410 C   0  0  0  0  0  3  0  0  0  0  0  0
  -21.4980   -4.5490   24.9330 C   0  0  0  0  0  0  0  0  0  0  0  0
  -21.8680   -4.0020   23.6900 C   0  0  0  0  0  3  0  0  0  0  0  0
  -21.9420   -4.8280   22.5550 C   0  0  0  0  0  0  0  0  0  0  0  0
  -22.2790   -4.2930   21.3570 F   0  0  0  0  0  0  0  0  0  0  0  0
  -21.4210   -3.7500   26.0230 F   0  0  0  0  0  0  0  0  0  0  0  0
  -22.7630  -13.5970   21.1380 C   0  0  0  0  0  0  0  0  0  0  0  0
  -22.0390  -12.9040   22.0110 N   0  0  0  0  0  0  0  0  0  0  0  0
  -22.3230  -14.6190   20.6150 O   0  0  0  0  0  0  0  0  0  0  0  0
  -22.4090  -12.0780   22.4560 H   0  0  0  0  0  0  0  0  0  0  0  0
  -21.1020  -13.2060   22.2380 H   0  0  0  0  0  0  0  0  0  0  0  0
  -25.3960  -15.2550   20.3030 N   0  0  0  0  0  0  0  0  0  0  0  0
  -24.6400  -15.9200   20.4140 H   0  0  0  0  0  0  0  0  0  0  0  0
  -26.2600  -15.6850   19.9970 H   0  0  0  0  0  0  0  0  0  0  0  0
  -29.0610  -22.1700   20.0540 C   0  0  0  0  0  2  0  0  0  0  0  0
  -29.4010  -23.6680   19.9520 C   0  0  0  0  0  2  0  0  0  0  0  0
  -28.2860  -24.4800   19.2740 C   0  0  0  0  0  2  0  0  0  0  0  0
  -28.6680  -25.9470   19.0020 C   0  0  0  0  0  2  0  0  0  0  0  0
  -28.4190  -26.8000   20.1210 O   0  0  0  0  0  0  0  0  0  0  0  0
  -24.5810  -31.9040   23.2640 C   0  0  0  0  0  0  0  0  0  0  0  0
  -27.2170  -27.4780   20.1510 C   0  0  0  0  0  0  0  0  0  0  0  0
  -23.3670  -30.4990   21.6280 C   0  0  0  0  0  3  0  0  0  0  0  0
  -24.8130  -28.9650   20.1960 C   0  0  0  0  0  0  0  0  0  0  0  0
  -25.8920  -30.8570   21.4250 C   0  0  0  0  0  2  0  0  0  0  0  0
  -25.9700  -29.4850   20.7900 C   0  0  0  0  0  0  0  0  0  0  0  0
  -27.1680  -28.7380   20.7850 C   0  0  0  0  0  3  0  0  0  0  0  0
  -26.0360  -26.9630   19.5670 C   0  0  0  0  0  3  0  0  0  0  0  0
  -24.8380  -27.6980   19.5910 C   0  0  0  0  0  3  0  0  0  0  0  0
  -23.5690  -29.8210   20.2470 C   0  0  0  0  0  2  0  0  0  0  0  0
  -24.6310  -31.1030   22.1620 N   0  0  0  0  0  0  0  0  0  0  0  0
  -23.5020  -32.1760   23.8080 O   0  0  0  0  0  0  0  0  0  0  0  0
  -22.7250  -29.4760   22.5910 C   0  0  0  0  0  0  0  0  0  0  0  0
  -21.4010  -29.2880   22.4650 N   0  0  0  0  0  0  0  0  0  0  0  0
  -23.4140  -28.8530   23.4030 O   0  0  0  0  0  0  0  0  0  0  0  0
  -20.9080  -29.8450   21.7820 H   0  0  0  0  0  0  0  0  0  0  0  0
  -18.0320  -28.0780   22.9540 C   0  0  0  0  0  0  0  0  0  0  0  0
  -20.5880  -28.3480   23.2350 C   0  0  0  0  0  3  0  0  0  0  0  0
  -20.6990  -26.9150   22.6650 C   0  0  0  0  0  2  0  0  0  0  0  0
  -19.6020  -26.5840   21.6480 C   0  0  0  0  0  2  0  0  0  0  0  0
  -18.2170  -26.7250   22.2870 C   0  0  0  0  0  2  0  0  0  0  0  0
  -19.1460  -28.8460   23.3850 C   0  0  0  0  0  0  0  0  0  0  0  0
  -18.9190  -30.1120   23.9670 C   0  0  0  0  0  3  0  0  0  0  0  0
  -17.6120  -30.6090   24.1240 C   0  0  0  0  0  3  0  0  0  0  0  0
  -16.5120  -29.8360   23.7110 C   0  0  0  0  0  3  0  0  0  0  0  0
  -16.7240  -28.5730   23.1310 C   0  0  0  0  0  3  0  0  0  0  0  0
  -25.8710  -32.5330   23.8760 C   0  0  0  0  0  3  0  0  0  0  0  0
  -26.3950  -31.7640   25.1520 C   0  0  1  0  0  0  0  0  0  0  0  0
  -25.3060  -31.5330   26.2260 C   0  0  0  0  0  1  0  0  0  0  0  0
  -26.9700  -30.3840   24.7600 C   0  0  0  0  0  1  0  0  0  0  0  0
  -27.5500  -32.5590   25.8060 C   0  0  0  0  0  1  0  0  0  0  0  0
  -25.5680  -33.9330   24.2010 N   0  0  0  0  0  0  0  0  0  0  0  0
  -25.9040  -34.9810   23.4370 C   0  0  0  0  0  0  0  0  0  0  0  0
  -26.5740  -34.8720   22.4060 O   0  0  0  0  0  0  0  0  0  0  0  0
  -24.9730  -34.0930   25.0010 H   0  0  0  0  0  0  0  0  0  0  0  0
  -24.1790  -36.7740   23.0740 C   0  0  0  0  0  1  0  0  0  0  0  0
  -25.4190  -36.3720   23.8870 C   0  0  0  0  0  3  0  0  0  0  0  0
  -27.5570  -37.2530   24.7140 C   0  0  0  0  0  1  0  0  0  0  0  0
  -26.4550  -37.4220   23.7700 N   0  0  0  0  0  0  0  0  0  0  0  0
  -26.0510  -38.3430   23.9170 H   0  0  0  0  0  0  0  0  0  0  0  0
  2  1  1  0
  2  4  1  0
  3  2  1  0
  6  2  1  0
  6  5  1  0
  8  7  1  0
  8  6  1  0
  8 10  1  0
 10  9  2  0
 11  9  1  0
 12 17  1  0
 13 14  1  0
 13 12  1  0
 15 14  1  0
 15 22  1  0
 15 16  1  0
 17 11  1  0
 17 16  1  0
 18 11  2  0
 19 20  2  0
 20 39  1  0
 21 20  1  0
 21 24  1  0
 22 19  1  0
 22 23  1  0
 23 21  2  0
 24 25  1  0
 25 26  2  0
 27 30  1  0
 27 26  1  0
 28 27  2  0
 29 28  1  0
 29 24  2  0
 30 31  1  0
 31 32  1  0
 32 33  2  0
 34 33  1  0
 34 38  1  0
 35 34  2  0
 36 31  2  0
 36 35  1  0
 37 36  1  0
 39 40  1  0
 40 43  1  0
 40 42  1  0
 41 39  2  0
 44 45  1  0
 44 19  1  0
 46 44  1  0
 47  1  1  0
 48 47  1  0
 49 48  1  0
 50 49  1  0
 50 51  1  0
 51 53  1  0
 52 63  2  0
 53 58  1  0
 54 62  1  0
 54 64  1  0
 55 61  1  0
 55 57  1  0
 56 62  1  0
 57 56  1  0
 58 57  2  0
 59 60  1  0
 59 53  2  0
 60 55  2  0
 61 54  1  0
 62 52  1  0
 64 66  2  0
 65 64  1  0
 67 65  1  0
 68 77  2  0
 68 73  1  0
 69 65  1  0
 69 73  1  0
 70 69  1  0
 71 72  1  0
 71 70  1  0
 72 68  1  0
 73 74  2  0
 74 75  1  0
 76 75  2  0
 77 76  1  0
 78 52  1  0
 78 83  1  0
 78 79  1  0
 79 82  1  1
 79 80  1  0
 81 79  1  0
 83 86  1  0
 84 88  1  0
 84 83  1  0
 85 84  2  0
 88 87  1  0
 90 88  1  0
 90 91  1  0
 90 89  1  0
M  ISO  4   9 100  11 100  50 101  51 101
M  END
>  <TORSDO>  (24) 
F 24

>  <SCORE>  (24) 
-12.503

>  <name>  (24) 
23

>  <ligand_id>  (24) 
23

>  <original_smiles>  (24) 
[H]C(C(=O)N1C([H])([H])C([H])([H])C([H])([H])C([H])(n2nc(-c3c([H])c([H])c(Oc4c([H])c([H])c(F)c([H])c4F)c([H])c3[H])c(C(=O)N([H])[H])c2N([H])[H])C1([H])[H])=C([H])C([H])(C([H])([H])[H])C([H])(C([H])([H])[H])[N+]([H])([H])C([H])([H])C([H])([H])C([H])([H])C([H])([H])C([H])([H])Oc1c([H])c([H])c2c(c1[H])C([H])([H])N(C(=O)C([H])(N([H])C(=O)C([H])(N([H])C([H])([H])[H])C([H])([H])[H])C(C([H])([H])[H])(C([H])([H])[H])C([H])([H])[H])C([H])(C(=O)N([H])C1([H])c3c([H])c([H])c([H])c([H])c3C([H])([H])C([H])([H])C1([H])[H])C2([H])[H]

>  <smiles>  (24) 
[H]C(C(=O)N1C([H])([H])C([H])([H])C([H])([H])C([H])(n2nc(-c3c([H])c([H])c(Oc4c([H])c([H])c(F)c([H])c4F)c([H])c3[H])c(C(=O)N([H])[H])c2N([H])[H])C1([H])[H])=C([H])C([H])(C([H])([H])[H])C([H])(C([H])([H])[H])[N+]([H])([H])C([H])([H])C([H])([H])C([H])([H])C([H])([H])C([H])([H])Oc1c([H])c([H])c2c(c1[H])C([H])([H])N(C(=O)C([H])(N([H])C(=O)C([H])(N([H])C([H])([H])[H])C([H])([H])[H])C(C([H])([H])[H])(C([H])([H])[H])C([H])([H])[H])C([H])(C(=O)N([H])C1([H])c3c([H])c([H])c([H])c([H])c3C([H])([H])C([H])([H])C1([H])[H])C2([H])[H]

$$$$
24:0:0
     RDKit          3D

 88 96  0  0  1  0  0  0  0  0999 V2000
  -28.5860  -22.3470   20.2250 C   0  0  0  0  0  2  0  0  0  0  0  0
  -29.3310  -19.8600   20.4520 C   0  0  0  0  0  0  0  0  0  0  0  0
  -29.5590  -21.2180   20.4740 N   0  0  0  0  0  0  0  0  0  0  0  0
  -28.2040  -19.3990   20.2690 O   0  0  0  0  0  0  0  0  0  0  0  0
  -30.5200  -21.4930   20.6240 H   0  0  0  0  0  0  0  0  0  0  0  0
  -30.8630  -18.0670   19.4230 C   0  0  0  0  0  2  0  0  0  0  0  0
  -30.5670  -18.9550   20.6150 C   0  0  0  0  0  3  0  0  0  0  0  0
  -30.7670  -17.3740   20.7590 C   0  0  0  0  0  3  0  0  0  0  0  0
  -29.8950  -16.0600   20.8710 C   0  0  0  0  0  2  0  0  0  0  0  0
  -30.6280  -14.7050   20.4620 C   0  0  0  0  0  0  0  0  0  0  0  0
  -30.3770  -12.4760   19.3800 C   0  0  0  0  0  2  0  0  0  0  0  0
  -29.4480  -12.6310   18.1560 C   0  0  0  0  0  2  0  0  0  0  0  0
  -27.9740  -12.4700   18.5730 C   0  0  0  0  0  2  0  0  0  0  0  0
  -27.6100  -13.3260   19.8170 C   0  0  0  0  0  3  0  0  0  0  0  0
  -28.6610  -13.1850   20.9380 C   0  0  0  0  0  2  0  0  0  0  0  0
  -29.9780  -13.5000   20.3720 N   0  0  0  0  0  0  0  0  0  0  0  0
  -31.7970  -14.7900   20.0750 O   0  0  0  0  0  0  0  0  0  0  0  0
  -25.2140  -13.9160   20.5250 C   0  0  0  0  0  0  0  0  0  0  0  0
  -24.1460  -13.1420   20.8870 C   0  0  0  0  0  0  0  0  0  0  0  0
  -24.6110  -11.7900   20.8590 C   0  0  0  0  0  0  0  0  0  0  0  0
  -26.2610  -13.0380   20.2960 N   0  0  0  0  0  0  0  0  0  0  0  0
  -25.9030  -11.7540   20.5590 N   0  0  0  0  0  0  0  0  0  0  0  0
  -23.8830  -10.5270   21.0440 C   0  0  0  0  0  0  0  0  0  0  0  0
  -24.3110   -9.5580   21.9790 C   0  0  0  0  0  3  0  0  0  0  0  0
  -23.5840   -8.3610   22.1520 C   0  0  0  0  0  3  0  0  0  0  0  0
  -22.4150   -8.1230   21.3910 C   0  0  0  0  0  0  0  0  0  0  0  0
  -22.0070   -9.0800   20.4440 C   0  0  0  0  0  3  0  0  0  0  0  0
  -22.7340  -10.2690   20.2700 C   0  0  0  0  0  3  0  0  0  0  0  0
  -21.6610   -6.9780   21.4720 O   0  0  0  0  0  0  0  0  0  0  0  0
  -21.6010   -6.2360   22.6250 C   0  0  0  0  0  0  0  0  0  0  0  0
  -21.1540   -6.7890   23.8440 C   0  0  0  0  0  3  0  0  0  0  0  0
  -21.0420   -5.9730   24.9880 C   0  0  0  0  0  3  0  0  0  0  0  0
  -21.3680   -4.6060   24.9130 C   0  0  0  0  0  0  0  0  0  0  0  0
  -21.8070   -4.0520   23.6980 C   0  0  0  0  0  3  0  0  0  0  0  0
  -21.9200   -4.8640   22.5560 C   0  0  0  0  0  0  0  0  0  0  0  0
  -22.3240   -4.3220   21.3820 F   0  0  0  0  0  0  0  0  0  0  0  0
  -21.2530   -3.8200   26.0090 F   0  0  0  0  0  0  0  0  0  0  0  0
  -22.7460  -13.6170   21.1480 C   0  0  0  0  0  0  0  0  0  0  0  0
  -22.0140  -12.9210   22.0100 N   0  0  0  0  0  0  0  0  0  0  0  0
  -22.3100  -14.6410   20.6240 O   0  0  0  0  0  0  0  0  0  0  0  0
  -22.3780  -12.0910   22.4570 H   0  0  0  0  0  0  0  0  0  0  0  0
  -21.0750  -13.2210   22.2300 H   0  0  0  0  0  0  0  0  0  0  0  0
  -25.3800  -15.2870   20.3510 N   0  0  0  0  0  0  0  0  0  0  0  0
  -24.6160  -15.9450   20.4640 H   0  0  0  0  0  0  0  0  0  0  0  0
  -26.2380  -15.7270   20.0480 H   0  0  0  0  0  0  0  0  0  0  0  0
  -29.0850  -23.8650   20.3890 C   0  0  0  0  0  3  0  0  0  0  0  0
  -28.0270  -25.0040   20.0200 C   0  0  0  0  0  3  0  0  0  0  0  0
  -28.2860  -26.4570   20.2260 O   0  0  0  0  0  0  0  0  0  0  0  0
  -24.5700  -31.8830   23.2430 C   0  0  0  0  0  0  0  0  0  0  0  0
  -27.1800  -27.3270   20.1660 C   0  0  0  0  0  0  0  0  0  0  0  0
  -23.3670  -30.4920   21.5980 C   0  0  0  0  0  3  0  0  0  0  0  0
  -24.8180  -28.9520   20.1640 C   0  0  0  0  0  0  0  0  0  0  0  0
  -25.9090  -30.8080   21.4200 C   0  0  0  0  0  2  0  0  0  0  0  0
  -25.9880  -29.4320   20.7650 C   0  0  0  0  0  0  0  0  0  0  0  0
  -27.1720  -28.6310   20.7580 C   0  0  0  0  0  3  0  0  0  0  0  0
  -25.9830  -26.9130   19.5320 C   0  0  0  0  0  3  0  0  0  0  0  0
  -24.8180  -27.6990   19.5390 C   0  0  0  0  0  3  0  0  0  0  0  0
  -23.5830  -29.8270   20.2150 C   0  0  0  0  0  2  0  0  0  0  0  0
  -24.6350  -31.0770   22.1430 N   0  0  0  0  0  0  0  0  0  0  0  0
  -23.4860  -32.1600   23.7780 O   0  0  0  0  0  0  0  0  0  0  0  0
  -22.7040  -29.4700   22.5520 C   0  0  0  0  0  0  0  0  0  0  0  0
  -21.3780  -29.2940   22.4230 N   0  0  0  0  0  0  0  0  0  0  0  0
  -23.3810  -28.8400   23.3690 O   0  0  0  0  0  0  0  0  0  0  0  0
  -20.8900  -29.8530   21.7370 H   0  0  0  0  0  0  0  0  0  0  0  0
  -17.9980  -28.1040   22.9190 C   0  0  0  0  0  0  0  0  0  0  0  0
  -20.5570  -28.3540   23.1900 C   0  0  0  0  0  3  0  0  0  0  0  0
  -20.6550  -26.9250   22.6080 C   0  0  0  0  0  2  0  0  0  0  0  0
  -19.5520  -26.6110   21.5920 C   0  0  0  0  0  2  0  0  0  0  0  0
  -18.1710  -26.7560   22.2380 C   0  0  0  0  0  2  0  0  0  0  0  0
  -19.1190  -28.8600   23.3520 C   0  0  0  0  0  0  0  0  0  0  0  0
  -18.9030  -30.1210   23.9500 C   0  0  0  0  0  3  0  0  0  0  0  0
  -17.6000  -30.6250   24.1180 C   0  0  0  0  0  3  0  0  0  0  0  0
  -16.4930  -29.8650   23.7010 C   0  0  0  0  0  3  0  0  0  0  0  0
  -16.6930  -28.6060   23.1080 C   0  0  0  0  0  3  0  0  0  0  0  0
  -25.8540  -32.5120   23.8690 C   0  0  0  0  0  3  0  0  0  0  0  0
  -25.5450  -33.9110   24.2010 N   0  0  0  0  0  0  0  0  0  0  0  0
  -25.8700  -34.9630   23.4400 C   0  0  0  0  0  0  0  0  0  0  0  0
  -26.5310  -34.8600   22.4020 O   0  0  0  0  0  0  0  0  0  0  0  0
  -24.9570  -34.0640   25.0070 H   0  0  0  0  0  0  0  0  0  0  0  0
  -24.1370  -36.7540   23.1010 C   0  0  0  0  0  1  0  0  0  0  0  0
  -25.3850  -36.3520   23.9010 C   0  0  0  0  0  3  0  0  0  0  0  0
  -27.5260  -37.2400   24.7140 C   0  0  0  0  0  1  0  0  0  0  0  0
  -26.4160  -37.4050   23.7780 N   0  0  0  0  0  0  0  0  0  0  0  0
  -26.0100  -38.3240   23.9280 H   0  0  0  0  0  0  0  0  0  0  0  0
  -26.3660  -31.7370   25.1450 C   0  0  1  0  0  0  0  0  0  0  0  0
  -25.2700  -31.4990   26.2100 C   0  0  0  0  0  1  0  0  0  0  0  0
  -26.9480  -30.3590   24.7530 C   0  0  0  0  0  1  0  0  0  0  0  0
  -27.5160  -32.5290   25.8110 C   0  0  0  0  0  1  0  0  0  0  0  0
  1 46  1  0
  1  3  1  0
  2  3  1  0
  3  5  1  0
  4  2  2  0
  6  7  1  0
  6  8  1  0
  7  2  1  0
  7  8  1  0
  8  9  1  0
 10  9  1  0
 11 16  1  0
 12 13  1  0
 12 11  1  0
 14 13  1  0
 14 21  1  0
 14 15  1  0
 16 10  1  0
 16 15  1  0
 17 10  2  0
 18 19  2  0
 19 38  1  0
 20 19  1  0
 20 23  1  0
 21 18  1  0
 21 22  1  0
 22 20  2  0
 23 24  1  0
 24 25  2  0
 26 29  1  0
 26 25  1  0
 27 26  2  0
 28 27  1  0
 28 23  2  0
 29 30  1  0
 30 31  1  0
 31 32  2  0
 33 32  1  0
 33 37  1  0
 34 33  2  0
 35 30  2  0
 35 34  1  0
 36 35  1  0
 38 39  1  0
 39 42  1  0
 39 41  1  0
 40 38  2  0
 43 44  1  0
 43 18  1  0
 45 43  1  0
 47 48  1  0
 47 46  2  0
 49 60  2  0
 50 48  1  0
 50 55  1  0
 51 59  1  0
 51 61  1  0
 52 58  1  0
 52 54  1  0
 53 59  1  0
 54 53  1  0
 55 54  2  0
 56 57  1  0
 56 50  2  0
 57 52  2  0
 58 51  1  0
 59 49  1  0
 61 63  2  0
 62 61  1  0
 64 62  1  0
 65 74  2  0
 65 70  1  0
 66 62  1  0
 66 70  1  0
 67 66  1  0
 68 69  1  0
 68 67  1  0
 69 65  1  0
 70 71  2  0
 71 72  1  0
 73 72  2  0
 74 73  1  0
 75 49  1  0
 75 76  1  0
 75 85  1  0
 76 79  1  0
 77 81  1  0
 77 76  1  0
 78 77  2  0
 81 80  1  0
 83 81  1  0
 83 84  1  0
 83 82  1  0
 85 88  1  1
 85 86  1  0
 87 85  1  0
M  ISO  4   9 100  10 100  47 101  48 101
M  END
>  <TORSDO>  (25) 
F 21

>  <SCORE>  (25) 
-13.516

>  <name>  (25) 
24

>  <ligand_id>  (25) 
24

>  <original_smiles>  (25) 
[H]c1c([H])c([H])c2c(c1[H])C([H])([H])C([H])([H])C([H])([H])C2([H])N([H])C(=O)C1([H])N(C(=O)C([H])(N([H])C(=O)C([H])(N([H])C([H])([H])[H])C([H])([H])[H])C(C([H])([H])[H])(C([H])([H])[H])C([H])([H])[H])C([H])([H])c2c([H])c(OC([H])([H])C([H])([H])C([H])([H])N([H])C(=O)C3([H])C([H])([H])C3([H])C([H])([H])C(=O)N3C([H])([H])C([H])([H])C([H])([H])C([H])(n4nc(-c5c([H])c([H])c(Oc6c([H])c([H])c(F)c([H])c6F)c([H])c5[H])c(C(=O)N([H])[H])c4N([H])[H])C3([H])[H])c([H])c([H])c2C1([H])[H]

>  <smiles>  (25) 
[H]c1c([H])c([H])c2c(c1[H])C([H])([H])C([H])([H])C([H])([H])C2([H])N([H])C(=O)C1([H])N(C(=O)C([H])(N([H])C(=O)C([H])(N([H])C([H])([H])[H])C([H])([H])[H])C(C([H])([H])[H])(C([H])([H])[H])C([H])([H])[H])C([H])([H])c2c([H])c(OC([H])([H])C([H])([H])C([H])([H])N([H])C(=O)C3([H])C([H])([H])C3([H])C([H])([H])C(=O)N3C([H])([H])C([H])([H])C([H])([H])C([H])(n4nc(-c5c([H])c([H])c(Oc6c([H])c([H])c(F)c([H])c6F)c([H])c5[H])c(C(=O)N([H])[H])c4N([H])[H])C3([H])[H])c([H])c([H])c2C1([H])[H]

$$$$
25:0:0
     RDKit          3D

 92100  0  0  1  0  0  0  0  0999 V2000
  -30.3790  -18.6440   19.7050 C   0  0  0  0  0  0  0  0  0  0  0  0
  -30.1250  -17.9550   18.3800 C   0  0  0  0  0  1  0  0  0  0  0  0
  -29.7780  -19.7980   20.0120 N   0  0  0  0  0  0  0  0  0  0  0  0
  -32.1830  -16.7640   20.6410 C   0  0  0  0  0  3  0  0  0  0  0  0
  -31.3770  -17.9190   20.6760 C   0  0  0  0  0  0  0  0  0  0  0  0
  -32.6440  -15.7130   19.6750 C   0  0  0  0  0  0  0  0  0  0  0  0
  -32.2430  -13.4570   18.6280 C   0  0  0  0  0  2  0  0  0  0  0  0
  -31.2930  -13.5890   17.4170 C   0  0  0  0  0  2  0  0  0  0  0  0
  -29.8210  -13.5210   17.8640 C   0  0  0  0  0  2  0  0  0  0  0  0
  -29.5370  -14.4460   19.0760 C   0  0  0  0  0  3  0  0  0  0  0  0
  -30.5960  -14.2740   20.1870 C   0  0  0  0  0  2  0  0  0  0  0  0
  -31.9230  -14.5330   19.5990 N   0  0  0  0  0  0  0  0  0  0  0  0
  -33.7090  -15.8020   19.0550 O   0  0  0  0  0  0  0  0  0  0  0  0
  -27.1990  -15.2410   19.7800 C   0  0  0  0  0  0  0  0  0  0  0  0
  -26.0880  -14.5670   20.2070 C   0  0  0  0  0  0  0  0  0  0  0  0
  -26.4580  -13.1890   20.2570 C   0  0  0  0  0  0  0  0  0  0  0  0
  -28.1780  -14.2800   19.5880 N   0  0  0  0  0  0  0  0  0  0  0  0
  -27.7390  -13.0440   19.9380 N   0  0  0  0  0  0  0  0  0  0  0  0
  -25.6500  -11.9930   20.5300 C   0  0  0  0  0  0  0  0  0  0  0  0
  -25.9660  -11.1200   21.5950 C   0  0  0  0  0  3  0  0  0  0  0  0
  -25.1630   -9.9870   21.8530 C   0  0  0  0  0  3  0  0  0  0  0  0
  -24.0320   -9.7180   21.0470 C   0  0  0  0  0  0  0  0  0  0  0  0
  -23.7370  -10.5770   19.9730 C   0  0  0  0  0  3  0  0  0  0  0  0
  -24.5390  -11.7010   19.7140 C   0  0  0  0  0  3  0  0  0  0  0  0
  -23.2090   -8.6280   21.2070 O   0  0  0  0  0  0  0  0  0  0  0  0
  -22.8720   -8.1570   22.4500 C   0  0  0  0  0  0  0  0  0  0  0  0
  -22.2360   -8.9730   23.4110 C   0  0  0  0  0  3  0  0  0  0  0  0
  -21.8460   -8.4270   24.6510 C   0  0  0  0  0  3  0  0  0  0  0  0
  -22.0790   -7.0660   24.9250 C   0  0  0  0  0  0  0  0  0  0  0  0
  -22.7050   -6.2500   23.9670 C   0  0  0  0  0  3  0  0  0  0  0  0
  -23.0980   -6.7950   22.7330 C   0  0  0  0  0  0  0  0  0  0  0  0
  -23.6830   -5.9990   21.8030 F   0  0  0  0  0  0  0  0  0  0  0  0
  -21.6970   -6.5400   26.1120 F   0  0  0  0  0  0  0  0  0  0  0  0
  -24.7280  -15.1510   20.4570 C   0  0  0  0  0  0  0  0  0  0  0  0
  -23.9970  -14.6150   21.4270 N   0  0  0  0  0  0  0  0  0  0  0  0
  -24.3230  -16.1220   19.8200 O   0  0  0  0  0  0  0  0  0  0  0  0
  -24.3380  -13.8380   21.9740 H   0  0  0  0  0  0  0  0  0  0  0  0
  -23.0820  -14.9920   21.6270 H   0  0  0  0  0  0  0  0  0  0  0  0
  -27.4530  -16.5860   19.5230 N   0  0  0  0  0  0  0  0  0  0  0  0
  -26.7350  -17.2970   19.6080 H   0  0  0  0  0  0  0  0  0  0  0  0
  -28.3330  -16.9490   19.1800 H   0  0  0  0  0  0  0  0  0  0  0  0
  -32.0110  -19.9640   24.4300 C   0  0  0  0  0  3  0  0  0  0  0  0
  -32.9010  -20.1480   23.3560 C   0  0  0  0  0  3  0  0  0  0  0  0
  -30.9180  -19.0880   24.2930 C   0  0  0  0  0  3  0  0  0  0  0  0
  -32.6830  -19.4690   22.1450 C   0  0  0  0  0  3  0  0  0  0  0  0
  -30.6980  -18.4150   23.0750 C   0  0  0  0  0  3  0  0  0  0  0  0
  -31.5710  -18.6080   21.9790 C   0  0  0  0  0  0  0  0  0  0  0  0
  -28.8210  -20.6270   19.1490 C   0  0  0  0  0  2  0  0  0  0  0  0
  -28.1680  -21.9810   19.7920 C   0  0  0  0  0  3  0  0  0  0  0  0
  -27.6460  -23.2220   18.8650 C   0  0  0  0  0  3  0  0  0  0  0  0
  -27.0730  -24.5990   19.5180 C   0  0  0  0  0  2  0  0  0  0  0  0
  -27.2300  -25.9510   18.8730 O   0  0  0  0  0  0  0  0  0  0  0  0
  -24.3310  -31.3380   22.7890 C   0  0  0  0  0  0  0  0  0  0  0  0
  -26.2140  -26.9150   19.0530 C   0  0  0  0  0  0  0  0  0  0  0  0
  -22.8550  -30.2300   21.1490 C   0  0  0  0  0  3  0  0  0  0  0  0
  -24.0180  -28.7290   19.4260 C   0  0  0  0  0  0  0  0  0  0  0  0
  -25.3830  -30.3540   20.7360 C   0  0  0  0  0  2  0  0  0  0  0  0
  -25.2780  -29.0470   19.9540 C   0  0  0  0  0  0  0  0  0  0  0  0
  -26.3780  -28.1550   19.7560 C   0  0  0  0  0  3  0  0  0  0  0  0
  -24.9430  -26.6680   18.4930 C   0  0  0  0  0  3  0  0  0  0  0  0
  -23.8590  -27.5530   18.6740 C   0  0  0  0  0  3  0  0  0  0  0  0
  -22.8720  -29.6900   19.6920 C   0  0  0  0  0  2  0  0  0  0  0  0
  -24.2160  -30.6510   21.6140 N   0  0  0  0  0  0  0  0  0  0  0  0
  -23.3310  -31.6420   23.4570 O   0  0  0  0  0  0  0  0  0  0  0  0
  -22.1940  -29.1760   22.0670 C   0  0  0  0  0  0  0  0  0  0  0  0
  -20.8550  -29.0910   22.0220 N   0  0  0  0  0  0  0  0  0  0  0  0
  -22.8820  -28.4400   22.7780 O   0  0  0  0  0  0  0  0  0  0  0  0
  -20.3600  -29.7350   21.4240 H   0  0  0  0  0  0  0  0  0  0  0  0
  -17.4490  -28.0080   22.6110 C   0  0  0  0  0  0  0  0  0  0  0  0
  -20.0300  -28.1370   22.7660 C   0  0  0  0  0  3  0  0  0  0  0  0
  -20.0340  -26.7500   22.0840 C   0  0  0  0  0  2  0  0  0  0  0  0
  -18.8690  -26.5470   21.1110 C   0  0  0  0  0  2  0  0  0  0  0  0
  -17.5290  -26.7060   21.8330 C   0  0  0  0  0  2  0  0  0  0  0  0
  -18.6230  -28.6880   23.0360 C   0  0  0  0  0  0  0  0  0  0  0  0
  -18.4940  -29.9110   23.7280 C   0  0  0  0  0  3  0  0  0  0  0  0
  -17.2250  -30.4540   24.0030 C   0  0  0  0  0  3  0  0  0  0  0  0
  -16.0660  -29.7710   23.5940 C   0  0  0  0  0  3  0  0  0  0  0  0
  -16.1800  -28.5500   22.9030 C   0  0  0  0  0  3  0  0  0  0  0  0
  -25.7160  -31.7920   23.3410 C   0  0  0  0  0  3  0  0  0  0  0  0
  -25.5370  -33.1100   23.9700 N   0  0  0  0  0  0  0  0  0  0  0  0
  -25.8690  -34.2780   23.4040 C   0  0  0  0  0  0  0  0  0  0  0  0
  -26.4350  -34.3530   22.3100 O   0  0  0  0  0  0  0  0  0  0  0  0
  -25.0360  -33.1280   24.8470 H   0  0  0  0  0  0  0  0  0  0  0  0
  -24.2580  -36.2020   23.5790 C   0  0  0  0  0  1  0  0  0  0  0  0
  -25.5250  -35.5680   24.1740 C   0  0  0  0  0  3  0  0  0  0  0  0
  -27.7730  -36.1460   24.9780 C   0  0  0  0  0  1  0  0  0  0  0  0
  -26.6220  -36.5620   24.1800 N   0  0  0  0  0  0  0  0  0  0  0  0
  -26.2950  -37.4570   24.5320 H   0  0  0  0  0  0  0  0  0  0  0  0
  -26.3410  -30.7710   24.3680 C   0  0  1  0  0  0  0  0  0  0  0  0
  -25.3790  -30.3660   25.5100 C   0  0  0  0  0  1  0  0  0  0  0  0
  -26.7830  -29.4750   23.6500 C   0  0  0  0  0  1  0  0  0  0  0  0
  -27.6130  -31.3780   25.0050 C   0  0  0  0  0  1  0  0  0  0  0  0
  1  3  2  0
  1  5  1  0
  2  1  1  0
  4  5  2  0
  5 47  1  0
  6  4  1  0
  7 12  1  0
  8  9  1  0
  8  7  1  0
 10  9  1  0
 10 17  1  0
 10 11  1  0
 12  6  1  0
 12 11  1  0
 13  6  2  0
 14 15  2  0
 15 16  1  0
 15 34  1  0
 16 19  1  0
 17 14  1  0
 17 18  1  0
 18 16  2  0
 19 20  1  0
 20 21  2  0
 22 25  1  0
 22 21  1  0
 23 22  2  0
 24 23  1  0
 24 19  2  0
 25 26  1  0
 26 31  2  0
 26 27  1  0
 27 28  2  0
 28 29  1  0
 29 33  1  0
 30 29  2  0
 31 30  1  0
 32 31  1  0
 34 35  1  0
 35 38  1  0
 35 37  1  0
 36 34  2  0
 39 40  1  0
 39 14  1  0
 41 39  1  0
 43 42  2  0
 44 42  1  0
 45 43  1  0
 46 44  2  0
 47 45  2  0
 47 46  1  0
 48 49  1  0
 48  3  1  0
 50 51  1  0
 50 49  2  0
 52 54  1  0
 52 51  1  0
 53 64  2  0
 54 59  1  0
 55 63  1  0
 55 65  1  0
 56 62  1  0
 56 58  1  0
 57 63  1  0
 58 57  1  0
 59 58  2  0
 60 61  1  0
 60 54  2  0
 61 56  2  0
 62 55  1  0
 63 53  1  0
 65 67  2  0
 66 65  1  0
 68 66  1  0
 69 78  2  0
 69 74  1  0
 70 66  1  0
 70 74  1  0
 71 70  1  0
 72 73  1  0
 72 71  1  0
 73 69  1  0
 74 75  2  0
 75 76  1  0
 77 76  2  0
 78 77  1  0
 79 53  1  0
 79 80  1  0
 79 89  1  0
 80 83  1  0
 81 80  1  0
 81 85  1  0
 82 81  2  0
 85 84  1  0
 85 87  1  0
 87 88  1  0
 87 86  1  0
 89 92  1  1
 89 90  1  0
 91 89  1  0
M  ISO  4   4 100   6 100  51 101  52 101
M  END
>  <TORSDO>  (26) 
F 22

>  <SCORE>  (26) 
-4.584

>  <name>  (26) 
25

>  <ligand_id>  (26) 
25

>  <original_smiles>  (26) 
[H]C(C(=O)N1C([H])([H])C([H])([H])C([H])([H])C([H])(n2nc(-c3c([H])c([H])c(Oc4c([H])c([H])c(F)c([H])c4F)c([H])c3[H])c(C(=O)N([H])[H])c2N([H])[H])C1([H])[H])=C(C(=NC([H])([H])C([H])([H])C([H])([H])C([H])([H])Oc1c([H])c([H])c2c(c1[H])C([H])([H])N(C(=O)C([H])(N([H])C(=O)C([H])(N([H])C([H])([H])[H])C([H])([H])[H])C(C([H])([H])[H])(C([H])([H])[H])C([H])([H])[H])C([H])(C(=O)N([H])C1([H])c3c([H])c([H])c([H])c([H])c3C([H])([H])C([H])([H])C1([H])[H])C2([H])[H])C([H])([H])[H])c1c([H])c([H])c([H])c([H])c1[H]

>  <smiles>  (26) 
[H]C(C(=O)N1C([H])([H])C([H])([H])C([H])([H])C([H])(n2nc(-c3c([H])c([H])c(Oc4c([H])c([H])c(F)c([H])c4F)c([H])c3[H])c(C(=O)N([H])[H])c2N([H])[H])C1([H])[H])=C(C(=NC([H])([H])C([H])([H])C([H])([H])C([H])([H])Oc1c([H])c([H])c2c(c1[H])C([H])([H])N(C(=O)C([H])(N([H])C(=O)C([H])(N([H])C([H])([H])[H])C([H])([H])[H])C(C([H])([H])[H])(C([H])([H])[H])C([H])([H])[H])C([H])(C(=O)N([H])C1([H])c3c([H])c([H])c([H])c([H])c3C([H])([H])C([H])([H])C1([H])[H])C2([H])[H])C([H])([H])[H])c1c([H])c([H])c([H])c([H])c1[H]

$$$$
26:0:0
     RDKit          3D

 91101  0  0  1  0  0  0  0  0999 V2000
  -26.9330  -19.3020   20.3060 C   0  0  0  0  0  2  0  0  0  0  0  0
  -27.3020  -19.0740   18.8390 C   0  0  0  0  0  2  0  0  0  0  0  0
  -26.9230  -21.4330   19.1410 C   0  0  0  0  0  2  0  0  0  0  0  0
  -27.4460  -20.7410   20.4040 C   0  0  1  0  0  0  0  0  0  0  0  0
  -27.9490  -20.4420   18.5980 C   0  0  2  0  0  0  0  0  0  0  0  0
  -28.8720  -20.9630   19.7810 C   0  0  2  0  0  0  0  0  0  0  0  0
  -30.3090  -18.3460   19.8460 C   0  0  0  0  0  0  0  0  0  0  0  0
  -29.7860  -19.6560   20.3140 N   0  0  0  0  0  0  0  0  0  0  0  0
  -30.5990  -18.2870   18.6510 O   0  0  0  0  0  0  0  0  0  0  0  0
  -29.7640  -19.6400   21.3250 H   0  0  0  0  0  0  0  0  0  0  0  0
  -31.2250  -17.1510   22.0300 C   0  0  0  0  0  1  0  0  0  0  0  0
  -30.4770  -16.8380   20.7180 C   0  0  0  0  0  3  0  0  0  0  0  0
  -31.1050  -15.2940   20.1910 C   0  0  0  0  0  0  0  0  0  0  0  0
  -30.9730  -12.8330   19.3580 C   0  0  0  0  0  2  0  0  0  0  0  0
  -30.0560  -12.7210   18.1130 C   0  0  0  0  0  2  0  0  0  0  0  0
  -28.5910  -12.5370   18.5410 C   0  0  0  0  0  2  0  0  0  0  0  0
  -28.1980  -13.5070   19.6840 C   0  0  0  0  0  3  0  0  0  0  0  0
  -29.2440  -13.5720   20.8150 C   0  0  0  0  0  2  0  0  0  0  0  0
  -30.5100  -14.0000   20.1980 N   0  0  0  0  0  0  0  0  0  0  0  0
  -32.2820  -15.2510   19.8010 O   0  0  0  0  0  0  0  0  0  0  0  0
  -25.8780  -14.1770   20.4850 C   0  0  0  0  0  0  0  0  0  0  0  0
  -24.7680  -13.4500   20.8230 C   0  0  0  0  0  0  0  0  0  0  0  0
  -25.1480  -12.0770   20.7170 C   0  0  0  0  0  0  0  0  0  0  0  0
  -26.8560  -13.2490   20.1830 N   0  0  0  0  0  0  0  0  0  0  0  0
  -26.4320  -11.9740   20.3930 N   0  0  0  0  0  0  0  0  0  0  0  0
  -24.3430  -10.8540   20.8570 C   0  0  0  0  0  0  0  0  0  0  0  0
  -24.6940   -9.8340   21.7680 C   0  0  0  0  0  3  0  0  0  0  0  0
  -23.8930   -8.6790   21.8980 C   0  0  0  0  0  3  0  0  0  0  0  0
  -22.7220   -8.5360   21.1150 C   0  0  0  0  0  0  0  0  0  0  0  0
  -22.3890   -9.5420   20.1900 C   0  0  0  0  0  3  0  0  0  0  0  0
  -23.1920  -10.6890   20.0600 C   0  0  0  0  0  3  0  0  0  0  0  0
  -21.8960   -7.4390   21.1510 O   0  0  0  0  0  0  0  0  0  0  0  0
  -21.7350   -6.7000   22.2940 C   0  0  0  0  0  0  0  0  0  0  0  0
  -21.2220   -7.2670   23.4820 C   0  0  0  0  0  3  0  0  0  0  0  0
  -21.0070   -6.4540   24.6140 C   0  0  0  0  0  3  0  0  0  0  0  0
  -21.2970   -5.0780   24.5600 C   0  0  0  0  0  0  0  0  0  0  0  0
  -21.8050   -4.5120   23.3770 C   0  0  0  0  0  3  0  0  0  0  0  0
  -22.0210   -5.3200   22.2480 C   0  0  0  0  0  0  0  0  0  0  0  0
  -22.4890   -4.7660   21.1040 F   0  0  0  0  0  0  0  0  0  0  0  0
  -21.0860   -4.2950   25.6450 F   0  0  0  0  0  0  0  0  0  0  0  0
  -23.4070  -13.9970   21.1280 C   0  0  0  0  0  0  0  0  0  0  0  0
  -22.6540  -13.3090   21.9820 N   0  0  0  0  0  0  0  0  0  0  0  0
  -23.0200  -15.0600   20.6510 O   0  0  0  0  0  0  0  0  0  0  0  0
  -22.9780  -12.4430   22.3800 H   0  0  0  0  0  0  0  0  0  0  0  0
  -21.7370  -13.6490   22.2350 H   0  0  0  0  0  0  0  0  0  0  0  0
  -26.1360  -15.5390   20.3850 N   0  0  0  0  0  0  0  0  0  0  0  0
  -25.4540  -16.2500   20.6280 H   0  0  0  0  0  0  0  0  0  0  0  0
  -27.0150  -15.9260   20.0690 H   0  0  0  0  0  0  0  0  0  0  0  0
  -29.3810  -22.7150   19.8250 C   0  0  0  0  0  3  0  0  0  0  0  0
  -28.4510  -24.2880   19.7700 C   0  0  0  0  0  3  0  0  0  0  0  0
  -28.7040  -25.8980   20.0280 O   0  0  0  0  0  0  0  0  0  0  0  0
  -24.7930  -31.5530   23.1940 C   0  0  0  0  0  0  0  0  0  0  0  0
  -27.6810  -26.9810   19.9870 C   0  0  0  0  0  0  0  0  0  0  0  0
  -23.7480  -30.2270   21.4050 C   0  0  0  0  0  3  0  0  0  0  0  0
  -25.3300  -28.7840   19.9610 C   0  0  0  0  0  0  0  0  0  0  0  0
  -26.3080  -30.5380   21.4220 C   0  0  0  0  0  2  0  0  0  0  0  0
  -26.4730  -29.1850   20.6650 C   0  0  0  0  0  0  0  0  0  0  0  0
  -27.6520  -28.3090   20.6460 C   0  0  0  0  0  3  0  0  0  0  0  0
  -26.5120  -26.7480   19.2260 C   0  0  0  0  0  3  0  0  0  0  0  0
  -25.3770  -27.5930   19.2200 C   0  0  0  0  0  3  0  0  0  0  0  0
  -24.0810  -29.6570   20.0040 C   0  0  0  0  0  2  0  0  0  0  0  0
  -24.9660  -30.7970   22.0610 N   0  0  0  0  0  0  0  0  0  0  0  0
  -23.6650  -31.7710   23.6650 O   0  0  0  0  0  0  0  0  0  0  0  0
  -23.0380  -29.1440   22.2600 C   0  0  0  0  0  0  0  0  0  0  0  0
  -21.7080  -29.0010   22.1030 N   0  0  0  0  0  0  0  0  0  0  0  0
  -23.6920  -28.4380   23.0300 O   0  0  0  0  0  0  0  0  0  0  0  0
  -21.2350  -29.6300   21.4690 H   0  0  0  0  0  0  0  0  0  0  0  0
  -18.3000  -27.8330   22.5360 C   0  0  0  0  0  0  0  0  0  0  0  0
  -20.8710  -27.9960   22.7700 C   0  0  0  0  0  3  0  0  0  0  0  0
  -20.9170  -26.6430   22.0240 C   0  0  0  0  0  2  0  0  0  0  0  0
  -19.7890  -26.4820   20.9980 C   0  0  0  0  0  2  0  0  0  0  0  0
  -18.4240  -26.5820   21.6810 C   0  0  0  0  0  2  0  0  0  0  0  0
  -19.4470  -28.5090   23.0300 C   0  0  0  0  0  0  0  0  0  0  0  0
  -19.2720  -29.6880   23.7870 C   0  0  0  0  0  3  0  0  0  0  0  0
  -17.9830  -30.1900   24.0500 C   0  0  0  0  0  3  0  0  0  0  0  0
  -16.8520  -29.5090   23.5680 C   0  0  0  0  0  3  0  0  0  0  0  0
  -17.0110  -28.3330   22.8170 C   0  0  0  0  0  3  0  0  0  0  0  0
  -26.0000  -32.1920   23.9440 C   0  0  0  0  0  3  0  0  0  0  0  0
  -26.4100  -31.4020   25.2500 C   0  0  1  0  0  0  0  0  0  0  0  0
  -25.2310  -31.1470   26.2200 C   0  0  0  0  0  1  0  0  0  0  0  0
  -27.0270  -30.0290   24.8960 C   0  0  0  0  0  1  0  0  0  0  0  0
  -27.5080  -32.1840   26.0100 C   0  0  0  0  0  1  0  0  0  0  0  0
  -25.6410  -33.5820   24.2870 N   0  0  0  0  0  0  0  0  0  0  0  0
  -25.9940  -34.6610   23.5760 C   0  0  0  0  0  0  0  0  0  0  0  0
  -26.7180  -34.5960   22.5790 O   0  0  0  0  0  0  0  0  0  0  0  0
  -25.0120  -33.7080   25.0660 H   0  0  0  0  0  0  0  0  0  0  0  0
  -24.2430  -36.4260   23.2050 C   0  0  0  0  0  1  0  0  0  0  0  0
  -25.4660  -36.0310   24.0470 C   0  0  0  0  0  3  0  0  0  0  0  0
  -27.5410  -36.9570   24.9750 C   0  0  0  0  0  1  0  0  0  0  0  0
  -26.4790  -37.1070   23.9850 N   0  0  0  0  0  0  0  0  0  0  0  0
  -26.0480  -38.0190   24.1210 H   0  0  0  0  0  0  0  0  0  0  0  0
  4  1  1  1
  2  1  1  0
  4  3  1  0
  5  2  1  1
  5  3  1  0
  5  6  1  0
  5  4  1  0
  6 49  1  0
  6  8  1  1
  6  4  1  0
  7  8  1  0
  7 12  1  0
  8 10  1  0
  9  7  2  0
 12 11  1  0
 13 19  1  0
 13 12  1  0
 14 19  1  0
 15 16  1  0
 15 14  1  0
 17 16  1  0
 17 24  1  0
 17 18  1  0
 19 18  1  0
 20 13  2  0
 21 22  2  0
 22 41  1  0
 23 22  1  0
 23 26  1  0
 24 25  1  0
 24 21  1  0
 25 23  2  0
 26 27  1  0
 27 28  2  0
 29 32  1  0
 29 28  1  0
 30 29  2  0
 31 30  1  0
 31 26  2  0
 32 33  1  0
 33 34  1  0
 34 35  2  0
 36 35  1  0
 36 40  1  0
 37 36  2  0
 38 33  2  0
 38 37  1  0
 39 38  1  0
 41 42  1  0
 42 45  1  0
 42 44  1  0
 43 41  2  0
 46 21  1  0
 46 47  1  0
 48 46  1  0
 50 49  2  0
 50 51  1  0
 52 63  2  0
 53 51  1  0
 53 58  1  0
 54 62  1  0
 54 64  1  0
 55 61  1  0
 55 57  1  0
 56 62  1  0
 57 56  1  0
 58 57  2  0
 59 53  2  0
 60 59  1  0
 60 55  2  0
 61 54  1  0
 62 52  1  0
 64 66  2  0
 65 64  1  0
 67 65  1  0
 68 77  2  0
 68 73  1  0
 69 65  1  0
 69 73  1  0
 70 69  1  0
 71 72  1  0
 71 70  1  0
 72 68  1  0
 73 74  2  0
 74 75  1  0
 76 75  2  0
 77 76  1  0
 78 52  1  0
 78 83  1  0
 78 79  1  0
 79 82  1  1
 79 80  1  0
 81 79  1  0
 83 86  1  0
 84 88  1  0
 84 83  1  0
 85 84  2  0
 88 87  1  0
 90 88  1  0
 90 91  1  0
 90 89  1  0
M  ISO  4  12 100  13 100  50 101  51 101
M  END
>  <TORSDO>  (27) 
F 20

>  <SCORE>  (27) 
-13.735

>  <name>  (27) 
26

>  <ligand_id>  (27) 
26

>  <original_smiles>  (27) 
[H]c1c([H])c([H])c2c(c1[H])C([H])([H])C([H])([H])C([H])([H])C2([H])N([H])C(=O)C1([H])N(C(=O)C([H])(N([H])C(=O)C([H])(N([H])C([H])([H])[H])C([H])([H])[H])C(C([H])([H])[H])(C([H])([H])[H])C([H])([H])[H])C([H])([H])c2c([H])c(OC([H])([H])C([H])([H])C3(N([H])C(=O)C([H])(C(=O)N4C([H])([H])C([H])([H])C([H])([H])C([H])(n5nc(-c6c([H])c([H])c(Oc7c([H])c([H])c(F)c([H])c7F)c([H])c6[H])c(C(=O)N([H])[H])c5N([H])[H])C4([H])[H])C([H])([H])[H])C4([H])C([H])([H])C([H])([H])C3([H])C4([H])[H])c([H])c([H])c2C1([H])[H]

>  <smiles>  (27) 
[H]c1c([H])c([H])c2c(c1[H])C([H])([H])C([H])([H])C([H])([H])C2([H])N([H])C(=O)C1([H])N(C(=O)C([H])(N([H])C(=O)C([H])(N([H])C([H])([H])[H])C([H])([H])[H])C(C([H])([H])[H])(C([H])([H])[H])C([H])([H])[H])C([H])([H])c2c([H])c(OC([H])([H])C([H])([H])C3(N([H])C(=O)C([H])(C(=O)N4C([H])([H])C([H])([H])C([H])([H])C([H])(n5nc(-c6c([H])c([H])c(Oc7c([H])c([H])c(F)c([H])c7F)c([H])c6[H])c(C(=O)N([H])[H])c5N([H])[H])C4([H])[H])C([H])([H])[H])C4([H])C([H])([H])C([H])([H])C3([H])C4([H])[H])c([H])c([H])c2C1([H])[H]

$$$$
27:0:0
     RDKit          3D

 90 98  0  0  1  0  0  0  0  0999 V2000
  -29.1030  -22.4310   20.4260 N   0  0  0  0  0  4  0  0  0  0  0  0
  -28.6730  -22.2300   21.3150 H   0  0  0  0  0  0  0  0  0  0  0  0
  -28.4380  -22.1640   19.7170 H   0  0  0  0  0  0  0  0  0  0  0  0
  -31.2720  -21.2540   22.5090 C   0  0  0  0  0  2  0  0  0  0  0  0
  -30.5550  -19.9290   22.1990 C   0  0  0  0  0  2  0  0  0  0  0  0
  -31.4810  -21.9630   21.1590 C   0  0  0  0  0  2  0  0  0  0  0  0
  -30.3390  -19.9350   20.6810 C   0  0  0  0  0  3  0  0  0  0  0  0
  -30.3160  -21.5030   20.2470 C   0  0  0  0  0  3  0  0  0  0  0  0
  -29.5300  -18.6790   20.1160 C   0  0  0  0  0  2  0  0  0  0  0  0
  -29.8130  -16.0090   20.4750 C   0  0  0  0  0  3  0  0  0  0  0  0
  -30.2720  -17.2730   20.1490 C   0  0  0  0  0  3  0  0  0  0  0  0
  -30.6440  -14.7580   20.3330 C   0  0  0  0  0  0  0  0  0  0  0  0
  -30.4100  -12.4800   19.3650 C   0  0  0  0  0  2  0  0  0  0  0  0
  -29.4720  -12.5700   18.1410 C   0  0  0  0  0  2  0  0  0  0  0  0
  -28.0010  -12.4140   18.5740 C   0  0  0  0  0  2  0  0  0  0  0  0
  -27.6370  -13.3110   19.7840 C   0  0  0  0  0  3  0  0  0  0  0  0
  -28.6940  -13.2170   20.9010 C   0  0  0  0  0  2  0  0  0  0  0  0
  -30.0030  -13.5390   20.3160 N   0  0  0  0  0  0  0  0  0  0  0  0
  -31.8390  -14.8100   20.0340 O   0  0  0  0  0  0  0  0  0  0  0  0
  -25.2510  -13.9180   20.5140 C   0  0  0  0  0  0  0  0  0  0  0  0
  -24.1820  -13.1510   20.8840 C   0  0  0  0  0  0  0  0  0  0  0  0
  -24.6370  -11.7960   20.8540 C   0  0  0  0  0  0  0  0  0  0  0  0
  -26.2910  -13.0340   20.2760 N   0  0  0  0  0  0  0  0  0  0  0  0
  -25.9270  -11.7520   20.5440 N   0  0  0  0  0  0  0  0  0  0  0  0
  -23.9020  -10.5400   21.0410 C   0  0  0  0  0  0  0  0  0  0  0  0
  -24.3280   -9.5670   21.9730 C   0  0  0  0  0  3  0  0  0  0  0  0
  -23.5940   -8.3740   22.1460 C   0  0  0  0  0  3  0  0  0  0  0  0
  -22.4190   -8.1470   21.3900 C   0  0  0  0  0  0  0  0  0  0  0  0
  -22.0150   -9.1080   20.4460 C   0  0  0  0  0  3  0  0  0  0  0  0
  -22.7490  -10.2920   20.2700 C   0  0  0  0  0  3  0  0  0  0  0  0
  -21.6560   -7.0060   21.4750 O   0  0  0  0  0  0  0  0  0  0  0  0
  -21.5930   -6.2670   22.6300 C   0  0  0  0  0  0  0  0  0  0  0  0
  -21.1460   -6.8230   23.8480 C   0  0  0  0  0  3  0  0  0  0  0  0
  -21.0310   -6.0080   24.9930 C   0  0  0  0  0  3  0  0  0  0  0  0
  -21.3550   -4.6410   24.9190 C   0  0  0  0  0  0  0  0  0  0  0  0
  -21.7950   -4.0840   23.7060 C   0  0  0  0  0  3  0  0  0  0  0  0
  -21.9110   -4.8960   22.5630 C   0  0  0  0  0  0  0  0  0  0  0  0
  -22.3160   -4.3510   21.3900 F   0  0  0  0  0  0  0  0  0  0  0  0
  -21.2370   -3.8560   26.0160 F   0  0  0  0  0  0  0  0  0  0  0  0
  -22.7870  -13.6370   21.1550 C   0  0  0  0  0  0  0  0  0  0  0  0
  -22.0510  -12.9450   22.0170 N   0  0  0  0  0  0  0  0  0  0  0  0
  -22.3590  -14.6670   20.6360 O   0  0  0  0  0  0  0  0  0  0  0  0
  -22.4100  -12.1150   22.4650 H   0  0  0  0  0  0  0  0  0  0  0  0
  -21.1140  -13.2520   22.2350 H   0  0  0  0  0  0  0  0  0  0  0  0
  -25.4190  -15.2890   20.3360 N   0  0  0  0  0  0  0  0  0  0  0  0
  -24.6460  -15.9360   20.4450 H   0  0  0  0  0  0  0  0  0  0  0  0
  -26.2610  -15.7290   19.9870 H   0  0  0  0  0  0  0  0  0  0  0  0
  -29.3250  -23.9610   20.3300 C   0  0  0  0  0  3  0  0  0  0  0  0
  -28.0720  -24.9470   20.1200 C   0  0  0  0  0  3  0  0  0  0  0  0
  -28.2940  -26.4330   20.2120 O   0  0  0  0  0  0  0  0  0  0  0  0
  -24.5590  -31.8950   23.2090 C   0  0  0  0  0  0  0  0  0  0  0  0
  -27.1840  -27.3050   20.1630 C   0  0  0  0  0  0  0  0  0  0  0  0
  -23.3730  -30.5000   21.5580 C   0  0  0  0  0  3  0  0  0  0  0  0
  -24.8320  -28.9510   20.1400 C   0  0  0  0  0  0  0  0  0  0  0  0
  -25.9200  -30.8080   21.4010 C   0  0  0  0  0  2  0  0  0  0  0  0
  -26.0010  -29.4290   20.7470 C   0  0  0  0  0  0  0  0  0  0  0  0
  -27.1810  -28.6180   20.7430 C   0  0  0  0  0  3  0  0  0  0  0  0
  -25.9880  -26.8920   19.5340 C   0  0  0  0  0  3  0  0  0  0  0  0
  -24.8300  -27.6930   19.5240 C   0  0  0  0  0  3  0  0  0  0  0  0
  -23.6020  -29.8350   20.1760 C   0  0  0  0  0  2  0  0  0  0  0  0
  -24.6360  -31.0850   22.1120 N   0  0  0  0  0  0  0  0  0  0  0  0
  -23.4680  -32.1710   23.7310 O   0  0  0  0  0  0  0  0  0  0  0  0
  -22.7000  -29.4790   22.5070 C   0  0  0  0  0  0  0  0  0  0  0  0
  -21.3770  -29.2950   22.3610 N   0  0  0  0  0  0  0  0  0  0  0  0
  -23.3690  -28.8560   23.3360 O   0  0  0  0  0  0  0  0  0  0  0  0
  -20.8940  -29.8560   21.6720 H   0  0  0  0  0  0  0  0  0  0  0  0
  -17.9960  -28.0870   22.8130 C   0  0  0  0  0  0  0  0  0  0  0  0
  -20.5500  -28.3560   23.1190 C   0  0  0  0  0  3  0  0  0  0  0  0
  -20.6640  -26.9230   22.5480 C   0  0  0  0  0  2  0  0  0  0  0  0
  -19.5770  -26.5940   21.5190 C   0  0  0  0  0  2  0  0  0  0  0  0
  -18.1860  -26.7370   22.1440 C   0  0  0  0  0  2  0  0  0  0  0  0
  -19.1060  -28.8540   23.2580 C   0  0  0  0  0  0  0  0  0  0  0  0
  -18.8740  -30.1170   23.8450 C   0  0  0  0  0  3  0  0  0  0  0  0
  -17.5650  -30.6120   23.9940 C   0  0  0  0  0  3  0  0  0  0  0  0
  -16.4690  -29.8420   23.5660 C   0  0  0  0  0  3  0  0  0  0  0  0
  -16.6860  -28.5820   22.9790 C   0  0  0  0  0  3  0  0  0  0  0  0
  -25.8310  -32.5310   23.8450 C   0  0  0  0  0  3  0  0  0  0  0  0
  -25.5170  -33.9300   24.1650 N   0  0  0  0  0  0  0  0  0  0  0  0
  -25.8650  -34.9810   23.4100 C   0  0  0  0  0  0  0  0  0  0  0  0
  -26.5490  -34.8730   22.3890 O   0  0  0  0  0  0  0  0  0  0  0  0
  -24.9060  -34.0890   24.9520 H   0  0  0  0  0  0  0  0  0  0  0  0
  -24.1520  -36.7830   23.0240 C   0  0  0  0  0  1  0  0  0  0  0  0
  -25.3760  -36.3720   23.8580 C   0  0  0  0  0  3  0  0  0  0  0  0
  -27.4980  -37.2480   24.7310 C   0  0  0  0  0  1  0  0  0  0  0  0
  -26.4160  -37.4200   23.7640 N   0  0  0  0  0  0  0  0  0  0  0  0
  -26.0110  -38.3430   23.9050 H   0  0  0  0  0  0  0  0  0  0  0  0
  -26.3260  -31.7660   25.1330 C   0  0  1  0  0  0  0  0  0  0  0  0
  -25.2180  -31.5340   26.1880 C   0  0  0  0  0  1  0  0  0  0  0  0
  -26.9130  -30.3860   24.7570 C   0  0  0  0  0  1  0  0  0  0  0  0
  -27.4670  -32.5640   25.8070 C   0  0  0  0  0  1  0  0  0  0  0  0
  1  2  1  0
  3  1  1  0
  5  4  1  0
  6  4  1  0
  7  9  1  0
  7  5  1  0
  8  1  1  0
  8  7  1  0
  8  6  1  0
  9 11  1  0
 11 10  2  0
 12 10  1  0
 13 18  1  0
 14 15  1  0
 14 13  1  0
 16 15  1  0
 16 23  1  0
 16 17  1  0
 18 12  1  0
 18 17  1  0
 19 12  2  0
 20 21  2  0
 21 40  1  0
 22 21  1  0
 22 25  1  0
 23 20  1  0
 23 24  1  0
 24 22  2  0
 25 26  1  0
 26 27  2  0
 28 31  1  0
 28 27  1  0
 29 28  2  0
 30 29  1  0
 30 25  2  0
 31 32  1  0
 32 33  1  0
 33 34  2  0
 35 34  1  0
 35 39  1  0
 36 35  2  0
 37 32  2  0
 37 36  1  0
 38 37  1  0
 40 41  1  0
 41 44  1  0
 41 43  1  0
 42 40  2  0
 45 46  1  0
 45 20  1  0
 47 45  1  0
 48  1  1  0
 49 50  1  0
 49 48  2  0
 51 62  2  0
 52 50  1  0
 52 57  1  0
 53 61  1  0
 53 63  1  0
 54 60  1  0
 54 56  1  0
 55 61  1  0
 56 55  1  0
 57 56  2  0
 58 52  2  0
 59 58  1  0
 59 54  2  0
 60 53  1  0
 61 51  1  0
 63 65  2  0
 64 63  1  0
 66 64  1  0
 67 76  2  0
 67 72  1  0
 68 64  1  0
 68 72  1  0
 69 68  1  0
 70 71  1  0
 70 69  1  0
 71 67  1  0
 72 73  2  0
 73 74  1  0
 75 74  2  0
 76 75  1  0
 77 51  1  0
 77 78  1  0
 77 87  1  0
 78 81  1  0
 79 83  1  0
 79 78  1  0
 80 79  2  0
 83 82  1  0
 85 83  1  0
 85 86  1  0
 85 84  1  0
 87 90  1  1
 87 88  1  0
 89 87  1  0
M  ISO  4  10 100  12 100  49 101  50 101
M  END
>  <TORSDO>  (28) 
F 21

>  <SCORE>  (28) 
-13.396

>  <name>  (28) 
27

>  <ligand_id>  (28) 
27

>  <original_smiles>  (28) 
[H]C(C(=O)N1C([H])([H])C([H])([H])C([H])([H])C([H])(n2nc(-c3c([H])c([H])c(Oc4c([H])c([H])c(F)c([H])c4F)c([H])c3[H])c(C(=O)N([H])[H])c2N([H])[H])C1([H])[H])=C([H])C([H])([H])C1([H])C([H])([H])C([H])([H])C([H])([H])C1([H])[N+]([H])([H])C([H])([H])C([H])([H])Oc1c([H])c([H])c2c(c1[H])C([H])([H])N(C(=O)C([H])(N([H])C(=O)C([H])(N([H])C([H])([H])[H])C([H])([H])[H])C(C([H])([H])[H])(C([H])([H])[H])C([H])([H])[H])C([H])(C(=O)N([H])C1([H])c3c([H])c([H])c([H])c([H])c3C([H])([H])C([H])([H])C1([H])[H])C2([H])[H]

>  <smiles>  (28) 
[H]C(C(=O)N1C([H])([H])C([H])([H])C([H])([H])C([H])(n2nc(-c3c([H])c([H])c(Oc4c([H])c([H])c(F)c([H])c4F)c([H])c3[H])c(C(=O)N([H])[H])c2N([H])[H])C1([H])[H])=C([H])C([H])([H])C1([H])C([H])([H])C([H])([H])C([H])([H])C1([H])[N+]([H])([H])C([H])([H])C([H])([H])Oc1c([H])c([H])c2c(c1[H])C([H])([H])N(C(=O)C([H])(N([H])C(=O)C([H])(N([H])C([H])([H])[H])C([H])([H])[H])C(C([H])([H])[H])(C([H])([H])[H])C([H])([H])[H])C([H])(C(=O)N([H])C1([H])c3c([H])c([H])c([H])c([H])c3C([H])([H])C([H])([H])C1([H])[H])C2([H])[H]

$$$$
28:0:0
     RDKit          3D

 86 93  0  0  1  0  0  0  0  0999 V2000
  -28.9820  -21.7080   19.5830 C   0  0  0  0  0  0  0  0  0  0  0  0
  -28.7890  -22.1020   18.1300 C   0  0  0  0  0  1  0  0  0  0  0  0
  -29.2480  -20.3590   19.6830 N   0  0  0  0  0  0  0  0  0  0  0  0
  -30.3660  -19.7510   21.8460 C   0  0  0  0  0  1  0  0  0  0  0  0
  -29.4940  -19.1960   20.7140 C   0  0  0  0  0  3  0  0  0  0  0  0
  -29.8000  -16.3500   20.5410 C   0  0  0  0  0  3  0  0  0  0  0  0
  -30.1220  -17.7150   20.2540 C   0  0  0  0  0  3  0  0  0  0  0  0
  -30.5700  -15.0330   20.1720 C   0  0  0  0  0  0  0  0  0  0  0  0
  -30.4000  -12.6770   19.2200 C   0  0  0  0  0  2  0  0  0  0  0  0
  -29.4460  -12.6640   18.0010 C   0  0  0  0  0  2  0  0  0  0  0  0
  -27.9870  -12.4650   18.4520 C   0  0  0  0  0  2  0  0  0  0  0  0
  -27.6180  -13.3710   19.6550 C   0  0  0  0  0  3  0  0  0  0  0  0
  -28.6930  -13.3520   20.7610 C   0  0  0  0  0  2  0  0  0  0  0  0
  -29.9610  -13.7690   20.1450 N   0  0  0  0  0  0  0  0  0  0  0  0
  -31.7490  -15.0510   19.8020 O   0  0  0  0  0  0  0  0  0  0  0  0
  -25.2560  -13.9640   20.4340 C   0  0  0  0  0  0  0  0  0  0  0  0
  -24.1920  -13.1970   20.8220 C   0  0  0  0  0  0  0  0  0  0  0  0
  -24.6470  -11.8430   20.7860 C   0  0  0  0  0  0  0  0  0  0  0  0
  -26.2870  -13.0790   20.1760 N   0  0  0  0  0  0  0  0  0  0  0  0
  -25.9320  -11.7960   20.4550 N   0  0  0  0  0  0  0  0  0  0  0  0
  -23.9130  -10.5870   20.9920 C   0  0  0  0  0  0  0  0  0  0  0  0
  -24.3560   -9.6120   21.9130 C   0  0  0  0  0  3  0  0  0  0  0  0
  -23.6210   -8.4230   22.1070 C   0  0  0  0  0  3  0  0  0  0  0  0
  -22.4280   -8.1990   21.3790 C   0  0  0  0  0  0  0  0  0  0  0  0
  -22.0040   -9.1610   20.4460 C   0  0  0  0  0  3  0  0  0  0  0  0
  -22.7400  -10.3420   20.2510 C   0  0  0  0  0  3  0  0  0  0  0  0
  -21.6630   -7.0620   21.4820 O   0  0  0  0  0  0  0  0  0  0  0  0
  -21.6400   -6.3120   22.6310 C   0  0  0  0  0  0  0  0  0  0  0  0
  -21.2670   -6.8660   23.8750 C   0  0  0  0  0  3  0  0  0  0  0  0
  -21.1890   -6.0440   25.0180 C   0  0  0  0  0  3  0  0  0  0  0  0
  -21.4740   -4.6700   24.9160 C   0  0  0  0  0  0  0  0  0  0  0  0
  -21.8410   -4.1150   23.6770 C   0  0  0  0  0  3  0  0  0  0  0  0
  -21.9200   -4.9340   22.5380 C   0  0  0  0  0  0  0  0  0  0  0  0
  -22.2530   -4.3900   21.3420 F   0  0  0  0  0  0  0  0  0  0  0  0
  -21.3920   -3.8780   26.0110 F   0  0  0  0  0  0  0  0  0  0  0  0
  -22.8030  -13.6860   21.1130 C   0  0  0  0  0  0  0  0  0  0  0  0
  -22.0850  -13.0010   21.9940 N   0  0  0  0  0  0  0  0  0  0  0  0
  -22.3660  -14.7130   20.5940 O   0  0  0  0  0  0  0  0  0  0  0  0
  -22.4510  -12.1710   22.4350 H   0  0  0  0  0  0  0  0  0  0  0  0
  -21.1540  -13.3120   22.2330 H   0  0  0  0  0  0  0  0  0  0  0  0
  -25.4280  -15.3340   20.2540 N   0  0  0  0  0  0  0  0  0  0  0  0
  -24.6680  -15.9940   20.3830 H   0  0  0  0  0  0  0  0  0  0  0  0
  -26.2750  -15.7680   19.9110 H   0  0  0  0  0  0  0  0  0  0  0  0
  -28.8410  -23.1370   20.4750 C   0  0  0  0  0  2  0  0  0  0  0  0
  -28.0500  -24.5700   19.9270 C   0  0  0  0  0  2  0  0  0  0  0  0
  -28.2280  -26.0940   20.3060 O   0  0  0  0  0  0  0  0  0  0  0  0
  -24.6210  -31.8610   23.2140 C   0  0  0  0  0  0  0  0  0  0  0  0
  -27.1880  -27.1040   20.1970 C   0  0  0  0  0  0  0  0  0  0  0  0
  -23.4190  -30.4610   21.5800 C   0  0  0  0  0  3  0  0  0  0  0  0
  -24.8650  -28.8790   20.1530 C   0  0  0  0  0  0  0  0  0  0  0  0
  -25.9750  -30.7140   21.4170 C   0  0  0  0  0  2  0  0  0  0  0  0
  -26.0460  -29.3170   20.7670 C   0  0  0  0  0  0  0  0  0  0  0  0
  -27.2040  -28.4440   20.7740 C   0  0  0  0  0  3  0  0  0  0  0  0
  -25.9860  -26.7880   19.5230 C   0  0  0  0  0  3  0  0  0  0  0  0
  -24.8520  -27.6310   19.5130 C   0  0  0  0  0  3  0  0  0  0  0  0
  -23.6390  -29.7800   20.2020 C   0  0  0  0  0  2  0  0  0  0  0  0
  -24.6920  -31.0360   22.1240 N   0  0  0  0  0  0  0  0  0  0  0  0
  -23.5360  -32.1500   23.7410 O   0  0  0  0  0  0  0  0  0  0  0  0
  -22.7400  -29.4590   22.5470 C   0  0  0  0  0  0  0  0  0  0  0  0
  -21.4110  -29.2860   22.4210 N   0  0  0  0  0  0  0  0  0  0  0  0
  -23.4100  -28.8390   23.3750 O   0  0  0  0  0  0  0  0  0  0  0  0
  -20.9260  -29.8380   21.7270 H   0  0  0  0  0  0  0  0  0  0  0  0
  -18.0350  -28.0660   22.9120 C   0  0  0  0  0  0  0  0  0  0  0  0
  -20.5900  -28.3520   23.1960 C   0  0  0  0  0  3  0  0  0  0  0  0
  -20.7070  -26.9140   22.6390 C   0  0  0  0  0  2  0  0  0  0  0  0
  -19.6170  -26.5710   21.6200 C   0  0  0  0  0  2  0  0  0  0  0  0
  -18.2290  -26.7100   22.2510 C   0  0  0  0  0  2  0  0  0  0  0  0
  -19.1450  -28.8430   23.3420 C   0  0  0  0  0  0  0  0  0  0  0  0
  -18.9080  -30.1080   23.9220 C   0  0  0  0  0  3  0  0  0  0  0  0
  -17.5980  -30.5970   24.0760 C   0  0  0  0  0  3  0  0  0  0  0  0
  -16.5040  -29.8180   23.6610 C   0  0  0  0  0  3  0  0  0  0  0  0
  -16.7230  -28.5540   23.0860 C   0  0  0  0  0  3  0  0  0  0  0  0
  -25.9000  -32.5000   23.8370 C   0  0  0  0  0  3  0  0  0  0  0  0
  -26.4120  -31.7340   25.1200 C   0  0  1  0  0  0  0  0  0  0  0  0
  -25.3180  -31.5060   26.1890 C   0  0  0  0  0  1  0  0  0  0  0  0
  -26.9930  -30.3530   24.7410 C   0  0  0  0  0  1  0  0  0  0  0  0
  -27.5640  -32.5290   25.7780 C   0  0  0  0  0  1  0  0  0  0  0  0
  -25.5850  -33.8980   24.1700 N   0  0  0  0  0  0  0  0  0  0  0  0
  -25.9120  -34.9570   23.4170 C   0  0  0  0  0  0  0  0  0  0  0  0
  -26.5760  -34.8590   22.3810 O   0  0  0  0  0  0  0  0  0  0  0  0
  -24.9950  -34.0500   24.9750 H   0  0  0  0  0  0  0  0  0  0  0  0
  -24.1770  -36.7520   23.0890 C   0  0  0  0  0  1  0  0  0  0  0  0
  -25.4280  -36.3450   23.8840 C   0  0  0  0  0  3  0  0  0  0  0  0
  -27.5720  -37.2330   24.6920 C   0  0  0  0  0  1  0  0  0  0  0  0
  -26.4580  -37.4000   23.7620 N   0  0  0  0  0  0  0  0  0  0  0  0
  -26.0520  -38.3190   23.9150 H   0  0  0  0  0  0  0  0  0  0  0  0
  1  3  2  0
  1 44  1  0
  2  1  1  0
  3  5  1  0
  5  4  1  0
  7  6  2  0
  7  5  1  0
  8  6  1  0
  9 14  1  0
 10 11  1  0
 10  9  1  0
 12 11  1  0
 12 19  1  0
 12 13  1  0
 14  8  1  0
 14 13  1  0
 15  8  2  0
 16 17  2  0
 17 36  1  0
 18 17  1  0
 18 21  1  0
 19 16  1  0
 19 20  1  0
 20 18  2  0
 21 22  1  0
 22 23  2  0
 24 27  1  0
 24 23  1  0
 25 24  2  0
 26 25  1  0
 26 21  2  0
 27 28  1  0
 28 29  1  0
 29 30  2  0
 31 30  1  0
 31 35  1  0
 32 31  2  0
 33 28  2  0
 33 32  1  0
 34 33  1  0
 36 37  1  0
 37 40  1  0
 37 39  1  0
 38 36  2  0
 41 42  1  0
 41 16  1  0
 43 41  1  0
 45 46  1  0
 45 44  1  0
 47 58  2  0
 48 46  1  0
 48 53  1  0
 49 57  1  0
 49 59  1  0
 50 56  1  0
 50 52  1  0
 51 57  1  0
 52 53  2  0
 52 51  1  0
 54 48  2  0
 55 54  1  0
 55 50  2  0
 56 49  1  0
 57 47  1  0
 59 61  2  0
 60 59  1  0
 62 60  1  0
 63 72  2  0
 63 68  1  0
 64 60  1  0
 64 68  1  0
 65 64  1  0
 66 67  1  0
 66 65  1  0
 67 63  1  0
 68 69  2  0
 69 70  1  0
 71 70  2  0
 72 71  1  0
 73 47  1  0
 73 78  1  0
 73 74  1  0
 74 77  1  1
 74 75  1  0
 76 74  1  0
 78 81  1  0
 79 83  1  0
 79 78  1  0
 80 79  2  0
 83 82  1  0
 85 83  1  0
 85 86  1  0
 85 84  1  0
M  ISO  4   6 100   8 100  45 101  46 101
M  END
>  <TORSDO>  (29) 
F 20

>  <SCORE>  (29) 
-14.271

>  <name>  (29) 
28

>  <ligand_id>  (29) 
28

>  <original_smiles>  (29) 
[H]C(C(=O)N1C([H])([H])C([H])([H])C([H])([H])C([H])(n2nc(-c3c([H])c([H])c(Oc4c([H])c([H])c(F)c([H])c4F)c([H])c3[H])c(C(=O)N([H])[H])c2N([H])[H])C1([H])[H])=C([H])C([H])(N=C(C([H])([H])[H])C([H])([H])C([H])([H])Oc1c([H])c([H])c2c(c1[H])C([H])([H])N(C(=O)C([H])(N([H])C(=O)C([H])(N([H])C([H])([H])[H])C([H])([H])[H])C(C([H])([H])[H])(C([H])([H])[H])C([H])([H])[H])C([H])(C(=O)N([H])C1([H])c3c([H])c([H])c([H])c([H])c3C([H])([H])C([H])([H])C1([H])[H])C2([H])[H])C([H])([H])[H]

>  <smiles>  (29) 
[H]C(C(=O)N1C([H])([H])C([H])([H])C([H])([H])C([H])(n2nc(-c3c([H])c([H])c(Oc4c([H])c([H])c(F)c([H])c4F)c([H])c3[H])c(C(=O)N([H])[H])c2N([H])[H])C1([H])[H])=C([H])C([H])(N=C(C([H])([H])[H])C([H])([H])C([H])([H])Oc1c([H])c([H])c2c(c1[H])C([H])([H])N(C(=O)C([H])(N([H])C(=O)C([H])(N([H])C([H])([H])[H])C([H])([H])[H])C(C([H])([H])[H])(C([H])([H])[H])C([H])([H])[H])C([H])(C(=O)N([H])C1([H])c3c([H])c([H])c([H])c([H])c3C([H])([H])C([H])([H])C1([H])[H])C2([H])[H])C([H])([H])[H]

$$$$
29:0:0
     RDKit          3D

 93101  0  0  1  0  0  0  0  0999 V2000
  -27.3200  -22.3400   19.8640 N   0  0  0  0  0  4  0  0  0  0  0  0
  -26.3690  -22.2130   19.5570 H   0  0  0  0  0  0  0  0  0  0  0  0
  -27.8920  -22.3190   19.0350 H   0  0  0  0  0  0  0  0  0  0  0  0
  -27.4980  -19.8050   20.1920 C   0  0  0  0  0  2  0  0  0  0  0  0
  -29.1380  -20.9020   20.9580 C   0  0  0  0  0  2  0  0  0  0  0  0
  -28.6970  -19.4340   21.0800 C   0  0  0  0  0  3  0  0  0  0  0  0
  -27.6420  -21.2200   20.7820 C   0  0  0  0  0  3  0  0  0  0  0  0
  -30.6420  -17.9230   21.1180 C   0  0  0  0  0  0  0  0  0  0  0  0
  -29.6220  -18.4900   20.4660 N   0  0  0  0  0  0  0  0  0  0  0  0
  -30.9430  -18.2060   22.2800 O   0  0  0  0  0  0  0  0  0  0  0  0
  -29.4420  -18.1900   19.5170 H   0  0  0  0  0  0  0  0  0  0  0  0
  -31.4160  -16.8420   20.3790 C   0  0  0  0  0  2  0  0  0  0  0  0
  -31.0340  -15.4490   20.9240 C   0  0  0  0  0  2  0  0  0  0  0  0
  -31.4580  -14.3120   19.9890 C   0  0  0  0  0  0  0  0  0  0  0  0
  -30.9930  -12.1250   18.9470 C   0  0  0  0  0  2  0  0  0  0  0  0
  -29.9990  -12.2760   17.7790 C   0  0  0  0  0  2  0  0  0  0  0  0
  -28.5440  -12.2320   18.2850 C   0  0  0  0  0  2  0  0  0  0  0  0
  -28.3020  -13.1840   19.4870 C   0  0  0  0  0  3  0  0  0  0  0  0
  -29.3950  -12.9830   20.5610 C   0  0  0  0  0  2  0  0  0  0  0  0
  -30.7080  -13.1820   19.9230 N   0  0  0  0  0  0  0  0  0  0  0  0
  -32.4790  -14.4680   19.3090 O   0  0  0  0  0  0  0  0  0  0  0  0
  -26.0030  -13.9680   20.3490 C   0  0  0  0  0  0  0  0  0  0  0  0
  -24.8970  -13.2750   20.7630 C   0  0  0  0  0  0  0  0  0  0  0  0
  -25.2420  -11.8920   20.6710 C   0  0  0  0  0  0  0  0  0  0  0  0
  -26.9580  -13.0110   20.0370 N   0  0  0  0  0  0  0  0  0  0  0  0
  -26.5040  -11.7560   20.2820 N   0  0  0  0  0  0  0  0  0  0  0  0
  -24.4290  -10.6870   20.8770 C   0  0  0  0  0  0  0  0  0  0  0  0
  -24.7930   -9.7060   21.8250 C   0  0  0  0  0  3  0  0  0  0  0  0
  -23.9860   -8.5640   22.0190 C   0  0  0  0  0  3  0  0  0  0  0  0
  -22.8000   -8.3970   21.2640 C   0  0  0  0  0  0  0  0  0  0  0  0
  -22.4530   -9.3690   20.3080 C   0  0  0  0  0  3  0  0  0  0  0  0
  -23.2610  -10.5020   20.1140 C   0  0  0  0  0  3  0  0  0  0  0  0
  -21.9680   -7.3080   21.3650 O   0  0  0  0  0  0  0  0  0  0  0  0
  -21.8150   -6.6280   22.5470 C   0  0  0  0  0  0  0  0  0  0  0  0
  -21.3610   -7.2660   23.7220 C   0  0  0  0  0  3  0  0  0  0  0  0
  -21.1500   -6.5160   24.8960 C   0  0  0  0  0  3  0  0  0  0  0  0
  -21.3820   -5.1270   24.8960 C   0  0  0  0  0  0  0  0  0  0  0  0
  -21.8300   -4.4880   23.7270 C   0  0  0  0  0  3  0  0  0  0  0  0
  -22.0430   -5.2360   22.5550 C   0  0  0  0  0  0  0  0  0  0  0  0
  -22.4530   -4.6120   21.4260 F   0  0  0  0  0  0  0  0  0  0  0  0
  -21.1720   -4.4060   26.0220 F   0  0  0  0  0  0  0  0  0  0  0  0
  -23.5650  -13.8570   21.1380 C   0  0  0  0  0  0  0  0  0  0  0  0
  -22.8460  -13.2110   22.0470 N   0  0  0  0  0  0  0  0  0  0  0  0
  -23.1730  -14.9210   20.6580 O   0  0  0  0  0  0  0  0  0  0  0  0
  -23.1780  -12.3510   22.4590 H   0  0  0  0  0  0  0  0  0  0  0  0
  -21.9520  -13.5820   22.3380 H   0  0  0  0  0  0  0  0  0  0  0  0
  -26.2730  -15.3240   20.1920 N   0  0  0  0  0  0  0  0  0  0  0  0
  -25.5680  -16.0360   20.3520 H   0  0  0  0  0  0  0  0  0  0  0  0
  -27.1450  -15.6970   19.8420 H   0  0  0  0  0  0  0  0  0  0  0  0
  -27.3800  -23.6820   20.4840 C   0  0  0  0  0  2  0  0  0  0  0  0
  -28.7040  -24.4200   20.1990 C   0  0  0  0  0  2  0  0  0  0  0  0
  -28.7590  -25.8460   20.7900 C   0  0  0  0  0  2  0  0  0  0  0  0
  -28.5350  -26.8310   19.7810 O   0  0  0  0  0  0  0  0  0  0  0  0
  -24.7350  -31.7660   23.2470 C   0  0  0  0  0  0  0  0  0  0  0  0
  -27.3640  -27.5340   19.8920 C   0  0  0  0  0  0  0  0  0  0  0  0
  -23.5170  -30.4640   21.5300 C   0  0  0  0  0  3  0  0  0  0  0  0
  -24.9640  -29.0100   20.0140 C   0  0  0  0  0  0  0  0  0  0  0  0
  -26.0390  -30.8350   21.3420 C   0  0  0  0  0  2  0  0  0  0  0  0
  -26.1220  -29.5000   20.6340 C   0  0  0  0  0  0  0  0  0  0  0  0
  -27.3250  -28.7660   20.5770 C   0  0  0  0  0  3  0  0  0  0  0  0
  -26.2000  -27.0570   19.2590 C   0  0  0  0  0  3  0  0  0  0  0  0
  -24.9950  -27.7820   19.3290 C   0  0  0  0  0  3  0  0  0  0  0  0
  -23.7220  -29.8630   20.1120 C   0  0  0  0  0  2  0  0  0  0  0  0
  -24.7830  -31.0340   22.0980 N   0  0  0  0  0  0  0  0  0  0  0  0
  -23.6600  -32.0100   23.8090 O   0  0  0  0  0  0  0  0  0  0  0  0
  -22.8720  -29.3890   22.4340 C   0  0  0  0  0  0  0  0  0  0  0  0
  -21.5450  -29.2230   22.3110 N   0  0  0  0  0  0  0  0  0  0  0  0
  -23.5580  -28.7070   23.1990 O   0  0  0  0  0  0  0  0  0  0  0  0
  -21.0530  -29.8280   21.6680 H   0  0  0  0  0  0  0  0  0  0  0  0
  -18.1690  -28.0260   22.7550 C   0  0  0  0  0  0  0  0  0  0  0  0
  -20.7300  -28.2450   23.0270 C   0  0  0  0  0  3  0  0  0  0  0  0
  -20.8170  -26.8550   22.3580 C   0  0  0  0  0  2  0  0  0  0  0  0
  -19.7090  -26.6140   21.3280 C   0  0  0  0  0  2  0  0  0  0  0  0
  -18.3300  -26.7270   21.9840 C   0  0  0  0  0  2  0  0  0  0  0  0
  -19.2970  -28.7470   23.2270 C   0  0  0  0  0  0  0  0  0  0  0  0
  -19.0930  -29.9720   23.9010 C   0  0  0  0  0  3  0  0  0  0  0  0
  -17.7930  -30.4720   24.1040 C   0  0  0  0  0  3  0  0  0  0  0  0
  -16.6800  -29.7440   23.6500 C   0  0  0  0  0  3  0  0  0  0  0  0
  -16.8690  -28.5200   22.9810 C   0  0  0  0  0  3  0  0  0  0  0  0
  -26.0280  -32.3550   23.8960 C   0  0  0  0  0  3  0  0  0  0  0  0
  -25.7210  -33.7230   24.3320 N   0  0  0  0  0  0  0  0  0  0  0  0
  -26.0440  -34.8280   23.6460 C   0  0  0  0  0  0  0  0  0  0  0  0
  -26.7050  -34.8000   22.6040 O   0  0  0  0  0  0  0  0  0  0  0  0
  -25.1340  -33.8140   25.1480 H   0  0  0  0  0  0  0  0  0  0  0  0
  -24.3180  -36.6410   23.4170 C   0  0  0  0  0  1  0  0  0  0  0  0
  -25.5550  -36.1780   24.2040 C   0  0  0  0  0  3  0  0  0  0  0  0
  -27.6840  -36.9960   25.1100 C   0  0  0  0  0  1  0  0  0  0  0  0
  -26.5890  -37.2350   24.1740 N   0  0  0  0  0  0  0  0  0  0  0  0
  -26.1850  -38.1420   24.3880 H   0  0  0  0  0  0  0  0  0  0  0  0
  -26.5660  -31.4940   25.1050 C   0  0  1  0  0  0  0  0  0  0  0  0
  -25.4880  -31.1730   26.1680 C   0  0  0  0  0  1  0  0  0  0  0  0
  -27.1480  -30.1530   24.6010 C   0  0  0  0  0  1  0  0  0  0  0  0
  -27.7260  -32.2400   25.8050 C   0  0  0  0  0  1  0  0  0  0  0  0
  1 50  1  0
  2  1  1  0
  3  1  1  0
  4  7  1  0
  4  6  1  0
  5  6  1  0
  6  9  1  0
  7  1  1  0
  7  5  1  0
  8 10  2  0
  9  8  1  0
 11  9  1  0
 12 13  1  0
 12  8  1  0
 14 13  1  0
 15 20  1  0
 16 17  1  0
 16 15  1  0
 18 17  1  0
 18 25  1  0
 18 19  1  0
 20 14  1  0
 20 19  1  0
 21 14  2  0
 22 23  2  0
 23 42  1  0
 24 23  1  0
 24 27  1  0
 25 26  1  0
 25 22  1  0
 26 24  2  0
 27 28  1  0
 28 29  2  0
 30 33  1  0
 30 29  1  0
 31 30  2  0
 32 31  1  0
 32 27  2  0
 33 34  1  0
 34 39  2  0
 34 35  1  0
 35 36  2  0
 37 36  1  0
 37 41  1  0
 38 37  2  0
 39 38  1  0
 40 39  1  0
 42 43  1  0
 43 46  1  0
 43 45  1  0
 44 42  2  0
 47 22  1  0
 47 48  1  0
 49 47  1  0
 51 50  1  0
 51 52  1  0
 53 55  1  0
 53 52  1  0
 54 65  2  0
 55 60  1  0
 56 64  1  0
 56 66  1  0
 57 63  1  0
 57 59  1  0
 58 64  1  0
 59 58  1  0
 60 59  2  0
 61 62  1  0
 61 55  2  0
 62 57  2  0
 63 56  1  0
 64 54  1  0
 66 68  2  0
 67 66  1  0
 69 67  1  0
 70 79  2  0
 70 75  1  0
 71 67  1  0
 71 75  1  0
 72 71  1  0
 73 74  1  0
 73 72  1  0
 74 70  1  0
 75 76  2  0
 76 77  1  0
 78 77  2  0
 79 78  1  0
 80 54  1  0
 80 81  1  0
 80 90  1  0
 81 84  1  0
 82 86  1  0
 82 81  1  0
 83 82  2  0
 86 85  1  0
 88 86  1  0
 88 89  1  0
 88 87  1  0
 90 93  1  1
 90 91  1  0
 92 90  1  0
M  ISO  4  13 100  14 100  52 101  53 101
M  END
>  <TORSDO>  (30) 
F 23

>  <SCORE>  (30) 
-11.470

>  <name>  (30) 
29

>  <ligand_id>  (30) 
29

>  <original_smiles>  (30) 
[H]c1c([H])c([H])c2c(c1[H])C([H])([H])C([H])([H])C([H])([H])C2([H])N([H])C(=O)C1([H])N(C(=O)C([H])(N([H])C(=O)C([H])(N([H])C([H])([H])[H])C([H])([H])[H])C(C([H])([H])[H])(C([H])([H])[H])C([H])([H])[H])C([H])([H])c2c([H])c(OC([H])([H])C([H])([H])C([H])([H])[N+]([H])([H])C3([H])C([H])([H])C([H])(N([H])C(=O)C([H])([H])C([H])([H])C(=O)N4C([H])([H])C([H])([H])C([H])([H])C([H])(n5nc(-c6c([H])c([H])c(Oc7c([H])c([H])c(F)c([H])c7F)c([H])c6[H])c(C(=O)N([H])[H])c5N([H])[H])C4([H])[H])C3([H])[H])c([H])c([H])c2C1([H])[H]

>  <smiles>  (30) 
[H]c1c([H])c([H])c2c(c1[H])C([H])([H])C([H])([H])C([H])([H])C2([H])N([H])C(=O)C1([H])N(C(=O)C([H])(N([H])C(=O)C([H])(N([H])C([H])([H])[H])C([H])([H])[H])C(C([H])([H])[H])(C([H])([H])[H])C([H])([H])[H])C([H])([H])c2c([H])c(OC([H])([H])C([H])([H])C([H])([H])[N+]([H])([H])C3([H])C([H])([H])C([H])(N([H])C(=O)C([H])([H])C([H])([H])C(=O)N4C([H])([H])C([H])([H])C([H])([H])C([H])(n5nc(-c6c([H])c([H])c(Oc7c([H])c([H])c(F)c([H])c7F)c([H])c6[H])c(C(=O)N([H])[H])c5N([H])[H])C4([H])[H])C3([H])[H])c([H])c([H])c2C1([H])[H]

$$$$
30:0:0
     RDKit          3D

 89 97  0  0  1  0  0  0  0  0999 V2000
  -29.6740  -19.9200   20.6150 C   0  0  0  0  0  3  0  0  0  0  0  0
  -29.3330  -21.0550   19.9110 C   0  0  0  0  0  3  0  0  0  0  0  0
  -31.0040  -18.4780   19.1500 C   0  0  0  0  0  2  0  0  0  0  0  0
  -30.1370  -18.5510   20.1720 C   0  0  0  0  0  0  0  0  0  0  0  0
  -30.8060  -17.2720   23.0160 C   0  0  0  0  0  2  0  0  0  0  0  0
  -29.4210  -17.4830   22.3720 C   0  0  0  0  0  2  0  0  0  0  0  0
  -31.5560  -16.2860   22.0960 C   0  0  0  0  0  2  0  0  0  0  0  0
  -29.6350  -17.2120   20.8630 C   0  0  0  0  0  3  0  0  0  0  0  0
  -30.5080  -15.8600   21.0630 C   0  0  0  0  0  3  0  0  0  0  0  0
  -31.0050  -14.7480   20.0220 C   0  0  0  0  0  0  0  0  0  0  0  0
  -30.6430  -12.6310   18.7170 C   0  0  0  0  0  2  0  0  0  0  0  0
  -29.6020  -12.8590   17.5980 C   0  0  0  0  0  2  0  0  0  0  0  0
  -28.1570  -12.7150   18.1210 C   0  0  0  0  0  2  0  0  0  0  0  0
  -27.9340  -13.4800   19.4520 C   0  0  0  0  0  3  0  0  0  0  0  0
  -29.0590  -13.1340   20.4490 C   0  0  0  0  0  2  0  0  0  0  0  0
  -30.3330  -13.5540   19.8340 N   0  0  0  0  0  0  0  0  0  0  0  0
  -32.0640  -14.9440   19.4160 O   0  0  0  0  0  0  0  0  0  0  0  0
  -25.6060  -14.1320   20.3270 C   0  0  0  0  0  0  0  0  0  0  0  0
  -24.5400  -13.3810   20.7430 C   0  0  0  0  0  0  0  0  0  0  0  0
  -24.9580  -12.0180   20.6500 C   0  0  0  0  0  0  0  0  0  0  0  0
  -26.6080  -13.2270   20.0080 N   0  0  0  0  0  0  0  0  0  0  0  0
  -26.2240  -11.9490   20.2570 N   0  0  0  0  0  0  0  0  0  0  0  0
  -24.2070  -10.7730   20.8560 C   0  0  0  0  0  0  0  0  0  0  0  0
  -24.6200   -9.8090   21.8020 C   0  0  0  0  0  3  0  0  0  0  0  0
  -23.8700   -8.6280   21.9940 C   0  0  0  0  0  3  0  0  0  0  0  0
  -22.6930   -8.4040   21.2400 C   0  0  0  0  0  0  0  0  0  0  0  0
  -22.3000   -9.3570   20.2830 C   0  0  0  0  0  3  0  0  0  0  0  0
  -23.0490  -10.5290   20.0890 C   0  0  0  0  0  3  0  0  0  0  0  0
  -21.9150   -7.2750   21.3410 O   0  0  0  0  0  0  0  0  0  0  0  0
  -21.7790   -6.6000   22.5280 C   0  0  0  0  0  0  0  0  0  0  0  0
  -21.2930   -7.2310   23.6940 C   0  0  0  0  0  3  0  0  0  0  0  0
  -21.1030   -6.4830   24.8730 C   0  0  0  0  0  3  0  0  0  0  0  0
  -21.3880   -5.1050   24.8860 C   0  0  0  0  0  0  0  0  0  0  0  0
  -21.8660   -4.4730   23.7240 C   0  0  0  0  0  3  0  0  0  0  0  0
  -22.0580   -5.2190   22.5480 C   0  0  0  0  0  0  0  0  0  0  0  0
  -22.5000   -4.6010   21.4260 F   0  0  0  0  0  0  0  0  0  0  0  0
  -21.1970   -4.3840   26.0150 F   0  0  0  0  0  0  0  0  0  0  0  0
  -23.1770  -13.8910   21.1130 C   0  0  0  0  0  0  0  0  0  0  0  0
  -22.4910  -13.2050   22.0200 N   0  0  0  0  0  0  0  0  0  0  0  0
  -22.7330  -14.9340   20.6330 O   0  0  0  0  0  0  0  0  0  0  0  0
  -22.8660  -12.3630   22.4310 H   0  0  0  0  0  0  0  0  0  0  0  0
  -21.5790  -13.5280   22.3060 H   0  0  0  0  0  0  0  0  0  0  0  0
  -25.8000  -15.5010   20.1750 N   0  0  0  0  0  0  0  0  0  0  0  0
  -25.0650  -16.1750   20.3590 H   0  0  0  0  0  0  0  0  0  0  0  0
  -26.6460  -15.9240   19.8130 H   0  0  0  0  0  0  0  0  0  0  0  0
  -28.7710  -22.3850   20.5500 C   0  0  0  0  0  2  0  0  0  0  0  0
  -29.0430  -23.8400   19.9300 C   0  0  0  0  0  3  0  0  0  0  0  0
  -28.2380  -25.0540   20.6010 C   0  0  0  0  0  3  0  0  0  0  0  0
  -28.4400  -26.4690   20.1870 O   0  0  0  0  0  0  0  0  0  0  0  0
  -24.6890  -31.8820   23.2000 C   0  0  0  0  0  0  0  0  0  0  0  0
  -27.3180  -27.3120   20.1750 C   0  0  0  0  0  0  0  0  0  0  0  0
  -23.4850  -30.4610   21.5790 C   0  0  0  0  0  3  0  0  0  0  0  0
  -24.9390  -28.9020   20.1620 C   0  0  0  0  0  0  0  0  0  0  0  0
  -26.0210  -30.7950   21.3770 C   0  0  0  0  0  2  0  0  0  0  0  0
  -26.1080  -29.4090   20.7450 C   0  0  0  0  0  0  0  0  0  0  0  0
  -27.3020  -28.6260   20.7400 C   0  0  0  0  0  3  0  0  0  0  0  0
  -26.1280  -26.8600   19.5640 C   0  0  0  0  0  3  0  0  0  0  0  0
  -24.9510  -27.6330   19.5630 C   0  0  0  0  0  3  0  0  0  0  0  0
  -23.6970  -29.7690   20.2050 C   0  0  0  0  0  2  0  0  0  0  0  0
  -24.7500  -31.0630   22.1080 N   0  0  0  0  0  0  0  0  0  0  0  0
  -23.6070  -32.1580   23.7370 O   0  0  0  0  0  0  0  0  0  0  0  0
  -22.8320  -29.4500   22.5520 C   0  0  0  0  0  0  0  0  0  0  0  0
  -21.5060  -29.2660   22.4330 N   0  0  0  0  0  0  0  0  0  0  0  0
  -23.5170  -28.8350   23.3730 O   0  0  0  0  0  0  0  0  0  0  0  0
  -21.0120  -29.8130   21.7420 H   0  0  0  0  0  0  0  0  0  0  0  0
  -18.1400  -28.0500   22.9510 C   0  0  0  0  0  0  0  0  0  0  0  0
  -20.6960  -28.3320   23.2160 C   0  0  0  0  0  3  0  0  0  0  0  0
  -20.8090  -26.8950   22.6600 C   0  0  0  0  0  2  0  0  0  0  0  0
  -19.7100  -26.5500   21.6500 C   0  0  0  0  0  2  0  0  0  0  0  0
  -18.3260  -26.6930   22.2920 C   0  0  0  0  0  2  0  0  0  0  0  0
  -19.2520  -28.8260   23.3700 C   0  0  0  0  0  0  0  0  0  0  0  0
  -19.0230  -30.0950   23.9440 C   0  0  0  0  0  3  0  0  0  0  0  0
  -17.7140  -30.5880   24.1050 C   0  0  0  0  0  3  0  0  0  0  0  0
  -16.6160  -29.8090   23.7010 C   0  0  0  0  0  3  0  0  0  0  0  0
  -16.8300  -28.5410   23.1300 C   0  0  0  0  0  3  0  0  0  0  0  0
  -25.9710  -32.5260   23.8100 C   0  0  0  0  0  3  0  0  0  0  0  0
  -25.6460  -33.9170   24.1600 N   0  0  0  0  0  0  0  0  0  0  0  0
  -25.9490  -34.9820   23.4060 C   0  0  0  0  0  0  0  0  0  0  0  0
  -26.6030  -34.8990   22.3620 O   0  0  0  0  0  0  0  0  0  0  0  0
  -25.0630  -34.0530   24.9720 H   0  0  0  0  0  0  0  0  0  0  0  0
  -24.1870  -36.7520   23.1050 C   0  0  0  0  0  1  0  0  0  0  0  0
  -25.4510  -36.3580   23.8870 C   0  0  0  0  0  3  0  0  0  0  0  0
  -27.5880  -37.2680   24.6830 C   0  0  0  0  0  1  0  0  0  0  0  0
  -26.4650  -37.4290   23.7640 N   0  0  0  0  0  0  0  0  0  0  0  0
  -26.0480  -38.3410   23.9290 H   0  0  0  0  0  0  0  0  0  0  0  0
  -26.5160  -31.7490   25.0710 C   0  0  1  0  0  0  0  0  0  0  0  0
  -25.4410  -31.4790   26.1500 C   0  0  0  0  0  1  0  0  0  0  0  0
  -27.1180  -30.3870   24.6560 C   0  0  0  0  0  1  0  0  0  0  0  0
  -27.6610  -32.5550   25.7280 C   0  0  0  0  0  1  0  0  0  0  0  0
  2 46  1  0
  2  1  2  0
  3  4  2  0
  4  1  1  0
  6  5  1  0
  7  5  1  0
  8  4  1  0
  8  9  1  0
  8  6  1  0
  9 10  1  0
  9  7  1  0
 11 16  1  0
 12 13  1  0
 12 11  1  0
 14 13  1  0
 14 21  1  0
 14 15  1  0
 16 10  1  0
 16 15  1  0
 17 10  2  0
 18 19  2  0
 19 38  1  0
 20 19  1  0
 20 23  1  0
 21 22  1  0
 21 18  1  0
 22 20  2  0
 23 24  1  0
 24 25  2  0
 26 29  1  0
 26 25  1  0
 27 26  2  0
 28 27  1  0
 28 23  2  0
 29 30  1  0
 30 35  2  0
 30 31  1  0
 31 32  2  0
 32 33  1  0
 33 37  1  0
 34 33  2  0
 35 34  1  0
 36 35  1  0
 38 39  1  0
 39 42  1  0
 39 41  1  0
 40 38  2  0
 43 18  1  0
 43 44  1  0
 45 43  1  0
 47 46  1  0
 47 48  2  0
 49 48  1  0
 50 61  2  0
 51 49  1  0
 51 56  1  0
 52 60  1  0
 52 62  1  0
 53 59  1  0
 53 55  1  0
 54 60  1  0
 55 54  1  0
 56 55  2  0
 57 51  2  0
 58 57  1  0
 58 53  2  0
 59 52  1  0
 60 50  1  0
 62 64  2  0
 63 62  1  0
 65 63  1  0
 66 75  2  0
 66 71  1  0
 67 63  1  0
 67 71  1  0
 68 67  1  0
 69 70  1  0
 69 68  1  0
 70 66  1  0
 71 72  2  0
 72 73  1  0
 74 73  2  0
 75 74  1  0
 76 50  1  0
 76 77  1  0
 76 86  1  0
 77 80  1  0
 78 82  1  0
 78 77  1  0
 79 78  2  0
 82 81  1  0
 84 82  1  0
 84 85  1  0
 84 83  1  0
 86 89  1  1
 86 87  1  0
 88 86  1  0
M  ISO  4   9 100  10 100  48 101  49 101
M  END
>  <TORSDO>  (31) 
F 21

>  <SCORE>  (31) 
-10.948

>  <name>  (31) 
30

>  <ligand_id>  (31) 
30

>  <original_smiles>  (31) 
[H]C([H])=C(C([H])=C([H])C([H])([H])C([H])([H])C([H])([H])Oc1c([H])c([H])c2c(c1[H])C([H])([H])N(C(=O)C([H])(N([H])C(=O)C([H])(N([H])C([H])([H])[H])C([H])([H])[H])C(C([H])([H])[H])(C([H])([H])[H])C([H])([H])[H])C([H])(C(=O)N([H])C1([H])c3c([H])c([H])c([H])c([H])c3C([H])([H])C([H])([H])C1([H])[H])C2([H])[H])C1([H])C([H])([H])C([H])([H])C([H])([H])C1([H])C(=O)N1C([H])([H])C([H])([H])C([H])([H])C([H])(n2nc(-c3c([H])c([H])c(Oc4c([H])c([H])c(F)c([H])c4F)c([H])c3[H])c(C(=O)N([H])[H])c2N([H])[H])C1([H])[H]

>  <smiles>  (31) 
[H]C([H])=C(C([H])=C([H])C([H])([H])C([H])([H])C([H])([H])Oc1c([H])c([H])c2c(c1[H])C([H])([H])N(C(=O)C([H])(N([H])C(=O)C([H])(N([H])C([H])([H])[H])C([H])([H])[H])C(C([H])([H])[H])(C([H])([H])[H])C([H])([H])[H])C([H])(C(=O)N([H])C1([H])c3c([H])c([H])c([H])c([H])c3C([H])([H])C([H])([H])C1([H])[H])C2([H])[H])C1([H])C([H])([H])C([H])([H])C([H])([H])C1([H])C(=O)N1C([H])([H])C([H])([H])C([H])([H])C([H])(n2nc(-c3c([H])c([H])c(Oc4c([H])c([H])c(F)c([H])c4F)c([H])c3[H])c(C(=O)N([H])[H])c2N([H])[H])C1([H])[H]

$$$$
31:0:0
     RDKit          3D

 93101  0  0  1  0  0  0  0  0999 V2000
  -29.9560  -19.9870   19.9460 C   0  0  0  0  0  3  0  0  0  0  0  0
  -32.1460  -21.4470   19.5970 C   0  0  0  0  0  2  0  0  0  0  0  0
  -31.3980  -20.3380   20.3070 C   0  0  0  0  0  3  0  0  0  0  0  0
  -32.5960  -20.0180   19.4110 C   0  0  1  0  0  0  0  0  0  0  0  0
  -32.4700  -19.4140   18.0200 C   0  0  0  0  0  1  0  0  0  0  0  0
  -33.8700  -19.5330   20.0760 C   0  0  0  0  0  1  0  0  0  0  0  0
  -29.5340  -18.6670   20.5990 N   0  0  0  0  0  4  0  0  0  0  0  0
  -28.5300  -18.5990   20.5390 H   0  0  0  0  0  0  0  0  0  0  0  0
  -29.7580  -18.7450   21.5800 H   0  0  0  0  0  0  0  0  0  0  0  0
  -29.6050  -17.0580   18.6440 C   0  0  0  0  0  1  0  0  0  0  0  0
  -30.1230  -17.3490   20.0720 C   0  0  0  0  0  3  0  0  0  0  0  0
  -29.9180  -16.0350   20.9800 C   0  0  0  0  0  2  0  0  0  0  0  0
  -30.6640  -14.6940   20.5460 C   0  0  0  0  0  0  0  0  0  0  0  0
  -30.4530  -12.4490   19.4860 C   0  0  0  0  0  2  0  0  0  0  0  0
  -29.5410  -12.5850   18.2450 C   0  0  0  0  0  2  0  0  0  0  0  0
  -28.0580  -12.4300   18.6360 C   0  0  0  0  0  2  0  0  0  0  0  0
  -27.6740  -13.2930   19.8680 C   0  0  0  0  0  3  0  0  0  0  0  0
  -28.7080  -13.1490   21.0070 C   0  0  0  0  0  2  0  0  0  0  0  0
  -30.0310  -13.4790   20.4600 N   0  0  0  0  0  0  0  0  0  0  0  0
  -31.8320  -14.8000   20.1640 O   0  0  0  0  0  0  0  0  0  0  0  0
  -25.2660  -13.8920   20.5230 C   0  0  0  0  0  0  0  0  0  0  0  0
  -24.1900  -13.1190   20.8710 C   0  0  0  0  0  0  0  0  0  0  0  0
  -24.6540  -11.7690   20.8640 C   0  0  0  0  0  0  0  0  0  0  0  0
  -26.3150  -13.0110   20.3230 N   0  0  0  0  0  0  0  0  0  0  0  0
  -25.9520  -11.7300   20.5880 N   0  0  0  0  0  0  0  0  0  0  0  0
  -23.9210  -10.5090   21.0470 C   0  0  0  0  0  0  0  0  0  0  0  0
  -24.3330   -9.5470   21.9960 C   0  0  0  0  0  3  0  0  0  0  0  0
  -23.6020   -8.3520   22.1670 C   0  0  0  0  0  3  0  0  0  0  0  0
  -22.4460   -8.1080   21.3890 C   0  0  0  0  0  0  0  0  0  0  0  0
  -22.0530   -9.0600   20.4310 C   0  0  0  0  0  3  0  0  0  0  0  0
  -22.7840  -10.2470   20.2580 C   0  0  0  0  0  3  0  0  0  0  0  0
  -21.6900   -6.9640   21.4670 O   0  0  0  0  0  0  0  0  0  0  0  0
  -21.6200   -6.2260   22.6220 C   0  0  0  0  0  0  0  0  0  0  0  0
  -21.1750   -6.7870   23.8380 C   0  0  0  0  0  3  0  0  0  0  0  0
  -21.0500   -5.9760   24.9850 C   0  0  0  0  0  3  0  0  0  0  0  0
  -21.3620   -4.6040   24.9150 C   0  0  0  0  0  0  0  0  0  0  0  0
  -21.8010   -4.0430   23.7030 C   0  0  0  0  0  3  0  0  0  0  0  0
  -21.9270   -4.8520   22.5590 C   0  0  0  0  0  0  0  0  0  0  0  0
  -22.3300   -4.3010   21.3890 F   0  0  0  0  0  0  0  0  0  0  0  0
  -21.2350   -3.8230   26.0130 F   0  0  0  0  0  0  0  0  0  0  0  0
  -22.7860  -13.5980   21.1040 C   0  0  0  0  0  0  0  0  0  0  0  0
  -22.0370  -12.9070   21.9550 N   0  0  0  0  0  0  0  0  0  0  0  0
  -22.3610  -14.6210   20.5680 O   0  0  0  0  0  0  0  0  0  0  0  0
  -22.3940  -12.0780   22.4090 H   0  0  0  0  0  0  0  0  0  0  0  0
  -21.0940  -13.2090   22.1560 H   0  0  0  0  0  0  0  0  0  0  0  0
  -25.4320  -15.2610   20.3370 N   0  0  0  0  0  0  0  0  0  0  0  0
  -24.6550  -15.9090   20.4110 H   0  0  0  0  0  0  0  0  0  0  0  0
  -26.2780  -15.6960   19.9960 H   0  0  0  0  0  0  0  0  0  0  0  0
  -28.9540  -21.2500   20.0440 C   0  0  0  0  0  2  0  0  0  0  0  0
  -29.2260  -22.5390   20.9470 C   0  0  0  0  0  2  0  0  0  0  0  0
  -29.3330  -24.0130   20.3170 C   0  0  0  0  0  3  0  0  0  0  0  0
  -28.1150  -25.0280   20.4440 C   0  0  0  0  0  3  0  0  0  0  0  0
  -28.3470  -26.4840   20.2410 O   0  0  0  0  0  0  0  0  0  0  0  0
  -24.5960  -31.9170   23.2070 C   0  0  0  0  0  0  0  0  0  0  0  0
  -27.2260  -27.3300   20.2010 C   0  0  0  0  0  0  0  0  0  0  0  0
  -23.4040  -30.5120   21.5660 C   0  0  0  0  0  3  0  0  0  0  0  0
  -24.8630  -28.9490   20.1640 C   0  0  0  0  0  0  0  0  0  0  0  0
  -25.9480  -30.8200   21.4050 C   0  0  0  0  0  2  0  0  0  0  0  0
  -26.0290  -29.4380   20.7680 C   0  0  0  0  0  0  0  0  0  0  0  0
  -27.2130  -28.6400   20.7760 C   0  0  0  0  0  3  0  0  0  0  0  0
  -26.0360  -26.9010   19.5670 C   0  0  0  0  0  3  0  0  0  0  0  0
  -24.8680  -27.6850   19.5580 C   0  0  0  0  0  3  0  0  0  0  0  0
  -23.6280  -29.8260   20.1930 C   0  0  0  0  0  2  0  0  0  0  0  0
  -24.6690  -31.1010   22.1160 N   0  0  0  0  0  0  0  0  0  0  0  0
  -23.5090  -32.2020   23.7290 O   0  0  0  0  0  0  0  0  0  0  0  0
  -22.7290  -29.5030   22.5250 C   0  0  0  0  0  0  0  0  0  0  0  0
  -21.4030  -29.3340   22.3910 N   0  0  0  0  0  0  0  0  0  0  0  0
  -23.3990  -28.8740   23.3490 O   0  0  0  0  0  0  0  0  0  0  0  0
  -20.9240  -29.8920   21.6970 H   0  0  0  0  0  0  0  0  0  0  0  0
  -18.0100  -28.1750   22.8840 C   0  0  0  0  0  0  0  0  0  0  0  0
  -20.5720  -28.4060   23.1600 C   0  0  0  0  0  3  0  0  0  0  0  0
  -20.6590  -26.9720   22.5840 C   0  0  0  0  0  2  0  0  0  0  0  0
  -19.5560  -26.6610   21.5690 C   0  0  0  0  0  2  0  0  0  0  0  0
  -18.1730  -26.8240   22.2090 C   0  0  0  0  0  2  0  0  0  0  0  0
  -19.1370  -28.9250   23.3160 C   0  0  0  0  0  0  0  0  0  0  0  0
  -18.9310  -30.1900   23.9050 C   0  0  0  0  0  3  0  0  0  0  0  0
  -17.6320  -30.7070   24.0680 C   0  0  0  0  0  3  0  0  0  0  0  0
  -16.5200  -29.9540   23.6520 C   0  0  0  0  0  3  0  0  0  0  0  0
  -16.7100  -28.6900   23.0660 C   0  0  0  0  0  3  0  0  0  0  0  0
  -25.8740  -32.5490   23.8390 C   0  0  0  0  0  3  0  0  0  0  0  0
  -25.5610  -33.9480   24.1660 N   0  0  0  0  0  0  0  0  0  0  0  0
  -25.9020  -35.0020   23.4110 C   0  0  0  0  0  0  0  0  0  0  0  0
  -26.5830  -34.8980   22.3870 O   0  0  0  0  0  0  0  0  0  0  0  0
  -24.9540  -34.1010   24.9580 H   0  0  0  0  0  0  0  0  0  0  0  0
  -24.1870  -36.8030   23.0340 C   0  0  0  0  0  1  0  0  0  0  0  0
  -25.4130  -36.3910   23.8650 C   0  0  0  0  0  3  0  0  0  0  0  0
  -27.5360  -37.2650   24.7350 C   0  0  0  0  0  1  0  0  0  0  0  0
  -26.4510  -37.4400   23.7720 N   0  0  0  0  0  0  0  0  0  0  0  0
  -26.0470  -38.3610   23.9150 H   0  0  0  0  0  0  0  0  0  0  0  0
  -26.3790  -31.7790   25.1210 C   0  0  1  0  0  0  0  0  0  0  0  0
  -25.2770  -31.5420   26.1810 C   0  0  0  0  0  1  0  0  0  0  0  0
  -26.9640  -30.4000   24.7360 C   0  0  0  0  0  1  0  0  0  0  0  0
  -27.5240  -32.5740   25.7910 C   0  0  0  0  0  1  0  0  0  0  0  0
  1 49  1  0
  1  7  1  0
  2  3  1  0
  3  1  1  0
  4  2  1  0
  4  6  1  1
  4  3  1  0
  5  4  1  0
  7  9  1  0
  8  7  1  0
 11 10  1  0
 11  7  1  0
 11 12  1  0
 13 12  1  0
 14 19  1  0
 15 16  1  0
 15 14  1  0
 17 16  1  0
 17 24  1  0
 17 18  1  0
 19 13  1  0
 19 18  1  0
 20 13  2  0
 21 22  2  0
 22 41  1  0
 23 22  1  0
 23 26  1  0
 24 21  1  0
 24 25  1  0
 25 23  2  0
 26 27  1  0
 27 28  2  0
 29 32  1  0
 29 28  1  0
 30 29  2  0
 31 30  1  0
 31 26  2  0
 32 33  1  0
 33 34  1  0
 34 35  2  0
 36 35  1  0
 36 40  1  0
 37 36  2  0
 38 33  2  0
 38 37  1  0
 39 38  1  0
 41 42  1  0
 42 45  1  0
 42 44  1  0
 43 41  2  0
 46 47  1  0
 46 21  1  0
 48 46  1  0
 49 50  1  0
 51 52  2  0
 51 50  1  0
 53 52  1  0
 54 65  2  0
 55 53  1  0
 55 60  1  0
 56 64  1  0
 56 66  1  0
 57 63  1  0
 57 59  1  0
 58 64  1  0
 59 60  2  0
 59 58  1  0
 61 55  2  0
 62 61  1  0
 62 57  2  0
 63 56  1  0
 64 54  1  0
 66 68  2  0
 67 66  1  0
 69 67  1  0
 70 79  2  0
 70 75  1  0
 71 67  1  0
 71 75  1  0
 72 71  1  0
 73 74  1  0
 73 72  1  0
 74 70  1  0
 75 76  2  0
 76 77  1  0
 78 77  2  0
 79 78  1  0
 80 54  1  0
 80 81  1  0
 80 90  1  0
 81 84  1  0
 82 86  1  0
 82 81  1  0
 83 82  2  0
 86 85  1  0
 88 86  1  0
 88 89  1  0
 88 87  1  0
 90 93  1  1
 90 91  1  0
 92 90  1  0
M  ISO  4  12 100  13 100  52 101  53 101
M  END
>  <TORSDO>  (32) 
F 24

>  <SCORE>  (32) 
-12.514

>  <name>  (32) 
31

>  <ligand_id>  (32) 
31

>  <original_smiles>  (32) 
[H]c1c([H])c([H])c2c(c1[H])C([H])([H])C([H])([H])C([H])([H])C2([H])N([H])C(=O)C1([H])N(C(=O)C([H])(N([H])C(=O)C([H])(N([H])C([H])([H])[H])C([H])([H])[H])C(C([H])([H])[H])(C([H])([H])[H])C([H])([H])[H])C([H])([H])c2c([H])c(OC([H])([H])C([H])([H])C([H])([H])C([H])([H])C([H])(C3([H])C([H])([H])C3(C([H])([H])[H])C([H])([H])[H])[N+]([H])([H])C([H])(C([H])([H])[H])C([H])([H])C(=O)N3C([H])([H])C([H])([H])C([H])([H])C([H])(n4nc(-c5c([H])c([H])c(Oc6c([H])c([H])c(F)c([H])c6F)c([H])c5[H])c(C(=O)N([H])[H])c4N([H])[H])C3([H])[H])c([H])c([H])c2C1([H])[H]

>  <smiles>  (32) 
[H]c1c([H])c([H])c2c(c1[H])C([H])([H])C([H])([H])C([H])([H])C2([H])N([H])C(=O)C1([H])N(C(=O)C([H])(N([H])C(=O)C([H])(N([H])C([H])([H])[H])C([H])([H])[H])C(C([H])([H])[H])(C([H])([H])[H])C([H])([H])[H])C([H])([H])c2c([H])c(OC([H])([H])C([H])([H])C([H])([H])C([H])([H])C([H])(C3([H])C([H])([H])C3(C([H])([H])[H])C([H])([H])[H])[N+]([H])([H])C([H])(C([H])([H])[H])C([H])([H])C(=O)N3C([H])([H])C([H])([H])C([H])([H])C([H])(n4nc(-c5c([H])c([H])c(Oc6c([H])c([H])c(F)c([H])c6F)c([H])c5[H])c(C(=O)N([H])[H])c4N([H])[H])C3([H])[H])c([H])c([H])c2C1([H])[H]

$$$$
32:0:0
     RDKit          3D

 95103  0  0  1  0  0  0  0  0999 V2000
  -26.0220  -23.0580   20.5160 C   0  0  0  0  0  2  0  0  0  0  0  0
  -26.7810  -21.8200   21.0200 C   0  0  0  0  0  2  0  0  0  0  0  0
  -26.6520  -24.3840   20.9840 C   0  0  0  0  0  2  0  0  0  0  0  0
  -28.8460  -22.5820   19.5590 C   0  0  0  0  0  2  0  0  0  0  0  0
  -28.0770  -21.4270   20.2550 C   0  0  0  0  0  3  0  0  0  0  0  0
  -27.9000  -24.8080   20.1740 C   0  0  0  0  0  3  0  0  0  0  0  0
  -28.9960  -23.8220   20.3590 N   0  0  0  0  0  4  0  0  0  0  0  0
  -29.8430  -24.2620   20.0330 H   0  0  0  0  0  0  0  0  0  0  0  0
  -29.1380  -23.5980   21.3340 H   0  0  0  0  0  0  0  0  0  0  0  0
  -29.0270  -20.5950   21.1370 C   0  0  0  0  0  0  0  0  0  0  0  0
  -29.4350  -19.4110   20.6560 N   0  0  0  0  0  0  0  0  0  0  0  0
  -29.3940  -21.0320   22.2310 O   0  0  0  0  0  0  0  0  0  0  0  0
  -29.0740  -19.1370   19.7510 H   0  0  0  0  0  0  0  0  0  0  0  0
  -31.7370  -19.0290   21.5070 C   0  0  0  0  0  1  0  0  0  0  0  0
  -30.3170  -18.4480   21.3180 C   0  0  0  0  0  3  0  0  0  0  0  0
  -30.3310  -17.1430   20.4900 C   0  0  0  0  0  2  0  0  0  0  0  0
  -30.9520  -15.9280   21.2150 C   0  0  0  0  0  2  0  0  0  0  0  0
  -31.3600  -14.8170   20.2340 C   0  0  0  0  0  0  0  0  0  0  0  0
  -30.9720  -12.6550   19.0980 C   0  0  0  0  0  2  0  0  0  0  0  0
  -30.0080  -12.8200   17.9080 C   0  0  0  0  0  2  0  0  0  0  0  0
  -28.5440  -12.7080   18.3750 C   0  0  0  0  0  2  0  0  0  0  0  0
  -28.2420  -13.6040   19.6060 C   0  0  0  0  0  3  0  0  0  0  0  0
  -29.3140  -13.4150   20.7010 C   0  0  0  0  0  2  0  0  0  0  0  0
  -30.6360  -13.6710   20.1080 N   0  0  0  0  0  0  0  0  0  0  0  0
  -32.3790  -15.0220   19.5670 O   0  0  0  0  0  0  0  0  0  0  0  0
  -25.9010  -14.2720   20.4430 C   0  0  0  0  0  0  0  0  0  0  0  0
  -24.8160  -13.5240   20.8140 C   0  0  0  0  0  0  0  0  0  0  0  0
  -25.2150  -12.1570   20.6880 C   0  0  0  0  0  0  0  0  0  0  0  0
  -26.8970  -13.3610   20.1230 N   0  0  0  0  0  0  0  0  0  0  0  0
  -26.4890  -12.0820   20.3250 N   0  0  0  0  0  0  0  0  0  0  0  0
  -24.4420  -10.9170   20.8370 C   0  0  0  0  0  0  0  0  0  0  0  0
  -24.8130   -9.9240   21.7690 C   0  0  0  0  0  3  0  0  0  0  0  0
  -24.0440   -8.7490   21.9070 C   0  0  0  0  0  3  0  0  0  0  0  0
  -22.8910   -8.5580   21.1100 C   0  0  0  0  0  0  0  0  0  0  0  0
  -22.5390   -9.5390   20.1650 C   0  0  0  0  0  3  0  0  0  0  0  0
  -23.3090  -10.7060   20.0270 C   0  0  0  0  0  3  0  0  0  0  0  0
  -22.0960   -7.4380   21.1590 O   0  0  0  0  0  0  0  0  0  0  0  0
  -21.9030   -6.7410   22.3230 C   0  0  0  0  0  0  0  0  0  0  0  0
  -21.3820   -7.3570   23.4830 C   0  0  0  0  0  3  0  0  0  0  0  0
  -21.1350   -6.5880   24.6380 C   0  0  0  0  0  3  0  0  0  0  0  0
  -21.3970   -5.2050   24.6350 C   0  0  0  0  0  0  0  0  0  0  0  0
  -21.9110   -4.5900   23.4790 C   0  0  0  0  0  3  0  0  0  0  0  0
  -22.1610   -5.3550   22.3260 C   0  0  0  0  0  0  0  0  0  0  0  0
  -22.6360   -4.7530   21.2100 F   0  0  0  0  0  0  0  0  0  0  0  0
  -21.1530   -4.4650   25.7410 F   0  0  0  0  0  0  0  0  0  0  0  0
  -23.4530  -14.0400   21.1750 C   0  0  0  0  0  0  0  0  0  0  0  0
  -22.7400  -13.3300   22.0430 N   0  0  0  0  0  0  0  0  0  0  0  0
  -23.0330  -15.1050   20.7250 O   0  0  0  0  0  0  0  0  0  0  0  0
  -23.0930  -12.4640   22.4230 H   0  0  0  0  0  0  0  0  0  0  0  0
  -21.8250  -13.6510   22.3290 H   0  0  0  0  0  0  0  0  0  0  0  0
  -26.1190  -15.6410   20.3340 N   0  0  0  0  0  0  0  0  0  0  0  0
  -25.3800  -16.3200   20.4850 H   0  0  0  0  0  0  0  0  0  0  0  0
  -26.9830  -16.0570   20.0090 H   0  0  0  0  0  0  0  0  0  0  0  0
  -28.3850  -26.2480   20.5040 C   0  0  0  0  0  2  0  0  0  0  0  0
  -28.1160  -27.1700   19.4410 O   0  0  0  0  0  0  0  0  0  0  0  0
  -24.5880  -31.9270   23.3660 C   0  0  0  0  0  0  0  0  0  0  0  0
  -26.9740  -27.9100   19.6030 C   0  0  0  0  0  0  0  0  0  0  0  0
  -23.2680  -30.7630   21.6270 C   0  0  0  0  0  3  0  0  0  0  0  0
  -24.6120  -29.4090   19.9350 C   0  0  0  0  0  0  0  0  0  0  0  0
  -25.7820  -31.1210   21.3360 C   0  0  0  0  0  2  0  0  0  0  0  0
  -25.8060  -29.8420   20.5280 C   0  0  0  0  0  0  0  0  0  0  0  0
  -26.9920  -29.0950   20.3670 C   0  0  0  0  0  3  0  0  0  0  0  0
  -25.7760  -27.5010   18.9830 C   0  0  0  0  0  3  0  0  0  0  0  0
  -24.5890  -28.2350   19.1630 C   0  0  0  0  0  3  0  0  0  0  0  0
  -23.3870  -30.2660   20.1610 C   0  0  0  0  0  2  0  0  0  0  0  0
  -24.5680  -31.2760   22.1690 N   0  0  0  0  0  0  0  0  0  0  0  0
  -23.5440  -32.1390   23.9980 O   0  0  0  0  0  0  0  0  0  0  0  0
  -22.6540  -29.6330   22.4840 C   0  0  0  0  0  0  0  0  0  0  0  0
  -21.3260  -29.4570   22.3770 N   0  0  0  0  0  0  0  0  0  0  0  0
  -23.3660  -28.9240   23.1990 O   0  0  0  0  0  0  0  0  0  0  0  0
  -20.8140  -30.0860   21.7740 H   0  0  0  0  0  0  0  0  0  0  0  0
  -17.9900  -28.1260   22.7540 C   0  0  0  0  0  0  0  0  0  0  0  0
  -20.5380  -28.4300   23.0570 C   0  0  0  0  0  3  0  0  0  0  0  0
  -20.6830  -27.0610   22.3550 C   0  0  0  0  0  2  0  0  0  0  0  0
  -19.5900  -26.7970   21.3140 C   0  0  0  0  0  2  0  0  0  0  0  0
  -18.2060  -26.8450   21.9660 C   0  0  0  0  0  2  0  0  0  0  0  0
  -19.0860  -28.8780   23.2530 C   0  0  0  0  0  0  0  0  0  0  0  0
  -18.8310  -30.0780   23.9510 C   0  0  0  0  0  3  0  0  0  0  0  0
  -17.5120  -30.5270   24.1530 C   0  0  0  0  0  3  0  0  0  0  0  0
  -16.4300  -29.7710   23.6690 C   0  0  0  0  0  3  0  0  0  0  0  0
  -16.6710  -28.5710   22.9740 C   0  0  0  0  0  3  0  0  0  0  0  0
  -25.9190  -32.4550   23.9870 C   0  0  0  0  0  3  0  0  0  0  0  0
  -25.6560  -33.8010   24.5120 N   0  0  0  0  0  0  0  0  0  0  0  0
  -26.0180  -34.9380   23.9030 C   0  0  0  0  0  0  0  0  0  0  0  0
  -26.6790  -34.9590   22.8600 O   0  0  0  0  0  0  0  0  0  0  0  0
  -25.0680  -33.8590   25.3300 H   0  0  0  0  0  0  0  0  0  0  0  0
  -24.3590  -36.8250   23.8000 C   0  0  0  0  0  1  0  0  0  0  0  0
  -25.5760  -36.2630   24.5520 C   0  0  0  0  0  3  0  0  0  0  0  0
  -27.7340  -36.9370   25.5090 C   0  0  0  0  0  1  0  0  0  0  0  0
  -26.6480  -37.2810   24.5960 N   0  0  0  0  0  0  0  0  0  0  0  0
  -26.2730  -38.1850   24.8740 H   0  0  0  0  0  0  0  0  0  0  0  0
  -26.4970  -31.5140   25.1150 C   0  0  1  0  0  0  0  0  0  0  0  0
  -25.4670  -31.1500   26.2090 C   0  0  0  0  0  1  0  0  0  0  0  0
  -27.0230  -30.1940   24.5050 C   0  0  0  0  0  1  0  0  0  0  0  0
  -27.7040  -32.1970   25.7980 C   0  0  0  0  0  1  0  0  0  0  0  0
  1  3  1  0
  1  2  1  0
  4  5  1  0
  4  7  1  0
  5  2  1  0
  5 10  1  0
  6  7  1  0
  6 54  1  0
  6  3  1  0
  7  9  1  0
  8  7  1  0
 10 12  2  0
 11 10  1  0
 11 15  1  0
 13 11  1  0
 15 14  1  0
 16 17  1  0
 16 15  1  0
 18 17  1  0
 19 24  1  0
 20 21  1  0
 20 19  1  0
 22 21  1  0
 22 29  1  0
 22 23  1  0
 24 18  1  0
 24 23  1  0
 25 18  2  0
 26 27  2  0
 27 46  1  0
 28 27  1  0
 28 31  1  0
 29 30  1  0
 29 26  1  0
 30 28  2  0
 31 32  1  0
 32 33  2  0
 34 37  1  0
 34 33  1  0
 35 34  2  0
 36 35  1  0
 36 31  2  0
 37 38  1  0
 38 43  2  0
 38 39  1  0
 39 40  2  0
 41 40  1  0
 41 45  1  0
 42 41  2  0
 43 42  1  0
 44 43  1  0
 46 47  1  0
 47 50  1  0
 47 49  1  0
 48 46  2  0
 51 26  1  0
 51 52  1  0
 53 51  1  0
 55 57  1  0
 55 54  1  0
 56 67  2  0
 57 62  1  0
 58 66  1  0
 58 68  1  0
 59 65  1  0
 59 61  1  0
 60 66  1  0
 61 60  1  0
 62 61  2  0
 63 64  1  0
 63 57  2  0
 64 59  2  0
 65 58  1  0
 66 56  1  0
 68 70  2  0
 69 68  1  0
 71 69  1  0
 72 81  2  0
 72 77  1  0
 73 69  1  0
 73 77  1  0
 74 73  1  0
 75 76  1  0
 75 74  1  0
 76 72  1  0
 77 78  2  0
 78 79  1  0
 80 79  2  0
 81 80  1  0
 82 56  1  0
 82 83  1  0
 82 92  1  0
 83 86  1  0
 84 83  1  0
 84 88  1  0
 85 84  2  0
 88 87  1  0
 88 90  1  0
 90 91  1  0
 90 89  1  0
 92 95  1  1
 92 93  1  0
 94 92  1  0
M  ISO  4  17 100  18 100  54 101  55 101
M  END
>  <TORSDO>  (33) 
F 21

>  <SCORE>  (33) 
-11.519

>  <name>  (33) 
32

>  <ligand_id>  (33) 
32

>  <original_smiles>  (33) 
[H]c1c([H])c([H])c2c(c1[H])C([H])([H])C([H])([H])C([H])([H])C2([H])N([H])C(=O)C1([H])N(C(=O)C([H])(N([H])C(=O)C([H])(N([H])C([H])([H])[H])C([H])([H])[H])C(C([H])([H])[H])(C([H])([H])[H])C([H])([H])[H])C([H])([H])c2c([H])c(OC([H])([H])C3([H])C([H])([H])C([H])([H])C([H])([H])C([H])(C(=O)N([H])C([H])(C([H])([H])[H])C([H])([H])C([H])([H])C(=O)N4C([H])([H])C([H])([H])C([H])([H])C([H])(n5nc(-c6c([H])c([H])c(Oc7c([H])c([H])c(F)c([H])c7F)c([H])c6[H])c(C(=O)N([H])[H])c5N([H])[H])C4([H])[H])C([H])([H])[N+]3([H])[H])c([H])c([H])c2C1([H])[H]

>  <smiles>  (33) 
[H]c1c([H])c([H])c2c(c1[H])C([H])([H])C([H])([H])C([H])([H])C2([H])N([H])C(=O)C1([H])N(C(=O)C([H])(N([H])C(=O)C([H])(N([H])C([H])([H])[H])C([H])([H])[H])C(C([H])([H])[H])(C([H])([H])[H])C([H])([H])[H])C([H])([H])c2c([H])c(OC([H])([H])C3([H])C([H])([H])C([H])([H])C([H])([H])C([H])(C(=O)N([H])C([H])(C([H])([H])[H])C([H])([H])C([H])([H])C(=O)N4C([H])([H])C([H])([H])C([H])([H])C([H])(n5nc(-c6c([H])c([H])c(Oc7c([H])c([H])c(F)c([H])c7F)c([H])c6[H])c(C(=O)N([H])[H])c5N([H])[H])C4([H])[H])C([H])([H])[N+]3([H])[H])c([H])c([H])c2C1([H])[H]

$$$$
33:0:0
     RDKit          3D

 87 95  0  0  1  0  0  0  0  0999 V2000
  -29.7660  -21.5330   20.6330 C   0  0  0  0  0  0  0  0  0  0  0  0
  -29.3060  -22.9670   20.5320 C   0  0  0  0  0  3  0  0  0  0  0  0
  -31.2800  -21.4310   20.8810 C   0  0  0  0  0  2  0  0  0  0  0  0
  -31.5250  -20.4140   22.0190 C   0  0  0  0  0  2  0  0  0  0  0  0
  -30.1950  -19.6490   22.1990 C   0  0  0  0  0  2  0  0  0  0  0  0
  -29.4200  -19.8250   20.8640 C   0  0  0  0  0  3  0  0  0  0  0  0
  -28.0830  -24.2270   20.4890 C   0  0  0  0  0  2  0  0  0  0  0  0
  -28.2800  -25.8880   20.4040 O   0  0  0  0  0  0  0  0  0  0  0  0
  -24.6260  -31.8960   23.1980 C   0  0  0  0  0  0  0  0  0  0  0  0
  -27.2470  -26.9780   20.2990 C   0  0  0  0  0  0  0  0  0  0  0  0
  -23.4560  -30.4720   21.5640 C   0  0  0  0  0  3  0  0  0  0  0  0
  -24.9310  -28.8600   20.1720 C   0  0  0  0  0  0  0  0  0  0  0  0
  -26.0210  -30.7010   21.4300 C   0  0  0  0  0  2  0  0  0  0  0  0
  -26.1100  -29.2770   20.8030 C   0  0  0  0  0  0  0  0  0  0  0  0
  -27.2620  -28.3630   20.8350 C   0  0  0  0  0  3  0  0  0  0  0  0
  -26.0370  -26.7150   19.6100 C   0  0  0  0  0  3  0  0  0  0  0  0
  -24.9200  -27.5960   19.5520 C   0  0  0  0  0  3  0  0  0  0  0  0
  -23.6960  -29.7690   20.1990 C   0  0  0  0  0  2  0  0  0  0  0  0
  -24.7240  -31.0530   22.1160 N   0  0  0  0  0  0  0  0  0  0  0  0
  -23.5330  -32.1820   23.7080 O   0  0  0  0  0  0  0  0  0  0  0  0
  -22.7640  -29.4800   22.5380 C   0  0  0  0  0  0  0  0  0  0  0  0
  -21.4330  -29.3110   22.4150 N   0  0  0  0  0  0  0  0  0  0  0  0
  -23.4340  -28.8610   23.3670 O   0  0  0  0  0  0  0  0  0  0  0  0
  -20.9420  -29.8590   21.7220 H   0  0  0  0  0  0  0  0  0  0  0  0
  -18.0530  -28.0990   22.9480 C   0  0  0  0  0  0  0  0  0  0  0  0
  -20.6140  -28.3730   23.1960 C   0  0  0  0  0  3  0  0  0  0  0  0
  -20.7120  -26.9350   22.6280 C   0  0  0  0  0  2  0  0  0  0  0  0
  -19.6070  -26.6080   21.6170 C   0  0  0  0  0  2  0  0  0  0  0  0
  -18.2290  -26.7510   22.2650 C   0  0  0  0  0  2  0  0  0  0  0  0
  -19.1710  -28.8690   23.3650 C   0  0  0  0  0  0  0  0  0  0  0  0
  -18.9510  -30.1290   23.9640 C   0  0  0  0  0  3  0  0  0  0  0  0
  -17.6440  -30.6200   24.1420 C   0  0  0  0  0  3  0  0  0  0  0  0
  -16.5400  -29.8530   23.7360 C   0  0  0  0  0  3  0  0  0  0  0  0
  -16.7450  -28.5900   23.1510 C   0  0  0  0  0  3  0  0  0  0  0  0
  -25.8850  -32.5620   23.8290 C   0  0  0  0  0  3  0  0  0  0  0  0
  -25.5510  -33.9620   24.1450 N   0  0  0  0  0  0  0  0  0  0  0  0
  -25.8870  -35.0250   23.3980 C   0  0  0  0  0  0  0  0  0  0  0  0
  -26.5690  -34.9290   22.3740 O   0  0  0  0  0  0  0  0  0  0  0  0
  -24.9450  -34.1100   24.9400 H   0  0  0  0  0  0  0  0  0  0  0  0
  -24.1530  -36.8140   23.0220 C   0  0  0  0  0  1  0  0  0  0  0  0
  -25.3810  -36.4090   23.8530 C   0  0  0  0  0  3  0  0  0  0  0  0
  -27.4930  -37.3010   24.7340 C   0  0  0  0  0  1  0  0  0  0  0  0
  -26.4110  -37.4670   23.7670 N   0  0  0  0  0  0  0  0  0  0  0  0
  -25.9980  -38.3840   23.9190 H   0  0  0  0  0  0  0  0  0  0  0  0
  -26.3880  -31.8210   25.1280 C   0  0  1  0  0  0  0  0  0  0  0  0
  -25.2840  -31.5920   26.1850 C   0  0  0  0  0  1  0  0  0  0  0  0
  -26.9900  -30.4420   24.7760 C   0  0  0  0  0  1  0  0  0  0  0  0
  -27.5230  -32.6370   25.7980 C   0  0  0  0  0  1  0  0  0  0  0  0
  -29.9850  -18.3210   20.0140 C   0  0  0  0  0  2  0  0  0  0  0  0
  -30.5280  -15.4030   20.0810 C   0  0  0  0  0  0  0  0  0  0  0  0
  -30.4190  -12.9960   19.1060 C   0  0  0  0  0  2  0  0  0  0  0  0
  -29.4420  -12.8700   17.9070 C   0  0  0  0  0  2  0  0  0  0  0  0
  -27.9850  -12.6330   18.3600 C   0  0  0  0  0  2  0  0  0  0  0  0
  -27.6220  -13.5000   19.5990 C   0  0  0  0  0  3  0  0  0  0  0  0
  -28.7360  -13.5800   20.6710 C   0  0  0  0  0  2  0  0  0  0  0  0
  -29.9460  -14.1020   20.0160 N   0  0  0  0  0  0  0  0  0  0  0  0
  -31.7160  -15.4090   19.7200 O   0  0  0  0  0  0  0  0  0  0  0  0
  -29.8150  -16.6790   20.3410 N   0  0  0  0  0  0  0  0  0  0  0  0
  -28.8940  -16.4790   20.7180 H   0  0  0  0  0  0  0  0  0  0  0  0
  -25.2970  -14.0250   20.4940 C   0  0  0  0  0  0  0  0  0  0  0  0
  -24.2520  -13.2390   20.8920 C   0  0  0  0  0  0  0  0  0  0  0  0
  -24.7160  -11.8890   20.7930 C   0  0  0  0  0  0  0  0  0  0  0  0
  -26.3220  -13.1590   20.1650 N   0  0  0  0  0  0  0  0  0  0  0  0
  -25.9930  -11.8630   20.4230 N   0  0  0  0  0  0  0  0  0  0  0  0
  -23.9890  -10.6250   20.9760 C   0  0  0  0  0  0  0  0  0  0  0  0
  -24.4370   -9.6380   21.8850 C   0  0  0  0  0  3  0  0  0  0  0  0
  -23.7070   -8.4450   22.0690 C   0  0  0  0  0  3  0  0  0  0  0  0
  -22.5100   -8.2260   21.3510 C   0  0  0  0  0  0  0  0  0  0  0  0
  -22.0790   -9.1950   20.4260 C   0  0  0  0  0  3  0  0  0  0  0  0
  -22.8110  -10.3810   20.2420 C   0  0  0  0  0  3  0  0  0  0  0  0
  -21.7450   -7.0860   21.4490 O   0  0  0  0  0  0  0  0  0  0  0  0
  -21.7040   -6.3380   22.5970 C   0  0  0  0  0  0  0  0  0  0  0  0
  -21.2690   -6.8830   23.8250 C   0  0  0  0  0  3  0  0  0  0  0  0
  -21.1820   -6.0620   24.9670 C   0  0  0  0  0  3  0  0  0  0  0  0
  -21.5120   -4.6950   24.8800 C   0  0  0  0  0  0  0  0  0  0  0  0
  -21.9350   -4.1500   23.6540 C   0  0  0  0  0  3  0  0  0  0  0  0
  -22.0270   -4.9680   22.5140 C   0  0  0  0  0  0  0  0  0  0  0  0
  -22.4160   -4.4330   21.3300 F   0  0  0  0  0  0  0  0  0  0  0  0
  -21.4170   -3.9010   25.9720 F   0  0  0  0  0  0  0  0  0  0  0  0
  -22.8700  -13.7040   21.2320 C   0  0  0  0  0  0  0  0  0  0  0  0
  -22.1740  -12.9870   22.1070 N   0  0  0  0  0  0  0  0  0  0  0  0
  -22.4180  -14.7430   20.7540 O   0  0  0  0  0  0  0  0  0  0  0  0
  -22.5610  -12.1490   22.5180 H   0  0  0  0  0  0  0  0  0  0  0  0
  -21.2410  -13.2790   22.3670 H   0  0  0  0  0  0  0  0  0  0  0  0
  -25.4600  -15.4010   20.3520 N   0  0  0  0  0  0  0  0  0  0  0  0
  -24.7340  -16.0740   20.5710 H   0  0  0  0  0  0  0  0  0  0  0  0
  -26.2820  -15.8430   19.9660 H   0  0  0  0  0  0  0  0  0  0  0  0
  1  6  1  0
  1  3  1  0
  2  1  2  0
  3  4  1  0
  4  5  1  0
  6 49  1  0
  6  5  1  0
  7  2  1  0
  8  7  1  0
  9 20  2  0
 10  8  1  0
 10 15  1  0
 11 19  1  0
 11 21  1  0
 12 18  1  0
 12 14  1  0
 13 19  1  0
 14 15  2  0
 14 13  1  0
 16 10  2  0
 17 16  1  0
 17 12  2  0
 18 11  1  0
 19  9  1  0
 21 23  2  0
 22 21  1  0
 24 22  1  0
 25 34  2  0
 25 30  1  0
 26 22  1  0
 26 30  1  0
 27 26  1  0
 28 29  1  0
 28 27  1  0
 29 25  1  0
 30 31  2  0
 31 32  1  0
 33 32  2  0
 34 33  1  0
 35  9  1  0
 35 36  1  0
 35 45  1  0
 36 39  1  0
 37 41  1  0
 37 36  1  0
 38 37  2  0
 41 40  1  0
 43 41  1  0
 43 44  1  0
 43 42  1  0
 45 48  1  1
 45 46  1  0
 47 45  1  0
 49 58  1  0
 50 58  1  0
 51 56  1  0
 52 53  1  0
 52 51  1  0
 54 53  1  0
 54 63  1  0
 54 55  1  0
 56 50  1  0
 56 55  1  0
 57 50  2  0
 58 59  1  0
 60 61  2  0
 61 80  1  0
 62 61  1  0
 62 65  1  0
 63 64  1  0
 63 60  1  0
 64 62  2  0
 65 66  1  0
 66 67  2  0
 68 71  1  0
 68 67  1  0
 69 68  2  0
 70 69  1  0
 70 65  2  0
 71 72  1  0
 72 73  1  0
 73 74  2  0
 75 74  1  0
 75 79  1  0
 76 75  2  0
 77 72  2  0
 77 76  1  0
 78 77  1  0
 80 81  1  0
 81 84  1  0
 81 83  1  0
 82 80  2  0
 85 60  1  0
 85 86  1  0
 87 85  1  0
M  ISO  4   7 101   8 101  50 100  58 100
M  END
>  <TORSDO>  (34) 
F 18

>  <SCORE>  (34) 
-16.123

>  <name>  (34) 
33

>  <ligand_id>  (34) 
33

>  <original_smiles>  (34) 
[H]C(=C1C([H])([H])C([H])([H])C([H])([H])C1([H])C([H])([H])N([H])C(=O)N1C([H])([H])C([H])([H])C([H])([H])C([H])(n2nc(-c3c([H])c([H])c(Oc4c([H])c([H])c(F)c([H])c4F)c([H])c3[H])c(C(=O)N([H])[H])c2N([H])[H])C1([H])[H])C([H])([H])Oc1c([H])c([H])c2c(c1[H])C([H])([H])N(C(=O)C([H])(N([H])C(=O)C([H])(N([H])C([H])([H])[H])C([H])([H])[H])C(C([H])([H])[H])(C([H])([H])[H])C([H])([H])[H])C([H])(C(=O)N([H])C1([H])c3c([H])c([H])c([H])c([H])c3C([H])([H])C([H])([H])C1([H])[H])C2([H])[H]

>  <smiles>  (34) 
[H]C(=C1C([H])([H])C([H])([H])C([H])([H])C1([H])C([H])([H])N([H])C(=O)N1C([H])([H])C([H])([H])C([H])([H])C([H])(n2nc(-c3c([H])c([H])c(Oc4c([H])c([H])c(F)c([H])c4F)c([H])c3[H])c(C(=O)N([H])[H])c2N([H])[H])C1([H])[H])C([H])([H])Oc1c([H])c([H])c2c(c1[H])C([H])([H])N(C(=O)C([H])(N([H])C(=O)C([H])(N([H])C([H])([H])[H])C([H])([H])[H])C(C([H])([H])[H])(C([H])([H])[H])C([H])([H])[H])C([H])(C(=O)N([H])C1([H])c3c([H])c([H])c([H])c([H])c3C([H])([H])C([H])([H])C1([H])[H])C2([H])[H]

$$$$
34:0:0
     RDKit          3D

 92100  0  0  1  0  0  0  0  0999 V2000
  -28.4710  -21.6820   22.0720 C   0  0  0  0  0  1  0  0  0  0  0  0
  -29.0220  -21.4400   20.6530 C   0  0  0  0  0  3  0  0  0  0  0  0
  -31.0300  -20.1810   21.7390 C   0  0  0  0  0  1  0  0  0  0  0  0
  -29.9970  -20.1220   20.5910 C   0  0  0  0  0  3  0  0  0  0  0  0
  -28.4460  -17.5310   18.5650 C   0  0  0  0  0  2  0  0  0  0  0  0
  -29.9390  -17.2700   18.6710 C   0  0  0  0  0  2  0  0  0  0  0  0
  -28.2280  -18.7120   19.5120 C   0  0  0  0  0  2  0  0  0  0  0  0
  -30.2200  -17.4990   20.1630 C   0  0  0  0  0  3  0  0  0  0  0  0
  -29.3420  -18.7250   20.5050 N   0  0  1  0  0  4  0  0  0  0  0  0
  -28.9350  -18.5590   21.4120 H   0  0  0  0  0  0  0  0  0  0  0  0
  -29.9580  -16.1290   20.9850 C   0  0  0  0  0  2  0  0  0  0  0  0
  -30.7200  -14.7930   20.5430 C   0  0  0  0  0  0  0  0  0  0  0  0
  -30.5100  -12.5600   19.4490 C   0  0  0  0  0  2  0  0  0  0  0  0
  -29.5860  -12.7040   18.2190 C   0  0  0  0  0  2  0  0  0  0  0  0
  -28.1080  -12.5330   18.6220 C   0  0  0  0  0  2  0  0  0  0  0  0
  -27.7310  -13.3820   19.8660 C   0  0  0  0  0  3  0  0  0  0  0  0
  -28.7760  -13.2340   20.9950 C   0  0  0  0  0  2  0  0  0  0  0  0
  -30.0910  -13.5750   20.4410 N   0  0  0  0  0  0  0  0  0  0  0  0
  -31.8890  -14.9040   20.1660 O   0  0  0  0  0  0  0  0  0  0  0  0
  -25.3260  -13.9700   20.5430 C   0  0  0  0  0  0  0  0  0  0  0  0
  -24.2560  -13.1930   20.8930 C   0  0  0  0  0  0  0  0  0  0  0  0
  -24.7240  -11.8440   20.8780 C   0  0  0  0  0  0  0  0  0  0  0  0
  -26.3780  -13.0930   20.3300 N   0  0  0  0  0  0  0  0  0  0  0  0
  -26.0210  -11.8100   20.5950 N   0  0  0  0  0  0  0  0  0  0  0  0
  -23.9980  -10.5810   21.0590 C   0  0  0  0  0  0  0  0  0  0  0  0
  -24.4150   -9.6180   22.0040 C   0  0  0  0  0  3  0  0  0  0  0  0
  -23.6880   -8.4190   22.1740 C   0  0  0  0  0  3  0  0  0  0  0  0
  -22.5300   -8.1760   21.3970 C   0  0  0  0  0  0  0  0  0  0  0  0
  -22.1330   -9.1270   20.4400 C   0  0  0  0  0  3  0  0  0  0  0  0
  -22.8620  -10.3160   20.2690 C   0  0  0  0  0  3  0  0  0  0  0  0
  -21.7780   -7.0290   21.4750 O   0  0  0  0  0  0  0  0  0  0  0  0
  -21.7080   -6.2910   22.6300 C   0  0  0  0  0  0  0  0  0  0  0  0
  -21.2410   -6.8440   23.8420 C   0  0  0  0  0  3  0  0  0  0  0  0
  -21.1200   -6.0320   24.9870 C   0  0  0  0  0  3  0  0  0  0  0  0
  -21.4550   -4.6670   24.9200 C   0  0  0  0  0  0  0  0  0  0  0  0
  -21.9180   -4.1130   23.7130 C   0  0  0  0  0  3  0  0  0  0  0  0
  -22.0400   -4.9230   22.5710 C   0  0  0  0  0  0  0  0  0  0  0  0
  -22.4640   -4.3780   21.4040 F   0  0  0  0  0  0  0  0  0  0  0  0
  -21.3320   -3.8840   26.0180 F   0  0  0  0  0  0  0  0  0  0  0  0
  -22.8530  -13.6670   21.1340 C   0  0  0  0  0  0  0  0  0  0  0  0
  -22.1100  -12.9710   21.9880 N   0  0  0  0  0  0  0  0  0  0  0  0
  -22.4230  -14.6900   20.6040 O   0  0  0  0  0  0  0  0  0  0  0  0
  -22.4710  -12.1420   22.4350 H   0  0  0  0  0  0  0  0  0  0  0  0
  -21.1700  -13.2760   22.1980 H   0  0  0  0  0  0  0  0  0  0  0  0
  -25.4890  -15.3410   20.3660 N   0  0  0  0  0  0  0  0  0  0  0  0
  -24.7170  -15.9910   20.4630 H   0  0  0  0  0  0  0  0  0  0  0  0
  -26.3360  -15.7780   20.0340 H   0  0  0  0  0  0  0  0  0  0  0  0
  -29.7290  -22.7040   18.6270 C   0  0  0  0  0  1  0  0  0  0  0  0
  -29.5880  -22.7250   20.0830 N   0  0  0  0  0  0  0  0  0  0  0  0
  -29.3210  -24.1310   20.5960 C   0  0  0  0  0  3  0  0  0  0  0  0
  -28.2310  -25.1020   19.9420 C   0  0  0  0  0  3  0  0  0  0  0  0
  -28.3520  -26.5550   20.2290 O   0  0  0  0  0  0  0  0  0  0  0  0
  -24.5860  -31.9220   23.2350 C   0  0  0  0  0  0  0  0  0  0  0  0
  -27.2160  -27.3820   20.1640 C   0  0  0  0  0  0  0  0  0  0  0  0
  -23.3840  -30.5180   21.5980 C   0  0  0  0  0  3  0  0  0  0  0  0
  -24.8380  -28.9760   20.1630 C   0  0  0  0  0  0  0  0  0  0  0  0
  -25.9200  -30.8480   21.4060 C   0  0  0  0  0  2  0  0  0  0  0  0
  -26.0040  -29.4730   20.7560 C   0  0  0  0  0  0  0  0  0  0  0  0
  -27.1940  -28.6870   20.7480 C   0  0  0  0  0  3  0  0  0  0  0  0
  -26.0260  -26.9400   19.5400 C   0  0  0  0  0  3  0  0  0  0  0  0
  -24.8500  -27.7140   19.5490 C   0  0  0  0  0  3  0  0  0  0  0  0
  -23.5950  -29.8410   20.2170 C   0  0  0  0  0  2  0  0  0  0  0  0
  -24.6490  -31.1130   22.1360 N   0  0  0  0  0  0  0  0  0  0  0  0
  -23.5030  -32.1920   23.7740 O   0  0  0  0  0  0  0  0  0  0  0  0
  -22.7320  -29.4970   22.5600 C   0  0  0  0  0  0  0  0  0  0  0  0
  -21.4080  -29.3090   22.4360 N   0  0  0  0  0  0  0  0  0  0  0  0
  -23.4170  -28.8750   23.3760 O   0  0  0  0  0  0  0  0  0  0  0  0
  -20.9120  -29.8660   21.7530 H   0  0  0  0  0  0  0  0  0  0  0  0
  -18.0400  -28.0920   22.9500 C   0  0  0  0  0  0  0  0  0  0  0  0
  -20.5980  -28.3680   23.2110 C   0  0  0  0  0  3  0  0  0  0  0  0
  -20.7060  -26.9360   22.6380 C   0  0  0  0  0  2  0  0  0  0  0  0
  -19.6030  -26.6070   21.6270 C   0  0  0  0  0  2  0  0  0  0  0  0
  -18.2210  -26.7450   22.2730 C   0  0  0  0  0  2  0  0  0  0  0  0
  -19.1560  -28.8610   23.3750 C   0  0  0  0  0  0  0  0  0  0  0  0
  -18.9320  -30.1240   23.9670 C   0  0  0  0  0  3  0  0  0  0  0  0
  -17.6250  -30.6160   24.1390 C   0  0  0  0  0  3  0  0  0  0  0  0
  -16.5250  -29.8460   23.7290 C   0  0  0  0  0  3  0  0  0  0  0  0
  -16.7330  -28.5850   23.1420 C   0  0  0  0  0  3  0  0  0  0  0  0
  -25.8670  -32.5630   23.8510 C   0  0  0  0  0  3  0  0  0  0  0  0
  -25.5480  -33.9620   24.1760 N   0  0  0  0  0  0  0  0  0  0  0  0
  -25.8770  -35.0150   23.4150 C   0  0  0  0  0  0  0  0  0  0  0  0
  -26.5480  -34.9130   22.3850 O   0  0  0  0  0  0  0  0  0  0  0  0
  -24.9500  -34.1140   24.9740 H   0  0  0  0  0  0  0  0  0  0  0  0
  -24.1490  -36.8080   23.0480 C   0  0  0  0  0  1  0  0  0  0  0  0
  -25.3830  -36.4020   23.8690 C   0  0  0  0  0  3  0  0  0  0  0  0
  -27.5070  -37.2950   24.7210 C   0  0  0  0  0  1  0  0  0  0  0  0
  -26.4130  -37.4590   23.7660 N   0  0  0  0  0  0  0  0  0  0  0  0
  -26.0010  -38.3750   23.9150 H   0  0  0  0  0  0  0  0  0  0  0  0
  -26.3890  -31.8020   25.1320 C   0  0  1  0  0  0  0  0  0  0  0  0
  -25.3010  -31.5620   26.2040 C   0  0  0  0  0  1  0  0  0  0  0  0
  -26.9870  -30.4270   24.7490 C   0  0  0  0  0  1  0  0  0  0  0  0
  -27.5310  -32.6110   25.7930 C   0  0  0  0  0  1  0  0  0  0  0  0
  2  1  1  0
  4  2  1  0
  4  3  1  0
  5  6  1  0
  5  7  1  0
  6  8  1  0
  7  9  1  0
  8  9  1  0
  8 11  1  0
  9  4  1  0
  9 10  1  1
 12 11  1  0
 13 18  1  0
 14 15  1  0
 14 13  1  0
 16 15  1  0
 16 23  1  0
 16 17  1  0
 18 12  1  0
 18 17  1  0
 19 12  2  0
 20 21  2  0
 21 40  1  0
 22 21  1  0
 22 25  1  0
 23 20  1  0
 23 24  1  0
 24 22  2  0
 25 26  1  0
 26 27  2  0
 28 31  1  0
 28 27  1  0
 29 28  2  0
 30 29  1  0
 30 25  2  0
 31 32  1  0
 32 33  1  0
 33 34  2  0
 35 34  1  0
 35 39  1  0
 36 35  2  0
 37 32  2  0
 37 36  1  0
 38 37  1  0
 40 41  1  0
 41 44  1  0
 41 43  1  0
 42 40  2  0
 45 46  1  0
 45 20  1  0
 47 45  1  0
 48 49  1  0
 49 50  1  0
 49  2  1  0
 51 52  1  0
 51 50  2  0
 53 64  2  0
 54 52  1  0
 54 59  1  0
 55 63  1  0
 55 65  1  0
 56 62  1  0
 56 58  1  0
 57 63  1  0
 58 57  1  0
 59 58  2  0
 60 61  1  0
 60 54  2  0
 61 56  2  0
 62 55  1  0
 63 53  1  0
 65 67  2  0
 66 65  1  0
 68 66  1  0
 69 78  2  0
 69 74  1  0
 70 66  1  0
 70 74  1  0
 71 70  1  0
 72 73  1  0
 72 71  1  0
 73 69  1  0
 74 75  2  0
 75 76  1  0
 77 76  2  0
 78 77  1  0
 79 53  1  0
 79 80  1  0
 79 89  1  0
 80 83  1  0
 81 85  1  0
 81 80  1  0
 82 81  2  0
 85 84  1  0
 87 85  1  0
 87 88  1  0
 87 86  1  0
 89 92  1  1
 89 90  1  0
 91 89  1  0
M  ISO  4  11 100  12 100  51 101  52 101
M  END
>  <TORSDO>  (35) 
F 22

>  <SCORE>  (35) 
-13.342

>  <name>  (35) 
34

>  <ligand_id>  (35) 
34

>  <original_smiles>  (35) 
[H]c1c([H])c([H])c2c(c1[H])C([H])([H])C([H])([H])C([H])([H])C2([H])N([H])C(=O)C1([H])N(C(=O)C([H])(N([H])C(=O)C([H])(N([H])C([H])([H])[H])C([H])([H])[H])C(C([H])([H])[H])(C([H])([H])[H])C([H])([H])[H])C([H])([H])c2c([H])c(OC([H])([H])C([H])([H])N(C([H])([H])[H])C([H])(C([H])([H])[H])C([H])(C([H])([H])[H])[N+]3([H])C([H])([H])C([H])([H])C([H])([H])C3([H])C([H])([H])C(=O)N3C([H])([H])C([H])([H])C([H])([H])C([H])(n4nc(-c5c([H])c([H])c(Oc6c([H])c([H])c(F)c([H])c6F)c([H])c5[H])c(C(=O)N([H])[H])c4N([H])[H])C3([H])[H])c([H])c([H])c2C1([H])[H]

>  <smiles>  (35) 
[H]c1c([H])c([H])c2c(c1[H])C([H])([H])C([H])([H])C([H])([H])C2([H])N([H])C(=O)C1([H])N(C(=O)C([H])(N([H])C(=O)C([H])(N([H])C([H])([H])[H])C([H])([H])[H])C(C([H])([H])[H])(C([H])([H])[H])C([H])([H])[H])C([H])([H])c2c([H])c(OC([H])([H])C([H])([H])N(C([H])([H])[H])C([H])(C([H])([H])[H])C([H])(C([H])([H])[H])[N+]3([H])C([H])([H])C([H])([H])C([H])([H])C3([H])C([H])([H])C(=O)N3C([H])([H])C([H])([H])C([H])([H])C([H])(n4nc(-c5c([H])c([H])c(Oc6c([H])c([H])c(F)c([H])c6F)c([H])c5[H])c(C(=O)N([H])[H])c4N([H])[H])C3([H])[H])c([H])c([H])c2C1([H])[H]

$$$$
35:0:0
     RDKit          3D

 92 99  0  0  1  0  0  0  0  0999 V2000
  -28.4710  -20.4510   20.8950 N   0  0  0  0  0  4  0  0  0  0  0  0
  -27.7000  -20.4730   21.5410 H   0  0  0  0  0  0  0  0  0  0  0  0
  -29.3180  -20.3800   21.4400 H   0  0  0  0  0  0  0  0  0  0  0  0
  -26.9310  -18.8630   19.7000 C   0  0  0  0  0  1  0  0  0  0  0  0
  -28.3820  -19.1970   20.1050 C   0  0  0  0  0  3  0  0  0  0  0  0
  -28.9850  -18.0230   20.9090 C   0  0  0  0  0  2  0  0  0  0  0  0
  -31.0630  -16.9550   21.2480 C   0  0  0  0  0  0  0  0  0  0  0  0
  -30.5460  -16.2120   22.4740 C   0  0  0  0  0  1  0  0  0  0  0  0
  -30.3880  -17.8130   20.5750 N   0  0  0  0  0  0  0  0  0  0  0  0
  -32.4610  -16.5350   20.8040 C   0  0  0  0  0  2  0  0  0  0  0  0
  -32.3820  -15.4510   19.7130 C   0  0  0  0  0  2  0  0  0  0  0  0
  -33.0930  -14.1270   20.0400 C   0  0  0  0  0  0  0  0  0  0  0  0
  -32.7200  -11.6960   20.1830 C   0  0  0  0  0  2  0  0  0  0  0  0
  -31.8580  -11.2630   18.9770 C   0  0  0  0  0  2  0  0  0  0  0  0
  -30.3560  -11.4160   19.2910 C   0  0  0  0  0  2  0  0  0  0  0  0
  -30.0100  -12.8090   19.8770 C   0  0  0  0  0  3  0  0  0  0  0  0
  -30.9870  -13.1820   21.0170 C   0  0  0  0  0  2  0  0  0  0  0  0
  -32.3610  -13.0830   20.5030 N   0  0  0  0  0  0  0  0  0  0  0  0
  -34.2670  -14.0080   19.6750 O   0  0  0  0  0  0  0  0  0  0  0  0
  -27.8330  -14.0080   20.5460 C   0  0  0  0  0  0  0  0  0  0  0  0
  -26.5880  -13.5310   20.8590 C   0  0  0  0  0  0  0  0  0  0  0  0
  -26.6850  -12.1060   20.7980 C   0  0  0  0  0  0  0  0  0  0  0  0
  -28.6200  -12.8900   20.3120 N   0  0  0  0  0  0  0  0  0  0  0  0
  -27.9300  -11.7410   20.5240 N   0  0  0  0  0  0  0  0  0  0  0  0
  -25.6530  -11.0710   20.9260 C   0  0  0  0  0  0  0  0  0  0  0  0
  -25.7890  -10.0020   21.8390 C   0  0  0  0  0  3  0  0  0  0  0  0
  -24.7750   -9.0280   21.9550 C   0  0  0  0  0  3  0  0  0  0  0  0
  -23.6100   -9.1180   21.1570 C   0  0  0  0  0  0  0  0  0  0  0  0
  -23.4910  -10.1710   20.2320 C   0  0  0  0  0  3  0  0  0  0  0  0
  -24.5040  -11.1370   20.1150 C   0  0  0  0  0  3  0  0  0  0  0  0
  -22.5850   -8.2040   21.1850 O   0  0  0  0  0  0  0  0  0  0  0  0
  -22.2670   -7.5130   22.3260 C   0  0  0  0  0  0  0  0  0  0  0  0
  -21.9360   -8.1740   23.5290 C   0  0  0  0  0  3  0  0  0  0  0  0
  -21.5470   -7.4260   24.6590 C   0  0  0  0  0  3  0  0  0  0  0  0
  -21.4800   -6.0220   24.5860 C   0  0  0  0  0  0  0  0  0  0  0  0
  -21.8040   -5.3630   23.3870 C   0  0  0  0  0  3  0  0  0  0  0  0
  -22.1930   -6.1070   22.2590 C   0  0  0  0  0  0  0  0  0  0  0  0
  -22.4840   -5.4680   21.1000 F   0  0  0  0  0  0  0  0  0  0  0  0
  -21.1010   -5.3030   25.6680 F   0  0  0  0  0  0  0  0  0  0  0  0
  -25.3520  -14.3460   21.1050 C   0  0  0  0  0  0  0  0  0  0  0  0
  -24.4560  -13.8610   21.9590 N   0  0  0  0  0  0  0  0  0  0  0  0
  -25.1940  -15.4450   20.5750 O   0  0  0  0  0  0  0  0  0  0  0  0
  -24.5930  -12.9680   22.4110 H   0  0  0  0  0  0  0  0  0  0  0  0
  -23.6180  -14.3880   22.1590 H   0  0  0  0  0  0  0  0  0  0  0  0
  -28.3550  -15.2930   20.4220 N   0  0  0  0  0  0  0  0  0  0  0  0
  -27.7740  -16.1180   20.5140 H   0  0  0  0  0  0  0  0  0  0  0  0
  -29.2970  -15.5010   20.1160 H   0  0  0  0  0  0  0  0  0  0  0  0
  -28.5030  -21.7110   20.1120 C   0  0  0  0  0  2  0  0  0  0  0  0
  -28.5390  -22.9680   21.0090 C   0  0  0  0  0  2  0  0  0  0  0  0
  -28.5730  -24.2820   20.1990 C   0  0  0  0  0  2  0  0  0  0  0  0
  -28.7520  -25.5380   21.0740 C   0  0  0  0  0  2  0  0  0  0  0  0
  -28.7530  -26.7400   20.3020 O   0  0  0  0  0  0  0  0  0  0  0  0
  -24.7330  -31.8190   23.2600 C   0  0  0  0  0  0  0  0  0  0  0  0
  -27.5660  -27.4290   20.2950 C   0  0  0  0  0  0  0  0  0  0  0  0
  -23.6070  -30.3790   21.5930 C   0  0  0  0  0  3  0  0  0  0  0  0
  -25.1360  -28.8610   20.2280 C   0  0  0  0  0  0  0  0  0  0  0  0
  -26.1260  -30.7950   21.4660 C   0  0  0  0  0  2  0  0  0  0  0  0
  -26.2610  -29.4210   20.8440 C   0  0  0  0  0  0  0  0  0  0  0  0
  -27.4800  -28.7110   20.8800 C   0  0  0  0  0  3  0  0  0  0  0  0
  -26.4300  -26.8780   19.6670 C   0  0  0  0  0  3  0  0  0  0  0  0
  -25.2130  -27.5870   19.6370 C   0  0  0  0  0  3  0  0  0  0  0  0
  -23.8700  -29.6900   20.2270 C   0  0  0  0  0  2  0  0  0  0  0  0
  -24.8390  -31.0130   22.1650 N   0  0  0  0  0  0  0  0  0  0  0  0
  -23.6320  -32.0720   23.7660 O   0  0  0  0  0  0  0  0  0  0  0  0
  -22.9500  -29.3510   22.5430 C   0  0  0  0  0  0  0  0  0  0  0  0
  -21.6400  -29.1230   22.3600 N   0  0  0  0  0  0  0  0  0  0  0  0
  -23.6180  -28.7610   23.3960 O   0  0  0  0  0  0  0  0  0  0  0  0
  -21.1630  -29.6520   21.6430 H   0  0  0  0  0  0  0  0  0  0  0  0
  -18.2810  -27.8540   22.7520 C   0  0  0  0  0  0  0  0  0  0  0  0
  -20.8200  -28.1700   23.1090 C   0  0  0  0  0  3  0  0  0  0  0  0
  -20.9750  -26.7390   22.5430 C   0  0  0  0  0  2  0  0  0  0  0  0
  -19.9150  -26.3870   21.4960 C   0  0  0  0  0  2  0  0  0  0  0  0
  -18.5100  -26.5050   22.0920 C   0  0  0  0  0  2  0  0  0  0  0  0
  -19.3670  -28.6430   23.2150 C   0  0  0  0  0  0  0  0  0  0  0  0
  -19.1010  -29.9040   23.7890 C   0  0  0  0  0  3  0  0  0  0  0  0
  -17.7800  -30.3770   23.9080 C   0  0  0  0  0  3  0  0  0  0  0  0
  -16.7080  -29.5860   23.4630 C   0  0  0  0  0  3  0  0  0  0  0  0
  -16.9590  -28.3250   22.8910 C   0  0  0  0  0  3  0  0  0  0  0  0
  -25.9890  -32.4790   23.9130 C   0  0  0  0  0  3  0  0  0  0  0  0
  -26.5090  -31.7040   25.1860 C   0  0  1  0  0  0  0  0  0  0  0  0
  -25.3950  -31.3640   26.2030 C   0  0  0  0  0  1  0  0  0  0  0  0
  -27.1950  -30.3800   24.7750 C   0  0  0  0  0  1  0  0  0  0  0  0
  -27.5800  -32.5500   25.9130 C   0  0  0  0  0  1  0  0  0  0  0  0
  -25.6330  -33.8620   24.2540 N   0  0  0  0  0  0  0  0  0  0  0  0
  -25.9340  -34.9310   23.5060 C   0  0  0  0  0  0  0  0  0  0  0  0
  -26.6140  -34.8590   22.4780 O   0  0  0  0  0  0  0  0  0  0  0  0
  -25.0280  -33.9900   25.0530 H   0  0  0  0  0  0  0  0  0  0  0  0
  -24.1420  -36.6610   23.1630 C   0  0  0  0  0  1  0  0  0  0  0  0
  -25.3970  -36.2980   23.9730 C   0  0  0  0  0  3  0  0  0  0  0  0
  -27.5000  -37.2510   24.8070 C   0  0  0  0  0  1  0  0  0  0  0  0
  -26.3910  -37.3880   23.8670 N   0  0  0  0  0  0  0  0  0  0  0  0
  -25.9520  -38.2920   24.0230 H   0  0  0  0  0  0  0  0  0  0  0  0
  1  3  1  0
  1  2  1  0
  5  4  1  0
  5  1  1  0
  5  6  1  0
  7  8  1  0
  9  6  1  0
  9  7  2  0
 10  7  1  0
 11 12  1  0
 11 10  1  0
 12 18  1  0
 13 18  1  0
 14 15  1  0
 14 13  1  0
 16 15  1  0
 16 23  1  0
 16 17  1  0
 18 17  1  0
 19 12  2  0
 20 21  2  0
 21 40  1  0
 22 21  1  0
 22 25  1  0
 23 24  1  0
 23 20  1  0
 24 22  2  0
 25 26  1  0
 26 27  2  0
 28 31  1  0
 28 27  1  0
 29 28  2  0
 30 29  1  0
 30 25  2  0
 31 32  1  0
 32 33  1  0
 33 34  2  0
 35 34  1  0
 35 39  1  0
 36 35  2  0
 37 32  2  0
 37 36  1  0
 38 37  1  0
 40 41  1  0
 41 44  1  0
 41 43  1  0
 42 40  2  0
 45 46  1  0
 45 20  1  0
 47 45  1  0
 48  1  1  0
 48 49  1  0
 50 49  1  0
 50 51  1  0
 52 51  1  0
 53 64  2  0
 54 52  1  0
 54 59  1  0
 55 63  1  0
 55 65  1  0
 56 58  1  0
 57 63  1  0
 58 59  2  0
 58 57  1  0
 60 54  2  0
 61 60  1  0
 61 56  2  0
 62 56  1  0
 62 55  1  0
 63 53  1  0
 65 67  2  0
 66 65  1  0
 68 66  1  0
 69 78  2  0
 69 74  1  0
 70 66  1  0
 70 74  1  0
 71 70  1  0
 72 73  1  0
 72 71  1  0
 73 69  1  0
 74 75  2  0
 75 76  1  0
 77 76  2  0
 78 77  1  0
 79 53  1  0
 79 84  1  0
 79 80  1  0
 80 83  1  1
 80 81  1  0
 82 80  1  0
 84 87  1  0
 85 89  1  0
 85 84  1  0
 86 85  2  0
 89 88  1  0
 91 89  1  0
 91 92  1  0
 91 90  1  0
M  ISO  4  11 100  12 100  51 101  52 101
M  END
>  <TORSDO>  (36) 
F 25

>  <SCORE>  (36) 
-10.121

>  <name>  (36) 
35

>  <ligand_id>  (36) 
35

>  <original_smiles>  (36) 
[H]c1c([H])c([H])c2c(c1[H])C([H])([H])C([H])([H])C([H])([H])C2([H])N([H])C(=O)C1([H])N(C(=O)C([H])(N([H])C(=O)C([H])(N([H])C([H])([H])[H])C([H])([H])[H])C(C([H])([H])[H])(C([H])([H])[H])C([H])([H])[H])C([H])([H])c2c([H])c(OC([H])([H])C([H])([H])C([H])([H])C([H])([H])[N+]([H])([H])C([H])(C([H])([H])[H])C([H])([H])N=C(C([H])([H])[H])C([H])([H])C([H])([H])C(=O)N3C([H])([H])C([H])([H])C([H])([H])C([H])(n4nc(-c5c([H])c([H])c(Oc6c([H])c([H])c(F)c([H])c6F)c([H])c5[H])c(C(=O)N([H])[H])c4N([H])[H])C3([H])[H])c([H])c([H])c2C1([H])[H]

>  <smiles>  (36) 
[H]c1c([H])c([H])c2c(c1[H])C([H])([H])C([H])([H])C([H])([H])C2([H])N([H])C(=O)C1([H])N(C(=O)C([H])(N([H])C(=O)C([H])(N([H])C([H])([H])[H])C([H])([H])[H])C(C([H])([H])[H])(C([H])([H])[H])C([H])([H])[H])C([H])([H])c2c([H])c(OC([H])([H])C([H])([H])C([H])([H])C([H])([H])[N+]([H])([H])C([H])(C([H])([H])[H])C([H])([H])N=C(C([H])([H])[H])C([H])([H])C([H])([H])C(=O)N3C([H])([H])C([H])([H])C([H])([H])C([H])(n4nc(-c5c([H])c([H])c(Oc6c([H])c([H])c(F)c([H])c6F)c([H])c5[H])c(C(=O)N([H])[H])c4N([H])[H])C3([H])[H])c([H])c([H])c2C1([H])[H]

$$$$
36:0:0
     RDKit          3D

 88 96  0  0  1  0  0  0  0  0999 V2000
  -29.7650  -18.4160   21.0790 C   0  0  0  0  0  2  0  0  0  0  0  0
  -29.8050  -19.1280   18.8740 C   0  0  0  0  0  3  0  0  0  0  0  0
  -29.7750  -17.5600   19.7420 C   0  0  0  0  0  3  0  0  0  0  0  0
  -29.6130  -20.0560   20.9460 C   0  0  0  0  0  3  0  0  0  0  0  0
  -29.0840  -20.6260   19.5600 C   0  0  0  0  0  3  0  0  0  0  0  0
  -28.8340  -20.6490   22.1250 C   0  0  0  0  0  1  0  0  0  0  0  0
  -30.6150  -15.9010   19.6460 C   0  0  0  0  0  0  0  0  0  0  0  0
  -30.7030  -13.3400   18.9240 C   0  0  0  0  0  2  0  0  0  0  0  0
  -29.7390  -12.9460   17.7700 C   0  0  0  0  0  2  0  0  0  0  0  0
  -28.3400  -12.6060   18.3090 C   0  0  0  0  0  2  0  0  0  0  0  0
  -27.8900  -13.6250   19.3830 C   0  0  0  0  0  3  0  0  0  0  0  0
  -28.9830  -13.9470   20.4230 C   0  0  0  0  0  2  0  0  0  0  0  0
  -30.1360  -14.5270   19.7000 N   0  0  0  0  0  0  0  0  0  0  0  0
  -31.8270  -15.8590   19.3650 O   0  0  0  0  0  0  0  0  0  0  0  0
  -25.6110  -14.1520   20.3780 C   0  0  0  0  0  0  0  0  0  0  0  0
  -24.5700  -13.3700   20.7890 C   0  0  0  0  0  0  0  0  0  0  0  0
  -25.0070  -12.0170   20.6430 C   0  0  0  0  0  0  0  0  0  0  0  0
  -26.6120  -13.2810   19.9920 N   0  0  0  0  0  0  0  0  0  0  0  0
  -26.2680  -11.9840   20.2200 N   0  0  0  0  0  0  0  0  0  0  0  0
  -24.2710  -10.7580   20.8230 C   0  0  0  0  0  0  0  0  0  0  0  0
  -24.6940   -9.7770   21.7470 C   0  0  0  0  0  3  0  0  0  0  0  0
  -23.9540   -8.5870   21.9190 C   0  0  0  0  0  3  0  0  0  0  0  0
  -22.7760   -8.3680   21.1650 C   0  0  0  0  0  0  0  0  0  0  0  0
  -22.3720   -9.3370   20.2300 C   0  0  0  0  0  3  0  0  0  0  0  0
  -23.1120  -10.5180   20.0570 C   0  0  0  0  0  3  0  0  0  0  0  0
  -22.0090   -7.2310   21.2450 O   0  0  0  0  0  0  0  0  0  0  0  0
  -21.8720   -6.5350   22.4200 C   0  0  0  0  0  0  0  0  0  0  0  0
  -21.2950   -7.1200   23.5690 C   0  0  0  0  0  3  0  0  0  0  0  0
  -21.1100   -6.3490   24.7330 C   0  0  0  0  0  3  0  0  0  0  0  0
  -21.4910   -4.9940   24.7500 C   0  0  0  0  0  0  0  0  0  0  0  0
  -22.0610   -4.4080   23.6070 C   0  0  0  0  0  3  0  0  0  0  0  0
  -22.2470   -5.1760   22.4430 C   0  0  0  0  0  0  0  0  0  0  0  0
  -22.7770   -4.6020   21.3370 F   0  0  0  0  0  0  0  0  0  0  0  0
  -21.3050   -4.2510   25.8670 F   0  0  0  0  0  0  0  0  0  0  0  0
  -23.2090  -13.8530   21.1970 C   0  0  0  0  0  0  0  0  0  0  0  0
  -22.5390  -13.1260   22.0830 N   0  0  0  0  0  0  0  0  0  0  0  0
  -22.7530  -14.9120   20.7660 O   0  0  0  0  0  0  0  0  0  0  0  0
  -22.9230  -12.2690   22.4530 H   0  0  0  0  0  0  0  0  0  0  0  0
  -21.6280  -13.4300   22.3980 H   0  0  0  0  0  0  0  0  0  0  0  0
  -25.7850  -15.5300   20.2670 N   0  0  0  0  0  0  0  0  0  0  0  0
  -25.0460  -16.1880   20.4860 H   0  0  0  0  0  0  0  0  0  0  0  0
  -26.6170  -15.9750   19.9020 H   0  0  0  0  0  0  0  0  0  0  0  0
  -28.3300  -19.4730   16.8430 C   0  0  0  0  0  2  0  0  0  0  0  0
  -29.4250  -18.9330   17.4060 C   0  0  0  0  0  0  0  0  0  0  0  0
  -30.3740  -18.0800   16.5840 C   0  0  0  0  0  1  0  0  0  0  0  0
  -29.1560  -22.5120   19.1920 C   0  0  0  0  0  3  0  0  0  0  0  0
  -28.1620  -24.1420   19.3890 C   0  0  0  0  0  3  0  0  0  0  0  0
  -28.3520  -25.8720   19.3200 O   0  0  0  0  0  0  0  0  0  0  0  0
  -25.0210  -31.6920   23.1750 C   0  0  0  0  0  0  0  0  0  0  0  0
  -27.3760  -27.0560   19.4760 C   0  0  0  0  0  0  0  0  0  0  0  0
  -23.7560  -30.5320   21.4140 C   0  0  0  0  0  3  0  0  0  0  0  0
  -25.1300  -29.0700   19.7550 C   0  0  0  0  0  0  0  0  0  0  0  0
  -26.3290  -30.6740   21.2190 C   0  0  0  0  0  2  0  0  0  0  0  0
  -26.3500  -29.3410   20.3850 C   0  0  0  0  0  0  0  0  0  0  0  0
  -27.4600  -28.3660   20.2160 C   0  0  0  0  0  3  0  0  0  0  0  0
  -26.1200  -26.9830   18.8250 C   0  0  0  0  0  3  0  0  0  0  0  0
  -25.0500  -27.9180   18.9540 C   0  0  0  0  0  3  0  0  0  0  0  0
  -23.9380  -30.0160   19.9570 C   0  0  0  0  0  2  0  0  0  0  0  0
  -25.0610  -30.9900   21.9920 N   0  0  0  0  0  0  0  0  0  0  0  0
  -23.9510  -31.9350   23.7580 O   0  0  0  0  0  0  0  0  0  0  0  0
  -23.0590  -29.4440   22.2740 C   0  0  0  0  0  0  0  0  0  0  0  0
  -21.7260  -29.2970   22.1450 N   0  0  0  0  0  0  0  0  0  0  0  0
  -23.7260  -28.7320   23.0280 O   0  0  0  0  0  0  0  0  0  0  0  0
  -21.2370  -29.9240   21.5230 H   0  0  0  0  0  0  0  0  0  0  0  0
  -18.3440  -28.0410   22.5800 C   0  0  0  0  0  0  0  0  0  0  0  0
  -20.9120  -28.2740   22.8140 C   0  0  0  0  0  3  0  0  0  0  0  0
  -20.9940  -26.9230   22.0680 C   0  0  0  0  0  2  0  0  0  0  0  0
  -19.8690  -26.7280   21.0450 C   0  0  0  0  0  2  0  0  0  0  0  0
  -18.5020  -26.7880   21.7330 C   0  0  0  0  0  2  0  0  0  0  0  0
  -19.4740  -28.7470   23.0730 C   0  0  0  0  0  0  0  0  0  0  0  0
  -19.2690  -29.9200   23.8300 C   0  0  0  0  0  3  0  0  0  0  0  0
  -17.9690  -30.3890   24.0950 C   0  0  0  0  0  3  0  0  0  0  0  0
  -16.8540  -29.6810   23.6140 C   0  0  0  0  0  3  0  0  0  0  0  0
  -17.0420  -28.5070   22.8620 C   0  0  0  0  0  3  0  0  0  0  0  0
  -26.3160  -32.2360   23.8500 C   0  0  0  0  0  3  0  0  0  0  0  0
  -26.8470  -31.3030   25.0090 C   0  0  1  0  0  0  0  0  0  0  0  0
  -25.7770  -30.9520   26.0680 C   0  0  0  0  0  1  0  0  0  0  0  0
  -27.3960  -29.9730   24.4440 C   0  0  0  0  0  1  0  0  0  0  0  0
  -28.0290  -31.9900   25.7330 C   0  0  0  0  0  1  0  0  0  0  0  0
  -26.0260  -33.5810   24.3840 N   0  0  0  0  0  0  0  0  0  0  0  0
  -26.3190  -34.7350   23.7700 C   0  0  0  0  0  0  0  0  0  0  0  0
  -26.9210  -34.7800   22.6940 O   0  0  0  0  0  0  0  0  0  0  0  0
  -25.4840  -33.6180   25.2340 H   0  0  0  0  0  0  0  0  0  0  0  0
  -24.5740  -36.5530   23.8180 C   0  0  0  0  0  1  0  0  0  0  0  0
  -25.8790  -36.0470   24.4540 C   0  0  0  0  0  3  0  0  0  0  0  0
  -28.0700  -36.8460   25.2260 C   0  0  0  0  0  1  0  0  0  0  0  0
  -26.9010  -37.1170   24.3940 N   0  0  0  0  0  0  0  0  0  0  0  0
  -26.5070  -38.0070   24.6840 H   0  0  0  0  0  0  0  0  0  0  0  0
  2 44  1  0
  2  5  1  0
  2  3  1  0
  3  7  1  0
  3  1  1  0
  4  1  1  0
  4  6  1  0
  5 46  1  0
  5  4  1  0
  7 13  1  0
  8 13  1  0
  9 10  1  0
  9  8  1  0
 11 10  1  0
 11 18  1  0
 11 12  1  0
 13 12  1  0
 14  7  2  0
 15 16  2  0
 16 35  1  0
 17 16  1  0
 17 20  1  0
 18 19  1  0
 18 15  1  0
 19 17  2  0
 20 21  1  0
 21 22  2  0
 23 26  1  0
 23 22  1  0
 24 23  2  0
 25 24  1  0
 25 20  2  0
 26 27  1  0
 27 32  2  0
 27 28  1  0
 28 29  2  0
 29 30  1  0
 30 34  1  0
 31 30  2  0
 32 31  1  0
 33 32  1  0
 35 36  1  0
 36 39  1  0
 36 38  1  0
 37 35  2  0
 40 15  1  0
 40 41  1  0
 42 40  1  0
 43 44  2  0
 45 44  1  0
 46 47  2  0
 48 47  1  0
 48 50  1  0
 49 60  2  0
 50 55  1  0
 51 59  1  0
 51 61  1  0
 52 58  1  0
 52 54  1  0
 53 59  1  0
 54 53  1  0
 55 54  2  0
 56 57  1  0
 56 50  2  0
 57 52  2  0
 58 51  1  0
 59 49  1  0
 61 63  2  0
 62 61  1  0
 64 62  1  0
 65 74  2  0
 65 70  1  0
 66 62  1  0
 66 70  1  0
 67 66  1  0
 68 69  1  0
 68 67  1  0
 69 65  1  0
 70 71  2  0
 71 72  1  0
 73 72  2  0
 74 73  1  0
 75 49  1  0
 75 80  1  0
 75 76  1  0
 76 79  1  1
 76 77  1  0
 78 76  1  0
 80 83  1  0
 81 80  1  0
 81 85  1  0
 82 81  2  0
 85 84  1  0
 87 85  1  0
 87 88  1  0
 87 86  1  0
M  ISO  4   3 100   7 100  47 101  48 101
M  END
>  <TORSDO>  (37) 
F 19

>  <SCORE>  (37) 
-13.603

>  <name>  (37) 
36

>  <ligand_id>  (37) 
36

>  <original_smiles>  (37) 
[H]C([H])=C(C([H])([H])[H])C1([H])C([H])(C(=O)N2C([H])([H])C([H])([H])C([H])([H])C([H])(n3nc(-c4c([H])c([H])c(Oc5c([H])c([H])c(F)c([H])c5F)c([H])c4[H])c(C(=O)N([H])[H])c3N([H])[H])C2([H])[H])C([H])([H])C([H])(C([H])([H])[H])C1([H])C([H])([H])C([H])([H])Oc1c([H])c([H])c2c(c1[H])C([H])([H])N(C(=O)C([H])(N([H])C(=O)C([H])(N([H])C([H])([H])[H])C([H])([H])[H])C(C([H])([H])[H])(C([H])([H])[H])C([H])([H])[H])C([H])(C(=O)N([H])C1([H])c3c([H])c([H])c([H])c([H])c3C([H])([H])C([H])([H])C1([H])[H])C2([H])[H]

>  <smiles>  (37) 
[H]C([H])=C(C([H])([H])[H])C1([H])C([H])(C(=O)N2C([H])([H])C([H])([H])C([H])([H])C([H])(n3nc(-c4c([H])c([H])c(Oc5c([H])c([H])c(F)c([H])c5F)c([H])c4[H])c(C(=O)N([H])[H])c3N([H])[H])C2([H])[H])C([H])([H])C([H])(C([H])([H])[H])C1([H])C([H])([H])C([H])([H])Oc1c([H])c([H])c2c(c1[H])C([H])([H])N(C(=O)C([H])(N([H])C(=O)C([H])(N([H])C([H])([H])[H])C([H])([H])[H])C(C([H])([H])[H])(C([H])([H])[H])C([H])([H])[H])C([H])(C(=O)N([H])C1([H])c3c([H])c([H])c([H])c([H])c3C([H])([H])C([H])([H])C1([H])[H])C2([H])[H]

$$$$
37:0:0
     RDKit          3D

 96104  0  0  1  0  0  0  0  0999 V2000
  -29.3360  -19.4370   16.4060 C   0  0  0  0  0  2  0  0  0  0  0  0
  -29.3940  -20.9690   16.4970 C   0  0  0  0  0  2  0  0  0  0  0  0
  -29.8720  -18.7350   17.6710 C   0  0  0  0  0  2  0  0  0  0  0  0
  -28.7240  -21.4610   17.7810 C   0  0  0  0  0  2  0  0  0  0  0  0
  -29.2640  -19.3010   18.9840 C   0  0  0  0  0  3  0  0  0  0  0  0
  -29.4070  -20.8640   19.0340 C   0  0  0  0  0  3  0  0  0  0  0  0
  -28.8210  -21.4890   20.2490 N   0  0  0  0  0  4  0  0  0  0  0  0
  -29.1580  -20.9110   21.0060 H   0  0  0  0  0  0  0  0  0  0  0  0
  -27.8190  -21.3940   20.2330 H   0  0  0  0  0  0  0  0  0  0  0  0
  -29.2360  -22.9090   20.5070 C   0  0  0  0  0  2  0  0  0  0  0  0
  -28.0800  -23.9620   20.6230 C   0  0  0  0  0  2  0  0  0  0  0  0
  -28.5360  -25.3830   21.1090 C   0  0  0  0  0  2  0  0  0  0  0  0
  -28.4890  -26.4920   20.1790 O   0  0  0  0  0  0  0  0  0  0  0  0
  -24.5540  -31.7140   23.1320 C   0  0  0  0  0  0  0  0  0  0  0  0
  -27.3300  -27.2490   20.1770 C   0  0  0  0  0  0  0  0  0  0  0  0
  -23.4190  -30.2930   21.4570 C   0  0  0  0  0  3  0  0  0  0  0  0
  -24.9340  -28.7570   20.0900 C   0  0  0  0  0  0  0  0  0  0  0  0
  -25.9490  -30.6670   21.3420 C   0  0  0  0  0  2  0  0  0  0  0  0
  -26.0670  -29.2890   20.7180 C   0  0  0  0  0  0  0  0  0  0  0  0
  -27.2730  -28.5410   20.7560 C   0  0  0  0  0  3  0  0  0  0  0  0
  -26.1830  -26.7420   19.5400 C   0  0  0  0  0  3  0  0  0  0  0  0
  -24.9890  -27.4860   19.4950 C   0  0  0  0  0  3  0  0  0  0  0  0
  -23.6830  -29.6090   20.0890 C   0  0  0  0  0  2  0  0  0  0  0  0
  -24.6580  -30.9090   22.0350 N   0  0  0  0  0  0  0  0  0  0  0  0
  -23.4530  -31.9780   23.6350 O   0  0  0  0  0  0  0  0  0  0  0  0
  -22.7430  -29.2710   22.4010 C   0  0  0  0  0  0  0  0  0  0  0  0
  -21.4210  -29.0970   22.2520 N   0  0  0  0  0  0  0  0  0  0  0  0
  -23.4110  -28.6360   23.2230 O   0  0  0  0  0  0  0  0  0  0  0  0
  -20.9430  -29.6600   21.5630 H   0  0  0  0  0  0  0  0  0  0  0  0
  -18.0280  -27.9420   22.7170 C   0  0  0  0  0  0  0  0  0  0  0  0
  -20.5870  -28.1600   23.0060 C   0  0  0  0  0  3  0  0  0  0  0  0
  -20.6720  -26.7360   22.4090 C   0  0  0  0  0  2  0  0  0  0  0  0
  -19.5720  -26.4460   21.3840 C   0  0  0  0  0  2  0  0  0  0  0  0
  -18.1880  -26.6020   22.0200 C   0  0  0  0  0  2  0  0  0  0  0  0
  -19.1550  -28.6810   23.1660 C   0  0  0  0  0  0  0  0  0  0  0  0
  -18.9500  -29.9380   23.7750 C   0  0  0  0  0  3  0  0  0  0  0  0
  -17.6520  -30.4560   23.9420 C   0  0  0  0  0  3  0  0  0  0  0  0
  -16.5390  -29.7140   23.5110 C   0  0  0  0  0  3  0  0  0  0  0  0
  -16.7280  -28.4590   22.9030 C   0  0  0  0  0  3  0  0  0  0  0  0
  -25.8130  -32.3600   23.7900 C   0  0  0  0  0  3  0  0  0  0  0  0
  -25.4750  -33.7500   24.1230 N   0  0  0  0  0  0  0  0  0  0  0  0
  -25.8050  -34.8150   23.3780 C   0  0  0  0  0  0  0  0  0  0  0  0
  -26.4980  -34.7300   22.3600 O   0  0  0  0  0  0  0  0  0  0  0  0
  -24.8610  -33.8890   24.9130 H   0  0  0  0  0  0  0  0  0  0  0  0
  -24.0500  -36.5780   23.0010 C   0  0  0  0  0  1  0  0  0  0  0  0
  -25.2820  -36.1910   23.8340 C   0  0  0  0  0  3  0  0  0  0  0  0
  -27.3870  -37.1070   24.7090 C   0  0  0  0  0  1  0  0  0  0  0  0
  -26.2980  -37.2630   23.7480 N   0  0  0  0  0  0  0  0  0  0  0  0
  -25.8730  -38.1750   23.8960 H   0  0  0  0  0  0  0  0  0  0  0  0
  -26.3170  -31.5870   25.0690 C   0  0  1  0  0  0  0  0  0  0  0  0
  -25.2070  -31.3260   26.1130 C   0  0  0  0  0  1  0  0  0  0  0  0
  -26.9250  -30.2190   24.6790 C   0  0  0  0  0  1  0  0  0  0  0  0
  -27.4430  -32.3910   25.7600 C   0  0  0  0  0  1  0  0  0  0  0  0
  -29.6860  -18.6020   20.2200 N   0  0  0  0  0  0  0  0  0  0  0  0
  -28.8650  -18.0820   20.5190 H   0  0  0  0  0  0  0  0  0  0  0  0
  -32.1390  -18.2950   20.3140 C   0  0  0  0  0  1  0  0  0  0  0  0
  -30.7690  -17.5910   20.2210 C   0  0  0  0  0  3  0  0  0  0  0  0
  -30.7310  -15.2830   21.4270 C   0  0  0  0  0  3  0  0  0  0  0  0
  -30.5930  -16.6380   21.4210 C   0  0  0  0  0  0  0  0  0  0  0  0
  -30.2180  -17.3300   22.7260 C   0  0  0  0  0  1  0  0  0  0  0  0
  -31.1650  -14.4310   20.3190 C   0  0  0  0  0  0  0  0  0  0  0  0
  -30.7090  -12.3880   18.9920 C   0  0  0  0  0  2  0  0  0  0  0  0
  -29.7620  -12.7180   17.8200 C   0  0  0  0  0  2  0  0  0  0  0  0
  -28.2910  -12.6120   18.2650 C   0  0  0  0  0  2  0  0  0  0  0  0
  -28.0150  -13.3800   19.5840 C   0  0  0  0  0  3  0  0  0  0  0  0
  -29.0730  -13.0330   20.6550 C   0  0  0  0  0  2  0  0  0  0  0  0
  -30.4110  -13.3150   20.0960 N   0  0  0  0  0  0  0  0  0  0  0  0
  -32.1910  -14.6660   19.6690 O   0  0  0  0  0  0  0  0  0  0  0  0
  -25.6410  -14.0620   20.3120 C   0  0  0  0  0  0  0  0  0  0  0  0
  -24.5560  -13.3220   20.7000 C   0  0  0  0  0  0  0  0  0  0  0  0
  -24.9780  -11.9550   20.6770 C   0  0  0  0  0  0  0  0  0  0  0  0
  -26.6580  -13.1490   20.0760 N   0  0  0  0  0  0  0  0  0  0  0  0
  -26.2630  -11.8790   20.3530 N   0  0  0  0  0  0  0  0  0  0  0  0
  -24.2180  -10.7150   20.8890 C   0  0  0  0  0  0  0  0  0  0  0  0
  -24.6260   -9.7550   21.8410 C   0  0  0  0  0  3  0  0  0  0  0  0
  -23.8710   -8.5770   22.0370 C   0  0  0  0  0  3  0  0  0  0  0  0
  -22.6970   -8.3540   21.2810 C   0  0  0  0  0  0  0  0  0  0  0  0
  -22.3110   -9.3020   20.3190 C   0  0  0  0  0  3  0  0  0  0  0  0
  -23.0650  -10.4690   20.1200 C   0  0  0  0  0  3  0  0  0  0  0  0
  -21.9120   -7.2310   21.3880 O   0  0  0  0  0  0  0  0  0  0  0  0
  -21.8170   -6.5300   22.5620 C   0  0  0  0  0  0  0  0  0  0  0  0
  -21.3960   -7.1410   23.7640 C   0  0  0  0  0  3  0  0  0  0  0  0
  -21.2460   -6.3660   24.9310 C   0  0  0  0  0  3  0  0  0  0  0  0
  -21.5040   -4.9820   24.8980 C   0  0  0  0  0  0  0  0  0  0  0  0
  -21.9150   -4.3710   23.6990 C   0  0  0  0  0  3  0  0  0  0  0  0
  -22.0700   -5.1440   22.5350 C   0  0  0  0  0  0  0  0  0  0  0  0
  -22.4480   -4.5460   21.3790 F   0  0  0  0  0  0  0  0  0  0  0  0
  -21.3520   -4.2360   26.0170 F   0  0  0  0  0  0  0  0  0  0  0  0
  -23.1740  -13.8400   20.9790 C   0  0  0  0  0  0  0  0  0  0  0  0
  -22.4410  -13.1880   21.8740 N   0  0  0  0  0  0  0  0  0  0  0  0
  -22.7530  -14.8580   20.4330 O   0  0  0  0  0  0  0  0  0  0  0  0
  -22.7930  -12.3640   22.3410 H   0  0  0  0  0  0  0  0  0  0  0  0
  -21.5120  -13.5200   22.0950 H   0  0  0  0  0  0  0  0  0  0  0  0
  -25.8410  -15.4270   20.1200 N   0  0  0  0  0  0  0  0  0  0  0  0
  -25.0960  -16.1060   20.2340 H   0  0  0  0  0  0  0  0  0  0  0  0
  -26.7070  -15.8360   19.7940 H   0  0  0  0  0  0  0  0  0  0  0  0
  1  2  1  0
  1  3  1  0
  2  4  1  0
  3  5  1  0
  4  6  1  0
  5  6  1  0
  5 54  1  0
  6  7  1  0
  7 10  1  0
  7  8  1  0
  9  7  1  0
 10 11  1  0
 11 12  1  0
 13 12  1  0
 14 25  2  0
 15 13  1  0
 15 20  1  0
 16 24  1  0
 16 26  1  0
 17 19  1  0
 18 24  1  0
 19 20  2  0
 19 18  1  0
 21 15  2  0
 22 21  1  0
 22 17  2  0
 23 17  1  0
 23 16  1  0
 24 14  1  0
 26 28  2  0
 27 26  1  0
 29 27  1  0
 30 39  2  0
 30 35  1  0
 31 27  1  0
 31 35  1  0
 32 31  1  0
 33 34  1  0
 33 32  1  0
 34 30  1  0
 35 36  2  0
 36 37  1  0
 38 37  2  0
 39 38  1  0
 40 14  1  0
 40 41  1  0
 40 50  1  0
 41 44  1  0
 42 46  1  0
 42 41  1  0
 43 42  2  0
 46 45  1  0
 48 46  1  0
 48 49  1  0
 48 47  1  0
 50 53  1  1
 50 51  1  0
 52 50  1  0
 54 57  1  0
 54 55  1  0
 57 56  1  0
 57 59  1  0
 59 58  2  0
 59 60  1  0
 61 58  1  0
 62 67  1  0
 63 64  1  0
 63 62  1  0
 65 64  1  0
 65 72  1  0
 65 66  1  0
 67 61  1  0
 67 66  1  0
 68 61  2  0
 69 70  2  0
 70 89  1  0
 71 70  1  0
 71 74  1  0
 72 69  1  0
 72 73  1  0
 73 71  2  0
 74 75  1  0
 75 76  2  0
 77 80  1  0
 77 76  1  0
 78 77  2  0
 79 78  1  0
 79 74  2  0
 80 81  1  0
 81 82  1  0
 82 83  2  0
 84 83  1  0
 84 88  1  0
 85 84  2  0
 86 81  2  0
 86 85  1  0
 87 86  1  0
 89 90  1  0
 90 93  1  0
 90 92  1  0
 91 89  2  0
 94 95  1  0
 94 69  1  0
 96 94  1  0
M  ISO  4  12 101  13 101  58 100  61 100
M  END
>  <TORSDO>  (38) 
F 23

>  <SCORE>  (38) 
-12.561

>  <name>  (38) 
37

>  <ligand_id>  (38) 
37

>  <original_smiles>  (38) 
[H]C(C(=O)N1C([H])([H])C([H])([H])C([H])([H])C([H])(n2nc(-c3c([H])c([H])c(Oc4c([H])c([H])c(F)c([H])c4F)c([H])c3[H])c(C(=O)N([H])[H])c2N([H])[H])C1([H])[H])=C(C([H])([H])[H])C([H])(N([H])C1([H])C([H])([H])C([H])([H])C([H])([H])C([H])([H])C1([H])[N+]([H])([H])C([H])([H])C([H])([H])C([H])([H])Oc1c([H])c([H])c2c(c1[H])C([H])([H])N(C(=O)C([H])(N([H])C(=O)C([H])(N([H])C([H])([H])[H])C([H])([H])[H])C(C([H])([H])[H])(C([H])([H])[H])C([H])([H])[H])C([H])(C(=O)N([H])C1([H])c3c([H])c([H])c([H])c([H])c3C([H])([H])C([H])([H])C1([H])[H])C2([H])[H])C([H])([H])[H]

>  <smiles>  (38) 
[H]C(C(=O)N1C([H])([H])C([H])([H])C([H])([H])C([H])(n2nc(-c3c([H])c([H])c(Oc4c([H])c([H])c(F)c([H])c4F)c([H])c3[H])c(C(=O)N([H])[H])c2N([H])[H])C1([H])[H])=C(C([H])([H])[H])C([H])(N([H])C1([H])C([H])([H])C([H])([H])C([H])([H])C([H])([H])C1([H])[N+]([H])([H])C([H])([H])C([H])([H])C([H])([H])Oc1c([H])c([H])c2c(c1[H])C([H])([H])N(C(=O)C([H])(N([H])C(=O)C([H])(N([H])C([H])([H])[H])C([H])([H])[H])C(C([H])([H])[H])(C([H])([H])[H])C([H])([H])[H])C([H])(C(=O)N([H])C1([H])c3c([H])c([H])c([H])c([H])c3C([H])([H])C([H])([H])C1([H])[H])C2([H])[H])C([H])([H])[H]

$$$$
38:0:0
     RDKit          3D

 86 94  0  0  1  0  0  0  0  0999 V2000
  -29.6660  -21.6290   19.0610 C   0  0  0  0  0  2  0  0  0  0  0  0
  -28.5360  -20.5640   20.7440 C   0  0  0  0  0  2  0  0  0  0  0  0
  -28.8890  -22.2610   20.2990 C   0  0  0  0  0  3  0  0  0  0  0  0
  -29.8220  -19.9830   18.9920 C   0  0  0  0  0  3  0  0  0  0  0  0
  -29.6020  -19.1770   20.3500 C   0  0  1  0  0  0  0  0  0  0  0  0
  -31.1010  -19.5680   18.2510 C   0  0  0  0  0  1  0  0  0  0  0  0
  -30.8190  -19.3760   21.2710 C   0  0  0  0  0  1  0  0  0  0  0  0
  -29.3810  -17.2660   20.3630 C   0  0  0  0  0  2  0  0  0  0  0  0
  -30.2840  -15.6550   20.1870 C   0  0  0  0  0  0  0  0  0  0  0  0
  -30.4100  -13.1270   19.3560 C   0  0  0  0  0  2  0  0  0  0  0  0
  -29.4890  -12.7950   18.1470 C   0  0  0  0  0  2  0  0  0  0  0  0
  -28.0650  -12.4450   18.6100 C   0  0  0  0  0  2  0  0  0  0  0  0
  -27.5800  -13.4160   19.7110 C   0  0  0  0  0  3  0  0  0  0  0  0
  -28.6320  -13.6720   20.8130 C   0  0  0  0  0  2  0  0  0  0  0  0
  -29.8180  -14.2750   20.1690 N   0  0  0  0  0  0  0  0  0  0  0  0
  -31.5040  -15.6440   19.9370 O   0  0  0  0  0  0  0  0  0  0  0  0
  -25.2320  -13.9190   20.5450 C   0  0  0  0  0  0  0  0  0  0  0  0
  -24.1860  -13.1250   20.9200 C   0  0  0  0  0  0  0  0  0  0  0  0
  -24.6650  -11.7790   20.8480 C   0  0  0  0  0  0  0  0  0  0  0  0
  -26.2750  -13.0610   20.2520 N   0  0  0  0  0  0  0  0  0  0  0  0
  -25.9500  -11.7650   20.5040 N   0  0  0  0  0  0  0  0  0  0  0  0
  -23.9510  -10.5080   21.0280 C   0  0  0  0  0  0  0  0  0  0  0  0
  -24.3810   -9.5410   21.9630 C   0  0  0  0  0  3  0  0  0  0  0  0
  -23.6620   -8.3370   22.1320 C   0  0  0  0  0  3  0  0  0  0  0  0
  -22.4980   -8.0910   21.3660 C   0  0  0  0  0  0  0  0  0  0  0  0
  -22.0870   -9.0460   20.4200 C   0  0  0  0  0  3  0  0  0  0  0  0
  -22.8060  -10.2410   20.2490 C   0  0  0  0  0  3  0  0  0  0  0  0
  -21.7520   -6.9400   21.4440 O   0  0  0  0  0  0  0  0  0  0  0  0
  -21.6610   -6.2180   22.6070 C   0  0  0  0  0  0  0  0  0  0  0  0
  -21.1280   -6.7750   23.7900 C   0  0  0  0  0  3  0  0  0  0  0  0
  -20.9880   -5.9780   24.9430 C   0  0  0  0  0  3  0  0  0  0  0  0
  -21.3710   -4.6230   24.9140 C   0  0  0  0  0  0  0  0  0  0  0  0
  -21.8970   -4.0650   23.7350 C   0  0  0  0  0  3  0  0  0  0  0  0
  -22.0390   -4.8600   22.5850 C   0  0  0  0  0  0  0  0  0  0  0  0
  -22.5250   -4.3110   21.4460 F   0  0  0  0  0  0  0  0  0  0  0  0
  -21.2300   -3.8550   26.0190 F   0  0  0  0  0  0  0  0  0  0  0  0
  -22.7920  -13.5840   21.2280 C   0  0  0  0  0  0  0  0  0  0  0  0
  -22.0890  -12.8700   22.0980 N   0  0  0  0  0  0  0  0  0  0  0  0
  -22.3360  -14.6140   20.7320 O   0  0  0  0  0  0  0  0  0  0  0  0
  -22.4730  -12.0380   22.5220 H   0  0  0  0  0  0  0  0  0  0  0  0
  -21.1540  -13.1600   22.3470 H   0  0  0  0  0  0  0  0  0  0  0  0
  -25.3800  -15.2960   20.3970 N   0  0  0  0  0  0  0  0  0  0  0  0
  -24.6120  -15.9410   20.5500 H   0  0  0  0  0  0  0  0  0  0  0  0
  -26.2220  -15.7520   20.0710 H   0  0  0  0  0  0  0  0  0  0  0  0
  -27.9490  -23.9380   20.1960 C   0  0  0  0  0  2  0  0  0  0  0  0
  -28.1590  -25.6630   20.2740 O   0  0  0  0  0  0  0  0  0  0  0  0
  -24.6390  -31.8610   23.2570 C   0  0  0  0  0  0  0  0  0  0  0  0
  -27.1730  -26.8460   20.2340 C   0  0  0  0  0  0  0  0  0  0  0  0
  -23.4480  -30.4740   21.6110 C   0  0  0  0  0  3  0  0  0  0  0  0
  -24.8960  -28.8430   20.1880 C   0  0  0  0  0  0  0  0  0  0  0  0
  -26.0250  -30.6330   21.4840 C   0  0  0  0  0  2  0  0  0  0  0  0
  -26.0900  -29.2090   20.8200 C   0  0  0  0  0  0  0  0  0  0  0  0
  -27.2160  -28.2380   20.8090 C   0  0  0  0  0  3  0  0  0  0  0  0
  -25.9420  -26.6760   19.5520 C   0  0  0  0  0  3  0  0  0  0  0  0
  -24.8570  -27.6010   19.5310 C   0  0  0  0  0  3  0  0  0  0  0  0
  -23.6860  -29.7870   20.2360 C   0  0  0  0  0  2  0  0  0  0  0  0
  -24.7280  -31.0210   22.1700 N   0  0  0  0  0  0  0  0  0  0  0  0
  -23.5460  -32.1550   23.7710 O   0  0  0  0  0  0  0  0  0  0  0  0
  -22.7370  -29.4870   22.5760 C   0  0  0  0  0  0  0  0  0  0  0  0
  -21.4050  -29.3310   22.4500 N   0  0  0  0  0  0  0  0  0  0  0  0
  -23.3940  -28.8590   23.4100 O   0  0  0  0  0  0  0  0  0  0  0  0
  -20.9250  -29.8880   21.7570 H   0  0  0  0  0  0  0  0  0  0  0  0
  -18.0160  -28.1280   22.9650 C   0  0  0  0  0  0  0  0  0  0  0  0
  -20.5790  -28.3900   23.2160 C   0  0  0  0  0  3  0  0  0  0  0  0
  -20.6730  -26.9620   22.6300 C   0  0  0  0  0  2  0  0  0  0  0  0
  -19.5670  -26.6500   21.6170 C   0  0  0  0  0  2  0  0  0  0  0  0
  -18.1890  -26.7870   22.2700 C   0  0  0  0  0  2  0  0  0  0  0  0
  -19.1370  -28.8870   23.3950 C   0  0  0  0  0  0  0  0  0  0  0  0
  -18.9190  -30.1390   24.0100 C   0  0  0  0  0  3  0  0  0  0  0  0
  -17.6130  -30.6320   24.1950 C   0  0  0  0  0  3  0  0  0  0  0  0
  -16.5080  -29.8710   23.7780 C   0  0  0  0  0  3  0  0  0  0  0  0
  -16.7100  -28.6200   23.1690 C   0  0  0  0  0  3  0  0  0  0  0  0
  -25.9040  -32.5050   23.9000 C   0  0  0  0  0  3  0  0  0  0  0  0
  -25.5900  -33.9110   24.2200 N   0  0  0  0  0  0  0  0  0  0  0  0
  -25.9140  -34.9670   23.4600 C   0  0  0  0  0  0  0  0  0  0  0  0
  -26.5670  -34.8590   22.4200 O   0  0  0  0  0  0  0  0  0  0  0  0
  -25.0070  -34.0680   25.0280 H   0  0  0  0  0  0  0  0  0  0  0  0
  -24.1790  -36.7680   23.1520 C   0  0  0  0  0  1  0  0  0  0  0  0
  -25.4440  -36.3620   23.9250 C   0  0  0  0  0  3  0  0  0  0  0  0
  -27.6000  -37.2610   24.6910 C   0  0  0  0  0  1  0  0  0  0  0  0
  -26.4740  -37.4140   23.7730 N   0  0  0  0  0  0  0  0  0  0  0  0
  -26.0720  -38.3370   23.9150 H   0  0  0  0  0  0  0  0  0  0  0  0
  -26.3840  -31.7540   25.2040 C   0  0  1  0  0  0  0  0  0  0  0  0
  -25.2670  -31.5460   26.2540 C   0  0  0  0  0  1  0  0  0  0  0  0
  -26.9630  -30.3630   24.8620 C   0  0  0  0  0  1  0  0  0  0  0  0
  -27.5270  -32.5510   25.8750 C   0  0  0  0  0  1  0  0  0  0  0  0
  1  3  1  0
  3 45  1  0
  3  2  1  0
  4  6  1  0
  4  1  1  0
  4  5  1  0
  5  8  1  0
  5  2  1  0
  5  7  1  1
  9  8  1  0
 10 15  1  0
 11 12  1  0
 11 10  1  0
 13 12  1  0
 13 20  1  0
 13 14  1  0
 15  9  1  0
 15 14  1  0
 16  9  2  0
 17 18  2  0
 18 37  1  0
 19 18  1  0
 19 22  1  0
 20 21  1  0
 20 17  1  0
 21 19  2  0
 22 23  1  0
 23 24  2  0
 25 28  1  0
 25 24  1  0
 26 25  2  0
 27 26  1  0
 27 22  2  0
 28 29  1  0
 29 30  1  0
 30 31  2  0
 32 31  1  0
 32 36  1  0
 33 32  2  0
 34 29  2  0
 34 33  1  0
 35 34  1  0
 37 38  1  0
 38 41  1  0
 38 40  1  0
 39 37  2  0
 42 17  1  0
 42 43  1  0
 44 42  1  0
 45 46  1  0
 47 58  2  0
 48 46  1  0
 48 53  1  0
 49 57  1  0
 49 59  1  0
 50 56  1  0
 50 52  1  0
 51 57  1  0
 52 51  1  0
 53 52  2  0
 54 48  2  0
 55 54  1  0
 55 50  2  0
 56 49  1  0
 57 47  1  0
 59 61  2  0
 60 59  1  0
 62 60  1  0
 63 72  2  0
 63 68  1  0
 64 60  1  0
 64 68  1  0
 65 64  1  0
 66 67  1  0
 66 65  1  0
 67 63  1  0
 68 69  2  0
 69 70  1  0
 71 70  2  0
 72 71  1  0
 73 47  1  0
 73 74  1  0
 73 83  1  0
 74 77  1  0
 75 79  1  0
 75 74  1  0
 76 75  2  0
 79 78  1  0
 81 82  1  0
 81 79  1  0
 81 80  1  0
 83 86  1  1
 83 84  1  0
 85 83  1  0
M  ISO  4   8 100   9 100  45 101  46 101
M  END
>  <TORSDO>  (39) 
F 18

>  <SCORE>  (39) 
-16.678

>  <name>  (39) 
38

>  <ligand_id>  (39) 
38

>  <original_smiles>  (39) 
[H]c1c([H])c([H])c2c(c1[H])C([H])([H])C([H])([H])C([H])([H])C2([H])N([H])C(=O)C1([H])N(C(=O)C([H])(N([H])C(=O)C([H])(N([H])C([H])([H])[H])C([H])([H])[H])C(C([H])([H])[H])(C([H])([H])[H])C([H])([H])[H])C([H])([H])c2c([H])c(OC([H])([H])C3([H])C([H])([H])C([H])(C([H])([H])[H])C(C([H])([H])[H])(C([H])([H])C(=O)N4C([H])([H])C([H])([H])C([H])([H])C([H])(n5nc(-c6c([H])c([H])c(Oc7c([H])c([H])c(F)c([H])c7F)c([H])c6[H])c(C(=O)N([H])[H])c5N([H])[H])C4([H])[H])C3([H])[H])c([H])c([H])c2C1([H])[H]

>  <smiles>  (39) 
[H]c1c([H])c([H])c2c(c1[H])C([H])([H])C([H])([H])C([H])([H])C2([H])N([H])C(=O)C1([H])N(C(=O)C([H])(N([H])C(=O)C([H])(N([H])C([H])([H])[H])C([H])([H])[H])C(C([H])([H])[H])(C([H])([H])[H])C([H])([H])[H])C([H])([H])c2c([H])c(OC([H])([H])C3([H])C([H])([H])C([H])(C([H])([H])[H])C(C([H])([H])[H])(C([H])([H])C(=O)N4C([H])([H])C([H])([H])C([H])([H])C([H])(n5nc(-c6c([H])c([H])c(Oc7c([H])c([H])c(F)c([H])c7F)c([H])c6[H])c(C(=O)N([H])[H])c5N([H])[H])C4([H])[H])C3([H])[H])c([H])c([H])c2C1([H])[H]

$$$$
39:0:0
     RDKit          3D

 87 95  0  0  1  0  0  0  0  0999 V2000
  -30.2000  -20.6030   17.9970 C   0  0  0  0  0  3  0  0  0  0  0  0
  -30.9300  -21.5400   18.6440 C   0  0  0  0  0  3  0  0  0  0  0  0
  -28.8320  -20.0970   18.4600 C   0  0  0  0  0  2  0  0  0  0  0  0
  -30.4730  -22.3240   19.8810 C   0  0  0  0  0  3  0  0  0  0  0  0
  -28.7460  -20.2090   20.0010 C   0  0  0  0  0  3  0  0  0  0  0  0
  -28.9470  -22.1510   20.0680 C   0  0  0  0  0  3  0  0  0  0  0  0
  -30.9270  -23.7890   19.7820 C   0  0  0  0  0  1  0  0  0  0  0  0
  -29.4480  -17.1000   20.2540 C   0  0  0  0  0  3  0  0  0  0  0  0
  -29.6630  -18.6220   20.3080 C   0  0  0  0  0  3  0  0  0  0  0  0
  -30.3000  -15.6200   20.3090 C   0  0  0  0  0  0  0  0  0  0  0  0
  -30.4030  -13.0700   19.5370 C   0  0  0  0  0  2  0  0  0  0  0  0
  -29.5180  -12.6850   18.3160 C   0  0  0  0  0  2  0  0  0  0  0  0
  -28.0840  -12.3460   18.7560 C   0  0  0  0  0  2  0  0  0  0  0  0
  -27.5710  -13.3490   19.8150 C   0  0  0  0  0  3  0  0  0  0  0  0
  -28.5930  -13.6610   20.9280 C   0  0  0  0  0  2  0  0  0  0  0  0
  -29.7860  -14.2540   20.2840 N   0  0  0  0  0  0  0  0  0  0  0  0
  -31.5370  -15.5450   20.1700 O   0  0  0  0  0  0  0  0  0  0  0  0
  -25.2110  -13.8690   20.5970 C   0  0  0  0  0  0  0  0  0  0  0  0
  -24.1540  -13.0850   20.9600 C   0  0  0  0  0  0  0  0  0  0  0  0
  -24.6290  -11.7370   20.9170 C   0  0  0  0  0  0  0  0  0  0  0  0
  -26.2560  -13.0040   20.3380 N   0  0  0  0  0  0  0  0  0  0  0  0
  -25.9210  -11.7120   20.6010 N   0  0  0  0  0  0  0  0  0  0  0  0
  -23.9040  -10.4710   21.0990 C   0  0  0  0  0  0  0  0  0  0  0  0
  -24.3430   -9.4900   22.0150 C   0  0  0  0  0  3  0  0  0  0  0  0
  -23.6130   -8.2930   22.1870 C   0  0  0  0  0  3  0  0  0  0  0  0
  -22.4310   -8.0690   21.4440 C   0  0  0  0  0  0  0  0  0  0  0  0
  -22.0100   -9.0390   20.5170 C   0  0  0  0  0  3  0  0  0  0  0  0
  -22.7390  -10.2270   20.3420 C   0  0  0  0  0  3  0  0  0  0  0  0
  -21.6720   -6.9250   21.5250 O   0  0  0  0  0  0  0  0  0  0  0  0
  -21.6420   -6.1610   22.6650 C   0  0  0  0  0  0  0  0  0  0  0  0
  -21.2410   -6.6950   23.9090 C   0  0  0  0  0  3  0  0  0  0  0  0
  -21.1570   -5.8580   25.0390 C   0  0  0  0  0  3  0  0  0  0  0  0
  -21.4640   -4.4890   24.9270 C   0  0  0  0  0  0  0  0  0  0  0  0
  -21.8580   -3.9550   23.6880 C   0  0  0  0  0  3  0  0  0  0  0  0
  -21.9430   -4.7890   22.5590 C   0  0  0  0  0  0  0  0  0  0  0  0
  -22.3020   -4.2650   21.3630 F   0  0  0  0  0  0  0  0  0  0  0  0
  -21.3770   -3.6830   26.0110 F   0  0  0  0  0  0  0  0  0  0  0  0
  -22.7560  -13.5560   21.2290 C   0  0  0  0  0  0  0  0  0  0  0  0
  -22.0290  -12.8570   22.0910 N   0  0  0  0  0  0  0  0  0  0  0  0
  -22.3190  -14.5820   20.7100 O   0  0  0  0  0  0  0  0  0  0  0  0
  -22.3970  -12.0270   22.5340 H   0  0  0  0  0  0  0  0  0  0  0  0
  -21.0900  -13.1560   22.3150 H   0  0  0  0  0  0  0  0  0  0  0  0
  -25.3660  -15.2430   20.4320 N   0  0  0  0  0  0  0  0  0  0  0  0
  -24.5950  -15.8910   20.5550 H   0  0  0  0  0  0  0  0  0  0  0  0
  -26.2110  -15.6930   20.1070 H   0  0  0  0  0  0  0  0  0  0  0  0
  -28.0180  -23.8210   20.4040 C   0  0  0  0  0  2  0  0  0  0  0  0
  -28.1790  -25.5620   20.2470 O   0  0  0  0  0  0  0  0  0  0  0  0
  -24.6540  -31.8290   23.1760 C   0  0  0  0  0  0  0  0  0  0  0  0
  -27.1850  -26.7500   20.2300 C   0  0  0  0  0  0  0  0  0  0  0  0
  -23.4640  -30.4160   21.5550 C   0  0  0  0  0  3  0  0  0  0  0  0
  -24.9090  -28.7600   20.1580 C   0  0  0  0  0  0  0  0  0  0  0  0
  -26.0410  -30.5690   21.4230 C   0  0  0  0  0  2  0  0  0  0  0  0
  -26.1060  -29.1330   20.7810 C   0  0  0  0  0  0  0  0  0  0  0  0
  -27.2310  -28.1560   20.7800 C   0  0  0  0  0  3  0  0  0  0  0  0
  -25.9510  -26.5790   19.5550 C   0  0  0  0  0  3  0  0  0  0  0  0
  -24.8680  -27.5090   19.5200 C   0  0  0  0  0  3  0  0  0  0  0  0
  -23.7000  -29.7080   20.1910 C   0  0  0  0  0  2  0  0  0  0  0  0
  -24.7440  -30.9710   22.1030 N   0  0  0  0  0  0  0  0  0  0  0  0
  -23.5630  -32.1320   23.6880 O   0  0  0  0  0  0  0  0  0  0  0  0
  -22.7520  -29.4450   22.5360 C   0  0  0  0  0  0  0  0  0  0  0  0
  -21.4200  -29.2890   22.4170 N   0  0  0  0  0  0  0  0  0  0  0  0
  -23.4130  -28.8270   23.3750 O   0  0  0  0  0  0  0  0  0  0  0  0
  -20.9380  -29.8350   21.7180 H   0  0  0  0  0  0  0  0  0  0  0  0
  -18.0340  -28.0850   22.9530 C   0  0  0  0  0  0  0  0  0  0  0  0
  -20.5960  -28.3600   23.2000 C   0  0  0  0  0  3  0  0  0  0  0  0
  -20.6950  -26.9220   22.6390 C   0  0  0  0  0  2  0  0  0  0  0  0
  -19.5910  -26.5890   21.6320 C   0  0  0  0  0  2  0  0  0  0  0  0
  -18.2110  -26.7330   22.2810 C   0  0  0  0  0  2  0  0  0  0  0  0
  -19.1520  -28.8550   23.3690 C   0  0  0  0  0  0  0  0  0  0  0  0
  -18.9300  -30.1170   23.9630 C   0  0  0  0  0  3  0  0  0  0  0  0
  -17.6230  -30.6090   24.1390 C   0  0  0  0  0  3  0  0  0  0  0  0
  -16.5200  -29.8370   23.7350 C   0  0  0  0  0  3  0  0  0  0  0  0
  -16.7270  -28.5770   23.1480 C   0  0  0  0  0  3  0  0  0  0  0  0
  -25.9180  -32.4850   23.8080 C   0  0  0  0  0  3  0  0  0  0  0  0
  -25.5880  -33.8820   24.1550 N   0  0  0  0  0  0  0  0  0  0  0  0
  -25.9080  -34.9570   23.4220 C   0  0  0  0  0  0  0  0  0  0  0  0
  -26.5730  -34.8770   22.3850 O   0  0  0  0  0  0  0  0  0  0  0  0
  -24.9930  -34.0140   24.9600 H   0  0  0  0  0  0  0  0  0  0  0  0
  -24.1680  -36.7560   23.1240 C   0  0  0  0  0  1  0  0  0  0  0  0
  -25.4200  -36.3370   23.9130 C   0  0  0  0  0  3  0  0  0  0  0  0
  -27.5580  -37.2240   24.7380 C   0  0  0  0  0  1  0  0  0  0  0  0
  -26.4460  -37.3990   23.8070 N   0  0  0  0  0  0  0  0  0  0  0  0
  -26.0360  -38.3150   23.9710 H   0  0  0  0  0  0  0  0  0  0  0  0
  -26.4330  -31.7240   25.0940 C   0  0  1  0  0  0  0  0  0  0  0  0
  -25.3390  -31.4900   26.1620 C   0  0  0  0  0  1  0  0  0  0  0  0
  -27.0230  -30.3450   24.7230 C   0  0  0  0  0  1  0  0  0  0  0  0
  -27.5810  -32.5260   25.7520 C   0  0  0  0  0  1  0  0  0  0  0  0
  1  3  1  0
  1  2  2  0
  2  4  1  0
  3  5  1  0
  4  7  1  0
  4  6  1  0
  5  6  1  0
  5  9  1  0
  6 46  1  0
  8  9  2  0
  8 10  1  0
 11 16  1  0
 12 13  1  0
 12 11  1  0
 14 13  1  0
 14 21  1  0
 14 15  1  0
 16 10  1  0
 16 15  1  0
 17 10  2  0
 18 19  2  0
 19 38  1  0
 20 19  1  0
 20 23  1  0
 21 18  1  0
 21 22  1  0
 22 20  2  0
 23 24  1  0
 24 25  2  0
 26 29  1  0
 26 25  1  0
 27 26  2  0
 28 27  1  0
 28 23  2  0
 29 30  1  0
 30 31  1  0
 31 32  2  0
 33 32  1  0
 33 37  1  0
 34 33  2  0
 35 30  2  0
 35 34  1  0
 36 35  1  0
 38 39  1  0
 39 42  1  0
 39 41  1  0
 40 38  2  0
 43 44  1  0
 43 18  1  0
 45 43  1  0
 47 46  1  0
 48 59  2  0
 49 47  1  0
 49 54  1  0
 50 58  1  0
 50 60  1  0
 51 57  1  0
 51 53  1  0
 52 58  1  0
 53 52  1  0
 54 53  2  0
 55 49  2  0
 56 55  1  0
 56 51  2  0
 57 50  1  0
 58 48  1  0
 60 62  2  0
 61 60  1  0
 63 61  1  0
 64 73  2  0
 64 69  1  0
 65 61  1  0
 65 69  1  0
 66 65  1  0
 67 68  1  0
 67 66  1  0
 68 64  1  0
 69 70  2  0
 70 71  1  0
 72 71  2  0
 73 72  1  0
 74 48  1  0
 74 75  1  0
 74 84  1  0
 75 78  1  0
 76 80  1  0
 76 75  1  0
 77 76  2  0
 80 79  1  0
 82 80  1  0
 82 83  1  0
 82 81  1  0
 84 87  1  1
 84 85  1  0
 86 84  1  0
M  ISO  4   8 100  10 100  46 101  47 101
M  END
>  <TORSDO>  (40) 
F 18

>  <SCORE>  (40) 
-16.482

>  <name>  (40) 
39

>  <ligand_id>  (40) 
39

>  <original_smiles>  (40) 
[H]C(C(=O)N1C([H])([H])C([H])([H])C([H])([H])C([H])(n2nc(-c3c([H])c([H])c(Oc4c([H])c([H])c(F)c([H])c4F)c([H])c3[H])c(C(=O)N([H])[H])c2N([H])[H])C1([H])[H])=C([H])C1([H])C([H])([H])C([H])=C([H])C([H])(C([H])([H])[H])C1([H])C([H])([H])Oc1c([H])c([H])c2c(c1[H])C([H])([H])N(C(=O)C([H])(N([H])C(=O)C([H])(N([H])C([H])([H])[H])C([H])([H])[H])C(C([H])([H])[H])(C([H])([H])[H])C([H])([H])[H])C([H])(C(=O)N([H])C1([H])c3c([H])c([H])c([H])c([H])c3C([H])([H])C([H])([H])C1([H])[H])C2([H])[H]

>  <smiles>  (40) 
[H]C(C(=O)N1C([H])([H])C([H])([H])C([H])([H])C([H])(n2nc(-c3c([H])c([H])c(Oc4c([H])c([H])c(F)c([H])c4F)c([H])c3[H])c(C(=O)N([H])[H])c2N([H])[H])C1([H])[H])=C([H])C1([H])C([H])([H])C([H])=C([H])C([H])(C([H])([H])[H])C1([H])C([H])([H])Oc1c([H])c([H])c2c(c1[H])C([H])([H])N(C(=O)C([H])(N([H])C(=O)C([H])(N([H])C([H])([H])[H])C([H])([H])[H])C(C([H])([H])[H])(C([H])([H])[H])C([H])([H])[H])C([H])(C(=O)N([H])C1([H])c3c([H])c([H])c([H])c([H])c3C([H])([H])C([H])([H])C1([H])[H])C2([H])[H]

$$$$
40:0:0
     RDKit          3D

 91 99  0  0  1  0  0  0  0  0999 V2000
  -29.4940  -19.2690   21.2060 C   0  0  0  0  0  0  0  0  0  0  0  0
  -29.0130  -20.4160   20.6770 N   0  0  0  0  0  0  0  0  0  0  0  0
  -30.4700  -19.2680   21.9590 O   0  0  0  0  0  0  0  0  0  0  0  0
  -28.2310  -20.3070   20.0470 H   0  0  0  0  0  0  0  0  0  0  0  0
  -29.4920  -16.7540   20.3100 C   0  0  0  0  0  0  0  0  0  0  0  0
  -30.0000  -15.6710   20.9650 C   0  0  0  0  0  3  0  0  0  0  0  0
  -29.3620  -16.8960   18.8050 C   0  0  0  0  0  2  0  0  0  0  0  0
  -28.0230  -17.6150   18.5810 C   0  0  0  0  0  2  0  0  0  0  0  0
  -27.5400  -18.0910   19.9620 C   0  0  0  0  0  2  0  0  0  0  0  0
  -28.7330  -17.9340   20.9300 C   0  0  0  0  0  3  0  0  0  0  0  0
  -30.6900  -14.5710   20.2740 C   0  0  0  0  0  0  0  0  0  0  0  0
  -30.3670  -12.4210   19.0940 C   0  0  0  0  0  2  0  0  0  0  0  0
  -29.3940  -12.6140   17.9100 C   0  0  0  0  0  2  0  0  0  0  0  0
  -27.9300  -12.4660   18.3770 C   0  0  0  0  0  2  0  0  0  0  0  0
  -27.6180  -13.2970   19.6490 C   0  0  0  0  0  3  0  0  0  0  0  0
  -28.6970  -13.0810   20.7330 C   0  0  0  0  0  2  0  0  0  0  0  0
  -30.0090  -13.3950   20.1430 N   0  0  0  0  0  0  0  0  0  0  0  0
  -31.7960  -14.7350   19.7480 O   0  0  0  0  0  0  0  0  0  0  0  0
  -25.2310  -13.8850   20.4070 C   0  0  0  0  0  0  0  0  0  0  0  0
  -24.1750  -13.1120   20.8040 C   0  0  0  0  0  0  0  0  0  0  0  0
  -24.6450  -11.7650   20.7700 C   0  0  0  0  0  0  0  0  0  0  0  0
  -26.2780  -13.0120   20.1600 N   0  0  0  0  0  0  0  0  0  0  0  0
  -25.9300  -11.7310   20.4370 N   0  0  0  0  0  0  0  0  0  0  0  0
  -23.9280  -10.5010   20.9810 C   0  0  0  0  0  0  0  0  0  0  0  0
  -24.3780   -9.5470   21.9210 C   0  0  0  0  0  3  0  0  0  0  0  0
  -23.6650   -8.3460   22.1190 C   0  0  0  0  0  3  0  0  0  0  0  0
  -22.4860   -8.0900   21.3780 C   0  0  0  0  0  0  0  0  0  0  0  0
  -22.0530   -9.0340   20.4290 C   0  0  0  0  0  3  0  0  0  0  0  0
  -22.7680  -10.2270   20.2290 C   0  0  0  0  0  3  0  0  0  0  0  0
  -21.7440   -6.9400   21.4860 O   0  0  0  0  0  0  0  0  0  0  0  0
  -21.7050   -6.2150   22.6490 C   0  0  0  0  0  0  0  0  0  0  0  0
  -21.2750   -6.7830   23.8680 C   0  0  0  0  0  3  0  0  0  0  0  0
  -21.1870   -5.9840   25.0250 C   0  0  0  0  0  3  0  0  0  0  0  0
  -21.5170   -4.6170   24.9650 C   0  0  0  0  0  0  0  0  0  0  0  0
  -21.9410   -4.0480   23.7500 C   0  0  0  0  0  3  0  0  0  0  0  0
  -22.0310   -4.8450   22.5960 C   0  0  0  0  0  0  0  0  0  0  0  0
  -22.4210   -4.2880   21.4240 F   0  0  0  0  0  0  0  0  0  0  0  0
  -21.4240   -3.8470   26.0740 F   0  0  0  0  0  0  0  0  0  0  0  0
  -22.7820  -13.5850   21.1040 C   0  0  0  0  0  0  0  0  0  0  0  0
  -22.0750  -12.8890   21.9880 N   0  0  0  0  0  0  0  0  0  0  0  0
  -22.3290  -14.6070   20.5880 O   0  0  0  0  0  0  0  0  0  0  0  0
  -22.4530  -12.0630   22.4280 H   0  0  0  0  0  0  0  0  0  0  0  0
  -21.1400  -13.1860   22.2290 H   0  0  0  0  0  0  0  0  0  0  0  0
  -25.3830  -15.2490   20.2160 N   0  0  0  0  0  0  0  0  0  0  0  0
  -24.6200  -15.9080   20.3340 H   0  0  0  0  0  0  0  0  0  0  0  0
  -26.2370  -15.6780   19.8870 H   0  0  0  0  0  0  0  0  0  0  0  0
  -29.3400  -21.7930   21.0820 C   0  0  0  0  0  2  0  0  0  0  0  0
  -28.7640  -22.8680   20.1130 C   0  0  0  0  0  2  0  0  0  0  0  0
  -28.6420  -24.3040   20.7140 C   0  0  0  0  0  2  0  0  0  0  0  0
  -28.6690  -25.4540   19.6680 C   0  0  0  0  0  2  0  0  0  0  0  0
  -28.5220  -26.7720   20.2430 O   0  0  0  0  0  0  0  0  0  0  0  0
  -24.6050  -31.9200   23.2510 C   0  0  0  0  0  0  0  0  0  0  0  0
  -27.3180  -27.4620   20.2140 C   0  0  0  0  0  0  0  0  0  0  0  0
  -23.4310  -30.5080   21.5990 C   0  0  0  0  0  3  0  0  0  0  0  0
  -24.9120  -28.9730   20.2000 C   0  0  0  0  0  0  0  0  0  0  0  0
  -25.9600  -30.8760   21.4310 C   0  0  0  0  0  2  0  0  0  0  0  0
  -26.0620  -29.5020   20.7970 C   0  0  0  0  0  0  0  0  0  0  0  0
  -27.2640  -28.7540   20.7980 C   0  0  0  0  0  3  0  0  0  0  0  0
  -26.1360  -26.9470   19.6320 C   0  0  0  0  0  3  0  0  0  0  0  0
  -24.9450  -27.6950   19.6180 C   0  0  0  0  0  3  0  0  0  0  0  0
  -23.6630  -29.8270   20.2250 C   0  0  0  0  0  2  0  0  0  0  0  0
  -24.6830  -31.1170   22.1510 N   0  0  0  0  0  0  0  0  0  0  0  0
  -23.5150  -32.1880   23.7750 O   0  0  0  0  0  0  0  0  0  0  0  0
  -22.7730  -29.4850   22.5540 C   0  0  0  0  0  0  0  0  0  0  0  0
  -21.4480  -29.3020   22.4200 N   0  0  0  0  0  0  0  0  0  0  0  0
  -23.4520  -28.8570   23.3690 O   0  0  0  0  0  0  0  0  0  0  0  0
  -20.9590  -29.8640   21.7390 H   0  0  0  0  0  0  0  0  0  0  0  0
  -18.0740  -28.1000   22.8960 C   0  0  0  0  0  0  0  0  0  0  0  0
  -20.6300  -28.3570   23.1800 C   0  0  0  0  0  3  0  0  0  0  0  0
  -20.7380  -26.9300   22.5920 C   0  0  0  0  0  2  0  0  0  0  0  0
  -19.6360  -26.6110   21.5760 C   0  0  0  0  0  2  0  0  0  0  0  0
  -18.2540  -26.7540   22.2140 C   0  0  0  0  0  2  0  0  0  0  0  0
  -19.1910  -28.8580   23.3360 C   0  0  0  0  0  0  0  0  0  0  0  0
  -18.9700  -30.1190   23.9310 C   0  0  0  0  0  3  0  0  0  0  0  0
  -17.6650  -30.6230   24.0860 C   0  0  0  0  0  3  0  0  0  0  0  0
  -16.5620  -29.8620   23.6610 C   0  0  0  0  0  3  0  0  0  0  0  0
  -16.7690  -28.6000   23.0760 C   0  0  0  0  0  3  0  0  0  0  0  0
  -25.8780  -32.5620   23.8860 C   0  0  0  0  0  3  0  0  0  0  0  0
  -25.5590  -33.9600   24.2040 N   0  0  0  0  0  0  0  0  0  0  0  0
  -25.8900  -35.0080   23.4390 C   0  0  0  0  0  0  0  0  0  0  0  0
  -26.5700  -34.9010   22.4140 O   0  0  0  0  0  0  0  0  0  0  0  0
  -24.9570  -34.1170   24.9990 H   0  0  0  0  0  0  0  0  0  0  0  0
  -24.1540  -36.7870   23.0510 C   0  0  0  0  0  1  0  0  0  0  0  0
  -25.3900  -36.3980   23.8790 C   0  0  0  0  0  3  0  0  0  0  0  0
  -27.5080  -37.3060   24.7240 C   0  0  0  0  0  1  0  0  0  0  0  0
  -26.4160  -37.4570   23.7650 N   0  0  0  0  0  0  0  0  0  0  0  0
  -26.0020  -38.3750   23.8980 H   0  0  0  0  0  0  0  0  0  0  0  0
  -26.3830  -31.8000   25.1720 C   0  0  1  0  0  0  0  0  0  0  0  0
  -25.2780  -31.5590   26.2270 C   0  0  0  0  0  1  0  0  0  0  0  0
  -26.9800  -30.4250   24.7900 C   0  0  0  0  0  1  0  0  0  0  0  0
  -27.5190  -32.6030   25.8440 C   0  0  0  0  0  1  0  0  0  0  0  0
  1  3  2  0
  2 47  1  0
  2  1  1  0
  4  2  1  0
  5 10  1  0
  5  6  2  0
  7  5  1  0
  8  7  1  0
  8  9  1  0
  9 10  1  0
 10  1  1  0
 11  6  1  0
 12 17  1  0
 13 14  1  0
 13 12  1  0
 15 14  1  0
 15 22  1  0
 15 16  1  0
 17 11  1  0
 17 16  1  0
 18 11  2  0
 19 20  2  0
 20 39  1  0
 21 20  1  0
 21 24  1  0
 22 19  1  0
 22 23  1  0
 23 21  2  0
 24 25  1  0
 25 26  2  0
 27 30  1  0
 27 26  1  0
 28 27  2  0
 29 28  1  0
 29 24  2  0
 30 31  1  0
 31 32  1  0
 32 33  2  0
 34 33  1  0
 34 38  1  0
 35 34  2  0
 36 31  2  0
 36 35  1  0
 37 36  1  0
 39 40  1  0
 40 43  1  0
 40 42  1  0
 41 39  2  0
 44 45  1  0
 44 19  1  0
 46 44  1  0
 48 49  1  0
 48 47  1  0
 50 51  1  0
 50 49  1  0
 52 63  2  0
 53 51  1  0
 53 58  1  0
 54 62  1  0
 54 64  1  0
 55 61  1  0
 55 57  1  0
 56 62  1  0
 57 58  2  0
 57 56  1  0
 59 53  2  0
 60 59  1  0
 60 55  2  0
 61 54  1  0
 62 52  1  0
 64 66  2  0
 65 64  1  0
 67 65  1  0
 68 77  2  0
 68 73  1  0
 69 65  1  0
 69 73  1  0
 70 69  1  0
 71 72  1  0
 71 70  1  0
 72 68  1  0
 73 74  2  0
 74 75  1  0
 76 75  2  0
 77 76  1  0
 78 52  1  0
 78 79  1  0
 78 88  1  0
 79 82  1  0
 80 84  1  0
 80 79  1  0
 81 80  2  0
 84 83  1  0
 86 84  1  0
 86 87  1  0
 86 85  1  0
 88 91  1  1
 88 89  1  0
 90 88  1  0
M  ISO  4   6 100  11 100  50 101  51 101
M  END
>  <TORSDO>  (41) 
F 21

>  <SCORE>  (41) 
-13.318

>  <name>  (41) 
40

>  <ligand_id>  (41) 
40

>  <original_smiles>  (41) 
[H]C(C(=O)N1C([H])([H])C([H])([H])C([H])([H])C([H])(n2nc(-c3c([H])c([H])c(Oc4c([H])c([H])c(F)c([H])c4F)c([H])c3[H])c(C(=O)N([H])[H])c2N([H])[H])C1([H])[H])=C1C([H])([H])C([H])([H])C([H])([H])C1([H])C(=O)N([H])C([H])([H])C([H])([H])C([H])([H])C([H])([H])Oc1c([H])c([H])c2c(c1[H])C([H])([H])N(C(=O)C([H])(N([H])C(=O)C([H])(N([H])C([H])([H])[H])C([H])([H])[H])C(C([H])([H])[H])(C([H])([H])[H])C([H])([H])[H])C([H])(C(=O)N([H])C1([H])c3c([H])c([H])c([H])c([H])c3C([H])([H])C([H])([H])C1([H])[H])C2([H])[H]

>  <smiles>  (41) 
[H]C(C(=O)N1C([H])([H])C([H])([H])C([H])([H])C([H])(n2nc(-c3c([H])c([H])c(Oc4c([H])c([H])c(F)c([H])c4F)c([H])c3[H])c(C(=O)N([H])[H])c2N([H])[H])C1([H])[H])=C1C([H])([H])C([H])([H])C([H])([H])C1([H])C(=O)N([H])C([H])([H])C([H])([H])C([H])([H])C([H])([H])Oc1c([H])c([H])c2c(c1[H])C([H])([H])N(C(=O)C([H])(N([H])C(=O)C([H])(N([H])C([H])([H])[H])C([H])([H])[H])C(C([H])([H])[H])(C([H])([H])[H])C([H])([H])[H])C([H])(C(=O)N([H])C1([H])c3c([H])c([H])c([H])c([H])c3C([H])([H])C([H])([H])C1([H])[H])C2([H])[H]

$$$$
41:0:0
     RDKit          3D

 86 94  0  0  1  0  0  0  0  0999 V2000
  -29.4460  -21.7790   18.8590 C   0  0  0  0  0  2  0  0  0  0  0  0
  -28.6910  -20.2470   20.2120 C   0  0  0  0  0  3  0  0  0  0  0  0
  -28.9050  -22.1490   20.2440 C   0  0  0  0  0  3  0  0  0  0  0  0
  -27.3060  -20.6450   18.1780 C   0  0  0  0  0  1  0  0  0  0  0  0
  -28.6520  -20.5300   18.7790 N   0  0  1  0  0  4  0  0  0  0  0  0
  -29.1690  -19.8270   18.2710 H   0  0  0  0  0  0  0  0  0  0  0  0
  -29.4020  -17.1200   20.3680 C   0  0  0  0  0  3  0  0  0  0  0  0
  -29.6230  -18.6410   20.2920 C   0  0  0  0  0  3  0  0  0  0  0  0
  -30.2620  -15.6440   20.3360 C   0  0  0  0  0  0  0  0  0  0  0  0
  -30.3850  -13.0910   19.5740 C   0  0  0  0  0  2  0  0  0  0  0  0
  -29.5230  -12.7080   18.3360 C   0  0  0  0  0  2  0  0  0  0  0  0
  -28.0840  -12.3650   18.7510 C   0  0  0  0  0  2  0  0  0  0  0  0
  -27.5490  -13.3670   19.7980 C   0  0  0  0  0  3  0  0  0  0  0  0
  -28.5500  -13.6780   20.9330 C   0  0  0  0  0  2  0  0  0  0  0  0
  -29.7570  -14.2730   20.3160 N   0  0  0  0  0  0  0  0  0  0  0  0
  -31.4960  -15.5780   20.1710 O   0  0  0  0  0  0  0  0  0  0  0  0
  -25.1690  -13.8820   20.5230 C   0  0  0  0  0  0  0  0  0  0  0  0
  -24.1110  -13.0940   20.8740 C   0  0  0  0  0  0  0  0  0  0  0  0
  -24.5930  -11.7500   20.8570 C   0  0  0  0  0  0  0  0  0  0  0  0
  -26.2250  -13.0190   20.2960 N   0  0  0  0  0  0  0  0  0  0  0  0
  -25.8920  -11.7290   20.5680 N   0  0  0  0  0  0  0  0  0  0  0  0
  -23.8720  -10.4810   21.0390 C   0  0  0  0  0  0  0  0  0  0  0  0
  -24.2870   -9.5220   21.9910 C   0  0  0  0  0  3  0  0  0  0  0  0
  -23.5600   -8.3230   22.1610 C   0  0  0  0  0  3  0  0  0  0  0  0
  -22.4060   -8.0730   21.3820 C   0  0  0  0  0  0  0  0  0  0  0  0
  -22.0110   -9.0210   20.4210 C   0  0  0  0  0  3  0  0  0  0  0  0
  -22.7370  -10.2110   20.2470 C   0  0  0  0  0  3  0  0  0  0  0  0
  -21.6550   -6.9250   21.4610 O   0  0  0  0  0  0  0  0  0  0  0  0
  -21.5770   -6.1950   22.6190 C   0  0  0  0  0  0  0  0  0  0  0  0
  -21.1010   -6.7560   23.8250 C   0  0  0  0  0  3  0  0  0  0  0  0
  -20.9700   -5.9510   24.9740 C   0  0  0  0  0  3  0  0  0  0  0  0
  -21.3070   -4.5850   24.9190 C   0  0  0  0  0  0  0  0  0  0  0  0
  -21.7760   -4.0230   23.7190 C   0  0  0  0  0  3  0  0  0  0  0  0
  -21.9070   -4.8250   22.5720 C   0  0  0  0  0  0  0  0  0  0  0  0
  -22.3390   -4.2730   21.4120 F   0  0  0  0  0  0  0  0  0  0  0  0
  -21.1750   -3.8100   26.0200 F   0  0  0  0  0  0  0  0  0  0  0  0
  -22.7040  -13.5600   21.1090 C   0  0  0  0  0  0  0  0  0  0  0  0
  -21.9630  -12.8710   21.9680 N   0  0  0  0  0  0  0  0  0  0  0  0
  -22.2690  -14.5750   20.5640 O   0  0  0  0  0  0  0  0  0  0  0  0
  -22.3270  -12.0520   22.4330 H   0  0  0  0  0  0  0  0  0  0  0  0
  -21.0180  -13.1680   22.1690 H   0  0  0  0  0  0  0  0  0  0  0  0
  -25.3170  -15.2550   20.3440 N   0  0  0  0  0  0  0  0  0  0  0  0
  -24.5380  -15.8960   20.4470 H   0  0  0  0  0  0  0  0  0  0  0  0
  -26.1620  -15.7070   20.0180 H   0  0  0  0  0  0  0  0  0  0  0  0
  -27.9300  -23.8320   20.2520 C   0  0  0  0  0  2  0  0  0  0  0  0
  -28.1380  -25.5760   20.2600 O   0  0  0  0  0  0  0  0  0  0  0  0
  -24.6400  -31.8570   23.1710 C   0  0  0  0  0  0  0  0  0  0  0  0
  -27.1590  -26.7750   20.2130 C   0  0  0  0  0  0  0  0  0  0  0  0
  -23.4500  -30.4570   21.5370 C   0  0  0  0  0  3  0  0  0  0  0  0
  -24.8950  -28.8000   20.1370 C   0  0  0  0  0  0  0  0  0  0  0  0
  -26.0290  -30.5970   21.4170 C   0  0  0  0  0  2  0  0  0  0  0  0
  -26.0900  -29.1630   20.7700 C   0  0  0  0  0  0  0  0  0  0  0  0
  -27.2090  -28.1790   20.7740 C   0  0  0  0  0  3  0  0  0  0  0  0
  -25.9290  -26.6160   19.5280 C   0  0  0  0  0  3  0  0  0  0  0  0
  -24.8510  -27.5520   19.4930 C   0  0  0  0  0  3  0  0  0  0  0  0
  -23.6910  -29.7530   20.1700 C   0  0  0  0  0  2  0  0  0  0  0  0
  -24.7300  -31.0030   22.0940 N   0  0  0  0  0  0  0  0  0  0  0  0
  -23.5470  -32.1620   23.6780 O   0  0  0  0  0  0  0  0  0  0  0  0
  -22.7290  -29.4850   22.5110 C   0  0  0  0  0  0  0  0  0  0  0  0
  -21.3950  -29.3460   22.3930 N   0  0  0  0  0  0  0  0  0  0  0  0
  -23.3830  -28.8530   23.3440 O   0  0  0  0  0  0  0  0  0  0  0  0
  -20.9180  -29.9050   21.6980 H   0  0  0  0  0  0  0  0  0  0  0  0
  -17.9950  -28.1820   22.9290 C   0  0  0  0  0  0  0  0  0  0  0  0
  -20.5600  -28.4200   23.1680 C   0  0  0  0  0  3  0  0  0  0  0  0
  -20.6390  -26.9870   22.5910 C   0  0  0  0  0  2  0  0  0  0  0  0
  -19.5240  -26.6810   21.5850 C   0  0  0  0  0  2  0  0  0  0  0  0
  -18.1500  -26.8360   22.2420 C   0  0  0  0  0  2  0  0  0  0  0  0
  -19.1250  -28.9320   23.3500 C   0  0  0  0  0  0  0  0  0  0  0  0
  -18.9230  -30.1890   23.9590 C   0  0  0  0  0  3  0  0  0  0  0  0
  -17.6230  -30.6980   24.1480 C   0  0  0  0  0  3  0  0  0  0  0  0
  -16.5080  -29.9470   23.7400 C   0  0  0  0  0  3  0  0  0  0  0  0
  -16.6950  -28.6900   23.1360 C   0  0  0  0  0  3  0  0  0  0  0  0
  -25.9040  -32.5050   23.8110 C   0  0  0  0  0  3  0  0  0  0  0  0
  -25.5800  -33.9040   24.1560 N   0  0  0  0  0  0  0  0  0  0  0  0
  -25.8980  -34.9750   23.4170 C   0  0  0  0  0  0  0  0  0  0  0  0
  -26.5530  -34.8910   22.3740 O   0  0  0  0  0  0  0  0  0  0  0  0
  -24.9940  -34.0400   24.9660 H   0  0  0  0  0  0  0  0  0  0  0  0
  -24.1550  -36.7730   23.1370 C   0  0  0  0  0  1  0  0  0  0  0  0
  -25.4200  -36.3590   23.9070 C   0  0  0  0  0  3  0  0  0  0  0  0
  -27.5700  -37.2530   24.6910 C   0  0  0  0  0  1  0  0  0  0  0  0
  -26.4440  -37.4190   23.7760 N   0  0  0  0  0  0  0  0  0  0  0  0
  -26.0370  -38.3370   23.9390 H   0  0  0  0  0  0  0  0  0  0  0  0
  -26.4040  -31.7400   25.1000 C   0  0  1  0  0  0  0  0  0  0  0  0
  -25.3010  -31.5130   26.1600 C   0  0  0  0  0  1  0  0  0  0  0  0
  -26.9860  -30.3560   24.7320 C   0  0  0  0  0  1  0  0  0  0  0  0
  -27.5530  -32.5330   25.7670 C   0  0  0  0  0  1  0  0  0  0  0  0
  1  3  1  0
  2  3  1  0
  2  8  1  0
  3 45  1  0
  4  5  1  0
  5  1  1  0
  5  2  1  0
  5  6  1  6
  8  7  2  0
  9  7  1  0
 10 15  1  0
 11 12  1  0
 11 10  1  0
 13 12  1  0
 13 20  1  0
 13 14  1  0
 15  9  1  0
 15 14  1  0
 16  9  2  0
 17 18  2  0
 18 37  1  0
 19 18  1  0
 19 22  1  0
 20 17  1  0
 20 21  1  0
 21 19  2  0
 22 23  1  0
 23 24  2  0
 25 28  1  0
 25 24  1  0
 26 25  2  0
 27 26  1  0
 27 22  2  0
 28 29  1  0
 29 30  1  0
 30 31  2  0
 32 31  1  0
 32 36  1  0
 33 32  2  0
 34 29  2  0
 34 33  1  0
 35 34  1  0
 37 38  1  0
 38 41  1  0
 38 40  1  0
 39 37  2  0
 42 43  1  0
 42 17  1  0
 44 42  1  0
 45 46  1  0
 47 58  2  0
 48 46  1  0
 48 53  1  0
 49 57  1  0
 49 59  1  0
 50 56  1  0
 50 52  1  0
 51 57  1  0
 52 53  2  0
 52 51  1  0
 54 48  2  0
 55 54  1  0
 55 50  2  0
 56 49  1  0
 57 47  1  0
 59 61  2  0
 60 59  1  0
 62 60  1  0
 63 72  2  0
 63 68  1  0
 64 60  1  0
 64 68  1  0
 65 64  1  0
 66 67  1  0
 66 65  1  0
 67 63  1  0
 68 69  2  0
 69 70  1  0
 71 70  2  0
 72 71  1  0
 73 47  1  0
 73 74  1  0
 73 83  1  0
 74 77  1  0
 75 79  1  0
 75 74  1  0
 76 75  2  0
 79 78  1  0
 81 79  1  0
 81 82  1  0
 81 80  1  0
 83 86  1  1
 83 84  1  0
 85 83  1  0
M  ISO  4   7 100   9 100  45 101  46 101
M  END
>  <TORSDO>  (42) 
F 18

>  <SCORE>  (42) 
-16.490

>  <name>  (42) 
41

>  <ligand_id>  (42) 
41

>  <original_smiles>  (42) 
[H]C(C(=O)N1C([H])([H])C([H])([H])C([H])([H])C([H])(n2nc(-c3c([H])c([H])c(Oc4c([H])c([H])c(F)c([H])c4F)c([H])c3[H])c(C(=O)N([H])[H])c2N([H])[H])C1([H])[H])=C([H])C1([H])C([H])(C([H])([H])Oc2c([H])c([H])c3c(c2[H])C([H])([H])N(C(=O)C([H])(N([H])C(=O)C([H])(N([H])C([H])([H])[H])C([H])([H])[H])C(C([H])([H])[H])(C([H])([H])[H])C([H])([H])[H])C([H])(C(=O)N([H])C2([H])c4c([H])c([H])c([H])c([H])c4C([H])([H])C([H])([H])C2([H])[H])C3([H])[H])C([H])([H])[N+]1([H])C([H])([H])[H]

>  <smiles>  (42) 
[H]C(C(=O)N1C([H])([H])C([H])([H])C([H])([H])C([H])(n2nc(-c3c([H])c([H])c(Oc4c([H])c([H])c(F)c([H])c4F)c([H])c3[H])c(C(=O)N([H])[H])c2N([H])[H])C1([H])[H])=C([H])C1([H])C([H])(C([H])([H])Oc2c([H])c([H])c3c(c2[H])C([H])([H])N(C(=O)C([H])(N([H])C(=O)C([H])(N([H])C([H])([H])[H])C([H])([H])[H])C(C([H])([H])[H])(C([H])([H])[H])C([H])([H])[H])C([H])(C(=O)N([H])C2([H])c4c([H])c([H])c([H])c([H])c4C([H])([H])C([H])([H])C2([H])[H])C3([H])[H])C([H])([H])[N+]1([H])C([H])([H])[H]

$$$$
42:0:0
     RDKit          3D

 89 97  0  0  1  0  0  0  0  0999 V2000
  -29.8280  -23.1830   19.0550 C   0  0  0  0  0  2  0  0  0  0  0  0
  -29.7680  -24.7280   19.1160 C   0  0  0  0  0  2  0  0  0  0  0  0
  -28.2310  -23.8790   20.7400 C   0  0  0  0  0  2  0  0  0  0  0  0
  -29.2330  -22.6820   20.3840 C   0  0  0  0  0  3  0  0  0  0  0  0
  -28.4000  -25.0760   19.7140 C   0  0  0  0  0  3  0  0  0  0  0  0
  -28.6950  -21.1870   20.3270 C   0  0  0  0  0  0  0  0  0  0  0  0
  -29.5230  -20.1050   20.5410 N   0  0  0  0  0  0  0  0  0  0  0  0
  -27.4950  -21.0090   20.1150 O   0  0  0  0  0  0  0  0  0  0  0  0
  -30.5010  -20.3170   20.6980 H   0  0  0  0  0  0  0  0  0  0  0  0
  -29.1150  -18.6550   20.7130 C   0  0  0  0  0  3  0  0  0  0  0  0
  -30.1850  -17.4790   20.4930 C   0  0  0  0  0  3  0  0  0  0  0  0
  -29.7210  -15.9910   20.8770 C   0  0  0  0  0  2  0  0  0  0  0  0
  -30.5680  -14.7040   20.4610 C   0  0  0  0  0  0  0  0  0  0  0  0
  -30.3990  -12.4580   19.3830 C   0  0  0  0  0  2  0  0  0  0  0  0
  -29.4710  -12.5870   18.1530 C   0  0  0  0  0  2  0  0  0  0  0  0
  -27.9930  -12.4120   18.5560 C   0  0  0  0  0  2  0  0  0  0  0  0
  -27.6120  -13.2770   19.7860 C   0  0  0  0  0  3  0  0  0  0  0  0
  -28.6510  -13.1320   20.9180 C   0  0  0  0  0  2  0  0  0  0  0  0
  -29.9710  -13.4710   20.3700 N   0  0  0  0  0  0  0  0  0  0  0  0
  -31.7370  -14.8540   20.0920 O   0  0  0  0  0  0  0  0  0  0  0  0
  -25.2120  -13.8920   20.4620 C   0  0  0  0  0  0  0  0  0  0  0  0
  -24.1360  -13.1260   20.8220 C   0  0  0  0  0  0  0  0  0  0  0  0
  -24.5970  -11.7750   20.8170 C   0  0  0  0  0  0  0  0  0  0  0  0
  -26.2570  -13.0050   20.2530 N   0  0  0  0  0  0  0  0  0  0  0  0
  -25.8930  -11.7280   20.5310 N   0  0  0  0  0  0  0  0  0  0  0  0
  -23.8670  -10.5150   21.0100 C   0  0  0  0  0  0  0  0  0  0  0  0
  -24.2850   -9.5560   21.9580 C   0  0  0  0  0  3  0  0  0  0  0  0
  -23.5550   -8.3610   22.1360 C   0  0  0  0  0  3  0  0  0  0  0  0
  -22.3940   -8.1170   21.3650 C   0  0  0  0  0  0  0  0  0  0  0  0
  -21.9960   -9.0650   20.4060 C   0  0  0  0  0  3  0  0  0  0  0  0
  -22.7260  -10.2530   20.2260 C   0  0  0  0  0  3  0  0  0  0  0  0
  -21.6370   -6.9730   21.4520 O   0  0  0  0  0  0  0  0  0  0  0  0
  -21.5730   -6.2400   22.6090 C   0  0  0  0  0  0  0  0  0  0  0  0
  -21.1320   -6.8050   23.8260 C   0  0  0  0  0  3  0  0  0  0  0  0
  -21.0140   -5.9980   24.9760 C   0  0  0  0  0  3  0  0  0  0  0  0
  -21.3280   -4.6280   24.9090 C   0  0  0  0  0  0  0  0  0  0  0  0
  -21.7620   -4.0620   23.6980 C   0  0  0  0  0  3  0  0  0  0  0  0
  -21.8820   -4.8650   22.5510 C   0  0  0  0  0  0  0  0  0  0  0  0
  -22.2810   -4.3100   21.3810 F   0  0  0  0  0  0  0  0  0  0  0  0
  -21.2070   -3.8520   26.0120 F   0  0  0  0  0  0  0  0  0  0  0  0
  -22.7350  -13.6090   21.0590 C   0  0  0  0  0  0  0  0  0  0  0  0
  -21.9900  -12.9240   21.9210 N   0  0  0  0  0  0  0  0  0  0  0  0
  -22.3080  -14.6260   20.5170 O   0  0  0  0  0  0  0  0  0  0  0  0
  -22.3460  -12.1010   22.3820 H   0  0  0  0  0  0  0  0  0  0  0  0
  -21.0480  -13.2300   22.1220 H   0  0  0  0  0  0  0  0  0  0  0  0
  -25.3850  -15.2610   20.2740 N   0  0  0  0  0  0  0  0  0  0  0  0
  -24.6270  -15.9270   20.3740 H   0  0  0  0  0  0  0  0  0  0  0  0
  -26.2470  -15.6900   19.9590 H   0  0  0  0  0  0  0  0  0  0  0  0
  -28.3700  -26.4990   20.1610 O   0  0  0  0  0  0  0  0  0  0  0  0
  -24.6420  -31.8730   23.2230 C   0  0  0  0  0  0  0  0  0  0  0  0
  -27.2200  -27.3100   20.1240 C   0  0  0  0  0  0  0  0  0  0  0  0
  -23.4200  -30.4770   21.5930 C   0  0  0  0  0  3  0  0  0  0  0  0
  -24.8520  -28.9280   20.1470 C   0  0  0  0  0  0  0  0  0  0  0  0
  -25.9570  -30.7930   21.3820 C   0  0  0  0  0  2  0  0  0  0  0  0
  -26.0280  -29.4170   20.7280 C   0  0  0  0  0  0  0  0  0  0  0  0
  -27.2120  -28.6190   20.7040 C   0  0  0  0  0  3  0  0  0  0  0  0
  -26.0110  -26.8720   19.5340 C   0  0  0  0  0  3  0  0  0  0  0  0
  -24.8460  -27.6620   19.5440 C   0  0  0  0  0  3  0  0  0  0  0  0
  -23.6160  -29.8040   20.2110 C   0  0  0  0  0  2  0  0  0  0  0  0
  -24.6920  -31.0650   22.1220 N   0  0  0  0  0  0  0  0  0  0  0  0
  -23.5650  -32.1500   23.7690 O   0  0  0  0  0  0  0  0  0  0  0  0
  -22.7660  -29.4590   22.5580 C   0  0  0  0  0  0  0  0  0  0  0  0
  -21.4400  -29.2790   22.4420 N   0  0  0  0  0  0  0  0  0  0  0  0
  -23.4520  -28.8350   23.3720 O   0  0  0  0  0  0  0  0  0  0  0  0
  -20.9440  -29.8350   21.7580 H   0  0  0  0  0  0  0  0  0  0  0  0
  -18.0700  -28.0700   22.9600 C   0  0  0  0  0  0  0  0  0  0  0  0
  -20.6280  -28.3400   23.2180 C   0  0  0  0  0  3  0  0  0  0  0  0
  -20.7340  -26.9090   22.6460 C   0  0  0  0  0  2  0  0  0  0  0  0
  -19.6290  -26.5780   21.6370 C   0  0  0  0  0  2  0  0  0  0  0  0
  -18.2480  -26.7200   22.2860 C   0  0  0  0  0  2  0  0  0  0  0  0
  -19.1870  -28.8380   23.3820 C   0  0  0  0  0  0  0  0  0  0  0  0
  -18.9660  -30.1030   23.9710 C   0  0  0  0  0  3  0  0  0  0  0  0
  -17.6600  -30.5980   24.1430 C   0  0  0  0  0  3  0  0  0  0  0  0
  -16.5570  -29.8260   23.7370 C   0  0  0  0  0  3  0  0  0  0  0  0
  -16.7630  -28.5650   23.1510 C   0  0  0  0  0  3  0  0  0  0  0  0
  -25.9320  -32.5020   23.8320 C   0  0  0  0  0  3  0  0  0  0  0  0
  -26.4660  -31.7230   25.0960 C   0  0  1  0  0  0  0  0  0  0  0  0
  -25.3880  -31.4760   26.1770 C   0  0  0  0  0  1  0  0  0  0  0  0
  -27.0460  -30.3480   24.6880 C   0  0  0  0  0  1  0  0  0  0  0  0
  -27.6250  -32.5130   25.7490 C   0  0  0  0  0  1  0  0  0  0  0  0
  -25.6230  -33.8980   24.1790 N   0  0  0  0  0  0  0  0  0  0  0  0
  -25.9350  -34.9590   23.4230 C   0  0  0  0  0  0  0  0  0  0  0  0
  -26.5830  -34.8670   22.3770 O   0  0  0  0  0  0  0  0  0  0  0  0
  -25.0450  -34.0440   24.9940 H   0  0  0  0  0  0  0  0  0  0  0  0
  -24.1890  -36.7450   23.1260 C   0  0  0  0  0  1  0  0  0  0  0  0
  -25.4520  -36.3420   23.9030 C   0  0  0  0  0  3  0  0  0  0  0  0
  -27.6010  -37.2310   24.6880 C   0  0  0  0  0  1  0  0  0  0  0  0
  -26.4760  -37.4010   23.7730 N   0  0  0  0  0  0  0  0  0  0  0  0
  -26.0690  -38.3180   23.9400 H   0  0  0  0  0  0  0  0  0  0  0  0
  1  2  1  0
  1  4  1  0
  2  5  1  0
  4  6  1  0
  4  3  1  0
  5 49  1  0
  5  3  1  0
  6  7  1  0
  7  9  1  0
  7 10  1  0
  8  6  2  0
 11 10  2  0
 11 12  1  0
 13 12  1  0
 14 19  1  0
 15 16  1  0
 15 14  1  0
 17 16  1  0
 17 24  1  0
 17 18  1  0
 19 13  1  0
 19 18  1  0
 20 13  2  0
 21 22  2  0
 22 41  1  0
 23 22  1  0
 23 26  1  0
 24 21  1  0
 24 25  1  0
 25 23  2  0
 26 27  1  0
 27 28  2  0
 29 32  1  0
 29 28  1  0
 30 29  2  0
 31 30  1  0
 31 26  2  0
 32 33  1  0
 33 34  1  0
 34 35  2  0
 36 35  1  0
 36 40  1  0
 37 36  2  0
 38 33  2  0
 38 37  1  0
 39 38  1  0
 41 42  1  0
 42 45  1  0
 42 44  1  0
 43 41  2  0
 46 47  1  0
 46 21  1  0
 48 46  1  0
 50 61  2  0
 51 49  1  0
 51 56  1  0
 52 60  1  0
 52 62  1  0
 53 59  1  0
 53 55  1  0
 54 60  1  0
 55 54  1  0
 56 55  2  0
 57 58  1  0
 57 51  2  0
 58 53  2  0
 59 52  1  0
 60 50  1  0
 62 64  2  0
 63 62  1  0
 65 63  1  0
 66 75  2  0
 66 71  1  0
 67 63  1  0
 67 71  1  0
 68 67  1  0
 69 70  1  0
 69 68  1  0
 70 66  1  0
 71 72  2  0
 72 73  1  0
 74 73  2  0
 75 74  1  0
 76 50  1  0
 76 81  1  0
 76 77  1  0
 77 80  1  1
 77 78  1  0
 79 77  1  0
 81 84  1  0
 82 86  1  0
 82 81  1  0
 83 82  2  0
 86 85  1  0
 88 86  1  0
 88 89  1  0
 88 87  1  0
M  ISO  4   5 101  12 100  13 100  49 101
M  END
>  <TORSDO>  (43) 
F 20

>  <SCORE>  (43) 
-13.533

>  <name>  (43) 
42

>  <ligand_id>  (43) 
42

>  <original_smiles>  (43) 
[H]c1c([H])c([H])c2c(c1[H])C([H])([H])C([H])([H])C([H])([H])C2([H])N([H])C(=O)C1([H])N(C(=O)C([H])(N([H])C(=O)C([H])(N([H])C([H])([H])[H])C([H])([H])[H])C(C([H])([H])[H])(C([H])([H])[H])C([H])([H])[H])C([H])([H])c2c([H])c(OC3([H])C([H])([H])C([H])([H])C([H])(C(=O)N([H])C([H])([H])C([H])([H])C([H])([H])C(=O)N4C([H])([H])C([H])([H])C([H])([H])C([H])(n5nc(-c6c([H])c([H])c(Oc7c([H])c([H])c(F)c([H])c7F)c([H])c6[H])c(C(=O)N([H])[H])c5N([H])[H])C4([H])[H])C3([H])[H])c([H])c([H])c2C1([H])[H]

>  <smiles>  (43) 
[H]c1c([H])c([H])c2c(c1[H])C([H])([H])C([H])([H])C([H])([H])C2([H])N([H])C(=O)C1([H])N(C(=O)C([H])(N([H])C(=O)C([H])(N([H])C([H])([H])[H])C([H])([H])[H])C(C([H])([H])[H])(C([H])([H])[H])C([H])([H])[H])C([H])([H])c2c([H])c(OC3([H])C([H])([H])C([H])([H])C([H])(C(=O)N([H])C([H])([H])C([H])([H])C([H])([H])C(=O)N4C([H])([H])C([H])([H])C([H])([H])C([H])(n5nc(-c6c([H])c([H])c(Oc7c([H])c([H])c(F)c([H])c7F)c([H])c6[H])c(C(=O)N([H])[H])c5N([H])[H])C4([H])[H])C3([H])[H])c([H])c([H])c2C1([H])[H]

$$$$
43:0:0
     RDKit          3D

 91 99  0  0  1  0  0  0  0  0999 V2000
  -29.4970  -20.7670   18.7210 N   0  0  0  0  0  0  0  0  0  0  0  0
  -28.8870  -20.8490   17.9090 H   0  0  0  0  0  0  0  0  0  0  0  0
  -28.7320  -18.4770   19.6840 C   0  0  0  0  0  2  0  0  0  0  0  0
  -29.7640  -19.3440   18.9900 C   0  0  0  0  0  3  0  0  0  0  0  0
  -30.0380  -18.7970   20.3880 C   0  0  0  0  0  3  0  0  0  0  0  0
  -31.0870  -17.7380   20.3830 N   0  0  0  0  0  4  0  0  0  0  0  0
  -31.9710  -18.2250   20.4190 H   0  0  0  0  0  0  0  0  0  0  0  0
  -31.0980  -17.2200   19.5190 H   0  0  0  0  0  0  0  0  0  0  0  0
  -31.0940  -16.8040   21.5420 C   0  0  0  0  0  2  0  0  0  0  0  0
  -30.1900  -15.5400   21.4040 C   0  0  0  0  0  2  0  0  0  0  0  0
  -30.7230  -14.4520   20.4430 C   0  0  0  0  0  0  0  0  0  0  0  0
  -30.3460  -12.3840   19.1370 C   0  0  0  0  0  2  0  0  0  0  0  0
  -29.3590  -12.6400   17.9800 C   0  0  0  0  0  2  0  0  0  0  0  0
  -27.9040  -12.4850   18.4560 C   0  0  0  0  0  2  0  0  0  0  0  0
  -27.6150  -13.2760   19.7570 C   0  0  0  0  0  3  0  0  0  0  0  0
  -28.7030  -13.0020   20.8240 C   0  0  0  0  0  2  0  0  0  0  0  0
  -30.0150  -13.3090   20.2340 N   0  0  0  0  0  0  0  0  0  0  0  0
  -31.7710  -14.6860   19.8360 O   0  0  0  0  0  0  0  0  0  0  0  0
  -25.2260  -13.8740   20.5160 C   0  0  0  0  0  0  0  0  0  0  0  0
  -24.1650  -13.0950   20.8930 C   0  0  0  0  0  0  0  0  0  0  0  0
  -24.6300  -11.7450   20.8430 C   0  0  0  0  0  0  0  0  0  0  0  0
  -26.2700  -12.9990   20.2610 N   0  0  0  0  0  0  0  0  0  0  0  0
  -25.9150  -11.7120   20.5140 N   0  0  0  0  0  0  0  0  0  0  0  0
  -23.9090  -10.4780   21.0370 C   0  0  0  0  0  0  0  0  0  0  0  0
  -24.3590   -9.5050   21.9560 C   0  0  0  0  0  3  0  0  0  0  0  0
  -23.6390   -8.3050   22.1400 C   0  0  0  0  0  3  0  0  0  0  0  0
  -22.4530   -8.0680   21.4000 C   0  0  0  0  0  0  0  0  0  0  0  0
  -22.0240   -9.0310   20.4720 C   0  0  0  0  0  3  0  0  0  0  0  0
  -22.7450  -10.2220   20.2870 C   0  0  0  0  0  3  0  0  0  0  0  0
  -21.7010   -6.9220   21.4930 O   0  0  0  0  0  0  0  0  0  0  0  0
  -21.6730   -6.1690   22.6380 C   0  0  0  0  0  0  0  0  0  0  0  0
  -21.2610   -6.7130   23.8740 C   0  0  0  0  0  3  0  0  0  0  0  0
  -21.1780   -5.8890   25.0130 C   0  0  0  0  0  3  0  0  0  0  0  0
  -21.4950   -4.5210   24.9210 C   0  0  0  0  0  0  0  0  0  0  0  0
  -21.9020   -3.9760   23.6910 C   0  0  0  0  0  3  0  0  0  0  0  0
  -21.9880   -4.7970   22.5530 C   0  0  0  0  0  0  0  0  0  0  0  0
  -22.3560   -4.2600   21.3640 F   0  0  0  0  0  0  0  0  0  0  0  0
  -21.4090   -3.7320   26.0160 F   0  0  0  0  0  0  0  0  0  0  0  0
  -22.7700  -13.5640   21.1910 C   0  0  0  0  0  0  0  0  0  0  0  0
  -22.0590  -12.8580   22.0650 N   0  0  0  0  0  0  0  0  0  0  0  0
  -22.3210  -14.5890   20.6860 O   0  0  0  0  0  0  0  0  0  0  0  0
  -22.4350  -12.0270   22.4970 H   0  0  0  0  0  0  0  0  0  0  0  0
  -21.1230  -13.1520   22.3030 H   0  0  0  0  0  0  0  0  0  0  0  0
  -25.3830  -15.2480   20.3440 N   0  0  0  0  0  0  0  0  0  0  0  0
  -24.6170  -15.9020   20.4670 H   0  0  0  0  0  0  0  0  0  0  0  0
  -26.2250  -15.6940   20.0060 H   0  0  0  0  0  0  0  0  0  0  0  0
  -29.0150  -21.6760   19.7650 C   0  0  0  0  0  2  0  0  0  0  0  0
  -28.8380  -23.0720   19.1070 C   0  0  0  0  0  2  0  0  0  0  0  0
  -28.5020  -24.2590   20.0430 C   0  0  0  0  0  2  0  0  0  0  0  0
  -28.6510  -25.6260   19.3220 C   0  0  0  0  0  2  0  0  0  0  0  0
  -28.4340  -26.7520   20.1830 O   0  0  0  0  0  0  0  0  0  0  0  0
  -24.5690  -31.8870   23.2340 C   0  0  0  0  0  0  0  0  0  0  0  0
  -27.2300  -27.4330   20.1670 C   0  0  0  0  0  0  0  0  0  0  0  0
  -23.3680  -30.4800   21.5900 C   0  0  0  0  0  3  0  0  0  0  0  0
  -24.8260  -28.9360   20.1770 C   0  0  0  0  0  0  0  0  0  0  0  0
  -25.8950  -30.8350   21.4040 C   0  0  0  0  0  2  0  0  0  0  0  0
  -25.9800  -29.4620   20.7700 C   0  0  0  0  0  0  0  0  0  0  0  0
  -27.1790  -28.7130   20.7670 C   0  0  0  0  0  3  0  0  0  0  0  0
  -26.0480  -26.9120   19.5900 C   0  0  0  0  0  3  0  0  0  0  0  0
  -24.8550  -27.6590   19.5880 C   0  0  0  0  0  3  0  0  0  0  0  0
  -23.5810  -29.7930   20.2160 C   0  0  0  0  0  2  0  0  0  0  0  0
  -24.6290  -31.0840   22.1340 N   0  0  0  0  0  0  0  0  0  0  0  0
  -23.4860  -32.1620   23.7690 O   0  0  0  0  0  0  0  0  0  0  0  0
  -22.7130  -29.4630   22.5530 C   0  0  0  0  0  0  0  0  0  0  0  0
  -21.3890  -29.2830   22.4200 N   0  0  0  0  0  0  0  0  0  0  0  0
  -23.3920  -28.8390   23.3720 O   0  0  0  0  0  0  0  0  0  0  0  0
  -20.9010  -29.8410   21.7330 H   0  0  0  0  0  0  0  0  0  0  0  0
  -18.0110  -28.1020   22.9040 C   0  0  0  0  0  0  0  0  0  0  0  0
  -20.5670  -28.3480   23.1870 C   0  0  0  0  0  3  0  0  0  0  0  0
  -20.6660  -26.9170   22.6100 C   0  0  0  0  0  2  0  0  0  0  0  0
  -19.5680  -26.5990   21.5920 C   0  0  0  0  0  2  0  0  0  0  0  0
  -18.1840  -26.7500   22.2300 C   0  0  0  0  0  2  0  0  0  0  0  0
  -19.1310  -28.8590   23.3380 C   0  0  0  0  0  0  0  0  0  0  0  0
  -18.9170  -30.1250   23.9240 C   0  0  0  0  0  3  0  0  0  0  0  0
  -17.6130  -30.6330   24.0840 C   0  0  0  0  0  3  0  0  0  0  0  0
  -16.5060  -29.8720   23.6680 C   0  0  0  0  0  3  0  0  0  0  0  0
  -16.7060  -28.6080   23.0820 C   0  0  0  0  0  3  0  0  0  0  0  0
  -25.8550  -32.5180   23.8580 C   0  0  0  0  0  3  0  0  0  0  0  0
  -25.5490  -33.9180   24.1760 N   0  0  0  0  0  0  0  0  0  0  0  0
  -25.8940  -34.9640   23.4130 C   0  0  0  0  0  0  0  0  0  0  0  0
  -26.5740  -34.8520   22.3900 O   0  0  0  0  0  0  0  0  0  0  0  0
  -24.9430  -34.0800   24.9670 H   0  0  0  0  0  0  0  0  0  0  0  0
  -24.1780  -36.7630   23.0250 C   0  0  0  0  0  1  0  0  0  0  0  0
  -25.4060  -36.3570   23.8570 C   0  0  0  0  0  3  0  0  0  0  0  0
  -27.5310  -37.2370   24.7140 C   0  0  0  0  0  1  0  0  0  0  0  0
  -26.4450  -37.4040   23.7540 N   0  0  0  0  0  0  0  0  0  0  0  0
  -26.0400  -38.3270   23.8910 H   0  0  0  0  0  0  0  0  0  0  0  0
  -26.3650  -31.7510   25.1390 C   0  0  1  0  0  0  0  0  0  0  0  0
  -25.2680  -31.5180   26.2030 C   0  0  0  0  0  1  0  0  0  0  0  0
  -26.9460  -30.3700   24.7540 C   0  0  0  0  0  1  0  0  0  0  0  0
  -27.5130  -32.5440   25.8030 C   0  0  0  0  0  1  0  0  0  0  0  0
  1 47  1  0
  2  1  1  0
  3  5  1  0
  4  1  1  0
  4  3  1  0
  4  5  1  0
  5  6  1  0
  6  7  1  0
  6  9  1  0
  8  6  1  0
 10  9  1  0
 11 10  1  0
 12 17  1  0
 13 14  1  0
 13 12  1  0
 15 14  1  0
 15 22  1  0
 15 16  1  0
 17 11  1  0
 17 16  1  0
 18 11  2  0
 19 20  2  0
 20 39  1  0
 21 20  1  0
 21 24  1  0
 22 23  1  0
 22 19  1  0
 23 21  2  0
 24 25  1  0
 25 26  2  0
 27 30  1  0
 27 26  1  0
 28 27  2  0
 29 28  1  0
 29 24  2  0
 30 31  1  0
 31 32  1  0
 32 33  2  0
 34 33  1  0
 34 38  1  0
 35 34  2  0
 36 31  2  0
 36 35  1  0
 37 36  1  0
 39 40  1  0
 40 43  1  0
 40 42  1  0
 41 39  2  0
 44 45  1  0
 44 19  1  0
 46 44  1  0
 48 47  1  0
 48 49  1  0
 50 49  1  0
 50 51  1  0
 52 63  2  0
 53 51  1  0
 53 58  1  0
 54 62  1  0
 54 64  1  0
 55 61  1  0
 55 57  1  0
 56 62  1  0
 57 56  1  0
 58 57  2  0
 59 53  2  0
 60 59  1  0
 60 55  2  0
 61 54  1  0
 62 52  1  0
 64 66  2  0
 65 64  1  0
 67 65  1  0
 68 77  2  0
 68 73  1  0
 69 65  1  0
 69 73  1  0
 70 69  1  0
 71 72  1  0
 71 70  1  0
 72 68  1  0
 73 74  2  0
 74 75  1  0
 76 75  2  0
 77 76  1  0
 78 52  1  0
 78 79  1  0
 78 88  1  0
 79 82  1  0
 80 84  1  0
 80 79  1  0
 81 80  2  0
 84 83  1  0
 86 84  1  0
 86 87  1  0
 86 85  1  0
 88 91  1  1
 88 89  1  0
 90 88  1  0
M  ISO  4  10 100  11 100  50 101  51 101
M  END
>  <TORSDO>  (44) 
F 24

>  <SCORE>  (44) 
-12.472

>  <name>  (44) 
43

>  <ligand_id>  (44) 
43

>  <original_smiles>  (44) 
[H]c1c([H])c([H])c2c(c1[H])C([H])([H])C([H])([H])C([H])([H])C2([H])N([H])C(=O)C1([H])N(C(=O)C([H])(N([H])C(=O)C([H])(N([H])C([H])([H])[H])C([H])([H])[H])C(C([H])([H])[H])(C([H])([H])[H])C([H])([H])[H])C([H])([H])c2c([H])c(OC([H])([H])C([H])([H])C([H])([H])C([H])([H])N([H])C3([H])C([H])([H])C3([H])[N+]([H])([H])C([H])([H])C([H])([H])C(=O)N3C([H])([H])C([H])([H])C([H])([H])C([H])(n4nc(-c5c([H])c([H])c(Oc6c([H])c([H])c(F)c([H])c6F)c([H])c5[H])c(C(=O)N([H])[H])c4N([H])[H])C3([H])[H])c([H])c([H])c2C1([H])[H]

>  <smiles>  (44) 
[H]c1c([H])c([H])c2c(c1[H])C([H])([H])C([H])([H])C([H])([H])C2([H])N([H])C(=O)C1([H])N(C(=O)C([H])(N([H])C(=O)C([H])(N([H])C([H])([H])[H])C([H])([H])[H])C(C([H])([H])[H])(C([H])([H])[H])C([H])([H])[H])C([H])([H])c2c([H])c(OC([H])([H])C([H])([H])C([H])([H])C([H])([H])N([H])C3([H])C([H])([H])C3([H])[N+]([H])([H])C([H])([H])C([H])([H])C(=O)N3C([H])([H])C([H])([H])C([H])([H])C([H])(n4nc(-c5c([H])c([H])c(Oc6c([H])c([H])c(F)c([H])c6F)c([H])c5[H])c(C(=O)N([H])[H])c4N([H])[H])C3([H])[H])c([H])c([H])c2C1([H])[H]

$$$$
44:0:0
     RDKit          3D

 86 94  0  0  1  0  0  0  0  0999 V2000
  -29.7260  -22.2070   21.4870 C   0  0  0  0  0  2  0  0  0  0  0  0
  -28.8170  -20.9780   21.2420 C   0  0  0  0  0  3  0  0  0  0  0  0
  -29.6390  -22.5860   20.0120 C   0  0  0  0  0  3  0  0  0  0  0  0
  -27.2900  -21.0910   21.2520 C   0  0  0  0  0  1  0  0  0  0  0  0
  -29.3570  -20.8370   19.8860 N   0  0  1  0  0  4  0  0  0  0  0  0
  -28.6170  -20.7050   19.2160 H   0  0  0  0  0  0  0  0  0  0  0  0
  -28.6720  -24.2210   19.6900 C   0  0  0  0  0  2  0  0  0  0  0  0
  -28.7730  -25.9380   20.0040 O   0  0  0  0  0  0  0  0  0  0  0  0
  -24.9670  -31.8270   23.2750 C   0  0  0  0  0  0  0  0  0  0  0  0
  -27.7490  -27.0940   20.0040 C   0  0  0  0  0  0  0  0  0  0  0  0
  -23.8700  -30.5120   21.5070 C   0  0  0  0  0  3  0  0  0  0  0  0
  -25.4100  -29.0220   20.0270 C   0  0  0  0  0  0  0  0  0  0  0  0
  -26.4440  -30.7540   21.4750 C   0  0  0  0  0  2  0  0  0  0  0  0
  -26.5750  -29.3820   20.7150 C   0  0  0  0  0  0  0  0  0  0  0  0
  -27.7320  -28.4480   20.6690 C   0  0  0  0  0  3  0  0  0  0  0  0
  -26.5430  -26.9310   19.2780 C   0  0  0  0  0  3  0  0  0  0  0  0
  -25.4320  -27.8260   19.2860 C   0  0  0  0  0  3  0  0  0  0  0  0
  -24.1690  -29.9200   20.1010 C   0  0  0  0  0  2  0  0  0  0  0  0
  -25.1140  -31.0620   22.1400 N   0  0  0  0  0  0  0  0  0  0  0  0
  -23.8520  -32.0610   23.7710 O   0  0  0  0  0  0  0  0  0  0  0  0
  -23.1570  -29.4510   22.3890 C   0  0  0  0  0  0  0  0  0  0  0  0
  -21.8310  -29.2810   22.2240 N   0  0  0  0  0  0  0  0  0  0  0  0
  -23.8100  -28.7810   23.1920 O   0  0  0  0  0  0  0  0  0  0  0  0
  -21.3550  -29.8760   21.5600 H   0  0  0  0  0  0  0  0  0  0  0  0
  -18.4490  -28.0100   22.6330 C   0  0  0  0  0  0  0  0  0  0  0  0
  -21.0090  -28.2720   22.9050 C   0  0  0  0  0  3  0  0  0  0  0  0
  -21.1150  -26.9000   22.1970 C   0  0  0  0  0  2  0  0  0  0  0  0
  -20.0110  -26.6710   21.1610 C   0  0  0  0  0  2  0  0  0  0  0  0
  -18.6320  -26.7380   21.8230 C   0  0  0  0  0  2  0  0  0  0  0  0
  -19.5650  -28.7380   23.1270 C   0  0  0  0  0  0  0  0  0  0  0  0
  -19.3380  -29.9290   23.8510 C   0  0  0  0  0  3  0  0  0  0  0  0
  -18.0290  -30.3920   24.0840 C   0  0  0  0  0  3  0  0  0  0  0  0
  -16.9290  -29.6630   23.6000 C   0  0  0  0  0  3  0  0  0  0  0  0
  -17.1390  -28.4740   22.8820 C   0  0  0  0  0  3  0  0  0  0  0  0
  -26.1920  -32.4660   23.9990 C   0  0  0  0  0  3  0  0  0  0  0  0
  -26.6340  -31.6650   25.2860 C   0  0  1  0  0  0  0  0  0  0  0  0
  -25.4790  -31.3940   26.2780 C   0  0  0  0  0  1  0  0  0  0  0  0
  -27.2520  -30.2970   24.9150 C   0  0  0  0  0  1  0  0  0  0  0  0
  -27.7400  -32.4470   26.0320 C   0  0  0  0  0  1  0  0  0  0  0  0
  -25.8380  -33.8510   24.3670 N   0  0  0  0  0  0  0  0  0  0  0  0
  -26.1650  -34.9440   23.6650 C   0  0  0  0  0  0  0  0  0  0  0  0
  -26.8520  -34.8920   22.6420 O   0  0  0  0  0  0  0  0  0  0  0  0
  -25.2190  -33.9630   25.1560 H   0  0  0  0  0  0  0  0  0  0  0  0
  -24.3960  -36.7190   23.3920 C   0  0  0  0  0  1  0  0  0  0  0  0
  -25.6530  -36.3090   24.1730 C   0  0  0  0  0  3  0  0  0  0  0  0
  -27.7680  -37.2260   25.0240 C   0  0  0  0  0  1  0  0  0  0  0  0
  -26.6640  -37.3870   24.0830 N   0  0  0  0  0  0  0  0  0  0  0  0
  -26.2370  -38.2950   24.2490 H   0  0  0  0  0  0  0  0  0  0  0  0
  -30.3330  -19.3870   19.8010 C   0  0  0  0  0  3  0  0  0  0  0  0
  -30.0340  -17.5230   20.0700 C   0  0  0  0  0  3  0  0  0  0  0  0
  -30.8930  -15.8990   19.9010 C   0  0  0  0  0  0  0  0  0  0  0  0
  -30.9880  -13.3400   19.1730 C   0  0  0  0  0  2  0  0  0  0  0  0
  -30.0590  -12.9770   17.9770 C   0  0  0  0  0  2  0  0  0  0  0  0
  -28.6410  -12.6520   18.4700 C   0  0  0  0  0  2  0  0  0  0  0  0
  -28.1650  -13.6770   19.5230 C   0  0  0  0  0  3  0  0  0  0  0  0
  -29.2220  -13.9540   20.6150 C   0  0  0  0  0  2  0  0  0  0  0  0
  -30.4130  -14.5260   19.9450 N   0  0  0  0  0  0  0  0  0  0  0  0
  -32.1060  -15.8720   19.6230 O   0  0  0  0  0  0  0  0  0  0  0  0
  -25.8390  -14.2350   20.3900 C   0  0  0  0  0  0  0  0  0  0  0  0
  -24.7800  -13.4610   20.7740 C   0  0  0  0  0  0  0  0  0  0  0  0
  -25.2270  -12.1070   20.6870 C   0  0  0  0  0  0  0  0  0  0  0  0
  -26.8570  -13.3540   20.0780 N   0  0  0  0  0  0  0  0  0  0  0  0
  -26.5060  -12.0640   20.3240 N   0  0  0  0  0  0  0  0  0  0  0  0
  -24.4870  -10.8490   20.8670 C   0  0  0  0  0  0  0  0  0  0  0  0
  -24.8650   -9.9020   21.8450 C   0  0  0  0  0  3  0  0  0  0  0  0
  -24.1250   -8.7120   22.0130 C   0  0  0  0  0  3  0  0  0  0  0  0
  -22.9940   -8.4580   21.2020 C   0  0  0  0  0  0  0  0  0  0  0  0
  -22.6350   -9.3930   20.2150 C   0  0  0  0  0  3  0  0  0  0  0  0
  -23.3740  -10.5760   20.0460 C   0  0  0  0  0  3  0  0  0  0  0  0
  -22.2320   -7.3180   21.2760 O   0  0  0  0  0  0  0  0  0  0  0  0
  -22.0150   -6.6730   22.4680 C   0  0  0  0  0  0  0  0  0  0  0  0
  -21.3990   -7.3170   23.5620 C   0  0  0  0  0  3  0  0  0  0  0  0
  -21.1340   -6.5970   24.7450 C   0  0  0  0  0  3  0  0  0  0  0  0
  -21.4730   -5.2340   24.8320 C   0  0  0  0  0  0  0  0  0  0  0  0
  -22.0820   -4.5890   23.7400 C   0  0  0  0  0  3  0  0  0  0  0  0
  -22.3490   -5.3070   22.5610 C   0  0  0  0  0  0  0  0  0  0  0  0
  -22.9170   -4.6750   21.5040 F   0  0  0  0  0  0  0  0  0  0  0  0
  -21.2110   -4.5390   25.9650 F   0  0  0  0  0  0  0  0  0  0  0  0
  -23.4010  -13.9510   21.1050 C   0  0  0  0  0  0  0  0  0  0  0  0
  -22.6940  -13.2520   21.9860 N   0  0  0  0  0  0  0  0  0  0  0  0
  -22.9610  -14.9920   20.6190 O   0  0  0  0  0  0  0  0  0  0  0  0
  -23.0610  -12.4080   22.4010 H   0  0  0  0  0  0  0  0  0  0  0  0
  -21.7710  -13.5670   22.2500 H   0  0  0  0  0  0  0  0  0  0  0  0
  -26.0210  -15.6060   20.2460 N   0  0  0  0  0  0  0  0  0  0  0  0
  -25.2810  -16.2780   20.4140 H   0  0  0  0  0  0  0  0  0  0  0  0
  -26.8730  -16.0320   19.9020 H   0  0  0  0  0  0  0  0  0  0  0  0
  2  4  1  0
  2  1  1  0
  3  7  1  0
  3  1  1  0
  5  3  1  0
  5  2  1  0
  5  6  1  6
  7  8  1  0
  9 20  2  0
 10  8  1  0
 10 15  1  0
 11 19  1  0
 11 21  1  0
 12 18  1  0
 12 14  1  0
 13 19  1  0
 14 13  1  0
 15 14  2  0
 16 17  1  0
 16 10  2  0
 17 12  2  0
 18 11  1  0
 19  9  1  0
 21 23  2  0
 22 21  1  0
 24 22  1  0
 25 34  2  0
 25 30  1  0
 26 22  1  0
 26 30  1  0
 27 26  1  0
 28 29  1  0
 28 27  1  0
 29 25  1  0
 30 31  2  0
 31 32  1  0
 33 32  2  0
 34 33  1  0
 35  9  1  0
 35 40  1  0
 35 36  1  0
 36 39  1  1
 36 37  1  0
 38 36  1  0
 40 43  1  0
 41 45  1  0
 41 40  1  0
 42 41  2  0
 45 44  1  0
 47 45  1  0
 47 48  1  0
 47 46  1  0
 49  5  1  0
 49 50  2  0
 51 57  1  0
 51 50  1  0
 52 57  1  0
 53 54  1  0
 53 52  1  0
 55 54  1  0
 55 62  1  0
 55 56  1  0
 57 56  1  0
 58 51  2  0
 59 60  2  0
 60 79  1  0
 61 60  1  0
 61 64  1  0
 62 63  1  0
 62 59  1  0
 63 61  2  0
 64 65  1  0
 65 66  2  0
 67 70  1  0
 67 66  1  0
 68 67  2  0
 69 68  1  0
 69 64  2  0
 70 71  1  0
 71 76  2  0
 71 72  1  0
 72 73  2  0
 73 74  1  0
 74 78  1  0
 75 74  2  0
 76 75  1  0
 77 76  1  0
 79 80  1  0
 80 83  1  0
 80 82  1  0
 81 79  2  0
 84 59  1  0
 84 85  1  0
 86 84  1  0
M  ISO  4   7 101   8 101  50 100  51 100
M  END
>  <TORSDO>  (45) 
F 19

>  <SCORE>  (45) 
-13.942

>  <name>  (45) 
44

>  <ligand_id>  (45) 
44

>  <original_smiles>  (45) 
[H]c1c([H])c([H])c2c(c1[H])C([H])([H])C([H])([H])C([H])([H])C2([H])N([H])C(=O)C1([H])N(C(=O)C([H])(N([H])C(=O)C([H])(N([H])C([H])([H])[H])C([H])([H])[H])C(C([H])([H])[H])(C([H])([H])[H])C([H])([H])[H])C([H])([H])c2c([H])c(OC([H])([H])C3([H])C([H])([H])C([H])(C([H])([H])[H])[N+]3([H])C([H])([H])C([H])([H])C(=O)N3C([H])([H])C([H])([H])C([H])([H])C([H])(n4nc(-c5c([H])c([H])c(Oc6c([H])c([H])c(F)c([H])c6F)c([H])c5[H])c(C(=O)N([H])[H])c4N([H])[H])C3([H])[H])c([H])c([H])c2C1([H])[H]

>  <smiles>  (45) 
[H]c1c([H])c([H])c2c(c1[H])C([H])([H])C([H])([H])C([H])([H])C2([H])N([H])C(=O)C1([H])N(C(=O)C([H])(N([H])C(=O)C([H])(N([H])C([H])([H])[H])C([H])([H])[H])C(C([H])([H])[H])(C([H])([H])[H])C([H])([H])[H])C([H])([H])c2c([H])c(OC([H])([H])C3([H])C([H])([H])C([H])(C([H])([H])[H])[N+]3([H])C([H])([H])C([H])([H])C(=O)N3C([H])([H])C([H])([H])C([H])([H])C([H])(n4nc(-c5c([H])c([H])c(Oc6c([H])c([H])c(F)c([H])c6F)c([H])c5[H])c(C(=O)N([H])[H])c4N([H])[H])C3([H])[H])c([H])c([H])c2C1([H])[H]

$$$$
45:0:0
     RDKit          3D

 92100  0  0  1  0  0  0  0  0999 V2000
  -29.4810  -22.8500   22.8870 C   0  0  0  0  0  0  0  0  0  0  0  0
  -28.5120  -23.6500   23.3740 C   0  0  0  0  0  2  0  0  0  0  0  0
  -30.1870  -21.8410   23.7760 C   0  0  0  0  0  2  0  0  0  0  0  0
  -30.2650  -20.4570   23.1090 C   0  0  0  0  0  2  0  0  0  0  0  0
  -30.1450  -21.4480   20.8580 C   0  0  0  0  0  2  0  0  0  0  0  0
  -29.9930  -22.8720   21.4430 C   0  0  0  0  0  3  0  0  0  0  0  0
  -30.9060  -20.5580   21.7750 N   0  0  2  0  0  4  0  0  0  0  0  0
  -31.7800  -21.0350   21.9360 H   0  0  0  0  0  0  0  0  0  0  0  0
  -29.1230  -23.7200   20.5300 C   0  0  0  0  0  3  0  0  0  0  0  0
  -29.5350  -24.8390   19.9190 C   0  0  0  0  0  3  0  0  0  0  0  0
  -28.6600  -25.6870   19.0300 C   0  0  0  0  0  2  0  0  0  0  0  0
  -28.4540  -26.9440   19.6660 O   0  0  0  0  0  0  0  0  0  0  0  0
  -24.5510  -31.7380   23.1290 C   0  0  0  0  0  0  0  0  0  0  0  0
  -27.2130  -27.5380   19.7370 C   0  0  0  0  0  0  0  0  0  0  0  0
  -23.3270  -30.3830   21.4610 C   0  0  0  0  0  3  0  0  0  0  0  0
  -24.7690  -28.9510   19.9250 C   0  0  0  0  0  0  0  0  0  0  0  0
  -25.8360  -30.8150   21.2060 C   0  0  0  0  0  2  0  0  0  0  0  0
  -25.9290  -29.4800   20.4990 C   0  0  0  0  0  0  0  0  0  0  0  0
  -27.1480  -28.7790   20.4070 C   0  0  0  0  0  3  0  0  0  0  0  0
  -26.0250  -27.0060   19.1800 C   0  0  0  0  0  3  0  0  0  0  0  0
  -24.8100  -27.7090   19.2730 C   0  0  0  0  0  3  0  0  0  0  0  0
  -23.5050  -29.7690   20.0480 C   0  0  0  0  0  2  0  0  0  0  0  0
  -24.5900  -30.9910   21.9900 N   0  0  0  0  0  0  0  0  0  0  0  0
  -23.4810  -31.9580   23.7130 O   0  0  0  0  0  0  0  0  0  0  0  0
  -22.7340  -29.3020   22.3920 C   0  0  0  0  0  0  0  0  0  0  0  0
  -21.4180  -29.0630   22.2610 N   0  0  0  0  0  0  0  0  0  0  0  0
  -23.4510  -28.6800   23.1790 O   0  0  0  0  0  0  0  0  0  0  0  0
  -20.9010  -29.6170   21.5930 H   0  0  0  0  0  0  0  0  0  0  0  0
  -18.1110  -27.6810   22.6960 C   0  0  0  0  0  0  0  0  0  0  0  0
  -20.6490  -28.0650   23.0010 C   0  0  0  0  0  3  0  0  0  0  0  0
  -20.8330  -26.6560   22.3890 C   0  0  0  0  0  2  0  0  0  0  0  0
  -19.7580  -26.3010   21.3570 C   0  0  0  0  0  2  0  0  0  0  0  0
  -18.3650  -26.3590   21.9900 C   0  0  0  0  0  2  0  0  0  0  0  0
  -19.1830  -28.4890   23.1550 C   0  0  0  0  0  0  0  0  0  0  0  0
  -18.8930  -29.7270   23.7690 C   0  0  0  0  0  3  0  0  0  0  0  0
  -17.5630  -30.1560   23.9320 C   0  0  0  0  0  3  0  0  0  0  0  0
  -16.5040  -29.3430   23.4920 C   0  0  0  0  0  3  0  0  0  0  0  0
  -16.7790  -28.1060   22.8790 C   0  0  0  0  0  3  0  0  0  0  0  0
  -25.8420  -32.3670   23.7400 C   0  0  0  0  0  3  0  0  0  0  0  0
  -25.5270  -33.7550   24.1020 N   0  0  0  0  0  0  0  0  0  0  0  0
  -25.8580  -34.8250   23.3680 C   0  0  0  0  0  0  0  0  0  0  0  0
  -26.5340  -34.7490   22.3370 O   0  0  0  0  0  0  0  0  0  0  0  0
  -24.9260  -33.8870   24.9020 H   0  0  0  0  0  0  0  0  0  0  0  0
  -24.1240  -36.6170   23.0400 C   0  0  0  0  0  1  0  0  0  0  0  0
  -25.3600  -36.1990   23.8530 C   0  0  0  0  0  3  0  0  0  0  0  0
  -27.4820  -37.0760   24.7250 C   0  0  0  0  0  1  0  0  0  0  0  0
  -26.3870  -37.2600   23.7750 N   0  0  0  0  0  0  0  0  0  0  0  0
  -25.9760  -38.1740   23.9400 H   0  0  0  0  0  0  0  0  0  0  0  0
  -26.3890  -31.5730   24.9900 C   0  0  1  0  0  0  0  0  0  0  0  0
  -25.3140  -31.2910   26.0630 C   0  0  0  0  0  1  0  0  0  0  0  0
  -26.9880  -30.2150   24.5560 C   0  0  0  0  0  1  0  0  0  0  0  0
  -27.5360  -32.3690   25.6550 C   0  0  0  0  0  1  0  0  0  0  0  0
  -31.3300  -19.2590   21.1840 C   0  0  0  0  0  2  0  0  0  0  0  0
  -30.1750  -18.3080   20.7920 C   0  0  0  0  0  2  0  0  0  0  0  0
  -30.6510  -16.9860   20.1530 C   0  0  0  0  0  2  0  0  0  0  0  0
  -31.1880  -15.9240   21.1430 C   0  0  0  0  0  2  0  0  0  0  0  0
  -31.7290  -14.6800   20.3990 C   0  0  0  0  0  0  0  0  0  0  0  0
  -31.3380  -12.4940   19.3170 C   0  0  0  0  0  2  0  0  0  0  0  0
  -30.4100  -12.6780   18.0980 C   0  0  0  0  0  2  0  0  0  0  0  0
  -28.9270  -12.6350   18.5180 C   0  0  0  0  0  2  0  0  0  0  0  0
  -28.6280  -13.5550   19.7300 C   0  0  0  0  0  3  0  0  0  0  0  0
  -29.6540  -13.3140   20.8560 C   0  0  0  0  0  2  0  0  0  0  0  0
  -31.0000  -13.5360   20.3020 N   0  0  0  0  0  0  0  0  0  0  0  0
  -32.8240  -14.8050   19.8420 O   0  0  0  0  0  0  0  0  0  0  0  0
  -26.2970  -14.3510   20.4830 C   0  0  0  0  0  0  0  0  0  0  0  0
  -25.1640  -13.6600   20.8230 C   0  0  0  0  0  0  0  0  0  0  0  0
  -25.5000  -12.2750   20.7260 C   0  0  0  0  0  0  0  0  0  0  0  0
  -27.2570  -13.3890   20.2030 N   0  0  0  0  0  0  0  0  0  0  0  0
  -26.7790  -12.1330   20.4010 N   0  0  0  0  0  0  0  0  0  0  0  0
  -24.6660  -11.0760   20.8620 C   0  0  0  0  0  0  0  0  0  0  0  0
  -24.9910  -10.0470   21.7720 C   0  0  0  0  0  3  0  0  0  0  0  0
  -24.1600   -8.9140   21.8970 C   0  0  0  0  0  3  0  0  0  0  0  0
  -22.9890   -8.8030   21.1090 C   0  0  0  0  0  0  0  0  0  0  0  0
  -22.6850   -9.8180   20.1840 C   0  0  0  0  0  3  0  0  0  0  0  0
  -23.5190  -10.9420   20.0590 C   0  0  0  0  0  3  0  0  0  0  0  0
  -22.1360   -7.7270   21.1430 O   0  0  0  0  0  0  0  0  0  0  0  0
  -21.9320   -7.0080   22.2930 C   0  0  0  0  0  0  0  0  0  0  0  0
  -21.4480   -7.6130   23.4740 C   0  0  0  0  0  3  0  0  0  0  0  0
  -21.1860   -6.8250   24.6130 C   0  0  0  0  0  3  0  0  0  0  0  0
  -21.3970   -5.4340   24.5710 C   0  0  0  0  0  0  0  0  0  0  0  0
  -21.8770   -4.8300   23.3960 C   0  0  0  0  0  3  0  0  0  0  0  0
  -22.1410   -5.6140   22.2610 C   0  0  0  0  0  0  0  0  0  0  0  0
  -22.5800   -5.0240   21.1220 F   0  0  0  0  0  0  0  0  0  0  0  0
  -21.1410   -4.6750   25.6640 F   0  0  0  0  0  0  0  0  0  0  0  0
  -23.8180  -14.2460   21.1380 C   0  0  0  0  0  0  0  0  0  0  0  0
  -23.0440  -13.5810   21.9870 N   0  0  0  0  0  0  0  0  0  0  0  0
  -23.4640  -15.3270   20.6670 O   0  0  0  0  0  0  0  0  0  0  0  0
  -23.3400  -12.7020   22.3840 H   0  0  0  0  0  0  0  0  0  0  0  0
  -22.1430  -13.9560   22.2510 H   0  0  0  0  0  0  0  0  0  0  0  0
  -26.5810  -15.7090   20.3710 N   0  0  0  0  0  0  0  0  0  0  0  0
  -25.8690  -16.4200   20.5140 H   0  0  0  0  0  0  0  0  0  0  0  0
  -27.4740  -16.0910   20.0830 H   0  0  0  0  0  0  0  0  0  0  0  0
  1  2  2  0
  1  3  1  0
  4  3  1  0
  5  6  1  0
  5  7  1  0
  6  9  1  0
  6  1  1  0
  7  8  1  1
  7  4  1  0
 10  9  2  0
 11 12  1  0
 11 10  1  0
 12 14  1  0
 13 24  2  0
 14 19  1  0
 15 23  1  0
 15 25  1  0
 16 22  1  0
 16 18  1  0
 17 23  1  0
 18 17  1  0
 19 18  2  0
 20 21  1  0
 20 14  2  0
 21 16  2  0
 22 15  1  0
 23 13  1  0
 25 27  2  0
 26 25  1  0
 28 26  1  0
 29 38  2  0
 29 34  1  0
 30 26  1  0
 30 34  1  0
 31 30  1  0
 32 33  1  0
 32 31  1  0
 33 29  1  0
 34 35  2  0
 35 36  1  0
 37 36  2  0
 38 37  1  0
 39 13  1  0
 39 40  1  0
 39 49  1  0
 40 43  1  0
 41 45  1  0
 41 40  1  0
 42 41  2  0
 45 44  1  0
 47 45  1  0
 47 48  1  0
 47 46  1  0
 49 52  1  1
 49 50  1  0
 51 49  1  0
 53  7  1  0
 54 53  1  0
 55 54  1  0
 55 56  1  0
 57 56  1  0
 58 63  1  0
 59 60  1  0
 59 58  1  0
 61 60  1  0
 61 68  1  0
 61 62  1  0
 63 57  1  0
 63 62  1  0
 64 57  2  0
 65 66  2  0
 66 85  1  0
 67 66  1  0
 67 70  1  0
 68 69  1  0
 68 65  1  0
 69 67  2  0
 70 71  1  0
 71 72  2  0
 73 76  1  0
 73 72  1  0
 74 73  2  0
 75 74  1  0
 75 70  2  0
 76 77  1  0
 77 78  1  0
 78 79  2  0
 80 79  1  0
 80 84  1  0
 81 80  2  0
 82 77  2  0
 82 81  1  0
 83 82  1  0
 85 86  1  0
 86 89  1  0
 86 88  1  0
 87 85  2  0
 90 65  1  0
 90 91  1  0
 92 90  1  0
M  ISO  4  11 101  12 101  56 100  57 100
M  END
>  <TORSDO>  (46) 
F 22

>  <SCORE>  (46) 
-10.936

>  <name>  (46) 
45

>  <ligand_id>  (46) 
45

>  <original_smiles>  (46) 
[H]C([H])=C1C([H])([H])C([H])([H])[N+]([H])(C([H])([H])C([H])([H])C([H])([H])C([H])([H])C(=O)N2C([H])([H])C([H])([H])C([H])([H])C([H])(n3nc(-c4c([H])c([H])c(Oc5c([H])c([H])c(F)c([H])c5F)c([H])c4[H])c(C(=O)N([H])[H])c3N([H])[H])C2([H])[H])C([H])([H])C1([H])C([H])=C([H])C([H])([H])Oc1c([H])c([H])c2c(c1[H])C([H])([H])N(C(=O)C([H])(N([H])C(=O)C([H])(N([H])C([H])([H])[H])C([H])([H])[H])C(C([H])([H])[H])(C([H])([H])[H])C([H])([H])[H])C([H])(C(=O)N([H])C1([H])c3c([H])c([H])c([H])c([H])c3C([H])([H])C([H])([H])C1([H])[H])C2([H])[H]

>  <smiles>  (46) 
[H]C([H])=C1C([H])([H])C([H])([H])[N+]([H])(C([H])([H])C([H])([H])C([H])([H])C([H])([H])C(=O)N2C([H])([H])C([H])([H])C([H])([H])C([H])(n3nc(-c4c([H])c([H])c(Oc5c([H])c([H])c(F)c([H])c5F)c([H])c4[H])c(C(=O)N([H])[H])c3N([H])[H])C2([H])[H])C([H])([H])C1([H])C([H])=C([H])C([H])([H])Oc1c([H])c([H])c2c(c1[H])C([H])([H])N(C(=O)C([H])(N([H])C(=O)C([H])(N([H])C([H])([H])[H])C([H])([H])[H])C(C([H])([H])[H])(C([H])([H])[H])C([H])([H])[H])C([H])(C(=O)N([H])C1([H])c3c([H])c([H])c([H])c([H])c3C([H])([H])C([H])([H])C1([H])[H])C2([H])[H]

$$$$
46:0:0
     RDKit          3D

 91 99  0  0  1  0  0  0  0  0999 V2000
  -29.8600  -20.0750   19.0750 C   0  0  0  0  0  3  0  0  0  0  0  0
  -30.1010  -21.2580   19.6680 C   0  0  0  0  0  3  0  0  0  0  0  0
  -30.1420  -17.5450   17.2040 C   0  0  0  0  0  2  0  0  0  0  0  0
  -31.2170  -18.5420   17.6050 C   0  0  0  0  0  2  0  0  0  0  0  0
  -29.9320  -16.7630   18.4970 C   0  0  0  0  0  2  0  0  0  0  0  0
  -30.8390  -18.9100   19.0470 C   0  0  0  0  0  3  0  0  0  0  0  0
  -30.1940  -17.7000   19.6220 N   0  0  2  0  0  4  0  0  0  0  0  0
  -29.2980  -18.0150   19.9660 H   0  0  0  0  0  0  0  0  0  0  0  0
  -30.9230  -17.1350   20.7970 C   0  0  0  0  0  2  0  0  0  0  0  0
  -30.3490  -15.7910   21.3610 C   0  0  0  0  0  2  0  0  0  0  0  0
  -30.9640  -14.5420   20.7000 C   0  0  0  0  0  0  0  0  0  0  0  0
  -30.6110  -12.4230   19.4930 C   0  0  0  0  0  2  0  0  0  0  0  0
  -29.7400  -12.6920   18.2530 C   0  0  0  0  0  2  0  0  0  0  0  0
  -28.2460  -12.5890   18.6140 C   0  0  0  0  0  2  0  0  0  0  0  0
  -27.8740  -13.3910   19.8890 C   0  0  0  0  0  3  0  0  0  0  0  0
  -28.8860  -13.1550   21.0350 C   0  0  0  0  0  2  0  0  0  0  0  0
  -30.2380  -13.4070   20.5190 N   0  0  0  0  0  0  0  0  0  0  0  0
  -32.0950  -14.6600   20.2220 O   0  0  0  0  0  0  0  0  0  0  0  0
  -25.4450  -13.9840   20.4940 C   0  0  0  0  0  0  0  0  0  0  0  0
  -24.3700  -13.2080   20.8330 C   0  0  0  0  0  0  0  0  0  0  0  0
  -24.8400  -11.8600   20.8350 C   0  0  0  0  0  0  0  0  0  0  0  0
  -26.5050  -13.1090   20.3150 N   0  0  0  0  0  0  0  0  0  0  0  0
  -26.1410  -11.8270   20.5780 N   0  0  0  0  0  0  0  0  0  0  0  0
  -24.1160  -10.5940   21.0140 C   0  0  0  0  0  0  0  0  0  0  0  0
  -24.5120   -9.6460   21.9840 C   0  0  0  0  0  3  0  0  0  0  0  0
  -23.7860   -8.4470   22.1520 C   0  0  0  0  0  3  0  0  0  0  0  0
  -22.6540   -8.1840   21.3450 C   0  0  0  0  0  0  0  0  0  0  0  0
  -22.2760   -9.1210   20.3660 C   0  0  0  0  0  3  0  0  0  0  0  0
  -23.0020  -10.3110   20.1980 C   0  0  0  0  0  3  0  0  0  0  0  0
  -21.9050   -7.0340   21.4160 O   0  0  0  0  0  0  0  0  0  0  0  0
  -21.7910   -6.3200   22.5840 C   0  0  0  0  0  0  0  0  0  0  0  0
  -21.2740   -6.9000   23.7630 C   0  0  0  0  0  3  0  0  0  0  0  0
  -21.1100   -6.1130   24.9200 C   0  0  0  0  0  3  0  0  0  0  0  0
  -21.4520   -4.7470   24.8980 C   0  0  0  0  0  0  0  0  0  0  0  0
  -21.9620   -4.1680   23.7240 C   0  0  0  0  0  3  0  0  0  0  0  0
  -22.1270   -4.9510   22.5690 C   0  0  0  0  0  0  0  0  0  0  0  0
  -22.5980   -4.3830   21.4330 F   0  0  0  0  0  0  0  0  0  0  0  0
  -21.2860   -3.9900   26.0060 F   0  0  0  0  0  0  0  0  0  0  0  0
  -22.9610  -13.6770   21.0500 C   0  0  0  0  0  0  0  0  0  0  0  0
  -22.2100  -12.9820   21.8980 N   0  0  0  0  0  0  0  0  0  0  0  0
  -22.5350  -14.6920   20.5020 O   0  0  0  0  0  0  0  0  0  0  0  0
  -22.5670  -12.1560   22.3580 H   0  0  0  0  0  0  0  0  0  0  0  0
  -21.2640  -13.2790   22.0930 H   0  0  0  0  0  0  0  0  0  0  0  0
  -25.6120  -15.3550   20.3060 N   0  0  0  0  0  0  0  0  0  0  0  0
  -24.8440  -16.0100   20.3900 H   0  0  0  0  0  0  0  0  0  0  0  0
  -26.4800  -15.7920   20.0260 H   0  0  0  0  0  0  0  0  0  0  0  0
  -29.1600  -22.4460   19.6450 C   0  0  0  0  0  2  0  0  0  0  0  0
  -28.9250  -23.0660   21.0370 C   0  0  0  0  0  2  0  0  0  0  0  0
  -29.0700  -24.6020   21.0660 C   0  0  0  0  0  2  0  0  0  0  0  0
  -28.1160  -25.3340   20.1200 C   0  0  0  0  0  2  0  0  0  0  0  0
  -28.2940  -26.7490   20.2650 O   0  0  0  0  0  0  0  0  0  0  0  0
  -24.5350  -31.9450   23.3190 C   0  0  0  0  0  0  0  0  0  0  0  0
  -27.1490  -27.5100   20.2090 C   0  0  0  0  0  0  0  0  0  0  0  0
  -23.3320  -30.5610   21.6620 C   0  0  0  0  0  3  0  0  0  0  0  0
  -24.7790  -29.0430   20.2210 C   0  0  0  0  0  0  0  0  0  0  0  0
  -25.8660  -30.8930   21.5000 C   0  0  0  0  0  2  0  0  0  0  0  0
  -25.9370  -29.5380   20.8340 C   0  0  0  0  0  0  0  0  0  0  0  0
  -27.1250  -28.7760   20.8330 C   0  0  0  0  0  3  0  0  0  0  0  0
  -25.9800  -27.0510   19.5540 C   0  0  0  0  0  3  0  0  0  0  0  0
  -24.7950  -27.7980   19.5770 C   0  0  0  0  0  3  0  0  0  0  0  0
  -23.5410  -29.9060   20.2730 C   0  0  0  0  0  2  0  0  0  0  0  0
  -24.5940  -31.1470   22.2170 N   0  0  0  0  0  0  0  0  0  0  0  0
  -23.4520  -32.2270   23.8490 O   0  0  0  0  0  0  0  0  0  0  0  0
  -22.6730  -29.5310   22.6060 C   0  0  0  0  0  0  0  0  0  0  0  0
  -21.3560  -29.3330   22.4460 N   0  0  0  0  0  0  0  0  0  0  0  0
  -23.3430  -28.9180   23.4410 O   0  0  0  0  0  0  0  0  0  0  0  0
  -20.8820  -29.8740   21.7350 H   0  0  0  0  0  0  0  0  0  0  0  0
  -17.9820  -28.1060   22.8650 C   0  0  0  0  0  0  0  0  0  0  0  0
  -20.5290  -28.3940   23.2020 C   0  0  0  0  0  3  0  0  0  0  0  0
  -20.6650  -26.9620   22.6370 C   0  0  0  0  0  2  0  0  0  0  0  0
  -19.5920  -26.6190   21.5990 C   0  0  0  0  0  2  0  0  0  0  0  0
  -18.1910  -26.7560   22.2020 C   0  0  0  0  0  2  0  0  0  0  0  0
  -19.0810  -28.8830   23.3180 C   0  0  0  0  0  0  0  0  0  0  0  0
  -18.8340  -30.1510   23.8900 C   0  0  0  0  0  3  0  0  0  0  0  0
  -17.5200  -30.6370   24.0180 C   0  0  0  0  0  3  0  0  0  0  0  0
  -16.4340  -29.8570   23.5820 C   0  0  0  0  0  3  0  0  0  0  0  0
  -16.6680  -28.5920   23.0130 C   0  0  0  0  0  3  0  0  0  0  0  0
  -25.8220  -32.5660   23.9440 C   0  0  0  0  0  3  0  0  0  0  0  0
  -25.5310  -33.9750   24.2420 N   0  0  0  0  0  0  0  0  0  0  0  0
  -25.8930  -35.0090   23.4700 C   0  0  0  0  0  0  0  0  0  0  0  0
  -26.5860  -34.8780   22.4580 O   0  0  0  0  0  0  0  0  0  0  0  0
  -24.9300  -34.1570   25.0320 H   0  0  0  0  0  0  0  0  0  0  0  0
  -24.2120  -36.8290   23.0280 C   0  0  0  0  0  1  0  0  0  0  0  0
  -25.4110  -36.4100   23.8930 C   0  0  0  0  0  3  0  0  0  0  0  0
  -27.5250  -37.2680   24.8040 C   0  0  0  0  0  1  0  0  0  0  0  0
  -26.4680  -37.4430   23.8120 N   0  0  0  0  0  0  0  0  0  0  0  0
  -26.0720  -38.3730   23.9310 H   0  0  0  0  0  0  0  0  0  0  0  0
  -26.3110  -31.8110   25.2400 C   0  0  1  0  0  0  0  0  0  0  0  0
  -25.2000  -31.5990   26.2920 C   0  0  0  0  0  1  0  0  0  0  0  0
  -26.8910  -30.4200   24.8870 C   0  0  0  0  0  1  0  0  0  0  0  0
  -27.4540  -32.6100   25.9100 C   0  0  0  0  0  1  0  0  0  0  0  0
  1  2  2  0
  3  4  1  0
  3  5  1  0
  4  6  1  0
  5  7  1  0
  6  1  1  0
  6  7  1  0
  7  8  1  1
  7  9  1  0
  9 10  1  0
 11 10  1  0
 12 17  1  0
 13 14  1  0
 13 12  1  0
 15 14  1  0
 15 22  1  0
 15 16  1  0
 17 11  1  0
 17 16  1  0
 18 11  2  0
 19 20  2  0
 20 21  1  0
 20 39  1  0
 21 24  1  0
 22 19  1  0
 22 23  1  0
 23 21  2  0
 24 25  1  0
 25 26  2  0
 27 30  1  0
 27 26  1  0
 28 27  2  0
 29 28  1  0
 29 24  2  0
 30 31  1  0
 31 32  1  0
 32 33  2  0
 34 33  1  0
 34 38  1  0
 35 34  2  0
 36 31  2  0
 36 35  1  0
 37 36  1  0
 39 40  1  0
 40 43  1  0
 40 42  1  0
 41 39  2  0
 44 45  1  0
 44 19  1  0
 46 44  1  0
 47  2  1  0
 47 48  1  0
 48 49  1  0
 50 51  1  0
 50 49  1  0
 52 63  2  0
 53 51  1  0
 53 58  1  0
 54 62  1  0
 54 64  1  0
 55 61  1  0
 55 57  1  0
 56 62  1  0
 57 56  1  0
 58 57  2  0
 59 60  1  0
 59 53  2  0
 60 55  2  0
 61 54  1  0
 62 52  1  0
 64 66  2  0
 65 64  1  0
 67 65  1  0
 68 77  2  0
 68 73  1  0
 69 65  1  0
 69 73  1  0
 70 69  1  0
 71 72  1  0
 71 70  1  0
 72 68  1  0
 73 74  2  0
 74 75  1  0
 76 75  2  0
 77 76  1  0
 78 52  1  0
 78 79  1  0
 78 88  1  0
 79 82  1  0
 80 84  1  0
 80 79  1  0
 81 80  2  0
 84 83  1  0
 86 84  1  0
 86 87  1  0
 86 85  1  0
 88 91  1  1
 88 89  1  0
 90 88  1  0
M  ISO  4  10 100  11 100  50 101  51 101
M  END
>  <TORSDO>  (47) 
F 23

>  <SCORE>  (47) 
-12.135

>  <name>  (47) 
46

>  <ligand_id>  (47) 
46

>  <original_smiles>  (47) 
[H]C(=C([H])C1([H])C([H])([H])C([H])([H])C([H])([H])[N+]1([H])C([H])([H])C([H])([H])C(=O)N1C([H])([H])C([H])([H])C([H])([H])C([H])(n2nc(-c3c([H])c([H])c(Oc4c([H])c([H])c(F)c([H])c4F)c([H])c3[H])c(C(=O)N([H])[H])c2N([H])[H])C1([H])[H])C([H])([H])C([H])([H])C([H])([H])C([H])([H])Oc1c([H])c([H])c2c(c1[H])C([H])([H])N(C(=O)C([H])(N([H])C(=O)C([H])(N([H])C([H])([H])[H])C([H])([H])[H])C(C([H])([H])[H])(C([H])([H])[H])C([H])([H])[H])C([H])(C(=O)N([H])C1([H])c3c([H])c([H])c([H])c([H])c3C([H])([H])C([H])([H])C1([H])[H])C2([H])[H]

>  <smiles>  (47) 
[H]C(=C([H])C1([H])C([H])([H])C([H])([H])C([H])([H])[N+]1([H])C([H])([H])C([H])([H])C(=O)N1C([H])([H])C([H])([H])C([H])([H])C([H])(n2nc(-c3c([H])c([H])c(Oc4c([H])c([H])c(F)c([H])c4F)c([H])c3[H])c(C(=O)N([H])[H])c2N([H])[H])C1([H])[H])C([H])([H])C([H])([H])C([H])([H])C([H])([H])Oc1c([H])c([H])c2c(c1[H])C([H])([H])N(C(=O)C([H])(N([H])C(=O)C([H])(N([H])C([H])([H])[H])C([H])([H])[H])C(C([H])([H])[H])(C([H])([H])[H])C([H])([H])[H])C([H])(C(=O)N([H])C1([H])c3c([H])c([H])c([H])c([H])c3C([H])([H])C([H])([H])C1([H])[H])C2([H])[H]

$$$$
47:0:0
     RDKit          3D

 91 99  0  0  1  0  0  0  0  0999 V2000
  -29.3930  -20.4330   20.1210 C   0  0  0  0  0  3  0  0  0  0  0  0
  -28.4270  -20.7250   16.3760 C   0  0  0  0  0  2  0  0  0  0  0  0
  -27.9870  -19.2850   16.6700 C   0  0  0  0  0  2  0  0  0  0  0  0
  -29.0690  -21.2360   17.6710 C   0  0  0  0  0  2  0  0  0  0  0  0
  -28.5200  -18.9760   18.0760 C   0  0  0  0  0  2  0  0  0  0  0  0
  -28.5530  -20.3290   18.8080 C   0  0  0  0  0  3  0  0  0  0  0  0
  -29.3790  -19.0920   20.9780 N   0  0  0  0  0  4  0  0  0  0  0  0
  -29.6420  -19.3650   21.9120 H   0  0  0  0  0  0  0  0  0  0  0  0
  -28.4140  -18.8120   21.0410 H   0  0  0  0  0  0  0  0  0  0  0  0
  -30.2370  -17.7860   20.6770 C   0  0  0  0  0  3  0  0  0  0  0  0
  -29.9390  -16.2970   21.4040 C   0  0  0  0  0  3  0  0  0  0  0  0
  -30.7850  -14.8940   21.1490 C   0  0  0  0  0  0  0  0  0  0  0  0
  -30.7640  -12.5390   20.2130 C   0  0  0  0  0  2  0  0  0  0  0  0
  -29.9590  -12.5260   18.8910 C   0  0  0  0  0  2  0  0  0  0  0  0
  -28.4570  -12.3340   19.1690 C   0  0  0  0  0  2  0  0  0  0  0  0
  -27.9460  -13.2580   20.3020 C   0  0  0  0  0  3  0  0  0  0  0  0
  -28.8750  -13.2460   21.5330 C   0  0  0  0  0  2  0  0  0  0  0  0
  -30.2170  -13.6260   21.0730 N   0  0  0  0  0  0  0  0  0  0  0  0
  -32.0010  -14.9690   20.9300 O   0  0  0  0  0  0  0  0  0  0  0  0
  -25.5030  -13.8660   20.7810 C   0  0  0  0  0  0  0  0  0  0  0  0
  -24.3990  -13.1050   21.0460 C   0  0  0  0  0  0  0  0  0  0  0  0
  -24.8530  -11.7490   21.0810 C   0  0  0  0  0  0  0  0  0  0  0  0
  -26.5590  -12.9800   20.6590 N   0  0  0  0  0  0  0  0  0  0  0  0
  -26.1700  -11.7020   20.9110 N   0  0  0  0  0  0  0  0  0  0  0  0
  -24.1020  -10.4940   21.2100 C   0  0  0  0  0  0  0  0  0  0  0  0
  -24.4190   -9.5370   22.2000 C   0  0  0  0  0  3  0  0  0  0  0  0
  -23.6680   -8.3470   22.3140 C   0  0  0  0  0  3  0  0  0  0  0  0
  -22.5880   -8.1040   21.4320 C   0  0  0  0  0  0  0  0  0  0  0  0
  -22.2930   -9.0460   20.4310 C   0  0  0  0  0  3  0  0  0  0  0  0
  -23.0440  -10.2290   20.3180 C   0  0  0  0  0  3  0  0  0  0  0  0
  -21.8210   -6.9640   21.4500 O   0  0  0  0  0  0  0  0  0  0  0  0
  -21.6380   -6.2360   22.5980 C   0  0  0  0  0  0  0  0  0  0  0  0
  -21.0350   -6.7970   23.7440 C   0  0  0  0  0  3  0  0  0  0  0  0
  -20.8050   -5.9960   24.8800 C   0  0  0  0  0  3  0  0  0  0  0  0
  -21.1690   -4.6360   24.8690 C   0  0  0  0  0  0  0  0  0  0  0  0
  -21.7650   -4.0750   23.7250 C   0  0  0  0  0  3  0  0  0  0  0  0
  -21.9970   -4.8730   22.5900 C   0  0  0  0  0  0  0  0  0  0  0  0
  -22.5530   -4.3240   21.4860 F   0  0  0  0  0  0  0  0  0  0  0  0
  -20.9400   -3.8630   25.9560 F   0  0  0  0  0  0  0  0  0  0  0  0
  -22.9840  -13.5910   21.1630 C   0  0  0  0  0  0  0  0  0  0  0  0
  -22.1640  -12.9080   21.9510 N   0  0  0  0  0  0  0  0  0  0  0  0
  -22.6120  -14.6130   20.5860 O   0  0  0  0  0  0  0  0  0  0  0  0
  -22.4800  -12.0800   22.4350 H   0  0  0  0  0  0  0  0  0  0  0  0
  -21.2090  -13.2130   22.0730 H   0  0  0  0  0  0  0  0  0  0  0  0
  -25.6990  -15.2340   20.6060 N   0  0  0  0  0  0  0  0  0  0  0  0
  -24.9400  -15.9030   20.6290 H   0  0  0  0  0  0  0  0  0  0  0  0
  -26.5810  -15.6430   20.3330 H   0  0  0  0  0  0  0  0  0  0  0  0
  -29.1000  -21.9140   20.8720 C   0  0  0  0  0  2  0  0  0  0  0  0
  -28.1270  -23.2440   20.4850 C   0  0  0  0  0  2  0  0  0  0  0  0
  -28.5030  -24.7020   19.7580 C   0  0  0  0  0  2  0  0  0  0  0  0
  -28.3530  -26.1430   20.2910 O   0  0  0  0  0  0  0  0  0  0  0  0
  -24.5550  -31.6940   23.1440 C   0  0  0  0  0  0  0  0  0  0  0  0
  -27.2490  -27.0440   20.1500 C   0  0  0  0  0  0  0  0  0  0  0  0
  -23.4020  -30.2910   21.4740 C   0  0  0  0  0  3  0  0  0  0  0  0
  -24.8920  -28.7310   20.0740 C   0  0  0  0  0  0  0  0  0  0  0  0
  -25.9510  -30.5880   21.3600 C   0  0  0  0  0  2  0  0  0  0  0  0
  -26.0480  -29.2010   20.7090 C   0  0  0  0  0  0  0  0  0  0  0  0
  -27.2220  -28.3700   20.7340 C   0  0  0  0  0  3  0  0  0  0  0  0
  -26.0710  -26.6570   19.4810 C   0  0  0  0  0  3  0  0  0  0  0  0
  -24.9140  -27.4720   19.4460 C   0  0  0  0  0  3  0  0  0  0  0  0
  -23.6530  -29.6100   20.1020 C   0  0  0  0  0  2  0  0  0  0  0  0
  -24.6540  -30.8800   22.0480 N   0  0  0  0  0  0  0  0  0  0  0  0
  -23.4560  -31.9700   23.6510 O   0  0  0  0  0  0  0  0  0  0  0  0
  -22.7100  -29.2810   22.4200 C   0  0  0  0  0  0  0  0  0  0  0  0
  -21.3850  -29.1140   22.2750 N   0  0  0  0  0  0  0  0  0  0  0  0
  -23.3700  -28.6470   23.2470 O   0  0  0  0  0  0  0  0  0  0  0  0
  -20.9110  -29.6720   21.5770 H   0  0  0  0  0  0  0  0  0  0  0  0
  -17.9890  -27.9530   22.7480 C   0  0  0  0  0  0  0  0  0  0  0  0
  -20.5520  -28.1740   23.0260 C   0  0  0  0  0  3  0  0  0  0  0  0
  -20.6340  -26.7530   22.4240 C   0  0  0  0  0  2  0  0  0  0  0  0
  -19.5290  -26.4660   21.4020 C   0  0  0  0  0  2  0  0  0  0  0  0
  -18.1490  -26.6150   22.0460 C   0  0  0  0  0  2  0  0  0  0  0  0
  -19.1170  -28.6910   23.1960 C   0  0  0  0  0  0  0  0  0  0  0  0
  -18.9120  -29.9430   23.8160 C   0  0  0  0  0  3  0  0  0  0  0  0
  -17.6150  -30.4580   23.9890 C   0  0  0  0  0  3  0  0  0  0  0  0
  -16.5000  -29.7170   23.5590 C   0  0  0  0  0  3  0  0  0  0  0  0
  -16.6880  -28.4650   22.9440 C   0  0  0  0  0  3  0  0  0  0  0  0
  -25.8160  -32.3360   23.8000 C   0  0  0  0  0  3  0  0  0  0  0  0
  -25.4930  -33.7390   24.1080 N   0  0  0  0  0  0  0  0  0  0  0  0
  -25.8800  -34.7910   23.3740 C   0  0  0  0  0  0  0  0  0  0  0  0
  -26.6110  -34.6820   22.3850 O   0  0  0  0  0  0  0  0  0  0  0  0
  -24.8350  -33.8970   24.8570 H   0  0  0  0  0  0  0  0  0  0  0  0
  -24.2160  -36.6220   22.8960 C   0  0  0  0  0  1  0  0  0  0  0  0
  -25.3780  -36.1840   23.8030 C   0  0  0  0  0  3  0  0  0  0  0  0
  -27.4450  -37.0330   24.8240 C   0  0  0  0  0  1  0  0  0  0  0  0
  -26.4340  -37.2200   23.7870 N   0  0  0  0  0  0  0  0  0  0  0  0
  -26.0300  -38.1460   23.9020 H   0  0  0  0  0  0  0  0  0  0  0  0
  -26.2870  -31.5800   25.1050 C   0  0  1  0  0  0  0  0  0  0  0  0
  -25.1590  -31.3550   26.1380 C   0  0  0  0  0  1  0  0  0  0  0  0
  -26.8840  -30.1950   24.7550 C   0  0  0  0  0  1  0  0  0  0  0  0
  -27.4140  -32.3820   25.7970 C   0  0  0  0  0  1  0  0  0  0  0  0
  1 48  1  0
  1  7  1  0
  2  3  1  0
  2  4  1  0
  3  5  1  0
  4  6  1  0
  5  6  1  0
  6  1  1  0
  7  9  1  0
  7  8  1  0
 10  7  1  0
 10 11  2  0
 12 11  1  0
 13 18  1  0
 14 15  1  0
 14 13  1  0
 16 15  1  0
 16 23  1  0
 16 17  1  0
 18 12  1  0
 18 17  1  0
 19 12  2  0
 20 21  2  0
 21 22  1  0
 21 40  1  0
 22 25  1  0
 23 20  1  0
 23 24  1  0
 24 22  2  0
 25 26  1  0
 26 27  2  0
 28 31  1  0
 28 27  1  0
 29 28  2  0
 30 29  1  0
 30 25  2  0
 31 32  1  0
 32 33  1  0
 33 34  2  0
 35 34  1  0
 35 39  1  0
 36 35  2  0
 37 32  2  0
 37 36  1  0
 38 37  1  0
 40 41  1  0
 41 44  1  0
 41 43  1  0
 42 40  2  0
 45 46  1  0
 45 20  1  0
 47 45  1  0
 49 48  1  0
 50 51  1  0
 50 49  1  0
 52 63  2  0
 53 51  1  0
 53 58  1  0
 54 62  1  0
 54 64  1  0
 55 61  1  0
 55 57  1  0
 56 62  1  0
 57 58  2  0
 57 56  1  0
 59 53  2  0
 60 59  1  0
 60 55  2  0
 61 54  1  0
 62 52  1  0
 64 66  2  0
 65 64  1  0
 67 65  1  0
 68 77  2  0
 68 73  1  0
 69 65  1  0
 69 73  1  0
 70 69  1  0
 71 72  1  0
 71 70  1  0
 72 68  1  0
 73 74  2  0
 74 75  1  0
 76 75  2  0
 77 76  1  0
 78 52  1  0
 78 79  1  0
 78 88  1  0
 79 82  1  0
 80 84  1  0
 80 79  1  0
 81 80  2  0
 84 83  1  0
 86 84  1  0
 86 87  1  0
 86 85  1  0
 88 91  1  1
 88 89  1  0
 90 88  1  0
M  ISO  4  11 100  12 100  50 101  51 101
M  END
>  <TORSDO>  (48) 
F 23

>  <SCORE>  (48) 
-12.178

>  <name>  (48) 
47

>  <ligand_id>  (48) 
47

>  <original_smiles>  (48) 
[H]c1c([H])c([H])c2c(c1[H])C([H])([H])C([H])([H])C([H])([H])C2([H])N([H])C(=O)C1([H])N(C(=O)C([H])(N([H])C(=O)C([H])(N([H])C([H])([H])[H])C([H])([H])[H])C(C([H])([H])[H])(C([H])([H])[H])C([H])([H])[H])C([H])([H])c2c([H])c(OC([H])([H])C([H])([H])C([H])([H])C([H])(C3([H])C([H])([H])C([H])([H])C([H])([H])C3([H])[H])[N+]([H])([H])C([H])([H])C([H])([H])C(=O)N3C([H])([H])C([H])([H])C([H])([H])C([H])(n4nc(-c5c([H])c([H])c(Oc6c([H])c([H])c(F)c([H])c6F)c([H])c5[H])c(C(=O)N([H])[H])c4N([H])[H])C3([H])[H])c([H])c([H])c2C1([H])[H]

>  <smiles>  (48) 
[H]c1c([H])c([H])c2c(c1[H])C([H])([H])C([H])([H])C([H])([H])C2([H])N([H])C(=O)C1([H])N(C(=O)C([H])(N([H])C(=O)C([H])(N([H])C([H])([H])[H])C([H])([H])[H])C(C([H])([H])[H])(C([H])([H])[H])C([H])([H])[H])C([H])([H])c2c([H])c(OC([H])([H])C([H])([H])C([H])([H])C([H])(C3([H])C([H])([H])C([H])([H])C([H])([H])C3([H])[H])[N+]([H])([H])C([H])([H])C([H])([H])C(=O)N3C([H])([H])C([H])([H])C([H])([H])C([H])(n4nc(-c5c([H])c([H])c(Oc6c([H])c([H])c(F)c([H])c6F)c([H])c5[H])c(C(=O)N([H])[H])c4N([H])[H])C3([H])[H])c([H])c([H])c2C1([H])[H]

$$$$
48:0:0
     RDKit          3D

 87 94  0  0  1  0  0  0  0  0999 V2000
  -29.0760  -23.1370   19.8150 C   0  0  0  0  0  2  0  0  0  0  0  0
  -28.7870  -21.7850   20.5260 C   0  0  0  0  0  0  0  0  0  0  0  0
  -27.5580  -21.7020   21.4270 C   0  0  0  0  0  1  0  0  0  0  0  0
  -29.5720  -20.7880   20.2890 N   0  0  0  0  0  0  0  0  0  0  0  0
  -29.3720  -19.4300   20.8310 C   0  0  0  0  0  2  0  0  0  0  0  0
  -30.7320  -18.6400   20.7800 C   0  0  0  0  0  2  0  0  0  0  0  0
  -30.7910  -17.1420   21.2850 C   0  0  0  0  0  2  0  0  0  0  0  0
  -30.0460  -16.0030   20.4760 C   0  0  0  0  0  2  0  0  0  0  0  0
  -30.8820  -14.7120   20.0950 C   0  0  0  0  0  0  0  0  0  0  0  0
  -30.6530  -12.4700   19.0270 C   0  0  0  0  0  2  0  0  0  0  0  0
  -29.6830  -12.6230   17.8300 C   0  0  0  0  0  2  0  0  0  0  0  0
  -28.2210  -12.4830   18.3020 C   0  0  0  0  0  2  0  0  0  0  0  0
  -27.9070  -13.3520   19.5520 C   0  0  0  0  0  3  0  0  0  0  0  0
  -28.9910  -13.1270   20.6310 C   0  0  0  0  0  2  0  0  0  0  0  0
  -30.2840  -13.4790   20.0390 N   0  0  0  0  0  0  0  0  0  0  0  0
  -32.0290  -14.8780   19.6620 O   0  0  0  0  0  0  0  0  0  0  0  0
  -25.5410  -14.0040   20.3380 C   0  0  0  0  0  0  0  0  0  0  0  0
  -24.4730  -13.2520   20.7340 C   0  0  0  0  0  0  0  0  0  0  0  0
  -24.9040  -11.8930   20.6860 C   0  0  0  0  0  0  0  0  0  0  0  0
  -26.5650  -13.1040   20.0720 N   0  0  0  0  0  0  0  0  0  0  0  0
  -26.1840  -11.8310   20.3420 N   0  0  0  0  0  0  0  0  0  0  0  0
  -24.1600  -10.6480   20.9050 C   0  0  0  0  0  0  0  0  0  0  0  0
  -24.5620   -9.7120   21.8890 C   0  0  0  0  0  3  0  0  0  0  0  0
  -23.8190   -8.5270   22.0920 C   0  0  0  0  0  3  0  0  0  0  0  0
  -22.6650   -8.2740   21.3110 C   0  0  0  0  0  0  0  0  0  0  0  0
  -22.2890   -9.1940   20.3170 C   0  0  0  0  0  3  0  0  0  0  0  0
  -23.0310  -10.3720   20.1120 C   0  0  0  0  0  3  0  0  0  0  0  0
  -21.8980   -7.1420   21.4150 O   0  0  0  0  0  0  0  0  0  0  0  0
  -21.7640   -6.4730   22.6040 C   0  0  0  0  0  0  0  0  0  0  0  0
  -21.2030   -7.0870   23.7460 C   0  0  0  0  0  3  0  0  0  0  0  0
  -21.0180   -6.3450   24.9290 C   0  0  0  0  0  3  0  0  0  0  0  0
  -21.3830   -4.9840   24.9760 C   0  0  0  0  0  0  0  0  0  0  0  0
  -21.9330   -4.3680   23.8370 C   0  0  0  0  0  3  0  0  0  0  0  0
  -22.1200   -5.1080   22.6590 C   0  0  0  0  0  0  0  0  0  0  0  0
  -22.6330   -4.5030   21.5590 F   0  0  0  0  0  0  0  0  0  0  0  0
  -21.1950   -4.2690   26.1070 F   0  0  0  0  0  0  0  0  0  0  0  0
  -23.0950  -13.7560   21.0520 C   0  0  0  0  0  0  0  0  0  0  0  0
  -22.3780  -13.0840   21.9390 N   0  0  0  0  0  0  0  0  0  0  0  0
  -22.6660  -14.7890   20.5380 O   0  0  0  0  0  0  0  0  0  0  0  0
  -22.7350  -12.2410   22.3700 H   0  0  0  0  0  0  0  0  0  0  0  0
  -21.4490  -13.4080   22.1740 H   0  0  0  0  0  0  0  0  0  0  0  0
  -25.7010  -15.3780   20.1680 N   0  0  0  0  0  0  0  0  0  0  0  0
  -24.9170  -15.9970   20.3550 H   0  0  0  0  0  0  0  0  0  0  0  0
  -26.5300  -15.8780   19.8800 H   0  0  0  0  0  0  0  0  0  0  0  0
  -28.3890  -24.4480   20.3240 C   0  0  0  0  0  2  0  0  0  0  0  0
  -28.7500  -25.6830   19.4680 C   0  0  0  0  0  2  0  0  0  0  0  0
  -28.5300  -26.9100   20.1690 O   0  0  0  0  0  0  0  0  0  0  0  0
  -24.5440  -31.8670   23.2790 C   0  0  0  0  0  0  0  0  0  0  0  0
  -27.3130  -27.5610   20.1320 C   0  0  0  0  0  0  0  0  0  0  0  0
  -23.3980  -30.5250   21.5440 C   0  0  0  0  0  3  0  0  0  0  0  0
  -24.9040  -29.0490   20.1140 C   0  0  0  0  0  0  0  0  0  0  0  0
  -25.9230  -30.9000   21.4490 C   0  0  0  0  0  2  0  0  0  0  0  0
  -26.0320  -29.5540   20.7690 C   0  0  0  0  0  0  0  0  0  0  0  0
  -27.2340  -28.8130   20.7830 C   0  0  0  0  0  3  0  0  0  0  0  0
  -26.1620  -27.0590   19.4810 C   0  0  0  0  0  3  0  0  0  0  0  0
  -24.9610  -27.8010   19.4710 C   0  0  0  0  0  3  0  0  0  0  0  0
  -23.6510  -29.8960   20.1470 C   0  0  0  0  0  2  0  0  0  0  0  0
  -24.6380  -31.1100   22.1510 N   0  0  0  0  0  0  0  0  0  0  0  0
  -23.4470  -32.1170   23.7930 O   0  0  0  0  0  0  0  0  0  0  0  0
  -22.7280  -29.4650   22.4440 C   0  0  0  0  0  0  0  0  0  0  0  0
  -21.4100  -29.2780   22.2680 N   0  0  0  0  0  0  0  0  0  0  0  0
  -23.3900  -28.8140   23.2580 O   0  0  0  0  0  0  0  0  0  0  0  0
  -20.9380  -29.8570   21.5840 H   0  0  0  0  0  0  0  0  0  0  0  0
  -18.0270  -28.0750   22.6240 C   0  0  0  0  0  0  0  0  0  0  0  0
  -20.5750  -28.3090   22.9760 C   0  0  0  0  0  3  0  0  0  0  0  0
  -20.6910  -26.9070   22.3390 C   0  0  0  0  0  2  0  0  0  0  0  0
  -19.6160  -26.6340   21.2840 C   0  0  0  0  0  2  0  0  0  0  0  0
  -18.2180  -26.7580   21.8960 C   0  0  0  0  0  2  0  0  0  0  0  0
  -19.1360  -28.8130   23.1180 C   0  0  0  0  0  0  0  0  0  0  0  0
  -18.9060  -30.0510   23.7560 C   0  0  0  0  0  3  0  0  0  0  0  0
  -17.5980  -30.5510   23.9060 C   0  0  0  0  0  3  0  0  0  0  0  0
  -16.5030  -29.8080   23.4310 C   0  0  0  0  0  3  0  0  0  0  0  0
  -16.7190  -28.5740   22.7940 C   0  0  0  0  0  3  0  0  0  0  0  0
  -25.8090  -32.4820   23.9590 C   0  0  0  0  0  3  0  0  0  0  0  0
  -25.5000  -33.8770   24.2910 N   0  0  0  0  0  0  0  0  0  0  0  0
  -25.8890  -34.9340   23.5670 C   0  0  0  0  0  0  0  0  0  0  0  0
  -26.6170  -34.8370   22.5760 O   0  0  0  0  0  0  0  0  0  0  0  0
  -24.8630  -34.0280   25.0590 H   0  0  0  0  0  0  0  0  0  0  0  0
  -24.2240  -36.7630   23.1150 C   0  0  0  0  0  1  0  0  0  0  0  0
  -25.3910  -36.3210   24.0130 C   0  0  0  0  0  3  0  0  0  0  0  0
  -27.4600  -37.1580   25.0370 C   0  0  0  0  0  1  0  0  0  0  0  0
  -26.4460  -37.3570   24.0060 N   0  0  0  0  0  0  0  0  0  0  0  0
  -26.0430  -38.2820   24.1290 H   0  0  0  0  0  0  0  0  0  0  0  0
  -26.2660  -31.6900   25.2460 C   0  0  1  0  0  0  0  0  0  0  0  0
  -25.1240  -31.4440   26.2590 C   0  0  0  0  0  1  0  0  0  0  0  0
  -26.8590  -30.3150   24.8590 C   0  0  0  0  0  1  0  0  0  0  0  0
  -27.3860  -32.4700   25.9730 C   0  0  0  0  0  1  0  0  0  0  0  0
  1 45  1  0
  1  2  1  0
  2  3  1  0
  4  2  2  0
  4  5  1  0
  6  5  1  0
  6  7  1  0
  8  7  1  0
  9  8  1  0
 10 15  1  0
 11 12  1  0
 11 10  1  0
 13 12  1  0
 13 20  1  0
 13 14  1  0
 15  9  1  0
 15 14  1  0
 16  9  2  0
 17 18  2  0
 18 37  1  0
 19 18  1  0
 19 22  1  0
 20 17  1  0
 20 21  1  0
 21 19  2  0
 22 23  1  0
 23 24  2  0
 25 28  1  0
 25 24  1  0
 26 25  2  0
 27 26  1  0
 27 22  2  0
 28 29  1  0
 29 34  2  0
 29 30  1  0
 30 31  2  0
 31 32  1  0
 32 36  1  0
 33 32  2  0
 34 33  1  0
 35 34  1  0
 37 38  1  0
 38 41  1  0
 38 40  1  0
 39 37  2  0
 42 17  1  0
 42 43  1  0
 44 42  1  0
 46 47  1  0
 46 45  1  0
 48 59  2  0
 49 47  1  0
 49 54  1  0
 50 58  1  0
 50 60  1  0
 51 57  1  0
 51 53  1  0
 52 58  1  0
 53 54  2  0
 53 52  1  0
 55 49  2  0
 56 55  1  0
 56 51  2  0
 57 50  1  0
 58 48  1  0
 60 62  2  0
 61 60  1  0
 63 61  1  0
 64 73  2  0
 64 69  1  0
 65 61  1  0
 65 69  1  0
 66 65  1  0
 67 68  1  0
 67 66  1  0
 68 64  1  0
 69 70  2  0
 70 71  1  0
 72 71  2  0
 73 72  1  0
 74 48  1  0
 74 75  1  0
 74 84  1  0
 75 78  1  0
 76 80  1  0
 76 75  1  0
 77 76  2  0
 80 79  1  0
 82 80  1  0
 82 83  1  0
 82 81  1  0
 84 87  1  1
 84 85  1  0
 86 84  1  0
M  ISO  4   8 100   9 100  46 101  47 101
M  END
>  <TORSDO>  (49) 
F 23

>  <SCORE>  (49) 
-12.096

>  <name>  (49) 
48

>  <ligand_id>  (49) 
48

>  <original_smiles>  (49) 
[H]c1c([H])c([H])c2c(c1[H])C([H])([H])C([H])([H])C([H])([H])C2([H])N([H])C(=O)C1([H])N(C(=O)C([H])(N([H])C(=O)C([H])(N([H])C([H])([H])[H])C([H])([H])[H])C(C([H])([H])[H])(C([H])([H])[H])C([H])([H])[H])C([H])([H])c2c([H])c(OC([H])([H])C([H])([H])C([H])([H])C(=NC([H])([H])C([H])([H])C([H])([H])C([H])([H])C(=O)N3C([H])([H])C([H])([H])C([H])([H])C([H])(n4nc(-c5c([H])c([H])c(Oc6c([H])c([H])c(F)c([H])c6F)c([H])c5[H])c(C(=O)N([H])[H])c4N([H])[H])C3([H])[H])C([H])([H])[H])c([H])c([H])c2C1([H])[H]

>  <smiles>  (49) 
[H]c1c([H])c([H])c2c(c1[H])C([H])([H])C([H])([H])C([H])([H])C2([H])N([H])C(=O)C1([H])N(C(=O)C([H])(N([H])C(=O)C([H])(N([H])C([H])([H])[H])C([H])([H])[H])C(C([H])([H])[H])(C([H])([H])[H])C([H])([H])[H])C([H])([H])c2c([H])c(OC([H])([H])C([H])([H])C([H])([H])C(=NC([H])([H])C([H])([H])C([H])([H])C([H])([H])C(=O)N3C([H])([H])C([H])([H])C([H])([H])C([H])(n4nc(-c5c([H])c([H])c(Oc6c([H])c([H])c(F)c([H])c6F)c([H])c5[H])c(C(=O)N([H])[H])c4N([H])[H])C3([H])[H])C([H])([H])[H])c([H])c([H])c2C1([H])[H]

$$$$
49:0:0
     RDKit          3D

 87 96  0  0  1  0  0  0  0  0999 V2000
  -29.5250  -18.4560   19.6970 C   0  0  0  0  0  0  0  0  0  0  0  0
  -29.9100  -16.9960   19.8650 C   0  0  0  0  0  0  0  0  0  0  0  0
  -28.2380  -18.7370   20.5320 C   0  0  0  0  0  2  0  0  0  0  0  0
  -28.3720  -19.8790   21.6130 C   0  0  0  0  0  2  0  0  0  0  0  0
  -28.5480  -21.3410   21.0970 C   0  0  0  0  0  2  0  0  0  0  0  0
  -29.7700  -21.1380   17.8820 C   0  0  0  0  0  2  0  0  0  0  0  0
  -29.8980  -20.1310   19.2140 C   0  0  0  0  0  3  0  0  0  0  0  0
  -28.7650  -21.2720   19.6120 C   0  0  0  0  0  3  0  0  0  0  0  0
  -29.0280  -22.5030   18.5330 C   0  0  0  0  0  3  0  0  0  0  0  0
  -30.9020  -15.6820   19.7430 C   0  0  0  0  0  0  0  0  0  0  0  0
  -30.9950  -13.1140   19.1750 C   0  0  0  0  0  2  0  0  0  0  0  0
  -30.0710  -12.7240   17.9880 C   0  0  0  0  0  2  0  0  0  0  0  0
  -28.6280  -12.4720   18.4640 C   0  0  0  0  0  2  0  0  0  0  0  0
  -28.1650  -13.5570   19.4660 C   0  0  0  0  0  3  0  0  0  0  0  0
  -29.2130  -13.8390   20.5620 C   0  0  0  0  0  2  0  0  0  0  0  0
  -30.4290  -14.3290   19.8830 N   0  0  0  0  0  0  0  0  0  0  0  0
  -32.1100  -15.6930   19.4510 O   0  0  0  0  0  0  0  0  0  0  0  0
  -25.8600  -14.2150   20.3250 C   0  0  0  0  0  0  0  0  0  0  0  0
  -24.7710  -13.4860   20.7130 C   0  0  0  0  0  0  0  0  0  0  0  0
  -25.1600  -12.1140   20.6210 C   0  0  0  0  0  0  0  0  0  0  0  0
  -26.8410  -13.2930   20.0120 N   0  0  0  0  0  0  0  0  0  0  0  0
  -26.4360  -12.0190   20.2590 N   0  0  0  0  0  0  0  0  0  0  0  0
  -24.3720  -10.8880   20.8030 C   0  0  0  0  0  0  0  0  0  0  0  0
  -24.7660   -9.8800   21.7110 C   0  0  0  0  0  3  0  0  0  0  0  0
  -23.9780   -8.7210   21.8800 C   0  0  0  0  0  3  0  0  0  0  0  0
  -22.7810   -8.5620   21.1430 C   0  0  0  0  0  0  0  0  0  0  0  0
  -22.4050   -9.5570   20.2230 C   0  0  0  0  0  3  0  0  0  0  0  0
  -23.1940  -10.7070   20.0520 C   0  0  0  0  0  3  0  0  0  0  0  0
  -21.9650   -7.4580   21.2240 O   0  0  0  0  0  0  0  0  0  0  0  0
  -21.8680   -6.7170   22.3740 C   0  0  0  0  0  0  0  0  0  0  0  0
  -21.4230   -7.2820   23.5890 C   0  0  0  0  0  3  0  0  0  0  0  0
  -21.2730   -6.4690   24.7300 C   0  0  0  0  0  3  0  0  0  0  0  0
  -21.5570   -5.0930   24.6570 C   0  0  0  0  0  0  0  0  0  0  0  0
  -21.9940   -4.5270   23.4460 C   0  0  0  0  0  3  0  0  0  0  0  0
  -22.1480   -5.3370   22.3080 C   0  0  0  0  0  0  0  0  0  0  0  0
  -22.5490   -4.7840   21.1380 F   0  0  0  0  0  0  0  0  0  0  0  0
  -21.4060   -4.3090   25.7500 F   0  0  0  0  0  0  0  0  0  0  0  0
  -23.4120  -14.0290   21.0470 C   0  0  0  0  0  0  0  0  0  0  0  0
  -22.6810  -13.3510   21.9240 N   0  0  0  0  0  0  0  0  0  0  0  0
  -23.0130  -15.0900   20.5670 O   0  0  0  0  0  0  0  0  0  0  0  0
  -23.0190  -12.4920   22.3310 H   0  0  0  0  0  0  0  0  0  0  0  0
  -21.7710  -13.6970   22.1920 H   0  0  0  0  0  0  0  0  0  0  0  0
  -26.0910  -15.5810   20.1840 N   0  0  0  0  0  0  0  0  0  0  0  0
  -25.3650  -16.2700   20.3430 H   0  0  0  0  0  0  0  0  0  0  0  0
  -26.9360  -15.9800   19.7970 H   0  0  0  0  0  0  0  0  0  0  0  0
  -28.3250  -24.1920   18.1070 C   0  0  0  0  0  2  0  0  0  0  0  0
  -28.4850  -25.8570   18.2490 O   0  0  0  0  0  0  0  0  0  0  0  0
  -24.7220  -30.9310   22.4970 C   0  0  0  0  0  0  0  0  0  0  0  0
  -27.4030  -26.8950   18.4500 C   0  0  0  0  0  0  0  0  0  0  0  0
  -23.5140  -29.7570   20.7040 C   0  0  0  0  0  3  0  0  0  0  0  0
  -24.9670  -28.5710   18.9120 C   0  0  0  0  0  0  0  0  0  0  0  0
  -26.0410  -30.2090   20.4390 C   0  0  0  0  0  2  0  0  0  0  0  0
  -26.1680  -28.9510   19.5220 C   0  0  0  0  0  0  0  0  0  0  0  0
  -27.3720  -28.1380   19.2720 C   0  0  0  0  0  3  0  0  0  0  0  0
  -26.1520  -26.6890   17.8200 C   0  0  0  0  0  3  0  0  0  0  0  0
  -24.9840  -27.4690   18.0420 C   0  0  0  0  0  3  0  0  0  0  0  0
  -23.6880  -29.3570   19.2110 C   0  0  0  0  0  2  0  0  0  0  0  0
  -24.7830  -30.3190   21.2700 N   0  0  0  0  0  0  0  0  0  0  0  0
  -23.6590  -31.0220   23.1330 O   0  0  0  0  0  0  0  0  0  0  0  0
  -22.9730  -28.5460   21.5100 C   0  0  0  0  0  0  0  0  0  0  0  0
  -21.6590  -28.2700   21.4190 N   0  0  0  0  0  0  0  0  0  0  0  0
  -23.7440  -27.8610   22.1860 O   0  0  0  0  0  0  0  0  0  0  0  0
  -21.0830  -28.8790   20.8560 H   0  0  0  0  0  0  0  0  0  0  0  0
  -18.4420  -26.6560   21.8830 C   0  0  0  0  0  0  0  0  0  0  0  0
  -20.9800  -27.1320   22.0500 C   0  0  0  0  0  3  0  0  0  0  0  0
  -21.1680  -25.8420   21.2170 C   0  0  0  0  0  2  0  0  0  0  0  0
  -20.0300  -25.5940   20.2220 C   0  0  0  0  0  2  0  0  0  0  0  0
  -18.6910  -25.4780   20.9560 C   0  0  0  0  0  2  0  0  0  0  0  0
  -19.5150  -27.4420   22.3840 C   0  0  0  0  0  0  0  0  0  0  0  0
  -19.2240  -28.5430   23.2180 C   0  0  0  0  0  3  0  0  0  0  0  0
  -17.8950  -28.8620   23.5530 C   0  0  0  0  0  3  0  0  0  0  0  0
  -16.8370  -28.0740   23.0640 C   0  0  0  0  0  3  0  0  0  0  0  0
  -17.1130  -26.9720   22.2350 C   0  0  0  0  0  3  0  0  0  0  0  0
  -25.9860  -31.5640   23.1560 C   0  0  0  0  0  3  0  0  0  0  0  0
  -25.5720  -32.8070   23.8330 N   0  0  0  0  0  0  0  0  0  0  0  0
  -25.7460  -34.0420   23.3460 C   0  0  0  0  0  0  0  0  0  0  0  0
  -26.3310  -34.2620   22.2830 O   0  0  0  0  0  0  0  0  0  0  0  0
  -25.0300  -32.6980   24.6790 H   0  0  0  0  0  0  0  0  0  0  0  0
  -23.8480  -35.6870   23.5630 C   0  0  0  0  0  1  0  0  0  0  0  0
  -25.1840  -35.2230   24.1660 C   0  0  0  0  0  3  0  0  0  0  0  0
  -27.2920  -36.1040   25.0690 C   0  0  0  0  0  1  0  0  0  0  0  0
  -26.1100  -36.3750   24.2550 N   0  0  0  0  0  0  0  0  0  0  0  0
  -25.6380  -37.1870   24.6430 H   0  0  0  0  0  0  0  0  0  0  0  0
  -26.6940  -30.5990   24.1870 C   0  0  1  0  0  0  0  0  0  0  0  0
  -25.7390  -30.0190   25.2570 C   0  0  0  0  0  1  0  0  0  0  0  0
  -27.3590  -29.4070   23.4620 C   0  0  0  0  0  1  0  0  0  0  0  0
  -27.8280  -31.3550   24.9190 C   0  0  0  0  0  1  0  0  0  0  0  0
  1  2  2  0
  1  3  1  0
  3  4  1  0
  5  4  1  0
  6  9  1  0
  7  6  1  0
  7  8  1  0
  7  1  1  0
  8  5  1  0
  9 46  1  0
  9  8  1  0
 10  2  2  0
 10 16  1  0
 11 16  1  0
 12 13  1  0
 12 11  1  0
 14 13  1  0
 14 21  1  0
 14 15  1  0
 16 15  1  0
 17 10  2  0
 18 19  2  0
 19 38  1  0
 20 19  1  0
 20 23  1  0
 21 22  1  0
 21 18  1  0
 22 20  2  0
 23 24  1  0
 24 25  2  0
 26 29  1  0
 26 25  1  0
 27 26  2  0
 28 27  1  0
 28 23  2  0
 29 30  1  0
 30 31  1  0
 31 32  2  0
 33 32  1  0
 33 37  1  0
 34 33  2  0
 35 30  2  0
 35 34  1  0
 36 35  1  0
 38 39  1  0
 39 42  1  0
 39 41  1  0
 40 38  2  0
 43 18  1  0
 43 44  1  0
 45 43  1  0
 46 47  1  0
 47 49  1  0
 48 59  2  0
 49 54  1  0
 50 58  1  0
 50 60  1  0
 51 57  1  0
 51 53  1  0
 52 58  1  0
 53 52  1  0
 54 53  2  0
 55 56  1  0
 55 49  2  0
 56 51  2  0
 57 50  1  0
 58 48  1  0
 60 62  2  0
 61 60  1  0
 63 61  1  0
 64 73  2  0
 64 69  1  0
 65 61  1  0
 65 69  1  0
 66 65  1  0
 67 68  1  0
 67 66  1  0
 68 64  1  0
 69 70  2  0
 70 71  1  0
 72 71  2  0
 73 72  1  0
 74 48  1  0
 74 75  1  0
 74 84  1  0
 75 78  1  0
 76 75  1  0
 76 80  1  0
 77 76  2  0
 80 79  1  0
 80 82  1  0
 82 83  1  0
 82 81  1  0
 84 87  1  1
 84 85  1  0
 86 84  1  0
M  ISO  4   2 100  10 100  46 101  47 101
M  END
>  <TORSDO>  (50) 
F 17

>  <SCORE>  (50) 
-10.790

>  <name>  (50) 
49

>  <ligand_id>  (50) 
49

>  <original_smiles>  (50) 
[H]C(C(=O)N1C([H])([H])C([H])([H])C([H])([H])C([H])(n2nc(-c3c([H])c([H])c(Oc4c([H])c([H])c(F)c([H])c4F)c([H])c3[H])c(C(=O)N([H])[H])c2N([H])[H])C1([H])[H])=C1C([H])([H])C([H])([H])C([H])([H])C2([H])C1([H])C([H])([H])C2([H])C([H])([H])Oc1c([H])c([H])c2c(c1[H])C([H])([H])N(C(=O)C([H])(N([H])C(=O)C([H])(N([H])C([H])([H])[H])C([H])([H])[H])C(C([H])([H])[H])(C([H])([H])[H])C([H])([H])[H])C([H])(C(=O)N([H])C1([H])c3c([H])c([H])c([H])c([H])c3C([H])([H])C([H])([H])C1([H])[H])C2([H])[H]

>  <smiles>  (50) 
[H]C(C(=O)N1C([H])([H])C([H])([H])C([H])([H])C([H])(n2nc(-c3c([H])c([H])c(Oc4c([H])c([H])c(F)c([H])c4F)c([H])c3[H])c(C(=O)N([H])[H])c2N([H])[H])C1([H])[H])=C1C([H])([H])C([H])([H])C([H])([H])C2([H])C1([H])C([H])([H])C2([H])C([H])([H])Oc1c([H])c([H])c2c(c1[H])C([H])([H])N(C(=O)C([H])(N([H])C(=O)C([H])(N([H])C([H])([H])[H])C([H])([H])[H])C(C([H])([H])[H])(C([H])([H])[H])C([H])([H])[H])C([H])(C(=O)N([H])C1([H])c3c([H])c([H])c([H])c([H])c3C([H])([H])C([H])([H])C1([H])[H])C2([H])[H]

$$$$
50:0:0
     RDKit          3D

 91 99  0  0  1  0  0  0  0  0999 V2000
  -28.8770  -22.2110   20.5970 C   0  0  0  0  0  3  0  0  0  0  0  0
  -28.7000  -23.6380   20.6050 C   0  0  0  0  0  3  0  0  0  0  0  0
  -27.9060  -21.4420   21.4730 C   0  0  0  0  0  2  0  0  0  0  0  0
  -27.2930  -20.3870   20.5230 C   0  0  0  0  0  2  0  0  0  0  0  0
  -29.4810  -20.9550   19.7130 C   0  0  0  0  0  3  0  0  0  0  0  0
  -28.1150  -20.4450   19.2030 C   0  0  0  0  0  3  0  0  0  0  0  0
  -30.1300  -19.6680   20.4150 N   0  0  0  0  0  4  0  0  0  0  0  0
  -29.5410  -19.4880   21.2110 H   0  0  0  0  0  0  0  0  0  0  0  0
  -31.0110  -19.9760   20.7960 H   0  0  0  0  0  0  0  0  0  0  0  0
  -30.4180  -18.2440   19.7380 C   0  0  0  0  0  2  0  0  0  0  0  0
  -30.3610  -16.7350   20.5320 C   0  0  0  0  0  2  0  0  0  0  0  0
  -31.0710  -15.2830   20.0900 C   0  0  0  0  0  0  0  0  0  0  0  0
  -30.9310  -12.8900   19.2220 C   0  0  0  0  0  2  0  0  0  0  0  0
  -29.9890  -12.8230   17.9960 C   0  0  0  0  0  2  0  0  0  0  0  0
  -28.5260  -12.6410   18.4430 C   0  0  0  0  0  2  0  0  0  0  0  0
  -28.1410  -13.6060   19.5930 C   0  0  0  0  0  3  0  0  0  0  0  0
  -29.2030  -13.6320   20.7130 C   0  0  0  0  0  2  0  0  0  0  0  0
  -30.4800  -14.0140   20.0990 N   0  0  0  0  0  0  0  0  0  0  0  0
  -32.2410  -15.3160   19.6880 O   0  0  0  0  0  0  0  0  0  0  0  0
  -25.8000  -14.2490   20.4020 C   0  0  0  0  0  0  0  0  0  0  0  0
  -24.7140  -13.5040   20.7700 C   0  0  0  0  0  0  0  0  0  0  0  0
  -25.1240  -12.1380   20.6820 C   0  0  0  0  0  0  0  0  0  0  0  0
  -26.8020  -13.3400   20.1090 N   0  0  0  0  0  0  0  0  0  0  0  0
  -26.4050  -12.0620   20.3420 N   0  0  0  0  0  0  0  0  0  0  0  0
  -24.3500  -10.9000   20.8440 C   0  0  0  0  0  0  0  0  0  0  0  0
  -24.7380   -9.9000   21.7640 C   0  0  0  0  0  3  0  0  0  0  0  0
  -23.9660   -8.7280   21.9150 C   0  0  0  0  0  3  0  0  0  0  0  0
  -22.7910   -8.5460   21.1470 C   0  0  0  0  0  0  0  0  0  0  0  0
  -22.4220   -9.5340   20.2160 C   0  0  0  0  0  3  0  0  0  0  0  0
  -23.1950  -10.6980   20.0630 C   0  0  0  0  0  3  0  0  0  0  0  0
  -21.9940   -7.4290   21.2080 O   0  0  0  0  0  0  0  0  0  0  0  0
  -21.8680   -6.6970   22.3610 C   0  0  0  0  0  0  0  0  0  0  0  0
  -21.4040   -7.2730   23.5630 C   0  0  0  0  0  3  0  0  0  0  0  0
  -21.2240   -6.4700   24.7060 C   0  0  0  0  0  3  0  0  0  0  0  0
  -21.4990   -5.0900   24.6490 C   0  0  0  0  0  0  0  0  0  0  0  0
  -21.9580   -4.5140   23.4510 C   0  0  0  0  0  3  0  0  0  0  0  0
  -22.1380   -5.3150   22.3100 C   0  0  0  0  0  0  0  0  0  0  0  0
  -22.5600   -4.7500   21.1520 F   0  0  0  0  0  0  0  0  0  0  0  0
  -21.3200   -4.3150   25.7440 F   0  0  0  0  0  0  0  0  0  0  0  0
  -23.3440  -14.0260   21.0880 C   0  0  0  0  0  0  0  0  0  0  0  0
  -22.6100  -13.3360   21.9530 N   0  0  0  0  0  0  0  0  0  0  0  0
  -22.9360  -15.0830   20.6050 O   0  0  0  0  0  0  0  0  0  0  0  0
  -22.9540  -12.4800   22.3640 H   0  0  0  0  0  0  0  0  0  0  0  0
  -21.6910  -13.6680   22.2090 H   0  0  0  0  0  0  0  0  0  0  0  0
  -26.0160  -15.6180   20.2670 N   0  0  0  0  0  0  0  0  0  0  0  0
  -25.2770  -16.2970   20.4160 H   0  0  0  0  0  0  0  0  0  0  0  0
  -26.8670  -16.0300   19.9120 H   0  0  0  0  0  0  0  0  0  0  0  0
  -26.3400  -21.9600   18.0850 C   0  0  0  0  0  2  0  0  0  0  0  0
  -27.5420  -21.3570   18.1130 C   0  0  0  0  0  3  0  0  0  0  0  0
  -28.9560  -25.0140   19.7570 C   0  0  0  0  0  3  0  0  0  0  0  0
  -28.7830  -26.4450   20.3820 O   0  0  0  0  0  0  0  0  0  0  0  0
  -24.7730  -31.9180   23.2550 C   0  0  0  0  0  0  0  0  0  0  0  0
  -27.6650  -27.3560   20.2550 C   0  0  0  0  0  0  0  0  0  0  0  0
  -23.6950  -30.4950   21.5560 C   0  0  0  0  0  3  0  0  0  0  0  0
  -25.2590  -29.0020   20.1620 C   0  0  0  0  0  0  0  0  0  0  0  0
  -26.2370  -30.8750   21.4820 C   0  0  0  0  0  2  0  0  0  0  0  0
  -26.3950  -29.4940   20.8160 C   0  0  0  0  0  0  0  0  0  0  0  0
  -27.5950  -28.6860   20.8450 C   0  0  0  0  0  3  0  0  0  0  0  0
  -26.4970  -26.9680   19.5610 C   0  0  0  0  0  3  0  0  0  0  0  0
  -25.3250  -27.7560   19.5200 C   0  0  0  0  0  3  0  0  0  0  0  0
  -23.9930  -29.8460   20.1770 C   0  0  0  0  0  2  0  0  0  0  0  0
  -24.9190  -31.1180   22.1540 N   0  0  0  0  0  0  0  0  0  0  0  0
  -23.6560  -32.1460   23.7460 O   0  0  0  0  0  0  0  0  0  0  0  0
  -23.0270  -29.4460   22.4810 C   0  0  0  0  0  0  0  0  0  0  0  0
  -21.7030  -29.2550   22.3370 N   0  0  0  0  0  0  0  0  0  0  0  0
  -23.7040  -28.8080   23.2910 O   0  0  0  0  0  0  0  0  0  0  0  0
  -21.2150  -29.8230   21.6580 H   0  0  0  0  0  0  0  0  0  0  0  0
  -18.3330  -28.0180   22.8280 C   0  0  0  0  0  0  0  0  0  0  0  0
  -20.8950  -28.2760   23.0710 C   0  0  0  0  0  3  0  0  0  0  0  0
  -20.9930  -26.8730   22.4250 C   0  0  0  0  0  2  0  0  0  0  0  0
  -19.8780  -26.5950   21.4130 C   0  0  0  0  0  2  0  0  0  0  0  0
  -18.5040  -26.7040   22.0830 C   0  0  0  0  0  2  0  0  0  0  0  0
  -19.4550  -28.7620   23.2790 C   0  0  0  0  0  0  0  0  0  0  0  0
  -19.2410  -29.9920   23.9390 C   0  0  0  0  0  3  0  0  0  0  0  0
  -17.9370  -30.4780   24.1510 C   0  0  0  0  0  3  0  0  0  0  0  0
  -16.8290  -29.7290   23.7170 C   0  0  0  0  0  3  0  0  0  0  0  0
  -17.0290  -28.5010   23.0620 C   0  0  0  0  0  3  0  0  0  0  0  0
  -25.9970  -32.6000   23.9360 C   0  0  0  0  0  3  0  0  0  0  0  0
  -25.6310  -33.9960   24.2280 N   0  0  0  0  0  0  0  0  0  0  0  0
  -25.9630  -35.0490   23.4690 C   0  0  0  0  0  0  0  0  0  0  0  0
  -26.6770  -34.9510   22.4680 O   0  0  0  0  0  0  0  0  0  0  0  0
  -25.0000  -34.1440   25.0020 H   0  0  0  0  0  0  0  0  0  0  0  0
  -24.1920  -36.7830   23.0330 C   0  0  0  0  0  1  0  0  0  0  0  0
  -25.4210  -36.4300   23.8870 C   0  0  0  0  0  3  0  0  0  0  0  0
  -27.4990  -37.4010   24.7620 C   0  0  0  0  0  1  0  0  0  0  0  0
  -26.4220  -37.5140   23.7830 N   0  0  0  0  0  0  0  0  0  0  0  0
  -25.9830  -38.4230   23.8970 H   0  0  0  0  0  0  0  0  0  0  0  0
  -26.4620  -31.8680   25.2560 C   0  0  1  0  0  0  0  0  0  0  0  0
  -25.3150  -31.6090   26.2620 C   0  0  0  0  0  1  0  0  0  0  0  0
  -27.1140  -30.5050   24.9280 C   0  0  0  0  0  1  0  0  0  0  0  0
  -27.5420  -32.7120   25.9730 C   0  0  0  0  0  1  0  0  0  0  0  0
  1  2  1  0
  1  3  1  0
  4  3  1  0
  5  7  1  0
  5  1  1  0
  6 49  1  0
  6  5  1  0
  6  4  1  0
  7  9  1  0
  7  8  1  0
 10  7  1  0
 10 11  1  0
 12 18  1  0
 12 11  1  0
 13 18  1  0
 14 15  1  0
 14 13  1  0
 16 15  1  0
 16 23  1  0
 16 17  1  0
 18 17  1  0
 19 12  2  0
 20 21  2  0
 21 40  1  0
 22 21  1  0
 22 25  1  0
 23 24  1  0
 23 20  1  0
 24 22  2  0
 25 26  1  0
 26 27  2  0
 28 31  1  0
 28 27  1  0
 29 28  2  0
 30 29  1  0
 30 25  2  0
 31 32  1  0
 32 33  1  0
 33 34  2  0
 35 34  1  0
 35 39  1  0
 36 35  2  0
 37 32  2  0
 37 36  1  0
 38 37  1  0
 40 41  1  0
 41 44  1  0
 41 43  1  0
 42 40  2  0
 45 20  1  0
 45 46  1  0
 47 45  1  0
 48 49  2  0
 50 51  1  0
 50  2  2  0
 52 63  2  0
 53 51  1  0
 53 58  1  0
 54 62  1  0
 54 64  1  0
 55 61  1  0
 55 57  1  0
 56 62  1  0
 57 58  2  0
 57 56  1  0
 59 53  2  0
 60 59  1  0
 60 55  2  0
 61 54  1  0
 62 52  1  0
 64 66  2  0
 65 64  1  0
 67 65  1  0
 68 77  2  0
 68 73  1  0
 69 65  1  0
 69 73  1  0
 70 69  1  0
 71 72  1  0
 71 70  1  0
 72 68  1  0
 73 74  2  0
 74 75  1  0
 76 75  2  0
 77 76  1  0
 78 52  1  0
 78 79  1  0
 78 88  1  0
 79 82  1  0
 80 84  1  0
 80 79  1  0
 81 80  2  0
 84 83  1  0
 86 84  1  0
 86 87  1  0
 86 85  1  0
 88 91  1  1
 88 89  1  0
 90 88  1  0
M  ISO  4  11 100  12 100  50 101  51 101
M  END
>  <TORSDO>  (51) 
F 21

>  <SCORE>  (51) 
-12.787

>  <name>  (51) 
50

>  <ligand_id>  (51) 
50

>  <original_smiles>  (51) 
[H]C([H])=C([H])C1([H])C([H])([H])C([H])([H])C(=C([H])C([H])([H])Oc2c([H])c([H])c3c(c2[H])C([H])([H])N(C(=O)C([H])(N([H])C(=O)C([H])(N([H])C([H])([H])[H])C([H])([H])[H])C(C([H])([H])[H])(C([H])([H])[H])C([H])([H])[H])C([H])(C(=O)N([H])C2([H])c4c([H])c([H])c([H])c([H])c4C([H])([H])C([H])([H])C2([H])[H])C3([H])[H])C1([H])[N+]([H])([H])C([H])([H])C([H])([H])C(=O)N1C([H])([H])C([H])([H])C([H])([H])C([H])(n2nc(-c3c([H])c([H])c(Oc4c([H])c([H])c(F)c([H])c4F)c([H])c3[H])c(C(=O)N([H])[H])c2N([H])[H])C1([H])[H]

>  <smiles>  (51) 
[H]C([H])=C([H])C1([H])C([H])([H])C([H])([H])C(=C([H])C([H])([H])Oc2c([H])c([H])c3c(c2[H])C([H])([H])N(C(=O)C([H])(N([H])C(=O)C([H])(N([H])C([H])([H])[H])C([H])([H])[H])C(C([H])([H])[H])(C([H])([H])[H])C([H])([H])[H])C([H])(C(=O)N([H])C2([H])c4c([H])c([H])c([H])c([H])c4C([H])([H])C([H])([H])C2([H])[H])C3([H])[H])C1([H])[N+]([H])([H])C([H])([H])C([H])([H])C(=O)N1C([H])([H])C([H])([H])C([H])([H])C([H])(n2nc(-c3c([H])c([H])c(Oc4c([H])c([H])c(F)c([H])c4F)c([H])c3[H])c(C(=O)N([H])[H])c2N([H])[H])C1([H])[H]

$$$$
51:0:0
     RDKit          3D

 87 95  0  0  1  0  0  0  0  0999 V2000
  -29.2040  -20.3850   20.2830 C   0  0  0  0  0  3  0  0  0  0  0  0
  -28.4090  -20.7310   22.7710 C   0  0  0  0  0  2  0  0  0  0  0  0
  -29.4330  -21.8210   22.5790 C   0  0  0  0  0  3  0  0  0  0  0  0
  -29.5340  -20.5360   21.7700 C   0  0  0  0  0  3  0  0  0  0  0  0
  -30.9220  -23.3020   23.9910 C   0  0  0  0  0  2  0  0  0  0  0  0
  -30.4030  -22.1050   23.6750 C   0  0  0  0  0  3  0  0  0  0  0  0
  -29.9190  -17.2560   20.2620 C   0  0  0  0  0  3  0  0  0  0  0  0
  -30.0210  -18.7530   19.9150 C   0  0  0  0  0  3  0  0  0  0  0  0
  -30.7110  -15.7590   20.0080 C   0  0  0  0  0  0  0  0  0  0  0  0
  -30.7310  -13.2240   19.1740 C   0  0  0  0  0  2  0  0  0  0  0  0
  -29.8030  -12.8960   17.9690 C   0  0  0  0  0  2  0  0  0  0  0  0
  -28.3850  -12.5500   18.4500 C   0  0  0  0  0  2  0  0  0  0  0  0
  -27.9250  -13.5450   19.5410 C   0  0  0  0  0  3  0  0  0  0  0  0
  -28.9830  -13.8040   20.6370 C   0  0  0  0  0  2  0  0  0  0  0  0
  -30.1740  -14.3970   19.9860 N   0  0  0  0  0  0  0  0  0  0  0  0
  -31.9190  -15.6730   19.7200 O   0  0  0  0  0  0  0  0  0  0  0  0
  -25.6020  -14.1040   20.4050 C   0  0  0  0  0  0  0  0  0  0  0  0
  -24.5400  -13.3370   20.7880 C   0  0  0  0  0  0  0  0  0  0  0  0
  -24.9820  -11.9780   20.7060 C   0  0  0  0  0  0  0  0  0  0  0  0
  -26.6180  -13.2190   20.0970 N   0  0  0  0  0  0  0  0  0  0  0  0
  -26.2620  -11.9310   20.3430 N   0  0  0  0  0  0  0  0  0  0  0  0
  -24.2350  -10.7260   20.8850 C   0  0  0  0  0  0  0  0  0  0  0  0
  -24.6470   -9.7470   21.8140 C   0  0  0  0  0  3  0  0  0  0  0  0
  -23.9010   -8.5600   21.9870 C   0  0  0  0  0  3  0  0  0  0  0  0
  -22.7250   -8.3450   21.2310 C   0  0  0  0  0  0  0  0  0  0  0  0
  -22.3310   -9.3130   20.2880 C   0  0  0  0  0  3  0  0  0  0  0  0
  -23.0790  -10.4880   20.1140 C   0  0  0  0  0  3  0  0  0  0  0  0
  -21.9500   -7.2130   21.3120 O   0  0  0  0  0  0  0  0  0  0  0  0
  -21.8540   -6.4890   22.4750 C   0  0  0  0  0  0  0  0  0  0  0  0
  -21.3960   -7.0680   23.6790 C   0  0  0  0  0  3  0  0  0  0  0  0
  -21.2450   -6.2700   24.8320 C   0  0  0  0  0  3  0  0  0  0  0  0
  -21.5450   -4.8970   24.7810 C   0  0  0  0  0  0  0  0  0  0  0  0
  -21.9930   -4.3150   23.5810 C   0  0  0  0  0  3  0  0  0  0  0  0
  -22.1460   -5.1100   22.4310 C   0  0  0  0  0  0  0  0  0  0  0  0
  -22.5600   -4.5410   21.2730 F   0  0  0  0  0  0  0  0  0  0  0  0
  -21.3910   -4.1290   25.8840 F   0  0  0  0  0  0  0  0  0  0  0  0
  -23.1610  -13.8340   21.1120 C   0  0  0  0  0  0  0  0  0  0  0  0
  -22.4600  -13.1490   22.0080 N   0  0  0  0  0  0  0  0  0  0  0  0
  -22.7190  -14.8650   20.6060 O   0  0  0  0  0  0  0  0  0  0  0  0
  -22.8310  -12.3160   22.4360 H   0  0  0  0  0  0  0  0  0  0  0  0
  -21.5340  -13.4620   22.2660 H   0  0  0  0  0  0  0  0  0  0  0  0
  -25.7840  -15.4760   20.2590 N   0  0  0  0  0  0  0  0  0  0  0  0
  -25.0320  -16.1360   20.4170 H   0  0  0  0  0  0  0  0  0  0  0  0
  -26.6270  -15.9130   19.9050 H   0  0  0  0  0  0  0  0  0  0  0  0
  -29.1380  -22.1900   19.5790 C   0  0  0  0  0  2  0  0  0  0  0  0
  -28.1710  -23.8610   19.7920 C   0  0  0  0  0  2  0  0  0  0  0  0
  -28.2950  -25.5960   19.5600 O   0  0  0  0  0  0  0  0  0  0  0  0
  -24.7630  -31.6190   22.9200 C   0  0  0  0  0  0  0  0  0  0  0  0
  -27.2840  -26.7690   19.6120 C   0  0  0  0  0  0  0  0  0  0  0  0
  -23.5410  -30.2780   21.2580 C   0  0  0  0  0  3  0  0  0  0  0  0
  -24.9710  -28.7370   19.7200 C   0  0  0  0  0  0  0  0  0  0  0  0
  -26.1070  -30.4930   21.0480 C   0  0  0  0  0  2  0  0  0  0  0  0
  -26.1770  -29.0940   20.3270 C   0  0  0  0  0  0  0  0  0  0  0  0
  -27.3180  -28.1420   20.2430 C   0  0  0  0  0  3  0  0  0  0  0  0
  -26.0350  -26.6170   18.9540 C   0  0  0  0  0  3  0  0  0  0  0  0
  -24.9350  -27.5260   19.0070 C   0  0  0  0  0  3  0  0  0  0  0  0
  -23.7440  -29.6530   19.8470 C   0  0  0  0  0  2  0  0  0  0  0  0
  -24.8280  -30.8280   21.7950 N   0  0  0  0  0  0  0  0  0  0  0  0
  -23.6870  -31.8690   23.4910 O   0  0  0  0  0  0  0  0  0  0  0  0
  -22.8830  -29.2380   22.2060 C   0  0  0  0  0  0  0  0  0  0  0  0
  -21.5500  -29.0650   22.1230 N   0  0  0  0  0  0  0  0  0  0  0  0
  -23.5810  -28.5840   22.9830 O   0  0  0  0  0  0  0  0  0  0  0  0
  -21.0380  -29.6420   21.4700 H   0  0  0  0  0  0  0  0  0  0  0  0
  -18.2070  -27.7420   22.6600 C   0  0  0  0  0  0  0  0  0  0  0  0
  -20.7660  -28.0760   22.8750 C   0  0  0  0  0  3  0  0  0  0  0  0
  -20.8940  -26.6690   22.2440 C   0  0  0  0  0  2  0  0  0  0  0  0
  -19.7810  -26.3580   21.2390 C   0  0  0  0  0  2  0  0  0  0  0  0
  -18.4090  -26.4300   21.9180 C   0  0  0  0  0  2  0  0  0  0  0  0
  -19.3130  -28.5220   23.0920 C   0  0  0  0  0  0  0  0  0  0  0  0
  -19.0680  -29.7460   23.7490 C   0  0  0  0  0  3  0  0  0  0  0  0
  -17.7530  -30.1910   23.9780 C   0  0  0  0  0  3  0  0  0  0  0  0
  -16.6630  -29.4090   23.5620 C   0  0  0  0  0  3  0  0  0  0  0  0
  -16.8910  -28.1870   22.9060 C   0  0  0  0  0  3  0  0  0  0  0  0
  -26.0390  -32.2620   23.5460 C   0  0  0  0  0  3  0  0  0  0  0  0
  -25.6990  -33.6250   23.9960 N   0  0  0  0  0  0  0  0  0  0  0  0
  -25.9920  -34.7530   23.3340 C   0  0  0  0  0  0  0  0  0  0  0  0
  -26.6410  -34.7560   22.2860 O   0  0  0  0  0  0  0  0  0  0  0  0
  -25.1320  -33.6930   24.8280 H   0  0  0  0  0  0  0  0  0  0  0  0
  -24.2210  -36.5390   23.1940 C   0  0  0  0  0  1  0  0  0  0  0  0
  -25.4940  -36.0890   23.9280 C   0  0  0  0  0  3  0  0  0  0  0  0
  -27.6330  -36.9590   24.7670 C   0  0  0  0  0  1  0  0  0  0  0  0
  -26.4990  -37.1760   23.8740 N   0  0  0  0  0  0  0  0  0  0  0  0
  -26.0770  -38.0710   24.1080 H   0  0  0  0  0  0  0  0  0  0  0  0
  -26.6170  -31.4260   24.7550 C   0  0  1  0  0  0  0  0  0  0  0  0
  -25.5720  -31.1160   25.8520 C   0  0  0  0  0  1  0  0  0  0  0  0
  -27.2010  -30.0790   24.2750 C   0  0  0  0  0  1  0  0  0  0  0  0
  -27.7850  -32.2000   25.4110 C   0  0  0  0  0  1  0  0  0  0  0  0
  1 45  1  0
  3  2  1  0
  3  6  1  0
  4  1  1  0
  4  3  1  0
  4  2  1  0
  6  5  2  0
  8  7  2  0
  8  1  1  0
  9  7  1  0
 10 15  1  0
 11 12  1  0
 11 10  1  0
 13 12  1  0
 13 20  1  0
 13 14  1  0
 15  9  1  0
 15 14  1  0
 16  9  2  0
 17 18  2  0
 18 37  1  0
 19 18  1  0
 19 22  1  0
 20 21  1  0
 20 17  1  0
 21 19  2  0
 22 23  1  0
 23 24  2  0
 25 28  1  0
 25 24  1  0
 26 25  2  0
 27 26  1  0
 27 22  2  0
 28 29  1  0
 29 30  1  0
 30 31  2  0
 32 31  1  0
 32 36  1  0
 33 32  2  0
 34 29  2  0
 34 33  1  0
 35 34  1  0
 37 38  1  0
 38 41  1  0
 38 40  1  0
 39 37  2  0
 42 17  1  0
 42 43  1  0
 44 42  1  0
 45 46  1  0
 47 49  1  0
 47 46  1  0
 48 59  2  0
 49 54  1  0
 50 58  1  0
 50 60  1  0
 51 57  1  0
 51 53  1  0
 52 58  1  0
 53 52  1  0
 54 53  2  0
 55 56  1  0
 55 49  2  0
 56 51  2  0
 57 50  1  0
 58 48  1  0
 60 62  2  0
 61 60  1  0
 63 61  1  0
 64 73  2  0
 64 69  1  0
 65 61  1  0
 65 69  1  0
 66 65  1  0
 67 68  1  0
 67 66  1  0
 68 64  1  0
 69 70  2  0
 70 71  1  0
 72 71  2  0
 73 72  1  0
 74 48  1  0
 74 75  1  0
 74 84  1  0
 75 78  1  0
 76 80  1  0
 76 75  1  0
 77 76  2  0
 80 79  1  0
 82 80  1  0
 82 83  1  0
 82 81  1  0
 84 87  1  1
 84 85  1  0
 86 84  1  0
M  ISO  4   7 100   9 100  46 101  47 101
M  END
>  <TORSDO>  (52) 
F 21

>  <SCORE>  (52) 
-10.848

>  <name>  (52) 
51

>  <ligand_id>  (52) 
51

>  <original_smiles>  (52) 
[H]C([H])=C([H])C1([H])C([H])([H])C1([H])C([H])(C([H])=C([H])C(=O)N1C([H])([H])C([H])([H])C([H])([H])C([H])(n2nc(-c3c([H])c([H])c(Oc4c([H])c([H])c(F)c([H])c4F)c([H])c3[H])c(C(=O)N([H])[H])c2N([H])[H])C1([H])[H])C([H])([H])C([H])([H])Oc1c([H])c([H])c2c(c1[H])C([H])([H])N(C(=O)C([H])(N([H])C(=O)C([H])(N([H])C([H])([H])[H])C([H])([H])[H])C(C([H])([H])[H])(C([H])([H])[H])C([H])([H])[H])C([H])(C(=O)N([H])C1([H])c3c([H])c([H])c([H])c([H])c3C([H])([H])C([H])([H])C1([H])[H])C2([H])[H]

>  <smiles>  (52) 
[H]C([H])=C([H])C1([H])C([H])([H])C1([H])C([H])(C([H])=C([H])C(=O)N1C([H])([H])C([H])([H])C([H])([H])C([H])(n2nc(-c3c([H])c([H])c(Oc4c([H])c([H])c(F)c([H])c4F)c([H])c3[H])c(C(=O)N([H])[H])c2N([H])[H])C1([H])[H])C([H])([H])C([H])([H])Oc1c([H])c([H])c2c(c1[H])C([H])([H])N(C(=O)C([H])(N([H])C(=O)C([H])(N([H])C([H])([H])[H])C([H])([H])[H])C(C([H])([H])[H])(C([H])([H])[H])C([H])([H])[H])C([H])(C(=O)N([H])C1([H])c3c([H])c([H])c([H])c([H])c3C([H])([H])C([H])([H])C1([H])[H])C2([H])[H]

$$$$
52:0:0
     RDKit          3D

 90 98  0  0  1  0  0  0  0  0999 V2000
  -28.8340  -21.0670   20.0690 N   0  0  0  0  0  4  0  0  0  0  0  0
  -27.8460  -20.8720   20.0970 H   0  0  0  0  0  0  0  0  0  0  0  0
  -29.0780  -21.1470   19.0960 H   0  0  0  0  0  0  0  0  0  0  0  0
  -29.8990  -17.2820   20.4490 C   0  0  0  0  0  0  0  0  0  0  0  0
  -31.1560  -18.0070   20.1690 C   0  0  0  0  0  0  0  0  0  0  0  0
  -29.6690  -15.9140   20.5660 C   0  0  0  0  0  3  0  0  0  0  0  0
  -28.8380  -18.4220   20.5350 C   0  0  0  0  0  2  0  0  0  0  0  0
  -30.9300  -19.5270   20.0170 C   0  0  0  0  0  2  0  0  0  0  0  0
  -29.5530  -19.8370   20.6480 C   0  0  0  0  0  3  0  0  0  0  0  0
  -32.2890  -17.5310   20.0770 O   0  0  0  0  0  0  0  0  0  0  0  0
  -30.5690  -14.7160   20.3590 C   0  0  0  0  0  0  0  0  0  0  0  0
  -30.3900  -12.4360   19.3630 C   0  0  0  0  0  2  0  0  0  0  0  0
  -29.4500  -12.5260   18.1370 C   0  0  0  0  0  2  0  0  0  0  0  0
  -27.9750  -12.3570   18.5580 C   0  0  0  0  0  2  0  0  0  0  0  0
  -27.6030  -13.2360   19.7800 C   0  0  0  0  0  3  0  0  0  0  0  0
  -28.6600  -13.1130   20.8990 C   0  0  0  0  0  2  0  0  0  0  0  0
  -29.9640  -13.4770   20.3260 N   0  0  0  0  0  0  0  0  0  0  0  0
  -31.7580  -14.7950   20.0390 O   0  0  0  0  0  0  0  0  0  0  0  0
  -25.2130  -13.8380   20.4990 C   0  0  0  0  0  0  0  0  0  0  0  0
  -24.1460  -13.0660   20.8710 C   0  0  0  0  0  0  0  0  0  0  0  0
  -24.6110  -11.7150   20.8520 C   0  0  0  0  0  0  0  0  0  0  0  0
  -26.2570  -12.9560   20.2690 N   0  0  0  0  0  0  0  0  0  0  0  0
  -25.9020  -11.6760   20.5450 N   0  0  0  0  0  0  0  0  0  0  0  0
  -23.8870  -10.4520   21.0460 C   0  0  0  0  0  0  0  0  0  0  0  0
  -24.3290   -9.4830   21.9720 C   0  0  0  0  0  3  0  0  0  0  0  0
  -23.6050   -8.2850   22.1550 C   0  0  0  0  0  3  0  0  0  0  0  0
  -22.4240   -8.0490   21.4120 C   0  0  0  0  0  0  0  0  0  0  0  0
  -22.0010   -9.0090   20.4750 C   0  0  0  0  0  3  0  0  0  0  0  0
  -22.7250  -10.1980   20.2890 C   0  0  0  0  0  3  0  0  0  0  0  0
  -21.6690   -6.9050   21.5060 O   0  0  0  0  0  0  0  0  0  0  0  0
  -21.6460   -6.1500   22.6510 C   0  0  0  0  0  0  0  0  0  0  0  0
  -21.2610   -6.6930   23.8960 C   0  0  0  0  0  3  0  0  0  0  0  0
  -21.1850   -5.8660   25.0340 C   0  0  0  0  0  3  0  0  0  0  0  0
  -21.4840   -4.4940   24.9280 C   0  0  0  0  0  0  0  0  0  0  0  0
  -21.8610   -3.9490   23.6880 C   0  0  0  0  0  3  0  0  0  0  0  0
  -21.9390   -4.7750   22.5520 C   0  0  0  0  0  0  0  0  0  0  0  0
  -22.2830   -4.2400   21.3560 F   0  0  0  0  0  0  0  0  0  0  0  0
  -21.4020   -3.6950   26.0170 F   0  0  0  0  0  0  0  0  0  0  0  0
  -22.7470  -13.5420   21.1360 C   0  0  0  0  0  0  0  0  0  0  0  0
  -22.0150  -12.8500   22.0020 N   0  0  0  0  0  0  0  0  0  0  0  0
  -22.3100  -14.5650   20.6080 O   0  0  0  0  0  0  0  0  0  0  0  0
  -22.3790  -12.0210   22.4500 H   0  0  0  0  0  0  0  0  0  0  0  0
  -21.0780  -13.1540   22.2220 H   0  0  0  0  0  0  0  0  0  0  0  0
  -25.3760  -15.2070   20.3110 N   0  0  0  0  0  0  0  0  0  0  0  0
  -24.6060  -15.8590   20.4090 H   0  0  0  0  0  0  0  0  0  0  0  0
  -26.2190  -15.6430   19.9610 H   0  0  0  0  0  0  0  0  0  0  0  0
  -29.0080  -22.4350   20.7380 C   0  0  0  0  0  3  0  0  0  0  0  0
  -28.5220  -23.7670   19.9610 C   0  0  0  0  0  3  0  0  0  0  0  0
  -28.2800  -25.1160   20.8050 C   0  0  0  0  0  2  0  0  0  0  0  0
  -28.3640  -26.4720   20.1940 O   0  0  0  0  0  0  0  0  0  0  0  0
  -24.6180  -31.8740   23.2420 C   0  0  0  0  0  0  0  0  0  0  0  0
  -27.2380  -27.3070   20.2080 C   0  0  0  0  0  0  0  0  0  0  0  0
  -23.4150  -30.4670   21.6070 C   0  0  0  0  0  3  0  0  0  0  0  0
  -24.8690  -28.9100   20.1870 C   0  0  0  0  0  0  0  0  0  0  0  0
  -25.9520  -30.7930   21.4170 C   0  0  0  0  0  2  0  0  0  0  0  0
  -26.0370  -29.4090   20.7780 C   0  0  0  0  0  0  0  0  0  0  0  0
  -27.2280  -28.6220   20.7720 C   0  0  0  0  0  3  0  0  0  0  0  0
  -26.0500  -26.8530   19.6010 C   0  0  0  0  0  3  0  0  0  0  0  0
  -24.8780  -27.6380   19.5880 C   0  0  0  0  0  3  0  0  0  0  0  0
  -23.6290  -29.7820   20.2300 C   0  0  0  0  0  2  0  0  0  0  0  0
  -24.6810  -31.0630   22.1450 N   0  0  0  0  0  0  0  0  0  0  0  0
  -23.5350  -32.1520   23.7770 O   0  0  0  0  0  0  0  0  0  0  0  0
  -22.7550  -29.4550   22.5720 C   0  0  0  0  0  0  0  0  0  0  0  0
  -21.4290  -29.2770   22.4470 N   0  0  0  0  0  0  0  0  0  0  0  0
  -23.4350  -28.8310   23.3910 O   0  0  0  0  0  0  0  0  0  0  0  0
  -20.9390  -29.8330   21.7600 H   0  0  0  0  0  0  0  0  0  0  0  0
  -18.0530  -28.0760   22.9510 C   0  0  0  0  0  0  0  0  0  0  0  0
  -20.6120  -28.3390   23.2210 C   0  0  0  0  0  3  0  0  0  0  0  0
  -20.7150  -26.9070   22.6490 C   0  0  0  0  0  2  0  0  0  0  0  0
  -19.6140  -26.5800   21.6350 C   0  0  0  0  0  2  0  0  0  0  0  0
  -18.2310  -26.7250   22.2800 C   0  0  0  0  0  2  0  0  0  0  0  0
  -19.1720  -28.8410   23.3790 C   0  0  0  0  0  0  0  0  0  0  0  0
  -18.9510  -30.1050   23.9680 C   0  0  0  0  0  3  0  0  0  0  0  0
  -17.6450  -30.6050   24.1320 C   0  0  0  0  0  3  0  0  0  0  0  0
  -16.5430  -29.8370   23.7210 C   0  0  0  0  0  3  0  0  0  0  0  0
  -16.7470  -28.5750   23.1360 C   0  0  0  0  0  3  0  0  0  0  0  0
  -25.9000  -32.5110   23.8630 C   0  0  0  0  0  3  0  0  0  0  0  0
  -26.4190  -31.7410   25.1400 C   0  0  1  0  0  0  0  0  0  0  0  0
  -25.3280  -31.5050   26.2100 C   0  0  0  0  0  1  0  0  0  0  0  0
  -27.0030  -30.3640   24.7480 C   0  0  0  0  0  1  0  0  0  0  0  0
  -27.5720  -32.5370   25.7970 C   0  0  0  0  0  1  0  0  0  0  0  0
  -25.5870  -33.9080   24.1940 N   0  0  0  0  0  0  0  0  0  0  0  0
  -25.9150  -34.9620   23.4340 C   0  0  0  0  0  0  0  0  0  0  0  0
  -26.5810  -34.8600   22.4000 O   0  0  0  0  0  0  0  0  0  0  0  0
  -24.9950  -34.0620   24.9970 H   0  0  0  0  0  0  0  0  0  0  0  0
  -24.1790  -36.7490   23.0900 C   0  0  0  0  0  1  0  0  0  0  0  0
  -25.4260  -36.3500   23.8940 C   0  0  0  0  0  3  0  0  0  0  0  0
  -27.5660  -37.2390   24.7070 C   0  0  0  0  0  1  0  0  0  0  0  0
  -26.4550  -37.4060   23.7740 N   0  0  0  0  0  0  0  0  0  0  0  0
  -26.0480  -38.3250   23.9270 H   0  0  0  0  0  0  0  0  0  0  0  0
  1  2  1  0
  1 47  1  0
  3  1  1  0
  4  7  1  0
  4  6  2  0
  5  4  1  0
  7  9  1  0
  8  5  1  0
  8  9  1  0
  9  1  1  0
 10  5  2  0
 11  6  1  0
 12 17  1  0
 13 14  1  0
 13 12  1  0
 15 14  1  0
 15 22  1  0
 15 16  1  0
 17 11  1  0
 17 16  1  0
 18 11  2  0
 19 20  2  0
 20 39  1  0
 21 20  1  0
 21 24  1  0
 22 19  1  0
 22 23  1  0
 23 21  2  0
 24 25  1  0
 25 26  2  0
 27 30  1  0
 27 26  1  0
 28 27  2  0
 29 28  1  0
 29 24  2  0
 30 31  1  0
 31 32  1  0
 32 33  2  0
 34 33  1  0
 34 38  1  0
 35 34  2  0
 36 31  2  0
 36 35  1  0
 37 36  1  0
 39 40  1  0
 40 43  1  0
 40 42  1  0
 41 39  2  0
 44 45  1  0
 44 19  1  0
 46 44  1  0
 48 47  2  0
 48 49  1  0
 50 52  1  0
 50 49  1  0
 51 62  2  0
 52 57  1  0
 53 61  1  0
 53 63  1  0
 54 60  1  0
 54 56  1  0
 55 61  1  0
 56 55  1  0
 57 56  2  0
 58 52  2  0
 59 58  1  0
 59 54  2  0
 60 53  1  0
 61 51  1  0
 63 65  2  0
 64 63  1  0
 66 64  1  0
 67 76  2  0
 67 72  1  0
 68 64  1  0
 68 72  1  0
 69 68  1  0
 70 71  1  0
 70 69  1  0
 71 67  1  0
 72 73  2  0
 73 74  1  0
 75 74  2  0
 76 75  1  0
 77 51  1  0
 77 82  1  0
 77 78  1  0
 78 81  1  1
 78 79  1  0
 80 78  1  0
 82 85  1  0
 83 87  1  0
 83 82  1  0
 84 83  2  0
 87 86  1  0
 89 87  1  0
 89 90  1  0
 89 88  1  0
M  ISO  4   6 100  11 100  49 101  50 101
M  END
>  <TORSDO>  (53) 
F 20

>  <SCORE>  (53) 
-13.822

>  <name>  (53) 
52

>  <ligand_id>  (53) 
52

>  <original_smiles>  (53) 
[H]C(C(=O)N1C([H])([H])C([H])([H])C([H])([H])C([H])(n2nc(-c3c([H])c([H])c(Oc4c([H])c([H])c(F)c([H])c4F)c([H])c3[H])c(C(=O)N([H])[H])c2N([H])[H])C1([H])[H])=C1C(=O)C([H])([H])C([H])([N+]([H])([H])C([H])([H])C([H])([H])C([H])([H])Oc2c([H])c([H])c3c(c2[H])C([H])([H])N(C(=O)C([H])(N([H])C(=O)C([H])(N([H])C([H])([H])[H])C([H])([H])[H])C(C([H])([H])[H])(C([H])([H])[H])C([H])([H])[H])C([H])(C(=O)N([H])C2([H])c4c([H])c([H])c([H])c([H])c4C([H])([H])C([H])([H])C2([H])[H])C3([H])[H])C1([H])[H]

>  <smiles>  (53) 
[H]C(C(=O)N1C([H])([H])C([H])([H])C([H])([H])C([H])(n2nc(-c3c([H])c([H])c(Oc4c([H])c([H])c(F)c([H])c4F)c([H])c3[H])c(C(=O)N([H])[H])c2N([H])[H])C1([H])[H])=C1C(=O)C([H])([H])C([H])([N+]([H])([H])C([H])([H])C([H])([H])C([H])([H])Oc2c([H])c([H])c3c(c2[H])C([H])([H])N(C(=O)C([H])(N([H])C(=O)C([H])(N([H])C([H])([H])[H])C([H])([H])[H])C(C([H])([H])[H])(C([H])([H])[H])C([H])([H])[H])C([H])(C(=O)N([H])C2([H])c4c([H])c([H])c([H])c([H])c4C([H])([H])C([H])([H])C2([H])[H])C3([H])[H])C1([H])[H]

$$$$
53:0:0
     RDKit          3D

 98109  0  0  1  0  0  0  0  0999 V2000
  -31.7490  -23.2440   21.6180 C   0  0  0  0  0  3  0  0  0  0  0  0
  -30.6760  -23.1790   20.6750 C   0  0  0  0  0  3  0  0  0  0  0  0
  -32.2580  -22.0910   22.2670 C   0  0  0  0  0  3  0  0  0  0  0  0
  -30.0360  -21.9580   20.3020 C   0  0  0  0  0  0  0  0  0  0  0  0
  -30.6070  -20.8210   20.9240 C   0  0  0  0  0  0  0  0  0  0  0  0
  -31.6370  -20.8970   21.9020 C   0  0  0  0  0  0  0  0  0  0  0  0
  -31.3670  -18.4760   19.9720 C   0  0  0  0  0  0  0  0  0  0  0  0
  -32.8210  -18.8500   20.0430 C   0  0  0  0  0  2  0  0  0  0  0  0
  -33.0360  -19.0420   21.5500 C   0  0  0  0  0  2  0  0  0  0  0  0
  -30.6670  -19.3080   21.0630 C   0  0  0  0  0  3  0  0  0  0  0  0
  -30.9850  -17.4870   19.2560 N   0  0  0  0  0  0  0  0  0  0  0  0
  -31.7630  -19.5110   22.0990 N   0  0  0  0  0  0  0  0  0  0  0  0
  -28.6530  -23.1280   18.3980 C   0  0  0  0  0  0  0  0  0  0  0  0
  -28.1650  -24.3670   18.6600 C   0  0  0  0  0  3  0  0  0  0  0  0
  -28.8960  -22.6500   16.9880 C   0  0  0  0  0  2  0  0  0  0  0  0
  -28.4460  -21.1930   17.0230 C   0  0  0  0  0  2  0  0  0  0  0  0
  -28.8930  -20.7060   18.4030 C   0  0  0  0  0  2  0  0  0  0  0  0
  -28.8390  -21.9290   19.3440 C   0  0  0  0  0  3  0  0  0  0  0  0
  -27.7590  -24.9750   19.9960 C   0  0  0  0  0  2  0  0  0  0  0  0
  -27.9170  -26.4110   20.0000 O   0  0  0  0  0  0  0  0  0  0  0  0
  -24.4960  -31.7240   23.2980 C   0  0  0  0  0  0  0  0  0  0  0  0
  -26.7830  -27.2050   20.0280 C   0  0  0  0  0  0  0  0  0  0  0  0
  -23.1650  -30.4390   21.6570 C   0  0  0  0  0  3  0  0  0  0  0  0
  -24.4840  -28.8590   20.1520 C   0  0  0  0  0  0  0  0  0  0  0  0
  -25.7020  -30.6530   21.3940 C   0  0  0  0  0  2  0  0  0  0  0  0
  -25.6880  -29.2970   20.7150 C   0  0  0  0  0  0  0  0  0  0  0  0
  -26.8410  -28.4780   20.6470 C   0  0  0  0  0  3  0  0  0  0  0  0
  -25.5610  -26.7930   19.4500 C   0  0  0  0  0  3  0  0  0  0  0  0
  -24.4150  -27.6080   19.5160 C   0  0  0  0  0  3  0  0  0  0  0  0
  -23.2950  -29.7880   20.2560 C   0  0  0  0  0  2  0  0  0  0  0  0
  -24.4750  -30.9510   22.1740 N   0  0  0  0  0  0  0  0  0  0  0  0
  -23.4460  -32.0450   23.8740 O   0  0  0  0  0  0  0  0  0  0  0  0
  -22.4810  -29.4320   22.6090 C   0  0  0  0  0  0  0  0  0  0  0  0
  -21.1600  -29.2540   22.4440 N   0  0  0  0  0  0  0  0  0  0  0  0
  -23.1380  -28.8100   23.4490 O   0  0  0  0  0  0  0  0  0  0  0  0
  -20.6930  -29.8070   21.7400 H   0  0  0  0  0  0  0  0  0  0  0  0
  -17.7830  -28.0190   22.7940 C   0  0  0  0  0  0  0  0  0  0  0  0
  -20.3160  -28.3290   23.2000 C   0  0  0  0  0  3  0  0  0  0  0  0
  -20.4720  -26.8810   22.6800 C   0  0  0  0  0  2  0  0  0  0  0  0
  -19.4360  -26.5060   21.6170 C   0  0  0  0  0  2  0  0  0  0  0  0
  -18.0180  -26.6500   22.1770 C   0  0  0  0  0  2  0  0  0  0  0  0
  -18.8630  -28.8140   23.2590 C   0  0  0  0  0  0  0  0  0  0  0  0
  -18.5920  -30.0940   23.7900 C   0  0  0  0  0  3  0  0  0  0  0  0
  -17.2740  -30.5800   23.8620 C   0  0  0  0  0  3  0  0  0  0  0  0
  -16.2060  -29.7820   23.4170 C   0  0  0  0  0  3  0  0  0  0  0  0
  -16.4610  -28.5030   22.8880 C   0  0  0  0  0  3  0  0  0  0  0  0
  -25.8330  -32.2630   23.8960 C   0  0  0  0  0  3  0  0  0  0  0  0
  -26.3160  -31.4600   25.1660 C   0  0  1  0  0  0  0  0  0  0  0  0
  -25.2230  -31.2890   26.2460 C   0  0  0  0  0  1  0  0  0  0  0  0
  -26.8070  -30.0500   24.7650 C   0  0  0  0  0  1  0  0  0  0  0  0
  -27.5230  -32.1800   25.8140 C   0  0  0  0  0  1  0  0  0  0  0  0
  -25.6320  -33.6810   24.2220 N   0  0  0  0  0  0  0  0  0  0  0  0
  -26.0320  -34.7020   23.4520 C   0  0  0  0  0  0  0  0  0  0  0  0
  -26.6790  -34.5440   22.4130 O   0  0  0  0  0  0  0  0  0  0  0  0
  -25.0600  -33.8830   25.0290 H   0  0  0  0  0  0  0  0  0  0  0  0
  -24.4420  -36.6180   23.0980 C   0  0  0  0  0  1  0  0  0  0  0  0
  -25.6520  -36.1230   23.9060 C   0  0  0  0  0  3  0  0  0  0  0  0
  -27.8430  -36.8560   24.7400 C   0  0  0  0  0  1  0  0  0  0  0  0
  -26.7610  -37.0950   23.7880 N   0  0  0  0  0  0  0  0  0  0  0  0
  -26.4230  -38.0440   23.9250 H   0  0  0  0  0  0  0  0  0  0  0  0
  -29.7050  -16.8050   19.4050 C   0  0  0  0  0  2  0  0  0  0  0  0
  -29.7980  -15.5490   20.3380 C   0  0  0  0  0  2  0  0  0  0  0  0
  -30.4520  -14.2660   19.7350 C   0  0  0  0  0  0  0  0  0  0  0  0
  -30.1980  -11.9520   18.8970 C   0  0  0  0  0  2  0  0  0  0  0  0
  -29.1560  -11.9550   17.7600 C   0  0  0  0  0  2  0  0  0  0  0  0
  -27.7290  -11.8050   18.3250 C   0  0  0  0  0  2  0  0  0  0  0  0
  -27.4480  -12.7780   19.5030 C   0  0  0  0  0  3  0  0  0  0  0  0
  -28.6000  -12.7370   20.5310 C   0  0  0  0  0  2  0  0  0  0  0  0
  -29.8480  -13.0440   19.8210 N   0  0  0  0  0  0  0  0  0  0  0  0
  -31.5110  -14.4030   19.1190 O   0  0  0  0  0  0  0  0  0  0  0  0
  -25.1570  -13.3940   20.5000 C   0  0  0  0  0  0  0  0  0  0  0  0
  -24.1230  -12.6250   20.9630 C   0  0  0  0  0  0  0  0  0  0  0  0
  -24.5530  -11.2690   20.8360 C   0  0  0  0  0  0  0  0  0  0  0  0
  -26.1520  -12.5060   20.1230 N   0  0  0  0  0  0  0  0  0  0  0  0
  -25.7980  -11.2210   20.3810 N   0  0  0  0  0  0  0  0  0  0  0  0
  -23.8300  -10.0120   21.0700 C   0  0  0  0  0  0  0  0  0  0  0  0
  -24.2700   -9.0760   22.0310 C   0  0  0  0  0  3  0  0  0  0  0  0
  -23.5480   -7.8820   22.2500 C   0  0  0  0  0  3  0  0  0  0  0  0
  -22.3720   -7.6170   21.5080 C   0  0  0  0  0  0  0  0  0  0  0  0
  -21.9520   -8.5420   20.5360 C   0  0  0  0  0  3  0  0  0  0  0  0
  -22.6740   -9.7270   20.3160 C   0  0  0  0  0  3  0  0  0  0  0  0
  -21.6220   -6.4720   21.6350 O   0  0  0  0  0  0  0  0  0  0  0  0
  -21.5020   -5.8190   22.8340 C   0  0  0  0  0  0  0  0  0  0  0  0
  -20.9140   -6.4350   23.9610 C   0  0  0  0  0  3  0  0  0  0  0  0
  -20.7460   -5.7040   25.1550 C   0  0  0  0  0  3  0  0  0  0  0  0
  -21.1560   -4.3600   25.2210 C   0  0  0  0  0  0  0  0  0  0  0  0
  -21.7390   -3.7450   24.0990 C   0  0  0  0  0  3  0  0  0  0  0  0
  -21.9080   -4.4720   22.9080 C   0  0  0  0  0  0  0  0  0  0  0  0
  -22.4490   -3.8670   21.8230 F   0  0  0  0  0  0  0  0  0  0  0  0
  -20.9880   -3.6550   26.3650 F   0  0  0  0  0  0  0  0  0  0  0  0
  -22.7750  -13.1130   21.4100 C   0  0  0  0  0  0  0  0  0  0  0  0
  -22.1300  -12.3850   22.3140 N   0  0  0  0  0  0  0  0  0  0  0  0
  -22.3070  -14.1720   20.9940 O   0  0  0  0  0  0  0  0  0  0  0  0
  -22.5270  -11.5280   22.6720 H   0  0  0  0  0  0  0  0  0  0  0  0
  -21.2280  -12.6860   22.6530 H   0  0  0  0  0  0  0  0  0  0  0  0
  -25.3260  -14.7670   20.3480 N   0  0  0  0  0  0  0  0  0  0  0  0
  -24.5920  -15.4320   20.5670 H   0  0  0  0  0  0  0  0  0  0  0  0
  -26.1450  -15.2000   19.9400 H   0  0  0  0  0  0  0  0  0  0  0  0
  1  3  1  0
  2  1  2  0
  4  2  1  0
  4  5  2  0
  5 10  1  0
  5  6  1  0
  6 12  1  0
  6  3  2  0
  7  8  1  0
  8  9  1  0
  9 12  1  0
 10  7  1  0
 10 12  1  0
 11 61  1  0
 11  7  2  0
 13 14  2  0
 13 18  1  0
 14 19  1  0
 15 16  1  0
 15 13  1  0
 16 17  1  0
 17 18  1  0
 18  4  1  0
 19 20  1  0
 20 22  1  0
 21 32  2  0
 22 27  1  0
 23 31  1  0
 23 33  1  0
 24 30  1  0
 24 26  1  0
 25 31  1  0
 26 25  1  0
 27 26  2  0
 28 29  1  0
 28 22  2  0
 29 24  2  0
 30 23  1  0
 31 21  1  0
 33 35  2  0
 34 33  1  0
 36 34  1  0
 37 46  2  0
 37 42  1  0
 38 34  1  0
 38 42  1  0
 39 38  1  0
 40 41  1  0
 40 39  1  0
 41 37  1  0
 42 43  2  0
 43 44  1  0
 45 44  2  0
 46 45  1  0
 47 21  1  0
 47 52  1  0
 47 48  1  0
 48 51  1  1
 48 49  1  0
 50 48  1  0
 52 55  1  0
 53 57  1  0
 53 52  1  0
 54 53  2  0
 57 56  1  0
 59 57  1  0
 59 60  1  0
 59 58  1  0
 61 62  1  0
 63 69  1  0
 63 62  1  0
 64 69  1  0
 65 66  1  0
 65 64  1  0
 67 66  1  0
 67 74  1  0
 67 68  1  0
 69 68  1  0
 70 63  2  0
 71 72  2  0
 72 91  1  0
 73 72  1  0
 73 76  1  0
 74 75  1  0
 74 71  1  0
 75 73  2  0
 76 77  1  0
 77 78  2  0
 79 82  1  0
 79 78  1  0
 80 79  2  0
 81 80  1  0
 81 76  2  0
 82 83  1  0
 83 88  2  0
 83 84  1  0
 84 85  2  0
 85 86  1  0
 86 90  1  0
 87 86  2  0
 88 87  1  0
 89 88  1  0
 91 92  1  0
 92 95  1  0
 92 94  1  0
 93 91  2  0
 96 71  1  0
 96 97  1  0
 98 96  1  0
M  ISO  4  19 101  20 101  62 100  63 100
M  END
>  <TORSDO>  (54) 
F 20

>  <SCORE>  (54) 
-11.193

>  <name>  (54) 
53

>  <ligand_id>  (54) 
53

>  <original_smiles>  (54) 
[H]C(=C1C([H])([H])C([H])([H])C([H])([H])C1([H])c1c([H])c([H])c([H])c2c1C1([H])C(=NC([H])([H])C([H])([H])C(=O)N3C([H])([H])C([H])([H])C([H])([H])C([H])(n4nc(-c5c([H])c([H])c(Oc6c([H])c([H])c(F)c([H])c6F)c([H])c5[H])c(C(=O)N([H])[H])c4N([H])[H])C3([H])[H])C([H])([H])C([H])([H])N21)C([H])([H])Oc1c([H])c([H])c2c(c1[H])C([H])([H])N(C(=O)C([H])(N([H])C(=O)C([H])(N([H])C([H])([H])[H])C([H])([H])[H])C(C([H])([H])[H])(C([H])([H])[H])C([H])([H])[H])C([H])(C(=O)N([H])C1([H])c3c([H])c([H])c([H])c([H])c3C([H])([H])C([H])([H])C1([H])[H])C2([H])[H]

>  <smiles>  (54) 
[H]C(=C1C([H])([H])C([H])([H])C([H])([H])C1([H])c1c([H])c([H])c([H])c2c1C1([H])C(=NC([H])([H])C([H])([H])C(=O)N3C([H])([H])C([H])([H])C([H])([H])C([H])(n4nc(-c5c([H])c([H])c(Oc6c([H])c([H])c(F)c([H])c6F)c([H])c5[H])c(C(=O)N([H])[H])c4N([H])[H])C3([H])[H])C([H])([H])C([H])([H])N21)C([H])([H])Oc1c([H])c([H])c2c(c1[H])C([H])([H])N(C(=O)C([H])(N([H])C(=O)C([H])(N([H])C([H])([H])[H])C([H])([H])[H])C(C([H])([H])[H])(C([H])([H])[H])C([H])([H])[H])C([H])(C(=O)N([H])C1([H])c3c([H])c([H])c([H])c([H])c3C([H])([H])C([H])([H])C1([H])[H])C2([H])[H]

$$$$
54:0:0
     RDKit          3D

 97104  0  0  1  0  0  0  0  0999 V2000
  -31.7460  -21.3380   13.9980 C   0  0  0  0  0  1  0  0  0  0  0  0
  -31.4940  -21.5590   15.4990 C   0  0  0  0  0  3  0  0  0  0  0  0
  -30.5900  -22.7150   15.7210 N   0  0  0  0  0  4  0  0  0  0  0  0
  -31.0000  -23.5100   15.2570 H   0  0  0  0  0  0  0  0  0  0  0  0
  -29.7050  -22.5340   15.2740 H   0  0  0  0  0  0  0  0  0  0  0  0
  -30.3460  -23.0950   17.1320 C   0  0  0  0  0  2  0  0  0  0  0  0
  -29.6310  -24.4570   17.2350 C   0  0  0  0  0  2  0  0  0  0  0  0
  -29.2440  -24.8510   18.6750 C   0  0  0  0  0  2  0  0  0  0  0  0
  -28.6850  -26.2810   18.7560 C   0  0  0  0  0  2  0  0  0  0  0  0
  -28.1990  -26.5630   20.0710 O   0  0  0  0  0  0  0  0  0  0  0  0
  -24.5090  -31.7460   23.2750 C   0  0  0  0  0  0  0  0  0  0  0  0
  -27.0330  -27.2880   20.1240 C   0  0  0  0  0  0  0  0  0  0  0  0
  -23.2550  -30.3830   21.6320 C   0  0  0  0  0  3  0  0  0  0  0  0
  -24.6620  -28.8160   20.1910 C   0  0  0  0  0  0  0  0  0  0  0  0
  -25.7850  -30.6830   21.4200 C   0  0  0  0  0  2  0  0  0  0  0  0
  -25.8330  -29.3140   20.7770 C   0  0  0  0  0  0  0  0  0  0  0  0
  -27.0180  -28.5480   20.7590 C   0  0  0  0  0  3  0  0  0  0  0  0
  -25.8420  -26.7860   19.5570 C   0  0  0  0  0  3  0  0  0  0  0  0
  -24.6570  -27.5470   19.5860 C   0  0  0  0  0  3  0  0  0  0  0  0
  -23.4380  -29.7030   20.2480 C   0  0  0  0  0  2  0  0  0  0  0  0
  -24.5350  -30.9520   22.1680 N   0  0  0  0  0  0  0  0  0  0  0  0
  -23.4400  -32.0430   23.8240 O   0  0  0  0  0  0  0  0  0  0  0  0
  -22.5860  -29.3740   22.5910 C   0  0  0  0  0  0  0  0  0  0  0  0
  -21.2580  -29.2200   22.4640 N   0  0  0  0  0  0  0  0  0  0  0  0
  -23.2580  -28.7330   23.4030 O   0  0  0  0  0  0  0  0  0  0  0  0
  -20.7800  -29.7870   21.7780 H   0  0  0  0  0  0  0  0  0  0  0  0
  -17.8620  -28.0920   22.9490 C   0  0  0  0  0  0  0  0  0  0  0  0
  -20.4220  -28.2990   23.2310 C   0  0  0  0  0  3  0  0  0  0  0  0
  -20.5000  -26.8670   22.6550 C   0  0  0  0  0  2  0  0  0  0  0  0
  -19.3950  -26.5660   21.6370 C   0  0  0  0  0  2  0  0  0  0  0  0
  -18.0140  -26.7400   22.2750 C   0  0  0  0  0  2  0  0  0  0  0  0
  -18.9930  -28.8320   23.3840 C   0  0  0  0  0  0  0  0  0  0  0  0
  -18.8000  -30.1000   23.9730 C   0  0  0  0  0  3  0  0  0  0  0  0
  -17.5050  -30.6290   24.1330 C   0  0  0  0  0  3  0  0  0  0  0  0
  -16.3860  -29.8850   23.7160 C   0  0  0  0  0  3  0  0  0  0  0  0
  -16.5660  -28.6190   23.1300 C   0  0  0  0  0  3  0  0  0  0  0  0
  -25.8170  -32.3370   23.8880 C   0  0  0  0  0  3  0  0  0  0  0  0
  -25.5650  -33.7520   24.1860 N   0  0  0  0  0  0  0  0  0  0  0  0
  -25.9470  -34.7730   23.4070 C   0  0  0  0  0  0  0  0  0  0  0  0
  -26.6210  -34.6190   22.3840 O   0  0  0  0  0  0  0  0  0  0  0  0
  -24.9690  -33.9490   24.9780 H   0  0  0  0  0  0  0  0  0  0  0  0
  -24.2940  -36.6230   22.9950 C   0  0  0  0  0  1  0  0  0  0  0  0
  -25.5120  -36.1890   23.8280 C   0  0  0  0  0  3  0  0  0  0  0  0
  -27.6710  -37.0090   24.6620 C   0  0  0  0  0  1  0  0  0  0  0  0
  -26.5870  -37.1970   23.7010 N   0  0  0  0  0  0  0  0  0  0  0  0
  -26.2150  -38.1360   23.8220 H   0  0  0  0  0  0  0  0  0  0  0  0
  -26.3000  -31.5710   25.1810 C   0  0  1  0  0  0  0  0  0  0  0  0
  -25.1950  -31.3950   26.2480 C   0  0  0  0  0  1  0  0  0  0  0  0
  -26.8320  -30.1660   24.8160 C   0  0  0  0  0  1  0  0  0  0  0  0
  -27.4780  -32.3340   25.8330 C   0  0  0  0  0  1  0  0  0  0  0  0
  -30.9580  -20.2830   16.1310 C   0  0  0  0  0  3  0  0  0  0  0  0
  -31.6450  -19.5350   17.0120 C   0  0  0  0  0  3  0  0  0  0  0  0
  -31.1450  -18.2480   17.6470 C   0  0  0  0  0  3  0  0  0  0  0  0
  -31.1350  -18.4180   19.1180 N   0  0  0  0  0  4  0  0  0  0  0  0
  -32.0710  -18.2720   19.4600 H   0  0  0  0  0  0  0  0  0  0  0  0
  -30.8780  -19.3690   19.3320 H   0  0  0  0  0  0  0  0  0  0  0  0
  -30.2100  -17.5280   19.8560 C   0  0  0  0  0  2  0  0  0  0  0  0
  -30.7710  -17.1350   21.2420 C   0  0  0  0  0  2  0  0  0  0  0  0
  -30.4140  -15.6900   21.6560 C   0  0  0  0  0  2  0  0  0  0  0  0
  -30.9990  -14.6260   20.7020 C   0  0  0  0  0  0  0  0  0  0  0  0
  -30.7030  -12.5640   19.3740 C   0  0  0  0  0  2  0  0  0  0  0  0
  -29.7710  -12.8290   18.1750 C   0  0  0  0  0  2  0  0  0  0  0  0
  -28.2910  -12.6830   18.5820 C   0  0  0  0  0  2  0  0  0  0  0  0
  -27.9480  -13.4650   19.8780 C   0  0  0  0  0  3  0  0  0  0  0  0
  -28.9820  -13.1470   20.9810 C   0  0  0  0  0  2  0  0  0  0  0  0
  -30.3160  -13.4770   20.4580 N   0  0  0  0  0  0  0  0  0  0  0  0
  -32.0630  -14.8900   20.1300 O   0  0  0  0  0  0  0  0  0  0  0  0
  -25.5310  -14.0710   20.5390 C   0  0  0  0  0  0  0  0  0  0  0  0
  -24.4540  -13.2940   20.8680 C   0  0  0  0  0  0  0  0  0  0  0  0
  -24.9120  -11.9410   20.8180 C   0  0  0  0  0  0  0  0  0  0  0  0
  -26.5800  -13.1920   20.3170 N   0  0  0  0  0  0  0  0  0  0  0  0
  -26.2080  -11.9060   20.5360 N   0  0  0  0  0  0  0  0  0  0  0  0
  -24.1810  -10.6770   20.9670 C   0  0  0  0  0  0  0  0  0  0  0  0
  -24.5920   -9.6890   21.8900 C   0  0  0  0  0  3  0  0  0  0  0  0
  -23.8600   -8.4900   22.0280 C   0  0  0  0  0  3  0  0  0  0  0  0
  -22.7050   -8.2710   21.2420 C   0  0  0  0  0  0  0  0  0  0  0  0
  -22.3140   -9.2470   20.3080 C   0  0  0  0  0  3  0  0  0  0  0  0
  -23.0460  -10.4370   20.1690 C   0  0  0  0  0  3  0  0  0  0  0  0
  -21.9460   -7.1260   21.2900 O   0  0  0  0  0  0  0  0  0  0  0  0
  -21.8260   -6.3890   22.4400 C   0  0  0  0  0  0  0  0  0  0  0  0
  -21.3220   -6.9480   23.6340 C   0  0  0  0  0  3  0  0  0  0  0  0
  -21.1490   -6.1380   24.7740 C   0  0  0  0  0  3  0  0  0  0  0  0
  -21.4740   -4.7700   24.7210 C   0  0  0  0  0  0  0  0  0  0  0  0
  -21.9740   -4.2100   23.5330 C   0  0  0  0  0  3  0  0  0  0  0  0
  -22.1480   -5.0170   22.3940 C   0  0  0  0  0  0  0  0  0  0  0  0
  -22.6080   -4.4670   21.2460 F   0  0  0  0  0  0  0  0  0  0  0  0
  -21.3010   -3.9900   25.8140 F   0  0  0  0  0  0  0  0  0  0  0  0
  -23.0520  -13.7680   21.1260 C   0  0  0  0  0  0  0  0  0  0  0  0
  -22.3140  -13.0630   21.9750 N   0  0  0  0  0  0  0  0  0  0  0  0
  -22.6220  -14.7990   20.6100 O   0  0  0  0  0  0  0  0  0  0  0  0
  -22.6760  -12.2290   22.4140 H   0  0  0  0  0  0  0  0  0  0  0  0
  -21.3720  -13.3600   22.1900 H   0  0  0  0  0  0  0  0  0  0  0  0
  -25.7000  -15.4450   20.3930 N   0  0  0  0  0  0  0  0  0  0  0  0
  -24.9260  -16.0930   20.4950 H   0  0  0  0  0  0  0  0  0  0  0  0
  -26.5540  -15.8940   20.0900 H   0  0  0  0  0  0  0  0  0  0  0  0
  -32.1560  -16.9110   15.6820 C   0  0  0  0  0  1  0  0  0  0  0  0
  -32.0270  -17.0530   17.2080 C   0  0  0  0  0  2  0  0  0  0  0  0
  2  1  1  0
  2  3  1  0
  2 51  1  0
  3  6  1  0
  4  3  1  0
  5  3  1  0
  6  7  1  0
  7  8  1  0
  8  9  1  0
  9 10  1  0
 10 12  1  0
 11 22  2  0
 12 17  1  0
 13 21  1  0
 13 23  1  0
 14 20  1  0
 14 16  1  0
 15 21  1  0
 16 15  1  0
 17 16  2  0
 18 19  1  0
 18 12  2  0
 19 14  2  0
 20 13  1  0
 21 11  1  0
 23 25  2  0
 24 23  1  0
 26 24  1  0
 27 36  2  0
 27 32  1  0
 28 24  1  0
 28 32  1  0
 29 28  1  0
 30 31  1  0
 30 29  1  0
 31 27  1  0
 32 33  2  0
 33 34  1  0
 35 34  2  0
 36 35  1  0
 37 11  1  0
 37 38  1  0
 37 47  1  0
 38 41  1  0
 39 43  1  0
 39 38  1  0
 40 39  2  0
 43 42  1  0
 45 46  1  0
 45 43  1  0
 45 44  1  0
 47 50  1  1
 47 48  1  0
 49 47  1  0
 51 52  2  0
 53 52  1  0
 53 54  1  0
 54 56  1  0
 54 55  1  0
 54 57  1  0
 57 58  1  0
 58 59  1  0
 60 59  1  0
 61 66  1  0
 62 63  1  0
 62 61  1  0
 64 63  1  0
 64 71  1  0
 64 65  1  0
 66 60  1  0
 66 65  1  0
 67 60  2  0
 68 69  2  0
 69 88  1  0
 70 69  1  0
 70 73  1  0
 71 72  1  0
 71 68  1  0
 72 70  2  0
 73 74  1  0
 74 75  2  0
 76 79  1  0
 76 75  1  0
 77 76  2  0
 78 77  1  0
 78 73  2  0
 79 80  1  0
 80 81  1  0
 81 82  2  0
 83 82  1  0
 83 87  1  0
 84 83  2  0
 85 80  2  0
 85 84  1  0
 86 85  1  0
 88 89  1  0
 89 92  1  0
 89 91  1  0
 90 88  2  0
 93 94  1  0
 93 68  1  0
 95 93  1  0
 96 97  1  0
 97 53  1  0
M  ISO  4   9 101  10 101  59 100  60 100
M  END
>  <TORSDO>  (55) 
F 28

>  <SCORE>  (55) 
-10.965

>  <name>  (55) 
54

>  <ligand_id>  (55) 
54

>  <original_smiles>  (55) 
[H]C(=C([H])C([H])(C([H])([H])C([H])([H])[H])[N+]([H])([H])C([H])([H])C([H])([H])C([H])([H])C(=O)N1C([H])([H])C([H])([H])C([H])([H])C([H])(n2nc(-c3c([H])c([H])c(Oc4c([H])c([H])c(F)c([H])c4F)c([H])c3[H])c(C(=O)N([H])[H])c2N([H])[H])C1([H])[H])C([H])(C([H])([H])[H])[N+]([H])([H])C([H])([H])C([H])([H])C([H])([H])C([H])([H])Oc1c([H])c([H])c2c(c1[H])C([H])([H])N(C(=O)C([H])(N([H])C(=O)C([H])(N([H])C([H])([H])[H])C([H])([H])[H])C(C([H])([H])[H])(C([H])([H])[H])C([H])([H])[H])C([H])(C(=O)N([H])C1([H])c3c([H])c([H])c([H])c([H])c3C([H])([H])C([H])([H])C1([H])[H])C2([H])[H]

>  <smiles>  (55) 
[H]C(=C([H])C([H])(C([H])([H])C([H])([H])[H])[N+]([H])([H])C([H])([H])C([H])([H])C([H])([H])C(=O)N1C([H])([H])C([H])([H])C([H])([H])C([H])(n2nc(-c3c([H])c([H])c(Oc4c([H])c([H])c(F)c([H])c4F)c([H])c3[H])c(C(=O)N([H])[H])c2N([H])[H])C1([H])[H])C([H])(C([H])([H])[H])[N+]([H])([H])C([H])([H])C([H])([H])C([H])([H])C([H])([H])Oc1c([H])c([H])c2c(c1[H])C([H])([H])N(C(=O)C([H])(N([H])C(=O)C([H])(N([H])C([H])([H])[H])C([H])([H])[H])C(C([H])([H])[H])(C([H])([H])[H])C([H])([H])[H])C([H])(C(=O)N([H])C1([H])c3c([H])c([H])c([H])c([H])c3C([H])([H])C([H])([H])C1([H])[H])C2([H])[H]

$$$$
55:0:0
     RDKit          3D

 86 94  0  0  1  0  0  0  0  0999 V2000
  -28.8120  -21.3300   19.9910 C   0  0  0  0  0  2  0  0  0  0  0  0
  -31.7380  -19.8660   20.1930 C   0  0  0  0  0  2  0  0  0  0  0  0
  -31.2850  -18.5160   19.6230 C   0  0  0  0  0  2  0  0  0  0  0  0
  -30.7590  -20.1960   21.3140 C   0  0  0  0  0  2  0  0  0  0  0  0
  -29.8130  -18.2750   20.0330 C   0  0  0  0  0  3  0  0  0  0  0  0
  -29.3980  -19.8410   20.7230 C   0  0  0  0  0  3  0  0  0  0  0  0
  -29.7210  -16.6510   20.7150 C   0  0  0  0  0  2  0  0  0  0  0  0
  -30.4710  -15.1560   20.2980 C   0  0  0  0  0  0  0  0  0  0  0  0
  -30.4040  -12.7510   19.3800 C   0  0  0  0  0  2  0  0  0  0  0  0
  -29.4810  -12.6550   18.1390 C   0  0  0  0  0  2  0  0  0  0  0  0
  -28.0200  -12.4180   18.5630 C   0  0  0  0  0  2  0  0  0  0  0  0
  -27.5940  -13.3490   19.7270 C   0  0  0  0  0  3  0  0  0  0  0  0
  -28.6420  -13.4090   20.8570 C   0  0  0  0  0  2  0  0  0  0  0  0
  -29.9070  -13.8610   20.2610 N   0  0  0  0  0  0  0  0  0  0  0  0
  -31.6600  -15.1730   19.9520 O   0  0  0  0  0  0  0  0  0  0  0  0
  -25.2110  -13.9130   20.4510 C   0  0  0  0  0  0  0  0  0  0  0  0
  -24.1490  -13.1350   20.8220 C   0  0  0  0  0  0  0  0  0  0  0  0
  -24.6210  -11.7870   20.8080 C   0  0  0  0  0  0  0  0  0  0  0  0
  -26.2590  -13.0390   20.2240 N   0  0  0  0  0  0  0  0  0  0  0  0
  -25.9150  -11.7550   20.5070 N   0  0  0  0  0  0  0  0  0  0  0  0
  -23.8980  -10.5230   21.0080 C   0  0  0  0  0  0  0  0  0  0  0  0
  -24.3300   -9.5620   21.9480 C   0  0  0  0  0  3  0  0  0  0  0  0
  -23.6040   -8.3660   22.1350 C   0  0  0  0  0  3  0  0  0  0  0  0
  -22.4310   -8.1220   21.3830 C   0  0  0  0  0  0  0  0  0  0  0  0
  -22.0170   -9.0710   20.4320 C   0  0  0  0  0  3  0  0  0  0  0  0
  -22.7440  -10.2590   20.2420 C   0  0  0  0  0  3  0  0  0  0  0  0
  -21.6770   -6.9770   21.4780 O   0  0  0  0  0  0  0  0  0  0  0  0
  -21.6370   -6.2360   22.6330 C   0  0  0  0  0  0  0  0  0  0  0  0
  -21.2210   -6.7930   23.8610 C   0  0  0  0  0  3  0  0  0  0  0  0
  -21.1280   -5.9790   25.0080 C   0  0  0  0  0  3  0  0  0  0  0  0
  -21.4400   -4.6090   24.9260 C   0  0  0  0  0  0  0  0  0  0  0  0
  -21.8480   -4.0510   23.7020 C   0  0  0  0  0  3  0  0  0  0  0  0
  -21.9430   -4.8630   22.5580 C   0  0  0  0  0  0  0  0  0  0  0  0
  -22.3170   -4.3150   21.3760 F   0  0  0  0  0  0  0  0  0  0  0  0
  -21.3430   -3.8250   26.0250 F   0  0  0  0  0  0  0  0  0  0  0  0
  -22.7480  -13.6090   21.0740 C   0  0  0  0  0  0  0  0  0  0  0  0
  -22.0160  -12.9210   21.9430 N   0  0  0  0  0  0  0  0  0  0  0  0
  -22.3110  -14.6260   20.5380 O   0  0  0  0  0  0  0  0  0  0  0  0
  -22.3820  -12.1000   22.4000 H   0  0  0  0  0  0  0  0  0  0  0  0
  -21.0740  -13.2220   22.1550 H   0  0  0  0  0  0  0  0  0  0  0  0
  -25.3690  -15.2820   20.2610 N   0  0  0  0  0  0  0  0  0  0  0  0
  -24.6000  -15.9350   20.3670 H   0  0  0  0  0  0  0  0  0  0  0  0
  -26.2200  -15.7240   19.9380 H   0  0  0  0  0  0  0  0  0  0  0  0
  -28.8410  -22.9940   20.5600 C   0  0  0  0  0  3  0  0  0  0  0  0
  -28.0170  -24.4400   20.0000 C   0  0  0  0  0  3  0  0  0  0  0  0
  -28.2070  -26.0050   20.3260 O   0  0  0  0  0  0  0  0  0  0  0  0
  -24.6320  -31.8730   23.2360 C   0  0  0  0  0  0  0  0  0  0  0  0
  -27.1800  -27.0530   20.2290 C   0  0  0  0  0  0  0  0  0  0  0  0
  -23.4280  -30.4720   21.6060 C   0  0  0  0  0  3  0  0  0  0  0  0
  -24.8700  -28.8740   20.1830 C   0  0  0  0  0  0  0  0  0  0  0  0
  -25.9890  -30.7020   21.4460 C   0  0  0  0  0  2  0  0  0  0  0  0
  -26.0550  -29.2980   20.7960 C   0  0  0  0  0  0  0  0  0  0  0  0
  -27.2050  -28.4050   20.7990 C   0  0  0  0  0  3  0  0  0  0  0  0
  -25.9700  -26.7600   19.5620 C   0  0  0  0  0  3  0  0  0  0  0  0
  -24.8470  -27.6210   19.5460 C   0  0  0  0  0  3  0  0  0  0  0  0
  -23.6480  -29.7850   20.2310 C   0  0  0  0  0  2  0  0  0  0  0  0
  -24.7050  -31.0410   22.1490 N   0  0  0  0  0  0  0  0  0  0  0  0
  -23.5470  -32.1650   23.7620 O   0  0  0  0  0  0  0  0  0  0  0  0
  -22.7420  -29.4760   22.5770 C   0  0  0  0  0  0  0  0  0  0  0  0
  -21.4120  -29.3110   22.4560 N   0  0  0  0  0  0  0  0  0  0  0  0
  -23.4110  -28.8550   23.4070 O   0  0  0  0  0  0  0  0  0  0  0  0
  -20.9280  -29.8640   21.7630 H   0  0  0  0  0  0  0  0  0  0  0  0
  -18.0300  -28.1100   22.9690 C   0  0  0  0  0  0  0  0  0  0  0  0
  -20.5890  -28.3810   23.2340 C   0  0  0  0  0  3  0  0  0  0  0  0
  -20.6930  -26.9440   22.6720 C   0  0  0  0  0  2  0  0  0  0  0  0
  -19.5920  -26.6120   21.6590 C   0  0  0  0  0  2  0  0  0  0  0  0
  -18.2090  -26.7580   22.3010 C   0  0  0  0  0  2  0  0  0  0  0  0
  -19.1470  -28.8790   23.3930 C   0  0  0  0  0  0  0  0  0  0  0  0
  -18.9240  -30.1430   23.9810 C   0  0  0  0  0  3  0  0  0  0  0  0
  -17.6170  -30.6400   24.1480 C   0  0  0  0  0  3  0  0  0  0  0  0
  -16.5150  -29.8700   23.7380 C   0  0  0  0  0  3  0  0  0  0  0  0
  -16.7230  -28.6070   23.1550 C   0  0  0  0  0  3  0  0  0  0  0  0
  -25.9100  -32.5130   23.8600 C   0  0  0  0  0  3  0  0  0  0  0  0
  -26.4200  -31.7500   25.1460 C   0  0  1  0  0  0  0  0  0  0  0  0
  -25.3230  -31.5280   26.2140 C   0  0  0  0  0  1  0  0  0  0  0  0
  -26.9980  -30.3670   24.7740 C   0  0  0  0  0  1  0  0  0  0  0  0
  -27.5720  -32.5460   25.8040 C   0  0  0  0  0  1  0  0  0  0  0  0
  -25.5980  -33.9140   24.1900 N   0  0  0  0  0  0  0  0  0  0  0  0
  -25.9240  -34.9710   23.4340 C   0  0  0  0  0  0  0  0  0  0  0  0
  -26.5830  -34.8690   22.3960 O   0  0  0  0  0  0  0  0  0  0  0  0
  -25.0100  -34.0650   24.9950 H   0  0  0  0  0  0  0  0  0  0  0  0
  -24.1900  -36.7680   23.1130 C   0  0  0  0  0  1  0  0  0  0  0  0
  -25.4450  -36.3600   23.9000 C   0  0  0  0  0  3  0  0  0  0  0  0
  -27.5930  -37.2490   24.6960 C   0  0  0  0  0  1  0  0  0  0  0  0
  -26.4750  -37.4130   23.7690 N   0  0  0  0  0  0  0  0  0  0  0  0
  -26.0720  -38.3340   23.9220 H   0  0  0  0  0  0  0  0  0  0  0  0
  1 44  1  0
  2  4  1  0
  3  5  1  0
  3  2  1  0
  5  7  1  0
  5  6  1  0
  6  1  1  0
  6  4  1  0
  8  7  1  0
  9 14  1  0
 10 11  1  0
 10  9  1  0
 12 11  1  0
 12 19  1  0
 12 13  1  0
 14  8  1  0
 14 13  1  0
 15  8  2  0
 16 17  2  0
 17 36  1  0
 18 17  1  0
 18 21  1  0
 19 16  1  0
 19 20  1  0
 20 18  2  0
 21 22  1  0
 22 23  2  0
 24 27  1  0
 24 23  1  0
 25 24  2  0
 26 25  1  0
 26 21  2  0
 27 28  1  0
 28 29  1  0
 29 30  2  0
 31 30  1  0
 31 35  1  0
 32 31  2  0
 33 28  2  0
 33 32  1  0
 34 33  1  0
 36 37  1  0
 37 40  1  0
 37 39  1  0
 38 36  2  0
 41 42  1  0
 41 16  1  0
 43 41  1  0
 45 46  1  0
 45 44  2  0
 47 58  2  0
 48 46  1  0
 48 53  1  0
 49 57  1  0
 49 59  1  0
 50 56  1  0
 50 52  1  0
 51 57  1  0
 52 53  2  0
 52 51  1  0
 54 48  2  0
 55 54  1  0
 55 50  2  0
 56 49  1  0
 57 47  1  0
 59 61  2  0
 60 59  1  0
 62 60  1  0
 63 72  2  0
 63 68  1  0
 64 60  1  0
 64 68  1  0
 65 64  1  0
 66 67  1  0
 66 65  1  0
 67 63  1  0
 68 69  2  0
 69 70  1  0
 71 70  2  0
 72 71  1  0
 73 47  1  0
 73 78  1  0
 73 74  1  0
 74 77  1  1
 74 75  1  0
 76 74  1  0
 78 81  1  0
 79 83  1  0
 79 78  1  0
 80 79  2  0
 83 82  1  0
 85 83  1  0
 85 86  1  0
 85 84  1  0
M  ISO  4   7 100   8 100  45 101  46 101
M  END
>  <TORSDO>  (56) 
F 20

>  <SCORE>  (56) 
-16.118

>  <name>  (56) 
55

>  <ligand_id>  (56) 
55

>  <original_smiles>  (56) 
[H]c1c([H])c([H])c2c(c1[H])C([H])([H])C([H])([H])C([H])([H])C2([H])N([H])C(=O)C1([H])N(C(=O)C([H])(N([H])C(=O)C([H])(N([H])C([H])([H])[H])C([H])([H])[H])C(C([H])([H])[H])(C([H])([H])[H])C([H])([H])[H])C([H])([H])c2c([H])c(OC([H])([H])C([H])([H])C([H])([H])C3([H])C([H])([H])C([H])([H])C([H])([H])C3([H])C([H])([H])C(=O)N3C([H])([H])C([H])([H])C([H])([H])C([H])(n4nc(-c5c([H])c([H])c(Oc6c([H])c([H])c(F)c([H])c6F)c([H])c5[H])c(C(=O)N([H])[H])c4N([H])[H])C3([H])[H])c([H])c([H])c2C1([H])[H]

>  <smiles>  (56) 
[H]c1c([H])c([H])c2c(c1[H])C([H])([H])C([H])([H])C([H])([H])C2([H])N([H])C(=O)C1([H])N(C(=O)C([H])(N([H])C(=O)C([H])(N([H])C([H])([H])[H])C([H])([H])[H])C(C([H])([H])[H])(C([H])([H])[H])C([H])([H])[H])C([H])([H])c2c([H])c(OC([H])([H])C([H])([H])C([H])([H])C3([H])C([H])([H])C([H])([H])C([H])([H])C3([H])C([H])([H])C(=O)N3C([H])([H])C([H])([H])C([H])([H])C([H])(n4nc(-c5c([H])c([H])c(Oc6c([H])c([H])c(F)c([H])c6F)c([H])c5[H])c(C(=O)N([H])[H])c4N([H])[H])C3([H])[H])c([H])c([H])c2C1([H])[H]

$$$$
56:0:0
     RDKit          3D

 89 96  0  0  1  0  0  0  0  0999 V2000
  -29.6060  -22.6590   20.6430 C   0  0  0  0  0  3  0  0  0  0  0  0
  -29.3680  -24.0340   20.5230 C   0  0  0  0  0  0  0  0  0  0  0  0
  -28.8140  -21.4100   20.4240 C   0  0  0  0  0  0  0  0  0  0  0  0
  -29.5180  -20.2310   20.6440 N   0  0  0  0  0  0  0  0  0  0  0  0
  -27.6230  -21.3950   20.1100 O   0  0  0  0  0  0  0  0  0  0  0  0
  -30.4830  -20.3640   20.9140 H   0  0  0  0  0  0  0  0  0  0  0  0
  -29.0550  -18.7790   20.7160 C   0  0  0  0  0  3  0  0  0  0  0  0
  -30.1150  -17.5770   20.4630 C   0  0  0  0  0  3  0  0  0  0  0  0
  -29.6970  -16.0550   20.8200 C   0  0  0  0  0  2  0  0  0  0  0  0
  -30.5390  -14.7840   20.3180 C   0  0  0  0  0  0  0  0  0  0  0  0
  -30.3640  -12.5320   19.2230 C   0  0  0  0  0  2  0  0  0  0  0  0
  -29.4020  -12.6530   18.0200 C   0  0  0  0  0  2  0  0  0  0  0  0
  -27.9350  -12.4730   18.4640 C   0  0  0  0  0  2  0  0  0  0  0  0
  -27.5890  -13.3270   19.7100 C   0  0  0  0  0  3  0  0  0  0  0  0
  -28.6610  -13.1750   20.8100 C   0  0  0  0  0  2  0  0  0  0  0  0
  -29.9570  -13.5400   20.2260 N   0  0  0  0  0  0  0  0  0  0  0  0
  -31.6900  -14.9490   19.8960 O   0  0  0  0  0  0  0  0  0  0  0  0
  -25.2180  -13.9260   20.4870 C   0  0  0  0  0  0  0  0  0  0  0  0
  -24.1580  -13.1520   20.8700 C   0  0  0  0  0  0  0  0  0  0  0  0
  -24.6170  -11.8000   20.8180 C   0  0  0  0  0  0  0  0  0  0  0  0
  -26.2530  -13.0450   20.2190 N   0  0  0  0  0  0  0  0  0  0  0  0
  -25.9000  -11.7610   20.4830 N   0  0  0  0  0  0  0  0  0  0  0  0
  -23.8940  -10.5370   21.0130 C   0  0  0  0  0  0  0  0  0  0  0  0
  -24.3390   -9.5650   21.9370 C   0  0  0  0  0  3  0  0  0  0  0  0
  -23.6150   -8.3670   22.1190 C   0  0  0  0  0  3  0  0  0  0  0  0
  -22.4350   -8.1310   21.3750 C   0  0  0  0  0  0  0  0  0  0  0  0
  -22.0100   -9.0910   20.4390 C   0  0  0  0  0  3  0  0  0  0  0  0
  -22.7340  -10.2800   20.2560 C   0  0  0  0  0  3  0  0  0  0  0  0
  -21.6840   -6.9840   21.4640 O   0  0  0  0  0  0  0  0  0  0  0  0
  -21.6340   -6.2440   22.6170 C   0  0  0  0  0  0  0  0  0  0  0  0
  -21.1900   -6.7960   23.8380 C   0  0  0  0  0  3  0  0  0  0  0  0
  -21.0880   -5.9820   24.9830 C   0  0  0  0  0  3  0  0  0  0  0  0
  -21.4200   -4.6150   24.9080 C   0  0  0  0  0  0  0  0  0  0  0  0
  -21.8580   -4.0630   23.6920 C   0  0  0  0  0  3  0  0  0  0  0  0
  -21.9620   -4.8740   22.5490 C   0  0  0  0  0  0  0  0  0  0  0  0
  -22.3620   -4.3320   21.3730 F   0  0  0  0  0  0  0  0  0  0  0  0
  -21.3150   -3.8310   26.0070 F   0  0  0  0  0  0  0  0  0  0  0  0
  -22.7650  -13.6260   21.1720 C   0  0  0  0  0  0  0  0  0  0  0  0
  -22.0540  -12.9230   22.0460 N   0  0  0  0  0  0  0  0  0  0  0  0
  -22.3170  -14.6560   20.6660 O   0  0  0  0  0  0  0  0  0  0  0  0
  -22.4310  -12.0900   22.4730 H   0  0  0  0  0  0  0  0  0  0  0  0
  -21.1190  -13.2200   22.2880 H   0  0  0  0  0  0  0  0  0  0  0  0
  -25.3830  -15.2990   20.3210 N   0  0  0  0  0  0  0  0  0  0  0  0
  -24.6260  -15.9570   20.4670 H   0  0  0  0  0  0  0  0  0  0  0  0
  -26.2280  -15.7380   19.9760 H   0  0  0  0  0  0  0  0  0  0  0  0
  -30.3950  -25.3000   22.4490 C   0  0  0  0  0  1  0  0  0  0  0  0
  -30.5300  -24.9180   20.9670 C   0  0  0  0  0  2  0  0  0  0  0  0
  -28.1300  -24.9160   20.0410 C   0  0  0  0  0  2  0  0  0  0  0  0
  -28.2740  -26.4240   20.1280 O   0  0  0  0  0  0  0  0  0  0  0  0
  -24.5700  -31.8900   23.1340 C   0  0  0  0  0  0  0  0  0  0  0  0
  -27.1590  -27.2930   20.0680 C   0  0  0  0  0  0  0  0  0  0  0  0
  -23.3570  -30.4950   21.4960 C   0  0  0  0  0  3  0  0  0  0  0  0
  -24.7990  -28.9400   20.0540 C   0  0  0  0  0  0  0  0  0  0  0  0
  -25.8980  -30.8030   21.3010 C   0  0  0  0  0  2  0  0  0  0  0  0
  -25.9730  -29.4210   20.6480 C   0  0  0  0  0  0  0  0  0  0  0  0
  -27.1540  -28.6120   20.6390 C   0  0  0  0  0  3  0  0  0  0  0  0
  -25.9610  -26.8740   19.4480 C   0  0  0  0  0  3  0  0  0  0  0  0
  -24.8000  -27.6760   19.4410 C   0  0  0  0  0  3  0  0  0  0  0  0
  -23.5620  -29.8170   20.1140 C   0  0  0  0  0  2  0  0  0  0  0  0
  -24.6280  -31.0840   22.0310 N   0  0  0  0  0  0  0  0  0  0  0  0
  -23.4890  -32.1670   23.6750 O   0  0  0  0  0  0  0  0  0  0  0  0
  -22.6970  -29.4820   22.4620 C   0  0  0  0  0  0  0  0  0  0  0  0
  -21.3670  -29.3150   22.3510 N   0  0  0  0  0  0  0  0  0  0  0  0
  -23.3800  -28.8480   23.2720 O   0  0  0  0  0  0  0  0  0  0  0  0
  -20.8750  -29.8750   21.6700 H   0  0  0  0  0  0  0  0  0  0  0  0
  -17.9910  -28.1320   22.8930 C   0  0  0  0  0  0  0  0  0  0  0  0
  -20.5540  -28.3750   23.1250 C   0  0  0  0  0  3  0  0  0  0  0  0
  -20.6400  -26.9480   22.5350 C   0  0  0  0  0  2  0  0  0  0  0  0
  -19.5200  -26.6420   21.5350 C   0  0  0  0  0  2  0  0  0  0  0  0
  -18.1500  -26.7880   22.2020 C   0  0  0  0  0  2  0  0  0  0  0  0
  -19.1200  -28.8830   23.3130 C   0  0  0  0  0  0  0  0  0  0  0  0
  -18.9180  -30.1400   23.9220 C   0  0  0  0  0  3  0  0  0  0  0  0
  -17.6190  -30.6470   24.1140 C   0  0  0  0  0  3  0  0  0  0  0  0
  -16.5040  -29.8920   23.7110 C   0  0  0  0  0  3  0  0  0  0  0  0
  -16.6910  -28.6360   23.1050 C   0  0  0  0  0  3  0  0  0  0  0  0
  -25.8550  -32.5220   23.7540 C   0  0  0  0  0  3  0  0  0  0  0  0
  -25.5390  -33.9130   24.1110 N   0  0  0  0  0  0  0  0  0  0  0  0
  -25.8560  -34.9830   23.3700 C   0  0  0  0  0  0  0  0  0  0  0  0
  -26.5140  -34.9020   22.3280 O   0  0  0  0  0  0  0  0  0  0  0  0
  -24.9500  -34.0480   24.9190 H   0  0  0  0  0  0  0  0  0  0  0  0
  -24.1190  -36.7800   23.0640 C   0  0  0  0  0  1  0  0  0  0  0  0
  -25.3670  -36.3610   23.8580 C   0  0  0  0  0  3  0  0  0  0  0  0
  -27.5050  -37.2400   24.6930 C   0  0  0  0  0  1  0  0  0  0  0  0
  -26.3950  -37.4200   23.7600 N   0  0  0  0  0  0  0  0  0  0  0  0
  -25.9860  -38.3360   23.9260 H   0  0  0  0  0  0  0  0  0  0  0  0
  -26.3890  -31.7360   25.0150 C   0  0  1  0  0  0  0  0  0  0  0  0
  -25.3090  -31.4790   26.0920 C   0  0  0  0  0  1  0  0  0  0  0  0
  -26.9760  -30.3660   24.6010 C   0  0  0  0  0  1  0  0  0  0  0  0
  -27.5410  -32.5290   25.6760 C   0  0  0  0  0  1  0  0  0  0  0  0
  2  1  2  0
  2 47  1  0
  3  1  1  0
  3  4  1  0
  4  7  1  0
  4  6  1  0
  5  3  2  0
  8  7  2  0
  8  9  1  0
 10  9  1  0
 11 16  1  0
 12 13  1  0
 12 11  1  0
 14 13  1  0
 14 21  1  0
 14 15  1  0
 16 10  1  0
 16 15  1  0
 17 10  2  0
 18 19  2  0
 19 38  1  0
 20 19  1  0
 20 23  1  0
 21 22  1  0
 21 18  1  0
 22 20  2  0
 23 24  1  0
 24 25  2  0
 26 29  1  0
 26 25  1  0
 27 26  2  0
 28 27  1  0
 28 23  2  0
 29 30  1  0
 30 31  1  0
 31 32  2  0
 33 32  1  0
 33 37  1  0
 34 33  2  0
 35 30  2  0
 35 34  1  0
 36 35  1  0
 38 39  1  0
 39 42  1  0
 39 41  1  0
 40 38  2  0
 43 44  1  0
 43 18  1  0
 45 43  1  0
 47 46  1  0
 48 49  1  0
 48  2  1  0
 50 61  2  0
 51 49  1  0
 51 56  1  0
 52 60  1  0
 52 62  1  0
 53 59  1  0
 53 55  1  0
 54 60  1  0
 55 54  1  0
 56 55  2  0
 57 51  2  0
 58 57  1  0
 58 53  2  0
 59 52  1  0
 60 50  1  0
 62 64  2  0
 63 62  1  0
 65 63  1  0
 66 75  2  0
 66 71  1  0
 67 63  1  0
 67 71  1  0
 68 67  1  0
 69 70  1  0
 69 68  1  0
 70 66  1  0
 71 72  2  0
 72 73  1  0
 74 73  2  0
 75 74  1  0
 76 50  1  0
 76 77  1  0
 76 86  1  0
 77 80  1  0
 78 82  1  0
 78 77  1  0
 79 78  2  0
 82 81  1  0
 84 82  1  0
 84 85  1  0
 84 83  1  0
 86 89  1  1
 86 87  1  0
 88 86  1  0
M  ISO  4   9 100  10 100  48 101  49 101
M  END
>  <TORSDO>  (57) 
F 22

>  <SCORE>  (57) 
-12.811

>  <name>  (57) 
56

>  <ligand_id>  (57) 
56

>  <original_smiles>  (57) 
[H]C(C(=O)N([H])C([H])([H])C([H])([H])C([H])([H])C(=O)N1C([H])([H])C([H])([H])C([H])([H])C([H])(n2nc(-c3c([H])c([H])c(Oc4c([H])c([H])c(F)c([H])c4F)c([H])c3[H])c(C(=O)N([H])[H])c2N([H])[H])C1([H])[H])=C(C([H])([H])Oc1c([H])c([H])c2c(c1[H])C([H])([H])N(C(=O)C([H])(N([H])C(=O)C([H])(N([H])C([H])([H])[H])C([H])([H])[H])C(C([H])([H])[H])(C([H])([H])[H])C([H])([H])[H])C([H])(C(=O)N([H])C1([H])c3c([H])c([H])c([H])c([H])c3C([H])([H])C([H])([H])C1([H])[H])C2([H])[H])C([H])([H])C([H])([H])[H]

>  <smiles>  (57) 
[H]C(C(=O)N([H])C([H])([H])C([H])([H])C([H])([H])C(=O)N1C([H])([H])C([H])([H])C([H])([H])C([H])(n2nc(-c3c([H])c([H])c(Oc4c([H])c([H])c(F)c([H])c4F)c([H])c3[H])c(C(=O)N([H])[H])c2N([H])[H])C1([H])[H])=C(C([H])([H])Oc1c([H])c([H])c2c(c1[H])C([H])([H])N(C(=O)C([H])(N([H])C(=O)C([H])(N([H])C([H])([H])[H])C([H])([H])[H])C(C([H])([H])[H])(C([H])([H])[H])C([H])([H])[H])C([H])(C(=O)N([H])C1([H])c3c([H])c([H])c([H])c([H])c3C([H])([H])C([H])([H])C1([H])[H])C2([H])[H])C([H])([H])C([H])([H])[H]

$$$$
57:0:0
     RDKit          3D

 84 87  0  0  1  0  0  0  0  0999 V2000
  -28.1930  -22.7040   20.3840 C   0  0  0  0  0 15  0  0  0  0  0  0
  -28.6090  -20.7790   18.4270 C   0  0  0  0  0  1  0  0  0  0  0  0
  -29.1090  -20.6430   19.9040 C   0  0  0  0  0  2  0  0  0  0  0  0
  -30.2300  -18.5300   18.9360 C   0  0  0  0  0  1  0  0  0  0  0  0
  -29.4070  -18.4380   20.0370 C   0  0  0  0  0  1  0  0  0  0  0  0
  -30.0200  -16.5490   20.0350 C   0  0  0  0  0  2  0  0  0  0  0  0
  -30.2810  -13.8070   19.2480 C   0  0  0  0  0  2  0  0  0  0  0  0
  -29.4730  -13.0410   18.1260 C   0  0  0  0  0  2  0  0  0  0  0  0
  -28.1400  -12.4980   18.6450 C   0  0  0  0  0  2  0  0  0  0  0  0
  -27.5320  -13.5220   19.6140 C   0  0  0  0  0  3  0  0  0  0  0  0
  -28.5180  -14.1790   20.6430 C   0  0  0  0  0  2  0  0  0  0  0  0
  -29.5410  -15.0530   19.9270 N   0  0  0  0  0  0  0  0  0  0  0  0
  -31.2520  -16.2240   19.9920 O   0  0  0  0  0  1  0  0  0  0  0  0
  -25.1990  -13.9340   20.4700 C   0  0  0  0  0  0  0  0  0  0  0  0
  -24.1680  -13.1250   20.8500 C   0  0  0  0  0  0  0  0  0  0  0  0
  -24.6650  -11.7860   20.7860 C   0  0  0  0  0  0  0  0  0  0  0  0
  -26.2590  -13.0980   20.1900 N   0  0  0  0  0  0  0  0  0  0  0  0
  -25.9550  -11.7920   20.4370 N   0  0  0  0  0  0  0  0  0  0  0  0
  -23.9570  -10.5080   20.9780 C   0  0  0  0  0  0  0  0  0  0  0  0
  -24.4030   -9.5420   21.9060 C   0  0  0  0  0  3  0  0  0  0  0  0
  -23.6840   -8.3410   22.0940 C   0  0  0  0  0  3  0  0  0  0  0  0
  -22.5030   -8.0940   21.3540 C   0  0  0  0  0  0  0  0  0  0  0  0
  -22.0720   -9.0500   20.4160 C   0  0  0  0  0  3  0  0  0  0  0  0
  -22.7920  -10.2430   20.2280 C   0  0  0  0  0  3  0  0  0  0  0  0
  -21.7560   -6.9440   21.4500 O   0  0  0  0  0  0  0  0  0  0  0  0
  -21.7110   -6.2060   22.6060 C   0  0  0  0  0  0  0  0  0  0  0  0
  -21.2560   -6.7570   23.8240 C   0  0  0  0  0  3  0  0  0  0  0  0
  -21.1610   -5.9450   24.9730 C   0  0  0  0  0  3  0  0  0  0  0  0
  -21.5110   -4.5840   24.9040 C   0  0  0  0  0  0  0  0  0  0  0  0
  -21.9580   -4.0320   23.6920 C   0  0  0  0  0  3  0  0  0  0  0  0
  -22.0550   -4.8400   22.5460 C   0  0  0  0  0  0  0  0  0  0  0  0
  -22.4670   -4.2970   21.3740 F   0  0  0  0  0  0  0  0  0  0  0  0
  -21.4130   -3.8030   26.0050 F   0  0  0  0  0  0  0  0  0  0  0  0
  -22.7700  -13.5760   21.1500 C   0  0  0  0  0  0  0  0  0  0  0  0
  -22.0710  -12.8650   22.0260 N   0  0  0  0  0  0  0  0  0  0  0  0
  -22.3080  -14.5990   20.6450 O   0  0  0  0  0  0  0  0  0  0  0  0
  -22.4600  -12.0390   22.4590 H   0  0  0  0  0  0  0  0  0  0  0  0
  -21.1330  -13.1500   22.2700 H   0  0  0  0  0  0  0  0  0  0  0  0
  -25.3200  -15.3100   20.3020 N   0  0  0  0  0  0  0  0  0  0  0  0
  -24.5370  -15.9400   20.4390 H   0  0  0  0  0  0  0  0  0  0  0  0
  -26.1510  -15.7750   19.9590 H   0  0  0  0  0  0  0  0  0  0  0  0
  -31.2280  -22.1060   19.2630 C   0  0  0  0  0  1  0  0  0  0  0  0
  -30.5410  -21.1630   20.2670 C   0  0  0  0  0  2  0  0  0  0  0  0
  -28.1280  -24.7620   20.2760 O   0  0  0  0  0  1  0  0  0  0  0  0
  -24.6150  -31.7700   23.1320 C   0  0  0  0  0  0  0  0  0  0  0  0
  -27.1850  -26.2030   20.2850 C   0  0  0  0  0  0  0  0  0  0  0  0
  -23.4740  -30.3260   21.5120 C   0  0  0  0  0  3  0  0  0  0  0  0
  -24.9480  -28.5620   20.1720 C   0  0  0  0  0  0  0  0  0  0  0  0
  -26.0720  -30.3320   21.4720 C   0  0  0  0  0  2  0  0  0  0  0  0
  -26.1470  -28.8310   20.8370 C   0  0  0  0  0  0  0  0  0  0  0  0
  -27.2220  -27.7030   20.8400 C   0  0  0  0  0  3  0  0  0  0  0  0
  -25.9380  -26.2850   19.5570 C   0  0  0  0  0  3  0  0  0  0  0  0
  -24.9150  -27.3190   19.5040 C   0  0  0  0  0  3  0  0  0  0  0  0
  -23.7570  -29.5700   20.1730 C   0  0  0  0  0  2  0  0  0  0  0  0
  -24.7510  -30.8560   22.0900 N   0  0  0  0  0  0  0  0  0  0  0  0
  -23.5050  -32.0880   23.5990 O   0  0  0  0  0  0  0  0  0  0  0  0
  -22.7050  -29.4050   22.5030 C   0  0  0  0  0  0  0  0  0  0  0  0
  -21.3680  -29.2750   22.3780 N   0  0  0  0  0  0  0  0  0  0  0  0
  -23.3360  -28.7970   23.3700 O   0  0  0  0  0  0  0  0  0  0  0  0
  -20.8990  -29.8150   21.6650 H   0  0  0  0  0  0  0  0  0  0  0  0
  -17.9670  -28.0710   22.9200 C   0  0  0  0  0  0  0  0  0  0  0  0
  -20.5310  -28.3500   23.1610 C   0  0  0  0  0  3  0  0  0  0  0  0
  -20.6280  -26.9110   22.5990 C   0  0  0  0  0  2  0  0  0  0  0  0
  -19.5230  -26.5830   21.5890 C   0  0  0  0  0  2  0  0  0  0  0  0
  -18.1440  -26.7240   22.2390 C   0  0  0  0  0  2  0  0  0  0  0  0
  -19.0870  -28.8420   23.3370 C   0  0  0  0  0  0  0  0  0  0  0  0
  -18.8620  -30.0960   23.9440 C   0  0  0  0  0  3  0  0  0  0  0  0
  -17.5530  -30.5830   24.1300 C   0  0  0  0  0  3  0  0  0  0  0  0
  -16.4510  -29.8120   23.7230 C   0  0  0  0  0  3  0  0  0  0  0  0
  -16.6590  -28.5570   23.1240 C   0  0  0  0  0  3  0  0  0  0  0  0
  -25.8400  -32.4690   23.7960 C   0  0  0  0  0  3  0  0  0  0  0  0
  -26.3190  -31.7460   25.1180 C   0  0  1  0  0  0  0  0  0  0  0  0
  -25.1930  -31.5310   26.1580 C   0  0  0  0  0  1  0  0  0  0  0  0
  -26.9290  -30.3630   24.8090 C   0  0  0  0  0  1  0  0  0  0  0  0
  -27.4390  -32.5730   25.7930 C   0  0  0  0  0  1  0  0  0  0  0  0
  -25.4800  -33.8720   24.1180 N   0  0  0  0  0  0  0  0  0  0  0  0
  -25.8050  -34.9520   23.3920 C   0  0  0  0  0  0  0  0  0  0  0  0
  -26.4840  -34.8750   22.3660 O   0  0  0  0  0  0  0  0  0  0  0  0
  -24.8710  -34.0030   24.9130 H   0  0  0  0  0  0  0  0  0  0  0  0
  -24.0540  -36.7450   23.0850 C   0  0  0  0  0  1  0  0  0  0  0  0
  -25.3080  -36.3360   23.8750 C   0  0  0  0  0  3  0  0  0  0  0  0
  -27.4350  -37.2560   24.7010 C   0  0  0  0  0  1  0  0  0  0  0  0
  -26.3250  -37.4060   23.7630 N   0  0  0  0  0  0  0  0  0  0  0  0
  -25.9060  -38.3190   23.9120 H   0  0  0  0  0  0  0  0  0  0  0  0
  2  3  1  0
  3 43  1  0
  4  5  1  0
  7 12  1  0
  8  9  1  0
  8  7  1  0
 10  9  1  0
 10 17  1  0
 10 11  1  0
 12  6  1  0
 12 11  1  0
 13  6  1  0
 14 15  2  0
 15 34  1  0
 16 15  1  0
 16 19  1  0
 17 18  1  0
 17 14  1  0
 18 16  2  0
 19 20  1  0
 20 21  2  0
 22 25  1  0
 22 21  1  0
 23 22  2  0
 24 23  1  0
 24 19  2  0
 25 26  1  0
 26 27  1  0
 27 28  2  0
 29 28  1  0
 29 33  1  0
 30 29  2  0
 31 26  2  0
 31 30  1  0
 32 31  1  0
 34 35  1  0
 35 38  1  0
 35 37  1  0
 36 34  2  0
 39 40  1  0
 39 14  1  0
 41 39  1  0
 42 43  1  0
 44 46  1  0
 45 56  2  0
 46 51  1  0
 47 55  1  0
 47 57  1  0
 48 54  1  0
 48 50  1  0
 49 55  1  0
 50 51  2  0
 50 49  1  0
 52 46  2  0
 53 52  1  0
 53 48  2  0
 54 47  1  0
 55 45  1  0
 57 59  2  0
 58 57  1  0
 60 58  1  0
 61 70  2  0
 61 66  1  0
 62 58  1  0
 62 66  1  0
 63 62  1  0
 64 65  1  0
 64 63  1  0
 65 61  1  0
 66 67  2  0
 67 68  1  0
 69 68  2  0
 70 69  1  0
 71 45  1  0
 71 76  1  0
 71 72  1  0
 72 75  1  1
 72 73  1  0
 74 72  1  0
 76 79  1  0
 77 81  1  0
 77 76  1  0
 78 77  2  0
 81 80  1  0
 83 81  1  0
 83 84  1  0
 83 82  1  0
M  ISO  4   1 101   5 100   6 100  44 101
M  END
>  <TORSDO>  (58) 
F 19

>  <SCORE>  (58) 
-15.911

>  <name>  (58) 
57

>  <ligand_id>  (58) 
57

>  <original_smiles>  (58) 
[H]C([H])=C(C(=O)N1C([H])([H])C([H])([H])C([H])([H])C([H])(n2nc(-c3c([H])c([H])c(Oc4c([H])c([H])c(F)c([H])c4F)c([H])c3[H])c(C(=O)N([H])[H])c2N([H])[H])C1([H])[H])C(C([H])([H])[H])(C([H])([H])Oc1c([H])c([H])c2c(c1[H])C([H])([H])N(C(=O)C([H])(N([H])C(=O)C([H])(N([H])C([H])([H])[H])C([H])([H])[H])C(C([H])([H])[H])(C([H])([H])[H])C([H])([H])[H])C([H])(C(=O)N([H])C1([H])c3c([H])c([H])c([H])c([H])c3C([H])([H])C([H])([H])C1([H])[H])C2([H])[H])C([H])([H])C([H])([H])[H]

>  <smiles>  (58) 
[H]C([H])=C(C(=O)N1C([H])([H])C([H])([H])C([H])([H])C([H])(n2nc(-c3c([H])c([H])c(Oc4c([H])c([H])c(F)c([H])c4F)c([H])c3[H])c(C(=O)N([H])[H])c2N([H])[H])C1([H])[H])C(C([H])([H])[H])(C([H])([H])Oc1c([H])c([H])c2c(c1[H])C([H])([H])N(C(=O)C([H])(N([H])C(=O)C([H])(N([H])C([H])([H])[H])C([H])([H])[H])C(C([H])([H])[H])(C([H])([H])[H])C([H])([H])[H])C([H])(C(=O)N([H])C1([H])c3c([H])c([H])c([H])c([H])c3C([H])([H])C([H])([H])C1([H])[H])C2([H])[H])C([H])([H])C([H])([H])[H]

$$$$
58:0:0
     RDKit          3D

 92101  0  0  1  0  0  0  0  0999 V2000
  -26.2370  -20.7170   17.7430 C   0  0  0  0  0  1  0  0  0  0  0  0
  -26.8600  -20.8440   19.0610 N   0  0  0  0  0  0  0  0  0  0  0  0
  -28.6340  -18.5150   21.4030 C   0  0  0  0  0  3  0  0  0  0  0  0
  -27.8430  -19.5840   20.9270 C   0  0  0  0  0  3  0  0  0  0  0  0
  -28.2810  -18.8950   18.6400 C   0  0  0  0  0  3  0  0  0  0  0  0
  -29.2620  -17.6130   20.5190 C   0  0  0  0  0  0  0  0  0  0  0  0
  -27.6590  -19.7870   19.5390 C   0  0  0  0  0  0  0  0  0  0  0  0
  -29.0610  -17.8320   19.1270 C   0  0  0  0  0  0  0  0  0  0  0  0
  -30.4440  -15.8780   19.7280 C   0  0  0  0  0  0  0  0  0  0  0  0
  -30.0570  -16.5120   20.8520 N   0  0  0  0  0  0  0  0  0  0  0  0
  -29.9180  -16.6100   18.2050 S   0  0  0  0  0  0  0  0  0  0  0  0
  -31.2750  -14.6390   19.5630 C   0  0  0  0  0  0  0  0  0  0  0  0
  -30.8250  -12.4720   18.5190 C   0  0  0  0  0  2  0  0  0  0  0  0
  -29.7620  -12.7210   17.4280 C   0  0  0  0  0  2  0  0  0  0  0  0
  -28.3380  -12.6300   18.0180 C   0  0  0  0  0  2  0  0  0  0  0  0
  -28.1650  -13.4750   19.3080 C   0  0  0  0  0  3  0  0  0  0  0  0
  -29.3330  -13.2220   20.2880 C   0  0  0  0  0  2  0  0  0  0  0  0
  -30.5980  -13.4630   19.5800 N   0  0  0  0  0  0  0  0  0  0  0  0
  -32.4020  -14.7740   19.0750 O   0  0  0  0  0  0  0  0  0  0  0  0
  -25.9330  -14.1520   20.3990 C   0  0  0  0  0  0  0  0  0  0  0  0
  -24.8690  -13.4110   20.8380 C   0  0  0  0  0  0  0  0  0  0  0  0
  -25.2190  -12.0450   20.6140 C   0  0  0  0  0  0  0  0  0  0  0  0
  -26.8700  -13.2370   19.9420 N   0  0  0  0  0  0  0  0  0  0  0  0
  -26.4520  -11.9590   20.1280 N   0  0  0  0  0  0  0  0  0  0  0  0
  -24.4350  -10.8170   20.7790 C   0  0  0  0  0  0  0  0  0  0  0  0
  -24.8400   -9.7930   21.6630 C   0  0  0  0  0  3  0  0  0  0  0  0
  -24.0580   -8.6290   21.8190 C   0  0  0  0  0  3  0  0  0  0  0  0
  -22.8550   -8.4800   21.0880 C   0  0  0  0  0  0  0  0  0  0  0  0
  -22.4680   -9.4920   20.1910 C   0  0  0  0  0  3  0  0  0  0  0  0
  -23.2510  -10.6470   20.0340 C   0  0  0  0  0  3  0  0  0  0  0  0
  -22.0450   -7.3730   21.1570 O   0  0  0  0  0  0  0  0  0  0  0  0
  -21.8930   -6.6610   22.3210 C   0  0  0  0  0  0  0  0  0  0  0  0
  -21.4120   -7.2630   23.5040 C   0  0  0  0  0  3  0  0  0  0  0  0
  -21.2050   -6.4800   24.6570 C   0  0  0  0  0  3  0  0  0  0  0  0
  -21.4690   -5.0980   24.6280 C   0  0  0  0  0  0  0  0  0  0  0  0
  -21.9410   -4.4960   23.4480 C   0  0  0  0  0  3  0  0  0  0  0  0
  -22.1510   -5.2760   22.2970 C   0  0  0  0  0  0  0  0  0  0  0  0
  -22.5860   -4.6870   21.1590 F   0  0  0  0  0  0  0  0  0  0  0  0
  -21.2620   -4.3450   25.7330 F   0  0  0  0  0  0  0  0  0  0  0  0
  -23.5590  -13.9400   21.3460 C   0  0  0  0  0  0  0  0  0  0  0  0
  -22.9160  -13.2170   22.2570 N   0  0  0  0  0  0  0  0  0  0  0  0
  -23.1200  -15.0280   20.9730 O   0  0  0  0  0  0  0  0  0  0  0  0
  -23.2850  -12.3330   22.5770 H   0  0  0  0  0  0  0  0  0  0  0  0
  -22.0440  -13.5530   22.6390 H   0  0  0  0  0  0  0  0  0  0  0  0
  -26.1730  -15.5200   20.3290 N   0  0  0  0  0  0  0  0  0  0  0  0
  -25.4820  -16.2070   20.6130 H   0  0  0  0  0  0  0  0  0  0  0  0
  -26.9990  -15.9360   19.9230 H   0  0  0  0  0  0  0  0  0  0  0  0
  -26.9400  -22.1590   19.7020 C   0  0  0  0  0  2  0  0  0  0  0  0
  -27.7210  -23.1860   18.8530 C   0  0  0  0  0  2  0  0  0  0  0  0
  -27.9370  -24.5360   19.5670 C   0  0  0  0  0  2  0  0  0  0  0  0
  -28.4480  -25.6530   18.6150 C   0  0  0  0  0  2  0  0  0  0  0  0
  -28.4860  -26.9660   19.2080 O   0  0  0  0  0  0  0  0  0  0  0  0
  -24.7070  -31.6310   23.0700 C   0  0  0  0  0  0  0  0  0  0  0  0
  -27.3050  -27.6760   19.3250 C   0  0  0  0  0  0  0  0  0  0  0  0
  -23.4760  -30.4420   21.2920 C   0  0  0  0  0  3  0  0  0  0  0  0
  -24.9040  -29.1420   19.6310 C   0  0  0  0  0  0  0  0  0  0  0  0
  -25.9960  -30.8530   21.0820 C   0  0  0  0  0  2  0  0  0  0  0  0
  -26.0750  -29.5860   20.2550 C   0  0  0  0  0  0  0  0  0  0  0  0
  -27.2770  -28.8540   20.1100 C   0  0  0  0  0  3  0  0  0  0  0  0
  -26.1100  -27.2660   18.6870 C   0  0  0  0  0  3  0  0  0  0  0  0
  -24.9130  -27.9770   18.8530 C   0  0  0  0  0  3  0  0  0  0  0  0
  -23.6530  -29.9670   19.8290 C   0  0  0  0  0  2  0  0  0  0  0  0
  -24.7470  -30.9830   21.8740 N   0  0  0  0  0  0  0  0  0  0  0  0
  -23.6380  -31.8100   23.6690 O   0  0  0  0  0  0  0  0  0  0  0  0
  -22.8690  -29.2840   22.1190 C   0  0  0  0  0  0  0  0  0  0  0  0
  -21.5400  -29.1190   22.0310 N   0  0  0  0  0  0  0  0  0  0  0  0
  -23.5900  -28.5490   22.7960 O   0  0  0  0  0  0  0  0  0  0  0  0
  -21.0170  -29.7670   21.4580 H   0  0  0  0  0  0  0  0  0  0  0  0
  -18.1880  -27.8710   22.5400 C   0  0  0  0  0  0  0  0  0  0  0  0
  -20.7600  -28.0780   22.7000 C   0  0  0  0  0  3  0  0  0  0  0  0
  -20.8120  -26.7490   21.9100 C   0  0  0  0  0  2  0  0  0  0  0  0
  -19.6510  -26.5850   20.9230 C   0  0  0  0  0  2  0  0  0  0  0  0
  -18.3110  -26.6370   21.6610 C   0  0  0  0  0  2  0  0  0  0  0  0
  -19.3380  -28.5570   23.0140 C   0  0  0  0  0  0  0  0  0  0  0  0
  -19.1680  -29.7180   23.7980 C   0  0  0  0  0  3  0  0  0  0  0  0
  -17.8810  -30.1960   24.1090 C   0  0  0  0  0  3  0  0  0  0  0  0
  -16.7460  -29.5030   23.6520 C   0  0  0  0  0  3  0  0  0  0  0  0
  -16.9010  -28.3430   22.8730 C   0  0  0  0  0  3  0  0  0  0  0  0
  -26.0030  -32.2020   23.7280 C   0  0  0  0  0  3  0  0  0  0  0  0
  -25.6670  -33.5140   24.2970 N   0  0  0  0  0  0  0  0  0  0  0  0
  -25.9460  -34.6870   23.7170 C   0  0  0  0  0  0  0  0  0  0  0  0
  -26.5870  -34.7810   22.6670 O   0  0  0  0  0  0  0  0  0  0  0  0
  -25.0970  -33.5150   25.1300 H   0  0  0  0  0  0  0  0  0  0  0  0
  -24.1580  -36.4550   23.7100 C   0  0  0  0  0  1  0  0  0  0  0  0
  -25.4330  -35.9620   24.4130 C   0  0  0  0  0  3  0  0  0  0  0  0
  -27.5630  -36.7640   25.3330 C   0  0  0  0  0  1  0  0  0  0  0  0
  -26.4310  -37.0530   24.4580 N   0  0  0  0  0  0  0  0  0  0  0  0
  -26.0010  -37.9200   24.7690 H   0  0  0  0  0  0  0  0  0  0  0  0
  -26.6080  -31.2520   24.8340 C   0  0  1  0  0  0  0  0  0  0  0  0
  -25.5820  -30.8020   25.9000 C   0  0  0  0  0  1  0  0  0  0  0  0
  -27.2000  -29.9750   24.1930 C   0  0  0  0  0  1  0  0  0  0  0  0
  -27.7710  -31.9680   25.5580 C   0  0  0  0  0  1  0  0  0  0  0  0
  1  2  1  0
  2  7  1  0
  2 48  1  0
  4  3  1  0
  5  8  2  0
  5  7  1  0
  6 10  1  0
  6  3  2  0
  7  4  2  0
  8  6  1  0
  9 10  2  0
 11  8  1  0
 11  9  1  0
 12 18  1  0
 12  9  1  0
 13 18  1  0
 14 15  1  0
 14 13  1  0
 16 15  1  0
 16 23  1  0
 16 17  1  0
 18 17  1  0
 19 12  2  0
 20 21  2  0
 21 40  1  0
 22 25  1  0
 22 21  1  0
 23 24  1  0
 23 20  1  0
 24 22  2  0
 25 26  1  0
 26 27  2  0
 28 31  1  0
 28 27  1  0
 29 28  2  0
 30 29  1  0
 30 25  2  0
 31 32  1  0
 32 33  1  0
 33 34  2  0
 35 34  1  0
 35 39  1  0
 36 35  2  0
 37 32  2  0
 37 36  1  0
 38 37  1  0
 40 41  1  0
 41 43  1  0
 41 44  1  0
 42 40  2  0
 45 20  1  0
 45 46  1  0
 47 45  1  0
 49 50  1  0
 49 48  1  0
 51 52  1  0
 51 50  1  0
 52 54  1  0
 53 64  2  0
 54 59  1  0
 55 63  1  0
 55 65  1  0
 56 62  1  0
 56 58  1  0
 57 63  1  0
 58 57  1  0
 59 58  2  0
 60 61  1  0
 60 54  2  0
 61 56  2  0
 62 55  1  0
 63 53  1  0
 65 67  2  0
 66 65  1  0
 68 66  1  0
 69 78  2  0
 69 74  1  0
 70 66  1  0
 70 74  1  0
 71 70  1  0
 72 73  1  0
 72 71  1  0
 73 69  1  0
 74 75  2  0
 75 76  1  0
 77 76  2  0
 78 77  1  0
 79 53  1  0
 79 80  1  0
 79 89  1  0
 80 83  1  0
 81 80  1  0
 81 85  1  0
 82 81  2  0
 85 84  1  0
 85 87  1  0
 87 88  1  0
 87 86  1  0
 89 92  1  1
 89 90  1  0
 91 89  1  0
M  ISO  4   9 100  12 100  51 101  52 101
M  END
>  <TORSDO>  (59) 
F 21

>  <SCORE>  (59) 
-9.085

>  <name>  (59) 
58

>  <ligand_id>  (59) 
58

>  <original_smiles>  (59) 
[H]c1c([H])c([H])c2c(c1[H])C([H])([H])C([H])([H])C([H])([H])C2([H])N([H])C(=O)C1([H])N(C(=O)C([H])(N([H])C(=O)C([H])(N([H])C([H])([H])[H])C([H])([H])[H])C(C([H])([H])[H])(C([H])([H])[H])C([H])([H])[H])C([H])([H])c2c([H])c(OC([H])([H])C([H])([H])C([H])([H])C([H])([H])N(c3c([H])c([H])c4nc(C(=O)N5C([H])([H])C([H])([H])C([H])([H])C([H])(n6nc(-c7c([H])c([H])c(Oc8c([H])c([H])c(F)c([H])c8F)c([H])c7[H])c(C(=O)N([H])[H])c6N([H])[H])C5([H])[H])sc4c3[H])C([H])([H])[H])c([H])c([H])c2C1([H])[H]

>  <smiles>  (59) 
[H]c1c([H])c([H])c2c(c1[H])C([H])([H])C([H])([H])C([H])([H])C2([H])N([H])C(=O)C1([H])N(C(=O)C([H])(N([H])C(=O)C([H])(N([H])C([H])([H])[H])C([H])([H])[H])C(C([H])([H])[H])(C([H])([H])[H])C([H])([H])[H])C([H])([H])c2c([H])c(OC([H])([H])C([H])([H])C([H])([H])C([H])([H])N(c3c([H])c([H])c4nc(C(=O)N5C([H])([H])C([H])([H])C([H])([H])C([H])(n6nc(-c7c([H])c([H])c(Oc8c([H])c([H])c(F)c([H])c8F)c([H])c7[H])c(C(=O)N([H])[H])c6N([H])[H])C5([H])[H])sc4c3[H])C([H])([H])[H])c([H])c([H])c2C1([H])[H]

$$$$
59:0:0
     RDKit          3D

 93101  0  0  1  0  0  0  0  0999 V2000
  -29.8300  -23.1580   17.0000 C   0  0  0  0  0  0  0  0  0  0  0  0
  -29.1060  -22.8110   18.0730 N   0  0  0  0  0  0  0  0  0  0  0  0
  -30.3270  -24.2790   16.8670 O   0  0  0  0  0  0  0  0  0  0  0  0
  -28.7290  -21.8720   18.0890 H   0  0  0  0  0  0  0  0  0  0  0  0
  -29.9590  -25.0230   21.1250 C   0  0  0  0  0  2  0  0  0  0  0  0
  -30.1540  -23.9450   20.0380 C   0  0  0  0  0  2  0  0  0  0  0  0
  -28.4930  -25.4800   21.2670 C   0  0  0  0  0  2  0  0  0  0  0  0
  -28.1650  -24.9800   18.8350 C   0  0  0  0  0  2  0  0  0  0  0  0
  -28.8610  -23.6610   19.2440 C   0  0  0  0  0  3  0  0  0  0  0  0
  -27.9700  -25.9470   19.9600 N   0  0  1  0  0  4  0  0  0  0  0  0
  -28.5840  -26.7180   19.7380 H   0  0  0  0  0  0  0  0  0  0  0  0
  -26.6010  -26.5360   20.0280 C   0  0  0  0  0  2  0  0  0  0  0  0
  -26.6650  -28.0680   19.8760 C   0  0  0  0  0  2  0  0  0  0  0  0
  -25.3630  -28.8530   20.1110 C   0  0  0  0  0  0  0  0  0  0  0  0
  -23.0420  -28.7620   19.3310 C   0  0  0  0  0  2  0  0  0  0  0  0
  -22.7340  -27.3020   18.9370 C   0  0  0  0  0  2  0  0  0  0  0  0
  -23.1210  -27.0320   17.4660 C   0  0  0  0  0  2  0  0  0  0  0  0
  -24.5600  -27.4990   17.1350 C   0  0  0  0  0  3  0  0  0  0  0  0
  -24.8010  -28.9320   17.6610 C   0  0  0  0  0  2  0  0  0  0  0  0
  -24.4730  -28.9810   19.0930 N   0  0  0  0  0  0  0  0  0  0  0  0
  -25.0610  -29.0650   21.2880 O   0  0  0  0  0  0  0  0  0  0  0  0
  -25.9710  -27.8460   15.0120 C   0  0  0  0  0  0  0  0  0  0  0  0
  -25.7970  -27.4190   13.7230 C   0  0  0  0  0  0  0  0  0  0  0  0
  -24.5570  -26.7100   13.7070 C   0  0  0  0  0  0  0  0  0  0  0  0
  -24.8640  -27.3900   15.7120 N   0  0  0  0  0  0  0  0  0  0  0  0
  -23.9800  -26.7580   14.9010 N   0  0  0  0  0  0  0  0  0  0  0  0
  -23.9080  -25.9370   12.6410 C   0  0  0  0  0  0  0  0  0  0  0  0
  -23.1150  -26.5620   11.6540 C   0  0  0  0  0  3  0  0  0  0  0  0
  -22.5160  -25.8000   10.6290 C   0  0  0  0  0  3  0  0  0  0  0  0
  -22.7110  -24.4000   10.5790 C   0  0  0  0  0  0  0  0  0  0  0  0
  -23.4840  -23.7790   11.5770 C   0  0  0  0  0  3  0  0  0  0  0  0
  -24.0750  -24.5380   12.6000 C   0  0  0  0  0  3  0  0  0  0  0  0
  -22.1500  -23.5770    9.6330 O   0  0  0  0  0  0  0  0  0  0  0  0
  -22.7840  -23.3090    8.4460 C   0  0  0  0  0  0  0  0  0  0  0  0
  -24.0660  -22.7160    8.4020 C   0  0  0  0  0  3  0  0  0  0  0  0
  -24.6470  -22.3870    7.1620 C   0  0  0  0  0  3  0  0  0  0  0  0
  -23.9500  -22.6470    5.9670 C   0  0  0  0  0  0  0  0  0  0  0  0
  -22.6740  -23.2370    6.0080 C   0  0  0  0  0  3  0  0  0  0  0  0
  -22.0920  -23.5620    7.2450 C   0  0  0  0  0  0  0  0  0  0  0  0
  -20.8510  -24.1060    7.2800 F   0  0  0  0  0  0  0  0  0  0  0  0
  -24.5060  -22.3250    4.7750 F   0  0  0  0  0  0  0  0  0  0  0  0
  -26.7790  -27.5580   12.5940 C   0  0  0  0  0  0  0  0  0  0  0  0
  -26.3410  -28.0980   11.4620 N   0  0  0  0  0  0  0  0  0  0  0  0
  -27.9570  -27.2310   12.7300 O   0  0  0  0  0  0  0  0  0  0  0  0
  -25.3820  -28.3910   11.3590 H   0  0  0  0  0  0  0  0  0  0  0  0
  -26.9780  -28.2270   10.6880 H   0  0  0  0  0  0  0  0  0  0  0  0
  -26.9860  -28.5560   15.6490 N   0  0  0  0  0  0  0  0  0  0  0  0
  -27.8350  -28.6780   15.1050 H   0  0  0  0  0  0  0  0  0  0  0  0
  -27.1950  -28.3020   16.6050 H   0  0  0  0  0  0  0  0  0  0  0  0
  -29.9890  -22.0650   16.0580 C   0  0  0  0  0  3  0  0  0  0  0  0
  -31.2170  -21.6190   15.7250 C   0  0  0  0  0  3  0  0  0  0  0  0
  -31.4790  -20.4330   14.8170 C   0  0  0  0  0  2  0  0  0  0  0  0
  -31.4200  -19.1960   15.5340 O   0  0  0  0  0  0  0  0  0  0  0  0
  -35.7690  -13.5870   16.1000 C   0  0  0  0  0  0  0  0  0  0  0  0
  -31.8730  -18.0330   14.9390 C   0  0  0  0  0  0  0  0  0  0  0  0
  -34.6190  -13.8370   13.9260 C   0  0  0  0  0  3  0  0  0  0  0  0
  -32.7580  -15.5730   13.8500 C   0  0  0  0  0  0  0  0  0  0  0  0
  -33.5710  -14.7630   16.0710 C   0  0  0  0  0  2  0  0  0  0  0  0
  -32.9160  -15.8280   15.2170 C   0  0  0  0  0  0  0  0  0  0  0  0
  -32.4710  -17.0530   15.7650 C   0  0  0  0  0  3  0  0  0  0  0  0
  -31.7550  -17.7680   13.5540 C   0  0  0  0  0  3  0  0  0  0  0  0
  -32.1850  -16.5430   13.0120 C   0  0  0  0  0  3  0  0  0  0  0  0
  -33.2410  -14.2360   13.3380 C   0  0  0  0  0  2  0  0  0  0  0  0
  -34.7010  -14.0700   15.4050 N   0  0  0  0  0  0  0  0  0  0  0  0
  -36.6520  -12.9250   15.5390 O   0  0  0  0  0  0  0  0  0  0  0  0
  -35.7220  -14.5660   13.1280 C   0  0  0  0  0  0  0  0  0  0  0  0
  -36.3840  -13.8350   12.2160 N   0  0  0  0  0  0  0  0  0  0  0  0
  -35.9500  -15.7650   13.3120 O   0  0  0  0  0  0  0  0  0  0  0  0
  -36.1480  -12.8570   12.1330 H   0  0  0  0  0  0  0  0  0  0  0  0
  -39.2730  -12.8150   10.3030 C   0  0  0  0  0  0  0  0  0  0  0  0
  -37.4350  -14.3190   11.3230 C   0  0  0  0  0  3  0  0  0  0  0  0
  -36.9080  -14.4820    9.8780 C   0  0  0  0  0  2  0  0  0  0  0  0
  -37.1400  -13.2430    9.0080 C   0  0  0  0  0  2  0  0  0  0  0  0
  -38.6350  -12.9150    8.9280 C   0  0  0  0  0  2  0  0  0  0  0  0
  -38.7020  -13.4610   11.4300 C   0  0  0  0  0  0  0  0  0  0  0  0
  -39.3140  -13.3060   12.6930 C   0  0  0  0  0  3  0  0  0  0  0  0
  -40.4770  -12.5260   12.8380 C   0  0  0  0  0  3  0  0  0  0  0  0
  -41.0480  -11.9020   11.7160 C   0  0  0  0  0  3  0  0  0  0  0  0
  -40.4490  -12.0500   10.4510 C   0  0  0  0  0  3  0  0  0  0  0  0
  -35.9190  -13.8250   17.6350 C   0  0  0  0  0  3  0  0  0  0  0  0
  -36.1830  -12.5210   18.2600 N   0  0  0  0  0  0  0  0  0  0  0  0
  -35.2350  -11.6690   18.6710 C   0  0  0  0  0  0  0  0  0  0  0  0
  -34.0300  -11.9370   18.6290 O   0  0  0  0  0  0  0  0  0  0  0  0
  -37.1440  -12.2150   18.2790 H   0  0  0  0  0  0  0  0  0  0  0  0
  -35.3990   -9.2100   18.1770 C   0  0  0  0  0  1  0  0  0  0  0  0
  -35.6960  -10.3040   19.2150 C   0  0  0  0  0  3  0  0  0  0  0  0
  -35.5570  -10.7560   21.6240 C   0  0  0  0  0  1  0  0  0  0  0  0
  -35.0750   -9.9460   20.5090 N   0  0  0  0  0  0  0  0  0  0  0  0
  -35.2440   -8.9680   20.7300 H   0  0  0  0  0  0  0  0  0  0  0  0
  -37.0540  -14.8580   17.9980 C   0  0  1  0  0  0  0  0  0  0  0  0
  -38.4820  -14.2780   17.8810 C   0  0  0  0  0  1  0  0  0  0  0  0
  -36.9750  -16.1030   17.0840 C   0  0  0  0  0  1  0  0  0  0  0  0
  -36.8610  -15.3620   19.4490 C   0  0  0  0  0  1  0  0  0  0  0  0
  1  2  1  0
  2  4  1  0
  3  1  2  0
  5  7  1  0
  6  5  1  0
  8  9  1  0
  8 10  1  0
  9  2  1  0
  9  6  1  0
 10 12  1  0
 10  7  1  0
 10 11  1  6
 13 12  1  0
 13 14  1  0
 14 21  2  0
 16 15  1  0
 17 16  1  0
 18 25  1  0
 18 17  1  0
 18 19  1  0
 19 20  1  0
 20 15  1  0
 20 14  1  0
 22 47  1  0
 22 25  1  0
 23 22  2  0
 24 23  1  0
 24 26  2  0
 26 25  1  0
 27 24  1  0
 28 27  2  0
 29 28  1  0
 30 29  2  0
 30 31  1  0
 31 32  2  0
 32 27  1  0
 33 30  1  0
 34 33  1  0
 35 34  1  0
 36 35  2  0
 37 38  2  0
 37 36  1  0
 38 39  1  0
 39 40  1  0
 39 34  2  0
 41 37  1  0
 42 44  2  0
 42 23  1  0
 43 42  1  0
 45 43  1  0
 46 43  1  0
 47 49  1  0
 48 47  1  0
 50  1  1  0
 51 50  2  0
 52 53  1  0
 52 51  1  0
 55 53  1  0
 55 60  1  0
 56 66  1  0
 56 64  1  0
 57 59  1  0
 59 60  2  0
 59 58  1  0
 61 55  2  0
 62 61  1  0
 62 57  2  0
 63 57  1  0
 63 56  1  0
 64 58  1  0
 64 54  1  0
 65 54  2  0
 66 68  2  0
 67 66  1  0
 69 67  1  0
 70 79  2  0
 70 75  1  0
 71 75  1  0
 71 67  1  0
 72 71  1  0
 73 72  1  0
 74 73  1  0
 74 70  1  0
 75 76  2  0
 76 77  1  0
 78 77  2  0
 79 78  1  0
 80 54  1  0
 80 90  1  0
 80 81  1  0
 81 84  1  0
 81 82  1  0
 82 86  1  0
 83 82  2  0
 86 85  1  0
 86 88  1  0
 88 89  1  0
 88 87  1  0
 90 93  1  1
 91 90  1  0
 92 90  1  0
M  ISO  4  13 100  14 100  52 101  53 101
M  END
>  <TORSDO>  (60) 
F 21

>  <SCORE>  (60) 
-4.162

>  <name>  (60) 
59

>  <ligand_id>  (60) 
59

>  <original_smiles>  (60) 
[H]C(C(=O)N([H])C1([H])C([H])([H])C([H])([H])C([H])([H])[N+]([H])(C([H])([H])C([H])([H])C(=O)N2C([H])([H])C([H])([H])C([H])([H])C([H])(n3nc(-c4c([H])c([H])c(Oc5c([H])c([H])c(F)c([H])c5F)c([H])c4[H])c(C(=O)N([H])[H])c3N([H])[H])C2([H])[H])C1([H])[H])=C([H])C([H])([H])Oc1c([H])c([H])c2c(c1[H])C([H])([H])N(C(=O)C([H])(N([H])C(=O)C([H])(N([H])C([H])([H])[H])C([H])([H])[H])C(C([H])([H])[H])(C([H])([H])[H])C([H])([H])[H])C([H])(C(=O)N([H])C1([H])c3c([H])c([H])c([H])c([H])c3C([H])([H])C([H])([H])C1([H])[H])C2([H])[H]

>  <smiles>  (60) 
[H]C(C(=O)N([H])C1([H])C([H])([H])C([H])([H])C([H])([H])[N+]([H])(C([H])([H])C([H])([H])C(=O)N2C([H])([H])C([H])([H])C([H])([H])C([H])(n3nc(-c4c([H])c([H])c(Oc5c([H])c([H])c(F)c([H])c5F)c([H])c4[H])c(C(=O)N([H])[H])c3N([H])[H])C2([H])[H])C1([H])[H])=C([H])C([H])([H])Oc1c([H])c([H])c2c(c1[H])C([H])([H])N(C(=O)C([H])(N([H])C(=O)C([H])(N([H])C([H])([H])[H])C([H])([H])[H])C(C([H])([H])[H])(C([H])([H])[H])C([H])([H])[H])C([H])(C(=O)N([H])C1([H])c3c([H])c([H])c([H])c([H])c3C([H])([H])C([H])([H])C1([H])[H])C2([H])[H]

$$$$
60:0:0
     RDKit          3D

 92100  0  0  1  0  0  0  0  0999 V2000
  -29.6590  -21.6230   22.7450 N   0  0  0  0  0  4  0  0  0  0  0  0
  -30.5210  -22.1430   22.7580 H   0  0  0  0  0  0  0  0  0  0  0  0
  -29.1880  -21.7900   23.6190 H   0  0  0  0  0  0  0  0  0  0  0  0
  -31.3270  -19.8730   23.3060 C   0  0  0  0  0  2  0  0  0  0  0  0
  -32.2670  -19.7170   22.1170 C   0  0  0  0  0  2  0  0  0  0  0  0
  -30.1200  -19.6770   21.2170 C   0  0  0  0  0  2  0  0  0  0  0  0
  -29.9640  -20.1740   22.6730 C   0  0  0  0  0  3  0  0  0  0  0  0
  -31.4270  -19.0150   21.1570 N   0  0  0  0  0  0  0  0  0  0  0  0
  -32.0340  -19.0060   19.8250 C   0  0  0  0  0  2  0  0  0  0  0  0
  -31.8230  -17.6630   19.1040 C   0  0  0  0  0  2  0  0  0  0  0  0
  -31.7020  -16.4680   20.0750 C   0  0  0  0  0  2  0  0  0  0  0  0
  -32.2910  -15.1510   19.5410 C   0  0  0  0  0  0  0  0  0  0  0  0
  -32.1580  -12.6870   19.3590 C   0  0  0  0  0  2  0  0  0  0  0  0
  -31.2120  -12.2580   18.2230 C   0  0  0  0  0  2  0  0  0  0  0  0
  -29.7540  -12.2030   18.7150 C   0  0  0  0  0  2  0  0  0  0  0  0
  -29.3340  -13.4890   19.4760 C   0  0  0  0  0  3  0  0  0  0  0  0
  -30.3860  -13.8580   20.5450 C   0  0  0  0  0  2  0  0  0  0  0  0
  -31.6920  -13.9800   19.8780 N   0  0  0  0  0  0  0  0  0  0  0  0
  -33.2970  -15.1930   18.8250 O   0  0  0  0  0  0  0  0  0  0  0  0
  -27.0960  -14.3350   20.4340 C   0  0  0  0  0  0  0  0  0  0  0  0
  -25.9700  -13.6730   20.8440 C   0  0  0  0  0  0  0  0  0  0  0  0
  -26.2460  -12.2820   20.6770 C   0  0  0  0  0  0  0  0  0  0  0  0
  -27.9970  -13.3520   20.0530 N   0  0  0  0  0  0  0  0  0  0  0  0
  -27.4910  -12.1070   20.2510 N   0  0  0  0  0  0  0  0  0  0  0  0
  -25.3790  -11.1080   20.8440 C   0  0  0  0  0  0  0  0  0  0  0  0
  -25.6660  -10.1100   21.8020 C   0  0  0  0  0  3  0  0  0  0  0  0
  -24.8080   -8.9990   21.9570 C   0  0  0  0  0  3  0  0  0  0  0  0
  -23.6510   -8.8800   21.1530 C   0  0  0  0  0  0  0  0  0  0  0  0
  -23.3820   -9.8640   20.1850 C   0  0  0  0  0  3  0  0  0  0  0  0
  -24.2390  -10.9660   20.0290 C   0  0  0  0  0  3  0  0  0  0  0  0
  -22.7750   -7.8220   21.2160 O   0  0  0  0  0  0  0  0  0  0  0  0
  -22.4190   -7.2520   22.4120 C   0  0  0  0  0  0  0  0  0  0  0  0
  -21.8380   -8.0080   23.4540 C   0  0  0  0  0  3  0  0  0  0  0  0
  -21.4230   -7.3690   24.6410 C   0  0  0  0  0  3  0  0  0  0  0  0
  -21.5800   -5.9770   24.7830 C   0  0  0  0  0  0  0  0  0  0  0  0
  -22.1530   -5.2230   23.7440 C   0  0  0  0  0  3  0  0  0  0  0  0
  -22.5680   -5.8590   22.5610 C   0  0  0  0  0  0  0  0  0  0  0  0
  -23.1010   -5.1240   21.5550 F   0  0  0  0  0  0  0  0  0  0  0  0
  -21.1750   -5.3620   25.9180 F   0  0  0  0  0  0  0  0  0  0  0  0
  -24.6730  -14.2950   21.2770 C   0  0  0  0  0  0  0  0  0  0  0  0
  -23.9500  -13.6400   22.1790 N   0  0  0  0  0  0  0  0  0  0  0  0
  -24.3180  -15.3940   20.8530 O   0  0  0  0  0  0  0  0  0  0  0  0
  -24.2520  -12.7480   22.5430 H   0  0  0  0  0  0  0  0  0  0  0  0
  -23.0820  -14.0360   22.5110 H   0  0  0  0  0  0  0  0  0  0  0  0
  -27.4230  -15.6830   20.3370 N   0  0  0  0  0  0  0  0  0  0  0  0
  -26.7630  -16.4200   20.5620 H   0  0  0  0  0  0  0  0  0  0  0  0
  -28.3050  -16.0340   19.9840 H   0  0  0  0  0  0  0  0  0  0  0  0
  -28.7800  -22.1290   21.6680 C   0  0  0  0  0  2  0  0  0  0  0  0
  -28.8530  -23.6640   21.5400 C   0  0  0  0  0  2  0  0  0  0  0  0
  -28.0750  -24.2030   20.3280 C   0  0  0  0  0  2  0  0  0  0  0  0
  -28.3810  -25.6800   20.0290 C   0  0  0  0  0  2  0  0  0  0  0  0
  -27.6870  -26.0950   18.8580 O   0  0  0  0  0  0  0  0  0  0  0  0
  -24.6280  -31.1370   22.8410 C   0  0  0  0  0  0  0  0  0  0  0  0
  -26.5860  -26.8740   19.0990 C   0  0  0  0  0  0  0  0  0  0  0  0
  -23.1470  -29.9810   21.2300 C   0  0  0  0  0  3  0  0  0  0  0  0
  -24.3180  -28.4920   19.5220 C   0  0  0  0  0  0  0  0  0  0  0  0
  -25.6520  -30.1980   20.7760 C   0  0  0  0  0  2  0  0  0  0  0  0
  -25.5660  -28.8900   20.0200 C   0  0  0  0  0  0  0  0  0  0  0  0
  -26.7050  -28.0840   19.8130 C   0  0  0  0  0  3  0  0  0  0  0  0
  -25.3290  -26.4800   18.5990 C   0  0  0  0  0  3  0  0  0  0  0  0
  -24.1910  -27.2830   18.8130 C   0  0  0  0  0  3  0  0  0  0  0  0
  -23.1520  -29.4190   19.7830 C   0  0  0  0  0  2  0  0  0  0  0  0
  -24.5010  -30.4460   21.6730 N   0  0  0  0  0  0  0  0  0  0  0  0
  -23.6360  -31.4270   23.5250 O   0  0  0  0  0  0  0  0  0  0  0  0
  -22.5280  -28.9180   22.1660 C   0  0  0  0  0  0  0  0  0  0  0  0
  -21.1990  -28.7470   22.0790 N   0  0  0  0  0  0  0  0  0  0  0  0
  -23.2380  -28.2530   22.9250 O   0  0  0  0  0  0  0  0  0  0  0  0
  -20.6880  -29.3370   21.4370 H   0  0  0  0  0  0  0  0  0  0  0  0
  -17.8590  -27.4490   22.5350 C   0  0  0  0  0  0  0  0  0  0  0  0
  -20.4050  -27.7780   22.8320 C   0  0  0  0  0  3  0  0  0  0  0  0
  -20.5550  -26.3560   22.2420 C   0  0  0  0  0  2  0  0  0  0  0  0
  -19.4720  -26.0130   21.2150 C   0  0  0  0  0  2  0  0  0  0  0  0
  -18.0810  -26.1110   21.8480 C   0  0  0  0  0  2  0  0  0  0  0  0
  -18.9510  -28.2390   22.9820 C   0  0  0  0  0  0  0  0  0  0  0  0
  -18.6910  -29.4900   23.5820 C   0  0  0  0  0  3  0  0  0  0  0  0
  -17.3720  -29.9530   23.7380 C   0  0  0  0  0  3  0  0  0  0  0  0
  -16.2940  -29.1610   23.3080 C   0  0  0  0  0  3  0  0  0  0  0  0
  -16.5380  -27.9100   22.7130 C   0  0  0  0  0  3  0  0  0  0  0  0
  -26.0200  -31.6160   23.3620 C   0  0  0  0  0  3  0  0  0  0  0  0
  -25.8340  -32.9440   23.9620 N   0  0  0  0  0  0  0  0  0  0  0  0
  -26.2140  -34.0950   23.3910 C   0  0  0  0  0  0  0  0  0  0  0  0
  -26.8320  -34.1420   22.3230 O   0  0  0  0  0  0  0  0  0  0  0  0
  -25.2870  -32.9850   24.8080 H   0  0  0  0  0  0  0  0  0  0  0  0
  -24.6590  -36.0700   23.4210 C   0  0  0  0  0  1  0  0  0  0  0  0
  -25.8530  -35.4020   24.1210 C   0  0  0  0  0  3  0  0  0  0  0  0
  -28.0530  -35.9070   25.0870 C   0  0  0  0  0  1  0  0  0  0  0  0
  -26.9790  -36.3580   24.2070 N   0  0  0  0  0  0  0  0  0  0  0  0
  -26.6570  -37.2630   24.5380 H   0  0  0  0  0  0  0  0  0  0  0  0
  -26.6740  -30.6200   24.3980 C   0  0  1  0  0  0  0  0  0  0  0  0
  -25.7310  -30.2220   25.5560 C   0  0  0  0  0  1  0  0  0  0  0  0
  -27.1320  -29.3230   23.6910 C   0  0  0  0  0  1  0  0  0  0  0  0
  -27.9420  -31.2610   25.0100 C   0  0  0  0  0  1  0  0  0  0  0  0
  1  2  1  0
  1  3  1  0
  5  4  1  0
  6  7  1  0
  7  1  1  0
  7  4  1  0
  8  6  1  0
  8  5  1  0
  9  8  1  0
 10  9  1  0
 10 11  1  0
 12 18  1  0
 12 11  1  0
 13 18  1  0
 14 15  1  0
 14 13  1  0
 16 15  1  0
 16 23  1  0
 16 17  1  0
 18 17  1  0
 19 12  2  0
 20 21  2  0
 21 40  1  0
 22 21  1  0
 22 25  1  0
 23 24  1  0
 23 20  1  0
 24 22  2  0
 25 26  1  0
 26 27  2  0
 28 31  1  0
 28 27  1  0
 29 28  2  0
 30 29  1  0
 30 25  2  0
 31 32  1  0
 32 37  2  0
 32 33  1  0
 33 34  2  0
 34 35  1  0
 35 39  1  0
 36 35  2  0
 37 36  1  0
 38 37  1  0
 40 41  1  0
 41 44  1  0
 41 43  1  0
 42 40  2  0
 45 20  1  0
 45 46  1  0
 47 45  1  0
 48  1  1  0
 49 48  1  0
 50 49  1  0
 51 50  1  0
 52 54  1  0
 52 51  1  0
 53 64  2  0
 54 59  1  0
 55 63  1  0
 55 65  1  0
 56 62  1  0
 56 58  1  0
 57 63  1  0
 58 57  1  0
 59 58  2  0
 60 61  1  0
 60 54  2  0
 61 56  2  0
 62 55  1  0
 63 53  1  0
 65 67  2  0
 66 65  1  0
 68 66  1  0
 69 78  2  0
 69 74  1  0
 70 66  1  0
 70 74  1  0
 71 70  1  0
 72 73  1  0
 72 71  1  0
 73 69  1  0
 74 75  2  0
 75 76  1  0
 77 76  2  0
 78 77  1  0
 79 53  1  0
 79 80  1  0
 79 89  1  0
 80 83  1  0
 81 80  1  0
 81 85  1  0
 82 81  2  0
 85 84  1  0
 85 87  1  0
 87 88  1  0
 87 86  1  0
 89 92  1  1
 89 90  1  0
 91 89  1  0
M  ISO  4  11 100  12 100  51 101  52 101
M  END
>  <TORSDO>  (61) 
F 24

>  <SCORE>  (61) 
-8.898

>  <name>  (61) 
60

>  <ligand_id>  (61) 
60

>  <original_smiles>  (61) 
[H]c1c([H])c([H])c2c(c1[H])C([H])([H])C([H])([H])C([H])([H])C2([H])N([H])C(=O)C1([H])N(C(=O)C([H])(N([H])C(=O)C([H])(N([H])C([H])([H])[H])C([H])([H])[H])C(C([H])([H])[H])(C([H])([H])[H])C([H])([H])[H])C([H])([H])c2c([H])c(OC([H])([H])C([H])([H])C([H])([H])C([H])([H])[N+]([H])([H])C3([H])C([H])([H])N(C([H])([H])C([H])([H])C([H])([H])C(=O)N4C([H])([H])C([H])([H])C([H])([H])C([H])(n5nc(-c6c([H])c([H])c(Oc7c([H])c([H])c(F)c([H])c7F)c([H])c6[H])c(C(=O)N([H])[H])c5N([H])[H])C4([H])[H])C([H])([H])C3([H])[H])c([H])c([H])c2C1([H])[H]

>  <smiles>  (61) 
[H]c1c([H])c([H])c2c(c1[H])C([H])([H])C([H])([H])C([H])([H])C2([H])N([H])C(=O)C1([H])N(C(=O)C([H])(N([H])C(=O)C([H])(N([H])C([H])([H])[H])C([H])([H])[H])C(C([H])([H])[H])(C([H])([H])[H])C([H])([H])[H])C([H])([H])c2c([H])c(OC([H])([H])C([H])([H])C([H])([H])C([H])([H])[N+]([H])([H])C3([H])C([H])([H])N(C([H])([H])C([H])([H])C([H])([H])C(=O)N4C([H])([H])C([H])([H])C([H])([H])C([H])(n5nc(-c6c([H])c([H])c(Oc7c([H])c([H])c(F)c([H])c7F)c([H])c6[H])c(C(=O)N([H])[H])c5N([H])[H])C4([H])[H])C([H])([H])C3([H])[H])c([H])c([H])c2C1([H])[H]

$$$$
61:0:0
     RDKit          3D

 91 99  0  0  1  0  0  0  0  0999 V2000
  -26.5140  -21.8820   20.2550 C   0  0  0  0  0  2  0  0  0  0  0  0
  -27.6100  -21.1280   19.5990 N   0  0  0  0  0  4  0  0  0  0  0  0
  -27.1930  -20.4950   18.9310 H   0  0  0  0  0  0  0  0  0  0  0  0
  -28.1610  -21.7780   19.0600 H   0  0  0  0  0  0  0  0  0  0  0  0
  -29.7380  -19.9280   19.6920 C   0  0  0  0  0  2  0  0  0  0  0  0
  -28.7390  -18.8890   20.1450 C   0  0  0  0  0  3  0  0  0  0  0  0
  -28.5220  -20.3580   20.4780 C   0  0  0  0  0  3  0  0  0  0  0  0
  -29.2150  -17.8640   21.1640 C   0  0  0  0  0  2  0  0  0  0  0  0
  -30.1820  -15.5280   20.9870 C   0  0  0  0  0  3  0  0  0  0  0  0
  -29.9990  -16.7590   20.4810 C   0  0  0  0  0  3  0  0  0  0  0  0
  -30.8710  -14.5150   20.1990 C   0  0  0  0  0  0  0  0  0  0  0  0
  -30.4890  -12.4310   18.9510 C   0  0  0  0  0  2  0  0  0  0  0  0
  -29.4940  -12.6960   17.8020 C   0  0  0  0  0  2  0  0  0  0  0  0
  -28.0350  -12.5690   18.2900 C   0  0  0  0  0  2  0  0  0  0  0  0
  -27.7690  -13.3520   19.6010 C   0  0  0  0  0  3  0  0  0  0  0  0
  -28.8630  -13.0480   20.6470 C   0  0  0  0  0  2  0  0  0  0  0  0
  -30.1780  -13.3560   20.0460 N   0  0  0  0  0  0  0  0  0  0  0  0
  -31.9330  -14.7460   19.6140 O   0  0  0  0  0  0  0  0  0  0  0  0
  -25.3990  -13.9690   20.3960 C   0  0  0  0  0  0  0  0  0  0  0  0
  -24.3440  -13.1980   20.7960 C   0  0  0  0  0  0  0  0  0  0  0  0
  -24.7980  -11.8450   20.7460 C   0  0  0  0  0  0  0  0  0  0  0  0
  -26.4330  -13.0850   20.1250 N   0  0  0  0  0  0  0  0  0  0  0  0
  -26.0740  -11.8020   20.3880 N   0  0  0  0  0  0  0  0  0  0  0  0
  -24.0750  -10.5830   20.9540 C   0  0  0  0  0  0  0  0  0  0  0  0
  -24.5170   -9.6280   21.8950 C   0  0  0  0  0  3  0  0  0  0  0  0
  -23.7930   -8.4330   22.0930 C   0  0  0  0  0  3  0  0  0  0  0  0
  -22.6150   -8.1850   21.3500 C   0  0  0  0  0  0  0  0  0  0  0  0
  -22.1930   -9.1270   20.3960 C   0  0  0  0  0  3  0  0  0  0  0  0
  -22.9170  -10.3140   20.1950 C   0  0  0  0  0  3  0  0  0  0  0  0
  -21.8630   -7.0400   21.4570 O   0  0  0  0  0  0  0  0  0  0  0  0
  -21.7910   -6.3320   22.6300 C   0  0  0  0  0  0  0  0  0  0  0  0
  -21.3440   -6.9280   23.8310 C   0  0  0  0  0  3  0  0  0  0  0  0
  -21.2160   -6.1490   24.9980 C   0  0  0  0  0  3  0  0  0  0  0  0
  -21.5250   -4.7740   24.9640 C   0  0  0  0  0  0  0  0  0  0  0  0
  -21.9660   -4.1810   23.7690 C   0  0  0  0  0  3  0  0  0  0  0  0
  -22.0920   -4.9570   22.6050 C   0  0  0  0  0  0  0  0  0  0  0  0
  -22.4960   -4.3740   21.4490 F   0  0  0  0  0  0  0  0  0  0  0  0
  -21.3960   -4.0230   26.0830 F   0  0  0  0  0  0  0  0  0  0  0  0
  -22.9590  -13.6760   21.1270 C   0  0  0  0  0  0  0  0  0  0  0  0
  -22.2670  -12.9800   22.0220 N   0  0  0  0  0  0  0  0  0  0  0  0
  -22.4980  -14.7020   20.6260 O   0  0  0  0  0  0  0  0  0  0  0  0
  -22.6500  -12.1460   22.4480 H   0  0  0  0  0  0  0  0  0  0  0  0
  -21.3400  -13.2850   22.2870 H   0  0  0  0  0  0  0  0  0  0  0  0
  -25.5550  -15.3400   20.2210 N   0  0  0  0  0  0  0  0  0  0  0  0
  -24.7970  -15.9980   20.3670 H   0  0  0  0  0  0  0  0  0  0  0  0
  -26.4000  -15.7800   19.8860 H   0  0  0  0  0  0  0  0  0  0  0  0
  -26.9690  -22.9250   21.3100 C   0  0  0  0  0  2  0  0  0  0  0  0
  -27.7770  -24.1160   20.7580 C   0  0  0  0  0  2  0  0  0  0  0  0
  -28.0610  -25.1900   21.8290 C   0  0  0  0  0  2  0  0  0  0  0  0
  -28.9120  -26.3670   21.3090 C   0  0  0  0  0  2  0  0  0  0  0  0
  -28.4120  -26.8310   20.0580 O   0  0  0  0  0  0  0  0  0  0  0  0
  -24.5910  -31.9330   23.2450 C   0  0  0  0  0  0  0  0  0  0  0  0
  -27.2500  -27.5560   20.1220 C   0  0  0  0  0  0  0  0  0  0  0  0
  -23.3850  -30.5420   21.5900 C   0  0  0  0  0  3  0  0  0  0  0  0
  -24.8420  -29.0180   20.1590 C   0  0  0  0  0  0  0  0  0  0  0  0
  -25.9080  -30.9080   21.4030 C   0  0  0  0  0  2  0  0  0  0  0  0
  -25.9920  -29.5410   20.7660 C   0  0  0  0  0  0  0  0  0  0  0  0
  -27.1970  -28.8080   20.7670 C   0  0  0  0  0  3  0  0  0  0  0  0
  -26.0970  -27.0530   19.4860 C   0  0  0  0  0  3  0  0  0  0  0  0
  -24.8890  -27.7670   19.5200 C   0  0  0  0  0  3  0  0  0  0  0  0
  -23.5950  -29.8670   20.2080 C   0  0  0  0  0  2  0  0  0  0  0  0
  -24.6450  -31.1410   22.1390 N   0  0  0  0  0  0  0  0  0  0  0  0
  -23.5110  -32.2020   23.7870 O   0  0  0  0  0  0  0  0  0  0  0  0
  -22.7360  -29.5150   22.5430 C   0  0  0  0  0  0  0  0  0  0  0  0
  -21.4110  -29.3440   22.4160 N   0  0  0  0  0  0  0  0  0  0  0  0
  -23.4190  -28.8750   23.3440 O   0  0  0  0  0  0  0  0  0  0  0  0
  -20.9220  -29.9120   21.7400 H   0  0  0  0  0  0  0  0  0  0  0  0
  -18.0310  -28.1710   22.9080 C   0  0  0  0  0  0  0  0  0  0  0  0
  -20.5910  -28.4020   23.1760 C   0  0  0  0  0  3  0  0  0  0  0  0
  -20.6780  -26.9790   22.5800 C   0  0  0  0  0  2  0  0  0  0  0  0
  -19.5730  -26.6820   21.5620 C   0  0  0  0  0  2  0  0  0  0  0  0
  -18.1940  -26.8290   22.2140 C   0  0  0  0  0  2  0  0  0  0  0  0
  -19.1570  -28.9170   23.3450 C   0  0  0  0  0  0  0  0  0  0  0  0
  -18.9550  -30.1770   23.9490 C   0  0  0  0  0  3  0  0  0  0  0  0
  -17.6560  -30.6910   24.1210 C   0  0  0  0  0  3  0  0  0  0  0  0
  -16.5420  -29.9390   23.7010 C   0  0  0  0  0  3  0  0  0  0  0  0
  -16.7310  -28.6820   23.1010 C   0  0  0  0  0  3  0  0  0  0  0  0
  -25.8810  -32.5510   23.8710 C   0  0  0  0  0  3  0  0  0  0  0  0
  -25.5770  -33.9470   24.2090 N   0  0  0  0  0  0  0  0  0  0  0  0
  -25.9110  -35.0020   23.4560 C   0  0  0  0  0  0  0  0  0  0  0  0
  -26.5790  -34.9030   22.4210 O   0  0  0  0  0  0  0  0  0  0  0  0
  -24.9810  -34.0990   25.0090 H   0  0  0  0  0  0  0  0  0  0  0  0
  -24.1800  -36.7940   23.1180 C   0  0  0  0  0  1  0  0  0  0  0  0
  -25.4260  -36.3880   23.9200 C   0  0  0  0  0  3  0  0  0  0  0  0
  -27.5660  -37.2680   24.7430 C   0  0  0  0  0  1  0  0  0  0  0  0
  -26.4580  -37.4410   23.8060 N   0  0  0  0  0  0  0  0  0  0  0  0
  -26.0540  -38.3600   23.9590 H   0  0  0  0  0  0  0  0  0  0  0  0
  -26.4030  -31.7660   25.1380 C   0  0  1  0  0  0  0  0  0  0  0  0
  -25.3130  -31.5180   26.2040 C   0  0  0  0  0  1  0  0  0  0  0  0
  -26.9810  -30.3910   24.7260 C   0  0  0  0  0  1  0  0  0  0  0  0
  -27.5550  -32.5520   25.8030 C   0  0  0  0  0  1  0  0  0  0  0  0
  1 47  1  0
  2  1  1  0
  3  2  1  0
  4  2  1  0
  5  6  1  0
  5  7  1  0
  6  7  1  0
  6  8  1  0
  7  2  1  0
 10  9  2  0
 10  8  1  0
 11  9  1  0
 12 17  1  0
 13 14  1  0
 13 12  1  0
 15 14  1  0
 15 22  1  0
 15 16  1  0
 17 11  1  0
 17 16  1  0
 18 11  2  0
 19 20  2  0
 20 39  1  0
 21 20  1  0
 21 24  1  0
 22 23  1  0
 22 19  1  0
 23 21  2  0
 24 25  1  0
 25 26  2  0
 27 30  1  0
 27 26  1  0
 28 27  2  0
 29 28  1  0
 29 24  2  0
 30 31  1  0
 31 32  1  0
 32 33  2  0
 34 33  1  0
 34 38  1  0
 35 34  2  0
 36 31  2  0
 36 35  1  0
 37 36  1  0
 39 40  1  0
 40 43  1  0
 40 42  1  0
 41 39  2  0
 44 45  1  0
 44 19  1  0
 46 44  1  0
 48 47  1  0
 48 49  1  0
 50 49  1  0
 51 53  1  0
 51 50  1  0
 52 63  2  0
 53 58  1  0
 54 62  1  0
 54 64  1  0
 55 61  1  0
 55 57  1  0
 56 62  1  0
 57 58  2  0
 57 56  1  0
 59 60  1  0
 59 53  2  0
 60 55  2  0
 61 54  1  0
 62 52  1  0
 64 66  2  0
 65 64  1  0
 67 65  1  0
 68 77  2  0
 68 73  1  0
 69 65  1  0
 69 73  1  0
 70 69  1  0
 71 72  1  0
 71 70  1  0
 72 68  1  0
 73 74  2  0
 74 75  1  0
 76 75  2  0
 77 76  1  0
 78 52  1  0
 78 79  1  0
 78 88  1  0
 79 82  1  0
 80 84  1  0
 80 79  1  0
 81 80  2  0
 84 83  1  0
 86 84  1  0
 86 87  1  0
 86 85  1  0
 88 91  1  1
 88 89  1  0
 90 88  1  0
M  ISO  4   9 100  11 100  50 101  51 101
M  END
>  <TORSDO>  (62) 
F 24

>  <SCORE>  (62) 
-12.003

>  <name>  (62) 
61

>  <ligand_id>  (62) 
61

>  <original_smiles>  (62) 
[H]C(C(=O)N1C([H])([H])C([H])([H])C([H])([H])C([H])(n2nc(-c3c([H])c([H])c(Oc4c([H])c([H])c(F)c([H])c4F)c([H])c3[H])c(C(=O)N([H])[H])c2N([H])[H])C1([H])[H])=C([H])C([H])([H])C1([H])C([H])([H])C1([H])[N+]([H])([H])C([H])([H])C([H])([H])C([H])([H])C([H])([H])C([H])([H])Oc1c([H])c([H])c2c(c1[H])C([H])([H])N(C(=O)C([H])(N([H])C(=O)C([H])(N([H])C([H])([H])[H])C([H])([H])[H])C(C([H])([H])[H])(C([H])([H])[H])C([H])([H])[H])C([H])(C(=O)N([H])C1([H])c3c([H])c([H])c([H])c([H])c3C([H])([H])C([H])([H])C1([H])[H])C2([H])[H]

>  <smiles>  (62) 
[H]C(C(=O)N1C([H])([H])C([H])([H])C([H])([H])C([H])(n2nc(-c3c([H])c([H])c(Oc4c([H])c([H])c(F)c([H])c4F)c([H])c3[H])c(C(=O)N([H])[H])c2N([H])[H])C1([H])[H])=C([H])C([H])([H])C1([H])C([H])([H])C1([H])[N+]([H])([H])C([H])([H])C([H])([H])C([H])([H])C([H])([H])C([H])([H])Oc1c([H])c([H])c2c(c1[H])C([H])([H])N(C(=O)C([H])(N([H])C(=O)C([H])(N([H])C([H])([H])[H])C([H])([H])[H])C(C([H])([H])[H])(C([H])([H])[H])C([H])([H])[H])C([H])(C(=O)N([H])C1([H])c3c([H])c([H])c([H])c([H])c3C([H])([H])C([H])([H])C1([H])[H])C2([H])[H]

$$$$
62:0:0
     RDKit          3D

 89 97  0  0  1  0  0  0  0  0999 V2000
  -28.5430  -21.5080   20.3370 C   0  0  0  0  0  2  0  0  0  0  0  0
  -29.5140  -20.4260   19.9910 N   0  0  0  0  0  4  0  0  0  0  0  0
  -29.7030  -20.5000   19.0010 H   0  0  0  0  0  0  0  0  0  0  0  0
  -30.3900  -20.5940   20.4620 H   0  0  0  0  0  0  0  0  0  0  0  0
  -28.9650  -18.5610   21.6850 C   0  0  0  0  0  2  0  0  0  0  0  0
  -30.1630  -18.1490   20.8580 C   0  0  0  0  0  3  0  0  0  0  0  0
  -29.0740  -19.0180   20.2370 C   0  0  0  0  0  3  0  0  0  0  0  0
  -30.4110  -15.5520   20.9120 C   0  0  0  0  0  3  0  0  0  0  0  0
  -30.4460  -16.7800   20.3310 C   0  0  0  0  0  3  0  0  0  0  0  0
  -30.9020  -14.4390   20.1040 C   0  0  0  0  0  0  0  0  0  0  0  0
  -30.3990  -12.3400   18.9210 C   0  0  0  0  0  2  0  0  0  0  0  0
  -29.4350  -12.6630   17.7620 C   0  0  0  0  0  2  0  0  0  0  0  0
  -27.9830  -12.5180   18.2530 C   0  0  0  0  0  2  0  0  0  0  0  0
  -27.7210  -13.3150   19.5610 C   0  0  0  0  0  3  0  0  0  0  0  0
  -28.8300  -13.0740   20.6180 C   0  0  0  0  0  2  0  0  0  0  0  0
  -30.1390  -13.3140   19.9950 N   0  0  0  0  0  0  0  0  0  0  0  0
  -31.9550  -14.5650   19.4730 O   0  0  0  0  0  0  0  0  0  0  0  0
  -25.3570  -13.9140   20.3870 C   0  0  0  0  0  0  0  0  0  0  0  0
  -24.3060  -13.1390   20.7940 C   0  0  0  0  0  0  0  0  0  0  0  0
  -24.7630  -11.7880   20.7290 C   0  0  0  0  0  0  0  0  0  0  0  0
  -26.3910  -13.0350   20.0990 N   0  0  0  0  0  0  0  0  0  0  0  0
  -26.0390  -11.7500   20.3640 N   0  0  0  0  0  0  0  0  0  0  0  0
  -24.0410  -10.5240   20.9420 C   0  0  0  0  0  0  0  0  0  0  0  0
  -24.4970   -9.5610   21.8690 C   0  0  0  0  0  3  0  0  0  0  0  0
  -23.7760   -8.3640   22.0710 C   0  0  0  0  0  3  0  0  0  0  0  0
  -22.5840   -8.1230   21.3460 C   0  0  0  0  0  0  0  0  0  0  0  0
  -22.1470   -9.0760   20.4080 C   0  0  0  0  0  3  0  0  0  0  0  0
  -22.8680  -10.2640   20.2050 C   0  0  0  0  0  3  0  0  0  0  0  0
  -21.8280   -6.9810   21.4590 O   0  0  0  0  0  0  0  0  0  0  0  0
  -21.7840   -6.2600   22.6250 C   0  0  0  0  0  0  0  0  0  0  0  0
  -21.3690   -6.8380   23.8430 C   0  0  0  0  0  3  0  0  0  0  0  0
  -21.2730   -6.0420   25.0030 C   0  0  0  0  0  3  0  0  0  0  0  0
  -21.5800   -4.6690   24.9430 C   0  0  0  0  0  0  0  0  0  0  0  0
  -21.9840   -4.0900   23.7270 C   0  0  0  0  0  3  0  0  0  0  0  0
  -22.0830   -4.8830   22.5720 C   0  0  0  0  0  0  0  0  0  0  0  0
  -22.4550   -4.3160   21.3970 F   0  0  0  0  0  0  0  0  0  0  0  0
  -21.4790   -3.9020   26.0550 F   0  0  0  0  0  0  0  0  0  0  0  0
  -22.9220  -13.6160   21.1350 C   0  0  0  0  0  0  0  0  0  0  0  0
  -22.2360  -12.9140   22.0330 N   0  0  0  0  0  0  0  0  0  0  0  0
  -22.4600  -14.6440   20.6430 O   0  0  0  0  0  0  0  0  0  0  0  0
  -22.6260  -12.0820   22.4510 H   0  0  0  0  0  0  0  0  0  0  0  0
  -21.3100  -13.2120   22.3020 H   0  0  0  0  0  0  0  0  0  0  0  0
  -25.5160  -15.2880   20.2160 N   0  0  0  0  0  0  0  0  0  0  0  0
  -24.7550  -15.9410   20.3680 H   0  0  0  0  0  0  0  0  0  0  0  0
  -26.3710  -15.7330   19.9080 H   0  0  0  0  0  0  0  0  0  0  0  0
  -29.0040  -22.9120   19.8300 C   0  0  0  0  0  2  0  0  0  0  0  0
  -28.1730  -24.1540   20.2900 C   0  0  0  0  0  2  0  0  0  0  0  0
  -28.5610  -25.4510   19.5150 C   0  0  0  0  0  2  0  0  0  0  0  0
  -28.3770  -26.7060   20.1980 O   0  0  0  0  0  0  0  0  0  0  0  0
  -24.5780  -31.8970   23.2330 C   0  0  0  0  0  0  0  0  0  0  0  0
  -27.1890  -27.4130   20.1530 C   0  0  0  0  0  0  0  0  0  0  0  0
  -23.3620  -30.4960   21.5950 C   0  0  0  0  0  3  0  0  0  0  0  0
  -24.8030  -28.9480   20.1640 C   0  0  0  0  0  0  0  0  0  0  0  0
  -25.8910  -30.8360   21.3930 C   0  0  0  0  0  2  0  0  0  0  0  0
  -25.9630  -29.4630   20.7520 C   0  0  0  0  0  0  0  0  0  0  0  0
  -27.1560  -28.7020   20.7410 C   0  0  0  0  0  3  0  0  0  0  0  0
  -26.0070  -26.9110   19.5640 C   0  0  0  0  0  3  0  0  0  0  0  0
  -24.8190  -27.6720   19.5710 C   0  0  0  0  0  3  0  0  0  0  0  0
  -23.5670  -29.8190   20.2120 C   0  0  0  0  0  2  0  0  0  0  0  0
  -24.6280  -31.0930   22.1320 N   0  0  0  0  0  0  0  0  0  0  0  0
  -23.5000  -32.1770   23.7740 O   0  0  0  0  0  0  0  0  0  0  0  0
  -22.7120  -29.4760   22.5590 C   0  0  0  0  0  0  0  0  0  0  0  0
  -21.3840  -29.3040   22.4410 N   0  0  0  0  0  0  0  0  0  0  0  0
  -23.3960  -28.8460   23.3700 O   0  0  0  0  0  0  0  0  0  0  0  0
  -20.8970  -29.8620   21.7550 H   0  0  0  0  0  0  0  0  0  0  0  0
  -18.0040  -28.1330   22.9560 C   0  0  0  0  0  0  0  0  0  0  0  0
  -20.5630  -28.3710   23.2150 C   0  0  0  0  0  3  0  0  0  0  0  0
  -20.6520  -26.9400   22.6370 C   0  0  0  0  0  2  0  0  0  0  0  0
  -19.5430  -26.6260   21.6290 C   0  0  0  0  0  2  0  0  0  0  0  0
  -18.1650  -26.7830   22.2760 C   0  0  0  0  0  2  0  0  0  0  0  0
  -19.1300  -28.8860   23.3800 C   0  0  0  0  0  0  0  0  0  0  0  0
  -18.9240  -30.1500   23.9740 C   0  0  0  0  0  3  0  0  0  0  0  0
  -17.6230  -30.6600   24.1490 C   0  0  0  0  0  3  0  0  0  0  0  0
  -16.5110  -29.9020   23.7440 C   0  0  0  0  0  3  0  0  0  0  0  0
  -16.7020  -28.6410   23.1510 C   0  0  0  0  0  3  0  0  0  0  0  0
  -25.8690  -32.5210   23.8480 C   0  0  0  0  0  3  0  0  0  0  0  0
  -25.5660  -33.9180   24.1860 N   0  0  0  0  0  0  0  0  0  0  0  0
  -25.8900  -34.9730   23.4260 C   0  0  0  0  0  0  0  0  0  0  0  0
  -26.5500  -34.8720   22.3880 O   0  0  0  0  0  0  0  0  0  0  0  0
  -24.9850  -34.0740   24.9950 H   0  0  0  0  0  0  0  0  0  0  0  0
  -24.1580  -36.7620   23.0830 C   0  0  0  0  0  1  0  0  0  0  0  0
  -25.4020  -36.3580   23.8890 C   0  0  0  0  0  3  0  0  0  0  0  0
  -27.5490  -37.2320   24.7010 C   0  0  0  0  0  1  0  0  0  0  0  0
  -26.4320  -37.4140   23.7790 N   0  0  0  0  0  0  0  0  0  0  0  0
  -26.0250  -38.3300   23.9540 H   0  0  0  0  0  0  0  0  0  0  0  0
  -26.3920  -31.7420   25.1180 C   0  0  1  0  0  0  0  0  0  0  0  0
  -25.3090  -31.5080   26.1960 C   0  0  0  0  0  1  0  0  0  0  0  0
  -26.9610  -30.3600   24.7160 C   0  0  0  0  0  1  0  0  0  0  0  0
  -27.5580  -32.5250   25.7690 C   0  0  0  0  0  1  0  0  0  0  0  0
  2  1  1  0
  2  4  1  0
  3  2  1  0
  6  9  1  0
  6  5  1  0
  7  2  1  0
  7  6  1  0
  7  5  1  0
  9  8  2  0
 10  8  1  0
 11 16  1  0
 12 13  1  0
 12 11  1  0
 14 13  1  0
 14 21  1  0
 14 15  1  0
 16 10  1  0
 16 15  1  0
 17 10  2  0
 18 19  2  0
 19 38  1  0
 20 19  1  0
 20 23  1  0
 21 22  1  0
 21 18  1  0
 22 20  2  0
 23 24  1  0
 24 25  2  0
 26 29  1  0
 26 25  1  0
 27 26  2  0
 28 27  1  0
 28 23  2  0
 29 30  1  0
 30 31  1  0
 31 32  2  0
 33 32  1  0
 33 37  1  0
 34 33  2  0
 35 30  2  0
 35 34  1  0
 36 35  1  0
 38 39  1  0
 39 42  1  0
 39 41  1  0
 40 38  2  0
 43 44  1  0
 43 18  1  0
 45 43  1  0
 46 47  1  0
 46  1  1  0
 48 49  1  0
 48 47  1  0
 50 61  2  0
 51 49  1  0
 51 56  1  0
 52 60  1  0
 52 62  1  0
 53 59  1  0
 53 55  1  0
 54 60  1  0
 55 54  1  0
 56 55  2  0
 57 58  1  0
 57 51  2  0
 58 53  2  0
 59 52  1  0
 60 50  1  0
 62 64  2  0
 63 62  1  0
 65 63  1  0
 66 75  2  0
 66 71  1  0
 67 63  1  0
 67 71  1  0
 68 67  1  0
 69 70  1  0
 69 68  1  0
 70 66  1  0
 71 72  2  0
 72 73  1  0
 74 73  2  0
 75 74  1  0
 76 50  1  0
 76 77  1  0
 76 86  1  0
 77 80  1  0
 78 82  1  0
 78 77  1  0
 79 78  2  0
 82 81  1  0
 84 82  1  0
 84 85  1  0
 84 83  1  0
 86 89  1  1
 86 87  1  0
 88 86  1  0
M  ISO  4   8 100  10 100  48 101  49 101
M  END
>  <TORSDO>  (63) 
F 22

>  <SCORE>  (63) 
-11.819

>  <name>  (63) 
62

>  <ligand_id>  (63) 
62

>  <original_smiles>  (63) 
[H]C(C(=O)N1C([H])([H])C([H])([H])C([H])([H])C([H])(n2nc(-c3c([H])c([H])c(Oc4c([H])c([H])c(F)c([H])c4F)c([H])c3[H])c(C(=O)N([H])[H])c2N([H])[H])C1([H])[H])=C([H])C1([H])C([H])([H])C1([H])[N+]([H])([H])C([H])([H])C([H])([H])C([H])([H])C([H])([H])Oc1c([H])c([H])c2c(c1[H])C([H])([H])N(C(=O)C([H])(N([H])C(=O)C([H])(N([H])C([H])([H])[H])C([H])([H])[H])C(C([H])([H])[H])(C([H])([H])[H])C([H])([H])[H])C([H])(C(=O)N([H])C1([H])c3c([H])c([H])c([H])c([H])c3C([H])([H])C([H])([H])C1([H])[H])C2([H])[H]

>  <smiles>  (63) 
[H]C(C(=O)N1C([H])([H])C([H])([H])C([H])([H])C([H])(n2nc(-c3c([H])c([H])c(Oc4c([H])c([H])c(F)c([H])c4F)c([H])c3[H])c(C(=O)N([H])[H])c2N([H])[H])C1([H])[H])=C([H])C1([H])C([H])([H])C1([H])[N+]([H])([H])C([H])([H])C([H])([H])C([H])([H])C([H])([H])Oc1c([H])c([H])c2c(c1[H])C([H])([H])N(C(=O)C([H])(N([H])C(=O)C([H])(N([H])C([H])([H])[H])C([H])([H])[H])C(C([H])([H])[H])(C([H])([H])[H])C([H])([H])[H])C([H])(C(=O)N([H])C1([H])c3c([H])c([H])c([H])c([H])c3C([H])([H])C([H])([H])C1([H])[H])C2([H])[H]

$$$$
63:0:0
     RDKit          3D

 86 95  0  0  1  0  0  0  0  0999 V2000
  -28.6190  -21.5260   21.2770 C   0  0  0  0  0  2  0  0  0  0  0  0
  -28.6680  -22.5360   20.3060 C   0  0  0  0  0  3  0  0  0  0  0  0
  -30.6420  -21.1720   20.3300 C   0  0  0  0  0  2  0  0  0  0  0  0
  -29.0980  -19.9470   19.0850 C   0  0  0  0  0  2  0  0  0  0  0  0
  -29.7180  -20.2780   21.1950 C   0  0  0  0  0  3  0  0  0  0  0  0
  -29.5330  -21.5710   19.3460 C   0  0  0  0  0  3  0  0  0  0  0  0
  -29.6950  -18.8950   20.2090 C   0  0  0  0  0  3  0  0  0  0  0  0
  -27.8320  -24.1130   20.0550 C   0  0  0  0  0  2  0  0  0  0  0  0
  -28.1400  -25.7600   20.2770 O   0  0  0  0  0  0  0  0  0  0  0  0
  -24.6320  -31.8840   23.2100 C   0  0  0  0  0  0  0  0  0  0  0  0
  -27.1580  -26.9180   20.2060 C   0  0  0  0  0  0  0  0  0  0  0  0
  -23.4300  -30.4850   21.5830 C   0  0  0  0  0  3  0  0  0  0  0  0
  -24.8720  -28.8600   20.1600 C   0  0  0  0  0  0  0  0  0  0  0  0
  -26.0020  -30.6670   21.4320 C   0  0  0  0  0  2  0  0  0  0  0  0
  -26.0670  -29.2470   20.7790 C   0  0  0  0  0  0  0  0  0  0  0  0
  -27.2000  -28.3000   20.7760 C   0  0  0  0  0  3  0  0  0  0  0  0
  -25.9320  -26.7080   19.5320 C   0  0  0  0  0  3  0  0  0  0  0  0
  -24.8350  -27.6140   19.5130 C   0  0  0  0  0  3  0  0  0  0  0  0
  -23.6570  -29.7930   20.2090 C   0  0  0  0  0  2  0  0  0  0  0  0
  -24.7110  -31.0420   22.1280 N   0  0  0  0  0  0  0  0  0  0  0  0
  -23.5430  -32.1800   23.7320 O   0  0  0  0  0  0  0  0  0  0  0  0
  -22.7320  -29.4990   22.5570 C   0  0  0  0  0  0  0  0  0  0  0  0
  -21.4010  -29.3350   22.4350 N   0  0  0  0  0  0  0  0  0  0  0  0
  -23.3970  -28.8800   23.3920 O   0  0  0  0  0  0  0  0  0  0  0  0
  -20.9160  -29.8840   21.7400 H   0  0  0  0  0  0  0  0  0  0  0  0
  -18.0210  -28.1160   22.9570 C   0  0  0  0  0  0  0  0  0  0  0  0
  -20.5800  -28.4000   23.2150 C   0  0  0  0  0  3  0  0  0  0  0  0
  -20.6880  -26.9640   22.6510 C   0  0  0  0  0  2  0  0  0  0  0  0
  -19.5870  -26.6280   21.6410 C   0  0  0  0  0  2  0  0  0  0  0  0
  -18.2050  -26.7650   22.2850 C   0  0  0  0  0  2  0  0  0  0  0  0
  -19.1350  -28.8900   23.3790 C   0  0  0  0  0  0  0  0  0  0  0  0
  -18.9050  -30.1500   23.9720 C   0  0  0  0  0  3  0  0  0  0  0  0
  -17.5960  -30.6380   24.1440 C   0  0  0  0  0  3  0  0  0  0  0  0
  -16.4970  -29.8630   23.7360 C   0  0  0  0  0  3  0  0  0  0  0  0
  -16.7100  -28.6030   23.1490 C   0  0  0  0  0  3  0  0  0  0  0  0
  -25.9030  -32.5310   23.8370 C   0  0  0  0  0  3  0  0  0  0  0  0
  -25.5820  -33.9300   24.1790 N   0  0  0  0  0  0  0  0  0  0  0  0
  -25.8900  -34.9960   23.4280 C   0  0  0  0  0  0  0  0  0  0  0  0
  -26.5340  -34.9070   22.3810 O   0  0  0  0  0  0  0  0  0  0  0  0
  -25.0050  -34.0710   24.9950 H   0  0  0  0  0  0  0  0  0  0  0  0
  -24.1370  -36.7850   23.1550 C   0  0  0  0  0  1  0  0  0  0  0  0
  -25.4110  -36.3810   23.9150 C   0  0  0  0  0  3  0  0  0  0  0  0
  -27.5660  -37.2840   24.6760 C   0  0  0  0  0  1  0  0  0  0  0  0
  -26.4310  -37.4430   23.7700 N   0  0  0  0  0  0  0  0  0  0  0  0
  -26.0220  -38.3600   23.9310 H   0  0  0  0  0  0  0  0  0  0  0  0
  -26.4150  -31.7670   25.1220 C   0  0  1  0  0  0  0  0  0  0  0  0
  -25.3190  -31.5340   26.1890 C   0  0  0  0  0  1  0  0  0  0  0  0
  -27.0020  -30.3880   24.7490 C   0  0  0  0  0  1  0  0  0  0  0  0
  -27.5640  -32.5660   25.7830 C   0  0  0  0  0  1  0  0  0  0  0  0
  -29.4620  -17.0650   20.4980 C   0  0  0  0  0  2  0  0  0  0  0  0
  -30.3230  -15.4970   20.2300 C   0  0  0  0  0  0  0  0  0  0  0  0
  -30.3770  -13.0080   19.3670 C   0  0  0  0  0  2  0  0  0  0  0  0
  -29.4460  -12.7580   18.1470 C   0  0  0  0  0  2  0  0  0  0  0  0
  -28.0090  -12.4520   18.6040 C   0  0  0  0  0  2  0  0  0  0  0  0
  -27.5540  -13.4110   19.7290 C   0  0  0  0  0  3  0  0  0  0  0  0
  -28.6110  -13.5950   20.8380 C   0  0  0  0  0  2  0  0  0  0  0  0
  -29.8250  -14.1450   20.2060 N   0  0  0  0  0  0  0  0  0  0  0  0
  -31.5320  -15.5000   19.9410 O   0  0  0  0  0  0  0  0  0  0  0  0
  -25.2000  -13.9430   20.5400 C   0  0  0  0  0  0  0  0  0  0  0  0
  -24.1450  -13.1590   20.9160 C   0  0  0  0  0  0  0  0  0  0  0  0
  -24.6150  -11.8100   20.8540 C   0  0  0  0  0  0  0  0  0  0  0  0
  -26.2390  -13.0760   20.2600 N   0  0  0  0  0  0  0  0  0  0  0  0
  -25.9020  -11.7840   20.5180 N   0  0  0  0  0  0  0  0  0  0  0  0
  -23.8920  -10.5440   21.0370 C   0  0  0  0  0  0  0  0  0  0  0  0
  -24.3260   -9.5700   21.9640 C   0  0  0  0  0  3  0  0  0  0  0  0
  -23.5990   -8.3720   22.1370 C   0  0  0  0  0  3  0  0  0  0  0  0
  -22.4240   -8.1390   21.3830 C   0  0  0  0  0  0  0  0  0  0  0  0
  -22.0090   -9.1010   20.4460 C   0  0  0  0  0  3  0  0  0  0  0  0
  -22.7350  -10.2900   20.2720 C   0  0  0  0  0  3  0  0  0  0  0  0
  -21.6690   -6.9940   21.4660 O   0  0  0  0  0  0  0  0  0  0  0  0
  -21.6040   -6.2550   22.6210 C   0  0  0  0  0  0  0  0  0  0  0  0
  -21.1400   -6.8090   23.8330 C   0  0  0  0  0  3  0  0  0  0  0  0
  -21.0230   -5.9970   24.9800 C   0  0  0  0  0  3  0  0  0  0  0  0
  -21.3600   -4.6330   24.9130 C   0  0  0  0  0  0  0  0  0  0  0  0
  -21.8170   -4.0780   23.7040 C   0  0  0  0  0  3  0  0  0  0  0  0
  -21.9350   -4.8870   22.5610 C   0  0  0  0  0  0  0  0  0  0  0  0
  -22.3560   -4.3420   21.3940 F   0  0  0  0  0  0  0  0  0  0  0  0
  -21.2410   -3.8500   26.0120 F   0  0  0  0  0  0  0  0  0  0  0  0
  -22.7530  -13.6300   21.2140 C   0  0  0  0  0  0  0  0  0  0  0  0
  -22.0400  -12.9220   22.0820 N   0  0  0  0  0  0  0  0  0  0  0  0
  -22.3070  -14.6610   20.7140 O   0  0  0  0  0  0  0  0  0  0  0  0
  -22.4150  -12.0880   22.5090 H   0  0  0  0  0  0  0  0  0  0  0  0
  -21.1060  -13.2190   22.3250 H   0  0  0  0  0  0  0  0  0  0  0  0
  -25.3570  -15.3180   20.3850 N   0  0  0  0  0  0  0  0  0  0  0  0
  -24.5930  -15.9700   20.5290 H   0  0  0  0  0  0  0  0  0  0  0  0
  -26.2030  -15.7670   20.0580 H   0  0  0  0  0  0  0  0  0  0  0  0
  2  8  1  0
  2  1  1  0
  4  7  1  0
  5  3  1  0
  5  1  1  0
  6  4  1  0
  6  2  1  0
  6  3  1  0
  7 50  1  0
  7  5  1  0
  8  9  1  0
 10 21  2  0
 11  9  1  0
 11 16  1  0
 12 20  1  0
 12 22  1  0
 13 19  1  0
 13 15  1  0
 14 20  1  0
 15 14  1  0
 16 15  2  0
 17 11  2  0
 18 17  1  0
 18 13  2  0
 19 12  1  0
 20 10  1  0
 22 24  2  0
 23 22  1  0
 25 23  1  0
 26 35  2  0
 26 31  1  0
 27 23  1  0
 27 31  1  0
 28 27  1  0
 29 30  1  0
 29 28  1  0
 30 26  1  0
 31 32  2  0
 32 33  1  0
 34 33  2  0
 35 34  1  0
 36 10  1  0
 36 37  1  0
 36 46  1  0
 37 40  1  0
 38 42  1  0
 38 37  1  0
 39 38  2  0
 42 41  1  0
 44 42  1  0
 44 45  1  0
 44 43  1  0
 46 49  1  1
 46 47  1  0
 48 46  1  0
 51 50  1  0
 52 57  1  0
 53 54  1  0
 53 52  1  0
 55 54  1  0
 55 62  1  0
 55 56  1  0
 57 51  1  0
 57 56  1  0
 58 51  2  0
 59 60  2  0
 60 79  1  0
 61 60  1  0
 61 64  1  0
 62 63  1  0
 62 59  1  0
 63 61  2  0
 64 65  1  0
 65 66  2  0
 67 70  1  0
 67 66  1  0
 68 67  2  0
 69 68  1  0
 69 64  2  0
 70 71  1  0
 71 72  1  0
 72 73  2  0
 74 73  1  0
 74 78  1  0
 75 74  2  0
 76 71  2  0
 76 75  1  0
 77 76  1  0
 79 80  1  0
 80 83  1  0
 80 82  1  0
 81 79  2  0
 84 85  1  0
 84 59  1  0
 86 84  1  0
M  ISO  4   8 101   9 101  50 100  51 100
M  END
>  <TORSDO>  (64) 
F 18

>  <SCORE>  (64) 
-16.722

>  <name>  (64) 
63

>  <ligand_id>  (64) 
63

>  <original_smiles>  (64) 
[H]C1=C(C([H])([H])Oc2c([H])c([H])c3c(c2[H])C([H])([H])N(C(=O)C([H])(N([H])C(=O)C([H])(N([H])C([H])([H])[H])C([H])([H])[H])C(C([H])([H])[H])(C([H])([H])[H])C([H])([H])[H])C([H])(C(=O)N([H])C2([H])c4c([H])c([H])c([H])c([H])c4C([H])([H])C([H])([H])C2([H])[H])C3([H])[H])C2([H])C([H])([H])C1([H])C([H])(C([H])([H])C(=O)N1C([H])([H])C([H])([H])C([H])([H])C([H])(n3nc(-c4c([H])c([H])c(Oc5c([H])c([H])c(F)c([H])c5F)c([H])c4[H])c(C(=O)N([H])[H])c3N([H])[H])C1([H])[H])C2([H])[H]

>  <smiles>  (64) 
[H]C1=C(C([H])([H])Oc2c([H])c([H])c3c(c2[H])C([H])([H])N(C(=O)C([H])(N([H])C(=O)C([H])(N([H])C([H])([H])[H])C([H])([H])[H])C(C([H])([H])[H])(C([H])([H])[H])C([H])([H])[H])C([H])(C(=O)N([H])C2([H])c4c([H])c([H])c([H])c([H])c4C([H])([H])C([H])([H])C2([H])[H])C3([H])[H])C2([H])C([H])([H])C1([H])C([H])(C([H])([H])C(=O)N1C([H])([H])C([H])([H])C([H])([H])C([H])(n3nc(-c4c([H])c([H])c(Oc5c([H])c([H])c(F)c([H])c5F)c([H])c4[H])c(C(=O)N([H])[H])c3N([H])[H])C1([H])[H])C2([H])[H]

$$$$
64:0:0
     RDKit          3D

 82 87  0  0  1  0  0  0  0  0999 V2000
  -28.1660  -25.2970   20.3170 O   0  0  0  0  0  0  0  0  0  0  0  0
  -24.6760  -31.8160   23.1620 C   0  0  0  0  0  0  0  0  0  0  0  0
  -27.2130  -26.5850   20.2220 C   0  0  0  0  0  0  0  0  0  0  0  0
  -23.4990  -30.3990   21.5360 C   0  0  0  0  0  3  0  0  0  0  0  0
  -24.9530  -28.7150   20.1420 C   0  0  0  0  0  0  0  0  0  0  0  0
  -26.0840  -30.5020   21.4340 C   0  0  0  0  0  2  0  0  0  0  0  0
  -26.1500  -29.0480   20.7860 C   0  0  0  0  0  0  0  0  0  0  0  0
  -27.2530  -28.0150   20.7920 C   0  0  0  0  0  3  0  0  0  0  0  0
  -25.9810  -26.5080   19.5110 C   0  0  0  0  0  3  0  0  0  0  0  0
  -24.9180  -27.4740   19.4790 C   0  0  0  0  0  3  0  0  0  0  0  0
  -23.7490  -29.6820   20.1760 C   0  0  0  0  0  2  0  0  0  0  0  0
  -24.7780  -30.9440   22.0950 N   0  0  0  0  0  0  0  0  0  0  0  0
  -23.5780  -32.1240   23.6620 O   0  0  0  0  0  0  0  0  0  0  0  0
  -22.7700  -29.4410   22.5190 C   0  0  0  0  0  0  0  0  0  0  0  0
  -21.4350  -29.2950   22.4020 N   0  0  0  0  0  0  0  0  0  0  0  0
  -23.4210  -28.8240   23.3650 O   0  0  0  0  0  0  0  0  0  0  0  0
  -20.9570  -29.8430   21.7000 H   0  0  0  0  0  0  0  0  0  0  0  0
  -18.0450  -28.0880   22.9410 C   0  0  0  0  0  0  0  0  0  0  0  0
  -20.6080  -28.3640   23.1830 C   0  0  0  0  0  3  0  0  0  0  0  0
  -20.7060  -26.9270   22.6170 C   0  0  0  0  0  2  0  0  0  0  0  0
  -19.5990  -26.6000   21.6100 C   0  0  0  0  0  2  0  0  0  0  0  0
  -18.2210  -26.7410   22.2620 C   0  0  0  0  0  2  0  0  0  0  0  0
  -19.1650  -28.8580   23.3590 C   0  0  0  0  0  0  0  0  0  0  0  0
  -18.9430  -30.1160   23.9610 C   0  0  0  0  0  3  0  0  0  0  0  0
  -17.6360  -30.6050   24.1460 C   0  0  0  0  0  3  0  0  0  0  0  0
  -16.5320  -29.8350   23.7400 C   0  0  0  0  0  3  0  0  0  0  0  0
  -16.7380  -28.5790   23.1440 C   0  0  0  0  0  3  0  0  0  0  0  0
  -25.9290  -32.4850   23.8040 C   0  0  0  0  0  3  0  0  0  0  0  0
  -25.5910  -33.8820   24.1470 N   0  0  0  0  0  0  0  0  0  0  0  0
  -25.8940  -34.9580   23.4070 C   0  0  0  0  0  0  0  0  0  0  0  0
  -26.5430  -34.8800   22.3620 O   0  0  0  0  0  0  0  0  0  0  0  0
  -25.0080  -34.0140   24.9610 H   0  0  0  0  0  0  0  0  0  0  0  0
  -24.1270  -36.7400   23.1530 C   0  0  0  0  0  1  0  0  0  0  0  0
  -25.4080  -36.3380   23.9030 C   0  0  0  0  0  3  0  0  0  0  0  0
  -27.5600  -37.2590   24.6530 C   0  0  0  0  0  1  0  0  0  0  0  0
  -26.4180  -37.4110   23.7560 N   0  0  0  0  0  0  0  0  0  0  0  0
  -26.0030  -38.3230   23.9240 H   0  0  0  0  0  0  0  0  0  0  0  0
  -26.4330  -31.7320   25.1000 C   0  0  1  0  0  0  0  0  0  0  0  0
  -25.3290  -31.5040   26.1600 C   0  0  0  0  0  1  0  0  0  0  0  0
  -27.0270  -30.3500   24.7470 C   0  0  0  0  0  1  0  0  0  0  0  0
  -27.5730  -32.5390   25.7650 C   0  0  0  0  0  1  0  0  0  0  0  0
  -28.1360  -23.4720   20.0010 C   0  0  0  0  0  1  0  0  0  0  0  0
  -27.9730  -20.4160   20.0890 C   0  0  0  0  0  2  0  0  0  0  0  0
  -29.3080  -19.6920   19.9900 C   0  0  0  0  0  1  0  0  0  0  0  0
  -28.8260  -21.6210   20.4610 C   0  0  0  0  0  1  0  0  0  0  0  0
  -29.3800  -17.7170   20.4420 C   0  0  0  0  0  1  0  0  0  0  0  0
  -30.1730  -15.9420   20.1290 C   0  0  0  0  0  0  0  0  0  0  0  0
  -30.3440  -13.3240   19.3340 C   0  0  0  0  0  2  0  0  0  0  0  0
  -29.4530  -12.8410   18.1430 C   0  0  0  0  0  2  0  0  0  0  0  0
  -28.0500  -12.4430   18.6160 C   0  0  0  0  0  2  0  0  0  0  0  0
  -27.5300  -13.4500   19.6630 C   0  0  0  0  0  3  0  0  0  0  0  0
  -28.5630  -13.8310   20.7550 C   0  0  0  0  0  2  0  0  0  0  0  0
  -29.7120  -14.5170   20.0990 N   0  0  0  0  0  0  0  0  0  0  0  0
  -31.3930  -15.8400   19.8630 O   0  0  0  0  0  0  0  0  0  0  0  0
  -25.1880  -13.9620   20.4800 C   0  0  0  0  0  0  0  0  0  0  0  0
  -24.1340  -13.1800   20.8580 C   0  0  0  0  0  0  0  0  0  0  0  0
  -24.6020  -11.8300   20.8060 C   0  0  0  0  0  0  0  0  0  0  0  0
  -26.2260  -13.0940   20.2070 N   0  0  0  0  0  0  0  0  0  0  0  0
  -25.8900  -11.8020   20.4700 N   0  0  0  0  0  0  0  0  0  0  0  0
  -23.8720  -10.5680   20.9990 C   0  0  0  0  0  0  0  0  0  0  0  0
  -24.3070   -9.5930   21.9230 C   0  0  0  0  0  3  0  0  0  0  0  0
  -23.5720   -8.4020   22.1070 C   0  0  0  0  0  3  0  0  0  0  0  0
  -22.3870   -8.1760   21.3670 C   0  0  0  0  0  0  0  0  0  0  0  0
  -21.9710   -9.1390   20.4320 C   0  0  0  0  0  3  0  0  0  0  0  0
  -22.7060  -10.3220   20.2460 C   0  0  0  0  0  3  0  0  0  0  0  0
  -21.6240   -7.0370   21.4600 O   0  0  0  0  0  0  0  0  0  0  0  0
  -21.5790   -6.2920   22.6110 C   0  0  0  0  0  0  0  0  0  0  0  0
  -21.1630   -6.8460   23.8410 C   0  0  0  0  0  3  0  0  0  0  0  0
  -21.0650   -6.0280   24.9840 C   0  0  0  0  0  3  0  0  0  0  0  0
  -21.3730   -4.6560   24.8990 C   0  0  0  0  0  0  0  0  0  0  0  0
  -21.7830   -4.1010   23.6730 C   0  0  0  0  0  3  0  0  0  0  0  0
  -21.8830   -4.9170   22.5320 C   0  0  0  0  0  0  0  0  0  0  0  0
  -22.2560   -4.3730   21.3490 F   0  0  0  0  0  0  0  0  0  0  0  0
  -21.2720   -3.8680   25.9950 F   0  0  0  0  0  0  0  0  0  0  0  0
  -22.7420  -13.6590   21.1480 C   0  0  0  0  0  0  0  0  0  0  0  0
  -22.0260  -12.9640   22.0220 N   0  0  0  0  0  0  0  0  0  0  0  0
  -22.3020  -14.6870   20.6350 O   0  0  0  0  0  0  0  0  0  0  0  0
  -22.3970  -12.1330   22.4580 H   0  0  0  0  0  0  0  0  0  0  0  0
  -21.0920  -13.2680   22.2610 H   0  0  0  0  0  0  0  0  0  0  0  0
  -25.3470  -15.3350   20.3120 N   0  0  0  0  0  0  0  0  0  0  0  0
  -24.5830  -15.9890   20.4470 H   0  0  0  0  0  0  0  0  0  0  0  0
  -26.1920  -15.7780   19.9780 H   0  0  0  0  0  0  0  0  0  0  0  0
  2 13  2  0
  3  1  1  0
  3  8  1  0
  4 12  1  0
  4 14  1  0
  5 11  1  0
  5  7  1  0
  6 12  1  0
  7  8  2  0
  7  6  1  0
  9  3  2  0
 10  9  1  0
 10  5  2  0
 11  4  1  0
 12  2  1  0
 14 16  2  0
 15 14  1  0
 17 15  1  0
 18 27  2  0
 18 23  1  0
 19 15  1  0
 19 23  1  0
 20 19  1  0
 21 22  1  0
 21 20  1  0
 22 18  1  0
 23 24  2  0
 24 25  1  0
 26 25  2  0
 27 26  1  0
 28  2  1  0
 28 29  1  0
 28 38  1  0
 29 32  1  0
 30 34  1  0
 30 29  1  0
 31 30  2  0
 34 33  1  0
 36 34  1  0
 36 37  1  0
 36 35  1  0
 38 41  1  1
 38 39  1  0
 40 38  1  0
 42  1  1  0
 43 45  1  0
 44 43  1  0
 47 46  1  0
 48 53  1  0
 49 50  1  0
 49 48  1  0
 51 50  1  0
 51 58  1  0
 51 52  1  0
 53 47  1  0
 53 52  1  0
 54 47  2  0
 55 56  2  0
 56 75  1  0
 57 56  1  0
 57 60  1  0
 58 59  1  0
 58 55  1  0
 59 57  2  0
 60 61  1  0
 61 62  2  0
 63 66  1  0
 63 62  1  0
 64 63  2  0
 65 64  1  0
 65 60  2  0
 66 67  1  0
 67 68  1  0
 68 69  2  0
 70 69  1  0
 70 74  1  0
 71 70  2  0
 72 67  2  0
 72 71  1  0
 73 72  1  0
 75 76  1  0
 76 79  1  0
 76 78  1  0
 77 75  2  0
 80 81  1  0
 80 55  1  0
 82 80  1  0
M  ISO  4   1 101  42 101  46 100  47 100
M  END
>  <TORSDO>  (65) 
F 18

>  <SCORE>  (65) 
-16.153

>  <name>  (65) 
64

>  <ligand_id>  (65) 
64

>  <original_smiles>  (65) 
[H]c1c([H])c([H])c2c(c1[H])C([H])([H])C([H])([H])C([H])([H])C2([H])N([H])C(=O)C1([H])N(C(=O)C([H])(N([H])C(=O)C([H])(N([H])C([H])([H])[H])C([H])([H])[H])C(C([H])([H])[H])(C([H])([H])[H])C([H])([H])[H])C([H])([H])c2c([H])c(OC([H])([H])C3([H])C([H])([H])C3([H])C([H])([H])C(=O)N3C([H])([H])C([H])([H])C([H])([H])C([H])(n4nc(-c5c([H])c([H])c(Oc6c([H])c([H])c(F)c([H])c6F)c([H])c5[H])c(C(=O)N([H])[H])c4N([H])[H])C3([H])[H])c([H])c([H])c2C1([H])[H]

>  <smiles>  (65) 
[H]c1c([H])c([H])c2c(c1[H])C([H])([H])C([H])([H])C([H])([H])C2([H])N([H])C(=O)C1([H])N(C(=O)C([H])(N([H])C(=O)C([H])(N([H])C([H])([H])[H])C([H])([H])[H])C(C([H])([H])[H])(C([H])([H])[H])C([H])([H])[H])C([H])([H])c2c([H])c(OC([H])([H])C3([H])C([H])([H])C3([H])C([H])([H])C(=O)N3C([H])([H])C([H])([H])C([H])([H])C([H])(n4nc(-c5c([H])c([H])c(Oc6c([H])c([H])c(F)c([H])c6F)c([H])c5[H])c(C(=O)N([H])[H])c4N([H])[H])C3([H])[H])c([H])c([H])c2C1([H])[H]

$$$$
65:0:0
     RDKit          3D

102111  0  0  1  0  0  0  0  0999 V2000
  -24.1830  -21.9030   19.7450 N   0  0  0  0  0  4  0  0  0  0  0  0
  -24.0040  -21.7490   18.7660 H   0  0  0  0  0  0  0  0  0  0  0  0
  -23.3580  -21.5700   20.2210 H   0  0  0  0  0  0  0  0  0  0  0  0
  -24.2770  -23.3420   20.0760 C   0  0  0  0  0  2  0  0  0  0  0  0
  -26.8210  -24.2220   20.2400 C   0  0  0  0  0  2  0  0  0  0  0  0
  -25.8870  -24.1010   18.0030 C   0  0  0  0  0  2  0  0  0  0  0  0
  -25.4660  -24.1760   19.4860 C   0  0  0  0  0  3  0  0  0  0  0  0
  -27.6230  -25.1340   19.2980 C   0  0  0  0  0  3  0  0  0  0  0  0
  -27.3000  -24.5600   17.9610 N   0  0  0  0  0  4  0  0  0  0  0  0
  -27.4520  -25.1990   17.1970 H   0  0  0  0  0  0  0  0  0  0  0  0
  -27.8810  -23.7560   17.7840 H   0  0  0  0  0  0  0  0  0  0  0  0
  -29.1360  -25.5340   19.5410 C   0  0  0  0  0  2  0  0  0  0  0  0
  -29.5330  -26.9450   19.3740 O   0  0  0  0  0  0  0  0  0  0  0  0
  -26.4380  -30.1520   24.9740 C   0  0  0  0  0  0  0  0  0  0  0  0
  -28.6330  -27.8810   19.8420 C   0  0  0  0  0  0  0  0  0  0  0  0
  -25.1810  -30.1380   22.8420 C   0  0  0  0  0  3  0  0  0  0  0  0
  -26.5290  -29.4980   20.7850 C   0  0  0  0  0  0  0  0  0  0  0  0
  -27.7450  -30.1140   22.8650 C   0  0  0  0  0  2  0  0  0  0  0  0
  -27.6910  -29.3570   21.5550 C   0  0  0  0  0  0  0  0  0  0  0  0
  -28.7370  -28.5000   21.1140 C   0  0  0  0  0  3  0  0  0  0  0  0
  -27.5510  -28.2320   19.0080 C   0  0  0  0  0  3  0  0  0  0  0  0
  -26.4460  -28.9190   19.5170 C   0  0  0  0  0  3  0  0  0  0  0  0
  -25.4070  -30.3540   21.3270 C   0  0  0  0  0  2  0  0  0  0  0  0
  -26.4670  -30.1200   23.6130 N   0  0  0  0  0  0  0  0  0  0  0  0
  -25.3660  -30.2380   25.5870 O   0  0  0  0  0  0  0  0  0  0  0  0
  -24.3310  -28.8640   23.0510 C   0  0  0  0  0  0  0  0  0  0  0  0
  -23.0380  -28.9430   22.6940 N   0  0  0  0  0  0  0  0  0  0  0  0
  -24.8350  -27.8310   23.5030 O   0  0  0  0  0  0  0  0  0  0  0  0
  -22.7050  -29.8250   22.3290 H   0  0  0  0  0  0  0  0  0  0  0  0
  -19.6100  -28.0710   21.9620 C   0  0  0  0  0  0  0  0  0  0  0  0
  -22.0530  -27.8660   22.7920 C   0  0  0  0  0  3  0  0  0  0  0  0
  -22.2480  -26.8390   21.6570 C   0  0  0  0  0  2  0  0  0  0  0  0
  -21.3910  -27.1450   20.4260 C   0  0  0  0  0  2  0  0  0  0  0  0
  -19.9020  -27.1550   20.7840 C   0  0  0  0  0  2  0  0  0  0  0  0
  -20.6230  -28.4090   22.8970 C   0  0  0  0  0  0  0  0  0  0  0  0
  -20.3090  -29.2820   23.9600 C   0  0  0  0  0  3  0  0  0  0  0  0
  -19.0100  -29.8010   24.1060 C   0  0  0  0  0  3  0  0  0  0  0  0
  -18.0080  -29.4590   23.1830 C   0  0  0  0  0  3  0  0  0  0  0  0
  -18.3100  -28.5960   22.1140 C   0  0  0  0  0  3  0  0  0  0  0  0
  -27.7530  -30.1140   25.8180 C   0  0  0  0  0  3  0  0  0  0  0  0
  -27.7140  -31.2570   26.7380 N   0  0  0  0  0  0  0  0  0  0  0  0
  -28.4190  -32.3860   26.5790 C   0  0  0  0  0  0  0  0  0  0  0  0
  -29.2360  -32.5440   25.6670 O   0  0  0  0  0  0  0  0  0  0  0  0
  -27.0220  -31.2230   27.4720 H   0  0  0  0  0  0  0  0  0  0  0  0
  -27.3040  -34.6070   26.9510 C   0  0  0  0  0  1  0  0  0  0  0  0
  -28.1800  -33.5190   27.5910 C   0  0  0  0  0  3  0  0  0  0  0  0
  -30.1880  -33.2200   28.9700 C   0  0  0  0  0  1  0  0  0  0  0  0
  -29.4290  -34.1210   28.1060 N   0  0  0  0  0  0  0  0  0  0  0  0
  -29.2270  -34.9650   28.6350 H   0  0  0  0  0  0  0  0  0  0  0  0
  -27.9450  -28.7630   26.6100 C   0  0  1  0  0  0  0  0  0  0  0  0
  -26.7180  -28.3630   27.4570 C   0  0  0  0  0  1  0  0  0  0  0  0
  -28.2560  -27.5920   25.6480 C   0  0  0  0  0  1  0  0  0  0  0  0
  -29.1620  -28.8830   27.5590 C   0  0  0  0  0  1  0  0  0  0  0  0
  -25.2620  -21.0180   20.2250 C   0  0  0  0  0  2  0  0  0  0  0  0
  -26.2690  -20.7180   19.1120 C   0  0  0  0  0  2  0  0  0  0  0  0
  -28.5490  -19.7910   19.7420 C   0  0  0  0  0  3  0  0  0  0  0  0
  -27.2410  -19.6450   19.4840 C   0  0  0  0  0  3  0  0  0  0  0  0
  -29.3440  -18.5630   19.8780 C   0  0  0  0  0  3  0  0  0  0  0  0
  -30.6970  -18.2430   20.4900 C   0  0  0  0  0  3  0  0  0  0  0  0
  -30.5860  -18.6460   19.0270 C   0  0  0  0  0  3  0  0  0  0  0  0
  -31.7220  -15.9670   20.5670 C   0  0  0  0  0  0  0  0  0  0  0  0
  -31.6930  -13.7670   19.4780 C   0  0  0  0  0  2  0  0  0  0  0  0
  -30.8180  -13.8950   18.2090 C   0  0  0  0  0  2  0  0  0  0  0  0
  -29.3210  -13.6910   18.5310 C   0  0  0  0  0  2  0  0  0  0  0  0
  -28.8540  -14.5120   19.7620 C   0  0  0  0  0  3  0  0  0  0  0  0
  -29.8390  -14.3380   20.9420 C   0  0  0  0  0  2  0  0  0  0  0  0
  -31.1900  -14.7230   20.4710 N   0  0  0  0  0  0  0  0  0  0  0  0
  -32.8420  -16.2850   20.1500 O   0  0  0  0  0  0  0  0  0  0  0  0
  -30.7850  -16.8720   20.8690 N   0  0  0  0  0  0  0  0  0  0  0  0
  -29.9570  -16.4770   21.2950 H   0  0  0  0  0  0  0  0  0  0  0  0
  -26.3830  -15.0690   20.2050 C   0  0  0  0  0  0  0  0  0  0  0  0
  -25.3170  -14.2730   20.5150 C   0  0  0  0  0  0  0  0  0  0  0  0
  -25.8280  -12.9400   20.5830 C   0  0  0  0  0  0  0  0  0  0  0  0
  -27.4760  -14.2210   20.1250 N   0  0  0  0  0  0  0  0  0  0  0  0
  -27.1390  -12.9400   20.3940 N   0  0  0  0  0  0  0  0  0  0  0  0
  -25.1480  -11.6590   20.7620 C   0  0  0  0  0  0  0  0  0  0  0  0
  -25.3910  -10.8500   21.8930 C   0  0  0  0  0  3  0  0  0  0  0  0
  -24.7130   -9.6220   22.0510 C   0  0  0  0  0  3  0  0  0  0  0  0
  -23.7800   -9.1950   21.0770 C   0  0  0  0  0  0  0  0  0  0  0  0
  -23.5630   -9.9930   19.9390 C   0  0  0  0  0  3  0  0  0  0  0  0
  -24.2440  -11.2120   19.7810 C   0  0  0  0  0  3  0  0  0  0  0  0
  -23.0960   -8.0050   21.1350 O   0  0  0  0  0  0  0  0  0  0  0  0
  -22.5410   -7.5560   22.3070 C   0  0  0  0  0  0  0  0  0  0  0  0
  -21.5870   -8.3150   23.0210 C   0  0  0  0  0  3  0  0  0  0  0  0
  -20.9900   -7.7830   24.1810 C   0  0  0  0  0  3  0  0  0  0  0  0
  -21.3390   -6.4910   24.6240 C   0  0  0  0  0  0  0  0  0  0  0  0
  -22.2830   -5.7320   23.9110 C   0  0  0  0  0  3  0  0  0  0  0  0
  -22.8810   -6.2620   22.7530 C   0  0  0  0  0  0  0  0  0  0  0  0
  -23.7760   -5.5190   22.0580 F   0  0  0  0  0  0  0  0  0  0  0  0
  -20.7600   -5.9780   25.7340 F   0  0  0  0  0  0  0  0  0  0  0  0
  -23.8820  -14.7000   20.6500 C   0  0  0  0  0  0  0  0  0  0  0  0
  -23.1230  -14.0310   21.5080 N   0  0  0  0  0  0  0  0  0  0  0  0
  -23.4450  -15.6700   20.0260 O   0  0  0  0  0  0  0  0  0  0  0  0
  -23.4950  -13.2520   22.0360 H   0  0  0  0  0  0  0  0  0  0  0  0
  -22.1580  -14.2930   21.6480 H   0  0  0  0  0  0  0  0  0  0  0  0
  -26.5220  -16.4370   19.9590 N   0  0  0  0  0  0  0  0  0  0  0  0
  -25.6170  -16.7580   19.6290 H   0  0  0  0  0  0  0  0  0  0  0  0
  -26.6030  -16.8900   20.8630 H   0  0  0  0  0  0  0  0  0  0  0  0
  -30.0200  -18.1560   16.6660 C   0  0  0  0  0  1  0  0  0  0  0  0
  -30.5270  -17.6370   17.9500 N   0  0  0  0  0  4  0  0  0  0  0  0
  -29.8910  -16.9030   18.2210 H   0  0  0  0  0  0  0  0  0  0  0  0
  -31.4450  -17.2560   17.7940 H   0  0  0  0  0  0  0  0  0  0  0  0
  1  4  1  0
  1  3  1  0
  1 54  1  0
  2  1  1  0
  6  7  1  0
  7  4  1  0
  7  5  1  0
  8 12  1  0
  8  5  1  0
  9  6  1  0
  9  8  1  0
 10  9  1  0
 11  9  1  0
 13 12  1  0
 13 15  1  0
 14 25  2  0
 15 20  1  0
 16 26  1  0
 16 24  1  0
 17 23  1  0
 17 19  1  0
 18 24  1  0
 19 18  1  0
 20 19  2  0
 21 22  1  0
 21 15  2  0
 22 17  2  0
 23 16  1  0
 24 14  1  0
 26 28  2  0
 27 26  1  0
 29 27  1  0
 30 39  2  0
 30 35  1  0
 31 27  1  0
 31 35  1  0
 32 31  1  0
 33 34  1  0
 33 32  1  0
 34 30  1  0
 35 36  2  0
 36 37  1  0
 38 37  2  0
 39 38  1  0
 40 14  1  0
 40 50  1  0
 40 41  1  0
 41 44  1  0
 42 41  1  0
 42 46  1  0
 43 42  2  0
 46 45  1  0
 46 48  1  0
 48 49  1  0
 48 47  1  0
 50 51  1  1
 50 53  1  0
 52 50  1  0
 55 57  1  0
 55 54  1  0
 57 56  2  0
 58 56  1  0
 58 59  1  0
 59 69  1  0
 60100  1  0
 60 58  1  0
 60 59  1  0
 61 69  1  0
 62 67  1  0
 63 64  1  0
 63 62  1  0
 65 64  1  0
 65 74  1  0
 65 66  1  0
 67 61  1  0
 67 66  1  0
 68 61  2  0
 69 70  1  0
 71 72  2  0
 72 73  1  0
 72 91  1  0
 73 76  1  0
 74 71  1  0
 74 75  1  0
 75 73  2  0
 76 77  1  0
 77 78  2  0
 79 82  1  0
 79 78  1  0
 80 79  2  0
 81 80  1  0
 81 76  2  0
 82 83  1  0
 83 88  2  0
 83 84  1  0
 84 85  2  0
 85 86  1  0
 86 90  1  0
 87 86  2  0
 88 87  1  0
 89 88  1  0
 91 92  1  0
 92 95  1  0
 92 94  1  0
 93 91  2  0
 96 71  1  0
 96 98  1  0
 97 96  1  0
 99100  1  0
100101  1  0
102100  1  0
M  ISO  4  12 101  13 101  61 100  69 100
M  END
>  <TORSDO>  (66) 
F 24

>  <SCORE>  (66) 
-2.984

>  <name>  (66) 
65

>  <ligand_id>  (66) 
65

>  <original_smiles>  (66) 
[H]C(=C([H])C1([H])C([H])(N([H])C(=O)N2C([H])([H])C([H])([H])C([H])([H])C([H])(n3nc(-c4c([H])c([H])c(Oc5c([H])c([H])c(F)c([H])c5F)c([H])c4[H])c(C(=O)N([H])[H])c3N([H])[H])C2([H])[H])C1([H])[N+]([H])([H])C([H])([H])[H])C([H])([H])C([H])([H])[N+]([H])([H])C([H])([H])C1([H])C([H])([H])C([H])(C([H])([H])Oc2c([H])c([H])c3c(c2[H])C([H])([H])N(C(=O)C([H])(N([H])C(=O)C([H])(N([H])C([H])([H])[H])C([H])([H])[H])C(C([H])([H])[H])(C([H])([H])[H])C([H])([H])[H])C([H])(C(=O)N([H])C2([H])c4c([H])c([H])c([H])c([H])c4C([H])([H])C([H])([H])C2([H])[H])C3([H])[H])[N+]([H])([H])C1([H])[H]

>  <smiles>  (66) 
[H]C(=C([H])C1([H])C([H])(N([H])C(=O)N2C([H])([H])C([H])([H])C([H])([H])C([H])(n3nc(-c4c([H])c([H])c(Oc5c([H])c([H])c(F)c([H])c5F)c([H])c4[H])c(C(=O)N([H])[H])c3N([H])[H])C2([H])[H])C1([H])[N+]([H])([H])C([H])([H])[H])C([H])([H])C([H])([H])[N+]([H])([H])C([H])([H])C1([H])C([H])([H])C([H])(C([H])([H])Oc2c([H])c([H])c3c(c2[H])C([H])([H])N(C(=O)C([H])(N([H])C(=O)C([H])(N([H])C([H])([H])[H])C([H])([H])[H])C(C([H])([H])[H])(C([H])([H])[H])C([H])([H])[H])C([H])(C(=O)N([H])C2([H])c4c([H])c([H])c([H])c([H])c4C([H])([H])C([H])([H])C2([H])[H])C3([H])[H])[N+]([H])([H])C1([H])[H]

$$$$
66:0:0
     RDKit          3D

 90 98  0  0  1  0  0  0  0  0999 V2000
  -28.5320  -22.7410   20.6030 N   0  0  0  0  0  4  0  0  0  0  0  0
  -28.0930  -22.6890   21.5100 H   0  0  0  0  0  0  0  0  0  0  0  0
  -27.7860  -22.6730   19.9290 H   0  0  0  0  0  0  0  0  0  0  0  0
  -29.2960  -19.1340   19.3130 C   0  0  0  0  0  2  0  0  0  0  0  0
  -30.3820  -19.3870   21.5440 C   0  0  0  0  0  2  0  0  0  0  0  0
  -28.5890  -20.5030   19.4950 C   0  0  0  0  0  2  0  0  0  0  0  0
  -29.6820  -20.7690   21.7320 C   0  0  0  0  0  2  0  0  0  0  0  0
  -29.5870  -18.4050   20.6450 C   0  0  0  0  0  3  0  0  0  0  0  0
  -29.3580  -21.5030   20.4000 C   0  0  0  0  0  3  0  0  0  0  0  0
  -29.8800  -15.8060   20.6420 C   0  0  0  0  0  3  0  0  0  0  0  0
  -30.3230  -17.0710   20.3850 C   0  0  0  0  0  3  0  0  0  0  0  0
  -30.6680  -14.6180   20.2390 C   0  0  0  0  0  0  0  0  0  0  0  0
  -30.3550  -12.4440   19.1070 C   0  0  0  0  0  2  0  0  0  0  0  0
  -29.3880  -12.6630   17.9220 C   0  0  0  0  0  2  0  0  0  0  0  0
  -27.9220  -12.5190   18.3800 C   0  0  0  0  0  2  0  0  0  0  0  0
  -27.6140  -13.3320   19.6660 C   0  0  0  0  0  3  0  0  0  0  0  0
  -28.6970  -13.0960   20.7430 C   0  0  0  0  0  2  0  0  0  0  0  0
  -30.0030  -13.4260   20.1510 N   0  0  0  0  0  0  0  0  0  0  0  0
  -31.8240  -14.7240   19.8170 O   0  0  0  0  0  0  0  0  0  0  0  0
  -25.2320  -13.9300   20.4310 C   0  0  0  0  0  0  0  0  0  0  0  0
  -24.1740  -13.1550   20.8200 C   0  0  0  0  0  0  0  0  0  0  0  0
  -24.6360  -11.8040   20.7780 C   0  0  0  0  0  0  0  0  0  0  0  0
  -26.2730  -13.0510   20.1750 N   0  0  0  0  0  0  0  0  0  0  0  0
  -25.9200  -11.7680   20.4400 N   0  0  0  0  0  0  0  0  0  0  0  0
  -23.9160  -10.5400   20.9810 C   0  0  0  0  0  0  0  0  0  0  0  0
  -24.3660   -9.5740   21.9080 C   0  0  0  0  0  3  0  0  0  0  0  0
  -23.6440   -8.3760   22.0980 C   0  0  0  0  0  3  0  0  0  0  0  0
  -22.4600   -8.1350   21.3640 C   0  0  0  0  0  0  0  0  0  0  0  0
  -22.0290   -9.0890   20.4270 C   0  0  0  0  0  3  0  0  0  0  0  0
  -22.7500  -10.2800   20.2330 C   0  0  0  0  0  3  0  0  0  0  0  0
  -21.7100   -6.9880   21.4640 O   0  0  0  0  0  0  0  0  0  0  0  0
  -21.6730   -6.2510   22.6200 C   0  0  0  0  0  0  0  0  0  0  0  0
  -21.2590   -6.8130   23.8490 C   0  0  0  0  0  3  0  0  0  0  0  0
  -21.1690   -6.0030   24.9980 C   0  0  0  0  0  3  0  0  0  0  0  0
  -21.4820   -4.6320   24.9210 C   0  0  0  0  0  0  0  0  0  0  0  0
  -21.8890   -4.0710   23.6980 C   0  0  0  0  0  3  0  0  0  0  0  0
  -21.9810   -4.8770   22.5500 C   0  0  0  0  0  0  0  0  0  0  0  0
  -22.3530   -4.3280   21.3690 F   0  0  0  0  0  0  0  0  0  0  0  0
  -21.3880   -3.8510   26.0230 F   0  0  0  0  0  0  0  0  0  0  0  0
  -22.7820  -13.6310   21.1220 C   0  0  0  0  0  0  0  0  0  0  0  0
  -22.0750  -12.9370   22.0070 N   0  0  0  0  0  0  0  0  0  0  0  0
  -22.3310  -14.6530   20.6080 O   0  0  0  0  0  0  0  0  0  0  0  0
  -22.4510  -12.1110   22.4470 H   0  0  0  0  0  0  0  0  0  0  0  0
  -21.1420  -13.2400   22.2500 H   0  0  0  0  0  0  0  0  0  0  0  0
  -25.3910  -15.3020   20.2530 N   0  0  0  0  0  0  0  0  0  0  0  0
  -24.6230  -15.9520   20.3790 H   0  0  0  0  0  0  0  0  0  0  0  0
  -26.2340  -15.7450   19.9110 H   0  0  0  0  0  0  0  0  0  0  0  0
  -29.1380  -24.1080   20.4260 C   0  0  0  0  0  2  0  0  0  0  0  0
  -28.0360  -25.1640   20.0800 C   0  0  0  0  0  2  0  0  0  0  0  0
  -28.3100  -26.5980   20.1740 O   0  0  0  0  0  0  0  0  0  0  0  0
  -24.5910  -31.9000   23.2610 C   0  0  0  0  0  0  0  0  0  0  0  0
  -27.1800  -27.4190   20.1290 C   0  0  0  0  0  0  0  0  0  0  0  0
  -23.3690  -30.5120   21.6250 C   0  0  0  0  0  3  0  0  0  0  0  0
  -24.8040  -28.9900   20.1690 C   0  0  0  0  0  0  0  0  0  0  0  0
  -25.9010  -30.8520   21.4110 C   0  0  0  0  0  2  0  0  0  0  0  0
  -25.9780  -29.4840   20.7540 C   0  0  0  0  0  0  0  0  0  0  0  0
  -27.1690  -28.7090   20.7300 C   0  0  0  0  0  3  0  0  0  0  0  0
  -25.9830  -26.9750   19.5140 C   0  0  0  0  0  3  0  0  0  0  0  0
  -24.8060  -27.7380   19.5430 C   0  0  0  0  0  3  0  0  0  0  0  0
  -23.5650  -29.8530   20.2370 C   0  0  0  0  0  2  0  0  0  0  0  0
  -24.6400  -31.1020   22.1560 N   0  0  0  0  0  0  0  0  0  0  0  0
  -23.5140  -32.1710   23.8120 O   0  0  0  0  0  0  0  0  0  0  0  0
  -22.7240  -29.4820   22.5830 C   0  0  0  0  0  0  0  0  0  0  0  0
  -21.3990  -29.2930   22.4620 N   0  0  0  0  0  0  0  0  0  0  0  0
  -23.4140  -28.8560   23.3920 O   0  0  0  0  0  0  0  0  0  0  0  0
  -20.9030  -29.8510   21.7800 H   0  0  0  0  0  0  0  0  0  0  0  0
  -18.0350  -28.0670   22.9600 C   0  0  0  0  0  0  0  0  0  0  0  0
  -20.5910  -28.3500   23.2330 C   0  0  0  0  0  3  0  0  0  0  0  0
  -20.7060  -26.9180   22.6610 C   0  0  0  0  0  2  0  0  0  0  0  0
  -19.6090  -26.5830   21.6450 C   0  0  0  0  0  2  0  0  0  0  0  0
  -18.2250  -26.7180   22.2870 C   0  0  0  0  0  2  0  0  0  0  0  0
  -19.1460  -28.8410   23.3890 C   0  0  0  0  0  0  0  0  0  0  0  0
  -18.9150  -30.1030   23.9770 C   0  0  0  0  0  3  0  0  0  0  0  0
  -17.6070  -30.5940   24.1390 C   0  0  0  0  0  3  0  0  0  0  0  0
  -16.5100  -29.8180   23.7270 C   0  0  0  0  0  3  0  0  0  0  0  0
  -16.7250  -28.5560   23.1420 C   0  0  0  0  0  3  0  0  0  0  0  0
  -25.8820  -32.5280   23.8710 C   0  0  0  0  0  3  0  0  0  0  0  0
  -26.4160  -31.7460   25.1340 C   0  0  1  0  0  0  0  0  0  0  0  0
  -25.3390  -31.5000   26.2150 C   0  0  0  0  0  1  0  0  0  0  0  0
  -26.9940  -30.3720   24.7230 C   0  0  0  0  0  1  0  0  0  0  0  0
  -27.5750  -32.5360   25.7860 C   0  0  0  0  0  1  0  0  0  0  0  0
  -25.5760  -33.9230   24.2160 N   0  0  0  0  0  0  0  0  0  0  0  0
  -25.8810  -34.9790   23.4490 C   0  0  0  0  0  0  0  0  0  0  0  0
  -26.5210  -34.8820   22.4000 O   0  0  0  0  0  0  0  0  0  0  0  0
  -25.0040  -34.0730   25.0340 H   0  0  0  0  0  0  0  0  0  0  0  0
  -24.1240  -36.7560   23.1620 C   0  0  0  0  0  1  0  0  0  0  0  0
  -25.3990  -36.3630   23.9260 C   0  0  0  0  0  3  0  0  0  0  0  0
  -27.5560  -37.2660   24.6730 C   0  0  0  0  0  1  0  0  0  0  0  0
  -26.4170  -37.4250   23.7730 N   0  0  0  0  0  0  0  0  0  0  0  0
  -26.0090  -38.3410   23.9380 H   0  0  0  0  0  0  0  0  0  0  0  0
  1  2  1  0
  3  1  1  0
  4  6  1  0
  4  8  1  0
  5  7  1  0
  6  9  1  0
  8 11  1  0
  8  5  1  0
  9  1  1  0
  9  7  1  0
 11 10  2  0
 12 10  1  0
 13 18  1  0
 14 15  1  0
 14 13  1  0
 16 15  1  0
 16 23  1  0
 16 17  1  0
 18 12  1  0
 18 17  1  0
 19 12  2  0
 20 21  2  0
 21 40  1  0
 22 21  1  0
 22 25  1  0
 23 20  1  0
 23 24  1  0
 24 22  2  0
 25 26  1  0
 26 27  2  0
 28 31  1  0
 28 27  1  0
 29 28  2  0
 30 29  1  0
 30 25  2  0
 31 32  1  0
 32 33  1  0
 33 34  2  0
 35 34  1  0
 35 39  1  0
 36 35  2  0
 37 32  2  0
 37 36  1  0
 38 37  1  0
 40 41  1  0
 41 44  1  0
 41 43  1  0
 42 40  2  0
 45 46  1  0
 45 20  1  0
 47 45  1  0
 48  1  1  0
 49 50  1  0
 49 48  1  0
 51 62  2  0
 52 50  1  0
 52 57  1  0
 53 61  1  0
 53 63  1  0
 54 60  1  0
 54 56  1  0
 55 61  1  0
 56 55  1  0
 57 56  2  0
 58 59  1  0
 58 52  2  0
 59 54  2  0
 60 53  1  0
 61 51  1  0
 63 65  2  0
 64 63  1  0
 66 64  1  0
 67 76  2  0
 67 72  1  0
 68 64  1  0
 68 72  1  0
 69 68  1  0
 70 71  1  0
 70 69  1  0
 71 67  1  0
 72 73  2  0
 73 74  1  0
 75 74  2  0
 76 75  1  0
 77 51  1  0
 77 82  1  0
 77 78  1  0
 78 81  1  1
 78 79  1  0
 80 78  1  0
 82 85  1  0
 83 87  1  0
 83 82  1  0
 84 83  2  0
 87 86  1  0
 89 87  1  0
 89 90  1  0
 89 88  1  0
M  ISO  4  10 100  12 100  49 101  50 101
M  END
>  <TORSDO>  (67) 
F 20

>  <SCORE>  (67) 
-13.681

>  <name>  (67) 
66

>  <ligand_id>  (67) 
66

>  <original_smiles>  (67) 
[H]C(C(=O)N1C([H])([H])C([H])([H])C([H])([H])C([H])(n2nc(-c3c([H])c([H])c(Oc4c([H])c([H])c(F)c([H])c4F)c([H])c3[H])c(C(=O)N([H])[H])c2N([H])[H])C1([H])[H])=C([H])C1([H])C([H])([H])C([H])([H])C([H])([N+]([H])([H])C([H])([H])C([H])([H])Oc2c([H])c([H])c3c(c2[H])C([H])([H])N(C(=O)C([H])(N([H])C(=O)C([H])(N([H])C([H])([H])[H])C([H])([H])[H])C(C([H])([H])[H])(C([H])([H])[H])C([H])([H])[H])C([H])(C(=O)N([H])C2([H])c4c([H])c([H])c([H])c([H])c4C([H])([H])C([H])([H])C2([H])[H])C3([H])[H])C([H])([H])C1([H])[H]

>  <smiles>  (67) 
[H]C(C(=O)N1C([H])([H])C([H])([H])C([H])([H])C([H])(n2nc(-c3c([H])c([H])c(Oc4c([H])c([H])c(F)c([H])c4F)c([H])c3[H])c(C(=O)N([H])[H])c2N([H])[H])C1([H])[H])=C([H])C1([H])C([H])([H])C([H])([H])C([H])([N+]([H])([H])C([H])([H])C([H])([H])Oc2c([H])c([H])c3c(c2[H])C([H])([H])N(C(=O)C([H])(N([H])C(=O)C([H])(N([H])C([H])([H])[H])C([H])([H])[H])C(C([H])([H])[H])(C([H])([H])[H])C([H])([H])[H])C([H])(C(=O)N([H])C2([H])c4c([H])c([H])c([H])c([H])c4C([H])([H])C([H])([H])C2([H])[H])C3([H])[H])C([H])([H])C1([H])[H]

$$$$
67:0:0
     RDKit          3D

 95103  0  0  1  0  0  0  0  0999 V2000
  -25.3330  -20.5750   19.5990 C   0  0  0  0  0  2  0  0  0  0  0  0
  -26.7130  -19.9690   19.9040 C   0  0  0  0  0  2  0  0  0  0  0  0
  -25.3050  -21.4660   18.3370 C   0  0  0  0  0  2  0  0  0  0  0  0
  -27.0430  -19.9030   17.3310 C   0  0  0  0  0  2  0  0  0  0  0  0
  -27.2690  -19.1880   18.6980 C   0  0  0  0  0  3  0  0  0  0  0  0
  -26.5770  -21.3700   17.4500 C   0  0  0  0  0  3  0  0  0  0  0  0
  -27.6790  -22.2210   17.9500 N   0  0  0  0  0  4  0  0  0  0  0  0
  -28.5190  -21.9270   17.4870 H   0  0  0  0  0  0  0  0  0  0  0  0
  -27.7870  -22.0380   18.9340 H   0  0  0  0  0  0  0  0  0  0  0  0
  -27.5360  -23.6740   17.7120 C   0  0  0  0  0  2  0  0  0  0  0  0
  -28.4490  -24.5090   18.6370 C   0  0  0  0  0  2  0  0  0  0  0  0
  -28.9740  -25.8250   18.0100 C   0  0  0  0  0  2  0  0  0  0  0  0
  -28.9030  -26.9460   18.8950 O   0  0  0  0  0  0  0  0  0  0  0  0
  -24.8970  -30.8690   23.2580 C   0  0  0  0  0  0  0  0  0  0  0  0
  -27.6890  -27.5780   19.0730 C   0  0  0  0  0  0  0  0  0  0  0  0
  -23.7280  -29.9180   21.2940 C   0  0  0  0  0  3  0  0  0  0  0  0
  -25.2280  -28.9020   19.5100 C   0  0  0  0  0  0  0  0  0  0  0  0
  -26.2330  -30.4340   21.2070 C   0  0  0  0  0  2  0  0  0  0  0  0
  -26.3690  -29.2950   20.2180 C   0  0  0  0  0  0  0  0  0  0  0  0
  -27.6000  -28.6320   20.0080 C   0  0  0  0  0  3  0  0  0  0  0  0
  -26.5220  -27.2120   18.3590 C   0  0  0  0  0  3  0  0  0  0  0  0
  -25.2970  -27.8550   18.5820 C   0  0  0  0  0  3  0  0  0  0  0  0
  -23.9510  -29.6570   19.7820 C   0  0  0  0  0  2  0  0  0  0  0  0
  -24.9710  -30.4070   21.9790 N   0  0  0  0  0  0  0  0  0  0  0  0
  -23.8100  -30.9340   23.8540 O   0  0  0  0  0  0  0  0  0  0  0  0
  -23.1410  -28.6410   21.9390 C   0  0  0  0  0  0  0  0  0  0  0  0
  -21.8880  -28.3200   21.5750 N   0  0  0  0  0  0  0  0  0  0  0  0
  -23.8130  -27.9540   22.7150 O   0  0  0  0  0  0  0  0  0  0  0  0
  -21.3990  -28.9330   20.9370 H   0  0  0  0  0  0  0  0  0  0  0  0
  -18.7940  -26.4980   21.1620 C   0  0  0  0  0  0  0  0  0  0  0  0
  -21.1450  -27.1410   22.0240 C   0  0  0  0  0  3  0  0  0  0  0  0
  -21.6440  -25.8670   21.3030 C   0  0  0  0  0  2  0  0  0  0  0  0
  -20.8440  -25.5330   20.0410 C   0  0  0  0  0  2  0  0  0  0  0  0
  -19.3680  -25.3320   20.3740 C   0  0  0  0  0  2  0  0  0  0  0  0
  -19.6300  -27.3610   21.9230 C   0  0  0  0  0  0  0  0  0  0  0  0
  -19.0440  -28.4460   22.6080 C   0  0  0  0  0  3  0  0  0  0  0  0
  -17.6570  -28.6770   22.5450 C   0  0  0  0  0  3  0  0  0  0  0  0
  -16.8350  -27.8130   21.8000 C   0  0  0  0  0  3  0  0  0  0  0  0
  -17.4040  -26.7240   21.1140 C   0  0  0  0  0  3  0  0  0  0  0  0
  -26.1620  -31.3650   24.0250 C   0  0  0  0  0  3  0  0  0  0  0  0
  -25.8710  -32.7150   24.5220 N   0  0  0  0  0  0  0  0  0  0  0  0
  -26.3150  -33.8450   23.9590 C   0  0  0  0  0  0  0  0  0  0  0  0
  -27.0830  -33.8550   22.9930 O   0  0  0  0  0  0  0  0  0  0  0  0
  -25.2000  -32.7820   25.2730 H   0  0  0  0  0  0  0  0  0  0  0  0
  -24.7130  -35.7640   23.6910 C   0  0  0  0  0  1  0  0  0  0  0  0
  -25.8280  -35.1750   24.5670 C   0  0  0  0  0  3  0  0  0  0  0  0
  -27.8750  -35.8120   25.7640 C   0  0  0  0  0  1  0  0  0  0  0  0
  -26.9060  -36.1720   24.7340 N   0  0  0  0  0  0  0  0  0  0  0  0
  -26.5220  -37.0840   24.9680 H   0  0  0  0  0  0  0  0  0  0  0  0
  -26.5860  -30.4100   25.2080 C   0  0  1  0  0  0  0  0  0  0  0  0
  -25.4300  -30.0780   26.1810 C   0  0  0  0  0  1  0  0  0  0  0  0
  -27.1480  -29.0770   24.6610 C   0  0  0  0  0  1  0  0  0  0  0  0
  -27.7240  -31.0650   26.0260 C   0  0  0  0  0  1  0  0  0  0  0  0
  -28.7380  -18.7490   18.9160 C   0  0  0  0  0  2  0  0  0  0  0  0
  -28.8520  -17.2180   19.0180 C   0  0  0  0  0  2  0  0  0  0  0  0
  -31.1160  -16.4520   18.1660 C   0  0  0  0  0  2  0  0  0  0  0  0
  -30.2660  -16.6560   19.2040 C   0  0  0  0  0  0  0  0  0  0  0  0
  -30.2830  -16.9020   21.6580 C   0  0  0  0  0  2  0  0  0  0  0  0
  -30.6930  -16.2530   20.5500 C   0  0  0  0  0  0  0  0  0  0  0  0
  -31.5870  -15.1020   20.6950 C   0  0  0  0  0  0  0  0  0  0  0  0
  -31.6200  -12.6410   20.5910 C   0  0  0  0  0  2  0  0  0  0  0  0
  -30.9360  -12.1720   19.2920 C   0  0  0  0  0  2  0  0  0  0  0  0
  -29.4170  -12.0190   19.4940 C   0  0  0  0  0  2  0  0  0  0  0  0
  -28.7780  -13.2640   20.1600 C   0  0  0  0  0  3  0  0  0  0  0  0
  -29.5910  -13.6930   21.3980 C   0  0  0  0  0  2  0  0  0  0  0  0
  -30.9920  -13.9100   20.9910 N   0  0  0  0  0  0  0  0  0  0  0  0
  -32.7850  -15.1860   20.4050 O   0  0  0  0  0  0  0  0  0  0  0  0
  -26.3240  -13.9310   20.5690 C   0  0  0  0  0  0  0  0  0  0  0  0
  -25.2080  -13.1910   20.8550 C   0  0  0  0  0  0  0  0  0  0  0  0
  -25.6470  -11.8360   20.9270 C   0  0  0  0  0  0  0  0  0  0  0  0
  -27.3750  -13.0300   20.5000 N   0  0  0  0  0  0  0  0  0  0  0  0
  -26.9620  -11.7660   20.7740 N   0  0  0  0  0  0  0  0  0  0  0  0
  -24.8800  -10.5930   21.0840 C   0  0  0  0  0  0  0  0  0  0  0  0
  -25.0360   -9.7690   22.2210 C   0  0  0  0  0  3  0  0  0  0  0  0
  -24.2750   -8.5880   22.3570 C   0  0  0  0  0  3  0  0  0  0  0  0
  -23.3450   -8.2250   21.3530 C   0  0  0  0  0  0  0  0  0  0  0  0
  -23.2090   -9.0400   20.2170 C   0  0  0  0  0  3  0  0  0  0  0  0
  -23.9710  -10.2110   20.0790 C   0  0  0  0  0  3  0  0  0  0  0  0
  -22.5790   -7.0850   21.3860 O   0  0  0  0  0  0  0  0  0  0  0  0
  -22.0700   -6.5960   22.5620 C   0  0  0  0  0  0  0  0  0  0  0  0
  -21.1770   -7.3470   23.3580 C   0  0  0  0  0  3  0  0  0  0  0  0
  -20.6200   -6.7760   24.5210 C   0  0  0  0  0  3  0  0  0  0  0  0
  -20.9500   -5.4570   24.8860 C   0  0  0  0  0  0  0  0  0  0  0  0
  -21.8370   -4.7080   24.0920 C   0  0  0  0  0  3  0  0  0  0  0  0
  -22.3920   -5.2750   22.9330 C   0  0  0  0  0  0  0  0  0  0  0  0
  -23.2270   -4.5390   22.1600 F   0  0  0  0  0  0  0  0  0  0  0  0
  -20.4110   -4.9080   26.0000 F   0  0  0  0  0  0  0  0  0  0  0  0
  -23.8000  -13.7000   20.9490 C   0  0  0  0  0  0  0  0  0  0  0  0
  -22.9750  -13.0710   21.7790 N   0  0  0  0  0  0  0  0  0  0  0  0
  -23.4320  -14.6950   20.3260 O   0  0  0  0  0  0  0  0  0  0  0  0
  -23.2770  -12.2630   22.3040 H   0  0  0  0  0  0  0  0  0  0  0  0
  -22.0260  -13.3980   21.8810 H   0  0  0  0  0  0  0  0  0  0  0  0
  -26.5110  -15.2870   20.3470 N   0  0  0  0  0  0  0  0  0  0  0  0
  -25.7400  -15.9450   20.3830 H   0  0  0  0  0  0  0  0  0  0  0  0
  -27.4060  -15.7250   20.1730 H   0  0  0  0  0  0  0  0  0  0  0  0
  1  2  1  0
  3  1  1  0
  4  6  1  0
  4  5  1  0
  5 54  1  0
  5  2  1  0
  6  7  1  0
  6  3  1  0
  7  9  1  0
  8  7  1  0
 10  7  1  0
 10 11  1  0
 12 11  1  0
 12 13  1  0
 13 15  1  0
 14 25  2  0
 15 20  1  0
 16 26  1  0
 16 24  1  0
 17 23  1  0
 17 19  1  0
 18 24  1  0
 19 18  1  0
 20 19  2  0
 21 22  1  0
 21 15  2  0
 22 17  2  0
 23 16  1  0
 24 14  1  0
 26 28  2  0
 27 26  1  0
 29 27  1  0
 30 35  1  0
 31 27  1  0
 32 31  1  0
 33 34  1  0
 33 32  1  0
 34 30  1  0
 35 31  1  0
 35 36  2  0
 37 36  1  0
 38 37  2  0
 39 30  2  0
 39 38  1  0
 40 14  1  0
 40 41  1  0
 40 50  1  0
 41 44  1  0
 42 41  1  0
 42 46  1  0
 43 42  2  0
 46 45  1  0
 46 48  1  0
 48 49  1  0
 48 47  1  0
 50 53  1  1
 50 51  1  0
 52 50  1  0
 54 55  1  0
 55 57  1  0
 56 57  2  0
 57 59  1  0
 59 60  1  0
 59 58  2  0
 60 66  1  0
 61 66  1  0
 62 63  1  0
 62 61  1  0
 64 63  1  0
 64 71  1  0
 64 65  1  0
 66 65  1  0
 67 60  2  0
 68 69  2  0
 69 70  1  0
 69 88  1  0
 70 73  1  0
 71 68  1  0
 71 72  1  0
 72 70  2  0
 73 74  1  0
 74 75  2  0
 76 79  1  0
 76 75  1  0
 77 76  2  0
 78 77  1  0
 78 73  2  0
 79 80  1  0
 80 85  2  0
 80 81  1  0
 81 82  2  0
 82 83  1  0
 83 87  1  0
 84 83  2  0
 85 84  1  0
 86 85  1  0
 88 89  1  0
 89 92  1  0
 89 91  1  0
 90 88  2  0
 93 94  1  0
 93 68  1  0
 95 93  1  0
M  ISO  4  12 101  13 101  59 100  60 100
M  END
>  <TORSDO>  (68) 
F 24

>  <SCORE>  (68) 
-6.236

>  <name>  (68) 
67

>  <ligand_id>  (68) 
67

>  <original_smiles>  (68) 
[H]C([H])=C(C(=O)N1C([H])([H])C([H])([H])C([H])([H])C([H])(n2nc(-c3c([H])c([H])c(Oc4c([H])c([H])c(F)c([H])c4F)c([H])c3[H])c(C(=O)N([H])[H])c2N([H])[H])C1([H])[H])C(=C([H])[H])C([H])([H])C([H])([H])C1([H])C([H])([H])C([H])([H])C([H])([H])C([H])([N+]([H])([H])C([H])([H])C([H])([H])C([H])([H])Oc2c([H])c([H])c3c(c2[H])C([H])([H])N(C(=O)C([H])(N([H])C(=O)C([H])(N([H])C([H])([H])[H])C([H])([H])[H])C(C([H])([H])[H])(C([H])([H])[H])C([H])([H])[H])C([H])(C(=O)N([H])C2([H])c4c([H])c([H])c([H])c([H])c4C([H])([H])C([H])([H])C2([H])[H])C3([H])[H])C1([H])[H]

>  <smiles>  (68) 
[H]C([H])=C(C(=O)N1C([H])([H])C([H])([H])C([H])([H])C([H])(n2nc(-c3c([H])c([H])c(Oc4c([H])c([H])c(F)c([H])c4F)c([H])c3[H])c(C(=O)N([H])[H])c2N([H])[H])C1([H])[H])C(=C([H])[H])C([H])([H])C([H])([H])C1([H])C([H])([H])C([H])([H])C([H])([H])C([H])([N+]([H])([H])C([H])([H])C([H])([H])C([H])([H])Oc2c([H])c([H])c3c(c2[H])C([H])([H])N(C(=O)C([H])(N([H])C(=O)C([H])(N([H])C([H])([H])[H])C([H])([H])[H])C(C([H])([H])[H])(C([H])([H])[H])C([H])([H])[H])C([H])(C(=O)N([H])C2([H])c4c([H])c([H])c([H])c([H])c4C([H])([H])C([H])([H])C2([H])[H])C3([H])[H])C1([H])[H]

$$$$
68:0:0
     RDKit          3D

 90 98  0  0  1  0  0  0  0  0999 V2000
  -28.5530  -19.3940   19.5240 C   0  0  0  0  0  3  0  0  0  0  0  0
  -28.5030  -20.6780   19.1210 C   0  0  0  0  0  3  0  0  0  0  0  0
  -30.2330  -19.0610   21.4750 C   0  0  0  0  0  2  0  0  0  0  0  0
  -28.8230  -18.9700   20.9290 C   0  0  0  0  0  3  0  0  0  0  0  0
  -29.5730  -17.7080   21.3430 C   0  0  0  0  0  3  0  0  0  0  0  0
  -31.1320  -16.2600   20.2990 C   0  0  0  0  0  0  0  0  0  0  0  0
  -32.0870  -16.3210   21.4890 C   0  0  0  0  0  1  0  0  0  0  0  0
  -30.0340  -16.9100   20.2260 N   0  0  0  0  0  0  0  0  0  0  0  0
  -31.5240  -15.4130   19.0900 C   0  0  0  0  0  2  0  0  0  0  0  0
  -32.2160  -14.0410   19.2810 C   0  0  0  0  0  0  0  0  0  0  0  0
  -31.7480  -11.6790   18.8170 C   0  0  0  0  0  2  0  0  0  0  0  0
  -30.7170  -11.6300   17.6680 C   0  0  0  0  0  2  0  0  0  0  0  0
  -29.2780  -11.6950   18.2210 C   0  0  0  0  0  2  0  0  0  0  0  0
  -29.0800  -12.8440   19.2450 C   0  0  0  0  0  3  0  0  0  0  0  0
  -30.2190  -12.8540   20.2820 C   0  0  0  0  0  2  0  0  0  0  0  0
  -31.5010  -12.9180   19.5690 N   0  0  0  0  0  0  0  0  0  0  0  0
  -33.3700  -13.9770   18.8490 O   0  0  0  0  0  0  0  0  0  0  0  0
  -26.9460  -13.8080   20.3100 C   0  0  0  0  0  0  0  0  0  0  0  0
  -25.8040  -13.2090   20.7690 C   0  0  0  0  0  0  0  0  0  0  0  0
  -25.9980  -11.8040   20.6010 C   0  0  0  0  0  0  0  0  0  0  0  0
  -27.7720  -12.7750   19.8900 N   0  0  0  0  0  0  0  0  0  0  0  0
  -27.2120  -11.5620   20.1230 N   0  0  0  0  0  0  0  0  0  0  0  0
  -25.0770  -10.6800   20.8110 C   0  0  0  0  0  0  0  0  0  0  0  0
  -25.3140   -9.7080   21.8080 C   0  0  0  0  0  3  0  0  0  0  0  0
  -24.4030   -8.6460   22.0010 C   0  0  0  0  0  3  0  0  0  0  0  0
  -23.2420   -8.5520   21.1990 C   0  0  0  0  0  0  0  0  0  0  0  0
  -23.0230   -9.5100   20.1920 C   0  0  0  0  0  3  0  0  0  0  0  0
  -23.9330  -10.5620   19.9970 C   0  0  0  0  0  3  0  0  0  0  0  0
  -22.3150   -7.5420   21.2990 O   0  0  0  0  0  0  0  0  0  0  0  0
  -21.9720   -7.0000   22.5110 C   0  0  0  0  0  0  0  0  0  0  0  0
  -21.4290   -7.7850   23.5520 C   0  0  0  0  0  3  0  0  0  0  0  0
  -21.0220   -7.1740   24.7550 C   0  0  0  0  0  3  0  0  0  0  0  0
  -21.1490   -5.7810   24.9160 C   0  0  0  0  0  0  0  0  0  0  0  0
  -21.6850   -4.9980   23.8800 C   0  0  0  0  0  3  0  0  0  0  0  0
  -22.0920   -5.6060   22.6780 C   0  0  0  0  0  0  0  0  0  0  0  0
  -22.5880   -4.8430   21.6740 F   0  0  0  0  0  0  0  0  0  0  0  0
  -20.7510   -5.1930   26.0680 F   0  0  0  0  0  0  0  0  0  0  0  0
  -24.5650  -13.9020   21.2580 C   0  0  0  0  0  0  0  0  0  0  0  0
  -23.8670  -13.3040   22.2180 N   0  0  0  0  0  0  0  0  0  0  0  0
  -24.2350  -15.0060   20.8240 O   0  0  0  0  0  0  0  0  0  0  0  0
  -24.1510  -12.4080   22.5870 H   0  0  0  0  0  0  0  0  0  0  0  0
  -23.0410  -13.7500   22.5900 H   0  0  0  0  0  0  0  0  0  0  0  0
  -27.3430  -15.1360   20.1990 N   0  0  0  0  0  0  0  0  0  0  0  0
  -26.7490  -15.9060   20.4790 H   0  0  0  0  0  0  0  0  0  0  0  0
  -28.2750  -15.4350   19.9370 H   0  0  0  0  0  0  0  0  0  0  0  0
  -28.2150  -21.1420   17.7010 C   0  0  0  0  0  2  0  0  0  0  0  0
  -29.2290  -22.1970   17.1940 C   0  0  0  0  0  2  0  0  0  0  0  0
  -28.8800  -23.6770   17.4990 C   0  0  0  0  0  2  0  0  0  0  0  0
  -28.7770  -24.5680   16.2380 C   0  0  0  0  0  2  0  0  0  0  0  0
  -28.5780  -25.9490   16.5630 O   0  0  0  0  0  0  0  0  0  0  0  0
  -25.2340  -28.6380   22.2190 C   0  0  0  0  0  0  0  0  0  0  0  0
  -27.3670  -26.3790   17.0670 C   0  0  0  0  0  0  0  0  0  0  0  0
  -23.7730  -27.9100   20.3620 C   0  0  0  0  0  3  0  0  0  0  0  0
  -24.9540  -27.3590   18.1710 C   0  0  0  0  0  0  0  0  0  0  0  0
  -26.1670  -28.6900   19.9050 C   0  0  0  0  0  2  0  0  0  0  0  0
  -26.1820  -27.7480   18.7200 C   0  0  0  0  0  0  0  0  0  0  0  0
  -27.3870  -27.2650   18.1670 C   0  0  0  0  0  3  0  0  0  0  0  0
  -26.1180  -25.9900   16.5300 C   0  0  0  0  0  3  0  0  0  0  0  0
  -24.9160  -26.4780   17.0780 C   0  0  0  0  0  3  0  0  0  0  0  0
  -23.7060  -27.9210   18.8110 C   0  0  0  0  0  2  0  0  0  0  0  0
  -25.0890  -28.4030   20.8840 N   0  0  0  0  0  0  0  0  0  0  0  0
  -24.2870  -28.4890   23.0020 O   0  0  0  0  0  0  0  0  0  0  0  0
  -23.4080  -26.4940   20.8590 C   0  0  0  0  0  0  0  0  0  0  0  0
  -22.1330  -26.1090   20.6820 N   0  0  0  0  0  0  0  0  0  0  0  0
  -24.2630  -25.7600   21.3620 O   0  0  0  0  0  0  0  0  0  0  0  0
  -21.4920  -26.7700   20.2660 H   0  0  0  0  0  0  0  0  0  0  0  0
  -19.1590  -24.0680   20.4790 C   0  0  0  0  0  0  0  0  0  0  0  0
  -21.5720  -24.8050   21.0390 C   0  0  0  0  0  3  0  0  0  0  0  0
  -22.0280  -23.7100   20.0480 C   0  0  0  0  0  2  0  0  0  0  0  0
  -21.0470  -23.4920   18.8930 C   0  0  0  0  0  2  0  0  0  0  0  0
  -19.6680  -23.0950   19.4280 C   0  0  0  0  0  2  0  0  0  0  0  0
  -20.0530  -24.8800   21.2240 C   0  0  0  0  0  0  0  0  0  0  0  0
  -19.5280  -25.7900   22.1680 C   0  0  0  0  0  3  0  0  0  0  0  0
  -18.1390  -25.8930   22.3730 C   0  0  0  0  0  3  0  0  0  0  0  0
  -17.2600  -25.0760   21.6400 C   0  0  0  0  0  3  0  0  0  0  0  0
  -17.7700  -24.1640   20.7000 C   0  0  0  0  0  3  0  0  0  0  0  0
  -26.5890  -29.1240   22.8220 C   0  0  0  0  0  3  0  0  0  0  0  0
  -26.2920  -30.2230   23.7490 N   0  0  0  0  0  0  0  0  0  0  0  0
  -26.4660  -31.5220   23.4670 C   0  0  0  0  0  0  0  0  0  0  0  0
  -26.9680  -31.9160   22.4100 O   0  0  0  0  0  0  0  0  0  0  0  0
  -25.8240  -29.9770   24.6100 H   0  0  0  0  0  0  0  0  0  0  0  0
  -24.6670  -33.1590   24.1030 C   0  0  0  0  0  1  0  0  0  0  0  0
  -26.0120  -32.5450   24.5250 C   0  0  0  0  0  3  0  0  0  0  0  0
  -28.2110  -33.1530   25.4300 C   0  0  0  0  0  1  0  0  0  0  0  0
  -26.9980  -33.6210   24.7650 N   0  0  0  0  0  0  0  0  0  0  0  0
  -26.5940  -34.3640   25.3290 H   0  0  0  0  0  0  0  0  0  0  0  0
  -27.3920  -27.9770   23.5530 C   0  0  1  0  0  0  0  0  0  0  0  0
  -26.5490  -27.1810   24.5750 C   0  0  0  0  0  1  0  0  0  0  0  0
  -27.9600  -26.9730   22.5240 C   0  0  0  0  0  1  0  0  0  0  0  0
  -28.6070  -28.5820   24.2960 C   0  0  0  0  0  1  0  0  0  0  0  0
  2  1  2  0
  4  1  1  0
  4  5  1  0
  4  3  1  0
  5  8  1  0
  5  3  1  0
  6  7  1  0
  8  6  2  0
  9 10  1  0
  9  6  1  0
 10 16  1  0
 11 16  1  0
 12 13  1  0
 12 11  1  0
 14 13  1  0
 14 21  1  0
 14 15  1  0
 16 15  1  0
 17 10  2  0
 18 19  2  0
 19 38  1  0
 20 19  1  0
 20 23  1  0
 21 22  1  0
 21 18  1  0
 22 20  2  0
 23 24  1  0
 24 25  2  0
 26 29  1  0
 26 25  1  0
 27 26  2  0
 28 27  1  0
 28 23  2  0
 29 30  1  0
 30 35  2  0
 30 31  1  0
 31 32  2  0
 32 33  1  0
 33 37  1  0
 34 33  2  0
 35 34  1  0
 36 35  1  0
 38 39  1  0
 39 41  1  0
 39 42  1  0
 40 38  2  0
 43 18  1  0
 43 44  1  0
 45 43  1  0
 46  2  1  0
 47 48  1  0
 47 46  1  0
 49 50  1  0
 49 48  1  0
 50 52  1  0
 51 62  2  0
 52 57  1  0
 53 63  1  0
 53 61  1  0
 54 56  1  0
 54 60  1  0
 55 61  1  0
 56 55  1  0
 57 56  2  0
 58 52  2  0
 58 59  1  0
 59 54  2  0
 60 53  1  0
 61 51  1  0
 63 65  2  0
 64 63  1  0
 66 64  1  0
 67 76  2  0
 67 72  1  0
 68 64  1  0
 68 72  1  0
 69 68  1  0
 70 71  1  0
 70 69  1  0
 71 67  1  0
 72 73  2  0
 73 74  1  0
 75 74  2  0
 76 75  1  0
 77 51  1  0
 77 87  1  0
 77 78  1  0
 78 81  1  0
 79 78  1  0
 79 83  1  0
 80 79  2  0
 83 82  1  0
 83 85  1  0
 85 86  1  0
 85 84  1  0
 87 90  1  1
 87 88  1  0
 89 87  1  0
M  ISO  4   9 100  10 100  49 101  50 101
M  END
>  <TORSDO>  (69) 
F 23

>  <SCORE>  (69) 
-6.550

>  <name>  (69) 
68

>  <ligand_id>  (69) 
68

>  <original_smiles>  (69) 
[H]C(=C([H])C1([H])C([H])([H])C1([H])N=C(C([H])([H])[H])C([H])([H])C(=O)N1C([H])([H])C([H])([H])C([H])([H])C([H])(n2nc(-c3c([H])c([H])c(Oc4c([H])c([H])c(F)c([H])c4F)c([H])c3[H])c(C(=O)N([H])[H])c2N([H])[H])C1([H])[H])C([H])([H])C([H])([H])C([H])([H])C([H])([H])Oc1c([H])c([H])c2c(c1[H])C([H])([H])N(C(=O)C([H])(N([H])C(=O)C([H])(N([H])C([H])([H])[H])C([H])([H])[H])C(C([H])([H])[H])(C([H])([H])[H])C([H])([H])[H])C([H])(C(=O)N([H])C1([H])c3c([H])c([H])c([H])c([H])c3C([H])([H])C([H])([H])C1([H])[H])C2([H])[H]

>  <smiles>  (69) 
[H]C(=C([H])C1([H])C([H])([H])C1([H])N=C(C([H])([H])[H])C([H])([H])C(=O)N1C([H])([H])C([H])([H])C([H])([H])C([H])(n2nc(-c3c([H])c([H])c(Oc4c([H])c([H])c(F)c([H])c4F)c([H])c3[H])c(C(=O)N([H])[H])c2N([H])[H])C1([H])[H])C([H])([H])C([H])([H])C([H])([H])C([H])([H])Oc1c([H])c([H])c2c(c1[H])C([H])([H])N(C(=O)C([H])(N([H])C(=O)C([H])(N([H])C([H])([H])[H])C([H])([H])[H])C(C([H])([H])[H])(C([H])([H])[H])C([H])([H])[H])C([H])(C(=O)N([H])C1([H])c3c([H])c([H])c([H])c([H])c3C([H])([H])C([H])([H])C1([H])[H])C2([H])[H]

$$$$
69:0:0
     RDKit          3D

 84 91  0  0  1  0  0  0  0  0999 V2000
  -28.9710  -22.8010   20.2220 C   0  0  0  0  0  3  0  0  0  0  0  0
  -28.6640  -19.8520   20.1350 C   0  0  0  0  0  0  0  0  0  0  0  0
  -27.3430  -19.1120   20.0310 C   0  0  0  0  0  1  0  0  0  0  0  0
  -28.4060  -21.2500   20.1420 N   0  0  0  0  0  0  0  0  0  0  0  0
  -29.8370  -18.5340   20.1800 C   0  0  0  0  0  3  0  0  0  0  0  0
  -29.5080  -16.7730   20.3550 C   0  0  0  0  0  3  0  0  0  0  0  0
  -30.4190  -15.2860   20.1980 C   0  0  0  0  0  0  0  0  0  0  0  0
  -30.4560  -12.8250   19.3710 C   0  0  0  0  0  2  0  0  0  0  0  0
  -29.5260  -12.6220   18.1460 C   0  0  0  0  0  2  0  0  0  0  0  0
  -28.0750  -12.3570   18.5870 C   0  0  0  0  0  2  0  0  0  0  0  0
  -27.6270  -13.3240   19.7090 C   0  0  0  0  0  3  0  0  0  0  0  0
  -28.6780  -13.4650   20.8280 C   0  0  0  0  0  2  0  0  0  0  0  0
  -29.9170  -13.9560   20.2080 N   0  0  0  0  0  0  0  0  0  0  0  0
  -31.6270  -15.3320   19.9250 O   0  0  0  0  0  0  0  0  0  0  0  0
  -25.2630  -13.8800   20.4920 C   0  0  0  0  0  0  0  0  0  0  0  0
  -24.2030  -13.0990   20.8630 C   0  0  0  0  0  0  0  0  0  0  0  0
  -24.6680  -11.7500   20.8160 C   0  0  0  0  0  0  0  0  0  0  0  0
  -26.3020  -13.0060   20.2270 N   0  0  0  0  0  0  0  0  0  0  0  0
  -25.9570  -11.7180   20.4900 N   0  0  0  0  0  0  0  0  0  0  0  0
  -23.9420  -10.4860   21.0010 C   0  0  0  0  0  0  0  0  0  0  0  0
  -24.3600   -9.5230   21.9450 C   0  0  0  0  0  3  0  0  0  0  0  0
  -23.6310   -8.3260   22.1190 C   0  0  0  0  0  3  0  0  0  0  0  0
  -22.4700   -8.0840   21.3480 C   0  0  0  0  0  0  0  0  0  0  0  0
  -22.0700   -9.0360   20.3930 C   0  0  0  0  0  3  0  0  0  0  0  0
  -22.8000  -10.2230   20.2170 C   0  0  0  0  0  3  0  0  0  0  0  0
  -21.7140   -6.9390   21.4300 O   0  0  0  0  0  0  0  0  0  0  0  0
  -21.6200   -6.2200   22.5950 C   0  0  0  0  0  0  0  0  0  0  0  0
  -21.1260   -6.7940   23.7860 C   0  0  0  0  0  3  0  0  0  0  0  0
  -20.9800   -6.0010   24.9420 C   0  0  0  0  0  3  0  0  0  0  0  0
  -21.3180   -4.6360   24.9070 C   0  0  0  0  0  0  0  0  0  0  0  0
  -21.8050   -4.0610   23.7200 C   0  0  0  0  0  3  0  0  0  0  0  0
  -21.9520   -4.8510   22.5660 C   0  0  0  0  0  0  0  0  0  0  0  0
  -22.4010   -4.2870   21.4190 F   0  0  0  0  0  0  0  0  0  0  0  0
  -21.1710   -3.8720   26.0150 F   0  0  0  0  0  0  0  0  0  0  0  0
  -22.8090  -13.5750   21.1490 C   0  0  0  0  0  0  0  0  0  0  0  0
  -22.0900  -12.8780   22.0220 N   0  0  0  0  0  0  0  0  0  0  0  0
  -22.3650  -14.6020   20.6340 O   0  0  0  0  0  0  0  0  0  0  0  0
  -22.4610  -12.0490   22.4600 H   0  0  0  0  0  0  0  0  0  0  0  0
  -21.1550  -13.1800   22.2580 H   0  0  0  0  0  0  0  0  0  0  0  0
  -25.4240  -15.2520   20.3290 N   0  0  0  0  0  0  0  0  0  0  0  0
  -24.6600  -15.9060   20.4620 H   0  0  0  0  0  0  0  0  0  0  0  0
  -26.2740  -15.6950   20.0040 H   0  0  0  0  0  0  0  0  0  0  0  0
  -27.9610  -24.2910   20.1380 C   0  0  0  0  0  3  0  0  0  0  0  0
  -28.2200  -25.9110   20.2680 O   0  0  0  0  0  0  0  0  0  0  0  0
  -24.6480  -31.8520   23.2400 C   0  0  0  0  0  0  0  0  0  0  0  0
  -27.2020  -26.9950   20.2160 C   0  0  0  0  0  0  0  0  0  0  0  0
  -23.4560  -30.4680   21.5900 C   0  0  0  0  0  3  0  0  0  0  0  0
  -24.9050  -28.8670   20.1680 C   0  0  0  0  0  0  0  0  0  0  0  0
  -26.0220  -30.6770   21.4540 C   0  0  0  0  0  2  0  0  0  0  0  0
  -26.0910  -29.2720   20.7920 C   0  0  0  0  0  0  0  0  0  0  0  0
  -27.2370  -28.3580   20.7890 C   0  0  0  0  0  3  0  0  0  0  0  0
  -25.9840  -26.7360   19.5500 C   0  0  0  0  0  3  0  0  0  0  0  0
  -24.8740  -27.6190   19.5280 C   0  0  0  0  0  3  0  0  0  0  0  0
  -23.6890  -29.7900   20.2120 C   0  0  0  0  0  2  0  0  0  0  0  0
  -24.7300  -31.0250   22.1480 N   0  0  0  0  0  0  0  0  0  0  0  0
  -23.5570  -32.1420   23.7570 O   0  0  0  0  0  0  0  0  0  0  0  0
  -22.7550  -29.4700   22.5480 C   0  0  0  0  0  0  0  0  0  0  0  0
  -21.4250  -29.3120   22.4180 N   0  0  0  0  0  0  0  0  0  0  0  0
  -23.4140  -28.8370   23.3770 O   0  0  0  0  0  0  0  0  0  0  0  0
  -20.9460  -29.8720   21.7280 H   0  0  0  0  0  0  0  0  0  0  0  0
  -18.0330  -28.1220   22.9150 C   0  0  0  0  0  0  0  0  0  0  0  0
  -20.5940  -28.3750   23.1820 C   0  0  0  0  0  3  0  0  0  0  0  0
  -20.6880  -26.9450   22.6000 C   0  0  0  0  0  2  0  0  0  0  0  0
  -19.5860  -26.6340   21.5820 C   0  0  0  0  0  2  0  0  0  0  0  0
  -18.2050  -26.7780   22.2260 C   0  0  0  0  0  2  0  0  0  0  0  0
  -19.1550  -28.8790   23.3480 C   0  0  0  0  0  0  0  0  0  0  0  0
  -18.9380  -30.1350   23.9560 C   0  0  0  0  0  3  0  0  0  0  0  0
  -17.6340  -30.6350   24.1290 C   0  0  0  0  0  3  0  0  0  0  0  0
  -16.5280  -29.8770   23.7100 C   0  0  0  0  0  3  0  0  0  0  0  0
  -16.7280  -28.6220   23.1080 C   0  0  0  0  0  3  0  0  0  0  0  0
  -25.9180  -32.4870   23.8810 C   0  0  0  0  0  3  0  0  0  0  0  0
  -26.4090  -31.7230   25.1730 C   0  0  1  0  0  0  0  0  0  0  0  0
  -25.2980  -31.5010   26.2260 C   0  0  0  0  0  1  0  0  0  0  0  0
  -26.9880  -30.3370   24.8080 C   0  0  0  0  0  1  0  0  0  0  0  0
  -27.5550  -32.5150   25.8460 C   0  0  0  0  0  1  0  0  0  0  0  0
  -25.6060  -33.8900   24.2110 N   0  0  0  0  0  0  0  0  0  0  0  0
  -25.9220  -34.9460   23.4500 C   0  0  0  0  0  0  0  0  0  0  0  0
  -26.5690  -34.8440   22.4060 O   0  0  0  0  0  0  0  0  0  0  0  0
  -25.0280  -34.0420   25.0240 H   0  0  0  0  0  0  0  0  0  0  0  0
  -24.1700  -36.7330   23.1650 C   0  0  0  0  0  1  0  0  0  0  0  0
  -25.4490  -36.3370   23.9220 C   0  0  0  0  0  3  0  0  0  0  0  0
  -27.6090  -37.2440   24.6590 C   0  0  0  0  0  1  0  0  0  0  0  0
  -26.4690  -37.3960   23.7590 N   0  0  0  0  0  0  0  0  0  0  0  0
  -26.0630  -38.3150   23.9150 H   0  0  0  0  0  0  0  0  0  0  0  0
  2  4  2  0
  2  5  1  0
  3  2  1  0
  4  1  1  0
  5  6  2  0
  7 13  1  0
  7  6  1  0
  8 13  1  0
  9 10  1  0
  9  8  1  0
 11 10  1  0
 11 18  1  0
 11 12  1  0
 13 12  1  0
 14  7  2  0
 15 16  2  0
 16 35  1  0
 17 16  1  0
 17 20  1  0
 18 19  1  0
 18 15  1  0
 19 17  2  0
 20 21  1  0
 21 22  2  0
 23 26  1  0
 23 22  1  0
 24 23  2  0
 25 24  1  0
 25 20  2  0
 26 27  1  0
 27 28  1  0
 28 29  2  0
 30 29  1  0
 30 34  1  0
 31 30  2  0
 32 27  2  0
 32 31  1  0
 33 32  1  0
 35 36  1  0
 36 39  1  0
 36 38  1  0
 37 35  2  0
 40 41  1  0
 40 15  1  0
 42 40  1  0
 43  1  2  0
 43 44  1  0
 45 56  2  0
 46 44  1  0
 46 51  1  0
 47 55  1  0
 47 57  1  0
 48 54  1  0
 48 50  1  0
 49 55  1  0
 50 49  1  0
 51 50  2  0
 52 46  2  0
 53 52  1  0
 53 48  2  0
 54 47  1  0
 55 45  1  0
 57 59  2  0
 58 57  1  0
 60 58  1  0
 61 70  2  0
 61 66  1  0
 62 58  1  0
 62 66  1  0
 63 62  1  0
 64 65  1  0
 64 63  1  0
 65 61  1  0
 66 67  2  0
 67 68  1  0
 69 68  2  0
 70 69  1  0
 71 45  1  0
 71 76  1  0
 71 72  1  0
 72 75  1  1
 72 73  1  0
 74 72  1  0
 76 79  1  0
 77 81  1  0
 77 76  1  0
 78 77  2  0
 81 80  1  0
 83 84  1  0
 83 81  1  0
 83 82  1  0
M  ISO  4   6 100   7 100  43 101  44 101
M  END
>  <TORSDO>  (70) 
F 20

>  <SCORE>  (70) 
-15.521

>  <name>  (70) 
69

>  <ligand_id>  (70) 
69

>  <original_smiles>  (70) 
[H]c1c([H])c([H])c2c(c1[H])C([H])([H])C([H])([H])C([H])([H])C2([H])N([H])C(=O)C1([H])N(C(=O)C([H])(N([H])C(=O)C([H])(N([H])C([H])([H])[H])C([H])([H])[H])C(C([H])([H])[H])(C([H])([H])[H])C([H])([H])[H])C([H])([H])c2c([H])c(OC([H])([H])C([H])([H])N=C(C([H])([H])[H])C([H])([H])C([H])([H])C(=O)N3C([H])([H])C([H])([H])C([H])([H])C([H])(n4nc(-c5c([H])c([H])c(Oc6c([H])c([H])c(F)c([H])c6F)c([H])c5[H])c(C(=O)N([H])[H])c4N([H])[H])C3([H])[H])c([H])c([H])c2C1([H])[H]

>  <smiles>  (70) 
[H]c1c([H])c([H])c2c(c1[H])C([H])([H])C([H])([H])C([H])([H])C2([H])N([H])C(=O)C1([H])N(C(=O)C([H])(N([H])C(=O)C([H])(N([H])C([H])([H])[H])C([H])([H])[H])C(C([H])([H])[H])(C([H])([H])[H])C([H])([H])[H])C([H])([H])c2c([H])c(OC([H])([H])C([H])([H])N=C(C([H])([H])[H])C([H])([H])C([H])([H])C(=O)N3C([H])([H])C([H])([H])C([H])([H])C([H])(n4nc(-c5c([H])c([H])c(Oc6c([H])c([H])c(F)c([H])c6F)c([H])c5[H])c(C(=O)N([H])[H])c4N([H])[H])C3([H])[H])c([H])c([H])c2C1([H])[H]

$$$$
70:0:0
     RDKit          3D

 98108  0  0  1  0  0  0  0  0999 V2000
  -29.7920  -21.5490   20.1940 C   0  0  0  0  0  3  0  0  0  0  0  0
  -31.0650  -21.8690   20.9630 C   0  0  0  0  0  2  0  0  0  0  0  0
  -28.1240  -18.7110   18.3860 C   0  0  0  0  0  2  0  0  0  0  0  0
  -28.7730  -17.3610   18.7350 C   0  0  0  0  0  2  0  0  0  0  0  0
  -29.1700  -19.8300   18.2560 C   0  0  0  0  0  2  0  0  0  0  0  0
  -32.8820  -20.0210   21.1970 C   0  0  0  0  0  2  0  0  0  0  0  0
  -31.4740  -20.4220   19.0490 C   0  0  0  0  0  2  0  0  0  0  0  0
  -32.1620  -21.0420   20.2790 C   0  0  0  0  0  3  0  0  0  0  0  0
  -29.3320  -17.3860   20.1640 C   0  0  0  0  0  3  0  0  0  0  0  0
  -30.3020  -18.6530   20.3500 C   0  0  0  0  0  3  0  0  0  0  0  0
  -32.0650  -19.0480   22.1120 C   0  0  0  0  0  3  0  0  0  0  0  0
  -30.0440  -20.0770   19.5230 C   0  0  1  0  0  0  0  0  0  0  0  0
  -32.2190  -19.4000   23.6020 C   0  0  0  0  0  1  0  0  0  0  0  0
  -28.8790  -22.4710   19.9220 N   0  0  0  0  0  2  0  0  0  0  0  0
  -30.6280  -18.8650   21.7730 N   0  0  0  0  0  4  0  0  0  0  0  0
  -30.3140  -18.0410   22.2610 H   0  0  0  0  0  0  0  0  0  0  0  0
  -30.0760  -19.6300   22.1220 H   0  0  0  0  0  0  0  0  0  0  0  0
  -30.4910  -14.9240   20.2750 C   0  0  0  0  0  0  0  0  0  0  0  0
  -30.3640  -12.6310   19.2840 C   0  0  0  0  0  2  0  0  0  0  0  0
  -29.4050  -12.6970   18.0700 C   0  0  0  0  0  2  0  0  0  0  0  0
  -27.9430  -12.5020   18.5170 C   0  0  0  0  0  2  0  0  0  0  0  0
  -27.5740  -13.3770   19.7420 C   0  0  0  0  0  3  0  0  0  0  0  0
  -28.6460  -13.2780   20.8530 C   0  0  0  0  0  2  0  0  0  0  0  0
  -29.9370  -13.6620   20.2590 N   0  0  0  0  0  0  0  0  0  0  0  0
  -31.6190  -15.1210   19.8160 O   0  0  0  0  0  0  0  0  0  0  0  0
  -29.6530  -15.9590   20.6510 N   0  0  0  0  0  0  0  0  0  0  0  0
  -28.8640  -15.5690   21.1470 H   0  0  0  0  0  0  0  0  0  0  0  0
  -25.1840  -13.9510   20.4850 C   0  0  0  0  0  0  0  0  0  0  0  0
  -24.1300  -13.1680   20.8660 C   0  0  0  0  0  0  0  0  0  0  0  0
  -24.6050  -11.8210   20.8310 C   0  0  0  0  0  0  0  0  0  0  0  0
  -26.2350  -13.0820   20.2410 N   0  0  0  0  0  0  0  0  0  0  0  0
  -25.8930  -11.7950   20.5090 N   0  0  0  0  0  0  0  0  0  0  0  0
  -23.8930  -10.5520   21.0290 C   0  0  0  0  0  0  0  0  0  0  0  0
  -24.3430   -9.5910   21.9620 C   0  0  0  0  0  3  0  0  0  0  0  0
  -23.6310   -8.3870   22.1490 C   0  0  0  0  0  3  0  0  0  0  0  0
  -22.4550   -8.1350   21.4040 C   0  0  0  0  0  0  0  0  0  0  0  0
  -22.0250   -9.0840   20.4590 C   0  0  0  0  0  3  0  0  0  0  0  0
  -22.7380  -10.2800   20.2720 C   0  0  0  0  0  3  0  0  0  0  0  0
  -21.7130   -6.9820   21.4990 O   0  0  0  0  0  0  0  0  0  0  0  0
  -21.6780   -6.2440   22.6550 C   0  0  0  0  0  0  0  0  0  0  0  0
  -21.2370   -6.7930   23.8790 C   0  0  0  0  0  3  0  0  0  0  0  0
  -21.1540   -5.9800   25.0270 C   0  0  0  0  0  3  0  0  0  0  0  0
  -21.4970   -4.6160   24.9500 C   0  0  0  0  0  0  0  0  0  0  0  0
  -21.9300   -4.0660   23.7310 C   0  0  0  0  0  3  0  0  0  0  0  0
  -22.0170   -4.8780   22.5860 C   0  0  0  0  0  0  0  0  0  0  0  0
  -22.4150   -4.3380   21.4090 F   0  0  0  0  0  0  0  0  0  0  0  0
  -21.4090   -3.8330   26.0490 F   0  0  0  0  0  0  0  0  0  0  0  0
  -22.7310  -13.6300   21.1540 C   0  0  0  0  0  0  0  0  0  0  0  0
  -22.0230  -12.9290   22.0320 N   0  0  0  0  0  0  0  0  0  0  0  0
  -22.2760  -14.6510   20.6360 O   0  0  0  0  0  0  0  0  0  0  0  0
  -22.4050  -12.1030   22.4680 H   0  0  0  0  0  0  0  0  0  0  0  0
  -21.0860  -13.2210   22.2690 H   0  0  0  0  0  0  0  0  0  0  0  0
  -25.3320  -15.3240   20.3030 N   0  0  0  0  0  0  0  0  0  0  0  0
  -24.5520  -15.9630   20.4070 H   0  0  0  0  0  0  0  0  0  0  0  0
  -26.1630  -15.7690   19.9350 H   0  0  0  0  0  0  0  0  0  0  0  0
  -29.0620  -23.9530   20.2900 C   0  0  0  0  0  3  0  0  0  0  0  0
  -27.9220  -25.0290   19.8810 C   0  0  0  0  0  3  0  0  0  0  0  0
  -28.1300  -26.5120   20.0800 O   0  0  0  0  0  0  0  0  0  0  0  0
  -24.4980  -31.9780   23.2160 C   0  0  0  0  0  0  0  0  0  0  0  0
  -27.0220  -27.3960   20.0620 C   0  0  0  0  0  0  0  0  0  0  0  0
  -23.2500  -30.5800   21.6100 C   0  0  0  0  0  3  0  0  0  0  0  0
  -24.6600  -29.0370   20.1300 C   0  0  0  0  0  0  0  0  0  0  0  0
  -25.7840  -30.8980   21.3490 C   0  0  0  0  0  2  0  0  0  0  0  0
  -25.8490  -29.5170   20.6950 C   0  0  0  0  0  0  0  0  0  0  0  0
  -27.0320  -28.7080   20.6500 C   0  0  0  0  0  3  0  0  0  0  0  0
  -25.8060  -26.9870   19.4690 C   0  0  0  0  0  3  0  0  0  0  0  0
  -24.6440  -27.7810   19.5050 C   0  0  0  0  0  3  0  0  0  0  0  0
  -23.4230  -29.9080   20.2220 C   0  0  0  0  0  2  0  0  0  0  0  0
  -24.5320  -31.1710   22.1150 N   0  0  0  0  0  0  0  0  0  0  0  0
  -23.4300  -32.2500   23.7840 O   0  0  0  0  0  0  0  0  0  0  0  0
  -22.6180  -29.5610   22.5900 C   0  0  0  0  0  0  0  0  0  0  0  0
  -21.2950  -29.3480   22.4760 N   0  0  0  0  0  0  0  0  0  0  0  0
  -23.3190  -28.9650   23.4140 O   0  0  0  0  0  0  0  0  0  0  0  0
  -20.7890  -29.8850   21.7860 H   0  0  0  0  0  0  0  0  0  0  0  0
  -17.9640  -28.0230   22.9780 C   0  0  0  0  0  0  0  0  0  0  0  0
  -20.5070  -28.3990   23.2640 C   0  0  0  0  0  3  0  0  0  0  0  0
  -20.6750  -26.9580   22.7260 C   0  0  0  0  0  2  0  0  0  0  0  0
  -19.5980  -26.5620   21.7110 C   0  0  0  0  0  2  0  0  0  0  0  0
  -18.2050  -26.6650   22.3380 C   0  0  0  0  0  2  0  0  0  0  0  0
  -19.0460  -28.8420   23.3980 C   0  0  0  0  0  0  0  0  0  0  0  0
  -18.7660  -30.1080   23.9560 C   0  0  0  0  0  3  0  0  0  0  0  0
  -17.4390  -30.5580   24.0950 C   0  0  0  0  0  3  0  0  0  0  0  0
  -16.3730  -29.7360   23.6900 C   0  0  0  0  0  3  0  0  0  0  0  0
  -16.6370  -28.4700   23.1380 C   0  0  0  0  0  3  0  0  0  0  0  0
  -25.7950  -32.6160   23.8030 C   0  0  0  0  0  3  0  0  0  0  0  0
  -25.4870  -34.0110   24.1540 N   0  0  0  0  0  0  0  0  0  0  0  0
  -25.8000  -35.0730   23.3990 C   0  0  0  0  0  0  0  0  0  0  0  0
  -26.4450  -34.9810   22.3520 O   0  0  0  0  0  0  0  0  0  0  0  0
  -24.9100  -34.1560   24.9690 H   0  0  0  0  0  0  0  0  0  0  0  0
  -24.0660  -36.8700   23.1030 C   0  0  0  0  0  1  0  0  0  0  0  0
  -25.3240  -36.4560   23.8840 C   0  0  0  0  0  3  0  0  0  0  0  0
  -27.4740  -37.3310   24.6830 C   0  0  0  0  0  1  0  0  0  0  0  0
  -26.3550  -37.5090   23.7620 N   0  0  0  0  0  0  0  0  0  0  0  0
  -25.9520  -38.4290   23.9230 H   0  0  0  0  0  0  0  0  0  0  0  0
  -26.3530  -31.8400   25.0590 C   0  0  1  0  0  0  0  0  0  0  0  0
  -25.2910  -31.5930   26.1570 C   0  0  0  0  0  1  0  0  0  0  0  0
  -26.9290  -30.4670   24.6430 C   0  0  0  0  0  1  0  0  0  0  0  0
  -27.5200  -32.6360   25.6910 C   0  0  0  0  0  1  0  0  0  0  0  0
  1 14  1  0
  1  2  1  0
  3  4  1  0
  4  9  1  0
  5  3  1  0
  6 11  1  0
  7 12  1  0
  8  7  1  0
  8  2  1  0
  8  6  1  0
  9 10  1  0
  9 26  1  0
 10 15  1  0
 11 13  1  0
 12  5  1  6
 12  1  1  0
 12 10  1  0
 14 56  1  0
 15 11  1  0
 15 17  1  0
 15 16  1  0
 18 26  1  0
 19 24  1  0
 20 21  1  0
 20 19  1  0
 22 21  1  0
 22 31  1  0
 22 23  1  0
 24 18  1  0
 24 23  1  0
 25 18  2  0
 26 27  1  0
 28 29  2  0
 29 48  1  0
 30 29  1  0
 30 33  1  0
 31 28  1  0
 31 32  1  0
 32 30  2  0
 33 34  1  0
 34 35  2  0
 36 39  1  0
 36 35  1  0
 37 36  2  0
 38 37  1  0
 38 33  2  0
 39 40  1  0
 40 41  1  0
 41 42  2  0
 43 42  1  0
 43 47  1  0
 44 43  2  0
 45 40  2  0
 45 44  1  0
 46 45  1  0
 48 49  1  0
 49 52  1  0
 49 51  1  0
 50 48  2  0
 53 54  1  0
 53 28  1  0
 55 53  1  0
 57 58  1  0
 57 56  2  0
 59 70  2  0
 60 58  1  0
 60 65  1  0
 61 69  1  0
 61 71  1  0
 62 68  1  0
 62 64  1  0
 63 69  1  0
 64 63  1  0
 65 64  2  0
 66 67  1  0
 66 60  2  0
 67 62  2  0
 68 61  1  0
 69 59  1  0
 71 73  2  0
 72 71  1  0
 74 72  1  0
 75 84  2  0
 75 80  1  0
 76 72  1  0
 76 80  1  0
 77 76  1  0
 78 79  1  0
 78 77  1  0
 79 75  1  0
 80 81  2  0
 81 82  1  0
 83 82  2  0
 84 83  1  0
 85 59  1  0
 85 86  1  0
 85 95  1  0
 86 89  1  0
 87 91  1  0
 87 86  1  0
 88 87  2  0
 91 90  1  0
 93 91  1  0
 93 94  1  0
 93 92  1  0
 95 98  1  1
 95 96  1  0
 97 95  1  0
M  ISO  4  18 100  26 100  57 101  58 101
M  END
>  <TORSDO>  (71) 
F 18

>  <SCORE>  (71) 
-14.429

>  <name>  (71) 
70

>  <ligand_id>  (71) 
70

>  <original_smiles>  (71) 
[H]c1c([H])c([H])c2c(c1[H])C([H])([H])C([H])([H])C([H])([H])C2([H])N([H])C(=O)C1([H])N(C(=O)C([H])(N([H])C(=O)C([H])(N([H])C([H])([H])[H])C([H])([H])[H])C(C([H])([H])[H])(C([H])([H])[H])C([H])([H])[H])C([H])([H])c2c([H])c(OC([H])([H])C([H])([H])N=C3C([H])([H])C4([H])C([H])([H])C35C([H])([H])C([H])([H])C([H])([H])C([H])(N([H])C(=O)N3C([H])([H])C([H])([H])C([H])([H])C([H])(n6nc(-c7c([H])c([H])c(Oc8c([H])c([H])c(F)c([H])c8F)c([H])c7[H])c(C(=O)N([H])[H])c6N([H])[H])C3([H])[H])C5([H])[N+]([H])([H])C([H])(C([H])([H])[H])C4([H])[H])c([H])c([H])c2C1([H])[H]

>  <smiles>  (71) 
[H]c1c([H])c([H])c2c(c1[H])C([H])([H])C([H])([H])C([H])([H])C2([H])N([H])C(=O)C1([H])N(C(=O)C([H])(N([H])C(=O)C([H])(N([H])C([H])([H])[H])C([H])([H])[H])C(C([H])([H])[H])(C([H])([H])[H])C([H])([H])[H])C([H])([H])c2c([H])c(OC([H])([H])C([H])([H])N=C3C([H])([H])C4([H])C([H])([H])C35C([H])([H])C([H])([H])C([H])([H])C([H])(N([H])C(=O)N3C([H])([H])C([H])([H])C([H])([H])C([H])(n6nc(-c7c([H])c([H])c(Oc8c([H])c([H])c(F)c([H])c8F)c([H])c7[H])c(C(=O)N([H])[H])c6N([H])[H])C3([H])[H])C5([H])[N+]([H])([H])C([H])(C([H])([H])[H])C4([H])[H])c([H])c([H])c2C1([H])[H]

$$$$
71:0:0
     RDKit          3D

 88 95  0  0  1  0  0  0  0  0999 V2000
  -29.1630  -23.4930   20.2440 C   0  0  0  0  0  3  0  0  0  0  0  0
  -28.7320  -21.9910   20.5120 N   0  0  0  0  0  4  0  0  0  0  0  0
  -28.4650  -21.9260   21.4810 H   0  0  0  0  0  0  0  0  0  0  0  0
  -27.8870  -21.8340   19.9840 H   0  0  0  0  0  0  0  0  0  0  0  0
  -29.6460  -20.7390   20.2100 C   0  0  0  0  0  3  0  0  0  0  0  0
  -29.2260  -19.1780   20.6410 C   0  0  0  0  0  3  0  0  0  0  0  0
  -30.1090  -17.8070   20.2660 C   0  0  0  0  0  3  0  0  0  0  0  0
  -29.7270  -16.2600   20.7620 C   0  0  0  0  0  3  0  0  0  0  0  0
  -30.5470  -14.8900   20.3620 C   0  0  0  0  0  0  0  0  0  0  0  0
  -30.4180  -12.5700   19.3590 C   0  0  0  0  0  2  0  0  0  0  0  0
  -29.4810  -12.6080   18.1270 C   0  0  0  0  0  2  0  0  0  0  0  0
  -28.0120  -12.4080   18.5480 C   0  0  0  0  0  2  0  0  0  0  0  0
  -27.6230  -13.2960   19.7580 C   0  0  0  0  0  3  0  0  0  0  0  0
  -28.6790  -13.2380   20.8820 C   0  0  0  0  0  2  0  0  0  0  0  0
  -29.9690  -13.6280   20.3030 N   0  0  0  0  0  0  0  0  0  0  0  0
  -31.7230  -14.9930   19.9960 O   0  0  0  0  0  0  0  0  0  0  0  0
  -25.2320  -13.8740   20.4770 C   0  0  0  0  0  0  0  0  0  0  0  0
  -24.1700  -13.0950   20.8470 C   0  0  0  0  0  0  0  0  0  0  0  0
  -24.6420  -11.7470   20.8290 C   0  0  0  0  0  0  0  0  0  0  0  0
  -26.2820  -12.9990   20.2490 N   0  0  0  0  0  0  0  0  0  0  0  0
  -25.9350  -11.7150   20.5260 N   0  0  0  0  0  0  0  0  0  0  0  0
  -23.9220  -10.4820   21.0270 C   0  0  0  0  0  0  0  0  0  0  0  0
  -24.3570   -9.5200   21.9640 C   0  0  0  0  0  3  0  0  0  0  0  0
  -23.6350   -8.3210   22.1480 C   0  0  0  0  0  3  0  0  0  0  0  0
  -22.4630   -8.0760   21.3930 C   0  0  0  0  0  0  0  0  0  0  0  0
  -22.0490   -9.0260   20.4440 C   0  0  0  0  0  3  0  0  0  0  0  0
  -22.7720  -10.2160   20.2580 C   0  0  0  0  0  3  0  0  0  0  0  0
  -21.7130   -6.9290   21.4850 O   0  0  0  0  0  0  0  0  0  0  0  0
  -21.6700   -6.1870   22.6380 C   0  0  0  0  0  0  0  0  0  0  0  0
  -21.2550   -6.7450   23.8680 C   0  0  0  0  0  3  0  0  0  0  0  0
  -21.1590   -5.9300   25.0130 C   0  0  0  0  0  3  0  0  0  0  0  0
  -21.4690   -4.5590   24.9320 C   0  0  0  0  0  0  0  0  0  0  0  0
  -21.8800   -4.0020   23.7080 C   0  0  0  0  0  3  0  0  0  0  0  0
  -21.9760   -4.8140   22.5640 C   0  0  0  0  0  0  0  0  0  0  0  0
  -22.3520   -4.2660   21.3830 F   0  0  0  0  0  0  0  0  0  0  0  0
  -21.3700   -3.7750   26.0300 F   0  0  0  0  0  0  0  0  0  0  0  0
  -22.7700  -13.5670   21.1090 C   0  0  0  0  0  0  0  0  0  0  0  0
  -22.0450  -12.8750   21.9790 N   0  0  0  0  0  0  0  0  0  0  0  0
  -22.3280  -14.5840   20.5760 O   0  0  0  0  0  0  0  0  0  0  0  0
  -22.4200  -12.0510   22.4270 H   0  0  0  0  0  0  0  0  0  0  0  0
  -21.1060  -13.1720   22.2030 H   0  0  0  0  0  0  0  0  0  0  0  0
  -25.3870  -15.2450   20.2930 N   0  0  0  0  0  0  0  0  0  0  0  0
  -24.6140  -15.8910   20.4000 H   0  0  0  0  0  0  0  0  0  0  0  0
  -26.2370  -15.6930   19.9770 H   0  0  0  0  0  0  0  0  0  0  0  0
  -31.2010  -25.0600   20.6570 C   0  0  0  0  0  1  0  0  0  0  0  0
  -30.3950  -23.8350   21.1220 C   0  0  0  0  0  2  0  0  0  0  0  0
  -28.0260  -24.7210   20.3480 C   0  0  0  0  0  2  0  0  0  0  0  0
  -28.2700  -26.2440   20.1970 O   0  0  0  0  0  0  0  0  0  0  0  0
  -24.6290  -31.8690   23.2260 C   0  0  0  0  0  0  0  0  0  0  0  0
  -27.1880  -27.1860   20.1700 C   0  0  0  0  0  0  0  0  0  0  0  0
  -23.4130  -30.4730   21.5980 C   0  0  0  0  0  3  0  0  0  0  0  0
  -24.8480  -28.9010   20.1640 C   0  0  0  0  0  0  0  0  0  0  0  0
  -25.9640  -30.7490   21.4060 C   0  0  0  0  0  2  0  0  0  0  0  0
  -26.0330  -29.3580   20.7570 C   0  0  0  0  0  0  0  0  0  0  0  0
  -27.2040  -28.5170   20.7410 C   0  0  0  0  0  3  0  0  0  0  0  0
  -25.9770  -26.8240   19.5380 C   0  0  0  0  0  3  0  0  0  0  0  0
  -24.8310  -27.6460   19.5400 C   0  0  0  0  0  3  0  0  0  0  0  0
  -23.6200  -29.7940   20.2180 C   0  0  0  0  0  2  0  0  0  0  0  0
  -24.6890  -31.0510   22.1320 N   0  0  0  0  0  0  0  0  0  0  0  0
  -23.5470  -32.1520   23.7650 O   0  0  0  0  0  0  0  0  0  0  0  0
  -22.7470  -29.4640   22.5670 C   0  0  0  0  0  0  0  0  0  0  0  0
  -21.4200  -29.2840   22.4450 N   0  0  0  0  0  0  0  0  0  0  0  0
  -23.4260  -28.8440   23.3890 O   0  0  0  0  0  0  0  0  0  0  0  0
  -20.9300  -29.8360   21.7550 H   0  0  0  0  0  0  0  0  0  0  0  0
  -18.0470  -28.0620   22.9500 C   0  0  0  0  0  0  0  0  0  0  0  0
  -20.6030  -28.3490   23.2230 C   0  0  0  0  0  3  0  0  0  0  0  0
  -20.7190  -26.9110   22.6620 C   0  0  0  0  0  2  0  0  0  0  0  0
  -19.6220  -26.5690   21.6490 C   0  0  0  0  0  2  0  0  0  0  0  0
  -18.2380  -26.7080   22.2880 C   0  0  0  0  0  2  0  0  0  0  0  0
  -19.1590  -28.8390   23.3750 C   0  0  0  0  0  0  0  0  0  0  0  0
  -18.9250  -30.1030   23.9580 C   0  0  0  0  0  3  0  0  0  0  0  0
  -17.6150  -30.5910   24.1190 C   0  0  0  0  0  3  0  0  0  0  0  0
  -16.5190  -29.8120   23.7110 C   0  0  0  0  0  3  0  0  0  0  0  0
  -16.7370  -28.5500   23.1310 C   0  0  0  0  0  3  0  0  0  0  0  0
  -25.9130  -32.5050   23.8400 C   0  0  0  0  0  3  0  0  0  0  0  0
  -26.4400  -31.7300   25.1090 C   0  0  1  0  0  0  0  0  0  0  0  0
  -25.3570  -31.4870   26.1870 C   0  0  0  0  0  1  0  0  0  0  0  0
  -27.0210  -30.3530   24.7120 C   0  0  0  0  0  1  0  0  0  0  0  0
  -27.5980  -32.5210   25.7630 C   0  0  0  0  0  1  0  0  0  0  0  0
  -25.5990  -33.9010   24.1850 N   0  0  0  0  0  0  0  0  0  0  0  0
  -25.9130  -34.9620   23.4320 C   0  0  0  0  0  0  0  0  0  0  0  0
  -26.5650  -34.8710   22.3880 O   0  0  0  0  0  0  0  0  0  0  0  0
  -25.0170  -34.0450   24.9980 H   0  0  0  0  0  0  0  0  0  0  0  0
  -24.1690  -36.7530   23.1320 C   0  0  0  0  0  1  0  0  0  0  0  0
  -25.4300  -36.3460   23.9110 C   0  0  0  0  0  3  0  0  0  0  0  0
  -27.5810  -37.2360   24.6980 C   0  0  0  0  0  1  0  0  0  0  0  0
  -26.4550  -37.4060   23.7810 N   0  0  0  0  0  0  0  0  0  0  0  0
  -26.0490  -38.3220   23.9460 H   0  0  0  0  0  0  0  0  0  0  0  0
  1 47  1  0
  1  2  1  0
  1 46  1  0
  2  3  1  0
  4  2  1  0
  5  2  1  0
  5  6  2  0
  7  6  1  0
  7  8  2  0
  9  8  1  0
 10 15  1  0
 11 12  1  0
 11 10  1  0
 13 12  1  0
 13 20  1  0
 13 14  1  0
 15  9  1  0
 15 14  1  0
 16  9  2  0
 17 18  2  0
 18 37  1  0
 19 18  1  0
 19 22  1  0
 20 17  1  0
 20 21  1  0
 21 19  2  0
 22 23  1  0
 23 24  2  0
 25 28  1  0
 25 24  1  0
 26 25  2  0
 27 26  1  0
 27 22  2  0
 28 29  1  0
 29 30  1  0
 30 31  2  0
 32 31  1  0
 32 36  1  0
 33 32  2  0
 34 29  2  0
 34 33  1  0
 35 34  1  0
 37 38  1  0
 38 41  1  0
 38 40  1  0
 39 37  2  0
 42 43  1  0
 42 17  1  0
 44 42  1  0
 45 46  1  0
 48 47  1  0
 49 60  2  0
 50 48  1  0
 50 55  1  0
 51 59  1  0
 51 61  1  0
 52 58  1  0
 52 54  1  0
 53 59  1  0
 54 53  1  0
 55 54  2  0
 56 57  1  0
 56 50  2  0
 57 52  2  0
 58 51  1  0
 59 49  1  0
 61 63  2  0
 62 61  1  0
 64 62  1  0
 65 74  2  0
 65 70  1  0
 66 62  1  0
 66 70  1  0
 67 66  1  0
 68 69  1  0
 68 67  1  0
 69 65  1  0
 70 71  2  0
 71 72  1  0
 73 72  2  0
 74 73  1  0
 75 49  1  0
 75 80  1  0
 75 76  1  0
 76 79  1  1
 76 77  1  0
 78 76  1  0
 80 83  1  0
 81 85  1  0
 81 80  1  0
 82 81  2  0
 85 84  1  0
 87 85  1  0
 87 88  1  0
 87 86  1  0
M  ISO  4   8 100   9 100  47 101  48 101
M  END
>  <TORSDO>  (72) 
F 23

>  <SCORE>  (72) 
-12.588

>  <name>  (72) 
71

>  <ligand_id>  (72) 
71

>  <original_smiles>  (72) 
[H]c1c([H])c([H])c2c(c1[H])C([H])([H])C([H])([H])C([H])([H])C2([H])N([H])C(=O)C1([H])N(C(=O)C([H])(N([H])C(=O)C([H])(N([H])C([H])([H])[H])C([H])([H])[H])C(C([H])([H])[H])(C([H])([H])[H])C([H])([H])[H])C([H])([H])c2c([H])c(OC([H])([H])C([H])(C([H])([H])C([H])([H])[H])[N+]([H])([H])C([H])([H])C([H])([H])C([H])([H])C([H])([H])C(=O)N3C([H])([H])C([H])([H])C([H])([H])C([H])(n4nc(-c5c([H])c([H])c(Oc6c([H])c([H])c(F)c([H])c6F)c([H])c5[H])c(C(=O)N([H])[H])c4N([H])[H])C3([H])[H])c([H])c([H])c2C1([H])[H]

>  <smiles>  (72) 
[H]c1c([H])c([H])c2c(c1[H])C([H])([H])C([H])([H])C([H])([H])C2([H])N([H])C(=O)C1([H])N(C(=O)C([H])(N([H])C(=O)C([H])(N([H])C([H])([H])[H])C([H])([H])[H])C(C([H])([H])[H])(C([H])([H])[H])C([H])([H])[H])C([H])([H])c2c([H])c(OC([H])([H])C([H])(C([H])([H])C([H])([H])[H])[N+]([H])([H])C([H])([H])C([H])([H])C([H])([H])C([H])([H])C(=O)N3C([H])([H])C([H])([H])C([H])([H])C([H])(n4nc(-c5c([H])c([H])c(Oc6c([H])c([H])c(F)c([H])c6F)c([H])c5[H])c(C(=O)N([H])[H])c4N([H])[H])C3([H])[H])c([H])c([H])c2C1([H])[H]

$$$$
72:0:0
     RDKit          3D

 90 97  0  0  1  0  0  0  0  0999 V2000
  -31.3090  -21.3380   20.4320 C   0  0  0  0  0  3  0  0  0  0  0  0
  -31.3380  -22.4890   19.7320 C   0  0  0  0  0  3  0  0  0  0  0  0
  -30.8870  -20.0890   19.8180 C   0  0  0  0  0  0  0  0  0  0  0  0
  -31.0240  -19.0520   20.6540 N   0  0  0  0  0  0  0  0  0  0  0  0
  -30.4340  -19.9630   18.6790 O   0  0  0  0  0  0  0  0  0  0  0  0
  -31.4170  -19.2400   21.5660 H   0  0  0  0  0  0  0  0  0  0  0  0
  -30.5860  -17.6860   20.3770 C   0  0  0  0  0  2  0  0  0  0  0  0
  -30.9050  -16.7580   21.5660 C   0  0  0  0  0  2  0  0  0  0  0  0
  -30.1920  -15.3870   21.5120 C   0  0  0  0  0  2  0  0  0  0  0  0
  -30.7050  -14.3960   20.4510 C   0  0  0  0  0  0  0  0  0  0  0  0
  -30.3280  -12.3400   19.1250 C   0  0  0  0  0  2  0  0  0  0  0  0
  -29.3450  -12.6130   17.9710 C   0  0  0  0  0  2  0  0  0  0  0  0
  -27.8840  -12.4720   18.4440 C   0  0  0  0  0  2  0  0  0  0  0  0
  -27.6030  -13.2550   19.7540 C   0  0  0  0  0  3  0  0  0  0  0  0
  -28.6870  -12.9440   20.8120 C   0  0  0  0  0  2  0  0  0  0  0  0
  -30.0000  -13.2580   20.2230 N   0  0  0  0  0  0  0  0  0  0  0  0
  -31.7360  -14.6690   19.8270 O   0  0  0  0  0  0  0  0  0  0  0  0
  -25.2170  -13.8690   20.5080 C   0  0  0  0  0  0  0  0  0  0  0  0
  -24.1540  -13.0980   20.8980 C   0  0  0  0  0  0  0  0  0  0  0  0
  -24.6120  -11.7450   20.8540 C   0  0  0  0  0  0  0  0  0  0  0  0
  -26.2560  -12.9860   20.2580 N   0  0  0  0  0  0  0  0  0  0  0  0
  -25.8950  -11.7030   20.5180 N   0  0  0  0  0  0  0  0  0  0  0  0
  -23.8880  -10.4840   21.0580 C   0  0  0  0  0  0  0  0  0  0  0  0
  -24.3510   -9.5060   21.9660 C   0  0  0  0  0  3  0  0  0  0  0  0
  -23.6280   -8.3090   22.1590 C   0  0  0  0  0  3  0  0  0  0  0  0
  -22.4290   -8.0820   21.4430 C   0  0  0  0  0  0  0  0  0  0  0  0
  -21.9850   -9.0480   20.5240 C   0  0  0  0  0  3  0  0  0  0  0  0
  -22.7080  -10.2370   20.3300 C   0  0  0  0  0  3  0  0  0  0  0  0
  -21.6750   -6.9370   21.5450 O   0  0  0  0  0  0  0  0  0  0  0  0
  -21.6760   -6.1740   22.6860 C   0  0  0  0  0  0  0  0  0  0  0  0
  -21.3220   -6.7120   23.9420 C   0  0  0  0  0  3  0  0  0  0  0  0
  -21.2690   -5.8770   25.0750 C   0  0  0  0  0  3  0  0  0  0  0  0
  -21.5590   -4.5050   24.9550 C   0  0  0  0  0  0  0  0  0  0  0  0
  -21.9070   -3.9660   23.7030 C   0  0  0  0  0  3  0  0  0  0  0  0
  -21.9620   -4.7980   22.5710 C   0  0  0  0  0  0  0  0  0  0  0  0
  -22.2760   -4.2710   21.3640 F   0  0  0  0  0  0  0  0  0  0  0  0
  -21.5010   -3.7000   26.0420 F   0  0  0  0  0  0  0  0  0  0  0  0
  -22.7650  -13.5770   21.2040 C   0  0  0  0  0  0  0  0  0  0  0  0
  -22.0560  -12.8800   22.0860 N   0  0  0  0  0  0  0  0  0  0  0  0
  -22.3150  -14.6040   20.6960 O   0  0  0  0  0  0  0  0  0  0  0  0
  -22.4330  -12.0510   22.5200 H   0  0  0  0  0  0  0  0  0  0  0  0
  -21.1250  -13.1830   22.3330 H   0  0  0  0  0  0  0  0  0  0  0  0
  -25.3810  -15.2390   20.3290 N   0  0  0  0  0  0  0  0  0  0  0  0
  -24.6200  -15.8980   20.4550 H   0  0  0  0  0  0  0  0  0  0  0  0
  -26.2310  -15.6770   19.9960 H   0  0  0  0  0  0  0  0  0  0  0  0
  -31.7640  -23.8280   20.3120 C   0  0  0  0  0  2  0  0  0  0  0  0
  -30.7860  -24.9780   19.9880 C   0  0  0  0  0  2  0  0  0  0  0  0
  -30.3230  -25.7450   21.2410 C   0  0  0  0  0  2  0  0  0  0  0  0
  -29.4860  -27.0040   20.9520 C   0  0  0  0  0  2  0  0  0  0  0  0
  -28.3640  -26.6630   20.1430 O   0  0  0  0  0  0  0  0  0  0  0  0
  -24.5760  -31.8820   23.2380 C   0  0  0  0  0  0  0  0  0  0  0  0
  -27.2390  -27.4590   20.1820 C   0  0  0  0  0  0  0  0  0  0  0  0
  -23.3670  -30.4760   21.5980 C   0  0  0  0  0  3  0  0  0  0  0  0
  -24.8250  -28.9340   20.1820 C   0  0  0  0  0  0  0  0  0  0  0  0
  -25.8860  -30.8470   21.3940 C   0  0  0  0  0  2  0  0  0  0  0  0
  -25.9760  -29.4740   20.7660 C   0  0  0  0  0  0  0  0  0  0  0  0
  -27.1850  -28.7480   20.7650 C   0  0  0  0  0  3  0  0  0  0  0  0
  -26.0720  -26.9320   19.5950 C   0  0  0  0  0  3  0  0  0  0  0  0
  -24.8650  -27.6580   19.5920 C   0  0  0  0  0  3  0  0  0  0  0  0
  -23.5770  -29.7860   20.2220 C   0  0  0  0  0  2  0  0  0  0  0  0
  -24.6280  -31.0830   22.1370 N   0  0  0  0  0  0  0  0  0  0  0  0
  -23.4950  -32.1570   23.7800 O   0  0  0  0  0  0  0  0  0  0  0  0
  -22.7160  -29.4590   22.5630 C   0  0  0  0  0  0  0  0  0  0  0  0
  -21.3910  -29.2800   22.4360 N   0  0  0  0  0  0  0  0  0  0  0  0
  -23.3990  -28.8340   23.3780 O   0  0  0  0  0  0  0  0  0  0  0  0
  -20.9020  -29.8370   21.7480 H   0  0  0  0  0  0  0  0  0  0  0  0
  -18.0130  -28.1050   22.9360 C   0  0  0  0  0  0  0  0  0  0  0  0
  -20.5720  -28.3480   23.2080 C   0  0  0  0  0  3  0  0  0  0  0  0
  -20.6660  -26.9160   22.6320 C   0  0  0  0  0  2  0  0  0  0  0  0
  -19.5630  -26.5990   21.6180 C   0  0  0  0  0  2  0  0  0  0  0  0
  -18.1830  -26.7540   22.2630 C   0  0  0  0  0  2  0  0  0  0  0  0
  -19.1360  -28.8610   23.3660 C   0  0  0  0  0  0  0  0  0  0  0  0
  -18.9270  -30.1270   23.9540 C   0  0  0  0  0  3  0  0  0  0  0  0
  -17.6250  -30.6380   24.1180 C   0  0  0  0  0  3  0  0  0  0  0  0
  -16.5160  -29.8790   23.7050 C   0  0  0  0  0  3  0  0  0  0  0  0
  -16.7120  -28.6150   23.1210 C   0  0  0  0  0  3  0  0  0  0  0  0
  -25.8640  -32.5120   23.8560 C   0  0  0  0  0  3  0  0  0  0  0  0
  -25.5590  -33.9100   24.1860 N   0  0  0  0  0  0  0  0  0  0  0  0
  -25.8970  -34.9610   23.4270 C   0  0  0  0  0  0  0  0  0  0  0  0
  -26.5700  -34.8550   22.3970 O   0  0  0  0  0  0  0  0  0  0  0  0
  -24.9640  -34.0670   24.9860 H   0  0  0  0  0  0  0  0  0  0  0  0
  -24.1740  -36.7550   23.0640 C   0  0  0  0  0  1  0  0  0  0  0  0
  -25.4110  -36.3500   23.8810 C   0  0  0  0  0  3  0  0  0  0  0  0
  -27.5460  -37.2270   24.7190 C   0  0  0  0  0  1  0  0  0  0  0  0
  -26.4470  -37.4000   23.7730 N   0  0  0  0  0  0  0  0  0  0  0  0
  -26.0430  -38.3210   23.9210 H   0  0  0  0  0  0  0  0  0  0  0  0
  -26.3880  -31.7370   25.1280 C   0  0  1  0  0  0  0  0  0  0  0  0
  -25.3000  -31.4980   26.2000 C   0  0  0  0  0  1  0  0  0  0  0  0
  -26.9670  -30.3610   24.7260 C   0  0  0  0  0  1  0  0  0  0  0  0
  -27.5420  -32.5290   25.7880 C   0  0  0  0  0  1  0  0  0  0  0  0
  2 46  1  0
  2  1  2  0
  3  1  1  0
  3  4  1  0
  4  6  1  0
  5  3  2  0
  7  4  1  0
  7  8  1  0
  9  8  1  0
 10  9  1  0
 11 16  1  0
 12 13  1  0
 12 11  1  0
 14 13  1  0
 14 21  1  0
 14 15  1  0
 16 10  1  0
 16 15  1  0
 17 10  2  0
 18 19  2  0
 19 38  1  0
 20 19  1  0
 20 23  1  0
 21 18  1  0
 21 22  1  0
 22 20  2  0
 23 24  1  0
 24 25  2  0
 26 29  1  0
 26 25  1  0
 27 26  2  0
 28 27  1  0
 28 23  2  0
 29 30  1  0
 30 31  1  0
 31 32  2  0
 33 32  1  0
 33 37  1  0
 34 33  2  0
 35 30  2  0
 35 34  1  0
 36 35  1  0
 38 39  1  0
 39 42  1  0
 39 41  1  0
 40 38  2  0
 43 44  1  0
 43 18  1  0
 45 43  1  0
 47 46  1  0
 47 48  1  0
 49 48  1  0
 50 52  1  0
 50 49  1  0
 51 62  2  0
 52 57  1  0
 53 61  1  0
 53 63  1  0
 54 60  1  0
 54 56  1  0
 55 61  1  0
 56 55  1  0
 57 56  2  0
 58 52  2  0
 59 58  1  0
 59 54  2  0
 60 53  1  0
 61 51  1  0
 63 65  2  0
 64 63  1  0
 66 64  1  0
 67 76  2  0
 67 72  1  0
 68 64  1  0
 68 72  1  0
 69 68  1  0
 70 71  1  0
 70 69  1  0
 71 67  1  0
 72 73  2  0
 73 74  1  0
 75 74  2  0
 76 75  1  0
 77 51  1  0
 77 78  1  0
 77 87  1  0
 78 81  1  0
 79 83  1  0
 79 78  1  0
 80 79  2  0
 83 82  1  0
 85 83  1  0
 85 86  1  0
 85 84  1  0
 87 90  1  1
 87 88  1  0
 89 87  1  0
M  ISO  4   9 100  10 100  49 101  50 101
M  END
>  <TORSDO>  (73) 
F 24

>  <SCORE>  (73) 
-12.365

>  <name>  (73) 
72

>  <ligand_id>  (73) 
72

>  <original_smiles>  (73) 
[H]C(C(=O)N([H])C([H])([H])C([H])([H])C([H])([H])C(=O)N1C([H])([H])C([H])([H])C([H])([H])C([H])(n2nc(-c3c([H])c([H])c(Oc4c([H])c([H])c(F)c([H])c4F)c([H])c3[H])c(C(=O)N([H])[H])c2N([H])[H])C1([H])[H])=C([H])C([H])([H])C([H])([H])C([H])([H])C([H])([H])Oc1c([H])c([H])c2c(c1[H])C([H])([H])N(C(=O)C([H])(N([H])C(=O)C([H])(N([H])C([H])([H])[H])C([H])([H])[H])C(C([H])([H])[H])(C([H])([H])[H])C([H])([H])[H])C([H])(C(=O)N([H])C1([H])c3c([H])c([H])c([H])c([H])c3C([H])([H])C([H])([H])C1([H])[H])C2([H])[H]

>  <smiles>  (73) 
[H]C(C(=O)N([H])C([H])([H])C([H])([H])C([H])([H])C(=O)N1C([H])([H])C([H])([H])C([H])([H])C([H])(n2nc(-c3c([H])c([H])c(Oc4c([H])c([H])c(F)c([H])c4F)c([H])c3[H])c(C(=O)N([H])[H])c2N([H])[H])C1([H])[H])=C([H])C([H])([H])C([H])([H])C([H])([H])C([H])([H])Oc1c([H])c([H])c2c(c1[H])C([H])([H])N(C(=O)C([H])(N([H])C(=O)C([H])(N([H])C([H])([H])[H])C([H])([H])[H])C(C([H])([H])[H])(C([H])([H])[H])C([H])([H])[H])C([H])(C(=O)N([H])C1([H])c3c([H])c([H])c([H])c([H])c3C([H])([H])C([H])([H])C1([H])[H])C2([H])[H]

$$$$
73:0:0
     RDKit          3D

 97104  0  0  1  0  0  0  0  0999 V2000
  -28.0030  -21.9210   18.9820 C   0  0  0  0  0  1  0  0  0  0  0  0
  -28.8620  -21.7810   20.2600 C   0  0  0  0  0  3  0  0  0  0  0  0
  -29.2550  -23.0910   20.8460 N   0  0  0  0  0  4  0  0  0  0  0  0
  -29.7770  -22.8560   21.6790 H   0  0  0  0  0  0  0  0  0  0  0  0
  -29.8880  -23.5520   20.2150 H   0  0  0  0  0  0  0  0  0  0  0  0
  -28.1260  -23.9990   21.1920 C   0  0  0  0  0  2  0  0  0  0  0  0
  -28.5200  -25.2910   21.9550 C   0  0  0  0  0  2  0  0  0  0  0  0
  -29.1770  -26.4130   21.1170 C   0  0  0  0  0  2  0  0  0  0  0  0
  -28.4390  -26.7130   19.9350 O   0  0  0  0  0  0  0  0  0  0  0  0
  -24.6140  -31.8540   23.1540 C   0  0  0  0  0  0  0  0  0  0  0  0
  -27.2860  -27.4570   20.0500 C   0  0  0  0  0  0  0  0  0  0  0  0
  -23.4110  -30.4460   21.5120 C   0  0  0  0  0  3  0  0  0  0  0  0
  -24.8730  -28.9220   20.0840 C   0  0  0  0  0  0  0  0  0  0  0  0
  -25.9280  -30.8290   21.3050 C   0  0  0  0  0  2  0  0  0  0  0  0
  -26.0250  -29.4560   20.6750 C   0  0  0  0  0  0  0  0  0  0  0  0
  -27.2350  -28.7260   20.6700 C   0  0  0  0  0  3  0  0  0  0  0  0
  -26.1250  -26.9380   19.4470 C   0  0  0  0  0  3  0  0  0  0  0  0
  -24.9130  -27.6560   19.4730 C   0  0  0  0  0  3  0  0  0  0  0  0
  -23.6190  -29.7670   20.1330 C   0  0  0  0  0  2  0  0  0  0  0  0
  -24.6680  -31.0600   22.0480 N   0  0  0  0  0  0  0  0  0  0  0  0
  -23.5350  -32.1180   23.7010 O   0  0  0  0  0  0  0  0  0  0  0  0
  -22.7750  -29.4170   22.4750 C   0  0  0  0  0  0  0  0  0  0  0  0
  -21.4500  -29.2340   22.3610 N   0  0  0  0  0  0  0  0  0  0  0  0
  -23.4690  -28.7870   23.2770 O   0  0  0  0  0  0  0  0  0  0  0  0
  -20.9540  -29.7930   21.6810 H   0  0  0  0  0  0  0  0  0  0  0  0
  -18.0830  -28.0290   22.8770 C   0  0  0  0  0  0  0  0  0  0  0  0
  -20.6420  -28.2900   23.1310 C   0  0  0  0  0  3  0  0  0  0  0  0
  -20.7440  -26.8630   22.5440 C   0  0  0  0  0  2  0  0  0  0  0  0
  -19.6340  -26.5450   21.5370 C   0  0  0  0  0  2  0  0  0  0  0  0
  -18.2570  -26.6830   22.1920 C   0  0  0  0  0  2  0  0  0  0  0  0
  -19.2040  -28.7900   23.3030 C   0  0  0  0  0  0  0  0  0  0  0  0
  -18.9880  -30.0500   23.9020 C   0  0  0  0  0  3  0  0  0  0  0  0
  -17.6850  -30.5500   24.0790 C   0  0  0  0  0  3  0  0  0  0  0  0
  -16.5790  -29.7850   23.6710 C   0  0  0  0  0  3  0  0  0  0  0  0
  -16.7780  -28.5250   23.0760 C   0  0  0  0  0  3  0  0  0  0  0  0
  -25.9010  -32.4910   23.7680 C   0  0  0  0  0  3  0  0  0  0  0  0
  -26.4580  -31.6930   25.0100 C   0  0  1  0  0  0  0  0  0  0  0  0
  -25.3900  -31.4020   26.0900 C   0  0  0  0  0  1  0  0  0  0  0  0
  -27.0610  -30.3400   24.5630 C   0  0  0  0  0  1  0  0  0  0  0  0
  -27.6050  -32.4900   25.6740 C   0  0  0  0  0  1  0  0  0  0  0  0
  -25.5750  -33.8730   24.1420 N   0  0  0  0  0  0  0  0  0  0  0  0
  -25.8710  -34.9500   23.4020 C   0  0  0  0  0  0  0  0  0  0  0  0
  -26.5190  -34.8860   22.3540 O   0  0  0  0  0  0  0  0  0  0  0  0
  -24.9970  -33.9940   24.9610 H   0  0  0  0  0  0  0  0  0  0  0  0
  -24.0940  -36.7090   23.1340 C   0  0  0  0  0  1  0  0  0  0  0  0
  -25.3650  -36.3160   23.9040 C   0  0  0  0  0  3  0  0  0  0  0  0
  -27.5040  -37.2260   24.6940 C   0  0  0  0  0  1  0  0  0  0  0  0
  -26.3710  -37.3940   23.7870 N   0  0  0  0  0  0  0  0  0  0  0  0
  -25.9500  -38.3010   23.9710 H   0  0  0  0  0  0  0  0  0  0  0  0
  -30.0840  -20.8300   20.0550 C   0  0  0  0  0  3  0  0  0  0  0  0
  -32.0690  -22.3240   19.2350 C   0  0  0  0  0  1  0  0  0  0  0  0
  -31.0540  -21.2100   18.8860 C   0  0  0  0  0  3  0  0  0  0  0  0
  -30.9460  -19.0110   17.5170 C   0  0  0  0  0  1  0  0  0  0  0  0
  -31.8180  -19.9870   18.3240 C   0  0  0  0  0  2  0  0  0  0  0  0
  -30.9070  -19.6480   22.0110 C   0  0  0  0  0  0  0  0  0  0  0  0
  -30.8340  -20.7150   21.3030 N   0  0  0  0  0  0  0  0  0  0  0  0
  -31.1610  -20.5660   24.3620 C   0  0  0  0  0  1  0  0  0  0  0  0
  -31.7690  -19.6830   23.2620 C   0  0  0  0  0  2  0  0  0  0  0  0
  -30.2030  -18.2970   21.8010 C   0  0  0  0  0  2  0  0  0  0  0  0
  -31.1010  -17.1760   21.2100 C   0  0  0  0  0  2  0  0  0  0  0  0
  -30.4520  -15.7720   21.3360 C   0  0  0  0  0  2  0  0  0  0  0  0
  -31.1420  -14.6150   20.5710 C   0  0  0  0  0  0  0  0  0  0  0  0
  -30.8410  -12.4650   19.3750 C   0  0  0  0  0  2  0  0  0  0  0  0
  -29.9250  -12.6740   18.1510 C   0  0  0  0  0  2  0  0  0  0  0  0
  -28.4370  -12.5800   18.5440 C   0  0  0  0  0  2  0  0  0  0  0  0
  -28.0940  -13.4410   19.7880 C   0  0  0  0  0  3  0  0  0  0  0  0
  -29.1100  -13.1850   20.9220 C   0  0  0  0  0  2  0  0  0  0  0  0
  -30.4590  -13.4520   20.3960 N   0  0  0  0  0  0  0  0  0  0  0  0
  -32.2570  -14.8050   20.0730 O   0  0  0  0  0  0  0  0  0  0  0  0
  -25.6980  -14.1450   20.4210 C   0  0  0  0  0  0  0  0  0  0  0  0
  -24.5950  -13.4150   20.7690 C   0  0  0  0  0  0  0  0  0  0  0  0
  -25.0090  -12.0470   20.7680 C   0  0  0  0  0  0  0  0  0  0  0  0
  -26.7190  -13.2240   20.2310 N   0  0  0  0  0  0  0  0  0  0  0  0
  -26.3040  -11.9580   20.4950 N   0  0  0  0  0  0  0  0  0  0  0  0
  -24.2360  -10.8130   20.9540 C   0  0  0  0  0  0  0  0  0  0  0  0
  -24.6180   -9.8370   21.9000 C   0  0  0  0  0  3  0  0  0  0  0  0
  -23.8490   -8.6670   22.0720 C   0  0  0  0  0  3  0  0  0  0  0  0
  -22.6830   -8.4640   21.2970 C   0  0  0  0  0  0  0  0  0  0  0  0
  -22.3200   -9.4270   20.3400 C   0  0  0  0  0  3  0  0  0  0  0  0
  -23.0890  -10.5890   20.1660 C   0  0  0  0  0  3  0  0  0  0  0  0
  -21.8880   -7.3460   21.3780 O   0  0  0  0  0  0  0  0  0  0  0  0
  -21.7920   -6.6120   22.5330 C   0  0  0  0  0  0  0  0  0  0  0  0
  -21.3880   -7.1970   23.7540 C   0  0  0  0  0  3  0  0  0  0  0  0
  -21.2350   -6.3930   24.9030 C   0  0  0  0  0  3  0  0  0  0  0  0
  -21.4760   -5.0090   24.8310 C   0  0  0  0  0  0  0  0  0  0  0  0
  -21.8730   -4.4250   23.6150 C   0  0  0  0  0  3  0  0  0  0  0  0
  -22.0280   -5.2250   22.4690 C   0  0  0  0  0  0  0  0  0  0  0  0
  -22.3900   -4.6540   21.2950 F   0  0  0  0  0  0  0  0  0  0  0  0
  -21.3220   -4.2350   25.9310 F   0  0  0  0  0  0  0  0  0  0  0  0
  -23.2080  -13.9410   20.9980 C   0  0  0  0  0  0  0  0  0  0  0  0
  -22.4380  -13.2860   21.8610 N   0  0  0  0  0  0  0  0  0  0  0  0
  -22.8150  -14.9690   20.4490 O   0  0  0  0  0  0  0  0  0  0  0  0
  -22.7660  -12.4540   22.3270 H   0  0  0  0  0  0  0  0  0  0  0  0
  -21.5050  -13.6220   22.0560 H   0  0  0  0  0  0  0  0  0  0  0  0
  -25.9170  -15.5060   20.2320 N   0  0  0  0  0  0  0  0  0  0  0  0
  -25.1720  -16.1910   20.3110 H   0  0  0  0  0  0  0  0  0  0  0  0
  -26.7950  -15.9090   19.9270 H   0  0  0  0  0  0  0  0  0  0  0  0
  2  1  1  0
  2  3  1  0
  3  6  1  0
  3  4  1  0
  5  3  1  0
  6  7  1  0
  8  7  1  0
  9 11  1  0
  9  8  1  0
 10 21  2  0
 11 16  1  0
 12 20  1  0
 12 22  1  0
 13 19  1  0
 13 15  1  0
 14 20  1  0
 15 14  1  0
 16 15  2  0
 17 18  1  0
 17 11  2  0
 18 13  2  0
 19 12  1  0
 20 10  1  0
 22 24  2  0
 23 22  1  0
 25 23  1  0
 26 35  2  0
 26 31  1  0
 27 23  1  0
 27 31  1  0
 28 27  1  0
 29 30  1  0
 29 28  1  0
 30 26  1  0
 31 32  2  0
 32 33  1  0
 34 33  2  0
 35 34  1  0
 36 10  1  0
 36 41  1  0
 36 37  1  0
 37 40  1  1
 37 38  1  0
 39 37  1  0
 41 44  1  0
 42 46  1  0
 42 41  1  0
 43 42  2  0
 46 45  1  0
 48 46  1  0
 48 49  1  0
 48 47  1  0
 50  2  1  0
 50 56  1  0
 52 51  1  0
 52 50  1  0
 53 54  1  0
 54 52  1  0
 55 58  1  0
 56 55  2  0
 58 57  1  0
 59 55  1  0
 60 61  1  0
 60 59  1  0
 62 61  1  0
 63 68  1  0
 64 65  1  0
 64 63  1  0
 66 65  1  0
 66 73  1  0
 66 67  1  0
 68 62  1  0
 68 67  1  0
 69 62  2  0
 70 71  2  0
 71 90  1  0
 72 71  1  0
 72 75  1  0
 73 70  1  0
 73 74  1  0
 74 72  2  0
 75 76  1  0
 76 77  2  0
 78 81  1  0
 78 77  1  0
 79 78  2  0
 80 79  1  0
 80 75  2  0
 81 82  1  0
 82 83  1  0
 83 84  2  0
 85 84  1  0
 85 89  1  0
 86 85  2  0
 87 82  2  0
 87 86  1  0
 88 87  1  0
 90 91  1  0
 91 94  1  0
 91 93  1  0
 92 90  2  0
 95 96  1  0
 95 70  1  0
 97 95  1  0
M  ISO  4   8 101   9 101  61 100  62 100
M  END
>  <TORSDO>  (74) 
F 28

>  <SCORE>  (74) 
-11.363

>  <name>  (74) 
73

>  <ligand_id>  (74) 
73

>  <original_smiles>  (74) 
[H]c1c([H])c([H])c2c(c1[H])C([H])([H])C([H])([H])C([H])([H])C2([H])N([H])C(=O)C1([H])N(C(=O)C([H])(N([H])C(=O)C([H])(N([H])C([H])([H])[H])C([H])([H])[H])C(C([H])([H])[H])(C([H])([H])[H])C([H])([H])[H])C([H])([H])c2c([H])c(OC([H])([H])C([H])([H])C([H])([H])[N+]([H])([H])C([H])(C([H])([H])[H])C([H])(N=C(C([H])([H])C([H])([H])[H])C([H])([H])C([H])([H])C([H])([H])C(=O)N3C([H])([H])C([H])([H])C([H])([H])C([H])(n4nc(-c5c([H])c([H])c(Oc6c([H])c([H])c(F)c([H])c6F)c([H])c5[H])c(C(=O)N([H])[H])c4N([H])[H])C3([H])[H])C([H])(C([H])([H])[H])C([H])([H])C([H])([H])[H])c([H])c([H])c2C1([H])[H]

>  <smiles>  (74) 
[H]c1c([H])c([H])c2c(c1[H])C([H])([H])C([H])([H])C([H])([H])C2([H])N([H])C(=O)C1([H])N(C(=O)C([H])(N([H])C(=O)C([H])(N([H])C([H])([H])[H])C([H])([H])[H])C(C([H])([H])[H])(C([H])([H])[H])C([H])([H])[H])C([H])([H])c2c([H])c(OC([H])([H])C([H])([H])C([H])([H])[N+]([H])([H])C([H])(C([H])([H])[H])C([H])(N=C(C([H])([H])C([H])([H])[H])C([H])([H])C([H])([H])C([H])([H])C(=O)N3C([H])([H])C([H])([H])C([H])([H])C([H])(n4nc(-c5c([H])c([H])c(Oc6c([H])c([H])c(F)c([H])c6F)c([H])c5[H])c(C(=O)N([H])[H])c4N([H])[H])C3([H])[H])C([H])(C([H])([H])[H])C([H])([H])C([H])([H])[H])c([H])c([H])c2C1([H])[H]

$$$$
74:0:0
     RDKit          3D

 89 97  0  0  1  0  0  0  0  0999 V2000
  -28.8500  -21.3030   19.8280 C   0  0  0  0  0  3  0  0  0  0  0  0
  -28.8570  -22.6840   20.6320 C   0  0  0  0  0  3  0  0  0  0  0  0
  -28.4100  -24.0230   19.8730 C   0  0  0  0  0  3  0  0  0  0  0  0
  -28.2100  -25.3670   20.7120 C   0  0  0  0  0  3  0  0  0  0  0  0
  -28.2160  -26.6820   20.0370 O   0  0  0  0  0  0  0  0  0  0  0  0
  -24.5010  -31.9990   23.2250 C   0  0  0  0  0  0  0  0  0  0  0  0
  -27.0720  -27.4840   20.0910 C   0  0  0  0  0  0  0  0  0  0  0  0
  -23.2690  -30.6130   21.5930 C   0  0  0  0  0  3  0  0  0  0  0  0
  -24.6970  -29.0650   20.1390 C   0  0  0  0  0  0  0  0  0  0  0  0
  -25.8020  -30.9390   21.3660 C   0  0  0  0  0  2  0  0  0  0  0  0
  -25.8740  -29.5660   20.7090 C   0  0  0  0  0  0  0  0  0  0  0  0
  -27.0670  -28.7890   20.6680 C   0  0  0  0  0  3  0  0  0  0  0  0
  -25.8730  -27.0180   19.5160 C   0  0  0  0  0  3  0  0  0  0  0  0
  -24.6960  -27.7950   19.5360 C   0  0  0  0  0  3  0  0  0  0  0  0
  -23.4580  -29.9360   20.2100 C   0  0  0  0  0  2  0  0  0  0  0  0
  -24.5440  -31.1990   22.1190 N   0  0  0  0  0  0  0  0  0  0  0  0
  -23.4270  -32.2720   23.7810 O   0  0  0  0  0  0  0  0  0  0  0  0
  -22.6200  -29.5920   22.5580 C   0  0  0  0  0  0  0  0  0  0  0  0
  -21.2930  -29.4140   22.4410 N   0  0  0  0  0  0  0  0  0  0  0  0
  -23.3100  -28.9620   23.3660 O   0  0  0  0  0  0  0  0  0  0  0  0
  -20.7970  -29.9740   21.7610 H   0  0  0  0  0  0  0  0  0  0  0  0
  -17.9240  -28.2080   22.9650 C   0  0  0  0  0  0  0  0  0  0  0  0
  -20.4830  -28.4710   23.2140 C   0  0  0  0  0  3  0  0  0  0  0  0
  -20.5830  -27.0430   22.6280 C   0  0  0  0  0  2  0  0  0  0  0  0
  -19.4720  -26.7240   21.6200 C   0  0  0  0  0  2  0  0  0  0  0  0
  -18.0960  -26.8630   22.2780 C   0  0  0  0  0  2  0  0  0  0  0  0
  -19.0450  -28.9690   23.3890 C   0  0  0  0  0  0  0  0  0  0  0  0
  -18.8310  -30.2290   23.9900 C   0  0  0  0  0  3  0  0  0  0  0  0
  -17.5270  -30.7280   24.1720 C   0  0  0  0  0  3  0  0  0  0  0  0
  -16.4200  -29.9620   23.7660 C   0  0  0  0  0  3  0  0  0  0  0  0
  -16.6190  -28.7040   23.1690 C   0  0  0  0  0  3  0  0  0  0  0  0
  -25.7930  -32.6220   23.8350 C   0  0  0  0  0  3  0  0  0  0  0  0
  -25.4990  -34.0240   24.1630 N   0  0  0  0  0  0  0  0  0  0  0  0
  -25.8570  -35.0750   23.4130 C   0  0  0  0  0  0  0  0  0  0  0  0
  -26.5420  -34.9640   22.3920 O   0  0  0  0  0  0  0  0  0  0  0  0
  -24.8940  -34.1850   24.9550 H   0  0  0  0  0  0  0  0  0  0  0  0
  -24.1820  -36.9080   23.0100 C   0  0  0  0  0  1  0  0  0  0  0  0
  -25.3810  -36.4690   23.8660 C   0  0  0  0  0  3  0  0  0  0  0  0
  -27.5000  -37.2940   24.7920 C   0  0  0  0  0  1  0  0  0  0  0  0
  -26.4380  -37.5020   23.8100 N   0  0  0  0  0  0  0  0  0  0  0  0
  -26.0430  -38.4260   23.9630 H   0  0  0  0  0  0  0  0  0  0  0  0
  -26.3140  -31.8510   25.1100 C   0  0  1  0  0  0  0  0  0  0  0  0
  -25.2280  -31.6200   26.1880 C   0  0  0  0  0  1  0  0  0  0  0  0
  -26.8870  -30.4690   24.7190 C   0  0  0  0  0  1  0  0  0  0  0  0
  -27.4770  -32.6390   25.7600 C   0  0  0  0  0  1  0  0  0  0  0  0
  -29.5550  -20.0060   20.4640 C   0  0  0  0  0  2  0  0  0  0  0  0
  -28.7030  -17.1350   18.1460 C   0  0  0  0  0  2  0  0  0  0  0  0
  -30.1670  -16.9790   18.5240 C   0  0  0  0  0  2  0  0  0  0  0  0
  -28.4220  -18.5350   18.6910 C   0  0  0  0  0  2  0  0  0  0  0  0
  -30.1930  -17.4810   19.9880 C   0  0  0  0  0  3  0  0  0  0  0  0
  -29.1420  -18.6040   19.9980 N   0  0  1  0  0  4  0  0  0  0  0  0
  -28.4510  -18.3180   20.6750 H   0  0  0  0  0  0  0  0  0  0  0  0
  -29.9320  -16.2670   21.0040 C   0  0  0  0  0  2  0  0  0  0  0  0
  -30.7980  -14.9330   20.8820 C   0  0  0  0  0  0  0  0  0  0  0  0
  -30.6930  -12.6580   19.9000 C   0  0  0  0  0  2  0  0  0  0  0  0
  -29.8440  -12.7650   18.6130 C   0  0  0  0  0  2  0  0  0  0  0  0
  -28.3440  -12.5930   18.9300 C   0  0  0  0  0  2  0  0  0  0  0  0
  -27.8830  -13.4710   20.1230 C   0  0  0  0  0  3  0  0  0  0  0  0
  -28.8620  -13.3730   21.3150 C   0  0  0  0  0  2  0  0  0  0  0  0
  -30.2080  -13.6970   20.8290 N   0  0  0  0  0  0  0  0  0  0  0  0
  -32.0070  -15.0480   20.6680 O   0  0  0  0  0  0  0  0  0  0  0  0
  -25.4410  -14.0580   20.6570 C   0  0  0  0  0  0  0  0  0  0  0  0
  -24.3570  -13.2810   20.9520 C   0  0  0  0  0  0  0  0  0  0  0  0
  -24.8350  -11.9340   20.9860 C   0  0  0  0  0  0  0  0  0  0  0  0
  -26.5090  -13.1840   20.5190 N   0  0  0  0  0  0  0  0  0  0  0  0
  -26.1450  -11.9040   20.7830 N   0  0  0  0  0  0  0  0  0  0  0  0
  -24.1080  -10.6680   21.1380 C   0  0  0  0  0  0  0  0  0  0  0  0
  -24.4740   -9.7180   22.1170 C   0  0  0  0  0  3  0  0  0  0  0  0
  -23.7490   -8.5160   22.2520 C   0  0  0  0  0  3  0  0  0  0  0  0
  -22.6440   -8.2550   21.4060 C   0  0  0  0  0  0  0  0  0  0  0  0
  -22.3010   -9.1920   20.4150 C   0  0  0  0  0  3  0  0  0  0  0  0
  -23.0260  -10.3860   20.2790 C   0  0  0  0  0  3  0  0  0  0  0  0
  -21.8970   -7.1050   21.4480 O   0  0  0  0  0  0  0  0  0  0  0  0
  -21.7550   -6.3820   22.6070 C   0  0  0  0  0  0  0  0  0  0  0  0
  -21.1930   -6.9480   23.7730 C   0  0  0  0  0  3  0  0  0  0  0  0
  -21.0010   -6.1510   24.9190 C   0  0  0  0  0  3  0  0  0  0  0  0
  -21.3630   -4.7920   24.9000 C   0  0  0  0  0  0  0  0  0  0  0  0
  -21.9170   -4.2240   23.7390 C   0  0  0  0  0  3  0  0  0  0  0  0
  -22.1090   -5.0180   22.5950 C   0  0  0  0  0  0  0  0  0  0  0  0
  -22.6240   -4.4630   21.4720 F   0  0  0  0  0  0  0  0  0  0  0  0
  -21.1700   -4.0250   25.9980 F   0  0  0  0  0  0  0  0  0  0  0  0
  -22.9360  -13.7440   21.0960 C   0  0  0  0  0  0  0  0  0  0  0  0
  -22.1450  -13.0550   21.9090 N   0  0  0  0  0  0  0  0  0  0  0  0
  -22.5340  -14.7570   20.5250 O   0  0  0  0  0  0  0  0  0  0  0  0
  -22.4820  -12.2350   22.3950 H   0  0  0  0  0  0  0  0  0  0  0  0
  -21.1920  -13.3520   22.0550 H   0  0  0  0  0  0  0  0  0  0  0  0
  -25.6030  -15.4300   20.4680 N   0  0  0  0  0  0  0  0  0  0  0  0
  -24.8110  -16.0640   20.4810 H   0  0  0  0  0  0  0  0  0  0  0  0
  -26.4570  -15.8660   20.1540 H   0  0  0  0  0  0  0  0  0  0  0  0
  1 46  1  0
  1  2  2  0
  3  2  1  0
  3  4  2  0
  5  7  1  0
  5  4  1  0
  6 17  2  0
  7 12  1  0
  8 16  1  0
  8 18  1  0
  9 15  1  0
  9 11  1  0
 10 16  1  0
 11 10  1  0
 12 11  2  0
 13 14  1  0
 13  7  2  0
 14  9  2  0
 15  8  1  0
 16  6  1  0
 18 20  2  0
 19 18  1  0
 21 19  1  0
 22 31  2  0
 22 27  1  0
 23 19  1  0
 23 27  1  0
 24 23  1  0
 25 26  1  0
 25 24  1  0
 26 22  1  0
 27 28  2  0
 28 29  1  0
 30 29  2  0
 31 30  1  0
 32  6  1  0
 32 33  1  0
 32 42  1  0
 33 36  1  0
 34 38  1  0
 34 33  1  0
 35 34  2  0
 38 37  1  0
 40 38  1  0
 40 41  1  0
 40 39  1  0
 42 45  1  1
 42 43  1  0
 44 42  1  0
 47 48  1  0
 47 49  1  0
 48 50  1  0
 49 51  1  0
 50 51  1  0
 50 53  1  0
 51 46  1  0
 51 52  1  1
 54 53  1  0
 55 60  1  0
 56 57  1  0
 56 55  1  0
 58 57  1  0
 58 65  1  0
 58 59  1  0
 60 54  1  0
 60 59  1  0
 61 54  2  0
 62 63  2  0
 63 64  1  0
 63 82  1  0
 64 67  1  0
 65 62  1  0
 65 66  1  0
 66 64  2  0
 67 68  1  0
 68 69  2  0
 70 73  1  0
 70 69  1  0
 71 70  2  0
 72 71  1  0
 72 67  2  0
 73 74  1  0
 74 75  1  0
 75 76  2  0
 77 76  1  0
 77 81  1  0
 78 77  2  0
 79 74  2  0
 79 78  1  0
 80 79  1  0
 82 83  1  0
 83 86  1  0
 83 85  1  0
 84 82  2  0
 87 88  1  0
 87 62  1  0
 89 87  1  0
M  ISO  4   4 101   5 101  53 100  54 100
M  END
>  <TORSDO>  (75) 
F 22

>  <SCORE>  (75) 
-12.494

>  <name>  (75) 
74

>  <ligand_id>  (75) 
74

>  <original_smiles>  (75) 
[H]c1c([H])c([H])c2c(c1[H])C([H])([H])C([H])([H])C([H])([H])C2([H])N([H])C(=O)C1([H])N(C(=O)C([H])(N([H])C(=O)C([H])(N([H])C([H])([H])[H])C([H])([H])[H])C(C([H])([H])[H])(C([H])([H])[H])C([H])([H])[H])C([H])([H])c2c([H])c(OC([H])([H])C([H])([H])C([H])([H])C([H])([H])C([H])([H])[N+]3([H])C([H])([H])C([H])([H])C([H])([H])C3([H])C([H])([H])C(=O)N3C([H])([H])C([H])([H])C([H])([H])C([H])(n4nc(-c5c([H])c([H])c(Oc6c([H])c([H])c(F)c([H])c6F)c([H])c5[H])c(C(=O)N([H])[H])c4N([H])[H])C3([H])[H])c([H])c([H])c2C1([H])[H]

>  <smiles>  (75) 
[H]c1c([H])c([H])c2c(c1[H])C([H])([H])C([H])([H])C([H])([H])C2([H])N([H])C(=O)C1([H])N(C(=O)C([H])(N([H])C(=O)C([H])(N([H])C([H])([H])[H])C([H])([H])[H])C(C([H])([H])[H])(C([H])([H])[H])C([H])([H])[H])C([H])([H])c2c([H])c(OC([H])([H])C([H])([H])C([H])([H])C([H])([H])C([H])([H])[N+]3([H])C([H])([H])C([H])([H])C([H])([H])C3([H])C([H])([H])C(=O)N3C([H])([H])C([H])([H])C([H])([H])C([H])(n4nc(-c5c([H])c([H])c(Oc6c([H])c([H])c(F)c([H])c6F)c([H])c5[H])c(C(=O)N([H])[H])c4N([H])[H])C3([H])[H])c([H])c([H])c2C1([H])[H]

$$$$
75:0:0
     RDKit          3D

 87 94  0  0  1  0  0  0  0  0999 V2000
  -29.2630  -22.9730   20.3200 C   0  0  0  0  0  3  0  0  0  0  0  0
  -29.3140  -20.0920   20.2480 C   0  0  0  0  0  0  0  0  0  0  0  0
  -28.4960  -19.8770   21.4940 C   0  0  0  0  0  1  0  0  0  0  0  0
  -29.3790  -21.4000   19.7390 N   0  0  0  0  0  2  0  0  0  0  0  0
  -30.0380  -18.5460   19.7450 C   0  0  0  0  0  3  0  0  0  0  0  0
  -29.7390  -16.8430   20.2160 C   0  0  0  0  0  2  0  0  0  0  0  0
  -30.5090  -15.3190   19.8360 C   0  0  0  0  0  0  0  0  0  0  0  0
  -30.4200  -12.8790   18.9480 C   0  0  0  0  0  2  0  0  0  0  0  0
  -29.4030  -12.7010   17.7900 C   0  0  0  0  0  2  0  0  0  0  0  0
  -27.9910  -12.4340   18.3360 C   0  0  0  0  0  2  0  0  0  0  0  0
  -27.6320  -13.3880   19.5000 C   0  0  0  0  0  3  0  0  0  0  0  0
  -28.7640  -13.5170   20.5430 C   0  0  0  0  0  2  0  0  0  0  0  0
  -29.9620  -14.0060   19.8410 N   0  0  0  0  0  0  0  0  0  0  0  0
  -31.6840  -15.3330   19.4430 O   0  0  0  0  0  0  0  0  0  0  0  0
  -25.3440  -13.9410   20.4830 C   0  0  0  0  0  0  0  0  0  0  0  0
  -24.3010  -13.1620   20.8970 C   0  0  0  0  0  0  0  0  0  0  0  0
  -24.7400  -11.8090   20.7610 C   0  0  0  0  0  0  0  0  0  0  0  0
  -26.3460  -13.0660   20.1060 N   0  0  0  0  0  0  0  0  0  0  0  0
  -26.0020  -11.7740   20.3430 N   0  0  0  0  0  0  0  0  0  0  0  0
  -24.0100  -10.5470   20.9480 C   0  0  0  0  0  0  0  0  0  0  0  0
  -24.4520   -9.5630   21.8600 C   0  0  0  0  0  3  0  0  0  0  0  0
  -23.7180   -8.3700   22.0370 C   0  0  0  0  0  3  0  0  0  0  0  0
  -22.5290   -8.1510   21.3040 C   0  0  0  0  0  0  0  0  0  0  0  0
  -22.1030   -9.1240   20.3810 C   0  0  0  0  0  3  0  0  0  0  0  0
  -22.8380  -10.3090   20.2010 C   0  0  0  0  0  3  0  0  0  0  0  0
  -21.7680   -7.0100   21.3900 O   0  0  0  0  0  0  0  0  0  0  0  0
  -21.6770   -6.2930   22.5530 C   0  0  0  0  0  0  0  0  0  0  0  0
  -21.1880   -6.8670   23.7470 C   0  0  0  0  0  3  0  0  0  0  0  0
  -21.0440   -6.0750   24.9030 C   0  0  0  0  0  3  0  0  0  0  0  0
  -21.3840   -4.7100   24.8680 C   0  0  0  0  0  0  0  0  0  0  0  0
  -21.8650   -4.1340   23.6800 C   0  0  0  0  0  3  0  0  0  0  0  0
  -22.0100   -4.9230   22.5250 C   0  0  0  0  0  0  0  0  0  0  0  0
  -22.4540   -4.3580   21.3770 F   0  0  0  0  0  0  0  0  0  0  0  0
  -21.2390   -3.9450   25.9780 F   0  0  0  0  0  0  0  0  0  0  0  0
  -22.9390  -13.6420   21.3040 C   0  0  0  0  0  0  0  0  0  0  0  0
  -22.2760  -12.9150   22.1950 N   0  0  0  0  0  0  0  0  0  0  0  0
  -22.4760  -14.6960   20.8690 O   0  0  0  0  0  0  0  0  0  0  0  0
  -22.6690  -12.0580   22.5580 H   0  0  0  0  0  0  0  0  0  0  0  0
  -21.3670  -13.2120   22.5160 H   0  0  0  0  0  0  0  0  0  0  0  0
  -25.5160  -15.3160   20.3630 N   0  0  0  0  0  0  0  0  0  0  0  0
  -24.7760  -15.9770   20.5730 H   0  0  0  0  0  0  0  0  0  0  0  0
  -26.3450  -15.7550   19.9870 H   0  0  0  0  0  0  0  0  0  0  0  0
  -29.9620  -23.0890   21.7110 C   0  0  0  0  0  2  0  0  0  0  0  0
  -29.8260  -23.7220   24.1900 C   0  0  0  0  0  1  0  0  0  0  0  0
  -29.0440  -23.2630   22.9410 C   0  0  0  0  0  2  0  0  0  0  0  0
  -28.1330  -24.3360   20.0070 C   0  0  0  0  0  2  0  0  0  0  0  0
  -28.2800  -25.9680   20.1330 O   0  0  0  0  0  0  0  0  0  0  0  0
  -24.5630  -31.7990   23.0790 C   0  0  0  0  0  0  0  0  0  0  0  0
  -27.2190  -27.0120   20.0610 C   0  0  0  0  0  0  0  0  0  0  0  0
  -23.3930  -30.4060   21.4180 C   0  0  0  0  0  3  0  0  0  0  0  0
  -24.8740  -28.8310   19.9940 C   0  0  0  0  0  0  0  0  0  0  0  0
  -25.9530  -30.6630   21.2830 C   0  0  0  0  0  2  0  0  0  0  0  0
  -26.0480  -29.2610   20.6230 C   0  0  0  0  0  0  0  0  0  0  0  0
  -27.2120  -28.3720   20.6300 C   0  0  0  0  0  3  0  0  0  0  0  0
  -26.0080  -26.7190   19.3920 C   0  0  0  0  0  3  0  0  0  0  0  0
  -24.8750  -27.5800   19.3580 C   0  0  0  0  0  3  0  0  0  0  0  0
  -23.6360  -29.7300   20.0370 C   0  0  0  0  0  2  0  0  0  0  0  0
  -24.6580  -30.9830   21.9820 N   0  0  0  0  0  0  0  0  0  0  0  0
  -23.4680  -32.0700   23.6030 O   0  0  0  0  0  0  0  0  0  0  0  0
  -22.7080  -29.3940   22.3720 C   0  0  0  0  0  0  0  0  0  0  0  0
  -21.3780  -29.2260   22.2520 N   0  0  0  0  0  0  0  0  0  0  0  0
  -23.3780  -28.7600   23.1920 O   0  0  0  0  0  0  0  0  0  0  0  0
  -20.8870  -29.7910   21.5730 H   0  0  0  0  0  0  0  0  0  0  0  0
  -17.9990  -28.0230   22.7760 C   0  0  0  0  0  0  0  0  0  0  0  0
  -20.5640  -28.2760   23.0150 C   0  0  0  0  0  3  0  0  0  0  0  0
  -20.6510  -26.8540   22.4090 C   0  0  0  0  0  2  0  0  0  0  0  0
  -19.5380  -26.5610   21.4010 C   0  0  0  0  0  2  0  0  0  0  0  0
  -18.1640  -26.6910   22.0630 C   0  0  0  0  0  2  0  0  0  0  0  0
  -19.1260  -28.7730   23.2080 C   0  0  0  0  0  0  0  0  0  0  0  0
  -18.9170  -30.0170   23.8400 C   0  0  0  0  0  3  0  0  0  0  0  0
  -17.6160  -30.5130   24.0430 C   0  0  0  0  0  3  0  0  0  0  0  0
  -16.5030  -29.7610   23.6310 C   0  0  0  0  0  3  0  0  0  0  0  0
  -16.6950  -28.5180   23.0000 C   0  0  0  0  0  3  0  0  0  0  0  0
  -25.8250  -32.4520   23.7240 C   0  0  0  0  0  3  0  0  0  0  0  0
  -25.4910  -33.8440   24.0680 N   0  0  0  0  0  0  0  0  0  0  0  0
  -25.7960  -34.9180   23.3280 C   0  0  0  0  0  0  0  0  0  0  0  0
  -26.4590  -34.8450   22.2910 O   0  0  0  0  0  0  0  0  0  0  0  0
  -24.9050  -33.9700   24.8800 H   0  0  0  0  0  0  0  0  0  0  0  0
  -24.0310  -36.6900   23.0400 C   0  0  0  0  0  1  0  0  0  0  0  0
  -25.2920  -36.2910   23.8190 C   0  0  0  0  0  3  0  0  0  0  0  0
  -27.4180  -37.2090   24.6300 C   0  0  0  0  0  1  0  0  0  0  0  0
  -26.3010  -37.3650   23.7050 N   0  0  0  0  0  0  0  0  0  0  0  0
  -25.8790  -38.2740   23.8720 H   0  0  0  0  0  0  0  0  0  0  0  0
  -26.3340  -31.6840   25.0060 C   0  0  1  0  0  0  0  0  0  0  0  0
  -25.2290  -31.4350   26.0580 C   0  0  0  0  0  1  0  0  0  0  0  0
  -26.9390  -30.3120   24.6270 C   0  0  0  0  0  1  0  0  0  0  0  0
  -27.4650  -32.4890   25.6870 C   0  0  0  0  0  1  0  0  0  0  0  0
  1 46  1  0
  1 43  1  0
  2  3  1  0
  4  2  1  0
  4  1  1  0
  5  6  1  0
  5  2  2  0
  7 13  1  0
  7  6  1  0
  8 13  1  0
  9 10  1  0
  9  8  1  0
 11 10  1  0
 11 18  1  0
 11 12  1  0
 13 12  1  0
 14  7  2  0
 15 16  2  0
 16 35  1  0
 17 16  1  0
 17 20  1  0
 18 19  1  0
 18 15  1  0
 19 17  2  0
 20 21  1  0
 21 22  2  0
 23 26  1  0
 23 22  1  0
 24 23  2  0
 25 24  1  0
 25 20  2  0
 26 27  1  0
 27 28  1  0
 28 29  2  0
 30 29  1  0
 30 34  1  0
 31 30  2  0
 32 27  2  0
 32 31  1  0
 33 32  1  0
 35 36  1  0
 36 39  1  0
 36 38  1  0
 37 35  2  0
 40 15  1  0
 40 41  1  0
 42 40  1  0
 43 45  1  0
 45 44  1  0
 46 47  1  0
 48 59  2  0
 49 47  1  0
 49 54  1  0
 50 58  1  0
 50 60  1  0
 51 57  1  0
 51 53  1  0
 52 58  1  0
 53 54  2  0
 53 52  1  0
 55 49  2  0
 56 55  1  0
 56 51  2  0
 57 50  1  0
 58 48  1  0
 60 62  2  0
 61 60  1  0
 63 61  1  0
 64 73  2  0
 64 69  1  0
 65 61  1  0
 65 69  1  0
 66 65  1  0
 67 68  1  0
 67 66  1  0
 68 64  1  0
 69 70  2  0
 70 71  1  0
 72 71  2  0
 73 72  1  0
 74 48  1  0
 74 75  1  0
 74 84  1  0
 75 78  1  0
 76 80  1  0
 76 75  1  0
 77 76  2  0
 80 79  1  0
 82 80  1  0
 82 83  1  0
 82 81  1  0
 84 87  1  1
 84 85  1  0
 86 84  1  0
M  ISO  4   6 100   7 100  46 101  47 101
M  END
>  <TORSDO>  (76) 
F 22

>  <SCORE>  (76) 
-13.389

>  <name>  (76) 
75

>  <ligand_id>  (76) 
75

>  <original_smiles>  (76) 
[H]c1c([H])c([H])c2c(c1[H])C([H])([H])C([H])([H])C([H])([H])C2([H])N([H])C(=O)C1([H])N(C(=O)C([H])(N([H])C(=O)C([H])(N([H])C([H])([H])[H])C([H])([H])[H])C(C([H])([H])[H])(C([H])([H])[H])C([H])([H])[H])C([H])([H])c2c([H])c(OC([H])([H])C([H])(N=C(C([H])([H])[H])C([H])([H])C([H])([H])C(=O)N3C([H])([H])C([H])([H])C([H])([H])C([H])(n4nc(-c5c([H])c([H])c(Oc6c([H])c([H])c(F)c([H])c6F)c([H])c5[H])c(C(=O)N([H])[H])c4N([H])[H])C3([H])[H])C([H])([H])C([H])([H])C([H])([H])[H])c([H])c([H])c2C1([H])[H]

>  <smiles>  (76) 
[H]c1c([H])c([H])c2c(c1[H])C([H])([H])C([H])([H])C([H])([H])C2([H])N([H])C(=O)C1([H])N(C(=O)C([H])(N([H])C(=O)C([H])(N([H])C([H])([H])[H])C([H])([H])[H])C(C([H])([H])[H])(C([H])([H])[H])C([H])([H])[H])C([H])([H])c2c([H])c(OC([H])([H])C([H])(N=C(C([H])([H])[H])C([H])([H])C([H])([H])C(=O)N3C([H])([H])C([H])([H])C([H])([H])C([H])(n4nc(-c5c([H])c([H])c(Oc6c([H])c([H])c(F)c([H])c6F)c([H])c5[H])c(C(=O)N([H])[H])c4N([H])[H])C3([H])[H])C([H])([H])C([H])([H])C([H])([H])[H])c([H])c([H])c2C1([H])[H]

$$$$
76:0:0
     RDKit          3D

 95102  0  0  1  0  0  0  0  0999 V2000
  -28.4390  -22.1020   19.6480 N   0  0  0  0  0  4  0  0  0  0  0  0
  -29.3570  -22.1930   19.2310 H   0  0  0  0  0  0  0  0  0  0  0  0
  -28.5550  -22.3190   20.6240 H   0  0  0  0  0  0  0  0  0  0  0  0
  -27.4430  -20.2030   18.2530 C   0  0  0  0  0  1  0  0  0  0  0  0
  -28.1930  -20.6370   19.5340 C   0  0  0  0  0  3  0  0  0  0  0  0
  -29.5510  -19.9180   19.5880 C   0  0  0  0  0  0  0  0  0  0  0  0
  -29.5850  -18.6460   20.0250 N   0  0  0  0  0  0  0  0  0  0  0  0
  -30.5620  -20.5200   19.2140 O   0  0  0  0  0  0  0  0  0  0  0  0
  -28.7090  -18.2330   20.3150 H   0  0  0  0  0  0  0  0  0  0  0  0
  -30.7830  -17.7990   20.0730 C   0  0  0  0  0  2  0  0  0  0  0  0
  -30.8600  -16.9540   21.3670 C   0  0  0  0  0  2  0  0  0  0  0  0
  -30.0830  -15.6080   21.3710 C   0  0  0  0  0  2  0  0  0  0  0  0
  -30.7320  -14.4610   20.5650 C   0  0  0  0  0  0  0  0  0  0  0  0
  -30.4320  -12.3240   19.3580 C   0  0  0  0  0  2  0  0  0  0  0  0
  -29.5100  -12.5560   18.1430 C   0  0  0  0  0  2  0  0  0  0  0  0
  -28.0270  -12.4340   18.5450 C   0  0  0  0  0  2  0  0  0  0  0  0
  -27.6800  -13.2630   19.8100 C   0  0  0  0  0  3  0  0  0  0  0  0
  -28.7120  -13.0110   20.9330 C   0  0  0  0  0  2  0  0  0  0  0  0
  -30.0510  -13.2950   20.3940 N   0  0  0  0  0  0  0  0  0  0  0  0
  -31.8330  -14.6560   20.0390 O   0  0  0  0  0  0  0  0  0  0  0  0
  -25.2650  -13.8930   20.4450 C   0  0  0  0  0  0  0  0  0  0  0  0
  -24.1840  -13.1340   20.8050 C   0  0  0  0  0  0  0  0  0  0  0  0
  -24.6400  -11.7800   20.8090 C   0  0  0  0  0  0  0  0  0  0  0  0
  -26.3130  -13.0040   20.2610 N   0  0  0  0  0  0  0  0  0  0  0  0
  -25.9370  -11.7280   20.5330 N   0  0  0  0  0  0  0  0  0  0  0  0
  -23.9020  -10.5250   21.0080 C   0  0  0  0  0  0  0  0  0  0  0  0
  -24.3210   -9.5650   21.9550 C   0  0  0  0  0  3  0  0  0  0  0  0
  -23.5870   -8.3740   22.1400 C   0  0  0  0  0  3  0  0  0  0  0  0
  -22.4190   -8.1340   21.3770 C   0  0  0  0  0  0  0  0  0  0  0  0
  -22.0190   -9.0820   20.4180 C   0  0  0  0  0  3  0  0  0  0  0  0
  -22.7530  -10.2650   20.2320 C   0  0  0  0  0  3  0  0  0  0  0  0
  -21.6580   -6.9930   21.4710 O   0  0  0  0  0  0  0  0  0  0  0  0
  -21.6050   -6.2540   22.6250 C   0  0  0  0  0  0  0  0  0  0  0  0
  -21.1990   -6.8210   23.8530 C   0  0  0  0  0  3  0  0  0  0  0  0
  -21.0950   -6.0110   25.0010 C   0  0  0  0  0  3  0  0  0  0  0  0
  -21.3820   -4.6350   24.9200 C   0  0  0  0  0  0  0  0  0  0  0  0
  -21.7810   -4.0680   23.6960 C   0  0  0  0  0  3  0  0  0  0  0  0
  -21.8900   -4.8760   22.5510 C   0  0  0  0  0  0  0  0  0  0  0  0
  -22.2530   -4.3220   21.3700 F   0  0  0  0  0  0  0  0  0  0  0  0
  -21.2750   -3.8540   26.0210 F   0  0  0  0  0  0  0  0  0  0  0  0
  -22.7830  -13.6210   21.0350 C   0  0  0  0  0  0  0  0  0  0  0  0
  -22.0330  -12.9430   21.9000 N   0  0  0  0  0  0  0  0  0  0  0  0
  -22.3610  -14.6390   20.4880 O   0  0  0  0  0  0  0  0  0  0  0  0
  -22.3900  -12.1240   22.3680 H   0  0  0  0  0  0  0  0  0  0  0  0
  -21.0890  -13.2470   22.0940 H   0  0  0  0  0  0  0  0  0  0  0  0
  -25.4390  -15.2580   20.2410 N   0  0  0  0  0  0  0  0  0  0  0  0
  -24.6710  -15.9170   20.3070 H   0  0  0  0  0  0  0  0  0  0  0  0
  -26.3010  -15.6800   19.9200 H   0  0  0  0  0  0  0  0  0  0  0  0
  -27.5120  -23.0680   18.9910 C   0  0  0  0  0  3  0  0  0  0  0  0
  -26.0630  -23.0280   19.5740 C   0  0  0  0  0  2  0  0  0  0  0  0
  -23.5790  -23.5360   19.2010 C   0  0  0  0  0  1  0  0  0  0  0  0
  -24.9610  -23.3720   18.5510 C   0  0  0  0  0  2  0  0  0  0  0  0
  -28.1440  -24.4940   18.9100 C   0  0  0  0  0  2  0  0  0  0  0  0
  -28.2600  -25.2960   20.2420 C   0  0  0  0  0  2  0  0  0  0  0  0
  -28.3730  -26.7200   20.0830 O   0  0  0  0  0  0  0  0  0  0  0  0
  -24.5830  -31.8870   23.2420 C   0  0  0  0  0  0  0  0  0  0  0  0
  -27.1960  -27.4460   20.1160 C   0  0  0  0  0  0  0  0  0  0  0  0
  -23.3650  -30.4860   21.6100 C   0  0  0  0  0  3  0  0  0  0  0  0
  -24.8020  -28.9560   20.1760 C   0  0  0  0  0  0  0  0  0  0  0  0
  -25.8910  -30.8460   21.3890 C   0  0  0  0  0  2  0  0  0  0  0  0
  -25.9720  -29.4770   20.7420 C   0  0  0  0  0  0  0  0  0  0  0  0
  -27.1750  -28.7290   20.7070 C   0  0  0  0  0  3  0  0  0  0  0  0
  -25.9980  -26.9410   19.5640 C   0  0  0  0  0  3  0  0  0  0  0  0
  -24.8090  -27.6830   19.5920 C   0  0  0  0  0  3  0  0  0  0  0  0
  -23.5620  -29.8140   20.2280 C   0  0  0  0  0  2  0  0  0  0  0  0
  -24.6320  -31.0870   22.1370 N   0  0  0  0  0  0  0  0  0  0  0  0
  -23.5060  -32.1590   23.7890 O   0  0  0  0  0  0  0  0  0  0  0  0
  -22.7240  -29.4610   22.5740 C   0  0  0  0  0  0  0  0  0  0  0  0
  -21.3990  -29.2800   22.4560 N   0  0  0  0  0  0  0  0  0  0  0  0
  -23.4140  -28.8330   23.3790 O   0  0  0  0  0  0  0  0  0  0  0  0
  -20.9050  -29.8420   21.7790 H   0  0  0  0  0  0  0  0  0  0  0  0
  -18.0270  -28.0800   22.9690 C   0  0  0  0  0  0  0  0  0  0  0  0
  -20.5860  -28.3410   23.2310 C   0  0  0  0  0  3  0  0  0  0  0  0
  -20.6860  -26.9100   22.6570 C   0  0  0  0  0  2  0  0  0  0  0  0
  -19.5810  -26.5830   21.6470 C   0  0  0  0  0  2  0  0  0  0  0  0
  -18.2010  -26.7290   22.2970 C   0  0  0  0  0  2  0  0  0  0  0  0
  -19.1470  -28.8450   23.3930 C   0  0  0  0  0  0  0  0  0  0  0  0
  -18.9300  -30.1090   23.9820 C   0  0  0  0  0  3  0  0  0  0  0  0
  -17.6260  -30.6120   24.1470 C   0  0  0  0  0  3  0  0  0  0  0  0
  -16.5210  -29.8450   23.7370 C   0  0  0  0  0  3  0  0  0  0  0  0
  -16.7210  -28.5800   23.1570 C   0  0  0  0  0  3  0  0  0  0  0  0
  -25.8760  -32.5140   23.8520 C   0  0  0  0  0  3  0  0  0  0  0  0
  -26.4100  -31.7360   25.1180 C   0  0  1  0  0  0  0  0  0  0  0  0
  -25.3330  -31.4920   26.2000 C   0  0  0  0  0  1  0  0  0  0  0  0
  -26.9860  -30.3600   24.7050 C   0  0  0  0  0  1  0  0  0  0  0  0
  -27.5710  -32.5260   25.7660 C   0  0  0  0  0  1  0  0  0  0  0  0
  -25.5720  -33.9110   24.1880 N   0  0  0  0  0  0  0  0  0  0  0  0
  -25.9020  -34.9620   23.4270 C   0  0  0  0  0  0  0  0  0  0  0  0
  -26.5650  -34.8590   22.3900 O   0  0  0  0  0  0  0  0  0  0  0  0
  -24.9820  -34.0670   24.9930 H   0  0  0  0  0  0  0  0  0  0  0  0
  -24.1730  -36.7560   23.0810 C   0  0  0  0  0  1  0  0  0  0  0  0
  -25.4160  -36.3500   23.8870 C   0  0  0  0  0  3  0  0  0  0  0  0
  -27.5580  -37.2280   24.7070 C   0  0  0  0  0  1  0  0  0  0  0  0
  -26.4480  -37.4020   23.7710 N   0  0  0  0  0  0  0  0  0  0  0  0
  -26.0450  -38.3230   23.9250 H   0  0  0  0  0  0  0  0  0  0  0  0
  1  3  1  0
  2  1  1  0
  5  4  1  0
  5  6  1  0
  5  1  1  0
  6  7  1  0
  7 10  1  0
  7  9  1  0
  8  6  2  0
 10 11  1  0
 11 12  1  0
 13 12  1  0
 14 19  1  0
 15 16  1  0
 15 14  1  0
 17 16  1  0
 17 24  1  0
 17 18  1  0
 19 13  1  0
 19 18  1  0
 20 13  2  0
 21 22  2  0
 22 23  1  0
 22 41  1  0
 23 26  1  0
 24 21  1  0
 24 25  1  0
 25 23  2  0
 26 27  1  0
 27 28  2  0
 29 32  1  0
 29 28  1  0
 30 29  2  0
 31 30  1  0
 31 26  2  0
 32 33  1  0
 33 34  1  0
 34 35  2  0
 36 35  1  0
 36 40  1  0
 37 36  2  0
 38 33  2  0
 38 37  1  0
 39 38  1  0
 41 42  1  0
 42 45  1  0
 42 44  1  0
 43 41  2  0
 46 47  1  0
 46 21  1  0
 48 46  1  0
 49 53  1  0
 49 50  1  0
 49  1  1  0
 52 51  1  0
 52 50  1  0
 53 54  1  0
 55 57  1  0
 55 54  1  0
 56 67  2  0
 57 62  1  0
 58 66  1  0
 58 68  1  0
 59 65  1  0
 59 61  1  0
 60 66  1  0
 61 60  1  0
 62 61  2  0
 63 64  1  0
 63 57  2  0
 64 59  2  0
 65 58  1  0
 66 56  1  0
 68 70  2  0
 69 68  1  0
 71 69  1  0
 72 81  2  0
 72 77  1  0
 73 69  1  0
 73 77  1  0
 74 73  1  0
 75 76  1  0
 75 74  1  0
 76 72  1  0
 77 78  2  0
 78 79  1  0
 80 79  2  0
 81 80  1  0
 82 56  1  0
 82 87  1  0
 82 83  1  0
 83 86  1  1
 83 84  1  0
 85 83  1  0
 87 90  1  0
 88 92  1  0
 88 87  1  0
 89 88  2  0
 92 91  1  0
 94 92  1  0
 94 95  1  0
 94 93  1  0
M  ISO  4  12 100  13 100  54 101  55 101
M  END
>  <TORSDO>  (77) 
F 26

>  <SCORE>  (77) 
-12.146

>  <name>  (77) 
76

>  <ligand_id>  (77) 
76

>  <original_smiles>  (77) 
[H]c1c([H])c([H])c2c(c1[H])C([H])([H])C([H])([H])C([H])([H])C2([H])N([H])C(=O)C1([H])N(C(=O)C([H])(N([H])C(=O)C([H])(N([H])C([H])([H])[H])C([H])([H])[H])C(C([H])([H])[H])(C([H])([H])[H])C([H])([H])[H])C([H])([H])c2c([H])c(OC([H])([H])C([H])([H])C([H])(C([H])([H])C([H])([H])C([H])([H])[H])[N+]([H])([H])C([H])(C(=O)N([H])C([H])([H])C([H])([H])C([H])([H])C(=O)N3C([H])([H])C([H])([H])C([H])([H])C([H])(n4nc(-c5c([H])c([H])c(Oc6c([H])c([H])c(F)c([H])c6F)c([H])c5[H])c(C(=O)N([H])[H])c4N([H])[H])C3([H])[H])C([H])([H])[H])c([H])c([H])c2C1([H])[H]

>  <smiles>  (77) 
[H]c1c([H])c([H])c2c(c1[H])C([H])([H])C([H])([H])C([H])([H])C2([H])N([H])C(=O)C1([H])N(C(=O)C([H])(N([H])C(=O)C([H])(N([H])C([H])([H])[H])C([H])([H])[H])C(C([H])([H])[H])(C([H])([H])[H])C([H])([H])[H])C([H])([H])c2c([H])c(OC([H])([H])C([H])([H])C([H])(C([H])([H])C([H])([H])C([H])([H])[H])[N+]([H])([H])C([H])(C(=O)N([H])C([H])([H])C([H])([H])C([H])([H])C(=O)N3C([H])([H])C([H])([H])C([H])([H])C([H])(n4nc(-c5c([H])c([H])c(Oc6c([H])c([H])c(F)c([H])c6F)c([H])c5[H])c(C(=O)N([H])[H])c4N([H])[H])C3([H])[H])C([H])([H])[H])c([H])c([H])c2C1([H])[H]

$$$$
77:0:0
     RDKit          3D

 90 99  0  0  1  0  0  0  0  0999 V2000
  -29.3150  -20.5070   20.9160 C   0  0  0  0  0  2  0  0  0  0  0  0
  -30.0100  -16.5720   19.8730 C   0  0  0  0  0  3  0  0  0  0  0  0
  -29.0060  -21.6570   20.1510 C   0  0  0  0  0  0  0  0  0  0  0  0
  -29.8010  -17.5310   20.8640 C   0  0  0  0  0  3  0  0  0  0  0  0
  -30.0890  -17.4050   18.5610 C   0  0  0  0  0  2  0  0  0  0  0  0
  -29.0110  -21.3900   18.6340 C   0  0  0  0  0  3  0  0  0  0  0  0
  -29.0180  -19.8620   18.2120 C   0  0  0  0  0  2  0  0  0  0  0  0
  -29.9310  -19.0750   20.3890 C   0  0  0  0  0  3  0  0  0  0  0  0
  -30.1290  -18.9770   18.8730 C   0  0  1  0  0  0  0  0  0  0  0  0
  -29.8090  -17.2590   22.3590 C   0  0  0  0  0  1  0  0  0  0  0  0
  -31.5210  -19.5390   18.4700 C   0  0  0  0  0  1  0  0  0  0  0  0
  -30.6530  -15.1250   19.9280 C   0  0  0  0  0  0  0  0  0  0  0  0
  -30.4100  -12.7710   19.0060 C   0  0  0  0  0  2  0  0  0  0  0  0
  -29.4180  -12.7060   17.8220 C   0  0  0  0  0  2  0  0  0  0  0  0
  -28.0000  -12.4390   18.3460 C   0  0  0  0  0  2  0  0  0  0  0  0
  -27.6370  -13.3720   19.5250 C   0  0  0  0  0  3  0  0  0  0  0  0
  -28.7530  -13.4850   20.5860 C   0  0  0  0  0  2  0  0  0  0  0  0
  -29.9830  -13.8950   19.9010 N   0  0  0  0  0  0  0  0  0  0  0  0
  -31.8640  -15.0380   19.6880 O   0  0  0  0  0  0  0  0  0  0  0  0
  -25.3210  -13.8790   20.4650 C   0  0  0  0  0  0  0  0  0  0  0  0
  -24.2900  -13.0770   20.8650 C   0  0  0  0  0  0  0  0  0  0  0  0
  -24.7650  -11.7340   20.7540 C   0  0  0  0  0  0  0  0  0  0  0  0
  -26.3530  -13.0240   20.1200 N   0  0  0  0  0  0  0  0  0  0  0  0
  -26.0370  -11.7260   20.3660 N   0  0  0  0  0  0  0  0  0  0  0  0
  -24.0620  -10.4580   20.9420 C   0  0  0  0  0  0  0  0  0  0  0  0
  -24.4980   -9.5050   21.8880 C   0  0  0  0  0  3  0  0  0  0  0  0
  -23.7930   -8.2960   22.0610 C   0  0  0  0  0  3  0  0  0  0  0  0
  -22.6380   -8.0280   21.2890 C   0  0  0  0  0  0  0  0  0  0  0  0
  -22.2210   -8.9680   20.3300 C   0  0  0  0  0  3  0  0  0  0  0  0
  -22.9270  -10.1720   20.1550 C   0  0  0  0  0  3  0  0  0  0  0  0
  -21.9050   -6.8690   21.3730 O   0  0  0  0  0  0  0  0  0  0  0  0
  -21.7650   -6.1910   22.5560 C   0  0  0  0  0  0  0  0  0  0  0  0
  -21.1920   -6.7950   23.6960 C   0  0  0  0  0  3  0  0  0  0  0  0
  -21.0010   -6.0430   24.8700 C   0  0  0  0  0  3  0  0  0  0  0  0
  -21.3700   -4.6850   24.9060 C   0  0  0  0  0  0  0  0  0  0  0  0
  -21.9320   -4.0780   23.7680 C   0  0  0  0  0  3  0  0  0  0  0  0
  -22.1280   -4.8300   22.5960 C   0  0  0  0  0  0  0  0  0  0  0  0
  -22.6530   -4.2350   21.4980 F   0  0  0  0  0  0  0  0  0  0  0  0
  -21.1800   -3.9580   26.0320 F   0  0  0  0  0  0  0  0  0  0  0  0
  -22.9090  -13.5270   21.2350 C   0  0  0  0  0  0  0  0  0  0  0  0
  -22.2520  -12.7940   22.1260 N   0  0  0  0  0  0  0  0  0  0  0  0
  -22.4290  -14.5610   20.7760 O   0  0  0  0  0  0  0  0  0  0  0  0
  -22.6560  -11.9490   22.4990 H   0  0  0  0  0  0  0  0  0  0  0  0
  -21.3350  -13.0790   22.4380 H   0  0  0  0  0  0  0  0  0  0  0  0
  -25.4680  -15.2560   20.3320 N   0  0  0  0  0  0  0  0  0  0  0  0
  -24.7150  -15.9090   20.5090 H   0  0  0  0  0  0  0  0  0  0  0  0
  -26.3060  -15.7080   19.9890 H   0  0  0  0  0  0  0  0  0  0  0  0
  -28.9740  -23.2680   20.6350 C   0  0  0  0  0  3  0  0  0  0  0  0
  -27.9730  -24.5920   20.1910 C   0  0  0  0  0  3  0  0  0  0  0  0
  -28.2310  -26.1370   20.4340 O   0  0  0  0  0  0  0  0  0  0  0  0
  -24.6550  -31.9170   23.3470 C   0  0  0  0  0  0  0  0  0  0  0  0
  -27.2060  -27.1630   20.3320 C   0  0  0  0  0  0  0  0  0  0  0  0
  -23.4520  -30.5370   21.6950 C   0  0  0  0  0  3  0  0  0  0  0  0
  -24.9020  -28.9560   20.2690 C   0  0  0  0  0  0  0  0  0  0  0  0
  -26.0090  -30.7810   21.5440 C   0  0  0  0  0  2  0  0  0  0  0  0
  -26.0790  -29.3850   20.8920 C   0  0  0  0  0  0  0  0  0  0  0  0
  -27.2350  -28.5070   20.9040 C   0  0  0  0  0  3  0  0  0  0  0  0
  -26.0090  -26.8520   19.6560 C   0  0  0  0  0  3  0  0  0  0  0  0
  -24.8830  -27.7060   19.6300 C   0  0  0  0  0  3  0  0  0  0  0  0
  -23.6780  -29.8620   20.3150 C   0  0  0  0  0  2  0  0  0  0  0  0
  -24.7260  -31.0990   22.2500 N   0  0  0  0  0  0  0  0  0  0  0  0
  -23.5710  -32.2060   23.8720 O   0  0  0  0  0  0  0  0  0  0  0  0
  -22.7600  -29.5360   22.6470 C   0  0  0  0  0  0  0  0  0  0  0  0
  -21.4370  -29.3520   22.4920 N   0  0  0  0  0  0  0  0  0  0  0  0
  -23.4160  -28.9200   23.4890 O   0  0  0  0  0  0  0  0  0  0  0  0
  -20.9600  -29.8990   21.7880 H   0  0  0  0  0  0  0  0  0  0  0  0
  -18.0620  -28.1030   22.9200 C   0  0  0  0  0  0  0  0  0  0  0  0
  -20.6100  -28.4140   23.2550 C   0  0  0  0  0  3  0  0  0  0  0  0
  -20.7490  -26.9750   22.7070 C   0  0  0  0  0  2  0  0  0  0  0  0
  -19.6820  -26.6170   21.6670 C   0  0  0  0  0  2  0  0  0  0  0  0
  -18.2810  -26.7470   22.2680 C   0  0  0  0  0  2  0  0  0  0  0  0
  -19.1540  -28.8900   23.3700 C   0  0  0  0  0  0  0  0  0  0  0  0
  -18.8970  -30.1570   23.9400 C   0  0  0  0  0  3  0  0  0  0  0  0
  -17.5790  -30.6350   24.0640 C   0  0  0  0  0  3  0  0  0  0  0  0
  -16.5010  -29.8460   23.6280 C   0  0  0  0  0  3  0  0  0  0  0  0
  -16.7430  -28.5820   23.0590 C   0  0  0  0  0  3  0  0  0  0  0  0
  -25.9300  -32.5480   23.9820 C   0  0  0  0  0  3  0  0  0  0  0  0
  -25.6330  -33.9580   24.2890 N   0  0  0  0  0  0  0  0  0  0  0  0
  -25.9570  -34.9960   23.5070 C   0  0  0  0  0  0  0  0  0  0  0  0
  -26.6070  -34.8690   22.4680 O   0  0  0  0  0  0  0  0  0  0  0  0
  -25.0530  -34.1320   25.0970 H   0  0  0  0  0  0  0  0  0  0  0  0
  -24.2240  -36.7910   23.1760 C   0  0  0  0  0  1  0  0  0  0  0  0
  -25.4920  -36.3980   23.9500 C   0  0  0  0  0  3  0  0  0  0  0  0
  -27.6550  -37.3010   24.6810 C   0  0  0  0  0  1  0  0  0  0  0  0
  -26.5220  -37.4440   23.7720 N   0  0  0  0  0  0  0  0  0  0  0  0
  -26.1190  -38.3680   23.9040 H   0  0  0  0  0  0  0  0  0  0  0  0
  -26.4070  -31.7960   25.2860 C   0  0  1  0  0  0  0  0  0  0  0  0
  -25.2860  -31.5990   26.3340 C   0  0  0  0  0  1  0  0  0  0  0  0
  -26.9760  -30.3990   24.9460 C   0  0  0  0  0  1  0  0  0  0  0  0
  -27.5540  -32.5920   25.9570 C   0  0  0  0  0  1  0  0  0  0  0  0
  2 12  1  0
  2  4  1  0
  3 48  1  0
  3  1  1  0
  4 10  1  0
  5  9  1  0
  5  2  1  0
  6  3  2  0
  7  6  1  0
  7  9  1  0
  8  4  1  0
  8  1  1  0
  9 11  1  1
  9  8  1  0
 13 18  1  0
 14 15  1  0
 14 13  1  0
 16 15  1  0
 16 23  1  0
 16 17  1  0
 18 12  1  0
 18 17  1  0
 19 12  2  0
 20 21  2  0
 21 40  1  0
 22 21  1  0
 22 25  1  0
 23 24  1  0
 23 20  1  0
 24 22  2  0
 25 26  1  0
 26 27  2  0
 28 31  1  0
 28 27  1  0
 29 28  2  0
 30 29  1  0
 30 25  2  0
 31 32  1  0
 32 37  2  0
 32 33  1  0
 33 34  2  0
 34 35  1  0
 35 39  1  0
 36 35  2  0
 37 36  1  0
 38 37  1  0
 40 41  1  0
 41 44  1  0
 41 43  1  0
 42 40  2  0
 45 20  1  0
 45 46  1  0
 47 45  1  0
 49 50  1  0
 49 48  2  0
 51 62  2  0
 52 50  1  0
 52 57  1  0
 53 61  1  0
 53 63  1  0
 54 60  1  0
 54 56  1  0
 55 61  1  0
 56 57  2  0
 56 55  1  0
 58 52  2  0
 59 58  1  0
 59 54  2  0
 60 53  1  0
 61 51  1  0
 63 65  2  0
 64 63  1  0
 66 64  1  0
 67 76  2  0
 67 72  1  0
 68 64  1  0
 68 72  1  0
 69 68  1  0
 70 71  1  0
 70 69  1  0
 71 67  1  0
 72 73  2  0
 73 74  1  0
 75 74  2  0
 76 75  1  0
 77 51  1  0
 77 78  1  0
 77 87  1  0
 78 81  1  0
 79 83  1  0
 79 78  1  0
 80 79  2  0
 83 82  1  0
 85 86  1  0
 85 83  1  0
 85 84  1  0
 87 90  1  1
 87 88  1  0
 89 87  1  0
M  ISO  4   2 100  12 100  49 101  50 101
M  END
>  <TORSDO>  (78) 
F 18

>  <SCORE>  (78) 
-14.807

>  <name>  (78) 
77

>  <ligand_id>  (78) 
77

>  <original_smiles>  (78) 
[H]C1=C(C([H])([H])C([H])([H])Oc2c([H])c([H])c3c(c2[H])C([H])([H])N(C(=O)C([H])(N([H])C(=O)C([H])(N([H])C([H])([H])[H])C([H])([H])[H])C(C([H])([H])[H])(C([H])([H])[H])C([H])([H])[H])C([H])(C(=O)N([H])C2([H])c4c([H])c([H])c([H])c([H])c4C([H])([H])C([H])([H])C2([H])[H])C3([H])[H])C([H])([H])C([H])([H])C2(C([H])([H])[H])C([H])([H])C(C(=O)N3C([H])([H])C([H])([H])C([H])([H])C([H])(n4nc(-c5c([H])c([H])c(Oc6c([H])c([H])c(F)c([H])c6F)c([H])c5[H])c(C(=O)N([H])[H])c4N([H])[H])C3([H])[H])=C(C([H])([H])[H])C12[H]

>  <smiles>  (78) 
[H]C1=C(C([H])([H])C([H])([H])Oc2c([H])c([H])c3c(c2[H])C([H])([H])N(C(=O)C([H])(N([H])C(=O)C([H])(N([H])C([H])([H])[H])C([H])([H])[H])C(C([H])([H])[H])(C([H])([H])[H])C([H])([H])[H])C([H])(C(=O)N([H])C2([H])c4c([H])c([H])c([H])c([H])c4C([H])([H])C([H])([H])C2([H])[H])C3([H])[H])C([H])([H])C([H])([H])C2(C([H])([H])[H])C([H])([H])C(C(=O)N3C([H])([H])C([H])([H])C([H])([H])C([H])(n4nc(-c5c([H])c([H])c(Oc6c([H])c([H])c(F)c([H])c6F)c([H])c5[H])c(C(=O)N([H])[H])c4N([H])[H])C3([H])[H])=C(C([H])([H])[H])C12[H]

$$$$
78:0:0
     RDKit          3D

 87 95  0  0  1  0  0  0  0  0999 V2000
  -31.2130  -22.5180   20.5560 C   0  0  0  0  0  3  0  0  0  0  0  0
  -30.8330  -21.1520   20.5380 C   0  0  0  0  0  3  0  0  0  0  0  0
  -30.2840  -23.5820   20.4450 C   0  0  0  0  0  3  0  0  0  0  0  0
  -28.5510  -21.8920   20.2950 C   0  0  0  0  0  3  0  0  0  0  0  0
  -29.4870  -20.7380   20.4130 C   0  0  0  0  0  0  0  0  0  0  0  0
  -28.9030  -23.3430   20.3070 C   0  0  0  0  0  0  0  0  0  0  0  0
  -29.1880  -19.1560   20.4360 C   0  0  0  0  0  3  0  0  0  0  0  0
  -29.9870  -17.9760   20.5030 C   0  0  0  0  0  3  0  0  0  0  0  0
  -29.5900  -16.3730   20.6200 C   0  0  0  0  0  2  0  0  0  0  0  0
  -30.4710  -14.9860   20.3280 C   0  0  0  0  0  0  0  0  0  0  0  0
  -30.3930  -12.6340   19.3650 C   0  0  0  0  0  2  0  0  0  0  0  0
  -29.4490  -12.6130   18.1370 C   0  0  0  0  0  2  0  0  0  0  0  0
  -27.9860  -12.3910   18.5700 C   0  0  0  0  0  2  0  0  0  0  0  0
  -27.5840  -13.2970   19.7620 C   0  0  0  0  0  3  0  0  0  0  0  0
  -28.6450  -13.2860   20.8820 C   0  0  0  0  0  2  0  0  0  0  0  0
  -29.9220  -13.7030   20.2900 N   0  0  0  0  0  0  0  0  0  0  0  0
  -31.6590  -15.0850   19.9990 O   0  0  0  0  0  0  0  0  0  0  0  0
  -25.2020  -13.8600   20.5110 C   0  0  0  0  0  0  0  0  0  0  0  0
  -24.1440  -13.0790   20.8850 C   0  0  0  0  0  0  0  0  0  0  0  0
  -24.6160  -11.7310   20.8510 C   0  0  0  0  0  0  0  0  0  0  0  0
  -26.2490  -12.9890   20.2660 N   0  0  0  0  0  0  0  0  0  0  0  0
  -25.9070  -11.7030   20.5360 N   0  0  0  0  0  0  0  0  0  0  0  0
  -23.8980  -10.4640   21.0450 C   0  0  0  0  0  0  0  0  0  0  0  0
  -24.3400   -9.4980   21.9750 C   0  0  0  0  0  3  0  0  0  0  0  0
  -23.6210   -8.2970   22.1560 C   0  0  0  0  0  3  0  0  0  0  0  0
  -22.4450   -8.0530   21.4070 C   0  0  0  0  0  0  0  0  0  0  0  0
  -22.0230   -9.0090   20.4650 C   0  0  0  0  0  3  0  0  0  0  0  0
  -22.7430  -10.2010   20.2820 C   0  0  0  0  0  3  0  0  0  0  0  0
  -21.6970   -6.9040   21.4960 O   0  0  0  0  0  0  0  0  0  0  0  0
  -21.6590   -6.1590   22.6470 C   0  0  0  0  0  0  0  0  0  0  0  0
  -21.2370   -6.7080   23.8770 C   0  0  0  0  0  3  0  0  0  0  0  0
  -21.1460   -5.8890   25.0210 C   0  0  0  0  0  3  0  0  0  0  0  0
  -21.4670   -4.5210   24.9340 C   0  0  0  0  0  0  0  0  0  0  0  0
  -21.8820   -3.9710   23.7080 C   0  0  0  0  0  3  0  0  0  0  0  0
  -21.9740   -4.7880   22.5680 C   0  0  0  0  0  0  0  0  0  0  0  0
  -22.3540   -4.2480   21.3850 F   0  0  0  0  0  0  0  0  0  0  0  0
  -21.3730   -3.7320   26.0300 F   0  0  0  0  0  0  0  0  0  0  0  0
  -22.7440  -13.5470   21.1580 C   0  0  0  0  0  0  0  0  0  0  0  0
  -22.0230  -12.8490   22.0300 N   0  0  0  0  0  0  0  0  0  0  0  0
  -22.2980  -14.5680   20.6360 O   0  0  0  0  0  0  0  0  0  0  0  0
  -22.3980  -12.0240   22.4740 H   0  0  0  0  0  0  0  0  0  0  0  0
  -21.0850  -13.1450   22.2560 H   0  0  0  0  0  0  0  0  0  0  0  0
  -25.3560  -15.2330   20.3360 N   0  0  0  0  0  0  0  0  0  0  0  0
  -24.5870  -15.8830   20.4580 H   0  0  0  0  0  0  0  0  0  0  0  0
  -26.2070  -15.6800   20.0180 H   0  0  0  0  0  0  0  0  0  0  0  0
  -27.8870  -24.6330   20.1310 C   0  0  0  0  0  2  0  0  0  0  0  0
  -28.2280  -26.1530   20.2720 O   0  0  0  0  0  0  0  0  0  0  0  0
  -24.6480  -31.8950   23.2420 C   0  0  0  0  0  0  0  0  0  0  0  0
  -27.1860  -27.1560   20.2060 C   0  0  0  0  0  0  0  0  0  0  0  0
  -23.4350  -30.5060   21.6070 C   0  0  0  0  0  3  0  0  0  0  0  0
  -24.8690  -28.9240   20.1790 C   0  0  0  0  0  0  0  0  0  0  0  0
  -25.9910  -30.7530   21.4350 C   0  0  0  0  0  2  0  0  0  0  0  0
  -26.0550  -29.3610   20.7840 C   0  0  0  0  0  0  0  0  0  0  0  0
  -27.2140  -28.4940   20.7780 C   0  0  0  0  0  3  0  0  0  0  0  0
  -25.9710  -26.8280   19.5610 C   0  0  0  0  0  3  0  0  0  0  0  0
  -24.8410  -27.6710   19.5520 C   0  0  0  0  0  3  0  0  0  0  0  0
  -23.6470  -29.8290   20.2290 C   0  0  0  0  0  2  0  0  0  0  0  0
  -24.7120  -31.0730   22.1490 N   0  0  0  0  0  0  0  0  0  0  0  0
  -23.5650  -32.1870   23.7720 O   0  0  0  0  0  0  0  0  0  0  0  0
  -22.7520  -29.5040   22.5720 C   0  0  0  0  0  0  0  0  0  0  0  0
  -21.4230  -29.3410   22.4510 N   0  0  0  0  0  0  0  0  0  0  0  0
  -23.4220  -28.8730   23.3950 O   0  0  0  0  0  0  0  0  0  0  0  0
  -20.9380  -29.9000   21.7620 H   0  0  0  0  0  0  0  0  0  0  0  0
  -18.0350  -28.1610   22.9640 C   0  0  0  0  0  0  0  0  0  0  0  0
  -20.5960  -28.4120   23.2260 C   0  0  0  0  0  3  0  0  0  0  0  0
  -20.6890  -26.9770   22.6570 C   0  0  0  0  0  2  0  0  0  0  0  0
  -19.5850  -26.6570   21.6450 C   0  0  0  0  0  2  0  0  0  0  0  0
  -18.2050  -26.8100   22.2910 C   0  0  0  0  0  2  0  0  0  0  0  0
  -19.1590  -28.9200   23.3890 C   0  0  0  0  0  0  0  0  0  0  0  0
  -18.9450  -30.1850   23.9810 C   0  0  0  0  0  3  0  0  0  0  0  0
  -17.6420  -30.6900   24.1490 C   0  0  0  0  0  3  0  0  0  0  0  0
  -16.5340  -29.9290   23.7390 C   0  0  0  0  0  3  0  0  0  0  0  0
  -16.7310  -28.6660   23.1520 C   0  0  0  0  0  3  0  0  0  0  0  0
  -25.9320  -32.5240   23.8640 C   0  0  0  0  0  3  0  0  0  0  0  0
  -26.4470  -31.7460   25.1380 C   0  0  1  0  0  0  0  0  0  0  0  0
  -25.3550  -31.5120   26.2090 C   0  0  0  0  0  1  0  0  0  0  0  0
  -27.0210  -30.3660   24.7450 C   0  0  0  0  0  1  0  0  0  0  0  0
  -27.6040  -32.5330   25.7970 C   0  0  0  0  0  1  0  0  0  0  0  0
  -25.6250  -33.9220   24.2070 N   0  0  0  0  0  0  0  0  0  0  0  0
  -25.9320  -34.9800   23.4460 C   0  0  0  0  0  0  0  0  0  0  0  0
  -26.5700  -34.8830   22.3940 O   0  0  0  0  0  0  0  0  0  0  0  0
  -25.0540  -34.0700   25.0270 H   0  0  0  0  0  0  0  0  0  0  0  0
  -24.1780  -36.7650   23.1740 C   0  0  0  0  0  1  0  0  0  0  0  0
  -25.4590  -36.3670   23.9260 C   0  0  0  0  0  3  0  0  0  0  0  0
  -27.6220  -37.2680   24.6570 C   0  0  0  0  0  1  0  0  0  0  0  0
  -26.4780  -37.4270   23.7650 N   0  0  0  0  0  0  0  0  0  0  0  0
  -26.0740  -38.3450   23.9280 H   0  0  0  0  0  0  0  0  0  0  0  0
  2  1  1  0
  3  1  2  0
  4  6  2  0
  4  5  1  0
  5  7  1  0
  5  2  2  0
  6  3  1  0
  7  8  2  0
  8  9  1  0
 10  9  1  0
 11 16  1  0
 12 13  1  0
 12 11  1  0
 14 13  1  0
 14 21  1  0
 14 15  1  0
 16 10  1  0
 16 15  1  0
 17 10  2  0
 18 19  2  0
 19 38  1  0
 20 19  1  0
 20 23  1  0
 21 18  1  0
 21 22  1  0
 22 20  2  0
 23 24  1  0
 24 25  2  0
 26 29  1  0
 26 25  1  0
 27 26  2  0
 28 27  1  0
 28 23  2  0
 29 30  1  0
 30 31  1  0
 31 32  2  0
 33 32  1  0
 33 37  1  0
 34 33  2  0
 35 30  2  0
 35 34  1  0
 36 35  1  0
 38 39  1  0
 39 42  1  0
 39 41  1  0
 40 38  2  0
 43 44  1  0
 43 18  1  0
 45 43  1  0
 46 47  1  0
 46  6  1  0
 48 59  2  0
 49 47  1  0
 49 54  1  0
 50 58  1  0
 50 60  1  0
 51 57  1  0
 51 53  1  0
 52 58  1  0
 53 52  1  0
 54 53  2  0
 55 49  2  0
 56 55  1  0
 56 51  2  0
 57 50  1  0
 58 48  1  0
 60 62  2  0
 61 60  1  0
 63 61  1  0
 64 73  2  0
 64 69  1  0
 65 61  1  0
 65 69  1  0
 66 65  1  0
 67 68  1  0
 67 66  1  0
 68 64  1  0
 69 70  2  0
 70 71  1  0
 72 71  2  0
 73 72  1  0
 74 48  1  0
 74 79  1  0
 74 75  1  0
 75 78  1  1
 75 76  1  0
 77 75  1  0
 79 82  1  0
 80 84  1  0
 80 79  1  0
 81 80  2  0
 84 83  1  0
 86 84  1  0
 86 87  1  0
 86 85  1  0
M  ISO  4   9 100  10 100  46 101  47 101
M  END
>  <TORSDO>  (79) 
F 19

>  <SCORE>  (79) 
-14.149

>  <name>  (79) 
78

>  <ligand_id>  (79) 
78

>  <original_smiles>  (79) 
[H]C(=C([H])C([H])([H])C(=O)N1C([H])([H])C([H])([H])C([H])([H])C([H])(n2nc(-c3c([H])c([H])c(Oc4c([H])c([H])c(F)c([H])c4F)c([H])c3[H])c(C(=O)N([H])[H])c2N([H])[H])C1([H])[H])c1c([H])c([H])c([H])c(C([H])([H])Oc2c([H])c([H])c3c(c2[H])C([H])([H])N(C(=O)C([H])(N([H])C(=O)C([H])(N([H])C([H])([H])[H])C([H])([H])[H])C(C([H])([H])[H])(C([H])([H])[H])C([H])([H])[H])C([H])(C(=O)N([H])C2([H])c4c([H])c([H])c([H])c([H])c4C([H])([H])C([H])([H])C2([H])[H])C3([H])[H])c1[H]

>  <smiles>  (79) 
[H]C(=C([H])C([H])([H])C(=O)N1C([H])([H])C([H])([H])C([H])([H])C([H])(n2nc(-c3c([H])c([H])c(Oc4c([H])c([H])c(F)c([H])c4F)c([H])c3[H])c(C(=O)N([H])[H])c2N([H])[H])C1([H])[H])c1c([H])c([H])c([H])c(C([H])([H])Oc2c([H])c([H])c3c(c2[H])C([H])([H])N(C(=O)C([H])(N([H])C(=O)C([H])(N([H])C([H])([H])[H])C([H])([H])[H])C(C([H])([H])[H])(C([H])([H])[H])C([H])([H])[H])C([H])(C(=O)N([H])C2([H])c4c([H])c([H])c([H])c([H])c4C([H])([H])C([H])([H])C2([H])[H])C3([H])[H])c1[H]

$$$$
79:0:0
     RDKit          3D

 95103  0  0  1  0  0  0  0  0999 V2000
  -26.2460  -21.1300   19.8280 C   0  0  0  0  0  2  0  0  0  0  0  0
  -27.0070  -22.3200   20.4250 C   0  0  0  0  0  2  0  0  0  0  0  0
  -27.2610  -19.9880   19.7070 C   0  0  0  0  0  2  0  0  0  0  0  0
  -28.4910  -21.9130   20.5000 C   0  0  0  0  0  3  0  0  0  0  0  0
  -28.4420  -20.3700   20.6180 C   0  0  0  0  0  3  0  0  0  0  0  0
  -30.2930  -19.7240   18.9130 C   0  0  0  0  0  1  0  0  0  0  0  0
  -29.7560  -19.5680   20.3540 C   0  0  0  0  0  3  0  0  0  0  0  0
  -29.5390  -18.1410   20.7300 N   0  0  0  0  0  4  0  0  0  0  0  0
  -29.2230  -18.1340   21.6870 H   0  0  0  0  0  0  0  0  0  0  0  0
  -28.7830  -17.7880   20.1650 H   0  0  0  0  0  0  0  0  0  0  0  0
  -30.6920  -17.2040   20.6220 C   0  0  0  0  0  2  0  0  0  0  0  0
  -30.3660  -15.8010   21.2120 C   0  0  0  0  0  2  0  0  0  0  0  0
  -31.0730  -14.6160   20.5090 C   0  0  0  0  0  0  0  0  0  0  0  0
  -30.8240  -12.4340   19.3650 C   0  0  0  0  0  2  0  0  0  0  0  0
  -29.9130  -12.6120   18.1320 C   0  0  0  0  0  2  0  0  0  0  0  0
  -28.4250  -12.4940   18.5220 C   0  0  0  0  0  2  0  0  0  0  0  0
  -28.0600  -13.3620   19.7550 C   0  0  0  0  0  3  0  0  0  0  0  0
  -29.0790  -13.1340   20.8960 C   0  0  0  0  0  2  0  0  0  0  0  0
  -30.4190  -13.4310   20.3670 N   0  0  0  0  0  0  0  0  0  0  0  0
  -32.1900  -14.8090   20.0160 O   0  0  0  0  0  0  0  0  0  0  0  0
  -25.6510  -14.0210   20.3800 C   0  0  0  0  0  0  0  0  0  0  0  0
  -24.5600  -13.2710   20.7250 C   0  0  0  0  0  0  0  0  0  0  0  0
  -24.9990  -11.9120   20.7240 C   0  0  0  0  0  0  0  0  0  0  0  0
  -26.6870  -13.1190   20.1920 N   0  0  0  0  0  0  0  0  0  0  0  0
  -26.2960  -11.8460   20.4540 N   0  0  0  0  0  0  0  0  0  0  0  0
  -24.2510  -10.6640   20.9110 C   0  0  0  0  0  0  0  0  0  0  0  0
  -24.5940   -9.7440   21.9260 C   0  0  0  0  0  3  0  0  0  0  0  0
  -23.8470   -8.5570   22.0980 C   0  0  0  0  0  3  0  0  0  0  0  0
  -22.7450   -8.2850   21.2530 C   0  0  0  0  0  0  0  0  0  0  0  0
  -22.4220   -9.1940   20.2300 C   0  0  0  0  0  3  0  0  0  0  0  0
  -23.1690  -10.3710   20.0580 C   0  0  0  0  0  3  0  0  0  0  0  0
  -21.9790   -7.1460   21.3280 O   0  0  0  0  0  0  0  0  0  0  0  0
  -21.7610   -6.5050   22.5210 C   0  0  0  0  0  0  0  0  0  0  0  0
  -21.1280   -7.1470   23.6070 C   0  0  0  0  0  3  0  0  0  0  0  0
  -20.8590   -6.4280   24.7890 C   0  0  0  0  0  3  0  0  0  0  0  0
  -21.2130   -5.0690   24.8840 C   0  0  0  0  0  0  0  0  0  0  0  0
  -21.8390   -4.4270   23.8010 C   0  0  0  0  0  3  0  0  0  0  0  0
  -22.1080   -5.1430   22.6210 C   0  0  0  0  0  0  0  0  0  0  0  0
  -22.6930   -4.5140   21.5720 F   0  0  0  0  0  0  0  0  0  0  0  0
  -20.9490   -4.3760   26.0170 F   0  0  0  0  0  0  0  0  0  0  0  0
  -23.1620  -13.7730   20.9490 C   0  0  0  0  0  0  0  0  0  0  0  0
  -22.4030  -13.1030   21.8080 N   0  0  0  0  0  0  0  0  0  0  0  0
  -22.7540  -14.7940   20.4000 O   0  0  0  0  0  0  0  0  0  0  0  0
  -22.7430  -12.2720   22.2690 H   0  0  0  0  0  0  0  0  0  0  0  0
  -21.4660  -13.4260   22.0080 H   0  0  0  0  0  0  0  0  0  0  0  0
  -25.8460  -15.3860   20.1940 N   0  0  0  0  0  0  0  0  0  0  0  0
  -25.0880  -16.0550   20.2690 H   0  0  0  0  0  0  0  0  0  0  0  0
  -26.7030  -15.7910   19.8440 H   0  0  0  0  0  0  0  0  0  0  0  0
  -29.2620  -22.6300   21.6340 C   0  0  0  0  0  2  0  0  0  0  0  0
  -29.6410  -25.0290   21.0150 C   0  0  0  0  0  0  0  0  0  0  0  0
  -28.9860  -24.0670   21.6790 N   0  0  0  0  0  0  0  0  0  0  0  0
  -30.5930  -24.7840   20.2690 O   0  0  0  0  0  0  0  0  0  0  0  0
  -28.2220  -24.3640   22.2710 H   0  0  0  0  0  0  0  0  0  0  0  0
  -29.1460  -26.4750   21.1950 C   0  0  0  0  0  2  0  0  0  0  0  0
  -28.5820  -26.9110   19.9610 O   0  0  0  0  0  0  0  0  0  0  0  0
  -24.6260  -31.8970   23.2300 C   0  0  0  0  0  0  0  0  0  0  0  0
  -27.4180  -27.6310   20.0490 C   0  0  0  0  0  0  0  0  0  0  0  0
  -23.4770  -30.5240   21.5220 C   0  0  0  0  0  3  0  0  0  0  0  0
  -24.9870  -29.0630   20.0780 C   0  0  0  0  0  0  0  0  0  0  0  0
  -25.9940  -30.9450   21.3800 C   0  0  0  0  0  2  0  0  0  0  0  0
  -26.1200  -29.5950   20.7080 C   0  0  0  0  0  0  0  0  0  0  0  0
  -27.3400  -28.8800   20.7030 C   0  0  0  0  0  3  0  0  0  0  0  0
  -26.2740  -27.1100   19.4130 C   0  0  0  0  0  3  0  0  0  0  0  0
  -25.0560  -27.8160   19.4330 C   0  0  0  0  0  3  0  0  0  0  0  0
  -23.7230  -29.8910   20.1260 C   0  0  0  0  0  2  0  0  0  0  0  0
  -24.7160  -31.1350   22.1040 N   0  0  0  0  0  0  0  0  0  0  0  0
  -23.5320  -32.1290   23.7600 O   0  0  0  0  0  0  0  0  0  0  0  0
  -22.8310  -29.4590   22.4370 C   0  0  0  0  0  0  0  0  0  0  0  0
  -21.5130  -29.2580   22.2820 N   0  0  0  0  0  0  0  0  0  0  0  0
  -23.5140  -28.8180   23.2400 O   0  0  0  0  0  0  0  0  0  0  0  0
  -21.0230  -29.8310   21.6090 H   0  0  0  0  0  0  0  0  0  0  0  0
  -18.1540  -27.9880   22.6800 C   0  0  0  0  0  0  0  0  0  0  0  0
  -20.7010  -28.2790   23.0040 C   0  0  0  0  0  3  0  0  0  0  0  0
  -20.8380  -26.8710   22.3810 C   0  0  0  0  0  2  0  0  0  0  0  0
  -19.7600  -26.5650   21.3370 C   0  0  0  0  0  2  0  0  0  0  0  0
  -18.3650  -26.6660   21.9610 C   0  0  0  0  0  2  0  0  0  0  0  0
  -19.2520  -28.7540   23.1550 C   0  0  0  0  0  0  0  0  0  0  0  0
  -19.0020  -29.9930   23.7840 C   0  0  0  0  0  3  0  0  0  0  0  0
  -17.6870  -30.4680   23.9420 C   0  0  0  0  0  3  0  0  0  0  0  0
  -16.6030  -29.6980   23.4860 C   0  0  0  0  0  3  0  0  0  0  0  0
  -16.8360  -28.4600   22.8610 C   0  0  0  0  0  3  0  0  0  0  0  0
  -25.8910  -32.5300   23.8910 C   0  0  0  0  0  3  0  0  0  0  0  0
  -25.5740  -33.9310   24.1980 N   0  0  0  0  0  0  0  0  0  0  0  0
  -25.9330  -34.9750   23.4390 C   0  0  0  0  0  0  0  0  0  0  0  0
  -26.6380  -34.8610   22.4320 O   0  0  0  0  0  0  0  0  0  0  0  0
  -24.9550  -34.0960   24.9770 H   0  0  0  0  0  0  0  0  0  0  0  0
  -24.2220  -36.7660   23.0030 C   0  0  0  0  0  1  0  0  0  0  0  0
  -25.4300  -36.3680   23.8650 C   0  0  0  0  0  3  0  0  0  0  0  0
  -27.5250  -37.2650   24.7780 C   0  0  0  0  0  1  0  0  0  0  0  0
  -26.4670  -37.4190   23.7830 N   0  0  0  0  0  0  0  0  0  0  0  0
  -26.0540  -38.3400   23.9010 H   0  0  0  0  0  0  0  0  0  0  0  0
  -26.3650  -31.7660   25.1870 C   0  0  1  0  0  0  0  0  0  0  0  0
  -25.2380  -31.5360   26.2200 C   0  0  0  0  0  1  0  0  0  0  0  0
  -26.9600  -30.3860   24.8220 C   0  0  0  0  0  1  0  0  0  0  0  0
  -27.4950  -32.5640   25.8820 C   0  0  0  0  0  1  0  0  0  0  0  0
  1  2  1  0
  2  4  1  0
  3  1  1  0
  3  5  1  0
  4  5  1  0
  4 49  1  0
  5  7  1  0
  7  6  1  0
  7  8  1  0
  8  9  1  0
 10  8  1  0
 11  8  1  0
 11 12  1  0
 13 12  1  0
 14 19  1  0
 15 16  1  0
 15 14  1  0
 17 16  1  0
 17 24  1  0
 17 18  1  0
 19 13  1  0
 19 18  1  0
 20 13  2  0
 21 22  2  0
 22 41  1  0
 23 22  1  0
 23 26  1  0
 24 21  1  0
 24 25  1  0
 25 23  2  0
 26 27  1  0
 27 28  2  0
 29 32  1  0
 29 28  1  0
 30 29  2  0
 31 30  1  0
 31 26  2  0
 32 33  1  0
 33 38  2  0
 33 34  1  0
 34 35  2  0
 35 36  1  0
 36 40  1  0
 37 36  2  0
 38 37  1  0
 39 38  1  0
 41 42  1  0
 42 45  1  0
 42 44  1  0
 43 41  2  0
 46 47  1  0
 46 21  1  0
 48 46  1  0
 49 51  1  0
 50 54  1  0
 50 51  1  0
 51 53  1  0
 52 50  2  0
 55 57  1  0
 55 54  1  0
 56 67  2  0
 57 62  1  0
 58 66  1  0
 58 68  1  0
 59 65  1  0
 59 61  1  0
 60 66  1  0
 61 60  1  0
 62 61  2  0
 63 64  1  0
 63 57  2  0
 64 59  2  0
 65 58  1  0
 66 56  1  0
 68 70  2  0
 69 68  1  0
 71 69  1  0
 72 81  2  0
 72 77  1  0
 73 69  1  0
 73 77  1  0
 74 73  1  0
 75 76  1  0
 75 74  1  0
 76 72  1  0
 77 78  2  0
 78 79  1  0
 80 79  2  0
 81 80  1  0
 82 56  1  0
 82 83  1  0
 82 92  1  0
 83 86  1  0
 84 88  1  0
 84 83  1  0
 85 84  2  0
 88 87  1  0
 90 88  1  0
 90 91  1  0
 90 89  1  0
 92 95  1  1
 92 93  1  0
 94 92  1  0
M  ISO  4  12 100  13 100  54 101  55 101
M  END
>  <TORSDO>  (80) 
F 23

>  <SCORE>  (80) 
-11.508

>  <name>  (80) 
79

>  <ligand_id>  (80) 
79

>  <original_smiles>  (80) 
[H]c1c([H])c([H])c2c(c1[H])C([H])([H])C([H])([H])C([H])([H])C2([H])N([H])C(=O)C1([H])N(C(=O)C([H])(N([H])C(=O)C([H])(N([H])C([H])([H])[H])C([H])([H])[H])C(C([H])([H])[H])(C([H])([H])[H])C([H])([H])[H])C([H])([H])c2c([H])c(OC([H])([H])C(=O)N([H])C([H])([H])C3([H])C([H])([H])C([H])([H])C([H])([H])C3([H])C([H])(C([H])([H])[H])[N+]([H])([H])C([H])([H])C([H])([H])C(=O)N3C([H])([H])C([H])([H])C([H])([H])C([H])(n4nc(-c5c([H])c([H])c(Oc6c([H])c([H])c(F)c([H])c6F)c([H])c5[H])c(C(=O)N([H])[H])c4N([H])[H])C3([H])[H])c([H])c([H])c2C1([H])[H]

>  <smiles>  (80) 
[H]c1c([H])c([H])c2c(c1[H])C([H])([H])C([H])([H])C([H])([H])C2([H])N([H])C(=O)C1([H])N(C(=O)C([H])(N([H])C(=O)C([H])(N([H])C([H])([H])[H])C([H])([H])[H])C(C([H])([H])[H])(C([H])([H])[H])C([H])([H])[H])C([H])([H])c2c([H])c(OC([H])([H])C(=O)N([H])C([H])([H])C3([H])C([H])([H])C([H])([H])C([H])([H])C3([H])C([H])(C([H])([H])[H])[N+]([H])([H])C([H])([H])C([H])([H])C(=O)N3C([H])([H])C([H])([H])C([H])([H])C([H])(n4nc(-c5c([H])c([H])c(Oc6c([H])c([H])c(F)c([H])c6F)c([H])c5[H])c(C(=O)N([H])[H])c4N([H])[H])C3([H])[H])c([H])c([H])c2C1([H])[H]

$$$$
80:0:0
     RDKit          3D

 89 97  0  0  1  0  0  0  0  0999 V2000
  -30.7570  -22.8910   20.0940 C   0  0  0  0  0  0  0  0  0  0  0  0
  -31.6460  -22.7190   19.1040 C   0  0  0  0  0  2  0  0  0  0  0  0
  -31.0330  -23.6110   21.3900 C   0  0  0  0  0  2  0  0  0  0  0  0
  -29.6830  -24.2360   21.7850 C   0  0  0  0  0  2  0  0  0  0  0  0
  -29.2860  -22.5680   20.0230 C   0  0  0  0  0  3  0  0  0  0  0  0
  -28.6760  -23.9100   20.6530 C   0  0  0  0  0  3  0  0  0  0  0  0
  -29.0120  -21.1670   20.7590 C   0  0  0  0  0  2  0  0  0  0  0  0
  -29.7030  -19.8270   20.2070 C   0  0  0  0  0  3  0  0  0  0  0  0
  -29.4770  -18.4740   21.0230 C   0  0  0  0  0  3  0  0  0  0  0  0
  -29.7910  -15.8600   20.7220 C   0  0  0  0  0  3  0  0  0  0  0  0
  -30.2270  -17.1610   20.5920 C   0  0  0  0  0  3  0  0  0  0  0  0
  -30.5900  -14.6530   20.3310 C   0  0  0  0  0  0  0  0  0  0  0  0
  -30.3490  -12.4050   19.2890 C   0  0  0  0  0  2  0  0  0  0  0  0
  -29.4040  -12.5320   18.0740 C   0  0  0  0  0  2  0  0  0  0  0  0
  -27.9340  -12.3670   18.5100 C   0  0  0  0  0  2  0  0  0  0  0  0
  -27.5830  -13.2330   19.7500 C   0  0  0  0  0  3  0  0  0  0  0  0
  -28.6480  -13.0840   20.8570 C   0  0  0  0  0  2  0  0  0  0  0  0
  -29.9520  -13.4350   20.2740 N   0  0  0  0  0  0  0  0  0  0  0  0
  -31.7560  -14.7470   19.9290 O   0  0  0  0  0  0  0  0  0  0  0  0
  -25.1950  -13.8310   20.4810 C   0  0  0  0  0  0  0  0  0  0  0  0
  -24.1320  -13.0580   20.8620 C   0  0  0  0  0  0  0  0  0  0  0  0
  -24.5960  -11.7070   20.8350 C   0  0  0  0  0  0  0  0  0  0  0  0
  -26.2390  -12.9500   20.2450 N   0  0  0  0  0  0  0  0  0  0  0  0
  -25.8840  -11.6680   20.5180 N   0  0  0  0  0  0  0  0  0  0  0  0
  -23.8720  -10.4440   21.0380 C   0  0  0  0  0  0  0  0  0  0  0  0
  -24.3270   -9.4720   21.9560 C   0  0  0  0  0  3  0  0  0  0  0  0
  -23.6050   -8.2740   22.1470 C   0  0  0  0  0  3  0  0  0  0  0  0
  -22.4130   -8.0420   21.4200 C   0  0  0  0  0  0  0  0  0  0  0  0
  -21.9780   -9.0020   20.4910 C   0  0  0  0  0  3  0  0  0  0  0  0
  -22.7000  -10.1900   20.2970 C   0  0  0  0  0  3  0  0  0  0  0  0
  -21.6600   -6.8960   21.5210 O   0  0  0  0  0  0  0  0  0  0  0  0
  -21.6570   -6.1350   22.6610 C   0  0  0  0  0  0  0  0  0  0  0  0
  -21.2990   -6.6750   23.9170 C   0  0  0  0  0  3  0  0  0  0  0  0
  -21.2420   -5.8400   25.0510 C   0  0  0  0  0  3  0  0  0  0  0  0
  -21.5340   -4.4670   24.9330 C   0  0  0  0  0  0  0  0  0  0  0  0
  -21.8840   -3.9280   23.6820 C   0  0  0  0  0  3  0  0  0  0  0  0
  -21.9430   -4.7590   22.5500 C   0  0  0  0  0  0  0  0  0  0  0  0
  -22.2620   -4.2310   21.3440 F   0  0  0  0  0  0  0  0  0  0  0  0
  -21.4710   -3.6640   26.0190 F   0  0  0  0  0  0  0  0  0  0  0  0
  -22.7360  -13.5350   21.1400 C   0  0  0  0  0  0  0  0  0  0  0  0
  -22.0150  -12.8430   22.0160 N   0  0  0  0  0  0  0  0  0  0  0  0
  -22.2930  -14.5550   20.6140 O   0  0  0  0  0  0  0  0  0  0  0  0
  -22.3880  -12.0170   22.4600 H   0  0  0  0  0  0  0  0  0  0  0  0
  -21.0790  -13.1440   22.2450 H   0  0  0  0  0  0  0  0  0  0  0  0
  -25.3600  -15.2000   20.2950 N   0  0  0  0  0  0  0  0  0  0  0  0
  -24.5940  -15.8570   20.3980 H   0  0  0  0  0  0  0  0  0  0  0  0
  -26.2120  -15.6320   19.9570 H   0  0  0  0  0  0  0  0  0  0  0  0
  -28.5250  -25.1650   19.6640 C   0  0  0  0  0  2  0  0  0  0  0  0
  -28.3810  -26.5340   20.2070 O   0  0  0  0  0  0  0  0  0  0  0  0
  -24.6260  -31.8680   23.2080 C   0  0  0  0  0  0  0  0  0  0  0  0
  -27.2150  -27.3140   20.1360 C   0  0  0  0  0  0  0  0  0  0  0  0
  -23.4040  -30.4720   21.5750 C   0  0  0  0  0  3  0  0  0  0  0  0
  -24.8400  -28.9130   20.1400 C   0  0  0  0  0  0  0  0  0  0  0  0
  -25.9390  -30.7890   21.3690 C   0  0  0  0  0  2  0  0  0  0  0  0
  -26.0100  -29.4100   20.7250 C   0  0  0  0  0  0  0  0  0  0  0  0
  -27.1940  -28.6200   20.7150 C   0  0  0  0  0  3  0  0  0  0  0  0
  -26.0180  -26.8570   19.5380 C   0  0  0  0  0  3  0  0  0  0  0  0
  -24.8470  -27.6430   19.5370 C   0  0  0  0  0  3  0  0  0  0  0  0
  -23.6050  -29.7910   20.1940 C   0  0  0  0  0  2  0  0  0  0  0  0
  -24.6750  -31.0620   22.1080 N   0  0  0  0  0  0  0  0  0  0  0  0
  -23.5480  -32.1470   23.7530 O   0  0  0  0  0  0  0  0  0  0  0  0
  -22.7470  -29.4590   22.5440 C   0  0  0  0  0  0  0  0  0  0  0  0
  -21.4200  -29.2910   22.4310 N   0  0  0  0  0  0  0  0  0  0  0  0
  -23.4330  -28.8300   23.3560 O   0  0  0  0  0  0  0  0  0  0  0  0
  -20.9290  -29.8540   21.7510 H   0  0  0  0  0  0  0  0  0  0  0  0
  -18.0420  -28.1080   22.9510 C   0  0  0  0  0  0  0  0  0  0  0  0
  -20.6030  -28.3570   23.2070 C   0  0  0  0  0  3  0  0  0  0  0  0
  -20.6950  -26.9260   22.6310 C   0  0  0  0  0  2  0  0  0  0  0  0
  -19.5880  -26.6040   21.6240 C   0  0  0  0  0  2  0  0  0  0  0  0
  -18.2090  -26.7560   22.2750 C   0  0  0  0  0  2  0  0  0  0  0  0
  -19.1660  -28.8660   23.3730 C   0  0  0  0  0  0  0  0  0  0  0  0
  -18.9560  -30.1300   23.9630 C   0  0  0  0  0  3  0  0  0  0  0  0
  -17.6560  -30.6360   24.1400 C   0  0  0  0  0  3  0  0  0  0  0  0
  -16.5450  -29.8760   23.7320 C   0  0  0  0  0  3  0  0  0  0  0  0
  -16.7390  -28.6140   23.1430 C   0  0  0  0  0  3  0  0  0  0  0  0
  -25.9170  -32.4960   23.8220 C   0  0  0  0  0  3  0  0  0  0  0  0
  -25.6110  -33.8910   24.1670 N   0  0  0  0  0  0  0  0  0  0  0  0
  -25.9360  -34.9530   23.4180 C   0  0  0  0  0  0  0  0  0  0  0  0
  -26.5960  -34.8590   22.3790 O   0  0  0  0  0  0  0  0  0  0  0  0
  -25.0280  -34.0390   24.9790 H   0  0  0  0  0  0  0  0  0  0  0  0
  -24.2040  -36.7490   23.1040 C   0  0  0  0  0  1  0  0  0  0  0  0
  -25.4550  -36.3370   23.8950 C   0  0  0  0  0  3  0  0  0  0  0  0
  -27.6010  -37.2120   24.7070 C   0  0  0  0  0  1  0  0  0  0  0  0
  -26.4860  -37.3910   23.7800 N   0  0  0  0  0  0  0  0  0  0  0  0
  -26.0820  -38.3080   23.9450 H   0  0  0  0  0  0  0  0  0  0  0  0
  -26.4470  -31.7140   25.0860 C   0  0  1  0  0  0  0  0  0  0  0  0
  -25.3690  -31.4720   26.1670 C   0  0  0  0  0  1  0  0  0  0  0  0
  -27.0230  -30.3390   24.6740 C   0  0  0  0  0  1  0  0  0  0  0  0
  -27.6070  -32.5020   25.7400 C   0  0  0  0  0  1  0  0  0  0  0  0
  1  3  1  0
  2  1  2  0
  3  4  1  0
  5  1  1  0
  5  6  1  0
  5  7  1  0
  6 48  1  0
  6  4  1  0
  8  7  1  0
  8  9  2  0
 11 10  2  0
 11  9  1  0
 12 10  1  0
 13 18  1  0
 14 15  1  0
 14 13  1  0
 16 15  1  0
 16 23  1  0
 16 17  1  0
 18 12  1  0
 18 17  1  0
 19 12  2  0
 20 21  2  0
 21 40  1  0
 22 21  1  0
 22 25  1  0
 23 20  1  0
 23 24  1  0
 24 22  2  0
 25 26  1  0
 26 27  2  0
 28 31  1  0
 28 27  1  0
 29 28  2  0
 30 29  1  0
 30 25  2  0
 31 32  1  0
 32 33  1  0
 33 34  2  0
 35 34  1  0
 35 39  1  0
 36 35  2  0
 37 32  2  0
 37 36  1  0
 38 37  1  0
 40 41  1  0
 41 44  1  0
 41 43  1  0
 42 40  2  0
 45 46  1  0
 45 20  1  0
 47 45  1  0
 48 49  1  0
 50 61  2  0
 51 49  1  0
 51 56  1  0
 52 60  1  0
 52 62  1  0
 53 59  1  0
 53 55  1  0
 54 60  1  0
 55 54  1  0
 56 55  2  0
 57 51  2  0
 58 57  1  0
 58 53  2  0
 59 52  1  0
 60 50  1  0
 62 64  2  0
 63 62  1  0
 65 63  1  0
 66 75  2  0
 66 71  1  0
 67 63  1  0
 67 71  1  0
 68 67  1  0
 69 70  1  0
 69 68  1  0
 70 66  1  0
 71 72  2  0
 72 73  1  0
 74 73  2  0
 75 74  1  0
 76 50  1  0
 76 77  1  0
 76 86  1  0
 77 80  1  0
 78 82  1  0
 78 77  1  0
 79 78  2  0
 82 81  1  0
 84 82  1  0
 84 85  1  0
 84 83  1  0
 86 89  1  1
 86 87  1  0
 88 86  1  0
M  ISO  4  10 100  12 100  48 101  49 101
M  END
>  <TORSDO>  (81) 
F 21

>  <SCORE>  (81) 
-13.199

>  <name>  (81) 
80

>  <ligand_id>  (81) 
80

>  <original_smiles>  (81) 
[H]C([H])=C1C([H])([H])C([H])([H])C([H])(C([H])([H])Oc2c([H])c([H])c3c(c2[H])C([H])([H])N(C(=O)C([H])(N([H])C(=O)C([H])(N([H])C([H])([H])[H])C([H])([H])[H])C(C([H])([H])[H])(C([H])([H])[H])C([H])([H])[H])C([H])(C(=O)N([H])C2([H])c4c([H])c([H])c([H])c([H])c4C([H])([H])C([H])([H])C2([H])[H])C3([H])[H])C1([H])C([H])([H])C([H])([H])C([H])([H])C([H])=C([H])C(=O)N1C([H])([H])C([H])([H])C([H])([H])C([H])(n2nc(-c3c([H])c([H])c(Oc4c([H])c([H])c(F)c([H])c4F)c([H])c3[H])c(C(=O)N([H])[H])c2N([H])[H])C1([H])[H]

>  <smiles>  (81) 
[H]C([H])=C1C([H])([H])C([H])([H])C([H])(C([H])([H])Oc2c([H])c([H])c3c(c2[H])C([H])([H])N(C(=O)C([H])(N([H])C(=O)C([H])(N([H])C([H])([H])[H])C([H])([H])[H])C(C([H])([H])[H])(C([H])([H])[H])C([H])([H])[H])C([H])(C(=O)N([H])C2([H])c4c([H])c([H])c([H])c([H])c4C([H])([H])C([H])([H])C2([H])[H])C3([H])[H])C1([H])C([H])([H])C([H])([H])C([H])([H])C([H])=C([H])C(=O)N1C([H])([H])C([H])([H])C([H])([H])C([H])(n2nc(-c3c([H])c([H])c(Oc4c([H])c([H])c(F)c([H])c4F)c([H])c3[H])c(C(=O)N([H])[H])c2N([H])[H])C1([H])[H]

$$$$
81:0:0
     RDKit          3D

 95105  0  0  1  0  0  0  0  0999 V2000
  -30.0620  -24.0280   19.0200 C   0  0  0  0  0  2  0  0  0  0  0  0
  -30.8700  -24.7830   20.1020 C   0  0  0  0  0  2  0  0  0  0  0  0
  -28.2880  -22.8960   20.4200 C   0  0  0  0  0  2  0  0  0  0  0  0
  -29.2780  -24.4270   22.2190 C   0  0  0  0  0  2  0  0  0  0  0  0
  -30.1720  -20.2240   19.9930 C   0  0  0  0  0  2  0  0  0  0  0  0
  -29.9810  -20.6250   22.3320 C   0  0  0  0  0  2  0  0  0  0  0  0
  -29.4350  -22.6780   19.4370 C   0  0  0  0  0  3  0  0  0  0  0  0
  -28.9710  -22.9710   21.7840 C   0  0  0  0  0  3  0  0  0  0  0  0
  -30.4100  -21.7400   20.1830 C   0  0  0  0  0  3  0  0  0  0  0  0
  -30.1890  -22.0160   21.6860 C   0  0  0  0  0  3  0  0  0  0  0  0
  -30.1120  -25.3870   21.3140 C   0  0  0  0  0  3  0  0  0  0  0  0
  -30.5700  -19.6040   21.3420 C   0  0  0  0  0  3  0  0  0  0  0  0
  -30.0800  -18.2150   21.5740 N   0  0  0  0  0  4  0  0  0  0  0  0
  -29.1020  -18.1650   21.3400 H   0  0  0  0  0  0  0  0  0  0  0  0
  -30.1600  -18.0420   22.5650 H   0  0  0  0  0  0  0  0  0  0  0  0
  -30.8250  -17.1250   20.8800 C   0  0  0  0  0  2  0  0  0  0  0  0
  -30.3000  -15.7010   21.2400 C   0  0  0  0  0  2  0  0  0  0  0  0
  -30.9440  -14.5480   20.4260 C   0  0  0  0  0  0  0  0  0  0  0  0
  -30.6110  -12.4530   19.1510 C   0  0  0  0  0  2  0  0  0  0  0  0
  -29.6600  -12.7220   17.9660 C   0  0  0  0  0  2  0  0  0  0  0  0
  -28.1870  -12.5870   18.4020 C   0  0  0  0  0  2  0  0  0  0  0  0
  -27.8730  -13.3730   19.7030 C   0  0  0  0  0  3  0  0  0  0  0  0
  -28.9330  -13.0800   20.7900 C   0  0  0  0  0  2  0  0  0  0  0  0
  -30.2580  -13.3880   20.2300 N   0  0  0  0  0  0  0  0  0  0  0  0
  -32.0450  -14.7490   19.9040 O   0  0  0  0  0  0  0  0  0  0  0  0
  -25.4720  -13.9920   20.3940 C   0  0  0  0  0  0  0  0  0  0  0  0
  -24.4010  -13.2240   20.7670 C   0  0  0  0  0  0  0  0  0  0  0  0
  -24.8610  -11.8720   20.7510 C   0  0  0  0  0  0  0  0  0  0  0  0
  -26.5180  -13.1070   20.1770 N   0  0  0  0  0  0  0  0  0  0  0  0
  -26.1520  -11.8270   20.4470 N   0  0  0  0  0  0  0  0  0  0  0  0
  -24.1320  -10.6130   20.9500 C   0  0  0  0  0  0  0  0  0  0  0  0
  -24.5540   -9.6600   21.9040 C   0  0  0  0  0  3  0  0  0  0  0  0
  -23.8270   -8.4640   22.0910 C   0  0  0  0  0  3  0  0  0  0  0  0
  -22.6660   -8.2130   21.3230 C   0  0  0  0  0  0  0  0  0  0  0  0
  -22.2640   -9.1540   20.3590 C   0  0  0  0  0  3  0  0  0  0  0  0
  -22.9900  -10.3410   20.1700 C   0  0  0  0  0  3  0  0  0  0  0  0
  -21.9120   -7.0680   21.4170 O   0  0  0  0  0  0  0  0  0  0  0  0
  -21.8290   -6.3550   22.5860 C   0  0  0  0  0  0  0  0  0  0  0  0
  -21.3680   -6.9410   23.7850 C   0  0  0  0  0  3  0  0  0  0  0  0
  -21.2340   -6.1530   24.9460 C   0  0  0  0  0  3  0  0  0  0  0  0
  -21.5490   -4.7820   24.9100 C   0  0  0  0  0  0  0  0  0  0  0  0
  -22.0030   -4.1960   23.7150 C   0  0  0  0  0  3  0  0  0  0  0  0
  -22.1400   -4.9800   22.5560 C   0  0  0  0  0  0  0  0  0  0  0  0
  -22.5570   -4.4050   21.4020 F   0  0  0  0  0  0  0  0  0  0  0  0
  -21.4130   -4.0240   26.0220 F   0  0  0  0  0  0  0  0  0  0  0  0
  -23.0040  -13.7050   21.0300 C   0  0  0  0  0  0  0  0  0  0  0  0
  -22.2730  -13.0170   21.9020 N   0  0  0  0  0  0  0  0  0  0  0  0
  -22.5680  -14.7250   20.4990 O   0  0  0  0  0  0  0  0  0  0  0  0
  -22.6380  -12.1920   22.3530 H   0  0  0  0  0  0  0  0  0  0  0  0
  -21.3340  -13.3220   22.1200 H   0  0  0  0  0  0  0  0  0  0  0  0
  -25.6380  -15.3600   20.2020 N   0  0  0  0  0  0  0  0  0  0  0  0
  -24.8650  -16.0120   20.2880 H   0  0  0  0  0  0  0  0  0  0  0  0
  -26.4810  -15.7920   19.8450 H   0  0  0  0  0  0  0  0  0  0  0  0
  -29.4230  -26.7560   21.0400 C   0  0  0  0  0  2  0  0  0  0  0  0
  -28.4280  -26.6550   20.0270 O   0  0  0  0  0  0  0  0  0  0  0  0
  -24.6690  -31.8850   23.1980 C   0  0  0  0  0  0  0  0  0  0  0  0
  -27.3110  -27.4600   20.1000 C   0  0  0  0  0  0  0  0  0  0  0  0
  -23.4530  -30.4780   21.5640 C   0  0  0  0  0  3  0  0  0  0  0  0
  -24.9050  -28.9480   20.1280 C   0  0  0  0  0  0  0  0  0  0  0  0
  -25.9750  -30.8510   21.3450 C   0  0  0  0  0  2  0  0  0  0  0  0
  -26.0640  -29.4790   20.7110 C   0  0  0  0  0  0  0  0  0  0  0  0
  -27.2710  -28.7420   20.7010 C   0  0  0  0  0  3  0  0  0  0  0  0
  -26.1410  -26.9500   19.5060 C   0  0  0  0  0  3  0  0  0  0  0  0
  -24.9370  -27.6790   19.5250 C   0  0  0  0  0  3  0  0  0  0  0  0
  -23.6570  -29.8000   20.1820 C   0  0  0  0  0  2  0  0  0  0  0  0
  -24.7170  -31.0860   22.0940 N   0  0  0  0  0  0  0  0  0  0  0  0
  -23.5930  -32.1520   23.7490 O   0  0  0  0  0  0  0  0  0  0  0  0
  -22.8150  -29.4550   22.5290 C   0  0  0  0  0  0  0  0  0  0  0  0
  -21.4890  -29.2740   22.4190 N   0  0  0  0  0  0  0  0  0  0  0  0
  -23.5090  -28.8260   23.3340 O   0  0  0  0  0  0  0  0  0  0  0  0
  -20.9910  -29.8340   21.7410 H   0  0  0  0  0  0  0  0  0  0  0  0
  -18.1210  -28.0800   22.9530 C   0  0  0  0  0  0  0  0  0  0  0  0
  -20.6810  -28.3350   23.1970 C   0  0  0  0  0  3  0  0  0  0  0  0
  -20.7760  -26.9060   22.6150 C   0  0  0  0  0  2  0  0  0  0  0  0
  -19.6630  -26.5870   21.6120 C   0  0  0  0  0  2  0  0  0  0  0  0
  -18.2890  -26.7320   22.2720 C   0  0  0  0  0  2  0  0  0  0  0  0
  -19.2450  -28.8390   23.3720 C   0  0  0  0  0  0  0  0  0  0  0  0
  -19.0350  -30.1030   23.9680 C   0  0  0  0  0  3  0  0  0  0  0  0
  -17.7330  -30.6060   24.1490 C   0  0  0  0  0  3  0  0  0  0  0  0
  -16.6240  -29.8440   23.7450 C   0  0  0  0  0  3  0  0  0  0  0  0
  -16.8180  -28.5830   23.1530 C   0  0  0  0  0  3  0  0  0  0  0  0
  -25.9610  -32.5180   23.8060 C   0  0  0  0  0  3  0  0  0  0  0  0
  -26.5140  -31.7270   25.0540 C   0  0  1  0  0  0  0  0  0  0  0  0
  -25.4460  -31.4540   26.1390 C   0  0  0  0  0  1  0  0  0  0  0  0
  -27.1050  -30.3650   24.6180 C   0  0  0  0  0  1  0  0  0  0  0  0
  -27.6690  -32.5210   25.7090 C   0  0  0  0  0  1  0  0  0  0  0  0
  -25.6450  -33.9060   24.1670 N   0  0  0  0  0  0  0  0  0  0  0  0
  -25.9380  -34.9730   23.4130 C   0  0  0  0  0  0  0  0  0  0  0  0
  -26.5770  -34.8940   22.3590 O   0  0  0  0  0  0  0  0  0  0  0  0
  -25.0760  -34.0410   24.9900 H   0  0  0  0  0  0  0  0  0  0  0  0
  -24.1720  -36.7410   23.1380 C   0  0  0  0  0  1  0  0  0  0  0  0
  -25.4450  -36.3470   23.9040 C   0  0  0  0  0  3  0  0  0  0  0  0
  -27.5910  -37.2550   24.6760 C   0  0  0  0  0  1  0  0  0  0  0  0
  -26.4570  -37.4170   23.7710 N   0  0  0  0  0  0  0  0  0  0  0  0
  -26.0410  -38.3290   23.9430 H   0  0  0  0  0  0  0  0  0  0  0  0
  1  2  1  0
  2 11  1  0
  5 12  1  0
  7  1  1  0
  7  9  1  0
  7  3  1  0
  8  3  1  0
  8  4  1  0
  9  5  1  0
  9 10  1  0
 10  8  1  0
 10  6  1  0
 11 54  1  0
 11  4  1  0
 12 13  1  0
 12  6  1  0
 13 15  1  0
 14 13  1  0
 16 17  1  0
 16 13  1  0
 18 17  1  0
 19 24  1  0
 20 21  1  0
 20 19  1  0
 22 21  1  0
 22 29  1  0
 22 23  1  0
 24 18  1  0
 24 23  1  0
 25 18  2  0
 26 27  2  0
 27 46  1  0
 28 27  1  0
 28 31  1  0
 29 26  1  0
 29 30  1  0
 30 28  2  0
 31 32  1  0
 32 33  2  0
 34 37  1  0
 34 33  1  0
 35 34  2  0
 36 35  1  0
 36 31  2  0
 37 38  1  0
 38 39  1  0
 39 40  2  0
 41 40  1  0
 41 45  1  0
 42 41  2  0
 43 38  2  0
 43 42  1  0
 44 43  1  0
 46 47  1  0
 47 50  1  0
 47 49  1  0
 48 46  2  0
 51 52  1  0
 51 26  1  0
 53 51  1  0
 55 57  1  0
 55 54  1  0
 56 67  2  0
 57 62  1  0
 58 66  1  0
 58 68  1  0
 59 65  1  0
 59 61  1  0
 60 66  1  0
 61 60  1  0
 62 61  2  0
 63 64  1  0
 63 57  2  0
 64 59  2  0
 65 58  1  0
 66 56  1  0
 68 70  2  0
 69 68  1  0
 71 69  1  0
 72 81  2  0
 72 77  1  0
 73 69  1  0
 73 77  1  0
 74 73  1  0
 75 76  1  0
 75 74  1  0
 76 72  1  0
 77 78  2  0
 78 79  1  0
 80 79  2  0
 81 80  1  0
 82 56  1  0
 82 87  1  0
 82 83  1  0
 83 86  1  1
 83 84  1  0
 85 83  1  0
 87 90  1  0
 88 92  1  0
 88 87  1  0
 89 88  2  0
 92 91  1  0
 94 92  1  0
 94 95  1  0
 94 93  1  0
M  ISO  4  17 100  18 100  54 101  55 101
M  END
>  <TORSDO>  (82) 
F 20

>  <SCORE>  (82) 
-13.969

>  <name>  (82) 
81

>  <ligand_id>  (82) 
81

>  <original_smiles>  (82) 
[H]c1c([H])c([H])c2c(c1[H])C([H])([H])C([H])([H])C([H])([H])C2([H])N([H])C(=O)C1([H])N(C(=O)C([H])(N([H])C(=O)C([H])(N([H])C([H])([H])[H])C([H])([H])[H])C(C([H])([H])[H])(C([H])([H])[H])C([H])([H])[H])C([H])([H])c2c([H])c(OC([H])([H])C3([H])C([H])([H])C([H])([H])C4([H])C([H])([H])C([H])(C3([H])[H])C3([H])C([H])([H])C([H])([N+]([H])([H])C([H])([H])C([H])([H])C(=O)N5C([H])([H])C([H])([H])C([H])([H])C([H])(n6nc(-c7c([H])c([H])c(Oc8c([H])c([H])c(F)c([H])c8F)c([H])c7[H])c(C(=O)N([H])[H])c6N([H])[H])C5([H])[H])C([H])([H])C43[H])c([H])c([H])c2C1([H])[H]

>  <smiles>  (82) 
[H]c1c([H])c([H])c2c(c1[H])C([H])([H])C([H])([H])C([H])([H])C2([H])N([H])C(=O)C1([H])N(C(=O)C([H])(N([H])C(=O)C([H])(N([H])C([H])([H])[H])C([H])([H])[H])C(C([H])([H])[H])(C([H])([H])[H])C([H])([H])[H])C([H])([H])c2c([H])c(OC([H])([H])C3([H])C([H])([H])C([H])([H])C4([H])C([H])([H])C([H])(C3([H])[H])C3([H])C([H])([H])C([H])([N+]([H])([H])C([H])([H])C([H])([H])C(=O)N5C([H])([H])C([H])([H])C([H])([H])C([H])(n6nc(-c7c([H])c([H])c(Oc8c([H])c([H])c(F)c([H])c8F)c([H])c7[H])c(C(=O)N([H])[H])c6N([H])[H])C5([H])[H])C([H])([H])C43[H])c([H])c([H])c2C1([H])[H]

$$$$
82:0:0
     RDKit          3D

 82 87  0  0  1  0  0  0  0  0999 V2000
  -28.1710  -25.1480   20.2410 O   0  0  0  0  0  1  0  0  0  0  0  0
  -24.7140  -31.8280   23.1430 C   0  0  0  0  0  0  0  0  0  0  0  0
  -27.2140  -26.4750   20.2480 C   0  0  0  0  0  0  0  0  0  0  0  0
  -23.5320  -30.4040   21.5320 C   0  0  0  0  0  3  0  0  0  0  0  0
  -24.9740  -28.6820   20.1590 C   0  0  0  0  0  0  0  0  0  0  0  0
  -26.1220  -30.4650   21.4310 C   0  0  0  0  0  2  0  0  0  0  0  0
  -26.1800  -28.9940   20.7970 C   0  0  0  0  0  0  0  0  0  0  0  0
  -27.2720  -27.9310   20.7950 C   0  0  0  0  0  3  0  0  0  0  0  0
  -25.9670  -26.4430   19.5500 C   0  0  0  0  0  3  0  0  0  0  0  0
  -24.9230  -27.4360   19.5080 C   0  0  0  0  0  3  0  0  0  0  0  0
  -23.7810  -29.6690   20.1800 C   0  0  0  0  0  2  0  0  0  0  0  0
  -24.8170  -30.9390   22.0870 N   0  0  0  0  0  0  0  0  0  0  0  0
  -23.6170  -32.1450   23.6380 O   0  0  0  0  0  0  0  0  0  0  0  0
  -22.7920  -29.4620   22.5230 C   0  0  0  0  0  0  0  0  0  0  0  0
  -21.4550  -29.3280   22.4090 N   0  0  0  0  0  0  0  0  0  0  0  0
  -23.4380  -28.8470   23.3740 O   0  0  0  0  0  0  0  0  0  0  0  0
  -20.9790  -29.8740   21.7050 H   0  0  0  0  0  0  0  0  0  0  0  0
  -18.0580  -28.1350   22.9600 C   0  0  0  0  0  0  0  0  0  0  0  0
  -20.6220  -28.4060   23.1980 C   0  0  0  0  0  3  0  0  0  0  0  0
  -20.7150  -26.9640   22.6430 C   0  0  0  0  0  2  0  0  0  0  0  0
  -19.6070  -26.6330   21.6380 C   0  0  0  0  0  2  0  0  0  0  0  0
  -18.2300  -26.7820   22.2890 C   0  0  0  0  0  2  0  0  0  0  0  0
  -19.1810  -28.9050   23.3700 C   0  0  0  0  0  0  0  0  0  0  0  0
  -18.9600  -30.1650   23.9660 C   0  0  0  0  0  3  0  0  0  0  0  0
  -17.6540  -30.6600   24.1470 C   0  0  0  0  0  3  0  0  0  0  0  0
  -16.5490  -29.8890   23.7470 C   0  0  0  0  0  3  0  0  0  0  0  0
  -16.7520  -28.6270   23.1590 C   0  0  0  0  0  3  0  0  0  0  0  0
  -25.9660  -32.5000   23.7850 C   0  0  0  0  0  3  0  0  0  0  0  0
  -25.6260  -33.8970   24.1300 N   0  0  0  0  0  0  0  0  0  0  0  0
  -25.9370  -34.9780   23.4000 C   0  0  0  0  0  0  0  0  0  0  0  0
  -26.5920  -34.9030   22.3590 O   0  0  0  0  0  0  0  0  0  0  0  0
  -25.0370  -34.0260   24.9400 H   0  0  0  0  0  0  0  0  0  0  0  0
  -24.1820  -36.7710   23.1400 C   0  0  0  0  0  1  0  0  0  0  0  0
  -25.4540  -36.3580   23.9000 C   0  0  0  0  0  3  0  0  0  0  0  0
  -27.6030  -37.2650   24.6770 C   0  0  0  0  0  1  0  0  0  0  0  0
  -26.4710  -37.4260   23.7680 N   0  0  0  0  0  0  0  0  0  0  0  0
  -26.0590  -38.3400   23.9340 H   0  0  0  0  0  0  0  0  0  0  0  0
  -26.4730  -31.7480   25.0800 C   0  0  1  0  0  0  0  0  0  0  0  0
  -25.3720  -31.5220   26.1430 C   0  0  0  0  0  1  0  0  0  0  0  0
  -27.0650  -30.3660   24.7270 C   0  0  0  0  0  1  0  0  0  0  0  0
  -27.6160  -32.5550   25.7390 C   0  0  0  0  0  1  0  0  0  0  0  0
  -28.1250  -23.2450   20.4130 C   0  0  0  0  0 15  0  0  0  0  0  0
  -29.2920  -19.4010   20.2060 C   0  0  0  0  0  3  0  0  0  0  0  0
  -29.3510  -17.7710   20.0640 C   0  0  0  0  0  0  0  0  0  0  0  0
  -29.9790  -20.6430   20.7380 C   0  0  0  0  0  2  0  0  0  0  0  0
  -28.8400  -21.3490   19.9040 C   0  0  0  0  0  1  0  0  0  0  0  0
  -30.0990  -16.0930   20.0990 C   0  0  0  0  0  0  0  0  0  0  0  0
  -30.2840  -13.4420   19.3180 C   0  0  0  0  0  2  0  0  0  0  0  0
  -29.4290  -12.8470   18.1490 C   0  0  0  0  0  2  0  0  0  0  0  0
  -28.0440  -12.4050   18.6330 C   0  0  0  0  0  2  0  0  0  0  0  0
  -27.4810  -13.4320   19.6340 C   0  0  0  0  0  3  0  0  0  0  0  0
  -28.4920  -13.9240   20.7070 C   0  0  0  0  0  2  0  0  0  0  0  0
  -29.6020  -14.6620   20.0200 N   0  0  0  0  0  0  0  0  0  0  0  0
  -31.3370  -15.9010   19.9970 O   0  0  0  0  0  0  0  0  0  0  0  0
  -25.1370  -13.9150   20.4460 C   0  0  0  0  0  0  0  0  0  0  0  0
  -24.0910  -13.1250   20.8250 C   0  0  0  0  0  0  0  0  0  0  0  0
  -24.5740  -11.7800   20.7900 C   0  0  0  0  0  0  0  0  0  0  0  0
  -26.1870  -13.0580   20.1880 N   0  0  0  0  0  0  0  0  0  0  0  0
  -25.8660  -11.7630   20.4600 N   0  0  0  0  0  0  0  0  0  0  0  0
  -23.8560  -10.5120   20.9910 C   0  0  0  0  0  0  0  0  0  0  0  0
  -24.2970   -9.5480   21.9240 C   0  0  0  0  0  3  0  0  0  0  0  0
  -23.5710   -8.3520   22.1180 C   0  0  0  0  0  3  0  0  0  0  0  0
  -22.3900   -8.1100   21.3770 C   0  0  0  0  0  0  0  0  0  0  0  0
  -21.9680   -9.0610   20.4320 C   0  0  0  0  0  3  0  0  0  0  0  0
  -22.6930  -10.2490   20.2370 C   0  0  0  0  0  3  0  0  0  0  0  0
  -21.6360   -6.9640   21.4780 O   0  0  0  0  0  0  0  0  0  0  0  0
  -21.5980   -6.2270   22.6340 C   0  0  0  0  0  0  0  0  0  0  0  0
  -21.1830   -6.7870   23.8620 C   0  0  0  0  0  3  0  0  0  0  0  0
  -21.0910   -5.9760   25.0100 C   0  0  0  0  0  3  0  0  0  0  0  0
  -21.4060   -4.6060   24.9330 C   0  0  0  0  0  0  0  0  0  0  0  0
  -21.8140   -4.0450   23.7100 C   0  0  0  0  0  3  0  0  0  0  0  0
  -21.9070   -4.8540   22.5630 C   0  0  0  0  0  0  0  0  0  0  0  0
  -22.2790   -4.3030   21.3830 F   0  0  0  0  0  0  0  0  0  0  0  0
  -21.3100   -3.8250   26.0340 F   0  0  0  0  0  0  0  0  0  0  0  0
  -22.6920  -13.5920   21.0990 C   0  0  0  0  0  0  0  0  0  0  0  0
  -21.9750  -12.8980   21.9750 N   0  0  0  0  0  0  0  0  0  0  0  0
  -22.2460  -14.6100   20.5730 O   0  0  0  0  0  0  0  0  0  0  0  0
  -22.3510  -12.0760   22.4240 H   0  0  0  0  0  0  0  0  0  0  0  0
  -21.0360  -13.1940   22.2010 H   0  0  0  0  0  0  0  0  0  0  0  0
  -25.2810  -15.2880   20.2640 N   0  0  0  0  0  0  0  0  0  0  0  0
  -24.5080  -15.9330   20.3890 H   0  0  0  0  0  0  0  0  0  0  0  0
  -26.1250  -15.7400   19.9380 H   0  0  0  0  0  0  0  0  0  0  0  0
  1  3  1  0
  2 13  2  0
  3  8  1  0
  4 12  1  0
  4 14  1  0
  5 11  1  0
  5  7  1  0
  6 12  1  0
  7  6  1  0
  8  7  2  0
  9  3  2  0
 10  9  1  0
 10  5  2  0
 11  4  1  0
 12  2  1  0
 14 16  2  0
 15 14  1  0
 17 15  1  0
 18 27  2  0
 18 23  1  0
 19 15  1  0
 19 23  1  0
 20 19  1  0
 21 22  1  0
 21 20  1  0
 22 18  1  0
 23 24  2  0
 24 25  1  0
 26 25  2  0
 27 26  1  0
 28  2  1  0
 28 29  1  0
 28 38  1  0
 29 32  1  0
 30 34  1  0
 30 29  1  0
 31 30  2  0
 34 33  1  0
 36 34  1  0
 36 37  1  0
 36 35  1  0
 38 41  1  1
 38 39  1  0
 40 38  1  0
 43 45  1  0
 44 47  2  0
 44 43  2  0
 46 45  1  0
 48 53  1  0
 49 50  1  0
 49 48  1  0
 51 50  1  0
 51 58  1  0
 51 52  1  0
 53 47  1  0
 53 52  1  0
 54 47  2  0
 55 56  2  0
 56 75  1  0
 57 56  1  0
 57 60  1  0
 58 55  1  0
 58 59  1  0
 59 57  2  0
 60 61  1  0
 61 62  2  0
 63 66  1  0
 63 62  1  0
 64 63  2  0
 65 64  1  0
 65 60  2  0
 66 67  1  0
 67 68  1  0
 68 69  2  0
 70 69  1  0
 70 74  1  0
 71 70  2  0
 72 67  2  0
 72 71  1  0
 73 72  1  0
 75 76  1  0
 76 79  1  0
 76 78  1  0
 77 75  2  0
 80 81  1  0
 80 55  1  0
 82 80  1  0
M  ISO  4   1 101  42 101  44 100  47 100
M  END
>  <TORSDO>  (83) 
F 17

>  <SCORE>  (83) 
-16.167

>  <name>  (83) 
82

>  <ligand_id>  (83) 
82

>  <original_smiles>  (83) 
[H]C(C(=O)N1C([H])([H])C([H])([H])C([H])([H])C([H])(n2nc(-c3c([H])c([H])c(Oc4c([H])c([H])c(F)c([H])c4F)c([H])c3[H])c(C(=O)N([H])[H])c2N([H])[H])C1([H])[H])=C1C([H])([H])C1([H])C([H])([H])Oc1c([H])c([H])c2c(c1[H])C([H])([H])N(C(=O)C([H])(N([H])C(=O)C([H])(N([H])C([H])([H])[H])C([H])([H])[H])C(C([H])([H])[H])(C([H])([H])[H])C([H])([H])[H])C([H])(C(=O)N([H])C1([H])c3c([H])c([H])c([H])c([H])c3C([H])([H])C([H])([H])C1([H])[H])C2([H])[H]

>  <smiles>  (83) 
[H]C(C(=O)N1C([H])([H])C([H])([H])C([H])([H])C([H])(n2nc(-c3c([H])c([H])c(Oc4c([H])c([H])c(F)c([H])c4F)c([H])c3[H])c(C(=O)N([H])[H])c2N([H])[H])C1([H])[H])=C1C([H])([H])C1([H])C([H])([H])Oc1c([H])c([H])c2c(c1[H])C([H])([H])N(C(=O)C([H])(N([H])C(=O)C([H])(N([H])C([H])([H])[H])C([H])([H])[H])C(C([H])([H])[H])(C([H])([H])[H])C([H])([H])[H])C([H])(C(=O)N([H])C1([H])c3c([H])c([H])c([H])c([H])c3C([H])([H])C([H])([H])C1([H])[H])C2([H])[H]

$$$$
83:0:0
     RDKit          3D

 83 90  0  0  1  0  0  0  0  0999 V2000
  -28.0300  -24.3430   20.4890 C   0  0  0  0  0  3  0  0  0  0  0  0
  -28.2350  -25.9400   20.2140 O   0  0  0  0  0  0  0  0  0  0  0  0
  -24.6090  -31.8440   23.1680 C   0  0  0  0  0  0  0  0  0  0  0  0
  -27.1940  -26.9920   20.1990 C   0  0  0  0  0  0  0  0  0  0  0  0
  -23.4220  -30.4310   21.5380 C   0  0  0  0  0  3  0  0  0  0  0  0
  -24.8780  -28.8260   20.1340 C   0  0  0  0  0  0  0  0  0  0  0  0
  -25.9840  -30.6670   21.3880 C   0  0  0  0  0  2  0  0  0  0  0  0
  -26.0630  -29.2550   20.7470 C   0  0  0  0  0  0  0  0  0  0  0  0
  -27.2190  -28.3600   20.7510 C   0  0  0  0  0  3  0  0  0  0  0  0
  -25.9780  -26.7010   19.5450 C   0  0  0  0  0  3  0  0  0  0  0  0
  -24.8580  -27.5680   19.5130 C   0  0  0  0  0  3  0  0  0  0  0  0
  -23.6550  -29.7380   20.1680 C   0  0  0  0  0  2  0  0  0  0  0  0
  -24.6920  -31.0070   22.0850 N   0  0  0  0  0  0  0  0  0  0  0  0
  -23.5180  -32.1320   23.6870 O   0  0  0  0  0  0  0  0  0  0  0  0
  -22.7330  -29.4380   22.5100 C   0  0  0  0  0  0  0  0  0  0  0  0
  -21.4030  -29.2760   22.3920 N   0  0  0  0  0  0  0  0  0  0  0  0
  -23.4030  -28.8120   23.3360 O   0  0  0  0  0  0  0  0  0  0  0  0
  -20.9160  -29.8290   21.7020 H   0  0  0  0  0  0  0  0  0  0  0  0
  -18.0210  -28.0740   22.9180 C   0  0  0  0  0  0  0  0  0  0  0  0
  -20.5820  -28.3420   23.1710 C   0  0  0  0  0  3  0  0  0  0  0  0
  -20.6820  -26.9060   22.6030 C   0  0  0  0  0  2  0  0  0  0  0  0
  -19.5750  -26.5790   21.5940 C   0  0  0  0  0  2  0  0  0  0  0  0
  -18.1960  -26.7230   22.2440 C   0  0  0  0  0  2  0  0  0  0  0  0
  -19.1410  -28.8410   23.3390 C   0  0  0  0  0  0  0  0  0  0  0  0
  -18.9200  -30.1030   23.9330 C   0  0  0  0  0  3  0  0  0  0  0  0
  -17.6140  -30.5990   24.1070 C   0  0  0  0  0  3  0  0  0  0  0  0
  -16.5100  -29.8310   23.7000 C   0  0  0  0  0  3  0  0  0  0  0  0
  -16.7140  -28.5700   23.1110 C   0  0  0  0  0  3  0  0  0  0  0  0
  -25.8770  -32.4960   23.7970 C   0  0  0  0  0  3  0  0  0  0  0  0
  -26.4000  -31.7260   25.0730 C   0  0  1  0  0  0  0  0  0  0  0  0
  -25.3110  -31.4780   26.1420 C   0  0  0  0  0  1  0  0  0  0  0  0
  -26.9950  -30.3540   24.6840 C   0  0  0  0  0  1  0  0  0  0  0  0
  -27.5460  -32.5280   25.7350 C   0  0  0  0  0  1  0  0  0  0  0  0
  -25.5450  -33.8890   24.1470 N   0  0  0  0  0  0  0  0  0  0  0  0
  -25.8560  -34.9600   23.4060 C   0  0  0  0  0  0  0  0  0  0  0  0
  -26.5180  -34.8830   22.3670 O   0  0  0  0  0  0  0  0  0  0  0  0
  -24.9540  -34.0210   24.9540 H   0  0  0  0  0  0  0  0  0  0  0  0
  -24.0990  -36.7410   23.1110 C   0  0  0  0  0  1  0  0  0  0  0  0
  -25.3600  -36.3370   23.8930 C   0  0  0  0  0  3  0  0  0  0  0  0
  -27.4980  -37.2400   24.6970 C   0  0  0  0  0  1  0  0  0  0  0  0
  -26.3760  -37.4060   23.7780 N   0  0  0  0  0  0  0  0  0  0  0  0
  -25.9600  -38.3190   23.9470 H   0  0  0  0  0  0  0  0  0  0  0  0
  -28.8560  -22.8490   19.9770 C   0  0  0  0  0  3  0  0  0  0  0  0
  -28.8920  -21.1690   20.5880 C   0  0  0  0  0  3  0  0  0  0  0  0
  -29.3590  -19.6470   19.7980 C   0  0  0  0  0  3  0  0  0  0  0  0
  -29.5500  -16.5720   20.2770 C   0  0  0  0  0  2  0  0  0  0  0  0
  -29.8060  -18.0240   20.2420 C   0  0  0  0  0  2  0  0  0  0  0  0
  -30.4440  -15.2280   20.2500 C   0  0  0  0  0  0  0  0  0  0  0  0
  -30.4210  -12.7880   19.3970 C   0  0  0  0  0  2  0  0  0  0  0  0
  -29.4960  -12.6170   18.1650 C   0  0  0  0  0  2  0  0  0  0  0  0
  -28.0420  -12.3580   18.6020 C   0  0  0  0  0  2  0  0  0  0  0  0
  -27.5980  -13.3170   19.7340 C   0  0  0  0  0  3  0  0  0  0  0  0
  -28.6480  -13.4420   20.8560 C   0  0  0  0  0  2  0  0  0  0  0  0
  -29.8940  -13.9190   20.2380 N   0  0  0  0  0  0  0  0  0  0  0  0
  -31.6640  -15.2340   20.0360 O   0  0  0  0  0  0  0  0  0  0  0  0
  -25.2280  -13.8750   20.4970 C   0  0  0  0  0  0  0  0  0  0  0  0
  -24.1700  -13.0950   20.8740 C   0  0  0  0  0  0  0  0  0  0  0  0
  -24.6420  -11.7470   20.8470 C   0  0  0  0  0  0  0  0  0  0  0  0
  -26.2720  -13.0010   20.2500 N   0  0  0  0  0  0  0  0  0  0  0  0
  -25.9320  -11.7160   20.5300 N   0  0  0  0  0  0  0  0  0  0  0  0
  -23.9190  -10.4830   21.0430 C   0  0  0  0  0  0  0  0  0  0  0  0
  -24.3650   -9.5120   21.9660 C   0  0  0  0  0  3  0  0  0  0  0  0
  -23.6390   -8.3150   22.1520 C   0  0  0  0  0  3  0  0  0  0  0  0
  -22.4540   -8.0800   21.4150 C   0  0  0  0  0  0  0  0  0  0  0  0
  -22.0270   -9.0410   20.4800 C   0  0  0  0  0  3  0  0  0  0  0  0
  -22.7530  -10.2280   20.2920 C   0  0  0  0  0  3  0  0  0  0  0  0
  -21.7000   -6.9360   21.5100 O   0  0  0  0  0  0  0  0  0  0  0  0
  -21.6800   -6.1800   22.6550 C   0  0  0  0  0  0  0  0  0  0  0  0
  -21.3060   -6.7260   23.9020 C   0  0  0  0  0  3  0  0  0  0  0  0
  -21.2320   -5.8970   25.0390 C   0  0  0  0  0  3  0  0  0  0  0  0
  -21.5230   -4.5240   24.9320 C   0  0  0  0  0  0  0  0  0  0  0  0
  -21.8910   -3.9780   23.6880 C   0  0  0  0  0  3  0  0  0  0  0  0
  -21.9660   -4.8040   22.5530 C   0  0  0  0  0  0  0  0  0  0  0  0
  -22.3000   -4.2680   21.3550 F   0  0  0  0  0  0  0  0  0  0  0  0
  -21.4450   -3.7260   26.0220 F   0  0  0  0  0  0  0  0  0  0  0  0
  -22.7720  -13.5690   21.1430 C   0  0  0  0  0  0  0  0  0  0  0  0
  -22.0480  -12.8770   22.0160 N   0  0  0  0  0  0  0  0  0  0  0  0
  -22.3310  -14.5900   20.6150 O   0  0  0  0  0  0  0  0  0  0  0  0
  -22.4190  -12.0530   22.4640 H   0  0  0  0  0  0  0  0  0  0  0  0
  -21.1100  -13.1770   22.2380 H   0  0  0  0  0  0  0  0  0  0  0  0
  -25.3840  -15.2450   20.3150 N   0  0  0  0  0  0  0  0  0  0  0  0
  -24.6130  -15.8950   20.4290 H   0  0  0  0  0  0  0  0  0  0  0  0
  -26.2230  -15.6880   19.9630 H   0  0  0  0  0  0  0  0  0  0  0  0
  2  1  1  0
  3 14  2  0
  4  2  1  0
  4  9  1  0
  5 13  1  0
  5 15  1  0
  6 12  1  0
  6  8  1  0
  7 13  1  0
  8  9  2  0
  8  7  1  0
 10  4  2  0
 11 10  1  0
 11  6  2  0
 12  5  1  0
 13  3  1  0
 15 17  2  0
 16 15  1  0
 18 16  1  0
 19 28  2  0
 19 24  1  0
 20 16  1  0
 20 24  1  0
 21 20  1  0
 22 23  1  0
 22 21  1  0
 23 19  1  0
 24 25  2  0
 25 26  1  0
 27 26  2  0
 28 27  1  0
 29  3  1  0
 29 34  1  0
 29 30  1  0
 30 33  1  1
 30 31  1  0
 32 30  1  0
 34 37  1  0
 35 39  1  0
 35 34  1  0
 36 35  2  0
 39 38  1  0
 41 39  1  0
 41 42  1  0
 41 40  1  0
 43  1  2  0
 43 44  1  0
 45 47  1  0
 45 44  2  0
 47 46  1  0
 48 46  1  0
 49 54  1  0
 50 51  1  0
 50 49  1  0
 52 51  1  0
 52 59  1  0
 52 53  1  0
 54 48  1  0
 54 53  1  0
 55 48  2  0
 56 57  2  0
 57 76  1  0
 58 57  1  0
 58 61  1  0
 59 56  1  0
 59 60  1  0
 60 58  2  0
 61 62  1  0
 62 63  2  0
 64 67  1  0
 64 63  1  0
 65 64  2  0
 66 65  1  0
 66 61  2  0
 67 68  1  0
 68 69  1  0
 69 70  2  0
 71 70  1  0
 71 75  1  0
 72 71  2  0
 73 68  2  0
 73 72  1  0
 74 73  1  0
 76 77  1  0
 77 80  1  0
 77 79  1  0
 78 76  2  0
 81 82  1  0
 81 56  1  0
 83 81  1  0
M  ISO  4   1 101   2 101  46 100  48 100
M  END
>  <TORSDO>  (84) 
F 20

>  <SCORE>  (84) 
-15.327

>  <name>  (84) 
83

>  <ligand_id>  (84) 
83

>  <original_smiles>  (84) 
[H]C(C(=O)N1C([H])([H])C([H])([H])C([H])([H])C([H])(n2nc(-c3c([H])c([H])c(Oc4c([H])c([H])c(F)c([H])c4F)c([H])c3[H])c(C(=O)N([H])[H])c2N([H])[H])C1([H])[H])=C([H])C([H])([H])C([H])([H])C([H])([H])C([H])([H])Oc1c([H])c([H])c2c(c1[H])C([H])([H])N(C(=O)C([H])(N([H])C(=O)C([H])(N([H])C([H])([H])[H])C([H])([H])[H])C(C([H])([H])[H])(C([H])([H])[H])C([H])([H])[H])C([H])(C(=O)N([H])C1([H])c3c([H])c([H])c([H])c([H])c3C([H])([H])C([H])([H])C1([H])[H])C2([H])[H]

>  <smiles>  (84) 
[H]C(C(=O)N1C([H])([H])C([H])([H])C([H])([H])C([H])(n2nc(-c3c([H])c([H])c(Oc4c([H])c([H])c(F)c([H])c4F)c([H])c3[H])c(C(=O)N([H])[H])c2N([H])[H])C1([H])[H])=C([H])C([H])([H])C([H])([H])C([H])([H])C([H])([H])Oc1c([H])c([H])c2c(c1[H])C([H])([H])N(C(=O)C([H])(N([H])C(=O)C([H])(N([H])C([H])([H])[H])C([H])([H])[H])C(C([H])([H])[H])(C([H])([H])[H])C([H])([H])[H])C([H])(C(=O)N([H])C1([H])c3c([H])c([H])c([H])c([H])c3C([H])([H])C([H])([H])C1([H])[H])C2([H])[H]

$$$$
84:0:0
     RDKit          3D

 94103  0  0  1  0  0  0  0  0999 V2000
  -29.9900  -21.3360   22.0740 C   0  0  0  0  0  1  0  0  0  0  0  0
  -29.8030  -21.3900   20.5500 C   0  0  0  0  0  3  0  0  0  0  0  0
  -27.7970  -18.0380   20.2700 C   0  0  0  0  0  2  0  0  0  0  0  0
  -28.2460  -17.5510   18.8720 C   0  0  0  0  0  2  0  0  0  0  0  0
  -29.1200  -18.6210   20.8190 C   0  0  0  0  0  3  0  0  0  0  0  0
  -29.7780  -17.8090   18.8810 C   0  0  0  0  0  3  0  0  0  0  0  0
  -30.1200  -17.4830   20.3470 C   0  0  0  0  0  3  0  0  0  0  0  0
  -29.3440  -19.9590   19.9570 C   0  0  0  0  0  3  0  0  0  0  0  0
  -30.0880  -19.3520   18.7240 C   0  0  1  0  0  0  0  0  0  0  0  0
  -31.6170  -19.6050   18.7600 C   0  0  0  0  0  1  0  0  0  0  0  0
  -29.5650  -19.9240   17.3850 C   0  0  0  0  0  1  0  0  0  0  0  0
  -29.8960  -15.9590   20.8610 C   0  0  0  0  0  2  0  0  0  0  0  0
  -30.6490  -14.7090   20.2290 C   0  0  0  0  0  0  0  0  0  0  0  0
  -30.4300  -12.4820   19.1190 C   0  0  0  0  0  2  0  0  0  0  0  0
  -29.4600  -12.6360   17.9280 C   0  0  0  0  0  2  0  0  0  0  0  0
  -27.9910  -12.4750   18.3770 C   0  0  0  0  0  2  0  0  0  0  0  0
  -27.6670  -13.3100   19.6430 C   0  0  0  0  0  3  0  0  0  0  0  0
  -28.7460  -13.1140   20.7310 C   0  0  0  0  0  2  0  0  0  0  0  0
  -30.0420  -13.4790   20.1390 N   0  0  0  0  0  0  0  0  0  0  0  0
  -31.7780  -14.8750   19.7570 O   0  0  0  0  0  0  0  0  0  0  0  0
  -25.2850  -13.9390   20.3880 C   0  0  0  0  0  0  0  0  0  0  0  0
  -24.2170  -13.1760   20.7720 C   0  0  0  0  0  0  0  0  0  0  0  0
  -24.6670  -11.8200   20.7360 C   0  0  0  0  0  0  0  0  0  0  0  0
  -26.3210  -13.0480   20.1430 N   0  0  0  0  0  0  0  0  0  0  0  0
  -25.9530  -11.7700   20.4100 N   0  0  0  0  0  0  0  0  0  0  0  0
  -23.9330  -10.5650   20.9380 C   0  0  0  0  0  0  0  0  0  0  0  0
  -24.3620   -9.6000   21.8770 C   0  0  0  0  0  3  0  0  0  0  0  0
  -23.6270   -8.4100   22.0660 C   0  0  0  0  0  3  0  0  0  0  0  0
  -22.4510   -8.1760   21.3150 C   0  0  0  0  0  0  0  0  0  0  0  0
  -22.0420   -9.1280   20.3650 C   0  0  0  0  0  3  0  0  0  0  0  0
  -22.7760  -10.3100   20.1750 C   0  0  0  0  0  3  0  0  0  0  0  0
  -21.6890   -7.0360   21.4120 O   0  0  0  0  0  0  0  0  0  0  0  0
  -21.6230   -6.3130   22.5750 C   0  0  0  0  0  0  0  0  0  0  0  0
  -21.1790   -6.8880   23.7850 C   0  0  0  0  0  3  0  0  0  0  0  0
  -21.0600   -6.0930   24.9420 C   0  0  0  0  0  3  0  0  0  0  0  0
  -21.3760   -4.7220   24.8890 C   0  0  0  0  0  0  0  0  0  0  0  0
  -21.8130   -4.1450   23.6840 C   0  0  0  0  0  3  0  0  0  0  0  0
  -21.9350   -4.9380   22.5300 C   0  0  0  0  0  0  0  0  0  0  0  0
  -22.3380   -4.3740   21.3660 F   0  0  0  0  0  0  0  0  0  0  0  0
  -21.2540   -3.9560   25.9980 F   0  0  0  0  0  0  0  0  0  0  0  0
  -22.8280  -13.6660   21.0670 C   0  0  0  0  0  0  0  0  0  0  0  0
  -22.1090  -12.9770   21.9450 N   0  0  0  0  0  0  0  0  0  0  0  0
  -22.3910  -14.6960   20.5550 O   0  0  0  0  0  0  0  0  0  0  0  0
  -22.4770  -12.1440   22.3790 H   0  0  0  0  0  0  0  0  0  0  0  0
  -21.1790  -13.2880   22.1880 H   0  0  0  0  0  0  0  0  0  0  0  0
  -25.4540  -15.3080   20.2090 N   0  0  0  0  0  0  0  0  0  0  0  0
  -24.6950  -15.9680   20.3350 H   0  0  0  0  0  0  0  0  0  0  0  0
  -26.3040  -15.7430   19.8790 H   0  0  0  0  0  0  0  0  0  0  0  0
  -28.9000  -22.5530   20.1410 N   0  0  0  0  0  4  0  0  0  0  0  0
  -28.7860  -22.4890   19.1410 H   0  0  0  0  0  0  0  0  0  0  0  0
  -27.9900  -22.3850   20.5410 H   0  0  0  0  0  0  0  0  0  0  0  0
  -29.2850  -24.0010   20.4450 C   0  0  0  0  0  2  0  0  0  0  0  0
  -28.2330  -25.0910   19.9520 C   0  0  0  0  0  2  0  0  0  0  0  0
  -28.4310  -26.5370   20.2180 O   0  0  0  0  0  0  0  0  0  0  0  0
  -24.6240  -31.8840   23.2120 C   0  0  0  0  0  0  0  0  0  0  0  0
  -27.3040  -27.3760   20.1450 C   0  0  0  0  0  0  0  0  0  0  0  0
  -23.4460  -30.4890   21.5500 C   0  0  0  0  0  3  0  0  0  0  0  0
  -24.9230  -28.9660   20.1270 C   0  0  0  0  0  0  0  0  0  0  0  0
  -25.9860  -30.8300   21.3940 C   0  0  0  0  0  2  0  0  0  0  0  0
  -26.0830  -29.4590   20.7360 C   0  0  0  0  0  0  0  0  0  0  0  0
  -27.2760  -28.6770   20.7370 C   0  0  0  0  0  3  0  0  0  0  0  0
  -26.1190  -26.9400   19.5040 C   0  0  0  0  0  3  0  0  0  0  0  0
  -24.9430  -27.7100   19.5020 C   0  0  0  0  0  3  0  0  0  0  0  0
  -23.6790  -29.8280   20.1670 C   0  0  0  0  0  2  0  0  0  0  0  0
  -24.7030  -31.0840   22.1090 N   0  0  0  0  0  0  0  0  0  0  0  0
  -23.5320  -32.1500   23.7360 O   0  0  0  0  0  0  0  0  0  0  0  0
  -22.7820  -29.4590   22.4940 C   0  0  0  0  0  0  0  0  0  0  0  0
  -21.4560  -29.2840   22.3610 N   0  0  0  0  0  0  0  0  0  0  0  0
  -23.4580  -28.8230   23.3060 O   0  0  0  0  0  0  0  0  0  0  0  0
  -20.9710  -29.8500   21.6790 H   0  0  0  0  0  0  0  0  0  0  0  0
  -18.0710  -28.1060   22.8550 C   0  0  0  0  0  0  0  0  0  0  0  0
  -20.6330  -28.3380   23.1180 C   0  0  0  0  0  3  0  0  0  0  0  0
  -20.7200  -26.9180   22.5130 C   0  0  0  0  0  2  0  0  0  0  0  0
  -19.6100  -26.6240   21.5000 C   0  0  0  0  0  2  0  0  0  0  0  0
  -18.2330  -26.7690   22.1530 C   0  0  0  0  0  2  0  0  0  0  0  0
  -19.1980  -28.8510   23.2930 C   0  0  0  0  0  0  0  0  0  0  0  0
  -18.9930  -30.1040   23.9100 C   0  0  0  0  0  3  0  0  0  0  0  0
  -17.6920  -30.6130   24.0910 C   0  0  0  0  0  3  0  0  0  0  0  0
  -16.5800  -29.8650   23.6690 C   0  0  0  0  0  3  0  0  0  0  0  0
  -16.7700  -28.6130   23.0570 C   0  0  0  0  0  3  0  0  0  0  0  0
  -25.8950  -32.5200   23.8520 C   0  0  0  0  0  3  0  0  0  0  0  0
  -25.5760  -33.9170   24.1800 N   0  0  0  0  0  0  0  0  0  0  0  0
  -25.9140  -34.9720   23.4270 C   0  0  0  0  0  0  0  0  0  0  0  0
  -26.5970  -34.8730   22.4050 O   0  0  0  0  0  0  0  0  0  0  0  0
  -24.9700  -34.0670   24.9730 H   0  0  0  0  0  0  0  0  0  0  0  0
  -24.1850  -36.7610   23.0540 C   0  0  0  0  0  1  0  0  0  0  0  0
  -25.4160  -36.3580   23.8810 C   0  0  0  0  0  3  0  0  0  0  0  0
  -27.5340  -37.2490   24.7480 C   0  0  0  0  0  1  0  0  0  0  0  0
  -26.4470  -37.4150   23.7870 N   0  0  0  0  0  0  0  0  0  0  0  0
  -26.0360  -38.3330   23.9280 H   0  0  0  0  0  0  0  0  0  0  0  0
  -26.3970  -31.7490   25.1340 C   0  0  1  0  0  0  0  0  0  0  0  0
  -25.2880  -31.5000   26.1840 C   0  0  0  0  0  1  0  0  0  0  0  0
  -26.9940  -30.3750   24.7480 C   0  0  0  0  0  1  0  0  0  0  0  0
  -27.5320  -32.5480   25.8160 C   0  0  0  0  0  1  0  0  0  0  0  0
  2  1  1  0
  4  3  1  0
  5  3  1  0
  6  4  1  0
  6  7  1  0
  7  5  1  0
  7 12  1  0
  8  2  1  0
  8  5  1  0
  9 10  1  1
  9  6  1  0
  9  8  1  0
 11  9  1  0
 13 12  1  0
 14 19  1  0
 15 16  1  0
 15 14  1  0
 17 16  1  0
 17 24  1  0
 17 18  1  0
 19 13  1  0
 19 18  1  0
 20 13  2  0
 21 22  2  0
 22 41  1  0
 23 22  1  0
 23 26  1  0
 24 21  1  0
 24 25  1  0
 25 23  2  0
 26 27  1  0
 27 28  2  0
 29 32  1  0
 29 28  1  0
 30 29  2  0
 31 30  1  0
 31 26  2  0
 32 33  1  0
 33 34  1  0
 34 35  2  0
 36 35  1  0
 36 40  1  0
 37 36  2  0
 38 33  2  0
 38 37  1  0
 39 38  1  0
 41 42  1  0
 42 45  1  0
 42 44  1  0
 43 41  2  0
 46 47  1  0
 46 21  1  0
 48 46  1  0
 49 52  1  0
 49 51  1  0
 49  2  1  0
 50 49  1  0
 53 54  1  0
 53 52  1  0
 55 66  2  0
 56 54  1  0
 56 61  1  0
 57 65  1  0
 57 67  1  0
 58 64  1  0
 58 60  1  0
 59 65  1  0
 60 61  2  0
 60 59  1  0
 62 56  2  0
 63 62  1  0
 63 58  2  0
 64 57  1  0
 65 55  1  0
 67 69  2  0
 68 67  1  0
 70 68  1  0
 71 80  2  0
 71 76  1  0
 72 68  1  0
 72 76  1  0
 73 72  1  0
 74 75  1  0
 74 73  1  0
 75 71  1  0
 76 77  2  0
 77 78  1  0
 79 78  2  0
 80 79  1  0
 81 55  1  0
 81 82  1  0
 81 91  1  0
 82 85  1  0
 83 87  1  0
 83 82  1  0
 84 83  2  0
 87 86  1  0
 89 87  1  0
 89 90  1  0
 89 88  1  0
 91 94  1  1
 91 92  1  0
 93 91  1  0
M  ISO  4  12 100  13 100  53 101  54 101
M  END
>  <TORSDO>  (85) 
F 21

>  <SCORE>  (85) 
-13.900

>  <name>  (85) 
84

>  <ligand_id>  (85) 
84

>  <original_smiles>  (85) 
[H]c1c([H])c([H])c2c(c1[H])C([H])([H])C([H])([H])C([H])([H])C2([H])N([H])C(=O)C1([H])N(C(=O)C([H])(N([H])C(=O)C([H])(N([H])C([H])([H])[H])C([H])([H])[H])C(C([H])([H])[H])(C([H])([H])[H])C([H])([H])[H])C([H])([H])c2c([H])c(OC([H])([H])C([H])([H])[N+]([H])([H])C([H])(C([H])([H])[H])C3([H])C4([H])C([H])([H])C([H])([H])C([H])(C4([H])C([H])([H])C(=O)N4C([H])([H])C([H])([H])C([H])([H])C([H])(n5nc(-c6c([H])c([H])c(Oc7c([H])c([H])c(F)c([H])c7F)c([H])c6[H])c(C(=O)N([H])[H])c5N([H])[H])C4([H])[H])C3(C([H])([H])[H])C([H])([H])[H])c([H])c([H])c2C1([H])[H]

>  <smiles>  (85) 
[H]c1c([H])c([H])c2c(c1[H])C([H])([H])C([H])([H])C([H])([H])C2([H])N([H])C(=O)C1([H])N(C(=O)C([H])(N([H])C(=O)C([H])(N([H])C([H])([H])[H])C([H])([H])[H])C(C([H])([H])[H])(C([H])([H])[H])C([H])([H])[H])C([H])([H])c2c([H])c(OC([H])([H])C([H])([H])[N+]([H])([H])C([H])(C([H])([H])[H])C3([H])C4([H])C([H])([H])C([H])([H])C([H])(C4([H])C([H])([H])C(=O)N4C([H])([H])C([H])([H])C([H])([H])C([H])(n5nc(-c6c([H])c([H])c(Oc7c([H])c([H])c(F)c([H])c7F)c([H])c6[H])c(C(=O)N([H])[H])c5N([H])[H])C4([H])[H])C3(C([H])([H])[H])C([H])([H])[H])c([H])c([H])c2C1([H])[H]

$$$$
85:0:0
     RDKit          3D

 90 98  0  0  1  0  0  0  0  0999 V2000
  -30.2680  -22.1990   20.8790 C   0  0  0  0  0  2  0  0  0  0  0  0
  -30.3870  -19.7050   20.6370 C   0  0  0  0  0  0  0  0  0  0  0  0
  -29.9310  -20.8150   21.2420 N   0  0  0  0  0  0  0  0  0  0  0  0
  -31.0220  -19.7550   19.5800 O   0  0  0  0  0  0  0  0  0  0  0  0
  -29.4160  -20.6820   22.1030 H   0  0  0  0  0  0  0  0  0  0  0  0
  -30.1090  -18.4120   21.3670 C   0  0  0  0  0  3  0  0  0  0  0  0
  -31.2850  -17.6850   22.0080 C   0  0  0  0  0  3  0  0  0  0  0  0
  -30.6230  -17.0900   20.7840 C   0  0  0  0  0  3  0  0  0  0  0  0
  -32.7280  -18.1590   21.9500 C   0  0  0  0  0  1  0  0  0  0  0  0
  -29.8740  -15.7520   20.9130 C   0  0  0  0  0  2  0  0  0  0  0  0
  -30.5340  -14.5610   20.1720 C   0  0  0  0  0  0  0  0  0  0  0  0
  -30.2060  -12.4110   18.9970 C   0  0  0  0  0  2  0  0  0  0  0  0
  -29.2210  -12.6170   17.8270 C   0  0  0  0  0  2  0  0  0  0  0  0
  -27.7650  -12.4570   18.3090 C   0  0  0  0  0  2  0  0  0  0  0  0
  -27.4630  -13.2910   19.5820 C   0  0  0  0  0  3  0  0  0  0  0  0
  -28.5580  -13.0830   20.6520 C   0  0  0  0  0  2  0  0  0  0  0  0
  -29.8610  -13.3860   20.0440 N   0  0  0  0  0  0  0  0  0  0  0  0
  -31.6240  -14.7450   19.6220 O   0  0  0  0  0  0  0  0  0  0  0  0
  -25.0850  -13.8720   20.3800 C   0  0  0  0  0  0  0  0  0  0  0  0
  -24.0380  -13.0880   20.7840 C   0  0  0  0  0  0  0  0  0  0  0  0
  -24.5100  -11.7410   20.7280 C   0  0  0  0  0  0  0  0  0  0  0  0
  -26.1300  -13.0020   20.1080 N   0  0  0  0  0  0  0  0  0  0  0  0
  -25.7890  -11.7150   20.3740 N   0  0  0  0  0  0  0  0  0  0  0  0
  -23.8030  -10.4700   20.9380 C   0  0  0  0  0  0  0  0  0  0  0  0
  -24.2440   -9.5290   21.8940 C   0  0  0  0  0  3  0  0  0  0  0  0
  -23.5370   -8.3220   22.0890 C   0  0  0  0  0  3  0  0  0  0  0  0
  -22.3760   -8.0490   21.3280 C   0  0  0  0  0  0  0  0  0  0  0  0
  -21.9540   -8.9800   20.3620 C   0  0  0  0  0  3  0  0  0  0  0  0
  -22.6610  -10.1770   20.1650 C   0  0  0  0  0  3  0  0  0  0  0  0
  -21.6410   -6.8930   21.4320 O   0  0  0  0  0  0  0  0  0  0  0  0
  -21.5590   -6.1950   22.6090 C   0  0  0  0  0  0  0  0  0  0  0  0
  -21.0640   -6.7850   23.7930 C   0  0  0  0  0  3  0  0  0  0  0  0
  -20.9310   -6.0130   24.9640 C   0  0  0  0  0  3  0  0  0  0  0  0
  -21.2840   -4.6490   24.9520 C   0  0  0  0  0  0  0  0  0  0  0  0
  -21.7720   -4.0580   23.7730 C   0  0  0  0  0  3  0  0  0  0  0  0
  -21.9060   -4.8290   22.6050 C   0  0  0  0  0  0  0  0  0  0  0  0
  -22.3560   -4.2490   21.4670 F   0  0  0  0  0  0  0  0  0  0  0  0
  -21.1500   -3.9040   26.0730 F   0  0  0  0  0  0  0  0  0  0  0  0
  -22.6470  -13.5500   21.1090 C   0  0  0  0  0  0  0  0  0  0  0  0
  -21.9550  -12.8380   21.9930 N   0  0  0  0  0  0  0  0  0  0  0  0
  -22.1810  -14.5760   20.6160 O   0  0  0  0  0  0  0  0  0  0  0  0
  -22.3450  -12.0060   22.4120 H   0  0  0  0  0  0  0  0  0  0  0  0
  -21.0240  -13.1270   22.2540 H   0  0  0  0  0  0  0  0  0  0  0  0
  -25.2310  -15.2450   20.2040 N   0  0  0  0  0  0  0  0  0  0  0  0
  -24.4650  -15.8940   20.3460 H   0  0  0  0  0  0  0  0  0  0  0  0
  -26.0720  -15.6930   19.8620 H   0  0  0  0  0  0  0  0  0  0  0  0
  -29.0180  -23.0610   20.6060 C   0  0  0  0  0  2  0  0  0  0  0  0
  -29.3180  -24.5740   20.4690 C   0  0  0  0  0  2  0  0  0  0  0  0
  -28.0730  -25.3760   20.0480 C   0  0  0  0  0  2  0  0  0  0  0  0
  -28.2410  -26.8000   20.1540 O   0  0  0  0  0  0  0  0  0  0  0  0
  -24.5160  -32.0090   23.2760 C   0  0  0  0  0  0  0  0  0  0  0  0
  -27.0760  -27.5460   20.1460 C   0  0  0  0  0  0  0  0  0  0  0  0
  -23.2700  -30.6050   21.6670 C   0  0  0  0  0  3  0  0  0  0  0  0
  -24.6870  -29.0670   20.2100 C   0  0  0  0  0  0  0  0  0  0  0  0
  -25.7950  -30.9570   21.4120 C   0  0  0  0  0  2  0  0  0  0  0  0
  -25.8610  -29.5860   20.7690 C   0  0  0  0  0  0  0  0  0  0  0  0
  -27.0600  -28.8330   20.7330 C   0  0  0  0  0  3  0  0  0  0  0  0
  -25.8780  -27.0520   19.5730 C   0  0  0  0  0  3  0  0  0  0  0  0
  -24.6900  -27.8000   19.6100 C   0  0  0  0  0  3  0  0  0  0  0  0
  -23.4460  -29.9290   20.2830 C   0  0  0  0  0  2  0  0  0  0  0  0
  -24.5470  -31.2050   22.1750 N   0  0  0  0  0  0  0  0  0  0  0  0
  -23.4470  -32.2850   23.8390 O   0  0  0  0  0  0  0  0  0  0  0  0
  -22.6400  -29.5860   22.6420 C   0  0  0  0  0  0  0  0  0  0  0  0
  -21.3180  -29.3790   22.5220 N   0  0  0  0  0  0  0  0  0  0  0  0
  -23.3370  -28.9830   23.4630 O   0  0  0  0  0  0  0  0  0  0  0  0
  -20.8180  -29.9180   21.8290 H   0  0  0  0  0  0  0  0  0  0  0  0
  -17.9690  -28.1220   23.0260 C   0  0  0  0  0  0  0  0  0  0  0  0
  -20.5190  -28.4400   23.3080 C   0  0  0  0  0  3  0  0  0  0  0  0
  -20.6560  -27.0000   22.7630 C   0  0  0  0  0  2  0  0  0  0  0  0
  -19.5680  -26.6330   21.7500 C   0  0  0  0  0  2  0  0  0  0  0  0
  -18.1800  -26.7630   22.3810 C   0  0  0  0  0  2  0  0  0  0  0  0
  -19.0680  -28.9170   23.4460 C   0  0  0  0  0  0  0  0  0  0  0  0
  -18.8190  -30.1890   24.0060 C   0  0  0  0  0  3  0  0  0  0  0  0
  -17.5040  -30.6670   24.1520 C   0  0  0  0  0  3  0  0  0  0  0  0
  -16.4190  -29.8700   23.7490 C   0  0  0  0  0  3  0  0  0  0  0  0
  -16.6520  -28.5990   23.1910 C   0  0  0  0  0  3  0  0  0  0  0  0
  -25.8170  -32.6390   23.8640 C   0  0  0  0  0  3  0  0  0  0  0  0
  -25.5230  -34.0430   24.1820 N   0  0  0  0  0  0  0  0  0  0  0  0
  -25.8370  -35.0810   23.3970 C   0  0  0  0  0  0  0  0  0  0  0  0
  -26.4750  -34.9600   22.3480 O   0  0  0  0  0  0  0  0  0  0  0  0
  -24.9560  -34.2130   25.0000 H   0  0  0  0  0  0  0  0  0  0  0  0
  -24.0980  -36.8670   23.0700 C   0  0  0  0  0  1  0  0  0  0  0  0
  -25.3660  -36.4770   23.8450 C   0  0  0  0  0  3  0  0  0  0  0  0
  -27.5280  -37.3740   24.5890 C   0  0  0  0  0  1  0  0  0  0  0  0
  -26.3950  -37.5260   23.6780 N   0  0  0  0  0  0  0  0  0  0  0  0
  -25.9940  -38.4500   23.8230 H   0  0  0  0  0  0  0  0  0  0  0  0
  -26.3550  -31.8770   25.1360 C   0  0  1  0  0  0  0  0  0  0  0  0
  -25.2800  -31.6490   26.2240 C   0  0  0  0  0  1  0  0  0  0  0  0
  -26.9290  -30.4960   24.7410 C   0  0  0  0  0  1  0  0  0  0  0  0
  -27.5180  -32.6750   25.7720 C   0  0  0  0  0  1  0  0  0  0  0  0
  1  3  1  0
  2  3  1  0
  3  5  1  0
  4  2  2  0
  6  2  1  0
  6  7  1  0
  7  9  1  0
  8 10  1  0
  8  6  1  0
  8  7  1  0
 11 10  1  0
 12 17  1  0
 13 14  1  0
 13 12  1  0
 15 14  1  0
 15 22  1  0
 15 16  1  0
 17 11  1  0
 17 16  1  0
 18 11  2  0
 19 20  2  0
 20 39  1  0
 21 20  1  0
 21 24  1  0
 22 23  1  0
 22 19  1  0
 23 21  2  0
 24 25  1  0
 25 26  2  0
 27 30  1  0
 27 26  1  0
 28 27  2  0
 29 28  1  0
 29 24  2  0
 30 31  1  0
 31 32  1  0
 32 33  2  0
 34 33  1  0
 34 38  1  0
 35 34  2  0
 36 31  2  0
 36 35  1  0
 37 36  1  0
 39 40  1  0
 40 43  1  0
 40 42  1  0
 41 39  2  0
 44 45  1  0
 44 19  1  0
 46 44  1  0
 47  1  1  0
 48 47  1  0
 49 50  1  0
 49 48  1  0
 51 62  2  0
 52 50  1  0
 52 57  1  0
 53 61  1  0
 53 63  1  0
 54 60  1  0
 54 56  1  0
 55 61  1  0
 56 55  1  0
 57 56  2  0
 58 59  1  0
 58 52  2  0
 59 54  2  0
 60 53  1  0
 61 51  1  0
 63 65  2  0
 64 63  1  0
 66 64  1  0
 67 76  2  0
 67 72  1  0
 68 64  1  0
 68 72  1  0
 69 68  1  0
 70 71  1  0
 70 69  1  0
 71 67  1  0
 72 73  2  0
 73 74  1  0
 75 74  2  0
 76 75  1  0
 77 51  1  0
 77 78  1  0
 77 87  1  0
 78 81  1  0
 79 83  1  0
 79 78  1  0
 80 79  2  0
 83 82  1  0
 85 86  1  0
 85 83  1  0
 85 84  1  0
 87 90  1  1
 87 88  1  0
 89 87  1  0
M  ISO  4  10 100  11 100  49 101  50 101
M  END
>  <TORSDO>  (86) 
F 22

>  <SCORE>  (86) 
-11.721

>  <name>  (86) 
85

>  <ligand_id>  (86) 
85

>  <original_smiles>  (86) 
[H]c1c([H])c([H])c2c(c1[H])C([H])([H])C([H])([H])C([H])([H])C2([H])N([H])C(=O)C1([H])N(C(=O)C([H])(N([H])C(=O)C([H])(N([H])C([H])([H])[H])C([H])([H])[H])C(C([H])([H])[H])(C([H])([H])[H])C([H])([H])[H])C([H])([H])c2c([H])c(OC([H])([H])C([H])([H])C([H])([H])C([H])([H])N([H])C(=O)C3([H])C([H])(C([H])([H])[H])C3([H])C([H])([H])C(=O)N3C([H])([H])C([H])([H])C([H])([H])C([H])(n4nc(-c5c([H])c([H])c(Oc6c([H])c([H])c(F)c([H])c6F)c([H])c5[H])c(C(=O)N([H])[H])c4N([H])[H])C3([H])[H])c([H])c([H])c2C1([H])[H]

>  <smiles>  (86) 
[H]c1c([H])c([H])c2c(c1[H])C([H])([H])C([H])([H])C([H])([H])C2([H])N([H])C(=O)C1([H])N(C(=O)C([H])(N([H])C(=O)C([H])(N([H])C([H])([H])[H])C([H])([H])[H])C(C([H])([H])[H])(C([H])([H])[H])C([H])([H])[H])C([H])([H])c2c([H])c(OC([H])([H])C([H])([H])C([H])([H])C([H])([H])N([H])C(=O)C3([H])C([H])(C([H])([H])[H])C3([H])C([H])([H])C(=O)N3C([H])([H])C([H])([H])C([H])([H])C([H])(n4nc(-c5c([H])c([H])c(Oc6c([H])c([H])c(F)c([H])c6F)c([H])c5[H])c(C(=O)N([H])[H])c4N([H])[H])C3([H])[H])c([H])c([H])c2C1([H])[H]

$$$$
86:0:0
     RDKit          3D

 89 97  0  0  1  0  0  0  0  0999 V2000
  -29.1160  -20.6050   20.5870 C   0  0  0  0  0  0  0  0  0  0  0  0
  -29.5770  -21.3830   18.4590 C   0  0  0  0  0  2  0  0  0  0  0  0
  -29.3570  -22.0340   19.8460 C   0  0  0  0  0  3  0  0  0  0  0  0
  -30.1200  -19.9170   18.6340 C   0  0  1  0  0  0  0  0  0  0  0  0
  -29.5740  -19.0190   17.4990 C   0  0  0  0  0  1  0  0  0  0  0  0
  -31.6680  -19.9550   18.5950 C   0  0  0  0  0  1  0  0  0  0  0  0
  -29.6260  -19.4500   19.9490 N   0  0  0  0  0  0  0  0  0  0  0  0
  -28.5950  -20.5780   21.7040 O   0  0  0  0  0  0  0  0  0  0  0  0
  -28.3950  -23.4420   19.7450 C   0  0  0  0  0  2  0  0  0  0  0  0
  -28.4080  -24.8820   20.6260 C   0  0  0  0  0  2  0  0  0  0  0  0
  -28.3860  -26.3670   20.1500 O   0  0  0  0  0  0  0  0  0  0  0  0
  -24.6150  -31.9490   23.2280 C   0  0  0  0  0  0  0  0  0  0  0  0
  -27.2680  -27.2720   20.2090 C   0  0  0  0  0  0  0  0  0  0  0  0
  -23.4350  -30.5340   21.5890 C   0  0  0  0  0  3  0  0  0  0  0  0
  -24.9060  -28.9660   20.1770 C   0  0  0  0  0  0  0  0  0  0  0  0
  -25.9840  -30.8390   21.4210 C   0  0  0  0  0  2  0  0  0  0  0  0
  -26.0780  -29.4430   20.7760 C   0  0  0  0  0  0  0  0  0  0  0  0
  -27.2630  -28.6140   20.7660 C   0  0  0  0  0  3  0  0  0  0  0  0
  -26.0630  -26.8800   19.5900 C   0  0  0  0  0  3  0  0  0  0  0  0
  -24.9070  -27.6980   19.5710 C   0  0  0  0  0  3  0  0  0  0  0  0
  -23.6690  -29.8510   20.2130 C   0  0  0  0  0  2  0  0  0  0  0  0
  -24.6980  -31.1310   22.1360 N   0  0  0  0  0  0  0  0  0  0  0  0
  -23.5240  -32.2220   23.7540 O   0  0  0  0  0  0  0  0  0  0  0  0
  -22.7670  -29.5240   22.5510 C   0  0  0  0  0  0  0  0  0  0  0  0
  -21.4420  -29.3330   22.4150 N   0  0  0  0  0  0  0  0  0  0  0  0
  -23.4400  -28.9090   23.3810 O   0  0  0  0  0  0  0  0  0  0  0  0
  -20.9570  -29.8810   21.7200 H   0  0  0  0  0  0  0  0  0  0  0  0
  -18.0740  -28.0840   22.8890 C   0  0  0  0  0  0  0  0  0  0  0  0
  -20.6260  -28.3870   23.1780 C   0  0  0  0  0  3  0  0  0  0  0  0
  -20.7560  -26.9540   22.6120 C   0  0  0  0  0  2  0  0  0  0  0  0
  -19.6700  -26.6100   21.5880 C   0  0  0  0  0  2  0  0  0  0  0  0
  -18.2790  -26.7350   22.2180 C   0  0  0  0  0  2  0  0  0  0  0  0
  -19.1760  -28.8660   23.3240 C   0  0  0  0  0  0  0  0  0  0  0  0
  -18.9300  -30.1250   23.9110 C   0  0  0  0  0  3  0  0  0  0  0  0
  -17.6160  -30.6060   24.0620 C   0  0  0  0  0  3  0  0  0  0  0  0
  -16.5280  -29.8210   23.6420 C   0  0  0  0  0  3  0  0  0  0  0  0
  -16.7570  -28.5600   23.0620 C   0  0  0  0  0  3  0  0  0  0  0  0
  -25.8840  -32.5990   23.8590 C   0  0  0  0  0  3  0  0  0  0  0  0
  -26.3920  -31.8440   25.1490 C   0  0  1  0  0  0  0  0  0  0  0  0
  -25.2860  -31.6100   26.2060 C   0  0  0  0  0  1  0  0  0  0  0  0
  -26.9880  -30.4670   24.7770 C   0  0  0  0  0  1  0  0  0  0  0  0
  -27.5310  -32.6540   25.8150 C   0  0  0  0  0  1  0  0  0  0  0  0
  -25.5610  -33.9980   24.1770 N   0  0  0  0  0  0  0  0  0  0  0  0
  -25.8930  -35.0520   23.4200 C   0  0  0  0  0  0  0  0  0  0  0  0
  -26.5680  -34.9490   22.3940 O   0  0  0  0  0  0  0  0  0  0  0  0
  -24.9570  -34.1520   24.9700 H   0  0  0  0  0  0  0  0  0  0  0  0
  -24.1630  -36.8420   23.0430 C   0  0  0  0  0  1  0  0  0  0  0  0
  -25.3970  -36.4420   23.8690 C   0  0  0  0  0  3  0  0  0  0  0  0
  -27.5170  -37.3400   24.7280 C   0  0  0  0  0  1  0  0  0  0  0  0
  -26.4290  -37.4970   23.7660 N   0  0  0  0  0  0  0  0  0  0  0  0
  -26.0190  -38.4160   23.9030 H   0  0  0  0  0  0  0  0  0  0  0  0
  -30.1220  -18.0470   20.5270 C   0  0  0  0  0  2  0  0  0  0  0  0
  -29.5850  -16.4920   20.1550 C   0  0  0  0  0  2  0  0  0  0  0  0
  -30.4920  -15.0940   20.0840 C   0  0  0  0  0  0  0  0  0  0  0  0
  -30.3940  -12.7570   19.1160 C   0  0  0  0  0  2  0  0  0  0  0  0
  -29.4070  -12.7510   17.9220 C   0  0  0  0  0  2  0  0  0  0  0  0
  -27.9650  -12.5160   18.4080 C   0  0  0  0  0  2  0  0  0  0  0  0
  -27.6000  -13.4070   19.6250 C   0  0  0  0  0  3  0  0  0  0  0  0
  -28.6980  -13.3870   20.7060 C   0  0  0  0  0  2  0  0  0  0  0  0
  -29.9510  -13.8110   20.0720 N   0  0  0  0  0  0  0  0  0  0  0  0
  -31.6920  -15.1860   19.8030 O   0  0  0  0  0  0  0  0  0  0  0  0
  -25.2460  -13.9480   20.4690 C   0  0  0  0  0  0  0  0  0  0  0  0
  -24.2020  -13.1570   20.8600 C   0  0  0  0  0  0  0  0  0  0  0  0
  -24.6770  -11.8120   20.7850 C   0  0  0  0  0  0  0  0  0  0  0  0
  -26.2860  -13.0850   20.1700 N   0  0  0  0  0  0  0  0  0  0  0  0
  -25.9550  -11.7920   20.4250 N   0  0  0  0  0  0  0  0  0  0  0  0
  -23.9700  -10.5380   20.9780 C   0  0  0  0  0  0  0  0  0  0  0  0
  -24.4250   -9.5700   21.8990 C   0  0  0  0  0  3  0  0  0  0  0  0
  -23.7160   -8.3630   22.0790 C   0  0  0  0  0  3  0  0  0  0  0  0
  -22.5380   -8.1150   21.3360 C   0  0  0  0  0  0  0  0  0  0  0  0
  -22.1020   -9.0720   20.4020 C   0  0  0  0  0  3  0  0  0  0  0  0
  -22.8120  -10.2710   20.2220 C   0  0  0  0  0  3  0  0  0  0  0  0
  -21.8010   -6.9590   21.4250 O   0  0  0  0  0  0  0  0  0  0  0  0
  -21.7510   -6.2240   22.5810 C   0  0  0  0  0  0  0  0  0  0  0  0
  -21.2750   -6.7690   23.7940 C   0  0  0  0  0  3  0  0  0  0  0  0
  -21.1780   -5.9590   24.9420 C   0  0  0  0  0  3  0  0  0  0  0  0
  -21.5460   -4.6020   24.8800 C   0  0  0  0  0  0  0  0  0  0  0  0
  -22.0140   -4.0530   23.6710 C   0  0  0  0  0  3  0  0  0  0  0  0
  -22.1140   -4.8620   22.5260 C   0  0  0  0  0  0  0  0  0  0  0  0
  -22.5450   -4.3240   21.3610 F   0  0  0  0  0  0  0  0  0  0  0  0
  -21.4440   -3.8210   25.9800 F   0  0  0  0  0  0  0  0  0  0  0  0
  -22.8110  -13.6140   21.1920 C   0  0  0  0  0  0  0  0  0  0  0  0
  -22.1190  -12.8890   22.0620 N   0  0  0  0  0  0  0  0  0  0  0  0
  -22.3510  -14.6520   20.7170 O   0  0  0  0  0  0  0  0  0  0  0  0
  -22.5060  -12.0490   22.4650 H   0  0  0  0  0  0  0  0  0  0  0  0
  -21.1910  -13.1800   22.3280 H   0  0  0  0  0  0  0  0  0  0  0  0
  -25.3940  -15.3240   20.3130 N   0  0  0  0  0  0  0  0  0  0  0  0
  -24.6280  -15.9700   20.4690 H   0  0  0  0  0  0  0  0  0  0  0  0
  -26.2330  -15.7790   19.9780 H   0  0  0  0  0  0  0  0  0  0  0  0
  1  8  2  0
  2  4  1  0
  2  3  1  0
  3  9  1  0
  3  1  1  0
  4  7  1  0
  4  5  1  6
  6  4  1  0
  7 52  1  0
  7  1  1  0
  9 10  1  0
 11 13  1  0
 11 10  1  0
 12 23  2  0
 13 18  1  0
 14 22  1  0
 14 24  1  0
 15 21  1  0
 15 17  1  0
 16 22  1  0
 17 16  1  0
 18 17  2  0
 19 13  2  0
 20 19  1  0
 20 15  2  0
 21 14  1  0
 22 12  1  0
 24 26  2  0
 25 24  1  0
 27 25  1  0
 28 37  2  0
 28 33  1  0
 29 25  1  0
 29 33  1  0
 30 29  1  0
 31 32  1  0
 31 30  1  0
 32 28  1  0
 33 34  2  0
 34 35  1  0
 36 35  2  0
 37 36  1  0
 38 12  1  0
 38 43  1  0
 38 39  1  0
 39 42  1  1
 39 40  1  0
 41 39  1  0
 43 46  1  0
 44 48  1  0
 44 43  1  0
 45 44  2  0
 48 47  1  0
 50 48  1  0
 50 51  1  0
 50 49  1  0
 53 52  1  0
 54 53  1  0
 55 60  1  0
 56 57  1  0
 56 55  1  0
 58 57  1  0
 58 65  1  0
 58 59  1  0
 60 54  1  0
 60 59  1  0
 61 54  2  0
 62 63  2  0
 63 82  1  0
 64 63  1  0
 64 67  1  0
 65 66  1  0
 65 62  1  0
 66 64  2  0
 67 68  1  0
 68 69  2  0
 70 73  1  0
 70 69  1  0
 71 70  2  0
 72 71  1  0
 72 67  2  0
 73 74  1  0
 74 75  1  0
 75 76  2  0
 77 76  1  0
 77 81  1  0
 78 77  2  0
 79 74  2  0
 79 78  1  0
 80 79  1  0
 82 83  1  0
 83 86  1  0
 83 85  1  0
 84 82  2  0
 87 88  1  0
 87 62  1  0
 89 87  1  0
M  ISO  4  10 101  11 101  53 100  54 100
M  END
>  <TORSDO>  (87) 
F 20

>  <SCORE>  (87) 
-14.136

>  <name>  (87) 
86

>  <ligand_id>  (87) 
86

>  <original_smiles>  (87) 
[H]c1c([H])c([H])c2c(c1[H])C([H])([H])C([H])([H])C([H])([H])C2([H])N([H])C(=O)C1([H])N(C(=O)C([H])(N([H])C(=O)C([H])(N([H])C([H])([H])[H])C([H])([H])[H])C(C([H])([H])[H])(C([H])([H])[H])C([H])([H])[H])C([H])([H])c2c([H])c(OC([H])([H])C([H])([H])C3([H])C(=O)N(C([H])([H])C([H])([H])C(=O)N4C([H])([H])C([H])([H])C([H])([H])C([H])(n5nc(-c6c([H])c([H])c(Oc7c([H])c([H])c(F)c([H])c7F)c([H])c6[H])c(C(=O)N([H])[H])c5N([H])[H])C4([H])[H])C(C([H])([H])[H])(C([H])([H])[H])C3([H])[H])c([H])c([H])c2C1([H])[H]

>  <smiles>  (87) 
[H]c1c([H])c([H])c2c(c1[H])C([H])([H])C([H])([H])C([H])([H])C2([H])N([H])C(=O)C1([H])N(C(=O)C([H])(N([H])C(=O)C([H])(N([H])C([H])([H])[H])C([H])([H])[H])C(C([H])([H])[H])(C([H])([H])[H])C([H])([H])[H])C([H])([H])c2c([H])c(OC([H])([H])C([H])([H])C3([H])C(=O)N(C([H])([H])C([H])([H])C(=O)N4C([H])([H])C([H])([H])C([H])([H])C([H])(n5nc(-c6c([H])c([H])c(Oc7c([H])c([H])c(F)c([H])c7F)c([H])c6[H])c(C(=O)N([H])[H])c5N([H])[H])C4([H])[H])C(C([H])([H])[H])(C([H])([H])[H])C3([H])[H])c([H])c([H])c2C1([H])[H]

$$$$
87:0:0
     RDKit          3D

 98 99  0  0  1  0  0  0  0  0999 V2000
  -26.4660  -30.0430   21.6240 C   0  0  0  0  0  2  0  0  0  0  0  0
  -26.0620  -29.9430   19.5220 C   0  0  0  0  0  2  0  0  0  0  0  0
  -24.9510  -24.8740   22.6630 C   0  0  0  0  0  1  0  0  0  0  0  0
  -25.5500  -26.4650   23.6880 C   0  0  0  0  0  1  0  0  0  0  0  0
  -25.4180  -28.2530   22.6790 C   0  0  0  0  0 15  0  0  0  0  0  0
  -24.8540  -28.2810   18.9270 C   0  0  0  0  0  1  0  0  0  0  0  0
  -24.6480  -24.6530   20.8090 C   0  0  0  0  0  1  0  0  0  0  0  0
  -25.2490  -28.0000   17.4570 C   0  0  0  0  0  1  0  0  0  0  0  0
  -24.3380  -26.9490   20.2360 N   0  0  0  0  0  2  0  0  0  0  0  0
  -25.3000  -26.7090   19.9710 H   0  0  0  0  0  0  0  0  0  0  0  0
  -26.9410  -26.1570   24.3390 C   0  0  0  0  0  0  0  0  0  0  0  0
  -27.6520  -25.2310   23.6720 N   0  0  0  0  0  0  0  0  0  0  0  0
  -27.3010  -26.6850   25.3850 O   0  0  0  0  0  0  0  0  0  0  0  0
  -27.1180  -24.8470   22.9120 H   0  0  0  0  0  0  0  0  0  0  0  0
  -29.0640  -24.8970   23.6310 C   0  0  0  0  0  2  0  0  0  0  0  0
  -29.5810  -25.0750   22.1590 C   0  0  0  0  0  2  0  0  0  0  0  0
  -29.6710  -26.5700   21.5890 C   0  0  0  0  0  2  0  0  0  0  0  0
  -29.5440  -26.8010   20.1310 O   0  0  0  0  0  0  0  0  0  0  0  0
  -24.4100  -31.6980   23.0850 C   0  0  0  0  0  0  0  0  0  0  0  0
  -28.5420  -27.5970   19.6500 C   0  0  0  0  0  3  0  0  0  0  0  0
  -23.2510  -29.6420   21.6070 C   0  0  0  0  0  3  0  0  0  0  0  0
  -26.4340  -27.3750   21.0270 C   0  0  0  0  0  2  0  0  0  0  0  0
  -25.0120  -30.2640   20.5620 C   0  0  0  0  0  3  0  0  0  0  0  0
  -26.8830  -28.6940   20.5550 C   0  0  2  0  0  0  0  0  0  0  0  0
  -28.2430  -28.7290   20.3800 C   0  0  0  0  0  2  0  0  0  0  0  0
  -27.5590  -26.8170   19.0620 C   0  0  0  0  0  2  0  0  0  0  0  0
  -27.1350  -26.4790   20.2980 C   0  0  0  0  0  2  0  0  0  0  0  0
  -23.8350  -27.8880   21.3660 C   0  0  0  0  0  2  0  0  0  0  0  0
  -24.2330  -30.8400   21.8480 N   0  0  0  0  0  0  0  0  0  0  0  0
  -23.4200  -31.9890   23.7440 O   0  0  0  0  0  0  0  0  0  0  0  0
  -22.5100  -29.4350   22.8100 C   0  0  0  0  0  0  0  0  0  0  0  0
  -21.2240  -29.4040   22.6000 N   0  0  0  0  0  0  0  0  0  0  0  0
  -23.1090  -28.9960   23.7820 O   0  0  0  0  0  0  0  0  0  0  0  0
  -20.8990  -29.7020   21.6910 H   0  0  0  0  0  0  0  0  0  0  0  0
  -17.9790  -28.2980   22.8060 C   0  0  0  0  0  0  0  0  0  0  0  0
  -20.4470  -28.4610   23.3310 C   0  0  0  0  0  3  0  0  0  0  0  0
  -20.5720  -27.0530   22.7060 C   0  0  0  0  0  2  0  0  0  0  0  0
  -19.6250  -26.8080   21.5420 C   0  0  0  0  0  2  0  0  0  0  0  0
  -18.1860  -27.0100   22.0040 C   0  0  0  0  0  2  0  0  0  0  0  0
  -19.0570  -28.9910   23.3890 C   0  0  0  0  0  0  0  0  0  0  0  0
  -18.8460  -30.2400   24.0250 C   0  0  0  0  0  3  0  0  0  0  0  0
  -17.5520  -30.7640   24.0960 C   0  0  0  0  0  3  0  0  0  0  0  0
  -16.4670  -30.0540   23.5650 C   0  0  0  0  0  3  0  0  0  0  0  0
  -16.6830  -28.8090   22.9160 C   0  0  0  0  0  3  0  0  0  0  0  0
  -25.7070  -32.4140   23.8730 C   0  0  0  0  0  3  0  0  0  0  0  0
  -25.4240  -33.8630   24.1770 N   0  0  0  0  0  0  0  0  0  0  0  0
  -25.9030  -34.9560   23.5350 C   0  0  0  0  0  0  0  0  0  0  0  0
  -26.6160  -34.8710   22.5390 O   0  0  0  0  0  0  0  0  0  0  0  0
  -24.7620  -34.0380   24.9140 H   0  0  0  0  0  0  0  0  0  0  0  0
  -24.2020  -36.8120   23.3840 C   0  0  0  0  0  1  0  0  0  0  0  0
  -25.5220  -36.3740   24.0380 C   0  0  0  0  0  3  0  0  0  0  0  0
  -27.7360  -37.3230   24.6060 C   0  0  0  0  0  1  0  0  0  0  0  0
  -26.5460  -37.4240   23.7640 N   0  0  0  0  0  0  0  0  0  0  0  0
  -26.1550  -38.3570   23.8790 H   0  0  0  0  0  0  0  0  0  0  0  0
  -26.2090  -31.8020   25.3090 C   0  0  1  0  0  0  0  0  0  0  0  0
  -25.0440  -31.5490   26.3000 C   0  0  0  0  0  1  0  0  0  0  0  0
  -26.9820  -30.4770   25.2610 C   0  0  0  0  0  1  0  0  0  0  0  0
  -27.2190  -32.7350   26.0330 C   0  0  0  0  0  1  0  0  0  0  0  0
  -25.6460  -22.4920   18.7680 C   0  0  0  0  0  1  0  0  0  0  0  0
  -26.0260  -22.4320   20.2500 C   0  0  0  0  0  1  0  0  0  0  0  0
  -27.8880  -18.6060   19.8900 C   0  0  0  0  0  1  0  0  0  0  0  0
  -26.9270  -20.1430   20.4090 C   0  0  0  0  0  1  0  0  0  0  0  0
  -28.8960  -16.6650   19.8840 C   0  0  0  0  0  2  0  0  0  0  0  0
  -29.7550  -13.9180   18.8970 C   0  0  0  0  0  2  0  0  0  0  0  0
  -29.1040  -12.8340   17.9170 C   0  0  0  0  0  2  0  0  0  0  0  0
  -27.9530  -12.0700   18.5610 C   0  0  0  0  0  2  0  0  0  0  0  0
  -27.3030  -13.0300   19.5590 C   0  0  0  0  0  3  0  0  0  0  0  0
  -28.2300  -13.8620   20.5000 C   0  0  0  0  0  2  0  0  0  0  0  0
  -28.8110  -15.0240   19.6920 N   0  0  0  0  0  0  0  0  0  0  0  0
  -30.1820  -16.4680   19.7650 O   0  0  0  0  0  1  0  0  0  0  0  0
  -25.0980  -13.3370   20.6370 C   0  0  0  0  0  0  0  0  0  0  0  0
  -24.1380  -12.4910   21.0900 C   0  0  0  0  0  0  0  0  0  0  0  0
  -24.6600  -11.1690   20.9350 C   0  0  0  0  0  0  0  0  0  0  0  0
  -26.1360  -12.5330   20.2290 N   0  0  0  0  0  0  0  0  0  0  0  0
  -25.9050  -11.2130   20.4610 N   0  0  0  0  0  0  0  0  0  0  0  0
  -24.0040   -9.8760   21.1370 C   0  0  0  0  0  0  0  0  0  0  0  0
  -24.5150   -8.9170   22.0390 C   0  0  0  0  0  3  0  0  0  0  0  0
  -23.8330   -7.6990   22.2450 C   0  0  0  0  0  3  0  0  0  0  0  0
  -22.6300   -7.4320   21.5490 C   0  0  0  0  0  0  0  0  0  0  0  0
  -22.1390   -8.3820   20.6350 C   0  0  0  0  0  3  0  0  0  0  0  0
  -22.8220   -9.5910   20.4270 C   0  0  0  0  0  3  0  0  0  0  0  0
  -21.9110   -6.2660   21.6680 O   0  0  0  0  0  0  0  0  0  0  0  0
  -21.8350   -5.5860   22.8560 C   0  0  0  0  0  0  0  0  0  0  0  0
  -21.2020   -6.1350   23.9920 C   0  0  0  0  0  3  0  0  0  0  0  0
  -21.0840   -5.3720   25.1720 C   0  0  0  0  0  3  0  0  0  0  0  0
  -21.5900   -4.0580   25.2140 C   0  0  0  0  0  0  0  0  0  0  0  0
  -22.2140   -3.5080   24.0810 C   0  0  0  0  0  3  0  0  0  0  0  0
  -22.3320   -4.2680   22.9040 C   0  0  0  0  0  0  0  0  0  0  0  0
  -22.9180   -3.7200   21.8120 F   0  0  0  0  0  0  0  0  0  0  0  0
  -21.4680   -3.3250   26.3450 F   0  0  0  0  0  0  0  0  0  0  0  0
  -22.7750  -12.9090   21.5390 C   0  0  0  0  0  0  0  0  0  0  0  0
  -22.1610  -12.1250   22.4110 N   0  0  0  0  0  0  0  0  0  0  0  0
  -22.2740  -13.9660   21.1520 O   0  0  0  0  0  0  0  0  0  0  0  0
  -22.5990  -11.2750   22.7360 H   0  0  0  0  0  0  0  0  0  0  0  0
  -21.2450  -12.3720   22.7580 H   0  0  0  0  0  0  0  0  0  0  0  0
  -25.1590  -14.7240   20.4910 N   0  0  0  0  0  0  0  0  0  0  0  0
  -24.3640  -15.3140   20.7180 H   0  0  0  0  0  0  0  0  0  0  0  0
  -25.9140  -15.2240   20.0380 H   0  0  0  0  0  0  0  0  0  0  0  0
  2 23  1  0
  4 11  1  0
  7  3  1  0
  8  6  1  0
  9 28  1  0
 10  9  1  0
 11 13  2  0
 12 11  1  0
 14 12  1  0
 15 12  1  0
 16 15  1  0
 17 16  1  0
 18 17  1  0
 19 30  2  0
 20 18  1  0
 20 25  1  0
 21 28  1  0
 21 29  1  0
 21 31  1  0
 23  1  1  0
 23 29  1  0
 24  2  1  6
 24 22  1  0
 24  1  1  0
 25 24  1  0
 26 20  1  0
 26 27  1  0
 27 22  1  0
 29 19  1  0
 31 33  2  0
 32 31  1  0
 34 32  1  0
 35 44  2  0
 35 40  1  0
 36 32  1  0
 36 40  1  0
 37 36  1  0
 38 39  1  0
 38 37  1  0
 39 35  1  0
 40 41  2  0
 41 42  1  0
 43 42  2  0
 44 43  1  0
 45 19  1  0
 45 46  1  0
 45 55  1  0
 46 49  1  0
 47 51  1  0
 47 46  1  0
 48 47  2  0
 51 50  1  0
 53 54  1  0
 53 51  1  0
 53 52  1  0
 55 58  1  1
 55 56  1  0
 57 55  1  0
 59 60  1  0
 61 62  1  0
 64 69  1  0
 65 66  1  0
 65 64  1  0
 67 66  1  0
 67 74  1  0
 67 68  1  0
 69 63  1  0
 69 68  1  0
 70 63  1  0
 71 72  2  0
 72 91  1  0
 73 72  1  0
 73 76  1  0
 74 75  1  0
 74 71  1  0
 75 73  2  0
 76 77  1  0
 77 78  2  0
 79 82  1  0
 79 78  1  0
 80 79  2  0
 81 80  1  0
 81 76  2  0
 82 83  1  0
 83 88  2  0
 83 84  1  0
 84 85  2  0
 85 86  1  0
 86 90  1  0
 87 86  2  0
 88 87  1  0
 89 88  1  0
 91 92  1  0
 92 94  1  0
 92 95  1  0
 93 91  2  0
 96 71  1  0
 96 97  1  0
 98 96  1  0
M  ISO  4  17 101  18 101  61 100  63 100
M  END
>  <TORSDO>  (88) 
F 22

>  <SCORE>  (88) 
-11.144

>  <name>  (88) 
87

>  <ligand_id>  (88) 
87

>  <original_smiles>  (88) 
[H]C(C(=O)N1C([H])([H])C([H])([H])C([H])([H])C([H])(n2nc(-c3c([H])c([H])c(Oc4c([H])c([H])c(F)c([H])c4F)c([H])c3[H])c(C(=O)N([H])[H])c2N([H])[H])C1([H])[H])=C([H])C([H])(C([H])([H])[H])C1([H])C([H])([H])C([H])(C(=O)N([H])C([H])([H])C([H])([H])C([H])([H])Oc2c([H])c([H])c3c(c2[H])C([H])([H])N(C(=O)C([H])(N([H])C(=O)C([H])(N([H])C([H])([H])[H])C([H])([H])[H])C(C([H])([H])[H])(C([H])([H])[H])C([H])([H])[H])C([H])(C(=O)N([H])C2([H])c4c([H])c([H])c([H])c([H])c4C([H])([H])C([H])([H])C2([H])[H])C3([H])[H])C2([H])C([H])([H])C([H])([H])C([H])(C([H])([H])[H])[N+]12[H]

>  <smiles>  (88) 
[H]C(C(=O)N1C([H])([H])C([H])([H])C([H])([H])C([H])(n2nc(-c3c([H])c([H])c(Oc4c([H])c([H])c(F)c([H])c4F)c([H])c3[H])c(C(=O)N([H])[H])c2N([H])[H])C1([H])[H])=C([H])C([H])(C([H])([H])[H])C1([H])C([H])([H])C([H])(C(=O)N([H])C([H])([H])C([H])([H])C([H])([H])Oc2c([H])c([H])c3c(c2[H])C([H])([H])N(C(=O)C([H])(N([H])C(=O)C([H])(N([H])C([H])([H])[H])C([H])([H])[H])C(C([H])([H])[H])(C([H])([H])[H])C([H])([H])[H])C([H])(C(=O)N([H])C2([H])c4c([H])c([H])c([H])c([H])c4C([H])([H])C([H])([H])C2([H])[H])C3([H])[H])C2([H])C([H])([H])C([H])([H])C([H])(C([H])([H])[H])[N+]12[H]

$$$$
88:0:0
     RDKit          3D

 98107  0  0  1  0  0  0  0  0999 V2000
  -28.9570  -20.0080   17.0460 C   0  0  0  0  0  2  0  0  0  0  0  0
  -30.0630  -19.7910   18.1110 C   0  0  0  0  0  2  0  0  0  0  0  0
  -28.3050  -18.8860   19.7280 C   0  0  0  0  0  2  0  0  0  0  0  0
  -27.3700  -21.5440   18.3850 C   0  0  0  0  0  2  0  0  0  0  0  0
  -26.0250  -19.8800   19.4750 C   0  0  0  0  0  2  0  0  0  0  0  0
  -27.5560  -20.1960   17.6690 C   0  0  0  0  0  3  0  0  0  0  0  0
  -29.7150  -18.6830   19.1430 C   0  0  0  0  0  3  0  0  0  0  0  0
  -27.1650  -19.1450   18.7180 C   0  0  1  0  0  0  0  0  0  0  0  0
  -26.7060  -17.8160   18.0690 C   0  0  0  0  0  1  0  0  0  0  0  0
  -26.3120  -21.3430   19.4040 N   0  0  1  0  0  4  0  0  0  0  0  0
  -25.4710  -21.7610   19.0330 H   0  0  0  0  0  0  0  0  0  0  0  0
  -30.4930  -19.1610   21.6770 C   0  0  0  0  0  1  0  0  0  0  0  0
  -30.7930  -18.5520   20.2810 C   0  0  0  0  0  3  0  0  0  0  0  0
  -30.5560  -16.1510   20.6060 C   0  0  0  0  0  3  0  0  0  0  0  0
  -31.2930  -17.1880   20.3970 N   0  0  0  0  0  0  0  0  0  0  0  0
  -31.1830  -14.7640   20.5200 C   0  0  0  0  0  0  0  0  0  0  0  0
  -30.7350  -12.5570   19.5640 C   0  0  0  0  0  2  0  0  0  0  0  0
  -29.8760  -12.7400   18.2990 C   0  0  0  0  0  2  0  0  0  0  0  0
  -28.3830  -12.6840   18.6670 C   0  0  0  0  0  2  0  0  0  0  0  0
  -28.0160  -13.5810   19.8810 C   0  0  0  0  0  3  0  0  0  0  0  0
  -29.0390  -13.4670   21.0350 C   0  0  0  0  0  2  0  0  0  0  0  0
  -30.3870  -13.6550   20.4810 N   0  0  0  0  0  0  0  0  0  0  0  0
  -32.3840  -14.7250   20.2440 O   0  0  0  0  0  0  0  0  0  0  0  0
  -25.6210  -14.2090   20.5730 C   0  0  0  0  0  0  0  0  0  0  0  0
  -24.5240  -13.4510   20.8730 C   0  0  0  0  0  0  0  0  0  0  0  0
  -24.9520  -12.0870   20.8050 C   0  0  0  0  0  0  0  0  0  0  0  0
  -26.6480  -13.3170   20.3320 N   0  0  0  0  0  0  0  0  0  0  0  0
  -26.2490  -12.0320   20.5300 N   0  0  0  0  0  0  0  0  0  0  0  0
  -24.1890  -10.8360   20.9300 C   0  0  0  0  0  0  0  0  0  0  0  0
  -24.5640   -9.8270   21.8440 C   0  0  0  0  0  3  0  0  0  0  0  0
  -23.7970   -8.6500   21.9750 C   0  0  0  0  0  3  0  0  0  0  0  0
  -22.6360   -8.4700   21.1850 C   0  0  0  0  0  0  0  0  0  0  0  0
  -22.2760   -9.4690   20.2610 C   0  0  0  0  0  3  0  0  0  0  0  0
  -23.0480  -10.6380   20.1280 C   0  0  0  0  0  3  0  0  0  0  0  0
  -21.8530   -7.3420   21.2140 O   0  0  0  0  0  0  0  0  0  0  0  0
  -21.7430   -6.5680   22.3430 C   0  0  0  0  0  0  0  0  0  0  0  0
  -21.3100   -7.1080   23.5730 C   0  0  0  0  0  3  0  0  0  0  0  0
  -21.1310   -6.2650   24.6920 C   0  0  0  0  0  3  0  0  0  0  0  0
  -21.3930   -4.8870   24.5760 C   0  0  0  0  0  0  0  0  0  0  0  0
  -21.8260   -4.3450   23.3540 C   0  0  0  0  0  3  0  0  0  0  0  0
  -21.9980   -5.1850   22.2390 C   0  0  0  0  0  0  0  0  0  0  0  0
  -22.3890   -4.6560   21.0570 F   0  0  0  0  0  0  0  0  0  0  0  0
  -21.2190   -4.0770   25.6460 F   0  0  0  0  0  0  0  0  0  0  0  0
  -23.1280  -13.9520   21.1180 C   0  0  0  0  0  0  0  0  0  0  0  0
  -22.3650  -13.2480   21.9420 N   0  0  0  0  0  0  0  0  0  0  0  0
  -22.7270  -14.9990   20.6110 O   0  0  0  0  0  0  0  0  0  0  0  0
  -22.6980  -12.3870   22.3480 H   0  0  0  0  0  0  0  0  0  0  0  0
  -21.4330  -13.5660   22.1620 H   0  0  0  0  0  0  0  0  0  0  0  0
  -25.8360  -15.5840   20.4660 N   0  0  0  0  0  0  0  0  0  0  0  0
  -25.0900  -16.2610   20.5500 H   0  0  0  0  0  0  0  0  0  0  0  0
  -26.7160  -16.0030   20.1910 H   0  0  0  0  0  0  0  0  0  0  0  0
  -26.5740  -22.0190   20.7140 C   0  0  0  0  0  2  0  0  0  0  0  0
  -26.8350  -23.5620   20.6100 C   0  0  0  0  0  2  0  0  0  0  0  0
  -28.2530  -23.6810   22.5170 C   0  0  0  0  0  1  0  0  0  0  0  0
  -28.1840  -23.9480   21.0750 N   0  0  0  0  0  0  0  0  0  0  0  0
  -28.4560  -25.3930   20.9400 C   0  0  0  0  0  2  0  0  0  0  0  0
  -28.7240  -25.9530   19.5150 C   0  0  0  0  0  2  0  0  0  0  0  0
  -28.6590  -27.3910   19.5460 O   0  0  0  0  0  0  0  0  0  0  0  0
  -24.4990  -31.8530   23.2390 C   0  0  0  0  0  0  0  0  0  0  0  0
  -27.4230  -27.9980   19.6440 C   0  0  0  0  0  0  0  0  0  0  0  0
  -23.3770  -30.5430   21.4730 C   0  0  0  0  0  3  0  0  0  0  0  0
  -24.9130  -29.2970   19.8650 C   0  0  0  0  0  0  0  0  0  0  0  0
  -25.8590  -31.1280   21.2790 C   0  0  0  0  0  2  0  0  0  0  0  0
  -26.0410  -29.8440   20.4950 C   0  0  0  0  0  0  0  0  0  0  0  0
  -27.2940  -29.1960   20.3890 C   0  0  0  0  0  3  0  0  0  0  0  0
  -26.2730  -27.4760   19.0080 C   0  0  0  0  0  3  0  0  0  0  0  0
  -25.0240  -28.1120   19.1200 C   0  0  0  0  0  3  0  0  0  0  0  0
  -23.6070  -30.0310   20.0280 C   0  0  0  0  0  2  0  0  0  0  0  0
  -24.5980  -31.1800   22.0590 N   0  0  0  0  0  0  0  0  0  0  0  0
  -23.4120  -31.9780   23.8200 O   0  0  0  0  0  0  0  0  0  0  0  0
  -22.8270  -29.3760   22.3260 C   0  0  0  0  0  0  0  0  0  0  0  0
  -21.5210  -29.0930   22.1840 N   0  0  0  0  0  0  0  0  0  0  0  0
  -23.5670  -28.7370   23.0780 O   0  0  0  0  0  0  0  0  0  0  0  0
  -20.9790  -29.6690   21.5530 H   0  0  0  0  0  0  0  0  0  0  0  0
  -18.2900  -27.5120   22.5140 C   0  0  0  0  0  0  0  0  0  0  0  0
  -20.8000  -28.0150   22.8600 C   0  0  0  0  0  3  0  0  0  0  0  0
  -21.0640  -26.6590   22.1690 C   0  0  0  0  0  2  0  0  0  0  0  0
  -20.0160  -26.3060   21.1090 C   0  0  0  0  0  2  0  0  0  0  0  0
  -18.6190  -26.2490   21.7340 C   0  0  0  0  0  2  0  0  0  0  0  0
  -19.3160  -28.3470   23.0320 C   0  0  0  0  0  0  0  0  0  0  0  0
  -18.9590  -29.5220   23.7260 C   0  0  0  0  0  3  0  0  0  0  0  0
  -17.6080  -29.8780   23.8910 C   0  0  0  0  0  3  0  0  0  0  0  0
  -16.5950  -29.0420   23.3890 C   0  0  0  0  0  3  0  0  0  0  0  0
  -16.9350  -27.8570   22.7100 C   0  0  0  0  0  3  0  0  0  0  0  0
  -25.7480  -32.5100   23.9120 C   0  0  0  0  0  3  0  0  0  0  0  0
  -25.3550  -33.8540   24.3460 N   0  0  0  0  0  0  0  0  0  0  0  0
  -25.6460  -34.9790   23.6770 C   0  0  0  0  0  0  0  0  0  0  0  0
  -26.3430  -34.9940   22.6590 O   0  0  0  0  0  0  0  0  0  0  0  0
  -24.7100  -33.9110   25.1210 H   0  0  0  0  0  0  0  0  0  0  0  0
  -23.8390  -36.7070   23.4200 C   0  0  0  0  0  1  0  0  0  0  0  0
  -25.0840  -36.3010   24.2280 C   0  0  0  0  0  3  0  0  0  0  0  0
  -27.1600  -37.2250   25.1620 C   0  0  0  0  0  1  0  0  0  0  0  0
  -26.0650  -37.4090   24.2130 N   0  0  0  0  0  0  0  0  0  0  0  0
  -25.6080  -38.2960   24.4190 H   0  0  0  0  0  0  0  0  0  0  0  0
  -26.3130  -31.6680   25.1220 C   0  0  1  0  0  0  0  0  0  0  0  0
  -25.2390  -31.2940   26.1710 C   0  0  0  0  0  1  0  0  0  0  0  0
  -26.9640  -30.3550   24.6210 C   0  0  0  0  0  1  0  0  0  0  0  0
  -27.4260  -32.4690   25.8410 C   0  0  0  0  0  1  0  0  0  0  0  0
  1  2  1  0
  2  7  1  0
  4 10  1  0
  6  1  1  0
  6  4  1  0
  6  8  1  0
  7  3  1  0
  7 13  1  0
  8  9  1  6
  8  5  1  0
  8  3  1  0
 10  5  1  0
 10 52  1  0
 10 11  1  6
 13 15  1  0
 13 12  1  0
 15 14  2  0
 16 14  1  0
 17 22  1  0
 18 19  1  0
 18 17  1  0
 20 19  1  0
 20 27  1  0
 20 21  1  0
 22 16  1  0
 22 21  1  0
 23 16  2  0
 24 25  2  0
 25 44  1  0
 26 25  1  0
 26 29  1  0
 27 28  1  0
 27 24  1  0
 28 26  2  0
 29 30  1  0
 30 31  2  0
 32 35  1  0
 32 31  1  0
 33 32  2  0
 34 33  1  0
 34 29  2  0
 35 36  1  0
 36 37  1  0
 37 38  2  0
 39 38  1  0
 39 43  1  0
 40 39  2  0
 41 36  2  0
 41 40  1  0
 42 41  1  0
 44 45  1  0
 45 48  1  0
 45 47  1  0
 46 44  2  0
 49 50  1  0
 49 24  1  0
 51 49  1  0
 53 52  1  0
 53 55  1  0
 55 54  1  0
 56 55  1  0
 57 58  1  0
 57 56  1  0
 58 60  1  0
 59 70  2  0
 60 65  1  0
 61 69  1  0
 61 71  1  0
 62 68  1  0
 62 64  1  0
 63 69  1  0
 64 63  1  0
 65 64  2  0
 66 67  1  0
 66 60  2  0
 67 62  2  0
 68 61  1  0
 69 59  1  0
 71 73  2  0
 72 71  1  0
 74 72  1  0
 75 84  2  0
 75 80  1  0
 76 72  1  0
 76 80  1  0
 77 76  1  0
 78 79  1  0
 78 77  1  0
 79 75  1  0
 80 81  2  0
 81 82  1  0
 83 82  2  0
 84 83  1  0
 85 59  1  0
 85 86  1  0
 85 95  1  0
 86 89  1  0
 87 91  1  0
 87 86  1  0
 88 87  2  0
 91 90  1  0
 93 91  1  0
 93 94  1  0
 93 92  1  0
 95 98  1  1
 95 96  1  0
 97 95  1  0
M  ISO  4  14 100  16 100  57 101  58 101
M  END
>  <TORSDO>  (89) 
F 23

>  <SCORE>  (89) 
-9.170

>  <name>  (89) 
88

>  <ligand_id>  (89) 
88

>  <original_smiles>  (89) 
[H]C(=NC([H])(C([H])([H])[H])C1([H])C([H])([H])C([H])([H])C2([H])C(C([H])([H])[H])(C1([H])[H])C([H])([H])[N+]([H])(C([H])([H])C([H])([H])N(C([H])([H])[H])C([H])([H])C([H])([H])Oc1c([H])c([H])c3c(c1[H])C([H])([H])N(C(=O)C([H])(N([H])C(=O)C([H])(N([H])C([H])([H])[H])C([H])([H])[H])C(C([H])([H])[H])(C([H])([H])[H])C([H])([H])[H])C([H])(C(=O)N([H])C1([H])c4c([H])c([H])c([H])c([H])c4C([H])([H])C([H])([H])C1([H])[H])C3([H])[H])C2([H])[H])C(=O)N1C([H])([H])C([H])([H])C([H])([H])C([H])(n2nc(-c3c([H])c([H])c(Oc4c([H])c([H])c(F)c([H])c4F)c([H])c3[H])c(C(=O)N([H])[H])c2N([H])[H])C1([H])[H]

>  <smiles>  (89) 
[H]C(=NC([H])(C([H])([H])[H])C1([H])C([H])([H])C([H])([H])C2([H])C(C([H])([H])[H])(C1([H])[H])C([H])([H])[N+]([H])(C([H])([H])C([H])([H])N(C([H])([H])[H])C([H])([H])C([H])([H])Oc1c([H])c([H])c3c(c1[H])C([H])([H])N(C(=O)C([H])(N([H])C(=O)C([H])(N([H])C([H])([H])[H])C([H])([H])[H])C(C([H])([H])[H])(C([H])([H])[H])C([H])([H])[H])C([H])(C(=O)N([H])C1([H])c4c([H])c([H])c([H])c([H])c4C([H])([H])C([H])([H])C1([H])[H])C3([H])[H])C2([H])[H])C(=O)N1C([H])([H])C([H])([H])C([H])([H])C([H])(n2nc(-c3c([H])c([H])c(Oc4c([H])c([H])c(F)c([H])c4F)c([H])c3[H])c(C(=O)N([H])[H])c2N([H])[H])C1([H])[H]

$$$$
89:0:0
     RDKit          3D

 95104  0  0  1  0  0  0  0  0999 V2000
  -33.2170  -20.2980   19.1080 C   0  0  0  0  0  3  0  0  0  0  0  0
  -33.0290  -19.0620   19.7420 C   0  0  0  0  0  0  0  0  0  0  0  0
  -31.7490  -18.8170   20.2490 C   0  0  0  0  0  0  0  0  0  0  0  0
  -31.0480  -20.8720   19.5210 C   0  0  0  0  0  0  0  0  0  0  0  0
  -29.9600  -24.3110   19.3350 C   0  0  0  0  0  2  0  0  0  0  0  0
  -28.5180  -23.0350   20.9510 C   0  0  0  0  0  2  0  0  0  0  0  0
  -30.1420  -23.0110   18.5330 C   0  0  0  0  0  2  0  0  0  0  0  0
  -28.7590  -21.7560   20.1240 C   0  0  0  0  0  2  0  0  0  0  0  0
  -28.6200  -24.3210   20.0980 C   0  0  0  0  0  3  0  0  0  0  0  0
  -34.1660  -18.0600   19.8550 C   0  0  0  0  0  1  0  0  0  0  0  0
  -32.2230  -21.1940   19.0020 N   0  0  0  0  0  0  0  0  0  0  0  0
  -30.7640  -19.7270   20.1380 N   0  0  0  0  0  0  0  0  0  0  0  0
  -30.0350  -21.8340   19.4070 N   0  0  0  0  0  0  0  0  0  0  0  0
  -31.4840  -17.6090   20.9070 N   0  0  0  0  0  0  0  0  0  0  0  0
  -32.2510  -16.9460   20.8480 H   0  0  0  0  0  0  0  0  0  0  0  0
  -28.4640  -25.5820   20.9730 C   0  0  0  0  0  2  0  0  0  0  0  0
  -28.4670  -26.7820   20.1970 O   0  0  0  0  0  0  0  0  0  0  0  0
  -24.6000  -31.9010   23.2650 C   0  0  0  0  0  0  0  0  0  0  0  0
  -27.2880  -27.4870   20.2120 C   0  0  0  0  0  0  0  0  0  0  0  0
  -23.4090  -30.4880   21.6180 C   0  0  0  0  0  3  0  0  0  0  0  0
  -24.8780  -28.9520   20.2100 C   0  0  0  0  0  0  0  0  0  0  0  0
  -25.9290  -30.8700   21.4270 C   0  0  0  0  0  2  0  0  0  0  0  0
  -26.0280  -29.4970   20.7960 C   0  0  0  0  0  0  0  0  0  0  0  0
  -27.2390  -28.7720   20.7920 C   0  0  0  0  0  3  0  0  0  0  0  0
  -26.1240  -26.9430   19.6310 C   0  0  0  0  0  3  0  0  0  0  0  0
  -24.9200  -27.6730   19.6260 C   0  0  0  0  0  3  0  0  0  0  0  0
  -23.6270  -29.8010   20.2440 C   0  0  0  0  0  2  0  0  0  0  0  0
  -24.6630  -31.1010   22.1630 N   0  0  0  0  0  0  0  0  0  0  0  0
  -23.5150  -32.1710   23.7990 O   0  0  0  0  0  0  0  0  0  0  0  0
  -22.7570  -29.4700   22.5800 C   0  0  0  0  0  0  0  0  0  0  0  0
  -21.4330  -29.2870   22.4480 N   0  0  0  0  0  0  0  0  0  0  0  0
  -23.4390  -28.8460   23.3970 O   0  0  0  0  0  0  0  0  0  0  0  0
  -20.9460  -29.8440   21.7600 H   0  0  0  0  0  0  0  0  0  0  0  0
  -18.0560  -28.0970   22.9380 C   0  0  0  0  0  0  0  0  0  0  0  0
  -20.6140  -28.3490   23.2140 C   0  0  0  0  0  3  0  0  0  0  0  0
  -20.7140  -26.9200   22.6340 C   0  0  0  0  0  2  0  0  0  0  0  0
  -19.6130  -26.6020   21.6190 C   0  0  0  0  0  2  0  0  0  0  0  0
  -18.2310  -26.7480   22.2610 C   0  0  0  0  0  2  0  0  0  0  0  0
  -19.1760  -28.8570   23.3700 C   0  0  0  0  0  0  0  0  0  0  0  0
  -18.9590  -30.1210   23.9620 C   0  0  0  0  0  3  0  0  0  0  0  0
  -17.6550  -30.6240   24.1260 C   0  0  0  0  0  3  0  0  0  0  0  0
  -16.5500  -29.8630   23.7090 C   0  0  0  0  0  3  0  0  0  0  0  0
  -16.7510  -28.6010   23.1210 C   0  0  0  0  0  3  0  0  0  0  0  0
  -25.8810  -32.5380   23.8900 C   0  0  0  0  0  3  0  0  0  0  0  0
  -26.3940  -31.7750   25.1720 C   0  0  1  0  0  0  0  0  0  0  0  0
  -25.2980  -31.5350   26.2370 C   0  0  0  0  0  1  0  0  0  0  0  0
  -26.9850  -30.3990   24.7840 C   0  0  0  0  0  1  0  0  0  0  0  0
  -27.5390  -32.5750   25.8360 C   0  0  0  0  0  1  0  0  0  0  0  0
  -25.5690  -33.9380   24.2090 N   0  0  0  0  0  0  0  0  0  0  0  0
  -25.9060  -34.9860   23.4440 C   0  0  0  0  0  0  0  0  0  0  0  0
  -26.5860  -34.8740   22.4190 O   0  0  0  0  0  0  0  0  0  0  0  0
  -24.9660  -34.0980   25.0030 H   0  0  0  0  0  0  0  0  0  0  0  0
  -24.1780  -36.7710   23.0620 C   0  0  0  0  0  1  0  0  0  0  0  0
  -25.4130  -36.3750   23.8870 C   0  0  0  0  0  3  0  0  0  0  0  0
  -27.5410  -37.2680   24.7260 C   0  0  0  0  0  1  0  0  0  0  0  0
  -26.4450  -37.4300   23.7740 N   0  0  0  0  0  0  0  0  0  0  0  0
  -26.0370  -38.3500   23.9130 H   0  0  0  0  0  0  0  0  0  0  0  0
  -30.1580  -17.0170   20.7420 C   0  0  0  0  0  2  0  0  0  0  0  0
  -30.0140  -15.5980   21.3530 C   0  0  0  0  0  2  0  0  0  0  0  0
  -30.6540  -14.4530   20.5290 C   0  0  0  0  0  0  0  0  0  0  0  0
  -30.3540  -12.3460   19.2720 C   0  0  0  0  0  2  0  0  0  0  0  0
  -29.4050  -12.6020   18.0820 C   0  0  0  0  0  2  0  0  0  0  0  0
  -27.9280  -12.4740   18.5100 C   0  0  0  0  0  2  0  0  0  0  0  0
  -27.6080  -13.2660   19.8080 C   0  0  0  0  0  3  0  0  0  0  0  0
  -28.6610  -12.9550   20.8960 C   0  0  0  0  0  2  0  0  0  0  0  0
  -29.9850  -13.2830   20.3440 N   0  0  0  0  0  0  0  0  0  0  0  0
  -31.7510  -14.6650   20.0000 O   0  0  0  0  0  0  0  0  0  0  0  0
  -25.2010  -13.8900   20.4830 C   0  0  0  0  0  0  0  0  0  0  0  0
  -24.1270  -13.1230   20.8500 C   0  0  0  0  0  0  0  0  0  0  0  0
  -24.5850  -11.7710   20.8350 C   0  0  0  0  0  0  0  0  0  0  0  0
  -26.2470  -13.0030   20.2720 N   0  0  0  0  0  0  0  0  0  0  0  0
  -25.8780  -11.7250   20.5380 N   0  0  0  0  0  0  0  0  0  0  0  0
  -23.8560  -10.5130   21.0310 C   0  0  0  0  0  0  0  0  0  0  0  0
  -24.2880   -9.5470   21.9670 C   0  0  0  0  0  3  0  0  0  0  0  0
  -23.5610   -8.3510   22.1510 C   0  0  0  0  0  3  0  0  0  0  0  0
  -22.3870   -8.1130   21.3980 C   0  0  0  0  0  0  0  0  0  0  0  0
  -21.9730   -9.0680   20.4520 C   0  0  0  0  0  3  0  0  0  0  0  0
  -22.7000  -10.2550   20.2670 C   0  0  0  0  0  3  0  0  0  0  0  0
  -21.6310   -6.9700   21.4910 O   0  0  0  0  0  0  0  0  0  0  0  0
  -21.5890   -6.2260   22.6410 C   0  0  0  0  0  0  0  0  0  0  0  0
  -21.1850   -6.7820   23.8750 C   0  0  0  0  0  3  0  0  0  0  0  0
  -21.0910   -5.9650   25.0190 C   0  0  0  0  0  3  0  0  0  0  0  0
  -21.3910   -4.5920   24.9310 C   0  0  0  0  0  0  0  0  0  0  0  0
  -21.7880   -4.0350   23.7010 C   0  0  0  0  0  3  0  0  0  0  0  0
  -21.8840   -4.8500   22.5600 C   0  0  0  0  0  0  0  0  0  0  0  0
  -22.2470   -4.3050   21.3740 F   0  0  0  0  0  0  0  0  0  0  0  0
  -21.2920   -3.8040   26.0270 F   0  0  0  0  0  0  0  0  0  0  0  0
  -22.7300  -13.6090   21.1110 C   0  0  0  0  0  0  0  0  0  0  0  0
  -21.9940  -12.9210   21.9770 N   0  0  0  0  0  0  0  0  0  0  0  0
  -22.2990  -14.6340   20.5840 O   0  0  0  0  0  0  0  0  0  0  0  0
  -22.3520  -12.0910   22.4240 H   0  0  0  0  0  0  0  0  0  0  0  0
  -21.0580  -13.2320   22.1980 H   0  0  0  0  0  0  0  0  0  0  0  0
  -25.3700  -15.2580   20.2940 N   0  0  0  0  0  0  0  0  0  0  0  0
  -24.6080  -15.9190   20.3930 H   0  0  0  0  0  0  0  0  0  0  0  0
  -26.2300  -15.6910   19.9800 H   0  0  0  0  0  0  0  0  0  0  0  0
  1  2  2  0
  2 10  1  0
  2  3  1  0
  3 14  1  0
  4 12  1  0
  5  9  1  0
  7  5  1  0
  7 13  1  0
  8  6  1  0
  9  6  1  0
  9 16  1  0
 11  1  1  0
 11  4  2  0
 12  3  2  0
 13  4  1  0
 13  8  1  0
 15 14  1  0
 17 19  1  0
 17 16  1  0
 18 29  2  0
 19 24  1  0
 20 28  1  0
 20 30  1  0
 21 27  1  0
 21 23  1  0
 22 28  1  0
 23 22  1  0
 24 23  2  0
 25 19  2  0
 26 25  1  0
 26 21  2  0
 27 20  1  0
 28 18  1  0
 30 32  2  0
 31 30  1  0
 33 31  1  0
 34 43  2  0
 34 39  1  0
 35 31  1  0
 35 39  1  0
 36 35  1  0
 37 38  1  0
 37 36  1  0
 38 34  1  0
 39 40  2  0
 40 41  1  0
 42 41  2  0
 43 42  1  0
 44 18  1  0
 44 49  1  0
 44 45  1  0
 45 48  1  1
 45 46  1  0
 47 45  1  0
 49 52  1  0
 50 54  1  0
 50 49  1  0
 51 50  2  0
 54 53  1  0
 56 54  1  0
 56 57  1  0
 56 55  1  0
 58 14  1  0
 58 59  1  0
 60 59  1  0
 61 66  1  0
 62 63  1  0
 62 61  1  0
 64 63  1  0
 64 71  1  0
 64 65  1  0
 66 60  1  0
 66 65  1  0
 67 60  2  0
 68 69  2  0
 69 88  1  0
 70 69  1  0
 70 73  1  0
 71 68  1  0
 71 72  1  0
 72 70  2  0
 73 74  1  0
 74 75  2  0
 76 79  1  0
 76 75  1  0
 77 76  2  0
 78 77  1  0
 78 73  2  0
 79 80  1  0
 80 81  1  0
 81 82  2  0
 83 82  1  0
 83 87  1  0
 84 83  2  0
 85 80  2  0
 85 84  1  0
 86 85  1  0
 88 89  1  0
 89 92  1  0
 89 91  1  0
 90 88  2  0
 93 94  1  0
 93 68  1  0
 95 93  1  0
M  ISO  4  16 101  17 101  59 100  60 100
M  END
>  <TORSDO>  (90) 
F 19

>  <SCORE>  (90) 
-14.294

>  <name>  (90) 
89

>  <ligand_id>  (90) 
89

>  <original_smiles>  (90) 
[H]c1nc(N2C([H])([H])C([H])([H])C([H])(C([H])([H])Oc3c([H])c([H])c4c(c3[H])C([H])([H])N(C(=O)C([H])(N([H])C(=O)C([H])(N([H])C([H])([H])[H])C([H])([H])[H])C(C([H])([H])[H])(C([H])([H])[H])C([H])([H])[H])C([H])(C(=O)N([H])C3([H])c5c([H])c([H])c([H])c([H])c5C([H])([H])C([H])([H])C3([H])[H])C4([H])[H])C([H])([H])C2([H])[H])nc(N([H])C([H])([H])C([H])([H])C(=O)N2C([H])([H])C([H])([H])C([H])([H])C([H])(n3nc(-c4c([H])c([H])c(Oc5c([H])c([H])c(F)c([H])c5F)c([H])c4[H])c(C(=O)N([H])[H])c3N([H])[H])C2([H])[H])c1C([H])([H])[H]

>  <smiles>  (90) 
[H]c1nc(N2C([H])([H])C([H])([H])C([H])(C([H])([H])Oc3c([H])c([H])c4c(c3[H])C([H])([H])N(C(=O)C([H])(N([H])C(=O)C([H])(N([H])C([H])([H])[H])C([H])([H])[H])C(C([H])([H])[H])(C([H])([H])[H])C([H])([H])[H])C([H])(C(=O)N([H])C3([H])c5c([H])c([H])c([H])c([H])c5C([H])([H])C([H])([H])C3([H])[H])C4([H])[H])C([H])([H])C2([H])[H])nc(N([H])C([H])([H])C([H])([H])C(=O)N2C([H])([H])C([H])([H])C([H])([H])C([H])(n3nc(-c4c([H])c([H])c(Oc5c([H])c([H])c(F)c([H])c5F)c([H])c4[H])c(C(=O)N([H])[H])c3N([H])[H])C2([H])[H])c1C([H])([H])[H]

$$$$
90:0:0
     RDKit          3D

 95103  0  0  1  0  0  0  0  0999 V2000
  -31.1110  -19.3510   19.6990 C   0  0  0  0  0  0  0  0  0  0  0  0
  -30.0930  -20.2130   19.8960 N   0  0  0  0  0  0  0  0  0  0  0  0
  -32.0950  -19.6770   19.0330 O   0  0  0  0  0  0  0  0  0  0  0  0
  -29.3160  -19.8840   20.4550 H   0  0  0  0  0  0  0  0  0  0  0  0
  -32.6980  -16.8560   21.7930 C   0  0  0  0  0  2  0  0  0  0  0  0
  -33.1400  -16.7190   20.3410 C   0  0  0  0  0  2  0  0  0  0  0  0
  -31.0090  -17.9210   20.3270 C   0  0  0  0  0  3  0  0  0  0  0  0
  -31.5640  -17.9020   21.7890 C   0  0  0  0  0  3  0  0  0  0  0  0
  -31.8280  -16.8220   19.5620 C   0  0  0  0  0  3  0  0  0  0  0  0
  -31.6680  -14.3960   18.9120 C   0  0  0  0  0  0  0  0  0  0  0  0
  -31.0420  -12.1870   18.0080 C   0  0  0  0  0  2  0  0  0  0  0  0
  -29.9120  -12.3610   16.9750 C   0  0  0  0  0  2  0  0  0  0  0  0
  -28.5340  -12.3460   17.6660 C   0  0  0  0  0  2  0  0  0  0  0  0
  -28.4710  -13.2960   18.8920 C   0  0  0  0  0  3  0  0  0  0  0  0
  -29.6960  -13.0990   19.8140 C   0  0  0  0  0  2  0  0  0  0  0  0
  -30.9080  -13.2700   18.9960 N   0  0  0  0  0  0  0  0  0  0  0  0
  -32.6940  -14.4560   18.2300 O   0  0  0  0  0  0  0  0  0  0  0  0
  -31.1740  -15.4940   19.5210 N   0  0  0  0  0  0  0  0  0  0  0  0
  -30.3060  -15.3840   20.0220 H   0  0  0  0  0  0  0  0  0  0  0  0
  -26.3740  -14.1200   20.1350 C   0  0  0  0  0  0  0  0  0  0  0  0
  -25.3010  -13.4520   20.6620 C   0  0  0  0  0  0  0  0  0  0  0  0
  -25.5490  -12.0640   20.4360 C   0  0  0  0  0  0  0  0  0  0  0  0
  -27.2150  -13.1440   19.6240 N   0  0  0  0  0  0  0  0  0  0  0  0
  -26.7330  -11.8960   19.8610 N   0  0  0  0  0  0  0  0  0  0  0  0
  -24.7030  -10.8900   20.6830 C   0  0  0  0  0  0  0  0  0  0  0  0
  -25.1130   -9.8520   21.5500 C   0  0  0  0  0  3  0  0  0  0  0  0
  -24.2740   -8.7420   21.7850 C   0  0  0  0  0  3  0  0  0  0  0  0
  -23.0100   -8.6620   21.1530 C   0  0  0  0  0  0  0  0  0  0  0  0
  -22.6170   -9.6860   20.2730 C   0  0  0  0  0  3  0  0  0  0  0  0
  -23.4560  -10.7880   20.0370 C   0  0  0  0  0  3  0  0  0  0  0  0
  -22.1390   -7.6090   21.3010 O   0  0  0  0  0  0  0  0  0  0  0  0
  -22.0220   -6.9340   22.4890 C   0  0  0  0  0  0  0  0  0  0  0  0
  -21.6240   -7.5820   23.6780 C   0  0  0  0  0  3  0  0  0  0  0  0
  -21.4490   -6.8360   24.8610 C   0  0  0  0  0  3  0  0  0  0  0  0
  -21.6610   -5.4450   24.8560 C   0  0  0  0  0  0  0  0  0  0  0  0
  -22.0520   -4.7970   23.6710 C   0  0  0  0  0  3  0  0  0  0  0  0
  -22.2290   -5.5390   22.4900 C   0  0  0  0  0  0  0  0  0  0  0  0
  -22.5850   -4.9060   21.3470 F   0  0  0  0  0  0  0  0  0  0  0  0
  -21.4850   -4.7270   25.9890 F   0  0  0  0  0  0  0  0  0  0  0  0
  -24.0680  -14.0710   21.2560 C   0  0  0  0  0  0  0  0  0  0  0  0
  -23.4450  -13.3990   22.2170 N   0  0  0  0  0  0  0  0  0  0  0  0
  -23.6760  -15.1830   20.9020 O   0  0  0  0  0  0  0  0  0  0  0  0
  -23.7810  -12.5000   22.5260 H   0  0  0  0  0  0  0  0  0  0  0  0
  -22.6240  -13.7920   22.6530 H   0  0  0  0  0  0  0  0  0  0  0  0
  -26.6950  -15.4700   20.0280 N   0  0  0  0  0  0  0  0  0  0  0  0
  -26.0610  -16.1970   20.3430 H   0  0  0  0  0  0  0  0  0  0  0  0
  -27.5110  -15.8320   19.5530 H   0  0  0  0  0  0  0  0  0  0  0  0
  -30.9230  -18.2280   24.2480 C   0  0  0  0  0  1  0  0  0  0  0  0
  -29.1070  -18.1830   22.5190 C   0  0  0  0  0  1  0  0  0  0  0  0
  -30.4990  -17.6400   22.8890 C   0  0  0  0  0  3  0  0  0  0  0  0
  -29.9850  -21.5690   19.3260 C   0  0  0  0  0  2  0  0  0  0  0  0
  -29.2250  -22.5580   20.2440 C   0  0  0  0  0  2  0  0  0  0  0  0
  -29.3290  -24.0450   19.8060 C   0  0  0  0  0  2  0  0  0  0  0  0
  -28.6230  -25.0240   20.7720 C   0  0  0  0  0  2  0  0  0  0  0  0
  -28.9200  -26.4090   20.5010 O   0  0  0  0  0  0  0  0  0  0  0  0
  -25.3040  -31.5890   23.7970 C   0  0  0  0  0  0  0  0  0  0  0  0
  -27.8190  -27.2390   20.4940 C   0  0  0  0  0  0  0  0  0  0  0  0
  -24.0950  -30.3920   22.0020 C   0  0  0  0  0  3  0  0  0  0  0  0
  -25.5230  -28.8880   20.5150 C   0  0  0  0  0  0  0  0  0  0  0  0
  -26.6430  -30.6140   21.9350 C   0  0  0  0  0  2  0  0  0  0  0  0
  -26.6810  -29.2930   21.1900 C   0  0  0  0  0  0  0  0  0  0  0  0
  -27.8370  -28.4770   21.1740 C   0  0  0  0  0  3  0  0  0  0  0  0
  -26.6510  -26.8550   19.8020 C   0  0  0  0  0  3  0  0  0  0  0  0
  -25.5030  -27.6690   19.8160 C   0  0  0  0  0  3  0  0  0  0  0  0
  -24.3280  -29.8120   20.5810 C   0  0  0  0  0  2  0  0  0  0  0  0
  -25.3640  -30.8740   22.6380 N   0  0  0  0  0  0  0  0  0  0  0  0
  -24.2170  -31.8830   24.3140 O   0  0  0  0  0  0  0  0  0  0  0  0
  -23.3460  -29.3400   22.8500 C   0  0  0  0  0  0  0  0  0  0  0  0
  -22.0390  -29.1750   22.5820 N   0  0  0  0  0  0  0  0  0  0  0  0
  -23.9400  -28.6780   23.7050 O   0  0  0  0  0  0  0  0  0  0  0  0
  -21.6240  -29.7620   21.8710 H   0  0  0  0  0  0  0  0  0  0  0  0
  -18.6470  -27.9340   22.6230 C   0  0  0  0  0  0  0  0  0  0  0  0
  -21.1440  -28.2160   23.2280 C   0  0  0  0  0  3  0  0  0  0  0  0
  -21.3400  -26.7950   22.6510 C   0  0  0  0  0  2  0  0  0  0  0  0
  -20.3830  -26.4760   21.4980 C   0  0  0  0  0  2  0  0  0  0  0  0
  -18.9270  -26.5960   21.9590 C   0  0  0  0  0  2  0  0  0  0  0  0
  -19.6900  -28.7020   23.2060 C   0  0  0  0  0  0  0  0  0  0  0  0
  -19.3810  -29.9540   23.7780 C   0  0  0  0  0  3  0  0  0  0  0  0
  -18.0610  -30.4400   23.7780 C   0  0  0  0  0  3  0  0  0  0  0  0
  -17.0290  -29.6680   23.2160 C   0  0  0  0  0  3  0  0  0  0  0  0
  -17.3220  -28.4180   22.6440 C   0  0  0  0  0  3  0  0  0  0  0  0
  -26.5960  -32.0910   24.5160 C   0  0  0  0  0  3  0  0  0  0  0  0
  -26.4140  -33.5200   24.8030 N   0  0  0  0  0  0  0  0  0  0  0  0
  -26.9380  -34.5140   24.0740 C   0  0  0  0  0  0  0  0  0  0  0  0
  -27.6930  -34.3180   23.1180 O   0  0  0  0  0  0  0  0  0  0  0  0
  -25.7630  -33.7550   25.5370 H   0  0  0  0  0  0  0  0  0  0  0  0
  -25.4650  -36.4780   23.5290 C   0  0  0  0  0  1  0  0  0  0  0  0
  -26.5640  -35.9560   24.4680 C   0  0  0  0  0  3  0  0  0  0  0  0
  -28.6840  -36.6200   25.5130 C   0  0  0  0  0  1  0  0  0  0  0  0
  -27.7140  -36.8880   24.4550 N   0  0  0  0  0  0  0  0  0  0  0  0
  -27.3980  -37.8490   24.5490 H   0  0  0  0  0  0  0  0  0  0  0  0
  -26.9240  -31.2930   25.8370 C   0  0  1  0  0  0  0  0  0  0  0  0
  -25.7250  -31.1780   26.8070 C   0  0  0  0  0  1  0  0  0  0  0  0
  -27.4020  -29.8600   25.5030 C   0  0  0  0  0  1  0  0  0  0  0  0
  -28.0840  -31.9830   26.5910 C   0  0  0  0  0  1  0  0  0  0  0  0
  1  2  1  0
  2  4  1  0
  3  1  2  0
  6  5  1  0
  7  1  1  0
  7  8  1  0
  8  5  1  0
  8 50  1  0
  9 18  1  0
  9  7  1  0
  9  6  1  0
 10 16  1  0
 10 18  1  0
 11 16  1  0
 12 13  1  0
 12 11  1  0
 14 13  1  0
 14 23  1  0
 14 15  1  0
 16 15  1  0
 17 10  2  0
 18 19  1  0
 20 21  2  0
 21 40  1  0
 22 21  1  0
 22 25  1  0
 23 24  1  0
 23 20  1  0
 24 22  2  0
 25 26  1  0
 26 27  2  0
 28 31  1  0
 28 27  1  0
 29 28  2  0
 30 29  1  0
 30 25  2  0
 31 32  1  0
 32 37  2  0
 32 33  1  0
 33 34  2  0
 35 34  1  0
 35 39  1  0
 36 35  2  0
 37 36  1  0
 38 37  1  0
 40 41  1  0
 41 43  1  0
 41 44  1  0
 42 40  2  0
 45 20  1  0
 45 46  1  0
 47 45  1  0
 49 50  1  0
 50 48  1  0
 51  2  1  0
 51 52  1  0
 53 52  1  0
 53 54  1  0
 55 54  1  0
 56 67  2  0
 57 55  1  0
 57 62  1  0
 58 66  1  0
 58 68  1  0
 59 65  1  0
 59 61  1  0
 60 66  1  0
 61 60  1  0
 62 61  2  0
 63 64  1  0
 63 57  2  0
 64 59  2  0
 65 58  1  0
 66 56  1  0
 68 70  2  0
 69 68  1  0
 71 69  1  0
 72 81  2  0
 72 77  1  0
 73 69  1  0
 74 73  1  0
 75 76  1  0
 75 74  1  0
 76 72  1  0
 77 73  1  0
 77 78  2  0
 78 79  1  0
 80 79  2  0
 81 80  1  0
 82 56  1  0
 82 83  1  0
 82 92  1  0
 83 86  1  0
 84 88  1  0
 84 83  1  0
 85 84  2  0
 88 87  1  0
 90 88  1  0
 90 91  1  0
 90 89  1  0
 92 95  1  1
 92 93  1  0
 94 92  1  0
M  ISO  4  10 100  18 100  54 101  55 101
M  END
>  <TORSDO>  (91) 
F 22

>  <SCORE>  (91) 
-3.000

>  <name>  (91) 
90

>  <ligand_id>  (91) 
90

>  <original_smiles>  (91) 
[H]c1c([H])c([H])c2c(c1[H])C([H])([H])C([H])([H])C([H])([H])C2([H])N([H])C(=O)C1([H])N(C(=O)C([H])(N([H])C(=O)C([H])(N([H])C([H])([H])[H])C([H])([H])[H])C(C([H])([H])[H])(C([H])([H])[H])C([H])([H])[H])C([H])([H])c2c([H])c(OC([H])([H])C([H])([H])C([H])([H])C([H])([H])N([H])C(=O)C3([H])C([H])(N([H])C(=O)N4C([H])([H])C([H])([H])C([H])([H])C([H])(n5nc(-c6c([H])c([H])c(Oc7c([H])c([H])c(F)c([H])c7F)c([H])c6[H])c(C(=O)N([H])[H])c5N([H])[H])C4([H])[H])C([H])([H])C([H])([H])C3([H])C([H])(C([H])([H])[H])C([H])([H])[H])c([H])c([H])c2C1([H])[H]

>  <smiles>  (91) 
[H]c1c([H])c([H])c2c(c1[H])C([H])([H])C([H])([H])C([H])([H])C2([H])N([H])C(=O)C1([H])N(C(=O)C([H])(N([H])C(=O)C([H])(N([H])C([H])([H])[H])C([H])([H])[H])C(C([H])([H])[H])(C([H])([H])[H])C([H])([H])[H])C([H])([H])c2c([H])c(OC([H])([H])C([H])([H])C([H])([H])C([H])([H])N([H])C(=O)C3([H])C([H])(N([H])C(=O)N4C([H])([H])C([H])([H])C([H])([H])C([H])(n5nc(-c6c([H])c([H])c(Oc7c([H])c([H])c(F)c([H])c7F)c([H])c6[H])c(C(=O)N([H])[H])c5N([H])[H])C4([H])[H])C([H])([H])C([H])([H])C3([H])C([H])(C([H])([H])[H])C([H])([H])[H])c([H])c([H])c2C1([H])[H]

$$$$
91:0:0
     RDKit          3D

 95104  0  0  1  0  0  0  0  0999 V2000
  -28.0730  -21.0850   20.7180 C   0  0  0  0  0  0  0  0  0  0  0  0
  -28.2470  -22.3170   20.2220 N   0  0  0  0  0  0  0  0  0  0  0  0
  -27.8450  -20.8970   21.9150 O   0  0  0  0  0  0  0  0  0  0  0  0
  -28.3020  -22.4360   19.2210 H   0  0  0  0  0  0  0  0  0  0  0  0
  -27.1660  -20.4510   17.5950 C   0  0  0  0  0  2  0  0  0  0  0  0
  -26.9010  -19.7130   18.9070 C   0  0  0  0  0  2  0  0  0  0  0  0
  -28.6380  -18.5960   20.4480 C   0  0  0  0  0  2  0  0  0  0  0  0
  -28.6650  -20.2440   17.3810 C   0  0  0  0  0  2  0  0  0  0  0  0
  -30.3480  -19.2080   18.9000 C   0  0  0  0  0  2  0  0  0  0  0  0
  -29.6420  -17.9890   19.4780 C   0  0  0  0  0  3  0  0  0  0  0  0
  -28.1960  -19.8980   19.7310 C   0  0  2  0  0  0  0  0  0  0  0  0
  -29.2670  -20.1980   18.7370 N   0  0  2  0  0  4  0  0  0  0  0  0
  -29.6460  -21.1060   18.9660 H   0  0  0  0  0  0  0  0  0  0  0  0
  -30.7390  -15.7790   19.4520 C   0  0  0  0  0  3  0  0  0  0  0  0
  -30.5740  -16.9540   20.0690 C   0  0  0  0  0  3  0  0  0  0  0  0
  -31.5940  -14.7120   19.9190 C   0  0  0  0  0  0  0  0  0  0  0  0
  -31.2030  -12.4460   19.1420 C   0  0  0  0  0  2  0  0  0  0  0  0
  -30.2550  -12.5710   17.9290 C   0  0  0  0  0  2  0  0  0  0  0  0
  -28.7800  -12.5390   18.3810 C   0  0  0  0  0  2  0  0  0  0  0  0
  -28.4810  -13.5310   19.5350 C   0  0  0  0  0  3  0  0  0  0  0  0
  -29.5580  -13.4440   20.6460 C   0  0  0  0  0  2  0  0  0  0  0  0
  -30.9010  -13.5550   20.0470 N   0  0  0  0  0  0  0  0  0  0  0  0
  -32.8090  -14.7770   19.7380 O   0  0  0  0  0  0  0  0  0  0  0  0
  -26.1870  -14.3490   20.3580 C   0  0  0  0  0  0  0  0  0  0  0  0
  -25.0610  -13.6700   20.7340 C   0  0  0  0  0  0  0  0  0  0  0  0
  -25.3900  -12.2830   20.6410 C   0  0  0  0  0  0  0  0  0  0  0  0
  -27.1320  -13.3760   20.0630 N   0  0  0  0  0  0  0  0  0  0  0  0
  -26.6590  -12.1290   20.2940 N   0  0  0  0  0  0  0  0  0  0  0  0
  -24.5540  -11.0890   20.8080 C   0  0  0  0  0  0  0  0  0  0  0  0
  -24.9020  -10.0690   21.7200 C   0  0  0  0  0  3  0  0  0  0  0  0
  -24.0750   -8.9370   21.8740 C   0  0  0  0  0  3  0  0  0  0  0  0
  -22.8870   -8.8170   21.1150 C   0  0  0  0  0  0  0  0  0  0  0  0
  -22.5580   -9.8260   20.1930 C   0  0  0  0  0  3  0  0  0  0  0  0
  -23.3840  -10.9510   20.0360 C   0  0  0  0  0  3  0  0  0  0  0  0
  -22.0350   -7.7420   21.1820 O   0  0  0  0  0  0  0  0  0  0  0  0
  -21.8770   -7.0220   22.3380 C   0  0  0  0  0  0  0  0  0  0  0  0
  -21.4330   -7.6230   23.5360 C   0  0  0  0  0  3  0  0  0  0  0  0
  -21.2150   -6.8320   24.6810 C   0  0  0  0  0  3  0  0  0  0  0  0
  -21.4320   -5.4410   24.6300 C   0  0  0  0  0  0  0  0  0  0  0  0
  -21.8690   -4.8400   23.4370 C   0  0  0  0  0  3  0  0  0  0  0  0
  -22.0880   -5.6280   22.2930 C   0  0  0  0  0  0  0  0  0  0  0  0
  -22.4880   -5.0420   21.1400 F   0  0  0  0  0  0  0  0  0  0  0  0
  -21.2150   -4.6800   25.7280 F   0  0  0  0  0  0  0  0  0  0  0  0
  -23.7240  -14.2680   21.0650 C   0  0  0  0  0  0  0  0  0  0  0  0
  -22.9620  -13.6160   21.9370 N   0  0  0  0  0  0  0  0  0  0  0  0
  -23.3670  -15.3420   20.5850 O   0  0  0  0  0  0  0  0  0  0  0  0
  -23.2660  -12.7460   22.3460 H   0  0  0  0  0  0  0  0  0  0  0  0
  -22.0650  -13.9960   22.2030 H   0  0  0  0  0  0  0  0  0  0  0  0
  -26.4810  -15.7040   20.2270 N   0  0  0  0  0  0  0  0  0  0  0  0
  -25.7890  -16.4240   20.3920 H   0  0  0  0  0  0  0  0  0  0  0  0
  -27.3770  -16.0660   19.9270 H   0  0  0  0  0  0  0  0  0  0  0  0
  -28.2780  -23.5370   21.0070 C   0  0  0  0  0  2  0  0  0  0  0  0
  -28.6850  -24.6940   20.0940 C   0  0  0  0  0  2  0  0  0  0  0  0
  -28.7790  -26.0300   20.8300 C   0  0  0  0  0  2  0  0  0  0  0  0
  -28.6680  -27.0720   19.8700 O   0  0  0  0  0  0  0  0  0  0  0  0
  -24.6480  -31.8610   23.2070 C   0  0  0  0  0  0  0  0  0  0  0  0
  -27.4630  -27.7190   19.9190 C   0  0  0  0  0  0  0  0  0  0  0  0
  -23.4890  -30.4890   21.5040 C   0  0  0  0  0  3  0  0  0  0  0  0
  -24.9970  -29.0720   20.0140 C   0  0  0  0  0  0  0  0  0  0  0  0
  -25.9910  -30.9650   21.3150 C   0  0  0  0  0  2  0  0  0  0  0  0
  -26.1300  -29.6310   20.6200 C   0  0  0  0  0  0  0  0  0  0  0  0
  -27.3660  -28.9590   20.5750 C   0  0  0  0  0  3  0  0  0  0  0  0
  -26.3200  -27.1570   19.3100 C   0  0  0  0  0  3  0  0  0  0  0  0
  -25.0850  -27.8300   19.3600 C   0  0  0  0  0  3  0  0  0  0  0  0
  -23.7190  -29.8730   20.0970 C   0  0  0  0  0  2  0  0  0  0  0  0
  -24.7280  -31.1160   22.0690 N   0  0  0  0  0  0  0  0  0  0  0  0
  -23.5600  -32.0700   23.7610 O   0  0  0  0  0  0  0  0  0  0  0  0
  -22.8820  -29.4040   22.4200 C   0  0  0  0  0  0  0  0  0  0  0  0
  -21.5670  -29.1700   22.2760 N   0  0  0  0  0  0  0  0  0  0  0  0
  -23.5890  -28.7750   23.2110 O   0  0  0  0  0  0  0  0  0  0  0  0
  -21.0540  -29.7340   21.6130 H   0  0  0  0  0  0  0  0  0  0  0  0
  -18.2420  -27.8270   22.7070 C   0  0  0  0  0  0  0  0  0  0  0  0
  -20.7870  -28.1690   23.0010 C   0  0  0  0  0  3  0  0  0  0  0  0
  -20.9440  -26.7700   22.3620 C   0  0  0  0  0  2  0  0  0  0  0  0
  -19.8580  -26.4580   21.3270 C   0  0  0  0  0  2  0  0  0  0  0  0
  -18.4710  -26.5180   21.9730 C   0  0  0  0  0  2  0  0  0  0  0  0
  -19.3300  -28.6110   23.1740 C   0  0  0  0  0  0  0  0  0  0  0  0
  -19.0630  -29.8380   23.8190 C   0  0  0  0  0  3  0  0  0  0  0  0
  -17.7400  -30.2840   23.9990 C   0  0  0  0  0  3  0  0  0  0  0  0
  -16.6660  -29.4950   23.5510 C   0  0  0  0  0  3  0  0  0  0  0  0
  -16.9170  -28.2700   22.9100 C   0  0  0  0  0  3  0  0  0  0  0  0
  -25.9140  -32.5080   23.8520 C   0  0  0  0  0  3  0  0  0  0  0  0
  -25.5790  -33.8970   24.1890 N   0  0  0  0  0  0  0  0  0  0  0  0
  -25.8960  -34.9590   23.4360 C   0  0  0  0  0  0  0  0  0  0  0  0
  -26.5730  -34.8730   22.4080 O   0  0  0  0  0  0  0  0  0  0  0  0
  -24.9800  -34.0400   24.9900 H   0  0  0  0  0  0  0  0  0  0  0  0
  -24.1250  -36.7100   23.0860 C   0  0  0  0  0  1  0  0  0  0  0  0
  -25.3760  -36.3340   23.8960 C   0  0  0  0  0  3  0  0  0  0  0  0
  -27.4880  -37.2710   24.7270 C   0  0  0  0  0  1  0  0  0  0  0  0
  -26.3830  -37.4110   23.7820 N   0  0  0  0  0  0  0  0  0  0  0  0
  -25.9550  -38.3220   23.9250 H   0  0  0  0  0  0  0  0  0  0  0  0
  -26.4320  -31.7320   25.1250 C   0  0  1  0  0  0  0  0  0  0  0  0
  -25.3260  -31.4360   26.1630 C   0  0  0  0  0  1  0  0  0  0  0  0
  -27.0720  -30.3850   24.7180 C   0  0  0  0  0  1  0  0  0  0  0  0
  -27.5410  -32.5520   25.8270 C   0  0  0  0  0  1  0  0  0  0  0  0
  1  3  2  0
  2  1  1  0
  2 52  1  0
  4  2  1  0
  5  6  1  0
  6 11  1  0
  8  5  1  0
  8 12  1  0
  9 10  1  0
 10 15  1  0
 10  7  1  0
 11  7  1  0
 11  1  1  1
 12  9  1  0
 12 13  1  1
 12 11  1  0
 14 16  1  0
 14 15  2  0
 16 22  1  0
 17 22  1  0
 18 19  1  0
 18 17  1  0
 20 19  1  0
 20 27  1  0
 20 21  1  0
 22 21  1  0
 23 16  2  0
 24 25  2  0
 25 44  1  0
 26 25  1  0
 26 29  1  0
 27 28  1  0
 27 24  1  0
 28 26  2  0
 29 30  1  0
 30 31  2  0
 32 35  1  0
 32 31  1  0
 33 32  2  0
 34 33  1  0
 34 29  2  0
 35 36  1  0
 36 37  1  0
 37 38  2  0
 39 38  1  0
 39 43  1  0
 40 39  2  0
 41 36  2  0
 41 40  1  0
 42 41  1  0
 44 45  1  0
 45 48  1  0
 45 47  1  0
 46 44  2  0
 49 24  1  0
 49 50  1  0
 51 49  1  0
 53 54  1  0
 53 52  1  0
 55 57  1  0
 55 54  1  0
 56 67  2  0
 57 62  1  0
 58 66  1  0
 58 68  1  0
 59 65  1  0
 59 61  1  0
 60 66  1  0
 61 60  1  0
 62 61  2  0
 63 64  1  0
 63 57  2  0
 64 59  2  0
 65 58  1  0
 66 56  1  0
 68 70  2  0
 69 68  1  0
 71 69  1  0
 72 81  2  0
 72 77  1  0
 73 69  1  0
 73 77  1  0
 74 73  1  0
 75 76  1  0
 75 74  1  0
 76 72  1  0
 77 78  2  0
 78 79  1  0
 80 79  2  0
 81 80  1  0
 82 56  1  0
 82 83  1  0
 82 92  1  0
 83 86  1  0
 84 88  1  0
 84 83  1  0
 85 84  2  0
 88 87  1  0
 90 88  1  0
 90 91  1  0
 90 89  1  0
 92 95  1  1
 92 93  1  0
 94 92  1  0
M  ISO  4  14 100  16 100  54 101  55 101
M  END
>  <TORSDO>  (92) 
F 21

>  <SCORE>  (92) 
-11.827

>  <name>  (92) 
91

>  <ligand_id>  (92) 
91

>  <original_smiles>  (92) 
[H]C(C(=O)N1C([H])([H])C([H])([H])C([H])([H])C([H])(n2nc(-c3c([H])c([H])c(Oc4c([H])c([H])c(F)c([H])c4F)c([H])c3[H])c(C(=O)N([H])[H])c2N([H])[H])C1([H])[H])=C([H])C1([H])C([H])([H])C2(C(=O)N([H])C([H])([H])C([H])([H])C([H])([H])Oc3c([H])c([H])c4c(c3[H])C([H])([H])N(C(=O)C([H])(N([H])C(=O)C([H])(N([H])C([H])([H])[H])C([H])([H])[H])C(C([H])([H])[H])(C([H])([H])[H])C([H])([H])[H])C([H])(C(=O)N([H])C3([H])c5c([H])c([H])c([H])c([H])c5C([H])([H])C([H])([H])C3([H])[H])C4([H])[H])C([H])([H])C([H])([H])C([H])([H])[N+]2([H])C1([H])[H]

>  <smiles>  (92) 
[H]C(C(=O)N1C([H])([H])C([H])([H])C([H])([H])C([H])(n2nc(-c3c([H])c([H])c(Oc4c([H])c([H])c(F)c([H])c4F)c([H])c3[H])c(C(=O)N([H])[H])c2N([H])[H])C1([H])[H])=C([H])C1([H])C([H])([H])C2(C(=O)N([H])C([H])([H])C([H])([H])C([H])([H])Oc3c([H])c([H])c4c(c3[H])C([H])([H])N(C(=O)C([H])(N([H])C(=O)C([H])(N([H])C([H])([H])[H])C([H])([H])[H])C(C([H])([H])[H])(C([H])([H])[H])C([H])([H])[H])C([H])(C(=O)N([H])C3([H])c5c([H])c([H])c([H])c([H])c5C([H])([H])C([H])([H])C3([H])[H])C4([H])[H])C([H])([H])C([H])([H])C([H])([H])[N+]2([H])C1([H])[H]

$$$$
92:0:0
     RDKit          3D

 98106  0  0  1  0  0  0  0  0999 V2000
  -29.1180  -22.2860   20.4000 C   0  0  0  0  0  2  0  0  0  0  0  0
  -25.8780  -23.4900   22.1510 C   0  0  0  0  0  2  0  0  0  0  0  0
  -25.5960  -24.8280   21.4630 C   0  0  0  0  0  2  0  0  0  0  0  0
  -27.3600  -23.1350   22.0260 C   0  0  0  0  0  2  0  0  0  0  0  0
  -26.0590  -24.8280   19.9940 C   0  0  0  0  0  2  0  0  0  0  0  0
  -27.7790  -23.0790   20.5430 C   0  0  0  0  0  3  0  0  0  0  0  0
  -27.5570  -24.4600   19.7880 C   0  0  0  0  0  3  0  0  0  0  0  0
  -28.4980  -25.6940   20.0660 C   0  0  0  0  0  2  0  0  0  0  0  0
  -28.3490  -26.8900   19.2360 O   0  0  0  0  0  0  0  0  0  0  0  0
  -24.6570  -31.6080   23.1560 C   0  0  0  0  0  0  0  0  0  0  0  0
  -27.2180  -27.6700   19.3840 C   0  0  0  0  0  0  0  0  0  0  0  0
  -23.4120  -30.4690   21.3490 C   0  0  0  0  0  3  0  0  0  0  0  0
  -24.8340  -29.1810   19.6620 C   0  0  0  0  0  0  0  0  0  0  0  0
  -25.9320  -30.8670   21.1440 C   0  0  0  0  0  2  0  0  0  0  0  0
  -26.0060  -29.6030   20.3050 C   0  0  0  0  0  0  0  0  0  0  0  0
  -27.2020  -28.8510   20.1720 C   0  0  0  0  0  3  0  0  0  0  0  0
  -26.0470  -27.3160   18.6820 C   0  0  0  0  0  3  0  0  0  0  0  0
  -24.8480  -28.0360   18.8500 C   0  0  0  0  0  3  0  0  0  0  0  0
  -23.5850  -30.0110   19.8760 C   0  0  0  0  0  2  0  0  0  0  0  0
  -24.6870  -30.9870   21.9430 N   0  0  0  0  0  0  0  0  0  0  0  0
  -23.5900  -31.7880   23.7580 O   0  0  0  0  0  0  0  0  0  0  0  0
  -22.7850  -29.3110   22.1580 C   0  0  0  0  0  0  0  0  0  0  0  0
  -21.4540  -29.1550   22.0540 N   0  0  0  0  0  0  0  0  0  0  0  0
  -23.4910  -28.5590   22.8340 O   0  0  0  0  0  0  0  0  0  0  0  0
  -20.9420  -29.8130   21.4820 H   0  0  0  0  0  0  0  0  0  0  0  0
  -18.0900  -27.9230   22.5190 C   0  0  0  0  0  0  0  0  0  0  0  0
  -20.6620  -28.1080   22.6960 C   0  0  0  0  0  3  0  0  0  0  0  0
  -20.7110  -26.7960   21.8810 C   0  0  0  0  0  2  0  0  0  0  0  0
  -19.5540  -26.6600   20.8850 C   0  0  0  0  0  2  0  0  0  0  0  0
  -18.2070  -26.7080   21.6130 C   0  0  0  0  0  2  0  0  0  0  0  0
  -19.2420  -28.5890   23.0140 C   0  0  0  0  0  0  0  0  0  0  0  0
  -19.0740  -29.7350   23.8210 C   0  0  0  0  0  3  0  0  0  0  0  0
  -17.7880  -30.2140   24.1370 C   0  0  0  0  0  3  0  0  0  0  0  0
  -16.6520  -29.5410   23.6570 C   0  0  0  0  0  3  0  0  0  0  0  0
  -16.8040  -28.3970   22.8540 C   0  0  0  0  0  3  0  0  0  0  0  0
  -25.9590  -32.1450   23.8320 C   0  0  0  0  0  3  0  0  0  0  0  0
  -25.6850  -33.5090   24.3010 N   0  0  0  0  0  0  0  0  0  0  0  0
  -26.0440  -34.6230   23.6510 C   0  0  0  0  0  0  0  0  0  0  0  0
  -26.7100  -34.6080   22.6130 O   0  0  0  0  0  0  0  0  0  0  0  0
  -25.0980  -33.5950   25.1180 H   0  0  0  0  0  0  0  0  0  0  0  0
  -24.3600  -36.4800   23.4810 C   0  0  0  0  0  1  0  0  0  0  0  0
  -25.5900  -35.9690   24.2460 C   0  0  0  0  0  3  0  0  0  0  0  0
  -27.7420  -36.7120   25.1630 C   0  0  0  0  0  1  0  0  0  0  0  0
  -26.6500  -37.0010   24.2380 N   0  0  0  0  0  0  0  0  0  0  0  0
  -26.2670  -37.9120   24.4780 H   0  0  0  0  0  0  0  0  0  0  0  0
  -26.4650  -31.2370   25.0180 C   0  0  1  0  0  0  0  0  0  0  0  0
  -25.3710  -30.9240   26.0660 C   0  0  0  0  0  1  0  0  0  0  0  0
  -27.0090  -29.8920   24.4840 C   0  0  0  0  0  1  0  0  0  0  0  0
  -27.6470  -31.9280   25.7380 C   0  0  0  0  0  1  0  0  0  0  0  0
  -28.9600  -20.7550   19.9990 C   0  0  0  0  0  3  0  0  0  0  0  0
  -30.0290  -19.8350   20.6290 C   0  0  0  0  0  0  0  0  0  0  0  0
  -31.2620  -20.3280   20.8520 N   0  0  0  0  0  4  0  0  0  0  0  0
  -29.7600  -18.5250   20.9320 N   0  0  0  0  0  0  0  0  0  0  0  0
  -31.4840  -21.2780   20.5920 H   0  0  0  0  0  0  0  0  0  0  0  0
  -31.9960  -19.8080   21.3070 H   0  0  0  0  0  0  0  0  0  0  0  0
  -28.7920  -18.2290   20.8710 H   0  0  0  0  0  0  0  0  0  0  0  0
  -30.7320  -17.4610   21.3540 C   0  0  0  0  0  2  0  0  0  0  0  0
  -30.1530  -16.0000   21.5230 C   0  0  0  0  0  2  0  0  0  0  0  0
  -30.8420  -14.8380   20.7170 C   0  0  0  0  0  0  0  0  0  0  0  0
  -30.6180  -12.6810   19.4850 C   0  0  0  0  0  2  0  0  0  0  0  0
  -29.7110  -12.8780   18.2520 C   0  0  0  0  0  2  0  0  0  0  0  0
  -28.2290  -12.6970   18.6360 C   0  0  0  0  0  2  0  0  0  0  0  0
  -27.8390  -13.5140   19.8940 C   0  0  0  0  0  3  0  0  0  0  0  0
  -28.8610  -13.3110   21.0330 C   0  0  0  0  0  2  0  0  0  0  0  0
  -30.1950  -13.6490   20.5150 N   0  0  0  0  0  0  0  0  0  0  0  0
  -31.9570  -15.0400   20.2260 O   0  0  0  0  0  0  0  0  0  0  0  0
  -25.4160  -14.0870   20.5360 C   0  0  0  0  0  0  0  0  0  0  0  0
  -24.3430  -13.3010   20.8600 C   0  0  0  0  0  0  0  0  0  0  0  0
  -24.8150  -11.9520   20.8210 C   0  0  0  0  0  0  0  0  0  0  0  0
  -26.4750  -13.2170   20.3270 N   0  0  0  0  0  0  0  0  0  0  0  0
  -26.1140  -11.9270   20.5520 N   0  0  0  0  0  0  0  0  0  0  0  0
  -24.0910  -10.6820   20.9720 C   0  0  0  0  0  0  0  0  0  0  0  0
  -24.5080   -9.6990   21.8970 C   0  0  0  0  0  3  0  0  0  0  0  0
  -23.7840   -8.4950   22.0380 C   0  0  0  0  0  3  0  0  0  0  0  0
  -22.6300   -8.2640   21.2510 C   0  0  0  0  0  0  0  0  0  0  0  0
  -22.2350   -9.2350   20.3140 C   0  0  0  0  0  3  0  0  0  0  0  0
  -22.9590  -10.4310   20.1720 C   0  0  0  0  0  3  0  0  0  0  0  0
  -21.8820   -7.1100   21.2990 O   0  0  0  0  0  0  0  0  0  0  0  0
  -21.8050   -6.3500   22.4380 C   0  0  0  0  0  0  0  0  0  0  0  0
  -21.3270   -6.8830   23.6570 C   0  0  0  0  0  3  0  0  0  0  0  0
  -21.1980   -6.0510   24.7860 C   0  0  0  0  0  3  0  0  0  0  0  0
  -21.5340   -4.6870   24.6970 C   0  0  0  0  0  0  0  0  0  0  0  0
  -22.0050   -4.1520   23.4840 C   0  0  0  0  0  3  0  0  0  0  0  0
  -22.1380   -4.9830   22.3570 C   0  0  0  0  0  0  0  0  0  0  0  0
  -22.5720   -4.4600   21.1850 F   0  0  0  0  0  0  0  0  0  0  0  0
  -21.4030   -3.8860   25.7790 F   0  0  0  0  0  0  0  0  0  0  0  0
  -22.9340  -13.7600   21.1040 C   0  0  0  0  0  0  0  0  0  0  0  0
  -22.1950  -13.0440   21.9410 N   0  0  0  0  0  0  0  0  0  0  0  0
  -22.5000  -14.7890   20.5870 O   0  0  0  0  0  0  0  0  0  0  0  0
  -22.5590  -12.2110   22.3770 H   0  0  0  0  0  0  0  0  0  0  0  0
  -21.2510  -13.3330   22.1530 H   0  0  0  0  0  0  0  0  0  0  0  0
  -25.5730  -15.4630   20.3780 N   0  0  0  0  0  0  0  0  0  0  0  0
  -24.7910  -16.1050   20.4550 H   0  0  0  0  0  0  0  0  0  0  0  0
  -26.4100  -15.9050   20.0230 H   0  0  0  0  0  0  0  0  0  0  0  0
  -27.7280  -21.2860   17.7970 C   0  0  0  0  0  1  0  0  0  0  0  0
  -28.7200  -19.0350   18.1040 C   0  0  0  0  0  1  0  0  0  0  0  0
  -30.2040  -21.0100   17.7420 C   0  0  0  0  0  1  0  0  0  0  0  0
  -28.9110  -20.5310   18.4400 C   0  0  2  0  0  0  0  0  0  0  0  0
  3  2  1  0
  4  2  1  0
  5  3  1  0
  6  1  1  0
  6  4  1  0
  7  5  1  0
  7  8  1  0
  7  6  1  0
  9 11  1  0
  9  8  1  0
 10 21  2  0
 11 16  1  0
 12 20  1  0
 12 22  1  0
 13 19  1  0
 13 15  1  0
 14 20  1  0
 15 14  1  0
 16 15  2  0
 17 18  1  0
 17 11  2  0
 18 13  2  0
 19 12  1  0
 20 10  1  0
 22 24  2  0
 23 22  1  0
 25 23  1  0
 26 35  2  0
 26 31  1  0
 27 23  1  0
 27 31  1  0
 28 27  1  0
 29 30  1  0
 29 28  1  0
 30 26  1  0
 31 32  2  0
 32 33  1  0
 34 33  2  0
 35 34  1  0
 36 10  1  0
 36 37  1  0
 36 46  1  0
 37 40  1  0
 38 42  1  0
 38 37  1  0
 39 38  2  0
 42 41  1  0
 44 42  1  0
 44 45  1  0
 44 43  1  0
 46 49  1  1
 46 47  1  0
 48 46  1  0
 50  1  1  0
 50 51  1  0
 51 52  2  0
 51 53  1  0
 52 55  1  0
 53 57  1  0
 54 52  1  0
 56 53  1  0
 57 58  1  0
 59 58  1  0
 60 65  1  0
 61 62  1  0
 61 60  1  0
 63 62  1  0
 63 70  1  0
 63 64  1  0
 65 59  1  0
 65 64  1  0
 66 59  2  0
 67 68  2  0
 68 87  1  0
 69 68  1  0
 69 72  1  0
 70 67  1  0
 70 71  1  0
 71 69  2  0
 72 73  1  0
 73 74  2  0
 75 78  1  0
 75 74  1  0
 76 75  2  0
 77 76  1  0
 77 72  2  0
 78 79  1  0
 79 80  1  0
 80 81  2  0
 82 81  1  0
 82 86  1  0
 83 82  2  0
 84 79  2  0
 84 83  1  0
 85 84  1  0
 87 88  1  0
 88 91  1  0
 88 90  1  0
 89 87  2  0
 92 93  1  0
 92 67  1  0
 94 92  1  0
 98 95  1  6
 96 98  1  0
 97 98  1  0
 98 50  1  0
M  ISO  4   8 101   9 101  58 100  59 100
M  END
>  <TORSDO>  (93) 
F 23

>  <SCORE>  (93) 
-12.214

>  <name>  (93) 
92

>  <ligand_id>  (93) 
92

>  <original_smiles>  (93) 
[H]c1c([H])c([H])c2c(c1[H])C([H])([H])C([H])([H])C([H])([H])C2([H])N([H])C(=O)C1([H])N(C(=O)C([H])(N([H])C(=O)C([H])(N([H])C([H])([H])[H])C([H])([H])[H])C(C([H])([H])[H])(C([H])([H])[H])C([H])([H])[H])C([H])([H])c2c([H])c(OC([H])([H])C3([H])C([H])([H])C([H])([H])C([H])([H])C([H])([H])C3([H])C([H])([H])C([H])(C(N([H])[H])=[N+]([H])C([H])([H])C([H])([H])C(=O)N3C([H])([H])C([H])([H])C([H])([H])C([H])(n4nc(-c5c([H])c([H])c(Oc6c([H])c([H])c(F)c([H])c6F)c([H])c5[H])c(C(=O)N([H])[H])c4N([H])[H])C3([H])[H])C(C([H])([H])[H])(C([H])([H])[H])C([H])([H])[H])c([H])c([H])c2C1([H])[H]

>  <smiles>  (93) 
[H]c1c([H])c([H])c2c(c1[H])C([H])([H])C([H])([H])C([H])([H])C2([H])N([H])C(=O)C1([H])N(C(=O)C([H])(N([H])C(=O)C([H])(N([H])C([H])([H])[H])C([H])([H])[H])C(C([H])([H])[H])(C([H])([H])[H])C([H])([H])[H])C([H])([H])c2c([H])c(OC([H])([H])C3([H])C([H])([H])C([H])([H])C([H])([H])C([H])([H])C3([H])C([H])([H])C([H])(C(N([H])[H])=[N+]([H])C([H])([H])C([H])([H])C(=O)N3C([H])([H])C([H])([H])C([H])([H])C([H])(n4nc(-c5c([H])c([H])c(Oc6c([H])c([H])c(F)c([H])c6F)c([H])c5[H])c(C(=O)N([H])[H])c4N([H])[H])C3([H])[H])C(C([H])([H])[H])(C([H])([H])[H])C([H])([H])[H])c([H])c([H])c2C1([H])[H]

$$$$
93:0:0
     RDKit          3D

 91 98  0  0  1  0  0  0  0  0999 V2000
  -28.9940  -21.5970   19.9470 N   0  0  0  0  0  4  0  0  0  0  0  0
  -28.4540  -21.5360   19.1000 H   0  0  0  0  0  0  0  0  0  0  0  0
  -28.3460  -21.4470   20.7070 H   0  0  0  0  0  0  0  0  0  0  0  0
  -30.7470  -23.2960   19.2380 C   0  0  0  0  0  1  0  0  0  0  0  0
  -29.5020  -23.0150   20.1070 C   0  0  0  0  0  3  0  0  0  0  0  0
  -28.3370  -24.0840   19.9330 C   0  0  0  0  0  2  0  0  0  0  0  0
  -28.6150  -25.5230   19.3480 C   0  0  0  0  0  2  0  0  0  0  0  0
  -28.3980  -26.6640   20.2120 O   0  0  0  0  0  0  0  0  0  0  0  0
  -24.5910  -31.8820   23.2460 C   0  0  0  0  0  0  0  0  0  0  0  0
  -27.2160  -27.3920   20.1720 C   0  0  0  0  0  0  0  0  0  0  0  0
  -23.3770  -30.4790   21.6100 C   0  0  0  0  0  3  0  0  0  0  0  0
  -24.8230  -28.9300   20.1830 C   0  0  0  0  0  0  0  0  0  0  0  0
  -25.9070  -30.8190   21.4120 C   0  0  0  0  0  2  0  0  0  0  0  0
  -25.9840  -29.4440   20.7720 C   0  0  0  0  0  0  0  0  0  0  0  0
  -27.1770  -28.6800   20.7670 C   0  0  0  0  0  3  0  0  0  0  0  0
  -26.0290  -26.8960   19.5850 C   0  0  0  0  0  3  0  0  0  0  0  0
  -24.8430  -27.6570   19.5870 C   0  0  0  0  0  3  0  0  0  0  0  0
  -23.5830  -29.7950   20.2310 C   0  0  0  0  0  2  0  0  0  0  0  0
  -24.6420  -31.0780   22.1460 N   0  0  0  0  0  0  0  0  0  0  0  0
  -23.5110  -32.1600   23.7870 O   0  0  0  0  0  0  0  0  0  0  0  0
  -22.7230  -29.4650   22.5780 C   0  0  0  0  0  0  0  0  0  0  0  0
  -21.3970  -29.2840   22.4560 N   0  0  0  0  0  0  0  0  0  0  0  0
  -23.4080  -28.8420   23.3940 O   0  0  0  0  0  0  0  0  0  0  0  0
  -20.9040  -29.8440   21.7730 H   0  0  0  0  0  0  0  0  0  0  0  0
  -18.0250  -28.0860   22.9570 C   0  0  0  0  0  0  0  0  0  0  0  0
  -20.5820  -28.3500   23.2310 C   0  0  0  0  0  3  0  0  0  0  0  0
  -20.6870  -26.9140   22.6660 C   0  0  0  0  0  2  0  0  0  0  0  0
  -19.5870  -26.5830   21.6510 C   0  0  0  0  0  2  0  0  0  0  0  0
  -18.2040  -26.7310   22.2930 C   0  0  0  0  0  2  0  0  0  0  0  0
  -19.1410  -28.8520   23.3840 C   0  0  0  0  0  0  0  0  0  0  0  0
  -18.9200  -30.1190   23.9660 C   0  0  0  0  0  3  0  0  0  0  0  0
  -17.6140  -30.6210   24.1240 C   0  0  0  0  0  3  0  0  0  0  0  0
  -16.5120  -29.8520   23.7120 C   0  0  0  0  0  3  0  0  0  0  0  0
  -16.7190  -28.5860   23.1350 C   0  0  0  0  0  3  0  0  0  0  0  0
  -25.8790  -32.5120   23.8610 C   0  0  0  0  0  3  0  0  0  0  0  0
  -25.5740  -33.9100   24.1930 N   0  0  0  0  0  0  0  0  0  0  0  0
  -25.9060  -34.9620   23.4340 C   0  0  0  0  0  0  0  0  0  0  0  0
  -26.5730  -34.8590   22.4000 O   0  0  0  0  0  0  0  0  0  0  0  0
  -24.9760  -34.0640   24.9910 H   0  0  0  0  0  0  0  0  0  0  0  0
  -24.1750  -36.7560   23.0920 C   0  0  0  0  0  1  0  0  0  0  0  0
  -25.4220  -36.3510   23.8950 C   0  0  0  0  0  3  0  0  0  0  0  0
  -27.5650  -37.2330   24.7070 C   0  0  0  0  0  1  0  0  0  0  0  0
  -26.4530  -37.4040   23.7750 N   0  0  0  0  0  0  0  0  0  0  0  0
  -26.0500  -38.3230   23.9290 H   0  0  0  0  0  0  0  0  0  0  0  0
  -26.4040  -31.7390   25.1320 C   0  0  1  0  0  0  0  0  0  0  0  0
  -25.3200  -31.5040   26.2090 C   0  0  0  0  0  1  0  0  0  0  0  0
  -26.9810  -30.3600   24.7370 C   0  0  0  0  0  1  0  0  0  0  0  0
  -27.5600  -32.5320   25.7870 C   0  0  0  0  0  1  0  0  0  0  0  0
  -30.5040  -20.1440   18.5440 C   0  0  0  0  0  1  0  0  0  0  0  0
  -29.9430  -20.4220   19.9590 C   0  0  0  0  0  3  0  0  0  0  0  0
  -29.2370  -19.1140   20.4680 C   0  0  0  0  0  2  0  0  0  0  0  0
  -29.6320  -16.7660   20.8720 C   0  0  0  0  0  0  0  0  0  0  0  0
  -28.1340  -16.5330   20.9160 C   0  0  0  0  0  1  0  0  0  0  0  0
  -30.1340  -17.9400   20.6460 N   0  0  0  0  0  0  0  0  0  0  0  0
  -30.4650  -15.5140   21.2780 C   0  0  0  0  0  2  0  0  0  0  0  0
  -30.7940  -14.4550   20.1800 C   0  0  0  0  0  0  0  0  0  0  0  0
  -30.3950  -12.3380   18.9350 C   0  0  0  0  0  2  0  0  0  0  0  0
  -29.4030  -12.5370   17.7720 C   0  0  0  0  0  2  0  0  0  0  0  0
  -27.9500  -12.3920   18.2610 C   0  0  0  0  0  2  0  0  0  0  0  0
  -27.6690  -13.2250   19.5410 C   0  0  0  0  0  3  0  0  0  0  0  0
  -28.7660  -12.9830   20.6030 C   0  0  0  0  0  2  0  0  0  0  0  0
  -30.0690  -13.3080   19.9990 N   0  0  0  0  0  0  0  0  0  0  0  0
  -31.8130  -14.6590   19.5090 O   0  0  0  0  0  0  0  0  0  0  0  0
  -25.2860  -13.8500   20.2990 C   0  0  0  0  0  0  0  0  0  0  0  0
  -24.2290  -13.0930   20.7180 C   0  0  0  0  0  0  0  0  0  0  0  0
  -24.6820  -11.7400   20.6900 C   0  0  0  0  0  0  0  0  0  0  0  0
  -26.3280  -12.9650   20.0620 N   0  0  0  0  0  0  0  0  0  0  0  0
  -25.9640  -11.6880   20.3480 N   0  0  0  0  0  0  0  0  0  0  0  0
  -23.9500  -10.4880   20.9120 C   0  0  0  0  0  0  0  0  0  0  0  0
  -24.3930   -9.5290   21.8490 C   0  0  0  0  0  3  0  0  0  0  0  0
  -23.6600   -8.3400   22.0580 C   0  0  0  0  0  3  0  0  0  0  0  0
  -22.4710   -8.1030   21.3280 C   0  0  0  0  0  0  0  0  0  0  0  0
  -22.0490   -9.0500   20.3780 C   0  0  0  0  0  3  0  0  0  0  0  0
  -22.7820  -10.2300   20.1680 C   0  0  0  0  0  3  0  0  0  0  0  0
  -21.7090   -6.9660   21.4450 O   0  0  0  0  0  0  0  0  0  0  0  0
  -21.6650   -6.2470   22.6130 C   0  0  0  0  0  0  0  0  0  0  0  0
  -21.2740   -6.8360   23.8350 C   0  0  0  0  0  3  0  0  0  0  0  0
  -21.1770   -6.0460   24.9980 C   0  0  0  0  0  3  0  0  0  0  0  0
  -21.4610   -4.6680   24.9390 C   0  0  0  0  0  0  0  0  0  0  0  0
  -21.8450   -4.0800   23.7220 C   0  0  0  0  0  3  0  0  0  0  0  0
  -21.9440   -4.8670   22.5620 C   0  0  0  0  0  0  0  0  0  0  0  0
  -22.2950   -4.2910   21.3860 F   0  0  0  0  0  0  0  0  0  0  0  0
  -21.3600   -3.9070   26.0530 F   0  0  0  0  0  0  0  0  0  0  0  0
  -22.8450  -13.5880   21.0300 C   0  0  0  0  0  0  0  0  0  0  0  0
  -22.1410  -12.9100   21.9280 N   0  0  0  0  0  0  0  0  0  0  0  0
  -22.4000  -14.6130   20.5130 O   0  0  0  0  0  0  0  0  0  0  0  0
  -22.5140  -12.0840   22.3710 H   0  0  0  0  0  0  0  0  0  0  0  0
  -21.2160  -13.2270   22.1830 H   0  0  0  0  0  0  0  0  0  0  0  0
  -25.4320  -15.2120   20.0770 N   0  0  0  0  0  0  0  0  0  0  0  0
  -24.6590  -15.8600   20.1890 H   0  0  0  0  0  0  0  0  0  0  0  0
  -26.2510  -15.6370   19.6650 H   0  0  0  0  0  0  0  0  0  0  0  0
  1 50  1  0
  1  5  1  0
  1  3  1  0
  2  1  1  0
  5  4  1  0
  6  5  1  0
  7  6  1  0
  7  8  1  0
  9 20  2  0
 10  8  1  0
 10 15  1  0
 11 19  1  0
 11 21  1  0
 12 18  1  0
 12 14  1  0
 13 19  1  0
 14 13  1  0
 15 14  2  0
 16 17  1  0
 16 10  2  0
 17 12  2  0
 18 11  1  0
 19  9  1  0
 21 23  2  0
 22 21  1  0
 24 22  1  0
 25 34  2  0
 25 30  1  0
 26 22  1  0
 26 30  1  0
 27 26  1  0
 28 29  1  0
 28 27  1  0
 29 25  1  0
 30 31  2  0
 31 32  1  0
 33 32  2  0
 34 33  1  0
 35  9  1  0
 35 36  1  0
 35 45  1  0
 36 39  1  0
 37 41  1  0
 37 36  1  0
 38 37  2  0
 41 40  1  0
 43 41  1  0
 43 44  1  0
 43 42  1  0
 45 48  1  1
 45 46  1  0
 47 45  1  0
 50 49  1  0
 50 51  1  0
 51 54  1  0
 52 53  1  0
 52 55  1  0
 54 52  2  0
 56 55  1  0
 57 62  1  0
 58 59  1  0
 58 57  1  0
 60 59  1  0
 60 67  1  0
 60 61  1  0
 62 56  1  0
 62 61  1  0
 63 56  2  0
 64 65  2  0
 65 84  1  0
 66 65  1  0
 66 69  1  0
 67 64  1  0
 67 68  1  0
 68 66  2  0
 69 70  1  0
 70 71  2  0
 72 75  1  0
 72 71  1  0
 73 72  2  0
 74 73  1  0
 74 69  2  0
 75 76  1  0
 76 77  1  0
 77 78  2  0
 79 78  1  0
 79 83  1  0
 80 79  2  0
 81 76  2  0
 81 80  1  0
 82 81  1  0
 84 85  1  0
 85 88  1  0
 85 87  1  0
 86 84  2  0
 89 90  1  0
 89 64  1  0
 91 89  1  0
M  ISO  4   7 101   8 101  55 100  56 100
M  END
>  <TORSDO>  (94) 
F 23

>  <SCORE>  (94) 
-12.449

>  <name>  (94) 
93

>  <ligand_id>  (94) 
93

>  <original_smiles>  (94) 
[H]c1c([H])c([H])c2c(c1[H])C([H])([H])C([H])([H])C([H])([H])C2([H])N([H])C(=O)C1([H])N(C(=O)C([H])(N([H])C(=O)C([H])(N([H])C([H])([H])[H])C([H])([H])[H])C(C([H])([H])[H])(C([H])([H])[H])C([H])([H])[H])C([H])([H])c2c([H])c(OC([H])([H])C([H])([H])C([H])(C([H])([H])[H])[N+]([H])([H])C([H])(C([H])([H])[H])C([H])([H])N=C(C([H])([H])[H])C([H])([H])C(=O)N3C([H])([H])C([H])([H])C([H])([H])C([H])(n4nc(-c5c([H])c([H])c(Oc6c([H])c([H])c(F)c([H])c6F)c([H])c5[H])c(C(=O)N([H])[H])c4N([H])[H])C3([H])[H])c([H])c([H])c2C1([H])[H]

>  <smiles>  (94) 
[H]c1c([H])c([H])c2c(c1[H])C([H])([H])C([H])([H])C([H])([H])C2([H])N([H])C(=O)C1([H])N(C(=O)C([H])(N([H])C(=O)C([H])(N([H])C([H])([H])[H])C([H])([H])[H])C(C([H])([H])[H])(C([H])([H])[H])C([H])([H])[H])C([H])([H])c2c([H])c(OC([H])([H])C([H])([H])C([H])(C([H])([H])[H])[N+]([H])([H])C([H])(C([H])([H])[H])C([H])([H])N=C(C([H])([H])[H])C([H])([H])C(=O)N3C([H])([H])C([H])([H])C([H])([H])C([H])(n4nc(-c5c([H])c([H])c(Oc6c([H])c([H])c(F)c([H])c6F)c([H])c5[H])c(C(=O)N([H])[H])c4N([H])[H])C3([H])[H])c([H])c([H])c2C1([H])[H]

$$$$
94:0:0
     RDKit          3D

 83 90  0  0  1  0  0  0  0  0999 V2000
  -28.1650  -23.8970   19.8520 C   0  0  0  0  0  3  0  0  0  0  0  0
  -28.8400  -22.3400   20.5660 C   0  0  0  0  0  0  0  0  0  0  0  0
  -29.2820  -20.8460   20.5940 C   0  0  0  0  0  0  0  0  0  0  0  0
  -29.7670  -20.4590   21.9870 C   0  0  0  0  0  1  0  0  0  0  0  0
  -29.5720  -19.2080   19.8000 C   0  0  0  0  0  2  0  0  0  0  0  0
  -29.7020  -17.3720   20.4020 C   0  0  0  0  0  2  0  0  0  0  0  0
  -30.4290  -15.6980   19.9940 C   0  0  0  0  0  0  0  0  0  0  0  0
  -30.4870  -13.1560   19.1670 C   0  0  0  0  0  2  0  0  0  0  0  0
  -29.5560  -12.8280   17.9630 C   0  0  0  0  0  2  0  0  0  0  0  0
  -28.1330  -12.5000   18.4390 C   0  0  0  0  0  2  0  0  0  0  0  0
  -27.6750  -13.4780   19.5450 C   0  0  0  0  0  3  0  0  0  0  0  0
  -28.7400  -13.7290   20.6380 C   0  0  0  0  0  2  0  0  0  0  0  0
  -29.9250  -14.3260   19.9810 N   0  0  0  0  0  0  0  0  0  0  0  0
  -31.6280  -15.6400   19.6590 O   0  0  0  0  0  0  0  0  0  0  0  0
  -25.3330  -14.0140   20.3700 C   0  0  0  0  0  0  0  0  0  0  0  0
  -24.2830  -13.2360   20.7670 C   0  0  0  0  0  0  0  0  0  0  0  0
  -24.7510  -11.8850   20.7260 C   0  0  0  0  0  0  0  0  0  0  0  0
  -26.3700  -13.1430   20.0970 N   0  0  0  0  0  0  0  0  0  0  0  0
  -26.0360  -11.8550   20.3790 N   0  0  0  0  0  0  0  0  0  0  0  0
  -24.0280  -10.6230   20.9370 C   0  0  0  0  0  0  0  0  0  0  0  0
  -24.4760   -9.6590   21.8690 C   0  0  0  0  0  3  0  0  0  0  0  0
  -23.7480   -8.4660   22.0710 C   0  0  0  0  0  3  0  0  0  0  0  0
  -22.5590   -8.2280   21.3430 C   0  0  0  0  0  0  0  0  0  0  0  0
  -22.1290   -9.1790   20.4010 C   0  0  0  0  0  3  0  0  0  0  0  0
  -22.8580  -10.3630   20.1970 C   0  0  0  0  0  3  0  0  0  0  0  0
  -21.8020   -7.0850   21.4530 O   0  0  0  0  0  0  0  0  0  0  0  0
  -21.7710   -6.3510   22.6120 C   0  0  0  0  0  0  0  0  0  0  0  0
  -21.3690   -6.9180   23.8410 C   0  0  0  0  0  3  0  0  0  0  0  0
  -21.2840   -6.1110   24.9940 C   0  0  0  0  0  3  0  0  0  0  0  0
  -21.5910   -4.7390   24.9180 C   0  0  0  0  0  0  0  0  0  0  0  0
  -21.9860   -4.1720   23.6930 C   0  0  0  0  0  3  0  0  0  0  0  0
  -22.0730   -4.9760   22.5430 C   0  0  0  0  0  0  0  0  0  0  0  0
  -22.4330   -4.4210   21.3610 F   0  0  0  0  0  0  0  0  0  0  0  0
  -21.5020   -3.9620   26.0220 F   0  0  0  0  0  0  0  0  0  0  0  0
  -22.8920  -13.7120   21.0660 C   0  0  0  0  0  0  0  0  0  0  0  0
  -22.1880  -13.0270   21.9590 N   0  0  0  0  0  0  0  0  0  0  0  0
  -22.4420  -14.7300   20.5420 O   0  0  0  0  0  0  0  0  0  0  0  0
  -22.5680  -12.2060   22.4060 H   0  0  0  0  0  0  0  0  0  0  0  0
  -21.2560  -13.3300   22.2020 H   0  0  0  0  0  0  0  0  0  0  0  0
  -25.4890  -15.3850   20.1890 N   0  0  0  0  0  0  0  0  0  0  0  0
  -24.7270  -16.0400   20.3230 H   0  0  0  0  0  0  0  0  0  0  0  0
  -26.3320  -15.8240   19.8380 H   0  0  0  0  0  0  0  0  0  0  0  0
  -28.2020  -25.5990   20.2760 O   0  0  0  0  0  0  0  0  0  0  0  0
  -24.6210  -31.8400   23.1160 C   0  0  0  0  0  0  0  0  0  0  0  0
  -27.2240  -26.7960   20.1560 C   0  0  0  0  0  0  0  0  0  0  0  0
  -23.4580  -30.4250   21.4750 C   0  0  0  0  0  3  0  0  0  0  0  0
  -24.9340  -28.7910   20.0730 C   0  0  0  0  0  0  0  0  0  0  0  0
  -26.0350  -30.5970   21.3720 C   0  0  0  0  0  2  0  0  0  0  0  0
  -26.1170  -29.1650   20.7200 C   0  0  0  0  0  0  0  0  0  0  0  0
  -27.2440  -28.1930   20.7340 C   0  0  0  0  0  3  0  0  0  0  0  0
  -26.0100  -26.6300   19.4450 C   0  0  0  0  0  3  0  0  0  0  0  0
  -24.9170  -27.5500   19.4130 C   0  0  0  0  0  3  0  0  0  0  0  0
  -23.7140  -29.7270   20.1070 C   0  0  0  0  0  2  0  0  0  0  0  0
  -24.7270  -30.9880   22.0390 N   0  0  0  0  0  0  0  0  0  0  0  0
  -23.5210  -32.1310   23.6180 O   0  0  0  0  0  0  0  0  0  0  0  0
  -22.7460  -29.4440   22.4440 C   0  0  0  0  0  0  0  0  0  0  0  0
  -21.4150  -29.2830   22.3160 N   0  0  0  0  0  0  0  0  0  0  0  0
  -23.4030  -28.8240   23.2840 O   0  0  0  0  0  0  0  0  0  0  0  0
  -20.9340  -29.8330   21.6170 H   0  0  0  0  0  0  0  0  0  0  0  0
  -18.0320  -28.0530   22.8180 C   0  0  0  0  0  0  0  0  0  0  0  0
  -20.5900  -28.3440   23.0870 C   0  0  0  0  0  3  0  0  0  0  0  0
  -20.7030  -26.9100   22.5190 C   0  0  0  0  0  2  0  0  0  0  0  0
  -19.6080  -26.5760   21.5000 C   0  0  0  0  0  2  0  0  0  0  0  0
  -18.2240  -26.7070   22.1400 C   0  0  0  0  0  2  0  0  0  0  0  0
  -19.1420  -28.8290   23.2470 C   0  0  0  0  0  0  0  0  0  0  0  0
  -18.9060  -30.0850   23.8470 C   0  0  0  0  0  3  0  0  0  0  0  0
  -17.5950  -30.5670   24.0180 C   0  0  0  0  0  3  0  0  0  0  0  0
  -16.5000  -29.7910   23.6000 C   0  0  0  0  0  3  0  0  0  0  0  0
  -16.7200  -28.5350   23.0060 C   0  0  0  0  0  3  0  0  0  0  0  0
  -25.8740  -32.5040   23.7640 C   0  0  0  0  0  3  0  0  0  0  0  0
  -26.3730  -31.7500   25.0590 C   0  0  1  0  0  0  0  0  0  0  0  0
  -25.2640  -31.5150   26.1120 C   0  0  0  0  0  1  0  0  0  0  0  0
  -26.9730  -30.3710   24.7040 C   0  0  0  0  0  1  0  0  0  0  0  0
  -27.5070  -32.5580   25.7310 C   0  0  0  0  0  1  0  0  0  0  0  0
  -25.5330  -33.9000   24.0990 N   0  0  0  0  0  0  0  0  0  0  0  0
  -25.8710  -34.9740   23.3720 C   0  0  0  0  0  0  0  0  0  0  0  0
  -26.5590  -34.8940   22.3520 O   0  0  0  0  0  0  0  0  0  0  0  0
  -24.9200  -34.0340   24.8910 H   0  0  0  0  0  0  0  0  0  0  0  0
  -24.1390  -36.7730   23.0290 C   0  0  0  0  0  1  0  0  0  0  0  0
  -25.3700  -36.3550   23.8490 C   0  0  0  0  0  3  0  0  0  0  0  0
  -27.4840  -37.2440   24.7300 C   0  0  0  0  0  1  0  0  0  0  0  0
  -26.3980  -37.4160   23.7700 N   0  0  0  0  0  0  0  0  0  0  0  0
  -25.9830  -38.3330   23.9200 H   0  0  0  0  0  0  0  0  0  0  0  0
  1 43  1  0
  1  2  2  0
  2  3  2  0
  3  4  1  0
  5  6  1  0
  5  3  1  0
  7  6  1  0
  8 13  1  0
  9 10  1  0
  9  8  1  0
 11 10  1  0
 11 18  1  0
 11 12  1  0
 13  7  1  0
 13 12  1  0
 14  7  2  0
 15 16  2  0
 16 35  1  0
 17 16  1  0
 17 20  1  0
 18 15  1  0
 18 19  1  0
 19 17  2  0
 20 21  1  0
 21 22  2  0
 23 26  1  0
 23 22  1  0
 24 23  2  0
 25 24  1  0
 25 20  2  0
 26 27  1  0
 27 28  1  0
 28 29  2  0
 30 29  1  0
 30 34  1  0
 31 30  2  0
 32 27  2  0
 32 31  1  0
 33 32  1  0
 35 36  1  0
 36 39  1  0
 36 38  1  0
 37 35  2  0
 40 41  1  0
 40 15  1  0
 42 40  1  0
 44 55  2  0
 45 43  1  0
 45 50  1  0
 46 54  1  0
 46 56  1  0
 47 53  1  0
 47 49  1  0
 48 54  1  0
 49 50  2  0
 49 48  1  0
 51 45  2  0
 52 51  1  0
 52 47  2  0
 53 46  1  0
 54 44  1  0
 56 58  2  0
 57 56  1  0
 59 57  1  0
 60 69  2  0
 60 65  1  0
 61 57  1  0
 61 65  1  0
 62 61  1  0
 63 64  1  0
 63 62  1  0
 64 60  1  0
 65 66  2  0
 66 67  1  0
 68 67  2  0
 69 68  1  0
 70 44  1  0
 70 75  1  0
 70 71  1  0
 71 74  1  1
 71 72  1  0
 73 71  1  0
 75 78  1  0
 76 80  1  0
 76 75  1  0
 77 76  2  0
 80 79  1  0
 82 80  1  0
 82 83  1  0
 82 81  1  0
M  ISO  4   1 101   6 100   7 100  43 101
M  END
>  <TORSDO>  (95) 
F 19

>  <SCORE>  (95) 
-16.044

>  <name>  (95) 
94

>  <ligand_id>  (95) 
94

>  <original_smiles>  (95) 
[H]C(=C(C([H])([H])[H])C([H])([H])C([H])([H])C(=O)N1C([H])([H])C([H])([H])C([H])([H])C([H])(n2nc(-c3c([H])c([H])c(Oc4c([H])c([H])c(F)c([H])c4F)c([H])c3[H])c(C(=O)N([H])[H])c2N([H])[H])C1([H])[H])C([H])([H])Oc1c([H])c([H])c2c(c1[H])C([H])([H])N(C(=O)C([H])(N([H])C(=O)C([H])(N([H])C([H])([H])[H])C([H])([H])[H])C(C([H])([H])[H])(C([H])([H])[H])C([H])([H])[H])C([H])(C(=O)N([H])C1([H])c3c([H])c([H])c([H])c([H])c3C([H])([H])C([H])([H])C1([H])[H])C2([H])[H]

>  <smiles>  (95) 
[H]C(=C(C([H])([H])[H])C([H])([H])C([H])([H])C(=O)N1C([H])([H])C([H])([H])C([H])([H])C([H])(n2nc(-c3c([H])c([H])c(Oc4c([H])c([H])c(F)c([H])c4F)c([H])c3[H])c(C(=O)N([H])[H])c2N([H])[H])C1([H])[H])C([H])([H])Oc1c([H])c([H])c2c(c1[H])C([H])([H])N(C(=O)C([H])(N([H])C(=O)C([H])(N([H])C([H])([H])[H])C([H])([H])[H])C(C([H])([H])[H])(C([H])([H])[H])C([H])([H])[H])C([H])(C(=O)N([H])C1([H])c3c([H])c([H])c([H])c([H])c3C([H])([H])C([H])([H])C1([H])[H])C2([H])[H]

$$$$
95:0:0
     RDKit          3D

 82 89  0  0  1  0  0  0  0  0999 V2000
  -28.1340  -25.4460   20.2910 O   0  0  0  0  0  0  0  0  0  0  0  0
  -24.6780  -31.8380   23.2210 C   0  0  0  0  0  0  0  0  0  0  0  0
  -27.1890  -26.7030   20.2320 C   0  0  0  0  0  0  0  0  0  0  0  0
  -23.4900  -30.4440   21.5830 C   0  0  0  0  0  3  0  0  0  0  0  0
  -24.9350  -28.7840   20.1720 C   0  0  0  0  0  0  0  0  0  0  0  0
  -26.0720  -30.5630   21.4700 C   0  0  0  0  0  2  0  0  0  0  0  0
  -26.1320  -29.1240   20.8120 C   0  0  0  0  0  0  0  0  0  0  0  0
  -27.2410  -28.1140   20.8090 C   0  0  0  0  0  3  0  0  0  0  0  0
  -25.9580  -26.5930   19.5340 C   0  0  0  0  0  3  0  0  0  0  0  0
  -24.8910  -27.5460   19.5070 C   0  0  0  0  0  3  0  0  0  0  0  0
  -23.7320  -29.7450   20.2130 C   0  0  0  0  0  2  0  0  0  0  0  0
  -24.7720  -30.9830   22.1440 N   0  0  0  0  0  0  0  0  0  0  0  0
  -23.5840  -32.1420   23.7280 O   0  0  0  0  0  0  0  0  0  0  0  0
  -22.7650  -29.4720   22.5540 C   0  0  0  0  0  0  0  0  0  0  0  0
  -21.4310  -29.3260   22.4300 N   0  0  0  0  0  0  0  0  0  0  0  0
  -23.4160  -28.8450   23.3930 O   0  0  0  0  0  0  0  0  0  0  0  0
  -20.9540  -29.8810   21.7330 H   0  0  0  0  0  0  0  0  0  0  0  0
  -18.0380  -28.1210   22.9410 C   0  0  0  0  0  0  0  0  0  0  0  0
  -20.6000  -28.3920   23.2020 C   0  0  0  0  0  3  0  0  0  0  0  0
  -20.7000  -26.9580   22.6300 C   0  0  0  0  0  2  0  0  0  0  0  0
  -19.5990  -26.6350   21.6150 C   0  0  0  0  0  2  0  0  0  0  0  0
  -18.2180  -26.7750   22.2590 C   0  0  0  0  0  2  0  0  0  0  0  0
  -19.1560  -28.8870   23.3690 C   0  0  0  0  0  0  0  0  0  0  0  0
  -18.9320  -30.1430   23.9740 C   0  0  0  0  0  3  0  0  0  0  0  0
  -17.6240  -30.6350   24.1490 C   0  0  0  0  0  3  0  0  0  0  0  0
  -16.5220  -29.8680   23.7330 C   0  0  0  0  0  3  0  0  0  0  0  0
  -16.7300  -28.6120   23.1360 C   0  0  0  0  0  3  0  0  0  0  0  0
  -25.9390  -32.4880   23.8660 C   0  0  0  0  0  3  0  0  0  0  0  0
  -25.6120  -33.8860   24.2160 N   0  0  0  0  0  0  0  0  0  0  0  0
  -25.9150  -34.9600   23.4750 C   0  0  0  0  0  0  0  0  0  0  0  0
  -26.5550  -34.8800   22.4240 O   0  0  0  0  0  0  0  0  0  0  0  0
  -25.0370  -34.0190   25.0350 H   0  0  0  0  0  0  0  0  0  0  0  0
  -24.1530  -36.7470   23.2360 C   0  0  0  0  0  1  0  0  0  0  0  0
  -25.4390  -36.3410   23.9750 C   0  0  0  0  0  3  0  0  0  0  0  0
  -27.6010  -37.2520   24.7070 C   0  0  0  0  0  1  0  0  0  0  0  0
  -26.4520  -37.4090   23.8190 N   0  0  0  0  0  0  0  0  0  0  0  0
  -26.0410  -38.3230   23.9900 H   0  0  0  0  0  0  0  0  0  0  0  0
  -26.4380  -31.7210   25.1540 C   0  0  1  0  0  0  0  0  0  0  0  0
  -25.3320  -31.4910   26.2120 C   0  0  0  0  0  1  0  0  0  0  0  0
  -27.0230  -30.3390   24.7880 C   0  0  0  0  0  1  0  0  0  0  0  0
  -27.5830  -32.5150   25.8250 C   0  0  0  0  0  1  0  0  0  0  0  0
  -27.8630  -23.6880   20.0900 C   0  0  0  0  0  2  0  0  0  0  0  0
  -28.6300  -20.3830   20.1020 C   0  0  0  0  0  3  0  0  0  0  0  0
  -28.6850  -21.9600   20.2140 C   0  0  0  0  0  3  0  0  0  0  0  0
  -29.3250  -18.7890   20.1970 C   0  0  0  0  0  0  0  0  0  0  0  0
  -29.6590  -17.4780   20.2010 C   0  0  0  0  0  0  0  0  0  0  0  0
  -30.3000  -15.8020   20.1310 C   0  0  0  0  0  0  0  0  0  0  0  0
  -30.4080  -13.2260   19.3550 C   0  0  0  0  0  2  0  0  0  0  0  0
  -29.5340  -12.7840   18.1430 C   0  0  0  0  0  2  0  0  0  0  0  0
  -28.1200  -12.4010   18.5970 C   0  0  0  0  0  2  0  0  0  0  0  0
  -27.5870  -13.4050   19.6410 C   0  0  0  0  0  3  0  0  0  0  0  0
  -28.6030  -13.7800   20.7470 C   0  0  0  0  0  2  0  0  0  0  0  0
  -29.7720  -14.4220   20.0950 N   0  0  0  0  0  0  0  0  0  0  0  0
  -31.5300  -15.6700   19.9540 O   0  0  0  0  0  0  0  0  0  0  0  0
  -25.2240  -13.8920   20.4160 C   0  0  0  0  0  0  0  0  0  0  0  0
  -24.1800  -13.0960   20.7880 C   0  0  0  0  0  0  0  0  0  0  0  0
  -24.6750  -11.7540   20.7660 C   0  0  0  0  0  0  0  0  0  0  0  0
  -26.2820  -13.0400   20.1720 N   0  0  0  0  0  0  0  0  0  0  0  0
  -25.9690  -11.7460   20.4510 N   0  0  0  0  0  0  0  0  0  0  0  0
  -23.9690  -10.4800   20.9650 C   0  0  0  0  0  0  0  0  0  0  0  0
  -24.4040   -9.5310   21.9160 C   0  0  0  0  0  3  0  0  0  0  0  0
  -23.6910   -8.3270   22.1050 C   0  0  0  0  0  3  0  0  0  0  0  0
  -22.5290   -8.0620   21.3410 C   0  0  0  0  0  0  0  0  0  0  0  0
  -22.1130   -9.0000   20.3800 C   0  0  0  0  0  3  0  0  0  0  0  0
  -22.8260  -10.1950   20.1900 C   0  0  0  0  0  3  0  0  0  0  0  0
  -21.7880   -6.9080   21.4380 O   0  0  0  0  0  0  0  0  0  0  0  0
  -21.7270   -6.1860   22.6040 C   0  0  0  0  0  0  0  0  0  0  0  0
  -21.2530   -6.7530   23.8070 C   0  0  0  0  0  3  0  0  0  0  0  0
  -21.1410   -5.9570   24.9640 C   0  0  0  0  0  3  0  0  0  0  0  0
  -21.4940   -4.5950   24.9190 C   0  0  0  0  0  0  0  0  0  0  0  0
  -21.9620   -4.0280   23.7210 C   0  0  0  0  0  3  0  0  0  0  0  0
  -22.0750   -4.8210   22.5660 C   0  0  0  0  0  0  0  0  0  0  0  0
  -22.5050   -4.2640   21.4080 F   0  0  0  0  0  0  0  0  0  0  0  0
  -21.3810   -3.8280   26.0280 F   0  0  0  0  0  0  0  0  0  0  0  0
  -22.7740  -13.5490   21.0490 C   0  0  0  0  0  0  0  0  0  0  0  0
  -22.0570  -12.8540   21.9240 N   0  0  0  0  0  0  0  0  0  0  0  0
  -22.3200  -14.5590   20.5110 O   0  0  0  0  0  0  0  0  0  0  0  0
  -22.4400  -12.0390   22.3810 H   0  0  0  0  0  0  0  0  0  0  0  0
  -21.1140  -13.1410   22.1420 H   0  0  0  0  0  0  0  0  0  0  0  0
  -25.3600  -15.2650   20.2310 N   0  0  0  0  0  0  0  0  0  0  0  0
  -24.5830  -15.9070   20.3470 H   0  0  0  0  0  0  0  0  0  0  0  0
  -26.2050  -15.7200   19.9100 H   0  0  0  0  0  0  0  0  0  0  0  0
  2 13  2  0
  3  1  1  0
  3  8  1  0
  4 12  1  0
  4 14  1  0
  5 11  1  0
  5  7  1  0
  6 12  1  0
  7  6  1  0
  8  7  2  0
  9  3  2  0
 10  9  1  0
 10  5  2  0
 11  4  1  0
 12  2  1  0
 14 16  2  0
 15 14  1  0
 17 15  1  0
 18 27  2  0
 18 23  1  0
 19 15  1  0
 19 23  1  0
 20 19  1  0
 21 22  1  0
 21 20  1  0
 22 18  1  0
 23 24  2  0
 24 25  1  0
 26 25  2  0
 27 26  1  0
 28  2  1  0
 28 29  1  0
 28 38  1  0
 29 32  1  0
 30 34  1  0
 30 29  1  0
 31 30  2  0
 34 33  1  0
 36 34  1  0
 36 37  1  0
 36 35  1  0
 38 41  1  1
 38 39  1  0
 40 38  1  0
 42 44  1  0
 42  1  1  0
 43 45  1  0
 43 44  2  0
 45 46  3  0
 47 46  1  0
 48 53  1  0
 49 50  1  0
 49 48  1  0
 51 50  1  0
 51 58  1  0
 51 52  1  0
 53 47  1  0
 53 52  1  0
 54 47  2  0
 55 56  2  0
 56 75  1  0
 57 56  1  0
 57 60  1  0
 58 55  1  0
 58 59  1  0
 59 57  2  0
 60 61  1  0
 61 62  2  0
 63 66  1  0
 63 62  1  0
 64 63  2  0
 65 64  1  0
 65 60  2  0
 66 67  1  0
 67 68  1  0
 68 69  2  0
 70 69  1  0
 70 74  1  0
 71 70  2  0
 72 67  2  0
 72 71  1  0
 73 72  1  0
 75 76  1  0
 76 79  1  0
 76 78  1  0
 77 75  2  0
 80 81  1  0
 80 55  1  0
 82 80  1  0
M  ISO  4   1 101  42 101  46 100  47 100
M  END
>  <TORSDO>  (96) 
F 18

>  <SCORE>  (96) 
-16.184

>  <name>  (96) 
95

>  <ligand_id>  (96) 
95

>  <original_smiles>  (96) 
[H]C(C#CC(=O)N1C([H])([H])C([H])([H])C([H])([H])C([H])(n2nc(-c3c([H])c([H])c(Oc4c([H])c([H])c(F)c([H])c4F)c([H])c3[H])c(C(=O)N([H])[H])c2N([H])[H])C1([H])[H])=C([H])C([H])([H])Oc1c([H])c([H])c2c(c1[H])C([H])([H])N(C(=O)C([H])(N([H])C(=O)C([H])(N([H])C([H])([H])[H])C([H])([H])[H])C(C([H])([H])[H])(C([H])([H])[H])C([H])([H])[H])C([H])(C(=O)N([H])C1([H])c3c([H])c([H])c([H])c([H])c3C([H])([H])C([H])([H])C1([H])[H])C2([H])[H]

>  <smiles>  (96) 
[H]C(C#CC(=O)N1C([H])([H])C([H])([H])C([H])([H])C([H])(n2nc(-c3c([H])c([H])c(Oc4c([H])c([H])c(F)c([H])c4F)c([H])c3[H])c(C(=O)N([H])[H])c2N([H])[H])C1([H])[H])=C([H])C([H])([H])Oc1c([H])c([H])c2c(c1[H])C([H])([H])N(C(=O)C([H])(N([H])C(=O)C([H])(N([H])C([H])([H])[H])C([H])([H])[H])C(C([H])([H])[H])(C([H])([H])[H])C([H])([H])[H])C([H])(C(=O)N([H])C1([H])c3c([H])c([H])c([H])c([H])c3C([H])([H])C([H])([H])C1([H])[H])C2([H])[H]

$$$$
96:0:0
     RDKit          3D

 87 93  0  0  1  0  0  0  0  0999 V2000
  -27.7330  -21.8570   21.7910 C   0  0  0  0  0  2  0  0  0  0  0  0
  -29.0300  -21.6930   22.0450 C   0  0  0  0  0  2  0  0  0  0  0  0
  -28.1090  -20.7830   19.6500 C   0  0  0  0  0  0  0  0  0  0  0  0
  -27.2710  -20.1600   18.8000 C   0  0  0  0  0  3  0  0  0  0  0  0
  -27.6310  -22.2410   20.3200 C   0  0  0  0  0  3  0  0  0  0  0  0
  -29.6990  -21.9370   20.7080 C   0  0  0  0  0  3  0  0  0  0  0  0
  -29.5620  -20.1630   20.0370 C   0  0  0  0  0  2  0  0  0  0  0  0
  -28.6790  -23.5220   20.2600 C   0  0  0  0  0  2  0  0  0  0  0  0
  -27.5130  -18.8520   18.0740 C   0  0  0  0  0  1  0  0  0  0  0  0
  -28.5270  -25.4250   20.3150 O   0  0  0  0  0  1  0  0  0  0  0  0
  -24.8620  -31.9210   23.2320 C   0  0  0  0  0  0  0  0  0  0  0  0
  -27.5290  -26.7110   20.2650 C   0  0  0  0  0  0  0  0  0  0  0  0
  -23.7360  -30.5060   21.5680 C   0  0  0  0  0  3  0  0  0  0  0  0
  -25.2400  -28.8520   20.1790 C   0  0  0  0  0  0  0  0  0  0  0  0
  -26.3230  -30.6360   21.5100 C   0  0  0  0  0  2  0  0  0  0  0  0
  -26.4240  -29.1840   20.8460 C   0  0  0  0  0  0  0  0  0  0  0  0
  -27.5380  -28.1490   20.8470 C   0  0  0  0  0  3  0  0  0  0  0  0
  -26.3020  -26.6520   19.5380 C   0  0  0  0  0  3  0  0  0  0  0  0
  -25.2310  -27.6170   19.5020 C   0  0  0  0  0  3  0  0  0  0  0  0
  -24.0220  -29.8060   20.2050 C   0  0  0  0  0  2  0  0  0  0  0  0
  -24.9990  -31.0610   22.1560 N   0  0  0  0  0  0  0  0  0  0  0  0
  -23.7500  -32.2000   23.7180 O   0  0  0  0  0  0  0  0  0  0  0  0
  -23.0070  -29.5250   22.5290 C   0  0  0  0  0  0  0  0  0  0  0  0
  -21.6790  -29.3480   22.3820 N   0  0  0  0  0  0  0  0  0  0  0  0
  -23.6550  -28.9160   23.3840 O   0  0  0  0  0  0  0  0  0  0  0  0
  -21.2000  -29.8900   21.6750 H   0  0  0  0  0  0  0  0  0  0  0  0
  -18.3050  -28.0750   22.8750 C   0  0  0  0  0  0  0  0  0  0  0  0
  -20.8620  -28.3860   23.1370 C   0  0  0  0  0  3  0  0  0  0  0  0
  -20.9840  -26.9640   22.5390 C   0  0  0  0  0  2  0  0  0  0  0  0
  -19.8880  -26.6410   21.5190 C   0  0  0  0  0  2  0  0  0  0  0  0
  -18.5050  -26.7470   22.1650 C   0  0  0  0  0  2  0  0  0  0  0  0
  -19.4100  -28.8520   23.3180 C   0  0  0  0  0  0  0  0  0  0  0  0
  -19.1630  -30.0890   23.9510 C   0  0  0  0  0  3  0  0  0  0  0  0
  -17.8470  -30.5520   24.1400 C   0  0  0  0  0  3  0  0  0  0  0  0
  -16.7580  -29.7740   23.7070 C   0  0  0  0  0  3  0  0  0  0  0  0
  -16.9880  -28.5360   23.0820 C   0  0  0  0  0  3  0  0  0  0  0  0
  -26.0880  -32.6070   23.9070 C   0  0  0  0  0  3  0  0  0  0  0  0
  -25.7280  -34.0070   24.2240 N   0  0  0  0  0  0  0  0  0  0  0  0
  -26.0400  -35.0780   23.4790 C   0  0  0  0  0  0  0  0  0  0  0  0
  -26.7100  -34.9920   22.4470 O   0  0  0  0  0  0  0  0  0  0  0  0
  -25.1300  -34.1450   25.0240 H   0  0  0  0  0  0  0  0  0  0  0  0
  -24.2590  -36.8390   23.1740 C   0  0  0  0  0  1  0  0  0  0  0  0
  -25.5340  -36.4610   23.9470 C   0  0  0  0  0  3  0  0  0  0  0  0
  -27.6630  -37.4190   24.7150 C   0  0  0  0  0  1  0  0  0  0  0  0
  -26.5360  -37.5420   23.7950 N   0  0  0  0  0  0  0  0  0  0  0  0
  -26.1080  -38.4530   23.9390 H   0  0  0  0  0  0  0  0  0  0  0  0
  -26.5550  -31.8760   25.2280 C   0  0  1  0  0  0  0  0  0  0  0  0
  -25.4130  -31.6260   26.2430 C   0  0  0  0  0  1  0  0  0  0  0  0
  -27.1950  -30.5070   24.9110 C   0  0  0  0  0  1  0  0  0  0  0  0
  -27.6490  -32.7140   25.9320 C   0  0  0  0  0  1  0  0  0  0  0  0
  -29.8340  -18.1250   20.5100 C   0  0  0  0  0 15  0  0  0  0  0  0
  -30.5880  -16.3010   20.1430 C   0  0  0  0  0  2  0  0  0  0  0  0
  -30.7830  -13.6560   19.3460 C   0  0  0  0  0  2  0  0  0  0  0  0
  -29.9120  -13.1400   18.1510 C   0  0  0  0  0  2  0  0  0  0  0  0
  -28.5080  -12.7340   18.6120 C   0  0  0  0  0  2  0  0  0  0  0  0
  -27.9750  -13.7430   19.6460 C   0  0  0  0  0  3  0  0  0  0  0  0
  -28.9920  -14.1400   20.7470 C   0  0  0  0  0  2  0  0  0  0  0  0
  -30.1340  -14.8580   20.1030 N   0  0  0  0  0  0  0  0  0  0  0  0
  -31.8060  -16.1780   19.8680 O   0  0  0  0  0  1  0  0  0  0  0  0
  -25.6360  -14.2630   20.4560 C   0  0  0  0  0  0  0  0  0  0  0  0
  -24.5730  -13.4860   20.8200 C   0  0  0  0  0  0  0  0  0  0  0  0
  -25.0280  -12.1320   20.7500 C   0  0  0  0  0  0  0  0  0  0  0  0
  -26.6660  -13.3880   20.1770 N   0  0  0  0  0  0  0  0  0  0  0  0
  -26.3180  -12.0940   20.4170 N   0  0  0  0  0  0  0  0  0  0  0  0
  -24.2830  -10.8760   20.9200 C   0  0  0  0  0  0  0  0  0  0  0  0
  -24.6700   -9.9070   21.8710 C   0  0  0  0  0  3  0  0  0  0  0  0
  -23.9210   -8.7210   22.0340 C   0  0  0  0  0  3  0  0  0  0  0  0
  -22.7680   -8.4940   21.2430 C   0  0  0  0  0  0  0  0  0  0  0  0
  -22.3990   -9.4510   20.2820 C   0  0  0  0  0  3  0  0  0  0  0  0
  -23.1490  -10.6290   20.1190 C   0  0  0  0  0  3  0  0  0  0  0  0
  -21.9940   -7.3610   21.3130 O   0  0  0  0  0  0  0  0  0  0  0  0
  -21.8280   -6.6730   22.4890 C   0  0  0  0  0  0  0  0  0  0  0  0
  -21.2690   -7.2800   23.6340 C   0  0  0  0  0  3  0  0  0  0  0  0
  -21.0520   -6.5190   24.8010 C   0  0  0  0  0  3  0  0  0  0  0  0
  -21.3820   -5.1500   24.8210 C   0  0  0  0  0  0  0  0  0  0  0  0
  -21.9330   -4.5420   23.6790 C   0  0  0  0  0  3  0  0  0  0  0  0
  -22.1520   -5.3010   22.5160 C   0  0  0  0  0  0  0  0  0  0  0  0
  -22.6630   -4.7060   21.4110 F   0  0  0  0  0  0  0  0  0  0  0  0
  -21.1680   -4.4170   25.9370 F   0  0  0  0  0  0  0  0  0  0  0  0
  -23.1860  -13.9750   21.1110 C   0  0  0  0  0  0  0  0  0  0  0  0
  -22.4640  -13.2830   21.9860 N   0  0  0  0  0  0  0  0  0  0  0  0
  -22.7550  -15.0080   20.6020 O   0  0  0  0  0  0  0  0  0  0  0  0
  -22.8300  -12.4500   22.4220 H   0  0  0  0  0  0  0  0  0  0  0  0
  -21.5320  -13.5930   22.2250 H   0  0  0  0  0  0  0  0  0  0  0  0
  -25.8120  -15.6350   20.3080 N   0  0  0  0  0  0  0  0  0  0  0  0
  -25.0560  -16.2970   20.4470 H   0  0  0  0  0  0  0  0  0  0  0  0
  -26.6610  -16.0660   19.9720 H   0  0  0  0  0  0  0  0  0  0  0  0
  1  2  1  0
  3  7  1  0
  3  5  1  0
  4  3  2  0
  5  8  1  0
  5  1  1  0
  6  7  1  0
  6  2  1  0
  8  6  1  0
  9  4  1  0
 11 22  2  0
 12 10  1  0
 12 17  1  0
 13 21  1  0
 13 23  1  0
 14 20  1  0
 14 16  1  0
 15 21  1  0
 16 17  2  0
 16 15  1  0
 18 12  2  0
 19 18  1  0
 19 14  2  0
 20 13  1  0
 21 11  1  0
 23 25  2  0
 24 23  1  0
 26 24  1  0
 27 36  2  0
 27 32  1  0
 28 24  1  0
 28 32  1  0
 29 28  1  0
 30 31  1  0
 30 29  1  0
 31 27  1  0
 32 33  2  0
 33 34  1  0
 35 34  2  0
 36 35  1  0
 37 11  1  0
 37 38  1  0
 37 47  1  0
 38 41  1  0
 39 43  1  0
 39 38  1  0
 40 39  2  0
 43 42  1  0
 45 46  1  0
 45 43  1  0
 45 44  1  0
 47 50  1  1
 47 48  1  0
 49 47  1  0
 53 58  1  0
 54 55  1  0
 54 53  1  0
 56 55  1  0
 56 63  1  0
 56 57  1  0
 58 52  1  0
 58 57  1  0
 59 52  1  0
 60 61  2  0
 61 80  1  0
 62 61  1  0
 62 65  1  0
 63 64  1  0
 63 60  1  0
 64 62  2  0
 65 66  1  0
 66 67  2  0
 68 71  1  0
 68 67  1  0
 69 68  2  0
 70 69  1  0
 70 65  2  0
 71 72  1  0
 72 77  2  0
 72 73  1  0
 73 74  2  0
 74 75  1  0
 75 79  1  0
 76 75  2  0
 77 76  1  0
 78 77  1  0
 80 81  1  0
 81 84  1  0
 81 83  1  0
 82 80  2  0
 85 86  1  0
 85 60  1  0
 87 85  1  0
M  ISO  4   8 101  10 101  51 100  52 100
M  END
>  <TORSDO>  (97) 
F 17

>  <SCORE>  (97) 
-15.902

>  <name>  (97) 
96

>  <ligand_id>  (97) 
96

>  <original_smiles>  (97) 
[H]C(=C1C2([H])C([H])=C([H])C([H])(C2([H])Oc2c([H])c([H])c3c(c2[H])C([H])([H])N(C(=O)C([H])(N([H])C(=O)C([H])(N([H])C([H])([H])[H])C([H])([H])[H])C(C([H])([H])[H])(C([H])([H])[H])C([H])([H])[H])C([H])(C(=O)N([H])C2([H])c4c([H])c([H])c([H])c([H])c4C([H])([H])C([H])([H])C2([H])[H])C3([H])[H])C1([H])C([H])([H])C(=O)N1C([H])([H])C([H])([H])C([H])([H])C([H])(n2nc(-c3c([H])c([H])c(Oc4c([H])c([H])c(F)c([H])c4F)c([H])c3[H])c(C(=O)N([H])[H])c2N([H])[H])C1([H])[H])C([H])([H])[H]

>  <smiles>  (97) 
[H]C(=C1C2([H])C([H])=C([H])C([H])(C2([H])Oc2c([H])c([H])c3c(c2[H])C([H])([H])N(C(=O)C([H])(N([H])C(=O)C([H])(N([H])C([H])([H])[H])C([H])([H])[H])C(C([H])([H])[H])(C([H])([H])[H])C([H])([H])[H])C([H])(C(=O)N([H])C2([H])c4c([H])c([H])c([H])c([H])c4C([H])([H])C([H])([H])C2([H])[H])C3([H])[H])C1([H])C([H])([H])C(=O)N1C([H])([H])C([H])([H])C([H])([H])C([H])(n2nc(-c3c([H])c([H])c(Oc4c([H])c([H])c(F)c([H])c4F)c([H])c3[H])c(C(=O)N([H])[H])c2N([H])[H])C1([H])[H])C([H])([H])[H]

$$$$
