0:0:0
     RDKit          3D

 93101  0  0  1  0  0  0  0  0999 V2000
  -34.1320  -19.1140   19.1850 N   0  0  2  0  0  4  0  0  0  0  0  0
  -33.8140  -18.6450   20.0240 H   0  0  0  0  0  0  0  0  0  0  0  0
  -35.1400  -16.8830   18.9440 C   0  0  0  0  0  0  0  0  0  0  0  0
  -36.2300  -15.9790   18.3680 C   0  0  0  0  0  2  0  0  0  0  0  0
  -37.5800  -16.7160   18.2560 C   0  0  0  0  0  2  0  0  0  0  0  0
  -37.5040  -18.0260   17.4430 C   0  0  0  0  0  2  0  0  0  0  0  0
  -36.1990  -18.8300   17.6550 C   0  0  0  0  0  2  0  0  0  0  0  0
  -35.4140  -18.3920   18.9180 C   0  0  0  0  0  3  0  0  0  0  0  0
  -34.1020  -16.4000   19.4040 O   0  0  0  0  0  0  0  0  0  0  0  0
  -33.5270  -19.0370   16.6980 C   0  0  0  0  0  1  0  0  0  0  0  0
  -32.9780  -18.8130   18.1230 C   0  0  0  0  0  3  0  0  0  0  0  0
  -31.4630  -19.5460   18.2050 C   0  0  0  0  0  2  0  0  0  0  0  0
  -30.2080  -19.3380   17.1620 C   0  0  0  0  0  0  0  0  0  0  0  0
  -29.4230  -19.6570   14.7820 C   0  0  0  0  0  2  0  0  0  0  0  0
  -30.6080  -19.3950   13.8210 C   0  0  0  0  0  2  0  0  0  0  0  0
  -31.4430  -20.6750   13.6190 C   0  0  0  0  0  2  0  0  0  0  0  0
  -31.7710  -21.3840   14.9570 C   0  0  0  0  0  3  0  0  0  0  0  0
  -30.5280  -21.5070   15.8640 C   0  0  0  0  0  2  0  0  0  0  0  0
  -29.9820  -20.1590   16.0650 N   0  0  0  0  0  0  0  0  0  0  0  0
  -29.4920  -18.3390   17.2790 O   0  0  0  0  0  0  0  0  0  0  0  0
  -33.3960  -23.2790   15.5400 C   0  0  0  0  0  0  0  0  0  0  0  0
  -33.7570  -24.4180   14.8750 C   0  0  0  0  0  0  0  0  0  0  0  0
  -32.9670  -24.4490   13.6850 C   0  0  0  0  0  0  0  0  0  0  0  0
  -32.4320  -22.6690   14.7540 N   0  0  0  0  0  0  0  0  0  0  0  0
  -32.1310  -23.4170   13.6600 N   0  0  0  0  0  0  0  0  0  0  0  0
  -33.0030  -25.3700   12.5420 C   0  0  0  0  0  0  0  0  0  0  0  0
  -32.2010  -26.5310   12.5030 C   0  0  0  0  0  3  0  0  0  0  0  0
  -32.2700  -27.4110   11.4010 C   0  0  0  0  0  3  0  0  0  0  0  0
  -33.1490  -27.1360   10.3260 C   0  0  0  0  0  0  0  0  0  0  0  0
  -33.9280  -25.9660   10.3600 C   0  0  0  0  0  3  0  0  0  0  0  0
  -33.8550  -25.0880   11.4550 C   0  0  0  0  0  3  0  0  0  0  0  0
  -33.2620  -27.9180    9.2030 O   0  0  0  0  0  0  0  0  0  0  0  0
  -33.9600  -29.0990    9.2160 C   0  0  0  0  0  0  0  0  0  0  0  0
  -35.3420  -29.1440    9.5020 C   0  0  0  0  0  3  0  0  0  0  0  0
  -36.0350  -30.3700    9.4370 C   0  0  0  0  0  3  0  0  0  0  0  0
  -35.3520  -31.5480    9.0770 C   0  0  0  0  0  0  0  0  0  0  0  0
  -33.9770  -31.5040    8.7860 C   0  0  0  0  0  3  0  0  0  0  0  0
  -33.2840  -30.2820    8.8520 C   0  0  0  0  0  0  0  0  0  0  0  0
  -31.9640  -30.2410    8.5500 F   0  0  0  0  0  0  0  0  0  0  0  0
  -36.0180  -32.7230    9.0070 F   0  0  0  0  0  0  0  0  0  0  0  0
  -34.8420  -25.3760   15.2760 C   0  0  0  0  0  0  0  0  0  0  0  0
  -34.5220  -26.6620   15.3610 N   0  0  0  0  0  0  0  0  0  0  0  0
  -35.9700  -24.9800   15.5630 O   0  0  0  0  0  0  0  0  0  0  0  0
  -33.5910  -26.9860   15.1450 H   0  0  0  0  0  0  0  0  0  0  0  0
  -35.2200  -27.3340   15.6480 H   0  0  0  0  0  0  0  0  0  0  0  0
  -33.8220  -22.7030   16.7310 N   0  0  0  0  0  0  0  0  0  0  0  0
  -34.5390  -23.1340   17.3040 H   0  0  0  0  0  0  0  0  0  0  0  0
  -33.4370  -21.8720   17.1620 H   0  0  0  0  0  0  0  0  0  0  0  0
  -34.4760  -20.5870   19.6570 C   0  0  0  0  0  3  0  0  0  0  0  0
  -35.8070  -20.9640   20.6010 C   0  0  0  0  0  3  0  0  0  0  0  0
  -36.2420  -22.4960   21.0950 C   0  0  0  0  0  3  0  0  0  0  0  0
  -37.8160  -23.0200   21.1980 C   0  0  0  0  0  3  0  0  0  0  0  0
  -38.3360  -24.3090   21.8610 O   0  0  0  0  0  0  0  0  0  0  0  0
  -40.0770  -31.3480   20.7190 C   0  0  0  0  0  0  0  0  0  0  0  0
  -39.0110  -25.3080   21.0840 C   0  0  0  0  0  0  0  0  0  0  0  0
  -40.2130  -29.8180   18.7910 C   0  0  0  0  0  3  0  0  0  0  0  0
  -40.1620  -27.3120   19.3340 C   0  0  0  0  0  0  0  0  0  0  0  0
  -40.6130  -28.9290   21.1720 C   0  0  0  0  0  2  0  0  0  0  0  0
  -40.0960  -27.5600   20.7110 C   0  0  0  0  0  0  0  0  0  0  0  0
  -39.5450  -26.5560   21.5860 C   0  0  0  0  0  3  0  0  0  0  0  0
  -39.1620  -25.1120   19.6920 C   0  0  0  0  0  3  0  0  0  0  0  0
  -39.7130  -26.0830   18.8330 C   0  0  0  0  0  3  0  0  0  0  0  0
  -40.7190  -28.3970   18.4300 C   0  0  0  0  0  2  0  0  0  0  0  0
  -40.2760  -30.0730   20.2670 N   0  0  0  0  0  0  0  0  0  0  0  0
  -39.8680  -32.2870   19.9370 O   0  0  0  0  0  0  0  0  0  0  0  0
  -38.7990  -30.0220   18.1940 C   0  0  0  0  0  0  0  0  0  0  0  0
  -38.7260  -30.3470   16.8900 N   0  0  0  0  0  0  0  0  0  0  0  0
  -37.7950  -29.8670   18.8940 O   0  0  0  0  0  0  0  0  0  0  0  0
  -39.5920  -30.4690   16.3840 H   0  0  0  0  0  0  0  0  0  0  0  0
  -37.4240  -31.1610   13.6110 C   0  0  0  0  0  0  0  0  0  0  0  0
  -37.4950  -30.5370   16.1200 C   0  0  0  0  0  3  0  0  0  0  0  0
  -36.8890  -29.1800   15.6930 C   0  0  0  0  0  2  0  0  0  0  0  0
  -37.3430  -28.7280   14.3010 C   0  0  0  0  0  2  0  0  0  0  0  0
  -36.9510  -29.7640   13.2440 C   0  0  0  0  0  2  0  0  0  0  0  0
  -37.6940  -31.5190   14.9590 C   0  0  0  0  0  0  0  0  0  0  0  0
  -38.1610  -32.8210   15.2390 C   0  0  0  0  0  3  0  0  0  0  0  0
  -38.3590  -33.7550   14.2050 C   0  0  0  0  0  3  0  0  0  0  0  0
  -38.0760  -33.3990   12.8740 C   0  0  0  0  0  3  0  0  0  0  0  0
  -37.6060  -32.1070   12.5810 C   0  0  0  0  0  3  0  0  0  0  0  0
  -40.1220  -31.6880   22.2410 C   0  0  0  0  0  3  0  0  0  0  0  0
  -40.7910  -32.9900   22.3870 N   0  0  0  0  0  0  0  0  0  0  0  0
  -42.0830  -33.1530   22.7020 C   0  0  0  0  0  0  0  0  0  0  0  0
  -42.8300  -32.2070   22.9680 O   0  0  0  0  0  0  0  0  0  0  0  0
  -40.2560  -33.8050   22.1280 H   0  0  0  0  0  0  0  0  0  0  0  0
  -43.5500  -34.8170   21.5140 C   0  0  0  0  0  1  0  0  0  0  0  0
  -42.6360  -34.5920   22.7280 C   0  0  0  0  0  3  0  0  0  0  0  0
  -42.4980  -35.1090   25.1250 C   0  0  0  0  0  1  0  0  0  0  0  0
  -43.3700  -34.9180   23.9700 N   0  0  0  0  0  0  0  0  0  0  0  0
  -43.9250  -35.7610   23.8490 H   0  0  0  0  0  0  0  0  0  0  0  0
  -38.6930  -31.7250   22.9100 C   0  0  1  0  0  0  0  0  0  0  0  0
  -37.9050  -33.0260   22.6260 C   0  0  0  0  0  1  0  0  0  0  0  0
  -37.8280  -30.5380   22.4260 C   0  0  0  0  0  1  0  0  0  0  0  0
  -38.8300  -31.5730   24.4430 C   0  0  0  0  0  1  0  0  0  0  0  0
  1 49  1  0
  1  2  1  1
  3  9  2  0
  4  3  1  0
  5  4  1  0
  6  7  1  0
  6  5  1  0
  7  8  1  0
  8  3  1  0
  8  1  1  0
 11 10  1  0
 11 12  1  0
 11  1  1  0
 13 20  2  0
 13 12  1  0
 14 19  1  0
 15 14  1  0
 16 15  1  0
 17 16  1  0
 17 18  1  0
 18 19  1  0
 19 13  1  0
 21 46  1  0
 22 41  1  0
 22 21  2  0
 23 22  1  0
 24 17  1  0
 24 21  1  0
 25 23  2  0
 25 24  1  0
 26 23  1  0
 27 26  1  0
 28 27  2  0
 29 30  2  0
 29 28  1  0
 30 31  1  0
 31 26  2  0
 32 33  1  0
 32 29  1  0
 33 34  1  0
 35 34  2  0
 36 35  1  0
 37 38  1  0
 37 36  2  0
 38 33  2  0
 39 38  1  0
 40 36  1  0
 41 42  1  0
 41 43  2  0
 42 45  1  0
 44 42  1  0
 46 48  1  0
 46 47  1  0
 49 50  2  0
 50 51  1  0
 51 52  2  0
 52 53  1  0
 55 60  1  0
 55 53  1  0
 56 66  1  0
 56 64  1  0
 57 59  1  0
 59 58  1  0
 59 60  2  0
 61 55  2  0
 62 57  2  0
 62 61  1  0
 63 56  1  0
 63 57  1  0
 64 54  1  0
 64 58  1  0
 65 54  2  0
 66 68  2  0
 67 66  1  0
 69 67  1  0
 70 75  1  0
 71 67  1  0
 72 71  1  0
 73 72  1  0
 74 70  1  0
 74 73  1  0
 75 76  2  0
 75 71  1  0
 77 76  1  0
 78 77  2  0
 79 78  1  0
 79 70  2  0
 80 54  1  0
 80 81  1  0
 80 90  1  0
 81 82  1  0
 82 86  1  0
 82 83  2  0
 84 81  1  0
 86 85  1  0
 86 88  1  0
 88 87  1  0
 89 88  1  0
 90 93  1  1
 91 90  1  0
 92 90  1  0
M  ISO  4  12 100  13 100  52 101  53 101
M  END
>  <TORSDO>  (1) 
F 23

>  <SCORE>  (1) 
-1.826

>  <name>  (1) 
0

>  <ligand_id>  (1) 
0

>  <original_smiles>  (1) 
[H]c1c([H])c([H])c2c(c1[H])C([H])([H])C([H])([H])C([H])([H])C2([H])N([H])C(=O)C1([H])N(C(=O)C([H])(N([H])C(=O)C([H])(N([H])C([H])([H])[H])C([H])([H])[H])C(C([H])([H])[H])(C([H])([H])[H])C([H])([H])[H])C([H])([H])c2c([H])c(OC([H])([H])C([H])([H])C([H])([H])C([H])([H])[N+]([H])(C3([H])C(=O)C([H])([H])C([H])([H])C([H])([H])C3([H])[H])C([H])(C([H])([H])[H])C([H])([H])C(=O)N3C([H])([H])C([H])([H])C([H])([H])C([H])(n4nc(-c5c([H])c([H])c(Oc6c([H])c([H])c(F)c([H])c6F)c([H])c5[H])c(C(=O)N([H])[H])c4N([H])[H])C3([H])[H])c([H])c([H])c2C1([H])[H]

>  <smiles>  (1) 
[H]c1c([H])c([H])c2c(c1[H])C([H])([H])C([H])([H])C([H])([H])C2([H])N([H])C(=O)C1([H])N(C(=O)C([H])(N([H])C(=O)C([H])(N([H])C([H])([H])[H])C([H])([H])[H])C(C([H])([H])[H])(C([H])([H])[H])C([H])([H])[H])C([H])([H])c2c([H])c(OC([H])([H])C([H])([H])C([H])([H])C([H])([H])[N+]([H])(C3([H])C(=O)C([H])([H])C([H])([H])C([H])([H])C3([H])[H])C([H])(C([H])([H])[H])C([H])([H])C(=O)N3C([H])([H])C([H])([H])C([H])([H])C([H])(n4nc(-c5c([H])c([H])c(Oc6c([H])c([H])c(F)c([H])c6F)c([H])c5[H])c(C(=O)N([H])[H])c4N([H])[H])C3([H])[H])c([H])c([H])c2C1([H])[H]

$$$$
1:0:0
     RDKit          3D

100108  0  0  1  0  0  0  0  0999 V2000
  -30.5560  -18.5120   15.6530 C   0  0  0  0  0  2  0  0  0  0  0  0
  -29.6660  -17.3200   16.0440 C   0  0  0  0  0  2  0  0  0  0  0  0
  -31.2820  -19.2220   16.8150 C   0  0  0  0  0  2  0  0  0  0  0  0
  -29.2350  -17.2860   17.5160 C   0  0  0  0  0  2  0  0  0  0  0  0
  -30.4000  -20.2340   17.5830 C   0  0  0  0  0  2  0  0  0  0  0  0
  -28.5050  -18.5780   17.9540 C   0  0  0  0  0  2  0  0  0  0  0  0
  -29.3820  -19.6810   18.6360 C   0  0  1  0  0  0  0  0  0  0  0  0
  -29.7370  -18.2350   20.6970 C   0  0  0  0  0  0  0  0  0  0  0  0
  -30.1710  -19.0660   19.7280 N   0  0  0  0  0  0  0  0  0  0  0  0
  -28.5360  -18.1000   20.9410 O   0  0  0  0  0  0  0  0  0  0  0  0
  -31.1760  -19.1270   19.6390 H   0  0  0  0  0  0  0  0  0  0  0  0
  -32.2300  -17.7180   21.0690 C   0  0  0  0  0  1  0  0  0  0  0  0
  -30.6750  -17.9770   22.9770 C   0  0  0  0  0  1  0  0  0  0  0  0
  -30.7780  -17.4280   21.5290 C   0  0  1  0  0  0  0  0  0  0  0  0
  -30.3740  -15.8920   21.5860 C   0  0  0  0  0  2  0  0  0  0  0  0
  -30.9560  -14.8350   20.5990 C   0  0  0  0  0  0  0  0  0  0  0  0
  -30.6720  -12.7270   19.3170 C   0  0  0  0  0  2  0  0  0  0  0  0
  -29.7400  -12.9620   18.1100 C   0  0  0  0  0  2  0  0  0  0  0  0
  -28.2600  -12.8280   18.5150 C   0  0  0  0  0  2  0  0  0  0  0  0
  -27.9160  -13.6100   19.8090 C   0  0  0  0  0  3  0  0  0  0  0  0
  -28.9570  -13.3230   20.9130 C   0  0  0  0  0  2  0  0  0  0  0  0
  -30.2830  -13.6690   20.3760 N   0  0  0  0  0  0  0  0  0  0  0  0
  -32.0260  -15.0550   20.0260 O   0  0  0  0  0  0  0  0  0  0  0  0
  -25.4920  -14.1940   20.4490 C   0  0  0  0  0  0  0  0  0  0  0  0
  -24.4240  -13.4100   20.7940 C   0  0  0  0  0  0  0  0  0  0  0  0
  -24.8990  -12.0640   20.7800 C   0  0  0  0  0  0  0  0  0  0  0  0
  -26.5540  -13.3230   20.2540 N   0  0  0  0  0  0  0  0  0  0  0  0
  -26.1970  -12.0350   20.5020 N   0  0  0  0  0  0  0  0  0  0  0  0
  -24.1780  -10.7950   20.9600 C   0  0  0  0  0  0  0  0  0  0  0  0
  -24.5840   -9.8420   21.9200 C   0  0  0  0  0  3  0  0  0  0  0  0
  -23.8640   -8.6390   22.0850 C   0  0  0  0  0  3  0  0  0  0  0  0
  -22.7240   -8.3800   21.2870 C   0  0  0  0  0  0  0  0  0  0  0  0
  -22.3390   -9.3190   20.3140 C   0  0  0  0  0  3  0  0  0  0  0  0
  -23.0610  -10.5140   20.1480 C   0  0  0  0  0  3  0  0  0  0  0  0
  -21.9770   -7.2290   21.3610 O   0  0  0  0  0  0  0  0  0  0  0  0
  -21.8500   -6.5260   22.5330 C   0  0  0  0  0  0  0  0  0  0  0  0
  -21.3260   -7.1190   23.7030 C   0  0  0  0  0  3  0  0  0  0  0  0
  -21.1470   -6.3430   24.8650 C   0  0  0  0  0  3  0  0  0  0  0  0
  -21.4800   -4.9760   24.8580 C   0  0  0  0  0  0  0  0  0  0  0  0
  -22.0030   -4.3820   23.6950 C   0  0  0  0  0  3  0  0  0  0  0  0
  -22.1830   -5.1560   22.5350 C   0  0  0  0  0  0  0  0  0  0  0  0
  -22.6620   -4.5750   21.4090 F   0  0  0  0  0  0  0  0  0  0  0  0
  -21.3020   -4.2280   25.9720 F   0  0  0  0  0  0  0  0  0  0  0  0
  -23.0180  -13.8730   21.0360 C   0  0  0  0  0  0  0  0  0  0  0  0
  -22.2850  -13.1790   21.9030 N   0  0  0  0  0  0  0  0  0  0  0  0
  -22.5740  -14.8860   20.4990 O   0  0  0  0  0  0  0  0  0  0  0  0
  -22.6570  -12.3600   22.3610 H   0  0  0  0  0  0  0  0  0  0  0  0
  -21.3430  -13.4710   22.1150 H   0  0  0  0  0  0  0  0  0  0  0  0
  -25.6410  -15.5650   20.2750 N   0  0  0  0  0  0  0  0  0  0  0  0
  -24.8610  -16.2070   20.3680 H   0  0  0  0  0  0  0  0  0  0  0  0
  -26.5050  -16.0300   20.0240 H   0  0  0  0  0  0  0  0  0  0  0  0
  -27.3880  -21.3340   18.1970 C   0  0  0  0  0  1  0  0  0  0  0  0
  -28.4820  -20.8720   19.1950 C   0  0  0  0  0  3  0  0  0  0  0  0
  -29.3170  -22.0390   19.6100 N   0  0  0  0  0  4  0  0  0  0  0  0
  -30.1650  -21.6860   20.0240 H   0  0  0  0  0  0  0  0  0  0  0  0
  -29.5730  -22.5280   18.7690 H   0  0  0  0  0  0  0  0  0  0  0  0
  -28.7400  -23.0460   20.5420 C   0  0  0  0  0  2  0  0  0  0  0  0
  -29.0320  -24.5030   20.0670 C   0  0  0  0  0  2  0  0  0  0  0  0
  -28.2870  -25.6050   20.8550 C   0  0  0  0  0  2  0  0  0  0  0  0
  -28.4890  -26.9370   20.3160 O   0  0  0  0  0  0  0  0  0  0  0  0
  -24.5630  -32.0580   23.3530 C   0  0  0  0  0  0  0  0  0  0  0  0
  -27.3430  -27.7050   20.2660 C   0  0  0  0  0  0  0  0  0  0  0  0
  -23.4110  -30.6370   21.6890 C   0  0  0  0  0  3  0  0  0  0  0  0
  -24.9190  -29.1600   20.2560 C   0  0  0  0  0  0  0  0  0  0  0  0
  -25.9270  -31.0680   21.5140 C   0  0  0  0  0  2  0  0  0  0  0  0
  -26.0580  -29.7060   20.8640 C   0  0  0  0  0  0  0  0  0  0  0  0
  -27.2770  -28.9850   20.8670 C   0  0  0  0  0  3  0  0  0  0  0  0
  -26.1960  -27.1970   19.6190 C   0  0  0  0  0  3  0  0  0  0  0  0
  -24.9840  -27.9060   19.6280 C   0  0  0  0  0  3  0  0  0  0  0  0
  -23.6490  -29.9780   20.3040 C   0  0  0  0  0  2  0  0  0  0  0  0
  -24.6520  -31.2690   22.2440 N   0  0  0  0  0  0  0  0  0  0  0  0
  -23.4700  -32.2940   23.8860 O   0  0  0  0  0  0  0  0  0  0  0  0
  -22.7820  -29.5890   22.6350 C   0  0  0  0  0  0  0  0  0  0  0  0
  -21.4640  -29.3700   22.4930 N   0  0  0  0  0  0  0  0  0  0  0  0
  -23.4750  -28.9770   23.4510 O   0  0  0  0  0  0  0  0  0  0  0  0
  -20.9640  -29.9190   21.8070 H   0  0  0  0  0  0  0  0  0  0  0  0
  -18.1200  -28.0780   22.9490 C   0  0  0  0  0  0  0  0  0  0  0  0
  -20.6670  -28.4030   23.2480 C   0  0  0  0  0  3  0  0  0  0  0  0
  -20.8140  -26.9800   22.6600 C   0  0  0  0  0  2  0  0  0  0  0  0
  -19.7310  -26.6360   21.6320 C   0  0  0  0  0  2  0  0  0  0  0  0
  -18.3380  -26.7410   22.2630 C   0  0  0  0  0  2  0  0  0  0  0  0
  -19.2140  -28.8660   23.3960 C   0  0  0  0  0  0  0  0  0  0  0  0
  -18.9540  -30.1190   23.9930 C   0  0  0  0  0  3  0  0  0  0  0  0
  -17.6350  -30.5830   24.1500 C   0  0  0  0  0  3  0  0  0  0  0  0
  -16.5570  -29.7910   23.7190 C   0  0  0  0  0  3  0  0  0  0  0  0
  -16.8000  -28.5420   23.1220 C   0  0  0  0  0  3  0  0  0  0  0  0
  -25.8270  -32.7170   23.9880 C   0  0  0  0  0  3  0  0  0  0  0  0
  -25.4990  -34.1220   24.2640 N   0  0  0  0  0  0  0  0  0  0  0  0
  -25.8500  -35.1520   23.4820 C   0  0  0  0  0  0  0  0  0  0  0  0
  -26.5540  -35.0200   22.4760 O   0  0  0  0  0  0  0  0  0  0  0  0
  -24.8770  -34.2980   25.0390 H   0  0  0  0  0  0  0  0  0  0  0  0
  -24.1250  -36.9200   23.0060 C   0  0  0  0  0  1  0  0  0  0  0  0
  -25.3370  -36.5490   23.8760 C   0  0  0  0  0  3  0  0  0  0  0  0
  -27.4360  -37.4710   24.7560 C   0  0  0  0  0  1  0  0  0  0  0  0
  -26.3650  -37.6070   23.7720 N   0  0  0  0  0  0  0  0  0  0  0  0
  -25.9480  -38.5270   23.8840 H   0  0  0  0  0  0  0  0  0  0  0  0
  -26.3150  -31.9900   25.3010 C   0  0  1  0  0  0  0  0  0  0  0  0
  -25.1940  -31.7700   26.3440 C   0  0  0  0  0  1  0  0  0  0  0  0
  -26.9230  -30.6080   24.9620 C   0  0  0  0  0  1  0  0  0  0  0  0
  -27.4380  -32.8160   25.9700 C   0  0  0  0  0  1  0  0  0  0  0  0
  1  2  1  0
  1  3  1  0
  2  4  1  0
  3  5  1  0
  4  6  1  0
  5  7  1  0
  6  7  1  0
  7 53  1  1
  7  9  1  0
  8 10  2  0
  8 14  1  0
  9  8  1  0
 11  9  1  0
 14 12  1  6
 14 15  1  0
 14 13  1  0
 16 15  1  0
 17 22  1  0
 18 19  1  0
 18 17  1  0
 20 19  1  0
 20 27  1  0
 20 21  1  0
 22 16  1  0
 22 21  1  0
 23 16  2  0
 24 25  2  0
 25 44  1  0
 26 25  1  0
 26 29  1  0
 27 24  1  0
 27 28  1  0
 28 26  2  0
 29 30  1  0
 30 31  2  0
 32 35  1  0
 32 31  1  0
 33 32  2  0
 34 33  1  0
 34 29  2  0
 35 36  1  0
 36 41  2  0
 36 37  1  0
 37 38  2  0
 39 38  1  0
 39 43  1  0
 40 39  2  0
 41 40  1  0
 42 41  1  0
 44 45  1  0
 45 48  1  0
 45 47  1  0
 46 44  2  0
 49 50  1  0
 49 24  1  0
 51 49  1  0
 53 52  1  0
 53 54  1  0
 54 55  1  0
 54 57  1  0
 56 54  1  0
 58 57  1  0
 58 59  1  0
 60 59  1  0
 61 72  2  0
 62 60  1  0
 62 67  1  0
 63 71  1  0
 63 73  1  0
 64 70  1  0
 64 66  1  0
 65 71  1  0
 66 67  2  0
 66 65  1  0
 68 69  1  0
 68 62  2  0
 69 64  2  0
 70 63  1  0
 71 61  1  0
 73 75  2  0
 74 73  1  0
 76 74  1  0
 77 86  2  0
 77 82  1  0
 78 74  1  0
 78 82  1  0
 79 78  1  0
 80 81  1  0
 80 79  1  0
 81 77  1  0
 82 83  2  0
 83 84  1  0
 85 84  2  0
 86 85  1  0
 87 61  1  0
 87 88  1  0
 87 97  1  0
 88 91  1  0
 89 93  1  0
 89 88  1  0
 90 89  2  0
 93 92  1  0
 95 93  1  0
 95 96  1  0
 95 94  1  0
 97100  1  1
 97 98  1  0
 99 97  1  0
M  ISO  4  15 100  16 100  59 101  60 101
M  END
>  <TORSDO>  (2) 
F 24

>  <SCORE>  (2) 
-10.211

>  <name>  (2) 
1

>  <ligand_id>  (2) 
1

>  <original_smiles>  (2) 
[H]c1c([H])c([H])c2c(c1[H])C([H])([H])C([H])([H])C([H])([H])C2([H])N([H])C(=O)C1([H])N(C(=O)C([H])(N([H])C(=O)C([H])(N([H])C([H])([H])[H])C([H])([H])[H])C(C([H])([H])[H])(C([H])([H])[H])C([H])([H])[H])C([H])([H])c2c([H])c(OC([H])([H])C([H])([H])C([H])([H])[N+]([H])([H])C([H])(C([H])([H])[H])C3(N([H])C(=O)C(C([H])([H])[H])(C([H])([H])[H])C([H])([H])C(=O)N4C([H])([H])C([H])([H])C([H])([H])C([H])(n5nc(-c6c([H])c([H])c(Oc7c([H])c([H])c(F)c([H])c7F)c([H])c6[H])c(C(=O)N([H])[H])c5N([H])[H])C4([H])[H])C([H])([H])C([H])([H])C([H])([H])C([H])([H])C([H])([H])C3([H])[H])c([H])c([H])c2C1([H])[H]

>  <smiles>  (2) 
[H]c1c([H])c([H])c2c(c1[H])C([H])([H])C([H])([H])C([H])([H])C2([H])N([H])C(=O)C1([H])N(C(=O)C([H])(N([H])C(=O)C([H])(N([H])C([H])([H])[H])C([H])([H])[H])C(C([H])([H])[H])(C([H])([H])[H])C([H])([H])[H])C([H])([H])c2c([H])c(OC([H])([H])C([H])([H])C([H])([H])[N+]([H])([H])C([H])(C([H])([H])[H])C3(N([H])C(=O)C(C([H])([H])[H])(C([H])([H])[H])C([H])([H])C(=O)N4C([H])([H])C([H])([H])C([H])([H])C([H])(n5nc(-c6c([H])c([H])c(Oc7c([H])c([H])c(F)c([H])c7F)c([H])c6[H])c(C(=O)N([H])[H])c5N([H])[H])C4([H])[H])C([H])([H])C([H])([H])C([H])([H])C([H])([H])C([H])([H])C3([H])[H])c([H])c([H])c2C1([H])[H]

$$$$
2:0:0
     RDKit          3D

 92102  0  0  1  0  0  0  0  0999 V2000
  -26.5060  -18.4840   21.0820 C   0  0  0  0  0  1  0  0  0  0  0  0
  -27.5990  -18.3990   20.0020 C   0  0  0  0  0  3  0  0  0  0  0  0
  -28.4740  -12.3310   17.8600 C   0  0  0  0  0 15  0  0  0  0  0  0
  -28.1930  -11.6960   20.3480 C   0  0  0  0  0  1  0  0  0  0  0  0
  -30.0250  -15.3940   19.0800 C   0  0  0  0  0  2  0  0  0  0  0  0
  -28.0560  -15.9890   18.3580 C   0  0  0  0  0  2  0  0  0  0  0  0
  -27.8840  -15.6330   21.1160 C   0  0  0  0  0  2  0  0  0  0  0  0
  -29.9850  -15.0020   20.8370 C   0  0  0  0  0  3  0  0  0  0  0  0
  -28.9290  -14.5290   17.8890 C   0  0  0  0  0  2  0  0  0  0  0  0
  -28.5310  -13.9340   21.3420 C   0  0  1  0  0  0  0  0  0  0  0  0
  -28.0870  -16.7370   19.8540 N   0  0  2  0  0  4  0  0  0  0  0  0
  -29.0860  -16.8700   19.9170 H   0  0  0  0  0  0  0  0  0  0  0  0
  -31.4610  -14.3900   21.1880 C   0  0  0  0  0  0  0  0  0  0  0  0
  -32.3550  -12.0780   20.9340 C   0  0  0  0  0  2  0  0  0  0  0  0
  -31.7180  -11.4870   19.6740 C   0  0  0  0  0  2  0  0  0  0  0  0
  -30.2130  -11.3660   19.8000 C   0  0  0  0  0  2  0  0  0  0  0  0
  -29.4690  -12.7490   20.3160 C   0  0  2  0  0  0  0  0  0  0  0  0
  -30.3310  -12.5310   21.7660 C   0  0  0  0  0  2  0  0  0  0  0  0
  -31.5110  -13.1080   21.5170 N   0  0  0  0  0  0  0  0  0  0  0  0
  -32.5310  -14.9370   20.9180 O   0  0  0  0  0  0  0  0  0  0  0  0
  -25.8880  -13.9990   20.7440 C   0  0  2  0  0  0  0  0  0  0  0  0
  -24.8200  -13.1490   21.0750 C   0  0  1  0  0  0  0  0  0  0  0  0
  -25.2160  -11.8340   21.0560 C   0  0  0  0  0  3  0  0  0  0  0  0
  -27.0510  -13.3620   20.2760 N   0  0  0  0  0  0  0  0  0  0  0  0
  -26.0040  -12.2370   20.1210 N   0  0  1  0  0  4  0  0  0  0  0  0
  -24.6090  -10.4350   21.1400 C   0  0  0  0  0  0  0  0  0  0  0  0
  -24.9300   -9.5130   22.1810 C   0  0  0  0  0  3  0  0  0  0  0  0
  -24.2180   -8.2940   22.3560 C   0  0  0  0  0  3  0  0  0  0  0  0
  -23.1580   -7.9520   21.4840 C   0  0  0  0  0  0  0  0  0  0  0  0
  -22.8990   -8.8080   20.3970 C   0  0  0  0  0  3  0  0  0  0  0  0
  -23.6130  -10.0160   20.2260 C   0  0  0  0  0  3  0  0  0  0  0  0
  -22.3820   -6.8120   21.5720 O   0  0  0  0  0  0  0  0  0  0  0  0
  -22.1270   -6.1660   22.7590 C   0  0  0  0  0  0  0  0  0  0  0  0
  -21.5140   -6.8100   23.8590 C   0  0  0  0  0  3  0  0  0  0  0  0
  -21.2110   -6.0800   25.0300 C   0  0  0  0  0  3  0  0  0  0  0  0
  -21.5100   -4.7060   25.1050 C   0  0  0  0  0  0  0  0  0  0  0  0
  -22.1000   -4.0590   24.0040 C   0  0  0  0  0  3  0  0  0  0  0  0
  -22.4000   -4.7840   22.8390 C   0  0  0  0  0  0  0  0  0  0  0  0
  -22.9520   -4.1440   21.7800 F   0  0  0  0  0  0  0  0  0  0  0  0
  -21.2260   -4.0070   26.2300 F   0  0  0  0  0  0  0  0  0  0  0  0
  -23.3940  -13.4560   20.8630 C   0  0  0  0  0  0  0  0  0  0  0  0
  -22.5480  -12.8100   21.6490 N   0  0  0  0  0  0  0  0  0  0  0  0
  -23.0490  -14.2370   19.9790 O   0  0  0  0  0  0  0  0  0  0  0  0
  -22.8950  -12.1460   22.3260 H   0  0  0  0  0  0  0  0  0  0  0  0
  -21.5500  -12.9540   21.5800 H   0  0  0  0  0  0  0  0  0  0  0  0
  -25.6250  -15.2570   20.3100 N   0  0  0  0  0  0  0  0  0  0  0  0
  -25.8860  -15.3080   19.3350 H   0  0  0  0  0  0  0  0  0  0  0  0
  -24.6370  -15.4900   20.3650 H   0  0  0  0  0  0  0  0  0  0  0  0
  -28.4250  -20.0820   19.9890 C   0  0  0  0  0  3  0  0  0  0  0  0
  -27.9590  -21.8510   20.4230 C   0  0  0  0  0  3  0  0  0  0  0  0
  -28.5860  -23.5870   20.0960 C   0  0  0  0  0  2  0  0  0  0  0  0
  -28.6820  -25.1970   20.6910 O   0  0  0  0  0  0  0  0  0  0  0  0
  -25.2070  -31.4240   23.3290 C   0  0  0  0  0  0  0  0  0  0  0  0
  -27.8910  -26.4610   20.4900 C   0  0  0  0  0  0  0  0  0  0  0  0
  -24.1990  -30.0770   21.5410 C   0  0  0  0  0  3  0  0  0  0  0  0
  -25.7720  -28.5110   20.2150 C   0  0  0  0  0  0  0  0  0  0  0  0
  -26.7710  -30.2430   21.6880 C   0  0  0  0  0  2  0  0  0  0  0  0
  -26.8870  -28.8360   20.9980 C   0  0  0  0  0  0  0  0  0  0  0  0
  -27.9550  -27.8200   21.1200 C   0  0  0  0  0  3  0  0  0  0  0  0
  -26.7980  -26.3440   19.6280 C   0  0  0  0  0  3  0  0  0  0  0  0
  -25.7700  -27.3010   19.5060 C   0  0  0  0  0  3  0  0  0  0  0  0
  -24.5690  -29.4470   20.1710 C   0  0  0  0  0  2  0  0  0  0  0  0
  -25.4120  -30.6110   22.2400 N   0  0  0  0  0  0  0  0  0  0  0  0
  -24.0660  -31.7040   23.7300 O   0  0  0  0  0  0  0  0  0  0  0  0
  -23.4110  -29.0510   22.3950 C   0  0  0  0  0  0  0  0  0  0  0  0
  -22.0830  -28.9630   22.1980 N   0  0  0  0  0  0  0  0  0  0  0  0
  -24.0030  -28.3350   23.2080 O   0  0  0  0  0  0  0  0  0  0  0  0
  -21.6580  -29.5890   21.5270 H   0  0  0  0  0  0  0  0  0  0  0  0
  -18.6110  -27.9880   22.5720 C   0  0  0  0  0  0  0  0  0  0  0  0
  -21.1820  -28.0180   22.8630 C   0  0  0  0  0  3  0  0  0  0  0  0
  -21.1740  -26.6550   22.1330 C   0  0  0  0  0  2  0  0  0  0  0  0
  -20.0600  -26.5370   21.0870 C   0  0  0  0  0  2  0  0  0  0  0  0
  -18.6870  -26.7150   21.7440 C   0  0  0  0  0  2  0  0  0  0  0  0
  -19.7830  -28.6070   23.0840 C   0  0  0  0  0  0  0  0  0  0  0  0
  -19.6570  -29.8040   23.8220 C   0  0  0  0  0  3  0  0  0  0  0  0
  -18.3940  -30.3820   24.0470 C   0  0  0  0  0  3  0  0  0  0  0  0
  -17.2370  -29.7590   23.5500 C   0  0  0  0  0  3  0  0  0  0  0  0
  -17.3460  -28.5630   22.8190 C   0  0  0  0  0  3  0  0  0  0  0  0
  -26.3960  -32.0570   24.1140 C   0  0  0  0  0  3  0  0  0  0  0  0
  -26.7720  -31.2480   25.4190 C   0  0  1  0  0  0  0  0  0  0  0  0
  -25.5690  -30.9740   26.3510 C   0  0  0  0  0  1  0  0  0  0  0  0
  -27.4050  -29.8810   25.0640 C   0  0  0  0  0  1  0  0  0  0  0  0
  -27.8330  -32.0290   26.2290 C   0  0  0  0  0  1  0  0  0  0  0  0
  -26.0220  -33.4390   24.4670 N   0  0  0  0  0  0  0  0  0  0  0  0
  -26.4290  -34.5360   23.8140 C   0  0  0  0  0  0  0  0  0  0  0  0
  -27.2150  -34.4920   22.8660 O   0  0  0  0  0  0  0  0  0  0  0  0
  -25.3270  -33.5460   25.1890 H   0  0  0  0  0  0  0  0  0  0  0  0
  -24.7350  -36.3450   23.3600 C   0  0  0  0  0  1  0  0  0  0  0  0
  -25.8770  -35.8980   24.2870 C   0  0  0  0  0  3  0  0  0  0  0  0
  -27.8830  -36.7560   25.4150 C   0  0  0  0  0  1  0  0  0  0  0  0
  -26.9040  -36.9610   24.3510 N   0  0  0  0  0  0  0  0  0  0  0  0
  -26.4720  -37.8710   24.4880 H   0  0  0  0  0  0  0  0  0  0  0  0
  2  1  1  0
  6 11  1  0
  8  5  1  0
  8 13  1  0
  8 10  1  0
  9  6  1  0
  9  5  1  0
 10  7  1  0
 11 12  1  1
 11  2  1  0
 11  7  1  0
 13 19  1  0
 14 19  1  0
 15 16  1  0
 15 14  1  0
 16 17  1  0
 17  4  1  6
 17 10  1  0
 17 18  1  0
 19 18  1  0
 20 13  2  0
 21 46  1  1
 21 22  1  0
 22 41  1  1
 23 22  1  0
 23 26  1  0
 24 21  1  0
 10 24  1  1
 25 24  1  0
 25 21  1  0
 25 23  1  1
 25 22  1  0
 26 27  1  0
 27 28  2  0
 29 32  1  0
 29 28  1  0
 30 29  2  0
 31 30  1  0
 31 26  2  0
 32 33  1  0
 33 38  2  0
 33 34  1  0
 34 35  2  0
 35 36  1  0
 36 40  1  0
 37 36  2  0
 38 37  1  0
 39 38  1  0
 41 42  1  0
 42 44  1  0
 43 41  2  0
 45 42  1  0
 46 48  1  0
 47 46  1  0
 49  2  1  0
 49 50  2  0
 51 50  1  0
 51 52  1  0
 53 64  2  0
 53 79  1  0
 54 52  1  0
 54 59  1  0
 55 63  1  0
 55 65  1  0
 56 58  1  0
 57 63  1  0
 58 59  2  0
 58 57  1  0
 60 54  2  0
 61 60  1  0
 61 56  2  0
 62 56  1  0
 62 55  1  0
 63 53  1  0
 65 67  2  0
 66 65  1  0
 66 70  1  0
 68 66  1  0
 69 78  2  0
 69 74  1  0
 70 74  1  0
 71 70  1  0
 72 73  1  0
 72 71  1  0
 73 69  1  0
 74 75  2  0
 75 76  1  0
 77 76  2  0
 78 77  1  0
 79 84  1  0
 79 80  1  0
 80 83  1  1
 80 81  1  0
 82 80  1  0
 84 87  1  0
 85 89  1  0
 85 84  1  0
 86 85  2  0
 88 89  1  0
 89 91  1  0
 91 92  1  0
 91 90  1  0
M  ISO  4   8 100  13 100  51 101  52 101
M  END
>  <TORSDO>  (3) 
F 20

>  <SCORE>  (3) 
-8.558

>  <name>  (3) 
2

>  <ligand_id>  (3) 
2

>  <original_smiles>  (3) 
[H]c1c([H])c([H])c2c(c1[H])C([H])([H])C([H])([H])C([H])([H])C2([H])N([H])C(=O)C1([H])N(C(=O)C([H])(N([H])C(=O)C([H])(N([H])C([H])([H])[H])C([H])([H])[H])C(C([H])([H])[H])(C([H])([H])[H])C([H])([H])[H])C([H])([H])c2c([H])c(OC([H])([H])C([H])([H])C([H])([H])C([H])(C([H])([H])[H])[N+]3([H])C([H])([H])C4([H])C([H])([H])C([H])([H])C([H])(C([H])(C(=O)N5C([H])([H])C([H])([H])C([H])([H])C([H])(n6nc(-c7c([H])c([H])c(Oc8c([H])c([H])c(F)c([H])c8F)c([H])c7[H])c(C(=O)N([H])[H])c6N([H])[H])C5([H])[H])C4([H])[H])C3([H])[H])c([H])c([H])c2C1([H])[H]

>  <smiles>  (3) 
[H]c1c([H])c([H])c2c(c1[H])C([H])([H])C([H])([H])C([H])([H])C2([H])N([H])C(=O)C1([H])N(C(=O)C([H])(N([H])C(=O)C([H])(N([H])C([H])([H])[H])C([H])([H])[H])C(C([H])([H])[H])(C([H])([H])[H])C([H])([H])[H])C([H])([H])c2c([H])c(OC([H])([H])C([H])([H])C([H])([H])C([H])(C([H])([H])[H])[N+]3([H])C([H])([H])C4([H])C([H])([H])C([H])([H])C([H])(C([H])(C(=O)N5C([H])([H])C([H])([H])C([H])([H])C([H])(n6nc(-c7c([H])c([H])c(Oc8c([H])c([H])c(F)c([H])c8F)c([H])c7[H])c(C(=O)N([H])[H])c6N([H])[H])C5([H])[H])C4([H])[H])C3([H])[H])c([H])c([H])c2C1([H])[H]

$$$$
3:0:0
     RDKit          3D

 91 99  0  0  1  0  0  0  0  0999 V2000
  -28.9960  -21.0740   19.1800 C   0  0  0  0  0  2  0  0  0  0  0  0
  -30.6650  -21.4090   21.1170 C   0  0  0  0  0  2  0  0  0  0  0  0
  -27.9960  -22.0080   19.9150 C   0  0  0  0  0  2  0  0  0  0  0  0
  -30.1740  -22.8590   20.9480 C   0  0  0  0  0  2  0  0  0  0  0  0
  -30.1350  -20.4340   20.0280 C   0  0  0  0  0  3  0  0  0  0  0  0
  -28.6350  -22.9410   20.9740 C   0  0  0  0  0  3  0  0  0  0  0  0
  -29.7960  -19.0540   20.6500 C   0  0  0  0  0  0  0  0  0  0  0  0
  -30.6420  -18.0310   20.4110 N   0  0  0  0  0  0  0  0  0  0  0  0
  -28.8410  -18.9470   21.4220 O   0  0  0  0  0  0  0  0  0  0  0  0
  -31.3450  -18.1880   19.7000 H   0  0  0  0  0  0  0  0  0  0  0  0
  -30.9230  -16.9290   21.3520 C   0  0  0  0  0  2  0  0  0  0  0  0
  -30.1540  -15.5910   21.1450 C   0  0  0  0  0  2  0  0  0  0  0  0
  -30.8190  -14.4820   20.2840 C   0  0  0  0  0  0  0  0  0  0  0  0
  -30.5090  -12.3580   19.0400 C   0  0  0  0  0  2  0  0  0  0  0  0
  -29.5260  -12.5810   17.8700 C   0  0  0  0  0  2  0  0  0  0  0  0
  -28.0630  -12.4400   18.3360 C   0  0  0  0  0  2  0  0  0  0  0  0
  -27.7670  -13.2530   19.6250 C   0  0  0  0  0  3  0  0  0  0  0  0
  -28.8470  -12.9830   20.6950 C   0  0  0  0  0  2  0  0  0  0  0  0
  -30.1580  -13.3060   20.1090 N   0  0  0  0  0  0  0  0  0  0  0  0
  -31.8970  -14.7150   19.7230 O   0  0  0  0  0  0  0  0  0  0  0  0
  -25.3930  -13.8810   20.3980 C   0  0  0  0  0  0  0  0  0  0  0  0
  -24.3270  -13.1150   20.7960 C   0  0  0  0  0  0  0  0  0  0  0  0
  -24.7780  -11.7610   20.7500 C   0  0  0  0  0  0  0  0  0  0  0  0
  -26.4230  -12.9910   20.1340 N   0  0  0  0  0  0  0  0  0  0  0  0
  -26.0580  -11.7110   20.4020 N   0  0  0  0  0  0  0  0  0  0  0  0
  -24.0490  -10.5030   20.9540 C   0  0  0  0  0  0  0  0  0  0  0  0
  -24.4820   -9.5440   21.8960 C   0  0  0  0  0  3  0  0  0  0  0  0
  -23.7540   -8.3500   22.0880 C   0  0  0  0  0  3  0  0  0  0  0  0
  -22.5810   -8.1070   21.3360 C   0  0  0  0  0  0  0  0  0  0  0  0
  -22.1670   -9.0530   20.3830 C   0  0  0  0  0  3  0  0  0  0  0  0
  -22.8950  -10.2390   20.1890 C   0  0  0  0  0  3  0  0  0  0  0  0
  -21.8260   -6.9630   21.4350 O   0  0  0  0  0  0  0  0  0  0  0  0
  -21.7550   -6.2460   22.6020 C   0  0  0  0  0  0  0  0  0  0  0  0
  -21.2870   -6.8210   23.8040 C   0  0  0  0  0  3  0  0  0  0  0  0
  -21.1680   -6.0290   24.9630 C   0  0  0  0  0  3  0  0  0  0  0  0
  -21.5030   -4.6630   24.9220 C   0  0  0  0  0  0  0  0  0  0  0  0
  -21.9640   -4.0860   23.7240 C   0  0  0  0  0  3  0  0  0  0  0  0
  -22.0860   -4.8750   22.5680 C   0  0  0  0  0  0  0  0  0  0  0  0
  -22.5100   -4.3120   21.4110 F   0  0  0  0  0  0  0  0  0  0  0  0
  -21.3810   -3.8990   26.0320 F   0  0  0  0  0  0  0  0  0  0  0  0
  -22.9420  -13.6030   21.1070 C   0  0  0  0  0  0  0  0  0  0  0  0
  -22.2290  -12.9100   21.9880 N   0  0  0  0  0  0  0  0  0  0  0  0
  -22.4970  -14.6340   20.6040 O   0  0  0  0  0  0  0  0  0  0  0  0
  -22.6000  -12.0780   22.4230 H   0  0  0  0  0  0  0  0  0  0  0  0
  -21.3000  -13.2220   22.2320 H   0  0  0  0  0  0  0  0  0  0  0  0
  -25.5650  -15.2500   20.2230 N   0  0  0  0  0  0  0  0  0  0  0  0
  -24.8100  -15.9130   20.3650 H   0  0  0  0  0  0  0  0  0  0  0  0
  -26.4150  -15.6860   19.8860 H   0  0  0  0  0  0  0  0  0  0  0  0
  -28.0900  -24.4010   21.0120 C   0  0  0  0  0  2  0  0  0  0  0  0
  -28.5670  -25.3630   19.8920 C   0  0  0  0  0  2  0  0  0  0  0  0
  -28.4630  -26.7480   20.2510 O   0  0  0  0  0  0  0  0  0  0  0  0
  -24.5320  -31.8640   23.1930 C   0  0  0  0  0  0  0  0  0  0  0  0
  -27.2580  -27.4150   20.2050 C   0  0  0  0  0  0  0  0  0  0  0  0
  -23.3630  -30.4470   21.5350 C   0  0  0  0  0  3  0  0  0  0  0  0
  -24.8510  -28.9010   20.1520 C   0  0  0  0  0  0  0  0  0  0  0  0
  -25.8870  -30.8210   21.3790 C   0  0  0  0  0  2  0  0  0  0  0  0
  -25.9910  -29.4420   20.7580 C   0  0  0  0  0  0  0  0  0  0  0  0
  -27.1940  -28.7060   20.7790 C   0  0  0  0  0  3  0  0  0  0  0  0
  -26.0970  -26.8830   19.6000 C   0  0  0  0  0  3  0  0  0  0  0  0
  -24.8990  -27.6230   19.5700 C   0  0  0  0  0  3  0  0  0  0  0  0
  -23.6030  -29.7580   20.1630 C   0  0  0  0  0  2  0  0  0  0  0  0
  -24.6110  -31.0610   22.0960 N   0  0  0  0  0  0  0  0  0  0  0  0
  -23.4390  -32.1340   23.7120 O   0  0  0  0  0  0  0  0  0  0  0  0
  -22.6990  -29.4300   22.4910 C   0  0  0  0  0  0  0  0  0  0  0  0
  -21.3730  -29.2570   22.3510 N   0  0  0  0  0  0  0  0  0  0  0  0
  -23.3720  -28.8020   23.3120 O   0  0  0  0  0  0  0  0  0  0  0  0
  -20.8940  -29.8180   21.6600 H   0  0  0  0  0  0  0  0  0  0  0  0
  -17.9830  -28.1140   22.8350 C   0  0  0  0  0  0  0  0  0  0  0  0
  -20.5430  -28.3250   23.1120 C   0  0  0  0  0  3  0  0  0  0  0  0
  -20.6220  -26.8980   22.5220 C   0  0  0  0  0  2  0  0  0  0  0  0
  -19.5180  -26.6060   21.5020 C   0  0  0  0  0  2  0  0  0  0  0  0
  -18.1360  -26.7700   22.1430 C   0  0  0  0  0  2  0  0  0  0  0  0
  -19.1130  -28.8520   23.2750 C   0  0  0  0  0  0  0  0  0  0  0  0
  -18.9140  -30.1130   23.8770 C   0  0  0  0  0  3  0  0  0  0  0  0
  -17.6180  -30.6360   24.0440 C   0  0  0  0  0  3  0  0  0  0  0  0
  -16.5010  -29.8940   23.6220 C   0  0  0  0  0  3  0  0  0  0  0  0
  -16.6850  -28.6340   23.0230 C   0  0  0  0  0  3  0  0  0  0  0  0
  -25.8040  -32.5030   23.8350 C   0  0  0  0  0  3  0  0  0  0  0  0
  -25.4800  -33.8970   24.1640 N   0  0  0  0  0  0  0  0  0  0  0  0
  -25.8180  -34.9560   23.4140 C   0  0  0  0  0  0  0  0  0  0  0  0
  -26.5060  -34.8590   22.3950 O   0  0  0  0  0  0  0  0  0  0  0  0
  -24.8760  -34.0430   24.9590 H   0  0  0  0  0  0  0  0  0  0  0  0
  -24.0910  -36.7410   23.0230 C   0  0  0  0  0  1  0  0  0  0  0  0
  -25.3120  -36.3390   23.8650 C   0  0  0  0  0  3  0  0  0  0  0  0
  -27.4180  -37.2350   24.7540 C   0  0  0  0  0  1  0  0  0  0  0  0
  -26.3410  -37.3980   23.7830 N   0  0  0  0  0  0  0  0  0  0  0  0
  -25.9250  -38.3160   23.9220 H   0  0  0  0  0  0  0  0  0  0  0  0
  -26.3090  -31.7300   25.1130 C   0  0  1  0  0  0  0  0  0  0  0  0
  -25.2060  -31.4740   26.1660 C   0  0  0  0  0  1  0  0  0  0  0  0
  -26.9090  -30.3610   24.7140 C   0  0  0  0  0  1  0  0  0  0  0  0
  -27.4410  -32.5320   25.7980 C   0  0  0  0  0  1  0  0  0  0  0  0
  1  3  1  0
  1  5  1  0
  3  6  1  0
  4  6  1  0
  4  2  1  0
  5  7  1  0
  5  2  1  0
  6 49  1  0
  7  9  2  0
  8  7  1  0
  8 11  1  0
 10  8  1  0
 12 11  1  0
 13 12  1  0
 14 19  1  0
 15 16  1  0
 15 14  1  0
 17 16  1  0
 17 24  1  0
 17 18  1  0
 19 13  1  0
 19 18  1  0
 20 13  2  0
 21 22  2  0
 22 41  1  0
 23 22  1  0
 23 26  1  0
 24 21  1  0
 24 25  1  0
 25 23  2  0
 26 27  1  0
 27 28  2  0
 29 32  1  0
 29 28  1  0
 30 29  2  0
 31 30  1  0
 31 26  2  0
 32 33  1  0
 33 34  1  0
 34 35  2  0
 36 35  1  0
 36 40  1  0
 37 36  2  0
 38 33  2  0
 38 37  1  0
 39 38  1  0
 41 42  1  0
 42 45  1  0
 42 44  1  0
 43 41  2  0
 46 47  1  0
 46 21  1  0
 48 46  1  0
 50 51  1  0
 50 49  1  0
 52 63  2  0
 53 51  1  0
 53 58  1  0
 54 62  1  0
 54 64  1  0
 55 61  1  0
 55 57  1  0
 56 62  1  0
 57 58  2  0
 57 56  1  0
 59 53  2  0
 60 59  1  0
 60 55  2  0
 61 54  1  0
 62 52  1  0
 64 66  2  0
 65 64  1  0
 67 65  1  0
 68 77  2  0
 68 73  1  0
 69 65  1  0
 69 73  1  0
 70 69  1  0
 71 72  1  0
 71 70  1  0
 72 68  1  0
 73 74  2  0
 74 75  1  0
 76 75  2  0
 77 76  1  0
 78 52  1  0
 78 79  1  0
 78 88  1  0
 79 82  1  0
 80 84  1  0
 80 79  1  0
 81 80  2  0
 84 83  1  0
 86 84  1  0
 86 87  1  0
 86 85  1  0
 88 91  1  1
 88 89  1  0
 90 88  1  0
M  ISO  4  12 100  13 100  50 101  51 101
M  END
>  <TORSDO>  (4) 
F 21

>  <SCORE>  (4) 
-13.146

>  <name>  (4) 
3

>  <ligand_id>  (4) 
3

>  <original_smiles>  (4) 
[H]c1c([H])c([H])c2c(c1[H])C([H])([H])C([H])([H])C([H])([H])C2([H])N([H])C(=O)C1([H])N(C(=O)C([H])(N([H])C(=O)C([H])(N([H])C([H])([H])[H])C([H])([H])[H])C(C([H])([H])[H])(C([H])([H])[H])C([H])([H])[H])C([H])([H])c2c([H])c(OC([H])([H])C([H])([H])C3([H])C([H])([H])C([H])([H])C([H])(C(=O)N([H])C([H])([H])C([H])([H])C(=O)N4C([H])([H])C([H])([H])C([H])([H])C([H])(n5nc(-c6c([H])c([H])c(Oc7c([H])c([H])c(F)c([H])c7F)c([H])c6[H])c(C(=O)N([H])[H])c5N([H])[H])C4([H])[H])C([H])([H])C3([H])[H])c([H])c([H])c2C1([H])[H]

>  <smiles>  (4) 
[H]c1c([H])c([H])c2c(c1[H])C([H])([H])C([H])([H])C([H])([H])C2([H])N([H])C(=O)C1([H])N(C(=O)C([H])(N([H])C(=O)C([H])(N([H])C([H])([H])[H])C([H])([H])[H])C(C([H])([H])[H])(C([H])([H])[H])C([H])([H])[H])C([H])([H])c2c([H])c(OC([H])([H])C([H])([H])C3([H])C([H])([H])C([H])([H])C([H])(C(=O)N([H])C([H])([H])C([H])([H])C(=O)N4C([H])([H])C([H])([H])C([H])([H])C([H])(n5nc(-c6c([H])c([H])c(Oc7c([H])c([H])c(F)c([H])c7F)c([H])c6[H])c(C(=O)N([H])[H])c5N([H])[H])C4([H])[H])C([H])([H])C3([H])[H])c([H])c([H])c2C1([H])[H]

$$$$
4:0:0
     RDKit          3D

 97105  0  0  1  0  0  0  0  0999 V2000
  -29.7660  -21.3560   19.4530 C   0  0  0  0  0  3  0  0  0  0  0  0
  -27.5580  -18.8420   17.7430 C   0  0  0  0  0  2  0  0  0  0  0  0
  -27.8120  -19.6700   18.9920 C   0  0  0  0  0  2  0  0  0  0  0  0
  -27.9060  -19.7820   16.5980 C   0  0  0  0  0  2  0  0  0  0  0  0
  -28.6130  -20.8910   18.5020 C   0  0  0  0  0  3  0  0  0  0  0  0
  -29.0110  -20.5920   17.1170 N   0  0  0  0  0  0  0  0  0  0  0  0
  -29.1800  -21.8250   16.3310 C   0  0  0  0  0  2  0  0  0  0  0  0
  -30.5030  -23.2920   14.8100 C   0  0  0  0  0  1  0  0  0  0  0  0
  -31.7130  -21.5340   16.1020 C   0  0  0  0  0  1  0  0  0  0  0  0
  -30.2270  -20.9100   14.1600 C   0  0  0  0  0  1  0  0  0  0  0  0
  -30.4010  -21.8580   15.3650 C   0  0  1  0  0  0  0  0  0  0  0  0
  -30.4030  -20.2000   20.2340 N   0  0  0  0  0  4  0  0  0  0  0  0
  -31.3880  -20.4010   20.2950 H   0  0  0  0  0  0  0  0  0  0  0  0
  -30.0420  -20.2220   21.1730 H   0  0  0  0  0  0  0  0  0  0  0  0
  -30.2580  -18.7690   19.7300 C   0  0  0  0  0  2  0  0  0  0  0  0
  -31.2490  -17.6460   20.2920 C   0  0  0  0  0  2  0  0  0  0  0  0
  -30.6190  -16.2060   20.5800 C   0  0  0  0  0  2  0  0  0  0  0  0
  -31.4070  -14.8810   20.2110 C   0  0  0  0  0  0  0  0  0  0  0  0
  -31.1550  -12.5730   19.3030 C   0  0  0  0  0  2  0  0  0  0  0  0
  -30.2160  -12.6360   18.0760 C   0  0  0  0  0  2  0  0  0  0  0  0
  -28.7380  -12.5360   18.5080 C   0  0  0  0  0  2  0  0  0  0  0  0
  -28.3960  -13.5000   19.6720 C   0  0  0  0  0  3  0  0  0  0  0  0
  -29.4480  -13.4120   20.8010 C   0  0  0  0  0  2  0  0  0  0  0  0
  -30.7700  -13.6680   20.2140 N   0  0  0  0  0  0  0  0  0  0  0  0
  -32.5670  -14.9770   19.7950 O   0  0  0  0  0  0  0  0  0  0  0  0
  -26.0720  -14.2350   20.4850 C   0  0  0  0  0  0  0  0  0  0  0  0
  -24.9550  -13.5240   20.8300 C   0  0  0  0  0  0  0  0  0  0  0  0
  -25.3130  -12.1460   20.7100 C   0  0  0  0  0  0  0  0  0  0  0  0
  -27.0410  -13.2930   20.1730 N   0  0  0  0  0  0  0  0  0  0  0  0
  -26.5900  -12.0280   20.3710 N   0  0  0  0  0  0  0  0  0  0  0  0
  -24.4960  -10.9330   20.8420 C   0  0  0  0  0  0  0  0  0  0  0  0
  -24.8470   -9.9020   21.7410 C   0  0  0  0  0  3  0  0  0  0  0  0
  -24.0350   -8.7530   21.8630 C   0  0  0  0  0  3  0  0  0  0  0  0
  -22.8600   -8.6290   21.0850 C   0  0  0  0  0  0  0  0  0  0  0  0
  -22.5280   -9.6480   20.1760 C   0  0  0  0  0  3  0  0  0  0  0  0
  -23.3400  -10.7880   20.0520 C   0  0  0  0  0  3  0  0  0  0  0  0
  -22.0250   -7.5370   21.1190 O   0  0  0  0  0  0  0  0  0  0  0  0
  -21.8530   -6.7980   22.2610 C   0  0  0  0  0  0  0  0  0  0  0  0
  -21.3740   -7.3750   23.4570 C   0  0  0  0  0  3  0  0  0  0  0  0
  -21.1460   -6.5650   24.5870 C   0  0  0  0  0  3  0  0  0  0  0  0
  -21.3860   -5.1790   24.5210 C   0  0  0  0  0  0  0  0  0  0  0  0
  -21.8590   -4.6030   23.3290 C   0  0  0  0  0  3  0  0  0  0  0  0
  -22.0890   -5.4090   22.2020 C   0  0  0  0  0  0  0  0  0  0  0  0
  -22.5240   -4.8460   21.0500 F   0  0  0  0  0  0  0  0  0  0  0  0
  -21.1600   -4.4000   25.6050 F   0  0  0  0  0  0  0  0  0  0  0  0
  -23.6030  -14.0880   21.1600 C   0  0  0  0  0  0  0  0  0  0  0  0
  -22.8570  -13.4170   22.0290 N   0  0  0  0  0  0  0  0  0  0  0  0
  -23.2230  -15.1560   20.6830 O   0  0  0  0  0  0  0  0  0  0  0  0
  -23.1780  -12.5510   22.4350 H   0  0  0  0  0  0  0  0  0  0  0  0
  -21.9490  -13.7750   22.2940 H   0  0  0  0  0  0  0  0  0  0  0  0
  -26.3380  -15.5960   20.3870 N   0  0  0  0  0  0  0  0  0  0  0  0
  -25.6200  -16.2940   20.5400 H   0  0  0  0  0  0  0  0  0  0  0  0
  -27.2100  -15.9890   20.0600 H   0  0  0  0  0  0  0  0  0  0  0  0
  -29.2040  -22.5620   20.3460 C   0  0  0  0  0  3  0  0  0  0  0  0
  -28.8990  -23.9910   19.6850 C   0  0  0  0  0  3  0  0  0  0  0  0
  -28.2640  -25.1190   20.6120 C   0  0  0  0  0  2  0  0  0  0  0  0
  -28.3640  -26.5420   20.2500 O   0  0  0  0  0  0  0  0  0  0  0  0
  -24.5320  -31.8710   23.2560 C   0  0  0  0  0  0  0  0  0  0  0  0
  -27.2190  -27.3380   20.2630 C   0  0  0  0  0  0  0  0  0  0  0  0
  -23.3670  -30.4830   21.5760 C   0  0  0  0  0  3  0  0  0  0  0  0
  -24.8510  -28.9230   20.1940 C   0  0  0  0  0  0  0  0  0  0  0  0
  -25.9070  -30.8020   21.4570 C   0  0  0  0  0  2  0  0  0  0  0  0
  -26.0020  -29.4240   20.8150 C   0  0  0  0  0  0  0  0  0  0  0  0
  -27.1930  -28.6440   20.8340 C   0  0  0  0  0  3  0  0  0  0  0  0
  -26.0480  -26.8690   19.6360 C   0  0  0  0  0  3  0  0  0  0  0  0
  -24.8730  -27.6500   19.5960 C   0  0  0  0  0  3  0  0  0  0  0  0
  -23.6160  -29.8020   20.2030 C   0  0  0  0  0  2  0  0  0  0  0  0
  -24.6200  -31.0690   22.1540 N   0  0  0  0  0  0  0  0  0  0  0  0
  -23.4360  -32.1500   23.7630 O   0  0  0  0  0  0  0  0  0  0  0  0
  -22.6750  -29.4680   22.5160 C   0  0  0  0  0  0  0  0  0  0  0  0
  -21.3490  -29.3150   22.3650 N   0  0  0  0  0  0  0  0  0  0  0  0
  -23.3300  -28.8200   23.3350 O   0  0  0  0  0  0  0  0  0  0  0  0
  -20.8800  -29.8880   21.6760 H   0  0  0  0  0  0  0  0  0  0  0  0
  -17.9310  -28.2390   22.8630 C   0  0  0  0  0  0  0  0  0  0  0  0
  -20.5010  -28.3830   23.1110 C   0  0  0  0  0  3  0  0  0  0  0  0
  -20.5390  -26.9720   22.4810 C   0  0  0  0  0  2  0  0  0  0  0  0
  -19.4130  -26.7330   21.4700 C   0  0  0  0  0  2  0  0  0  0  0  0
  -18.0450  -26.9100   22.1350 C   0  0  0  0  0  2  0  0  0  0  0  0
  -19.0850  -28.9380   23.3070 C   0  0  0  0  0  0  0  0  0  0  0  0
  -18.9260  -30.1850   23.9480 C   0  0  0  0  0  3  0  0  0  0  0  0
  -17.6450  -30.7340   24.1490 C   0  0  0  0  0  3  0  0  0  0  0  0
  -16.5050  -30.0300   23.7210 C   0  0  0  0  0  3  0  0  0  0  0  0
  -16.6500  -28.7840   23.0840 C   0  0  0  0  0  3  0  0  0  0  0  0
  -25.8000  -32.4930   23.9170 C   0  0  0  0  0  3  0  0  0  0  0  0
  -26.2580  -31.7330   25.2230 C   0  0  1  0  0  0  0  0  0  0  0  0
  -25.1150  -31.4990   26.2380 C   0  0  0  0  0  1  0  0  0  0  0  0
  -26.8640  -30.3540   24.8690 C   0  0  0  0  0  1  0  0  0  0  0  0
  -27.3740  -32.5360   25.9330 C   0  0  0  0  0  1  0  0  0  0  0  0
  -25.5000  -33.9010   24.2160 N   0  0  0  0  0  0  0  0  0  0  0  0
  -25.8670  -34.9360   23.4500 C   0  0  0  0  0  0  0  0  0  0  0  0
  -26.5630  -34.8070   22.4380 O   0  0  0  0  0  0  0  0  0  0  0  0
  -24.8880  -34.0750   24.9990 H   0  0  0  0  0  0  0  0  0  0  0  0
  -24.1640  -36.7390   23.0300 C   0  0  0  0  0  1  0  0  0  0  0  0
  -25.3860  -36.3390   23.8710 C   0  0  0  0  0  3  0  0  0  0  0  0
  -27.5140  -37.2200   24.7220 C   0  0  0  0  0  1  0  0  0  0  0  0
  -26.4310  -37.3790   23.7550 N   0  0  0  0  0  0  0  0  0  0  0  0
  -26.0330  -38.3060   23.8770 H   0  0  0  0  0  0  0  0  0  0  0  0
  1 12  1  0
  1 54  1  0
  2  3  1  0
  4  6  1  0
  4  2  1  0
  5  3  1  0
  5  1  1  0
  6  5  1  0
  7  6  1  0
 11  8  1  6
 10 11  1  0
 11  9  1  0
 11  7  1  0
 12 13  1  0
 12 14  1  0
 15 12  1  0
 15 16  1  0
 16 17  1  0
 18 24  1  0
 18 17  1  0
 19 24  1  0
 20 21  1  0
 20 19  1  0
 22 21  1  0
 22 29  1  0
 22 23  1  0
 24 23  1  0
 25 18  2  0
 26 27  2  0
 27 46  1  0
 28 27  1  0
 28 31  1  0
 29 30  1  0
 29 26  1  0
 30 28  2  0
 31 32  1  0
 32 33  2  0
 34 37  1  0
 34 33  1  0
 35 34  2  0
 36 35  1  0
 36 31  2  0
 37 38  1  0
 38 39  1  0
 39 40  2  0
 41 40  1  0
 41 45  1  0
 42 41  2  0
 43 38  2  0
 43 42  1  0
 44 43  1  0
 46 47  1  0
 47 50  1  0
 47 49  1  0
 48 46  2  0
 51 26  1  0
 51 52  1  0
 53 51  1  0
 55 54  2  0
 55 56  1  0
 57 59  1  0
 57 56  1  0
 58 69  2  0
 59 64  1  0
 60 68  1  0
 60 70  1  0
 61 67  1  0
 61 63  1  0
 62 68  1  0
 63 64  2  0
 63 62  1  0
 65 59  2  0
 66 65  1  0
 66 61  2  0
 67 60  1  0
 68 58  1  0
 70 72  2  0
 71 70  1  0
 73 71  1  0
 74 83  2  0
 74 79  1  0
 75 71  1  0
 75 79  1  0
 76 75  1  0
 77 78  1  0
 77 76  1  0
 78 74  1  0
 79 80  2  0
 80 81  1  0
 82 81  2  0
 83 82  1  0
 84 58  1  0
 84 89  1  0
 84 85  1  0
 85 88  1  1
 85 86  1  0
 87 85  1  0
 89 92  1  0
 90 94  1  0
 90 89  1  0
 91 90  2  0
 94 93  1  0
 96 94  1  0
 96 97  1  0
 96 95  1  0
M  ISO  4  17 100  18 100  56 101  57 101
M  END
>  <TORSDO>  (5) 
F 26

>  <SCORE>  (5) 
-11.085

>  <name>  (5) 
4

>  <ligand_id>  (5) 
4

>  <original_smiles>  (5) 
[H]c1c([H])c([H])c2c(c1[H])C([H])([H])C([H])([H])C([H])([H])C2([H])N([H])C(=O)C1([H])N(C(=O)C([H])(N([H])C(=O)C([H])(N([H])C([H])([H])[H])C([H])([H])[H])C(C([H])([H])[H])(C([H])([H])[H])C([H])([H])[H])C([H])([H])c2c([H])c(OC([H])([H])C([H])([H])C([H])([H])C([H])(C3([H])N(C([H])([H])C(C([H])([H])[H])(C([H])([H])[H])C([H])([H])[H])C([H])([H])C([H])([H])C3([H])[H])[N+]([H])([H])C([H])([H])C([H])([H])C([H])([H])C(=O)N3C([H])([H])C([H])([H])C([H])([H])C([H])(n4nc(-c5c([H])c([H])c(Oc6c([H])c([H])c(F)c([H])c6F)c([H])c5[H])c(C(=O)N([H])[H])c4N([H])[H])C3([H])[H])c([H])c([H])c2C1([H])[H]

>  <smiles>  (5) 
[H]c1c([H])c([H])c2c(c1[H])C([H])([H])C([H])([H])C([H])([H])C2([H])N([H])C(=O)C1([H])N(C(=O)C([H])(N([H])C(=O)C([H])(N([H])C([H])([H])[H])C([H])([H])[H])C(C([H])([H])[H])(C([H])([H])[H])C([H])([H])[H])C([H])([H])c2c([H])c(OC([H])([H])C([H])([H])C([H])([H])C([H])(C3([H])N(C([H])([H])C(C([H])([H])[H])(C([H])([H])[H])C([H])([H])[H])C([H])([H])C([H])([H])C3([H])[H])[N+]([H])([H])C([H])([H])C([H])([H])C([H])([H])C(=O)N3C([H])([H])C([H])([H])C([H])([H])C([H])(n4nc(-c5c([H])c([H])c(Oc6c([H])c([H])c(F)c([H])c6F)c([H])c5[H])c(C(=O)N([H])[H])c4N([H])[H])C3([H])[H])c([H])c([H])c2C1([H])[H]

$$$$
5:0:0
     RDKit          3D

 95103  0  0  1  0  0  0  0  0999 V2000
  -29.0810  -22.1080   23.7010 C   0  0  0  0  0  1  0  0  0  0  0  0
  -29.7970  -22.8520   22.5440 C   0  0  0  0  0  3  0  0  0  0  0  0
  -28.2250  -24.7810   22.9530 C   0  0  0  0  0  1  0  0  0  0  0  0
  -29.0010  -23.9870   21.9610 N   0  0  1  0  0  4  0  0  0  0  0  0
  -28.3090  -23.5520   21.3690 H   0  0  0  0  0  0  0  0  0  0  0  0
  -29.8120  -24.8800   21.0810 C   0  0  0  0  0  2  0  0  0  0  0  0
  -28.9730  -25.5710   19.9840 C   0  0  0  0  0  2  0  0  0  0  0  0
  -29.6950  -26.7660   19.3300 C   0  0  0  0  0  2  0  0  0  0  0  0
  -28.9360  -27.2760   18.2320 O   0  0  0  0  0  0  0  0  0  0  0  0
  -24.7320  -30.8330   22.7570 C   0  0  0  0  0  0  0  0  0  0  0  0
  -27.6830  -27.7380   18.5480 C   0  0  0  0  0  0  0  0  0  0  0  0
  -23.5800  -29.5490   20.9810 C   0  0  0  0  0  3  0  0  0  0  0  0
  -25.0770  -28.6530   19.1180 C   0  0  0  0  0  0  0  0  0  0  0  0
  -25.9350  -30.4700   20.6070 C   0  0  0  0  0  2  0  0  0  0  0  0
  -26.1850  -29.2920   19.6910 C   0  0  0  0  0  0  0  0  0  0  0  0
  -27.4910  -28.8360   19.4130 C   0  0  0  0  0  3  0  0  0  0  0  0
  -26.5640  -27.1120   17.9650 C   0  0  0  0  0  3  0  0  0  0  0  0
  -25.2590  -27.5580   18.2530 C   0  0  0  0  0  3  0  0  0  0  0  0
  -23.7120  -29.2030   19.4730 C   0  0  0  0  0  2  0  0  0  0  0  0
  -24.7730  -30.2910   21.5060 N   0  0  0  0  0  0  0  0  0  0  0  0
  -23.7110  -30.7630   23.4520 O   0  0  0  0  0  0  0  0  0  0  0  0
  -23.2750  -28.2490   21.7580 C   0  0  0  0  0  0  0  0  0  0  0  0
  -22.0240  -27.7700   21.6540 N   0  0  0  0  0  0  0  0  0  0  0  0
  -24.1570  -27.6810   22.4080 O   0  0  0  0  0  0  0  0  0  0  0  0
  -21.3590  -28.3030   21.1080 H   0  0  0  0  0  0  0  0  0  0  0  0
  -19.0980  -25.6770   21.9870 C   0  0  0  0  0  0  0  0  0  0  0  0
  -21.5180  -26.5420   22.2640 C   0  0  0  0  0  3  0  0  0  0  0  0
  -21.9470  -25.2990   21.4500 C   0  0  0  0  0  2  0  0  0  0  0  0
  -20.9060  -24.8680   20.4120 C   0  0  0  0  0  2  0  0  0  0  0  0
  -19.5710  -24.5470   21.0910 C   0  0  0  0  0  2  0  0  0  0  0  0
  -20.0110  -26.6240   22.5260 C   0  0  0  0  0  0  0  0  0  0  0  0
  -19.5150  -27.6780   23.3230 C   0  0  0  0  0  3  0  0  0  0  0  0
  -18.1380  -27.7950   23.5870 C   0  0  0  0  0  3  0  0  0  0  0  0
  -17.2410  -26.8470   23.0660 C   0  0  0  0  0  3  0  0  0  0  0  0
  -17.7200  -25.7890   22.2730 C   0  0  0  0  0  3  0  0  0  0  0  0
  -25.9580  -31.5870   23.3610 C   0  0  0  0  0  3  0  0  0  0  0  0
  -25.4760  -32.8820   23.8580 N   0  0  0  0  0  0  0  0  0  0  0  0
  -25.5990  -34.0430   23.1970 C   0  0  0  0  0  0  0  0  0  0  0  0
  -26.2020  -34.1420   22.1260 O   0  0  0  0  0  0  0  0  0  0  0  0
  -24.9250  -32.8660   24.7040 H   0  0  0  0  0  0  0  0  0  0  0  0
  -23.6070  -35.5740   23.1390 C   0  0  0  0  0  1  0  0  0  0  0  0
  -24.9520  -35.2900   23.8260 C   0  0  0  0  0  3  0  0  0  0  0  0
  -26.9870  -36.4130   24.6230 C   0  0  0  0  0  1  0  0  0  0  0  0
  -25.8110  -36.4940   23.7590 N   0  0  0  0  0  0  0  0  0  0  0  0
  -25.2870  -37.3260   24.0200 H   0  0  0  0  0  0  0  0  0  0  0  0
  -26.6790  -30.7800   24.5090 C   0  0  1  0  0  0  0  0  0  0  0  0
  -25.7160  -30.2660   25.6070 C   0  0  0  0  0  1  0  0  0  0  0  0
  -27.4240  -29.5590   23.9220 C   0  0  0  0  0  1  0  0  0  0  0  0
  -27.7480  -31.6710   25.1840 C   0  0  0  0  0  1  0  0  0  0  0  0
  -30.2120  -21.8490   21.4320 C   0  0  0  0  0  2  0  0  0  0  0  0
  -31.1120  -20.6920   21.9240 C   0  0  0  0  0  2  0  0  0  0  0  0
  -30.4250  -18.3460   19.8080 C   0  0  0  0  0  2  0  0  0  0  0  0
  -31.8620  -17.5910   21.7260 C   0  0  0  0  0  2  0  0  0  0  0  0
  -31.3240  -19.5810   19.5980 C   0  0  0  0  0  2  0  0  0  0  0  0
  -32.7730  -18.8210   21.5250 C   0  0  0  0  0  2  0  0  0  0  0  0
  -31.2190  -17.1610   20.3940 C   0  0  0  0  0  3  0  0  0  0  0  0
  -32.0650  -20.0440   20.8800 C   0  0  2  0  0  0  0  0  0  0  0  0
  -33.1570  -21.0630   20.4840 C   0  0  0  0  0  1  0  0  0  0  0  0
  -30.3560  -15.8670   20.5180 C   0  0  0  0  0  2  0  0  0  0  0  0
  -30.6770  -14.7560   19.4900 C   0  0  0  0  0  0  0  0  0  0  0  0
  -30.4230  -12.4380   18.6640 C   0  0  0  0  0  2  0  0  0  0  0  0
  -29.3890  -12.3340   17.5300 C   0  0  0  0  0  2  0  0  0  0  0  0
  -27.9720  -12.1510   18.1050 C   0  0  0  0  0  2  0  0  0  0  0  0
  -27.6450  -13.1850   19.2160 C   0  0  0  0  0  3  0  0  0  0  0  0
  -28.7870  -13.2650   20.2570 C   0  0  0  0  0  2  0  0  0  0  0  0
  -30.0400  -13.5550   19.5420 N   0  0  0  0  0  0  0  0  0  0  0  0
  -31.5780  -14.9650   18.6710 O   0  0  0  0  0  0  0  0  0  0  0  0
  -25.3310  -13.7620   20.1920 C   0  0  0  0  0  0  0  0  0  0  0  0
  -24.3190  -12.9750   20.6740 C   0  0  0  0  0  0  0  0  0  0  0  0
  -24.7860  -11.6290   20.5780 C   0  0  0  0  0  0  0  0  0  0  0  0
  -26.3540  -12.8940   19.8410 N   0  0  0  0  0  0  0  0  0  0  0  0
  -26.0330  -11.6050   20.1250 N   0  0  0  0  0  0  0  0  0  0  0  0
  -24.0990  -10.3570   20.8410 C   0  0  0  0  0  0  0  0  0  0  0  0
  -24.4940   -9.5100   21.9010 C   0  0  0  0  0  3  0  0  0  0  0  0
  -23.8070   -8.3020   22.1460 C   0  0  0  0  0  3  0  0  0  0  0  0
  -22.7100   -7.9300   21.3310 C   0  0  0  0  0  0  0  0  0  0  0  0
  -22.3350   -8.7670   20.2640 C   0  0  0  0  0  3  0  0  0  0  0  0
  -23.0240   -9.9660   20.0180 C   0  0  0  0  0  3  0  0  0  0  0  0
  -21.9990   -6.7640   21.4780 O   0  0  0  0  0  0  0  0  0  0  0  0
  -21.7190   -6.2440   22.7160 C   0  0  0  0  0  0  0  0  0  0  0  0
  -20.9480   -6.9520   23.6640 C   0  0  0  0  0  3  0  0  0  0  0  0
  -20.6240   -6.3510   24.8970 C   0  0  0  0  0  3  0  0  0  0  0  0
  -21.0610   -5.0430   25.1810 C   0  0  0  0  0  0  0  0  0  0  0  0
  -21.8240   -4.3350   24.2370 C   0  0  0  0  0  3  0  0  0  0  0  0
  -22.1490   -4.9340   23.0060 C   0  0  0  0  0  0  0  0  0  0  0  0
  -22.8670   -4.2390   22.0900 F   0  0  0  0  0  0  0  0  0  0  0  0
  -20.7430   -4.4630   26.3630 F   0  0  0  0  0  0  0  0  0  0  0  0
  -22.9570  -13.4340   21.1110 C   0  0  0  0  0  0  0  0  0  0  0  0
  -22.3450  -12.7250   22.0540 N   0  0  0  0  0  0  0  0  0  0  0  0
  -22.4490  -14.4570   20.6540 O   0  0  0  0  0  0  0  0  0  0  0  0
  -22.7700  -11.8970   22.4440 H   0  0  0  0  0  0  0  0  0  0  0  0
  -21.4360  -13.0120   22.3870 H   0  0  0  0  0  0  0  0  0  0  0  0
  -25.4610  -15.1350   20.0050 N   0  0  0  0  0  0  0  0  0  0  0  0
  -24.7120  -15.7880   20.2090 H   0  0  0  0  0  0  0  0  0  0  0  0
  -26.2760  -15.5800   19.6030 H   0  0  0  0  0  0  0  0  0  0  0  0
  2  1  1  0
  4  2  1  0
  4  3  1  0
  4  5  1  6
  6  4  1  0
  7  6  1  0
  8  7  1  0
  9 11  1  0
  9  8  1  0
 10 21  2  0
 11 16  1  0
 12 20  1  0
 12 22  1  0
 13 19  1  0
 13 15  1  0
 14 20  1  0
 15 14  1  0
 16 15  2  0
 17 18  1  0
 17 11  2  0
 18 13  2  0
 19 12  1  0
 20 10  1  0
 22 24  2  0
 23 22  1  0
 25 23  1  0
 26 35  2  0
 26 31  1  0
 27 23  1  0
 27 31  1  0
 28 27  1  0
 29 30  1  0
 29 28  1  0
 30 26  1  0
 31 32  2  0
 32 33  1  0
 34 33  2  0
 35 34  1  0
 36 10  1  0
 36 37  1  0
 36 46  1  0
 37 40  1  0
 38 42  1  0
 38 37  1  0
 39 38  2  0
 42 41  1  0
 44 42  1  0
 44 45  1  0
 44 43  1  0
 46 49  1  1
 46 47  1  0
 48 46  1  0
 50 51  1  0
 50  2  1  0
 52 56  1  0
 54 52  1  0
 54 57  1  0
 55 53  1  0
 56 59  1  0
 56 53  1  0
 57 58  1  6
 57 55  1  0
 57 51  1  0
 60 66  1  0
 60 59  1  0
 61 66  1  0
 62 63  1  0
 62 61  1  0
 64 63  1  0
 64 71  1  0
 64 65  1  0
 66 65  1  0
 67 60  2  0
 68 69  2  0
 69 88  1  0
 70 69  1  0
 70 73  1  0
 71 72  1  0
 71 68  1  0
 72 70  2  0
 73 74  1  0
 74 75  2  0
 76 79  1  0
 76 75  1  0
 77 76  2  0
 78 77  1  0
 78 73  2  0
 79 80  1  0
 80 85  2  0
 80 81  1  0
 81 82  2  0
 82 83  1  0
 83 87  1  0
 84 83  2  0
 85 84  1  0
 86 85  1  0
 88 89  1  0
 89 92  1  0
 89 91  1  0
 90 88  2  0
 93 68  1  0
 93 94  1  0
 95 93  1  0
M  ISO  4   8 101   9 101  59 100  60 100
M  END
>  <TORSDO>  (6) 
F 24

>  <SCORE>  (6) 
-6.886

>  <name>  (6) 
5

>  <ligand_id>  (6) 
5

>  <original_smiles>  (6) 
[H]c1c([H])c([H])c2c(c1[H])C([H])([H])C([H])([H])C([H])([H])C2([H])N([H])C(=O)C1([H])N(C(=O)C([H])(N([H])C(=O)C([H])(N([H])C([H])([H])[H])C([H])([H])[H])C(C([H])([H])[H])(C([H])([H])[H])C([H])([H])[H])C([H])([H])c2c([H])c(OC([H])([H])C([H])([H])C([H])([H])[N+]([H])(C([H])([H])[H])C([H])(C([H])([H])[H])C([H])([H])C([H])([H])C3(C([H])([H])[H])C([H])([H])C([H])([H])C([H])(C([H])([H])C(=O)N4C([H])([H])C([H])([H])C([H])([H])C([H])(n5nc(-c6c([H])c([H])c(Oc7c([H])c([H])c(F)c([H])c7F)c([H])c6[H])c(C(=O)N([H])[H])c5N([H])[H])C4([H])[H])C([H])([H])C3([H])[H])c([H])c([H])c2C1([H])[H]

>  <smiles>  (6) 
[H]c1c([H])c([H])c2c(c1[H])C([H])([H])C([H])([H])C([H])([H])C2([H])N([H])C(=O)C1([H])N(C(=O)C([H])(N([H])C(=O)C([H])(N([H])C([H])([H])[H])C([H])([H])[H])C(C([H])([H])[H])(C([H])([H])[H])C([H])([H])[H])C([H])([H])c2c([H])c(OC([H])([H])C([H])([H])C([H])([H])[N+]([H])(C([H])([H])[H])C([H])(C([H])([H])[H])C([H])([H])C([H])([H])C3(C([H])([H])[H])C([H])([H])C([H])([H])C([H])(C([H])([H])C(=O)N4C([H])([H])C([H])([H])C([H])([H])C([H])(n5nc(-c6c([H])c([H])c(Oc7c([H])c([H])c(F)c([H])c7F)c([H])c6[H])c(C(=O)N([H])[H])c5N([H])[H])C4([H])[H])C([H])([H])C3([H])[H])c([H])c([H])c2C1([H])[H]

$$$$
6:0:0
     RDKit          3D

 94103  0  0  1  0  0  0  0  0999 V2000
  -31.9060  -18.9710   20.0680 C   0  0  0  0  0  2  0  0  0  0  0  0
  -31.9790  -17.8300   21.1180 C   0  0  0  0  0  2  0  0  0  0  0  0
  -29.5350  -17.9230   21.6540 C   0  0  0  0  0  2  0  0  0  0  0  0
  -29.3440  -19.1160   20.7030 C   0  0  0  0  0  3  0  0  0  0  0  0
  -30.5480  -19.6970   19.9680 C   0  0  0  0  0  3  0  0  0  0  0  0
  -29.0940  -20.5350   21.2320 C   0  0  0  0  0  3  0  0  0  0  0  0
  -30.6990  -16.9610   21.2720 C   0  0  2  0  0  0  0  0  0  0  0  0
  -30.8680  -15.9820   22.4590 C   0  0  0  0  0  1  0  0  0  0  0  0
  -30.4170  -20.9500   20.7520 N   0  0  2  0  0  4  0  0  0  0  0  0
  -31.0550  -20.9610   21.5320 H   0  0  0  0  0  0  0  0  0  0  0  0
  -29.1810  -20.7910   22.6240 O   0  0  0  0  0  0  0  0  0  0  0  0
  -28.2890  -20.7450   22.9630 H   0  0  0  0  0  0  0  0  0  0  0  0
  -30.3460  -16.1490   19.9780 C   0  0  0  0  0  2  0  0  0  0  0  0
  -31.1840  -14.8850   19.5780 C   0  0  0  0  0  0  0  0  0  0  0  0
  -30.8950  -12.6380   18.5830 C   0  0  0  0  0  2  0  0  0  0  0  0
  -29.8380  -12.7620   17.4610 C   0  0  0  0  0  2  0  0  0  0  0  0
  -28.4070  -12.6240   18.0260 C   0  0  0  0  0  2  0  0  0  0  0  0
  -28.1770  -13.5260   19.2650 C   0  0  0  0  0  3  0  0  0  0  0  0
  -29.3280  -13.3560   20.2830 C   0  0  0  0  0  2  0  0  0  0  0  0
  -30.5890  -13.6590   19.5960 N   0  0  0  0  0  0  0  0  0  0  0  0
  -32.2900  -15.0550   19.0520 O   0  0  0  0  0  0  0  0  0  0  0  0
  -25.9230  -14.2030   20.3020 C   0  0  0  0  0  0  0  0  0  0  0  0
  -24.8640  -13.4600   20.7420 C   0  0  0  0  0  0  0  0  0  0  0  0
  -25.2370  -12.0930   20.5530 C   0  0  0  0  0  0  0  0  0  0  0  0
  -26.8780  -13.2900   19.8790 N   0  0  0  0  0  0  0  0  0  0  0  0
  -26.4740  -12.0120   20.0860 N   0  0  0  0  0  0  0  0  0  0  0  0
  -24.4660  -10.8580   20.7330 C   0  0  0  0  0  0  0  0  0  0  0  0
  -24.8950   -9.8450   21.6180 C   0  0  0  0  0  3  0  0  0  0  0  0
  -24.1270   -8.6740   21.7910 C   0  0  0  0  0  3  0  0  0  0  0  0
  -22.9150   -8.5090   21.0790 C   0  0  0  0  0  0  0  0  0  0  0  0
  -22.5040   -9.5120   20.1820 C   0  0  0  0  0  3  0  0  0  0  0  0
  -23.2720  -10.6750   20.0060 C   0  0  0  0  0  3  0  0  0  0  0  0
  -22.1190   -7.3920   21.1610 O   0  0  0  0  0  0  0  0  0  0  0  0
  -22.0000   -6.6790   22.3270 C   0  0  0  0  0  0  0  0  0  0  0  0
  -21.5380   -7.2740   23.5210 C   0  0  0  0  0  3  0  0  0  0  0  0
  -21.3580   -6.4870   24.6770 C   0  0  0  0  0  3  0  0  0  0  0  0
  -21.6360   -5.1080   24.6400 C   0  0  0  0  0  0  0  0  0  0  0  0
  -22.0930   -4.5120   23.4510 C   0  0  0  0  0  3  0  0  0  0  0  0
  -22.2700   -5.2950   22.2950 C   0  0  0  0  0  0  0  0  0  0  0  0
  -22.6860   -4.7120   21.1460 F   0  0  0  0  0  0  0  0  0  0  0  0
  -21.4600   -4.3500   25.7460 F   0  0  0  0  0  0  0  0  0  0  0  0
  -23.5380  -13.9770   21.2190 C   0  0  0  0  0  0  0  0  0  0  0  0
  -22.8930  -13.2530   22.1250 N   0  0  0  0  0  0  0  0  0  0  0  0
  -23.0920  -15.0530   20.8210 O   0  0  0  0  0  0  0  0  0  0  0  0
  -23.2760  -12.3780   22.4560 H   0  0  0  0  0  0  0  0  0  0  0  0
  -22.0030  -13.5710   22.4840 H   0  0  0  0  0  0  0  0  0  0  0  0
  -26.1480  -15.5750   20.2040 N   0  0  0  0  0  0  0  0  0  0  0  0
  -25.4310  -16.2570   20.4270 H   0  0  0  0  0  0  0  0  0  0  0  0
  -26.9630  -15.9930   19.7760 H   0  0  0  0  0  0  0  0  0  0  0  0
  -30.4670  -22.2220   19.9570 C   0  0  0  0  0  2  0  0  0  0  0  0
  -29.9200  -23.4810   20.6870 C   0  0  0  0  0  2  0  0  0  0  0  0
  -29.8060  -24.7460   19.7910 C   0  0  0  0  0  2  0  0  0  0  0  0
  -28.8090  -25.7860   20.3410 C   0  0  0  0  0  2  0  0  0  0  0  0
  -28.7480  -26.9620   19.5220 O   0  0  0  0  0  0  0  0  0  0  0  0
  -24.6410  -31.6090   23.0160 C   0  0  0  0  0  0  0  0  0  0  0  0
  -27.5410  -27.6230   19.5830 C   0  0  0  0  0  0  0  0  0  0  0  0
  -23.5090  -30.2480   21.2900 C   0  0  0  0  0  3  0  0  0  0  0  0
  -25.0430  -28.9330   19.7330 C   0  0  0  0  0  0  0  0  0  0  0  0
  -25.9950  -30.8120   21.0830 C   0  0  0  0  0  2  0  0  0  0  0  0
  -26.1700  -29.5020   20.3440 C   0  0  0  0  0  0  0  0  0  0  0  0
  -27.4250  -28.8560   20.2610 C   0  0  0  0  0  3  0  0  0  0  0  0
  -26.4020  -27.0670   18.9620 C   0  0  0  0  0  3  0  0  0  0  0  0
  -25.1540  -27.7140   19.0420 C   0  0  0  0  0  3  0  0  0  0  0  0
  -23.7390  -29.6880   19.8610 C   0  0  0  0  0  2  0  0  0  0  0  0
  -24.7330  -30.9010   21.8550 N   0  0  0  0  0  0  0  0  0  0  0  0
  -23.5550  -31.7550   23.5950 O   0  0  0  0  0  0  0  0  0  0  0  0
  -22.9550  -29.1130   22.1810 C   0  0  0  0  0  0  0  0  0  0  0  0
  -21.6420  -28.8530   22.0720 N   0  0  0  0  0  0  0  0  0  0  0  0
  -23.7030  -28.4720   22.9240 O   0  0  0  0  0  0  0  0  0  0  0  0
  -21.0960  -29.4250   21.4450 H   0  0  0  0  0  0  0  0  0  0  0  0
  -18.3690  -27.4100   22.5640 C   0  0  0  0  0  0  0  0  0  0  0  0
  -20.9120  -27.8070   22.7870 C   0  0  0  0  0  3  0  0  0  0  0  0
  -21.0840  -26.4350   22.0960 C   0  0  0  0  0  2  0  0  0  0  0  0
  -19.9760  -26.1250   21.0860 C   0  0  0  0  0  2  0  0  0  0  0  0
  -18.6080  -26.1340   21.7740 C   0  0  0  0  0  2  0  0  0  0  0  0
  -19.4510  -28.2050   23.0250 C   0  0  0  0  0  0  0  0  0  0  0  0
  -19.1760  -29.4010   23.7220 C   0  0  0  0  0  3  0  0  0  0  0  0
  -17.8500  -29.8010   23.9700 C   0  0  0  0  0  3  0  0  0  0  0  0
  -16.7820  -29.0030   23.5250 C   0  0  0  0  0  3  0  0  0  0  0  0
  -17.0420  -27.8120   22.8240 C   0  0  0  0  0  3  0  0  0  0  0  0
  -25.8900  -32.2880   23.6610 C   0  0  0  0  0  3  0  0  0  0  0  0
  -25.5000  -33.6490   24.0510 N   0  0  0  0  0  0  0  0  0  0  0  0
  -25.7780  -34.7520   23.3430 C   0  0  0  0  0  0  0  0  0  0  0  0
  -26.4590  -34.7370   22.3140 O   0  0  0  0  0  0  0  0  0  0  0  0
  -24.8880  -33.7320   24.8490 H   0  0  0  0  0  0  0  0  0  0  0  0
  -23.9480  -36.4590   23.0610 C   0  0  0  0  0  1  0  0  0  0  0  0
  -25.2080  -36.0880   23.8600 C   0  0  0  0  0  3  0  0  0  0  0  0
  -27.2840  -37.0590   24.7420 C   0  0  0  0  0  1  0  0  0  0  0  0
  -26.1760  -37.2050   23.8030 N   0  0  0  0  0  0  0  0  0  0  0  0
  -25.7120  -38.0880   23.9980 H   0  0  0  0  0  0  0  0  0  0  0  0
  -26.4650  -31.4930   24.8970 C   0  0  1  0  0  0  0  0  0  0  0  0
  -25.4000  -31.1380   25.9600 C   0  0  0  0  0  1  0  0  0  0  0  0
  -27.1270  -30.1730   24.4370 C   0  0  0  0  0  1  0  0  0  0  0  0
  -27.5710  -32.3260   25.5870 C   0  0  0  0  0  1  0  0  0  0  0  0
  1  2  1  0
  2  7  1  0
  4  6  1  0
  4  3  1  0
  5  1  1  0
  5  4  1  0
  5  9  1  0
  6 11  1  0
  7  3  1  0
  7  8  1  1
  9  6  1  0
  9 10  1  1
 11 12  1  0
 13  7  1  0
 14 20  1  0
 14 13  1  0
 15 20  1  0
 16 17  1  0
 16 15  1  0
 18 17  1  0
 18 25  1  0
 18 19  1  0
 20 19  1  0
 21 14  2  0
 22 23  2  0
 23 42  1  0
 24 27  1  0
 24 23  1  0
 25 26  1  0
 25 22  1  0
 26 24  2  0
 27 28  1  0
 28 29  2  0
 30 33  1  0
 30 29  1  0
 31 30  2  0
 32 31  1  0
 32 27  2  0
 33 34  1  0
 34 35  1  0
 35 36  2  0
 37 36  1  0
 37 41  1  0
 38 37  2  0
 39 34  2  0
 39 38  1  0
 40 39  1  0
 42 43  1  0
 43 45  1  0
 43 46  1  0
 44 42  2  0
 47 22  1  0
 47 48  1  0
 49 47  1  0
 50 51  1  0
 50  9  1  0
 52 53  1  0
 52 51  1  0
 54 56  1  0
 54 53  1  0
 55 66  2  0
 56 61  1  0
 57 65  1  0
 57 67  1  0
 58 64  1  0
 58 60  1  0
 59 65  1  0
 60 59  1  0
 61 60  2  0
 62 63  1  0
 62 56  2  0
 63 58  2  0
 64 57  1  0
 65 55  1  0
 67 69  2  0
 68 67  1  0
 70 68  1  0
 71 80  2  0
 71 76  1  0
 72 68  1  0
 72 76  1  0
 73 72  1  0
 74 75  1  0
 74 73  1  0
 75 71  1  0
 76 77  2  0
 77 78  1  0
 79 78  2  0
 80 79  1  0
 81 55  1  0
 81 82  1  0
 81 91  1  0
 82 85  1  0
 83 87  1  0
 83 82  1  0
 84 83  2  0
 87 86  1  0
 89 87  1  0
 89 90  1  0
 89 88  1  0
 91 94  1  1
 91 92  1  0
 93 91  1  0
M  ISO  4  13 100  14 100  53 101  54 101
M  END
>  <TORSDO>  (7) 
F 22

>  <SCORE>  (7) 
-10.455

>  <name>  (7) 
6

>  <ligand_id>  (7) 
6

>  <original_smiles>  (7) 
[H]OC1([H])C2([H])C([H])([H])C(C([H])([H])[H])(C([H])([H])C(=O)N3C([H])([H])C([H])([H])C([H])([H])C([H])(n4nc(-c5c([H])c([H])c(Oc6c([H])c([H])c(F)c([H])c6F)c([H])c5[H])c(C(=O)N([H])[H])c4N([H])[H])C3([H])[H])C([H])([H])C([H])([H])C2([H])[N+]1([H])C([H])([H])C([H])([H])C([H])([H])C([H])([H])Oc1c([H])c([H])c2c(c1[H])C([H])([H])N(C(=O)C([H])(N([H])C(=O)C([H])(N([H])C([H])([H])[H])C([H])([H])[H])C(C([H])([H])[H])(C([H])([H])[H])C([H])([H])[H])C([H])(C(=O)N([H])C1([H])c3c([H])c([H])c([H])c([H])c3C([H])([H])C([H])([H])C1([H])[H])C2([H])[H]

>  <smiles>  (7) 
[H]OC1([H])C2([H])C([H])([H])C(C([H])([H])[H])(C([H])([H])C(=O)N3C([H])([H])C([H])([H])C([H])([H])C([H])(n4nc(-c5c([H])c([H])c(Oc6c([H])c([H])c(F)c([H])c6F)c([H])c5[H])c(C(=O)N([H])[H])c4N([H])[H])C3([H])[H])C([H])([H])C([H])([H])C2([H])[N+]1([H])C([H])([H])C([H])([H])C([H])([H])C([H])([H])Oc1c([H])c([H])c2c(c1[H])C([H])([H])N(C(=O)C([H])(N([H])C(=O)C([H])(N([H])C([H])([H])[H])C([H])([H])[H])C(C([H])([H])[H])(C([H])([H])[H])C([H])([H])[H])C([H])(C(=O)N([H])C1([H])c3c([H])c([H])c([H])c([H])c3C([H])([H])C([H])([H])C1([H])[H])C2([H])[H]

$$$$
7:0:0
     RDKit          3D

 98106  0  0  1  0  0  0  0  0999 V2000
  -32.6810  -20.9580   19.2940 C   0  0  0  0  0  2  0  0  0  0  0  0
  -32.5640  -20.7270   20.7980 C   0  0  0  0  0  2  0  0  0  0  0  0
  -31.6150  -22.0110   18.9960 C   0  0  0  0  0  3  0  0  0  0  0  0
  -31.0770  -20.9550   21.1570 C   0  0  0  0  0  3  0  0  0  0  0  0
  -30.4140  -21.5640   19.8660 C   0  0  0  0  0  3  0  0  0  0  0  0
  -31.3490  -22.1490   17.4880 C   0  0  0  0  0  1  0  0  0  0  0  0
  -30.3990  -19.7050   21.8590 C   0  0  0  0  0  3  0  0  0  0  0  0
  -30.2310  -18.4760   21.0020 N   0  0  0  0  0  4  0  0  0  0  0  0
  -29.2960  -18.1350   21.1650 H   0  0  0  0  0  0  0  0  0  0  0  0
  -30.2540  -18.7610   20.0360 H   0  0  0  0  0  0  0  0  0  0  0  0
  -31.1520  -17.2930   21.1440 C   0  0  0  0  0  2  0  0  0  0  0  0
  -30.4590  -15.9010   21.4250 C   0  0  0  0  0  2  0  0  0  0  0  0
  -31.1070  -14.6630   20.7290 C   0  0  0  0  0  0  0  0  0  0  0  0
  -30.7560  -12.5960   19.4070 C   0  0  0  0  0  2  0  0  0  0  0  0
  -29.8590  -12.9290   18.1960 C   0  0  0  0  0  2  0  0  0  0  0  0
  -28.3710  -12.8030   18.5720 C   0  0  0  0  0  2  0  0  0  0  0  0
  -28.0230  -13.5480   19.8880 C   0  0  0  0  0  3  0  0  0  0  0  0
  -29.0460  -13.2360   21.0060 C   0  0  0  0  0  2  0  0  0  0  0  0
  -30.3930  -13.5230   20.4930 N   0  0  0  0  0  0  0  0  0  0  0  0
  -32.2560  -14.7870   20.2980 O   0  0  0  0  0  0  0  0  0  0  0  0
  -25.6000  -14.1660   20.4920 C   0  0  0  0  0  0  0  0  0  0  0  0
  -24.5140  -13.4000   20.8180 C   0  0  0  0  0  0  0  0  0  0  0  0
  -24.9690  -12.0470   20.8160 C   0  0  0  0  0  0  0  0  0  0  0  0
  -26.6500  -13.2810   20.3140 N   0  0  0  0  0  0  0  0  0  0  0  0
  -26.2720  -12.0000   20.5690 N   0  0  0  0  0  0  0  0  0  0  0  0
  -24.2270  -10.7900   20.9820 C   0  0  0  0  0  0  0  0  0  0  0  0
  -24.6120   -9.8240   21.9390 C   0  0  0  0  0  3  0  0  0  0  0  0
  -23.8720   -8.6330   22.0920 C   0  0  0  0  0  3  0  0  0  0  0  0
  -22.7310   -8.3980   21.2880 C   0  0  0  0  0  0  0  0  0  0  0  0
  -22.3680   -9.3510   20.3200 C   0  0  0  0  0  3  0  0  0  0  0  0
  -23.1090  -10.5340   20.1650 C   0  0  0  0  0  3  0  0  0  0  0  0
  -21.9650   -7.2580   21.3490 O   0  0  0  0  0  0  0  0  0  0  0  0
  -21.8460   -6.5340   22.5070 C   0  0  0  0  0  0  0  0  0  0  0  0
  -21.3710   -7.1140   23.7040 C   0  0  0  0  0  3  0  0  0  0  0  0
  -21.1960   -6.3160   24.8520 C   0  0  0  0  0  3  0  0  0  0  0  0
  -21.4870   -4.9400   24.8050 C   0  0  0  0  0  0  0  0  0  0  0  0
  -21.9590   -4.3600   23.6150 C   0  0  0  0  0  3  0  0  0  0  0  0
  -22.1350   -5.1540   22.4680 C   0  0  0  0  0  0  0  0  0  0  0  0
  -22.5660   -4.5840   21.3160 F   0  0  0  0  0  0  0  0  0  0  0  0
  -21.3120   -4.1720   25.9070 F   0  0  0  0  0  0  0  0  0  0  0  0
  -23.1080  -13.8850   21.0220 C   0  0  0  0  0  0  0  0  0  0  0  0
  -22.3420  -13.2060   21.8690 N   0  0  0  0  0  0  0  0  0  0  0  0
  -22.6960  -14.9040   20.4680 O   0  0  0  0  0  0  0  0  0  0  0  0
  -22.6900  -12.3810   22.3370 H   0  0  0  0  0  0  0  0  0  0  0  0
  -21.3960  -13.5120   22.0500 H   0  0  0  0  0  0  0  0  0  0  0  0
  -25.7790  -15.5350   20.3120 N   0  0  0  0  0  0  0  0  0  0  0  0
  -25.0080  -16.1910   20.3650 H   0  0  0  0  0  0  0  0  0  0  0  0
  -26.6400  -15.9620   19.9950 H   0  0  0  0  0  0  0  0  0  0  0  0
  -30.9860  -20.5150   24.2710 C   0  0  0  0  0  1  0  0  0  0  0  0
  -31.0300  -19.3740   23.2390 C   0  0  0  0  0  2  0  0  0  0  0  0
  -29.2460  -22.6370   20.0290 C   0  0  0  0  0  3  0  0  0  0  0  0
  -27.3110  -21.3260   19.0850 C   0  0  0  0  0  1  0  0  0  0  0  0
  -28.2610  -22.4530   18.9270 N   0  0  0  0  0  4  0  0  0  0  0  0
  -27.6980  -23.2860   18.8550 H   0  0  0  0  0  0  0  0  0  0  0  0
  -28.7410  -22.3520   18.0460 H   0  0  0  0  0  0  0  0  0  0  0  0
  -29.6260  -24.1740   20.1480 C   0  0  0  0  0  2  0  0  0  0  0  0
  -28.3880  -25.1440   20.1290 C   0  0  0  0  0  2  0  0  0  0  0  0
  -28.5430  -26.5710   20.3920 O   0  0  0  0  0  0  0  0  0  0  0  0
  -24.6780  -31.9170   23.2760 C   0  0  0  0  0  0  0  0  0  0  0  0
  -27.3790  -27.3500   20.3460 C   0  0  0  0  0  0  0  0  0  0  0  0
  -23.5030  -30.4670   21.6610 C   0  0  0  0  0  3  0  0  0  0  0  0
  -24.9810  -28.8990   20.2960 C   0  0  0  0  0  0  0  0  0  0  0  0
  -26.0390  -30.8110   21.4940 C   0  0  0  0  0  2  0  0  0  0  0  0
  -26.1380  -29.4210   20.8860 C   0  0  0  0  0  0  0  0  0  0  0  0
  -27.3370  -28.6580   20.9040 C   0  0  0  0  0  3  0  0  0  0  0  0
  -26.1850  -26.8630   19.7520 C   0  0  0  0  0  3  0  0  0  0  0  0
  -25.0030  -27.6200   19.7250 C   0  0  0  0  0  3  0  0  0  0  0  0
  -23.7360  -29.7580   20.3040 C   0  0  0  0  0  2  0  0  0  0  0  0
  -24.7590  -31.0830   22.2000 N   0  0  0  0  0  0  0  0  0  0  0  0
  -23.5860  -32.2030   23.7890 O   0  0  0  0  0  0  0  0  0  0  0  0
  -22.8400  -29.4680   22.6390 C   0  0  0  0  0  0  0  0  0  0  0  0
  -21.5210  -29.2640   22.4870 N   0  0  0  0  0  0  0  0  0  0  0  0
  -23.5100  -28.8810   23.4930 O   0  0  0  0  0  0  0  0  0  0  0  0
  -21.0410  -29.7950   21.7740 H   0  0  0  0  0  0  0  0  0  0  0  0
  -18.1550  -28.0150   22.9280 C   0  0  0  0  0  0  0  0  0  0  0  0
  -20.6960  -28.3400   23.2680 C   0  0  0  0  0  3  0  0  0  0  0  0
  -20.8450  -26.8890   22.7560 C   0  0  0  0  0  2  0  0  0  0  0  0
  -19.7830  -26.4990   21.7220 C   0  0  0  0  0  2  0  0  0  0  0  0
  -18.3790  -26.6420   22.3160 C   0  0  0  0  0  2  0  0  0  0  0  0
  -19.2430  -28.8180   23.3600 C   0  0  0  0  0  0  0  0  0  0  0  0
  -18.9800  -30.0990   23.8890 C   0  0  0  0  0  3  0  0  0  0  0  0
  -17.6600  -30.5790   23.9930 C   0  0  0  0  0  3  0  0  0  0  0  0
  -16.5860  -29.7740   23.5750 C   0  0  0  0  0  3  0  0  0  0  0  0
  -16.8340  -28.4950   23.0490 C   0  0  0  0  0  3  0  0  0  0  0  0
  -25.9500  -32.5730   23.8970 C   0  0  0  0  0  3  0  0  0  0  0  0
  -26.4770  -31.8140   25.1750 C   0  0  1  0  0  0  0  0  0  0  0  0
  -25.3870  -31.5540   26.2410 C   0  0  0  0  0  1  0  0  0  0  0  0
  -27.0890  -30.4470   24.7850 C   0  0  0  0  0  1  0  0  0  0  0  0
  -27.6080  -32.6330   25.8400 C   0  0  0  0  0  1  0  0  0  0  0  0
  -25.6140  -33.9660   24.2230 N   0  0  0  0  0  0  0  0  0  0  0  0
  -25.9240  -35.0230   23.4610 C   0  0  0  0  0  0  0  0  0  0  0  0
  -26.5970  -34.9290   22.4290 O   0  0  0  0  0  0  0  0  0  0  0  0
  -25.0140  -34.1100   25.0220 H   0  0  0  0  0  0  0  0  0  0  0  0
  -24.1580  -36.7800   23.1030 C   0  0  0  0  0  1  0  0  0  0  0  0
  -25.4090  -36.4040   23.9130 C   0  0  0  0  0  3  0  0  0  0  0  0
  -27.5300  -37.3340   24.7330 C   0  0  0  0  0  1  0  0  0  0  0  0
  -26.4200  -37.4770   23.7920 N   0  0  0  0  0  0  0  0  0  0  0  0
  -25.9980  -38.3900   23.9360 H   0  0  0  0  0  0  0  0  0  0  0  0
  1  2  1  0
  2  4  1  0
  3  6  1  0
  3  1  1  0
  3  5  1  0
  4  7  1  0
  5 51  1  0
  5  4  1  0
  7 50  1  0
  8 11  1  0
  8  9  1  0
  8  7  1  0
 10  8  1  0
 11 12  1  0
 13 12  1  0
 14 19  1  0
 15 16  1  0
 15 14  1  0
 17 16  1  0
 17 24  1  0
 17 18  1  0
 19 13  1  0
 19 18  1  0
 20 13  2  0
 21 22  2  0
 22 41  1  0
 23 22  1  0
 23 26  1  0
 24 21  1  0
 24 25  1  0
 25 23  2  0
 26 27  1  0
 27 28  2  0
 29 32  1  0
 29 28  1  0
 30 29  2  0
 31 30  1  0
 31 26  2  0
 32 33  1  0
 33 34  1  0
 34 35  2  0
 36 35  1  0
 36 40  1  0
 37 36  2  0
 38 33  2  0
 38 37  1  0
 39 38  1  0
 41 42  1  0
 42 45  1  0
 42 44  1  0
 43 41  2  0
 46 47  1  0
 46 21  1  0
 48 46  1  0
 50 49  1  0
 51 56  1  0
 53 52  1  0
 53 51  1  0
 54 53  1  0
 55 53  1  0
 57 56  1  0
 57 58  1  0
 59 70  2  0
 60 58  1  0
 60 65  1  0
 61 69  1  0
 61 71  1  0
 62 68  1  0
 62 64  1  0
 63 69  1  0
 64 65  2  0
 64 63  1  0
 66 60  2  0
 67 66  1  0
 67 62  2  0
 68 61  1  0
 69 59  1  0
 71 73  2  0
 72 71  1  0
 74 72  1  0
 75 84  2  0
 75 80  1  0
 76 72  1  0
 76 80  1  0
 77 76  1  0
 78 79  1  0
 78 77  1  0
 79 75  1  0
 80 81  2  0
 81 82  1  0
 83 82  2  0
 84 83  1  0
 85 59  1  0
 85 90  1  0
 85 86  1  0
 86 89  1  1
 86 87  1  0
 88 86  1  0
 90 93  1  0
 91 95  1  0
 91 90  1  0
 92 91  2  0
 95 94  1  0
 97 95  1  0
 97 98  1  0
 97 96  1  0
M  ISO  4  12 100  13 100  57 101  58 101
M  END
>  <TORSDO>  (8) 
F 25

>  <SCORE>  (8) 
-12.152

>  <name>  (8) 
7

>  <ligand_id>  (8) 
7

>  <original_smiles>  (8) 
[H]c1c([H])c([H])c2c(c1[H])C([H])([H])C([H])([H])C([H])([H])C2([H])N([H])C(=O)C1([H])N(C(=O)C([H])(N([H])C(=O)C([H])(N([H])C([H])([H])[H])C([H])([H])[H])C(C([H])([H])[H])(C([H])([H])[H])C([H])([H])[H])C([H])([H])c2c([H])c(OC([H])([H])C([H])([H])C([H])(C3([H])C([H])(C([H])([H])[H])C([H])([H])C([H])([H])C3([H])C([H])(C([H])([H])C([H])([H])[H])[N+]([H])([H])C([H])([H])C([H])([H])C(=O)N3C([H])([H])C([H])([H])C([H])([H])C([H])(n4nc(-c5c([H])c([H])c(Oc6c([H])c([H])c(F)c([H])c6F)c([H])c5[H])c(C(=O)N([H])[H])c4N([H])[H])C3([H])[H])[N+]([H])([H])C([H])([H])[H])c([H])c([H])c2C1([H])[H]

>  <smiles>  (8) 
[H]c1c([H])c([H])c2c(c1[H])C([H])([H])C([H])([H])C([H])([H])C2([H])N([H])C(=O)C1([H])N(C(=O)C([H])(N([H])C(=O)C([H])(N([H])C([H])([H])[H])C([H])([H])[H])C(C([H])([H])[H])(C([H])([H])[H])C([H])([H])[H])C([H])([H])c2c([H])c(OC([H])([H])C([H])([H])C([H])(C3([H])C([H])(C([H])([H])[H])C([H])([H])C([H])([H])C3([H])C([H])(C([H])([H])C([H])([H])[H])[N+]([H])([H])C([H])([H])C([H])([H])C(=O)N3C([H])([H])C([H])([H])C([H])([H])C([H])(n4nc(-c5c([H])c([H])c(Oc6c([H])c([H])c(F)c([H])c6F)c([H])c5[H])c(C(=O)N([H])[H])c4N([H])[H])C3([H])[H])[N+]([H])([H])C([H])([H])[H])c([H])c([H])c2C1([H])[H]

$$$$
8:0:0
     RDKit          3D

 89 97  0  0  1  0  0  0  0  0999 V2000
  -29.0220  -22.3750   20.3090 C   0  0  0  0  0  3  0  0  0  0  0  0
  -29.8090  -19.0360   20.7610 C   0  0  0  0  0  2  0  0  0  0  0  0
  -28.7250  -19.6670   18.8690 C   0  0  0  0  0  2  0  0  0  0  0  0
  -29.4700  -17.3600   20.2360 C   0  0  0  0  0  3  0  0  0  0  0  0
  -28.8460  -20.4570   20.2380 C   0  0  0  0  0  3  0  0  0  0  0  0
  -28.9260  -18.0240   18.8830 C   0  0  0  0  0  3  0  0  0  0  0  0
  -29.7610  -17.5990   17.6620 C   0  0  0  0  0  1  0  0  0  0  0  0
  -30.3220  -15.7060   20.1940 C   0  0  0  0  0  0  0  0  0  0  0  0
  -30.4490  -13.1680   19.4140 C   0  0  0  0  0  2  0  0  0  0  0  0
  -29.5570  -12.8270   18.1870 C   0  0  0  0  0  2  0  0  0  0  0  0
  -28.1220  -12.4830   18.6230 C   0  0  0  0  0  2  0  0  0  0  0  0
  -27.6140  -13.4570   19.7110 C   0  0  0  0  0  3  0  0  0  0  0  0
  -28.6460  -13.7370   20.8270 C   0  0  0  0  0  2  0  0  0  0  0  0
  -29.8420  -14.3310   20.1940 N   0  0  0  0  0  0  0  0  0  0  0  0
  -31.5530  -15.6680   20.0050 O   0  0  0  0  0  0  0  0  0  0  0  0
  -25.2450  -13.9500   20.4910 C   0  0  0  0  0  0  0  0  0  0  0  0
  -24.1980  -13.1530   20.8580 C   0  0  0  0  0  0  0  0  0  0  0  0
  -24.6890  -11.8100   20.8180 C   0  0  0  0  0  0  0  0  0  0  0  0
  -26.3010  -13.0970   20.2340 N   0  0  0  0  0  0  0  0  0  0  0  0
  -25.9820  -11.8010   20.5000 N   0  0  0  0  0  0  0  0  0  0  0  0
  -23.9800  -10.5360   21.0040 C   0  0  0  0  0  0  0  0  0  0  0  0
  -24.4120   -9.5780   21.9480 C   0  0  0  0  0  3  0  0  0  0  0  0
  -23.6980   -8.3720   22.1240 C   0  0  0  0  0  3  0  0  0  0  0  0
  -22.5380   -8.1150   21.3570 C   0  0  0  0  0  0  0  0  0  0  0  0
  -22.1260   -9.0610   20.4020 C   0  0  0  0  0  3  0  0  0  0  0  0
  -22.8390  -10.2580   20.2250 C   0  0  0  0  0  3  0  0  0  0  0  0
  -21.7980   -6.9590   21.4380 O   0  0  0  0  0  0  0  0  0  0  0  0
  -21.7270   -6.2310   22.6000 C   0  0  0  0  0  0  0  0  0  0  0  0
  -21.2200   -6.7850   23.7950 C   0  0  0  0  0  3  0  0  0  0  0  0
  -21.1000   -5.9810   24.9470 C   0  0  0  0  0  3  0  0  0  0  0  0
  -21.4750   -4.6250   24.9040 C   0  0  0  0  0  0  0  0  0  0  0  0
  -21.9740   -4.0720   23.7130 C   0  0  0  0  0  3  0  0  0  0  0  0
  -22.0980   -4.8720   22.5640 C   0  0  0  0  0  0  0  0  0  0  0  0
  -22.5600   -4.3270   21.4130 F   0  0  0  0  0  0  0  0  0  0  0  0
  -21.3520   -3.8520   26.0090 F   0  0  0  0  0  0  0  0  0  0  0  0
  -22.7940  -13.6060   21.1240 C   0  0  0  0  0  0  0  0  0  0  0  0
  -22.0790  -12.9050   21.9970 N   0  0  0  0  0  0  0  0  0  0  0  0
  -22.3400  -14.6200   20.5960 O   0  0  0  0  0  0  0  0  0  0  0  0
  -22.4620  -12.0900   22.4530 H   0  0  0  0  0  0  0  0  0  0  0  0
  -21.1340  -13.1890   22.2140 H   0  0  0  0  0  0  0  0  0  0  0  0
  -25.3860  -15.3250   20.3230 N   0  0  0  0  0  0  0  0  0  0  0  0
  -24.6110  -15.9680   20.4460 H   0  0  0  0  0  0  0  0  0  0  0  0
  -26.2290  -15.7800   19.9970 H   0  0  0  0  0  0  0  0  0  0  0  0
  -31.1870  -23.6130   20.0610 C   0  0  0  0  0  1  0  0  0  0  0  0
  -30.2380  -22.6290   19.5010 N   0  0  0  0  0  4  0  0  0  0  0  0
  -30.7410  -21.7600   19.4090 H   0  0  0  0  0  0  0  0  0  0  0  0
  -29.9740  -22.9180   18.5720 H   0  0  0  0  0  0  0  0  0  0  0  0
  -27.9860  -23.9870   20.1600 C   0  0  0  0  0  2  0  0  0  0  0  0
  -28.1550  -25.7120   20.3290 O   0  0  0  0  0  0  0  0  0  0  0  0
  -24.6360  -31.9330   23.2650 C   0  0  0  0  0  0  0  0  0  0  0  0
  -27.1650  -26.8930   20.2740 C   0  0  0  0  0  0  0  0  0  0  0  0
  -23.4430  -30.5300   21.6340 C   0  0  0  0  0  3  0  0  0  0  0  0
  -24.8870  -28.8880   20.2220 C   0  0  0  0  0  0  0  0  0  0  0  0
  -26.0190  -30.6880   21.5020 C   0  0  0  0  0  2  0  0  0  0  0  0
  -26.0830  -29.2590   20.8490 C   0  0  0  0  0  0  0  0  0  0  0  0
  -27.2090  -28.2890   20.8420 C   0  0  0  0  0  3  0  0  0  0  0  0
  -25.9340  -26.7170   19.5950 C   0  0  0  0  0  3  0  0  0  0  0  0
  -24.8480  -27.6420   19.5730 C   0  0  0  0  0  3  0  0  0  0  0  0
  -23.6780  -29.8310   20.2650 C   0  0  0  0  0  2  0  0  0  0  0  0
  -24.7230  -31.0830   22.1870 N   0  0  0  0  0  0  0  0  0  0  0  0
  -23.5450  -32.2320   23.7790 O   0  0  0  0  0  0  0  0  0  0  0  0
  -22.7320  -29.5520   22.6090 C   0  0  0  0  0  0  0  0  0  0  0  0
  -21.4040  -29.3830   22.4760 N   0  0  0  0  0  0  0  0  0  0  0  0
  -23.3890  -28.9440   23.4570 O   0  0  0  0  0  0  0  0  0  0  0  0
  -20.9230  -29.9250   21.7710 H   0  0  0  0  0  0  0  0  0  0  0  0
  -18.0260  -28.1370   22.9690 C   0  0  0  0  0  0  0  0  0  0  0  0
  -20.5790  -28.4480   23.2520 C   0  0  0  0  0  3  0  0  0  0  0  0
  -20.7060  -27.0080   22.7020 C   0  0  0  0  0  2  0  0  0  0  0  0
  -19.6210  -26.6540   21.6800 C   0  0  0  0  0  2  0  0  0  0  0  0
  -18.2300  -26.7840   22.3070 C   0  0  0  0  0  2  0  0  0  0  0  0
  -19.1290  -28.9250   23.3960 C   0  0  0  0  0  0  0  0  0  0  0  0
  -18.8810  -30.1860   23.9810 C   0  0  0  0  0  3  0  0  0  0  0  0
  -17.5650  -30.6640   24.1350 C   0  0  0  0  0  3  0  0  0  0  0  0
  -16.4780  -29.8750   23.7190 C   0  0  0  0  0  3  0  0  0  0  0  0
  -16.7090  -28.6130   23.1430 C   0  0  0  0  0  3  0  0  0  0  0  0
  -25.9020  -32.5830   23.9000 C   0  0  0  0  0  3  0  0  0  0  0  0
  -26.3910  -31.8400   25.2060 C   0  0  1  0  0  0  0  0  0  0  0  0
  -25.2780  -31.6350   26.2610 C   0  0  0  0  0  1  0  0  0  0  0  0
  -26.9710  -30.4480   24.8680 C   0  0  0  0  0  1  0  0  0  0  0  0
  -27.5360  -32.6420   25.8690 C   0  0  0  0  0  1  0  0  0  0  0  0
  -25.5860  -33.9900   24.2150 N   0  0  0  0  0  0  0  0  0  0  0  0
  -25.9100  -35.0430   23.4510 C   0  0  0  0  0  0  0  0  0  0  0  0
  -26.5640  -34.9320   22.4100 O   0  0  0  0  0  0  0  0  0  0  0  0
  -25.0030  -34.1510   25.0220 H   0  0  0  0  0  0  0  0  0  0  0  0
  -24.1760  -36.8430   23.1310 C   0  0  0  0  0  1  0  0  0  0  0  0
  -25.4390  -36.4400   23.9080 C   0  0  0  0  0  3  0  0  0  0  0  0
  -27.5910  -37.3430   24.6780 C   0  0  0  0  0  1  0  0  0  0  0  0
  -26.4700  -37.4910   23.7540 N   0  0  0  0  0  0  0  0  0  0  0  0
  -26.0670  -38.4140   23.8880 H   0  0  0  0  0  0  0  0  0  0  0  0
  1 48  1  0
  3  6  1  0
  3  5  1  0
  4  8  1  0
  4  2  1  0
  5  1  1  0
  5  2  1  0
  6  7  1  0
  6  4  1  0
  9 14  1  0
 10 11  1  0
 10  9  1  0
 12 11  1  0
 12 19  1  0
 12 13  1  0
 14  8  1  0
 14 13  1  0
 15  8  2  0
 16 17  2  0
 17 36  1  0
 18 17  1  0
 18 21  1  0
 19 16  1  0
 19 20  1  0
 20 18  2  0
 21 22  1  0
 22 23  2  0
 24 27  1  0
 24 23  1  0
 25 24  2  0
 26 25  1  0
 26 21  2  0
 27 28  1  0
 28 29  1  0
 29 30  2  0
 31 30  1  0
 31 35  1  0
 32 31  2  0
 33 28  2  0
 33 32  1  0
 34 33  1  0
 36 37  1  0
 37 40  1  0
 37 39  1  0
 38 36  2  0
 41 42  1  0
 41 16  1  0
 43 41  1  0
 45 44  1  0
 45  1  1  0
 46 45  1  0
 47 45  1  0
 48 49  1  0
 50 61  2  0
 51 49  1  0
 51 56  1  0
 52 60  1  0
 52 62  1  0
 53 59  1  0
 53 55  1  0
 54 60  1  0
 55 54  1  0
 56 55  2  0
 57 51  2  0
 58 57  1  0
 58 53  2  0
 59 52  1  0
 60 50  1  0
 62 64  2  0
 63 62  1  0
 65 63  1  0
 66 75  2  0
 66 71  1  0
 67 63  1  0
 67 71  1  0
 68 67  1  0
 69 70  1  0
 69 68  1  0
 70 66  1  0
 71 72  2  0
 72 73  1  0
 74 73  2  0
 75 74  1  0
 76 50  1  0
 76 81  1  0
 76 77  1  0
 77 80  1  1
 77 78  1  0
 79 77  1  0
 81 84  1  0
 82 86  1  0
 82 81  1  0
 83 82  2  0
 86 85  1  0
 88 89  1  0
 88 86  1  0
 88 87  1  0
M  ISO  4   4 100   8 100  48 101  49 101
M  END
>  <TORSDO>  (9) 
F 19

>  <SCORE>  (9) 
-16.069

>  <name>  (9) 
8

>  <ligand_id>  (9) 
8

>  <original_smiles>  (9) 
[H]c1c([H])c([H])c2c(c1[H])C([H])([H])C([H])([H])C([H])([H])C2([H])N([H])C(=O)C1([H])N(C(=O)C([H])(N([H])C(=O)C([H])(N([H])C([H])([H])[H])C([H])([H])[H])C(C([H])([H])[H])(C([H])([H])[H])C([H])([H])[H])C([H])([H])c2c([H])c(OC([H])([H])C([H])(C3([H])C([H])([H])C([H])(C(=O)N4C([H])([H])C([H])([H])C([H])([H])C([H])(n5nc(-c6c([H])c([H])c(Oc7c([H])c([H])c(F)c([H])c7F)c([H])c6[H])c(C(=O)N([H])[H])c5N([H])[H])C4([H])[H])C([H])(C([H])([H])[H])C3([H])[H])[N+]([H])([H])C([H])([H])[H])c([H])c([H])c2C1([H])[H]

>  <smiles>  (9) 
[H]c1c([H])c([H])c2c(c1[H])C([H])([H])C([H])([H])C([H])([H])C2([H])N([H])C(=O)C1([H])N(C(=O)C([H])(N([H])C(=O)C([H])(N([H])C([H])([H])[H])C([H])([H])[H])C(C([H])([H])[H])(C([H])([H])[H])C([H])([H])[H])C([H])([H])c2c([H])c(OC([H])([H])C([H])(C3([H])C([H])([H])C([H])(C(=O)N4C([H])([H])C([H])([H])C([H])([H])C([H])(n5nc(-c6c([H])c([H])c(Oc7c([H])c([H])c(F)c([H])c7F)c([H])c6[H])c(C(=O)N([H])[H])c5N([H])[H])C4([H])[H])C([H])(C([H])([H])[H])C3([H])[H])[N+]([H])([H])C([H])([H])[H])c([H])c([H])c2C1([H])[H]

$$$$
9:0:0
     RDKit          3D

100109  0  0  1  0  0  0  0  0999 V2000
  -31.6910  -24.4610   24.2290 C   0  0  0  0  0  2  0  0  0  0  0  0
  -29.7780  -25.2500   24.3880 C   0  0  0  0  0  2  0  0  0  0  0  0
  -30.9770  -25.9010   22.1120 C   0  0  0  0  0  2  0  0  0  0  0  0
  -30.4350  -23.4200   21.6860 C   0  0  0  0  0  2  0  0  0  0  0  0
  -31.0300  -25.7230   23.6400 C   0  0  0  0  0  3  0  0  0  0  0  0
  -30.3000  -23.8120   24.2550 C   0  0  0  0  0  3  0  0  0  0  0  0
  -30.0950  -24.8840   21.3500 C   0  0  0  0  0  3  0  0  0  0  0  0
  -29.8210  -22.9900   23.0430 C   0  0  0  0  0  3  0  0  0  0  0  0
  -30.0480  -21.5780   23.3100 N   0  0  0  0  0  0  0  0  0  0  0  0
  -29.6700  -21.4090   24.2370 H   0  0  0  0  0  0  0  0  0  0  0  0
  -29.3100  -20.7610   22.3460 C   0  0  0  0  0  2  0  0  0  0  0  0
  -28.6610  -19.5170   23.0060 C   0  0  0  0  0  3  0  0  0  0  0  0
  -28.9750  -18.2830   22.2530 N   0  0  0  0  0  4  0  0  0  0  0  0
  -28.4810  -17.5270   22.6930 H   0  0  0  0  0  0  0  0  0  0  0  0
  -28.6310  -18.3740   21.3090 H   0  0  0  0  0  0  0  0  0  0  0  0
  -30.4110  -17.9240   22.2050 C   0  0  0  0  0  2  0  0  0  0  0  0
  -30.6490  -16.4060   22.2140 C   0  0  0  0  0  2  0  0  0  0  0  0
  -29.9330  -15.6670   21.0650 C   0  0  0  0  0  2  0  0  0  0  0  0
  -30.6830  -14.4230   20.5650 C   0  0  0  0  0  0  0  0  0  0  0  0
  -30.4260  -12.2790   19.4030 C   0  0  0  0  0  2  0  0  0  0  0  0
  -29.4900  -12.5040   18.1970 C   0  0  0  0  0  2  0  0  0  0  0  0
  -28.0070  -12.3740   18.6080 C   0  0  0  0  0  2  0  0  0  0  0  0
  -27.6620  -13.1970   19.8790 C   0  0  0  0  0  3  0  0  0  0  0  0
  -28.7050  -12.9300   20.9860 C   0  0  0  0  0  2  0  0  0  0  0  0
  -30.0350  -13.2380   20.4430 N   0  0  0  0  0  0  0  0  0  0  0  0
  -31.8210  -14.6020   20.1200 O   0  0  0  0  0  0  0  0  0  0  0  0
  -25.2610  -13.8150   20.5690 C   0  0  0  0  0  0  0  0  0  0  0  0
  -24.1830  -13.0420   20.9180 C   0  0  0  0  0  0  0  0  0  0  0  0
  -24.6370  -11.6900   20.8730 C   0  0  0  0  0  0  0  0  0  0  0  0
  -26.3020  -12.9290   20.3400 N   0  0  0  0  0  0  0  0  0  0  0  0
  -25.9280  -11.6460   20.5780 N   0  0  0  0  0  0  0  0  0  0  0  0
  -23.9040  -10.4280   21.0420 C   0  0  0  0  0  0  0  0  0  0  0  0
  -24.3600   -9.4210   21.9190 C   0  0  0  0  0  3  0  0  0  0  0  0
  -23.6280   -8.2230   22.0740 C   0  0  0  0  0  3  0  0  0  0  0  0
  -22.4270   -8.0270   21.3530 C   0  0  0  0  0  0  0  0  0  0  0  0
  -21.9900   -9.0240   20.4640 C   0  0  0  0  0  3  0  0  0  0  0  0
  -22.7220  -10.2130   20.3060 C   0  0  0  0  0  3  0  0  0  0  0  0
  -21.6620   -6.8880   21.4240 O   0  0  0  0  0  0  0  0  0  0  0  0
  -21.6840   -6.0730   22.5290 C   0  0  0  0  0  0  0  0  0  0  0  0
  -21.4010   -6.5640   23.8220 C   0  0  0  0  0  3  0  0  0  0  0  0
  -21.3660   -5.6780   24.9180 C   0  0  0  0  0  3  0  0  0  0  0  0
  -21.6040   -4.3050   24.7210 C   0  0  0  0  0  0  0  0  0  0  0  0
  -21.8820   -3.8140   23.4340 C   0  0  0  0  0  3  0  0  0  0  0  0
  -21.9190   -4.6970   22.3400 C   0  0  0  0  0  0  0  0  0  0  0  0
  -22.1660   -4.2160   21.0980 F   0  0  0  0  0  0  0  0  0  0  0  0
  -21.5630   -3.4530   25.7730 F   0  0  0  0  0  0  0  0  0  0  0  0
  -22.7870  -13.5250   21.1850 C   0  0  0  0  0  0  0  0  0  0  0  0
  -22.0470  -12.8240   22.0400 N   0  0  0  0  0  0  0  0  0  0  0  0
  -22.3570  -14.5560   20.6700 O   0  0  0  0  0  0  0  0  0  0  0  0
  -22.4060  -11.9900   22.4800 H   0  0  0  0  0  0  0  0  0  0  0  0
  -21.1100  -13.1280   22.2600 H   0  0  0  0  0  0  0  0  0  0  0  0
  -25.4340  -15.1840   20.4050 N   0  0  0  0  0  0  0  0  0  0  0  0
  -24.6570  -15.8350   20.4780 H   0  0  0  0  0  0  0  0  0  0  0  0
  -26.2730  -15.6080   20.0280 H   0  0  0  0  0  0  0  0  0  0  0  0
  -26.7940  -20.7270   24.2940 C   0  0  0  0  0  1  0  0  0  0  0  0
  -26.2990  -19.9240   21.9620 C   0  0  0  0  0  1  0  0  0  0  0  0
  -27.1270  -19.6570   23.2400 C   0  0  0  0  0  3  0  0  0  0  0  0
  -30.0730  -25.1670   19.8230 C   0  0  0  0  0  2  0  0  0  0  0  0
  -28.6920  -25.6590   19.3510 C   0  0  0  0  0  2  0  0  0  0  0  0
  -28.4680  -26.8600   20.0730 O   0  0  0  0  0  0  0  0  0  0  0  0
  -24.6090  -31.8590   23.2100 C   0  0  0  0  0  0  0  0  0  0  0  0
  -27.2450  -27.4830   20.0670 C   0  0  0  0  0  0  0  0  0  0  0  0
  -23.3880  -30.4870   21.5510 C   0  0  0  0  0  3  0  0  0  0  0  0
  -24.8290  -28.9490   20.1150 C   0  0  0  0  0  0  0  0  0  0  0  0
  -25.9100  -30.8450   21.3420 C   0  0  0  0  0  2  0  0  0  0  0  0
  -25.9840  -29.4760   20.7060 C   0  0  0  0  0  0  0  0  0  0  0  0
  -27.1860  -28.7450   20.6890 C   0  0  0  0  0  3  0  0  0  0  0  0
  -26.0710  -26.9450   19.4910 C   0  0  0  0  0  3  0  0  0  0  0  0
  -24.8660  -27.6760   19.5140 C   0  0  0  0  0  3  0  0  0  0  0  0
  -23.5860  -29.8090   20.1650 C   0  0  0  0  0  2  0  0  0  0  0  0
  -24.6550  -31.0790   22.0930 N   0  0  0  0  0  0  0  0  0  0  0  0
  -23.5340  -32.1280   23.7620 O   0  0  0  0  0  0  0  0  0  0  0  0
  -22.7350  -29.4600   22.5040 C   0  0  0  0  0  0  0  0  0  0  0  0
  -21.4100  -29.3000   22.3790 N   0  0  0  0  0  0  0  0  0  0  0  0
  -23.4160  -28.8120   23.3040 O   0  0  0  0  0  0  0  0  0  0  0  0
  -20.9240  -29.8730   21.7030 H   0  0  0  0  0  0  0  0  0  0  0  0
  -18.0260  -28.1380   22.8480 C   0  0  0  0  0  0  0  0  0  0  0  0
  -20.5830  -28.3610   23.1370 C   0  0  0  0  0  3  0  0  0  0  0  0
  -20.6730  -26.9320   22.5490 C   0  0  0  0  0  2  0  0  0  0  0  0
  -19.5790  -26.6410   21.5190 C   0  0  0  0  0  2  0  0  0  0  0  0
  -18.1910  -26.7970   22.1490 C   0  0  0  0  0  2  0  0  0  0  0  0
  -19.1510  -28.8810   23.2940 C   0  0  0  0  0  0  0  0  0  0  0  0
  -18.9460  -30.1400   23.8950 C   0  0  0  0  0  3  0  0  0  0  0  0
  -17.6470  -30.6540   24.0640 C   0  0  0  0  0  3  0  0  0  0  0  0
  -16.5350  -29.9100   23.6330 C   0  0  0  0  0  3  0  0  0  0  0  0
  -16.7260  -28.6550   23.0300 C   0  0  0  0  0  3  0  0  0  0  0  0
  -25.9000  -32.4750   23.8300 C   0  0  0  0  0  3  0  0  0  0  0  0
  -26.4540  -31.6590   25.0640 C   0  0  1  0  0  0  0  0  0  0  0  0
  -25.3880  -31.3690   26.1490 C   0  0  0  0  0  1  0  0  0  0  0  0
  -27.0460  -30.3060   24.6040 C   0  0  0  0  0  1  0  0  0  0  0  0
  -27.6120  -32.4430   25.7250 C   0  0  0  0  0  1  0  0  0  0  0  0
  -25.5750  -33.8550   24.2210 N   0  0  0  0  0  0  0  0  0  0  0  0
  -25.8930  -34.9460   23.5150 C   0  0  0  0  0  0  0  0  0  0  0  0
  -26.5640  -34.8980   22.4790 O   0  0  0  0  0  0  0  0  0  0  0  0
  -24.9650  -33.9620   25.0160 H   0  0  0  0  0  0  0  0  0  0  0  0
  -24.1420  -36.7420   23.2670 C   0  0  0  0  0  1  0  0  0  0  0  0
  -25.4020  -36.3120   24.0350 C   0  0  0  0  0  3  0  0  0  0  0  0
  -27.5510  -37.1840   24.8450 C   0  0  0  0  0  1  0  0  0  0  0  0
  -26.4230  -37.3800   23.9390 N   0  0  0  0  0  0  0  0  0  0  0  0
  -26.0110  -38.2880   24.1440 H   0  0  0  0  0  0  0  0  0  0  0  0
  4  8  1  0
  5  3  1  0
  5  1  1  0
  5  2  1  0
  6  1  1  0
  6  2  1  0
  7 58  1  0
  7  4  1  0
  7  3  1  0
  8  9  1  0
  8  6  1  0
  9 10  1  0
 11  9  1  0
 12 11  1  0
 12 57  1  0
 13 14  1  0
 13 12  1  0
 15 13  1  0
 16 17  1  0
 16 13  1  0
 18 17  1  0
 19 18  1  0
 20 25  1  0
 21 22  1  0
 21 20  1  0
 23 22  1  0
 23 30  1  0
 23 24  1  0
 25 19  1  0
 25 24  1  0
 26 19  2  0
 27 28  2  0
 28 47  1  0
 29 28  1  0
 29 32  1  0
 30 27  1  0
 30 31  1  0
 31 29  2  0
 32 33  1  0
 33 34  2  0
 35 38  1  0
 35 34  1  0
 36 35  2  0
 37 36  1  0
 37 32  2  0
 38 39  1  0
 39 40  1  0
 40 41  2  0
 42 41  1  0
 42 46  1  0
 43 42  2  0
 44 39  2  0
 44 43  1  0
 45 44  1  0
 47 48  1  0
 48 51  1  0
 48 50  1  0
 49 47  2  0
 52 53  1  0
 52 27  1  0
 54 52  1  0
 56 57  1  0
 57 55  1  0
 59 58  1  0
 59 60  1  0
 61 72  2  0
 62 60  1  0
 62 67  1  0
 63 71  1  0
 63 73  1  0
 64 70  1  0
 64 66  1  0
 65 71  1  0
 66 65  1  0
 67 66  2  0
 68 69  1  0
 68 62  2  0
 69 64  2  0
 70 63  1  0
 71 61  1  0
 73 75  2  0
 74 73  1  0
 76 74  1  0
 77 86  2  0
 77 82  1  0
 78 74  1  0
 78 82  1  0
 79 78  1  0
 80 81  1  0
 80 79  1  0
 81 77  1  0
 82 83  2  0
 83 84  1  0
 85 84  2  0
 86 85  1  0
 87 61  1  0
 87 92  1  0
 87 88  1  0
 88 91  1  1
 88 89  1  0
 90 88  1  0
 92 95  1  0
 93 97  1  0
 93 92  1  0
 94 93  2  0
 97 96  1  0
 99 97  1  0
 99100  1  0
 99 98  1  0
M  ISO  4  18 100  19 100  59 101  60 101
M  END
>  <TORSDO>  (10) 
F 26

>  <SCORE>  (10) 
26.858

>  <name>  (10) 
9

>  <ligand_id>  (10) 
9

>  <original_smiles>  (10) 
[H]c1c([H])c([H])c2c(c1[H])C([H])([H])C([H])([H])C([H])([H])C2([H])N([H])C(=O)C1([H])N(C(=O)C([H])(N([H])C(=O)C([H])(N([H])C([H])([H])[H])C([H])([H])[H])C(C([H])([H])[H])(C([H])([H])[H])C([H])([H])[H])C([H])([H])c2c([H])c(OC([H])([H])C([H])([H])C3([H])C([H])([H])C([H])(N([H])C([H])([H])C([H])(C([H])(C([H])([H])[H])C([H])([H])[H])[N+]([H])([H])C([H])([H])C([H])([H])C([H])([H])C(=O)N4C([H])([H])C([H])([H])C([H])([H])C([H])(n5nc(-c6c([H])c([H])c(Oc7c([H])c([H])c(F)c([H])c7F)c([H])c6[H])c(C(=O)N([H])[H])c5N([H])[H])C4([H])[H])C4([H])C([H])([H])C([H])(C3([H])[H])C4([H])[H])c([H])c([H])c2C1([H])[H]

>  <smiles>  (10) 
[H]c1c([H])c([H])c2c(c1[H])C([H])([H])C([H])([H])C([H])([H])C2([H])N([H])C(=O)C1([H])N(C(=O)C([H])(N([H])C(=O)C([H])(N([H])C([H])([H])[H])C([H])([H])[H])C(C([H])([H])[H])(C([H])([H])[H])C([H])([H])[H])C([H])([H])c2c([H])c(OC([H])([H])C([H])([H])C3([H])C([H])([H])C([H])(N([H])C([H])([H])C([H])(C([H])(C([H])([H])[H])C([H])([H])[H])[N+]([H])([H])C([H])([H])C([H])([H])C([H])([H])C(=O)N4C([H])([H])C([H])([H])C([H])([H])C([H])(n5nc(-c6c([H])c([H])c(Oc7c([H])c([H])c(F)c([H])c7F)c([H])c6[H])c(C(=O)N([H])[H])c5N([H])[H])C4([H])[H])C4([H])C([H])([H])C([H])(C3([H])[H])C4([H])[H])c([H])c([H])c2C1([H])[H]

$$$$
10:0:0
     RDKit          3D

 98106  0  0  1  0  0  0  0  0999 V2000
  -27.7220  -19.5700   20.5690 C   0  0  0  0  0  2  0  0  0  0  0  0
  -27.4330  -20.2570   19.2280 C   0  0  0  0  0  2  0  0  0  0  0  0
  -29.6570  -20.8420   19.9120 C   0  0  0  0  0  3  0  0  0  0  0  0
  -29.2470  -19.5240   20.6300 C   0  0  0  0  0  3  0  0  0  0  0  0
  -28.6390  -21.0360   18.8670 N   0  0  0  0  0  4  0  0  0  0  0  0
  -28.4440  -22.0240   18.8160 H   0  0  0  0  0  0  0  0  0  0  0  0
  -29.0150  -20.7100   17.9940 H   0  0  0  0  0  0  0  0  0  0  0  0
  -29.6790  -22.1260   20.7750 C   0  0  0  0  0  0  0  0  0  0  0  0
  -30.8090  -22.8500   20.8360 N   0  0  0  0  0  0  0  0  0  0  0  0
  -28.6440  -22.5090   21.3300 O   0  0  0  0  0  0  0  0  0  0  0  0
  -31.6420  -22.4930   20.3860 H   0  0  0  0  0  0  0  0  0  0  0  0
  -30.8840  -24.1780   21.4520 C   0  0  0  0  0  2  0  0  0  0  0  0
  -31.8160  -25.1340   20.6790 C   0  0  0  0  0  2  0  0  0  0  0  0
  -31.7100  -26.4740   21.1730 O   0  0  0  0  0  0  0  0  0  0  0  0
  -27.1110  -30.7220   24.5510 C   0  0  0  0  0  0  0  0  0  0  0  0
  -30.4940  -27.1280   21.1050 C   0  0  0  0  0  0  0  0  0  0  0  0
  -26.2920  -29.7140   22.4480 C   0  0  0  0  0  3  0  0  0  0  0  0
  -28.0520  -28.5610   21.0170 C   0  0  0  0  0  0  0  0  0  0  0  0
  -28.7920  -30.1400   22.8070 C   0  0  0  0  0  2  0  0  0  0  0  0
  -29.0610  -28.9520   21.9050 C   0  0  0  0  0  0  0  0  0  0  0  0
  -30.2840  -28.2460   21.9440 C   0  0  0  0  0  3  0  0  0  0  0  0
  -29.4540  -26.7400   20.2250 C   0  0  0  0  0  3  0  0  0  0  0  0
  -28.2430  -27.4520   20.1770 C   0  0  0  0  0  3  0  0  0  0  0  0
  -26.7790  -29.3760   21.0170 C   0  0  0  0  0  2  0  0  0  0  0  0
  -27.4060  -30.1940   23.3300 N   0  0  0  0  0  0  0  0  0  0  0  0
  -25.9380  -30.8500   24.9270 O   0  0  0  0  0  0  0  0  0  0  0  0
  -25.5440  -28.4880   23.0200 C   0  0  0  0  0  0  0  0  0  0  0  0
  -24.2910  -28.2910   22.5780 N   0  0  0  0  0  0  0  0  0  0  0  0
  -26.0940  -27.7300   23.8210 O   0  0  0  0  0  0  0  0  0  0  0  0
  -23.9040  -28.9660   21.9340 H   0  0  0  0  0  0  0  0  0  0  0  0
  -20.9940  -26.9020   22.0820 C   0  0  0  0  0  0  0  0  0  0  0  0
  -23.4110  -27.1860   22.9570 C   0  0  0  0  0  3  0  0  0  0  0  0
  -23.7420  -25.9090   22.1510 C   0  0  0  0  0  2  0  0  0  0  0  0
  -22.9080  -25.7720   20.8740 C   0  0  0  0  0  2  0  0  0  0  0  0
  -21.4140  -25.7290   21.2100 C   0  0  0  0  0  2  0  0  0  0  0  0
  -21.9350  -27.5950   22.8890 C   0  0  0  0  0  0  0  0  0  0  0  0
  -21.5000  -28.7020   23.6530 C   0  0  0  0  0  3  0  0  0  0  0  0
  -20.1540  -29.1140   23.6160 C   0  0  0  0  0  3  0  0  0  0  0  0
  -19.2250  -28.4140   22.8280 C   0  0  0  0  0  3  0  0  0  0  0  0
  -19.6440  -27.3080   22.0660 C   0  0  0  0  0  3  0  0  0  0  0  0
  -28.2290  -31.2160   25.5200 C   0  0  0  0  0  3  0  0  0  0  0  0
  -28.4370  -30.2700   26.7640 C   0  0  1  0  0  0  0  0  0  0  0  0
  -27.1310  -29.9510   27.5280 C   0  0  0  0  0  1  0  0  0  0  0  0
  -29.0680  -28.9280   26.3300 C   0  0  0  0  0  1  0  0  0  0  0  0
  -29.4320  -30.9180   27.7550 C   0  0  0  0  0  1  0  0  0  0  0  0
  -27.8690  -32.5730   25.9530 N   0  0  0  0  0  0  0  0  0  0  0  0
  -28.4100  -33.6970   25.4600 C   0  0  0  0  0  0  0  0  0  0  0  0
  -29.3260  -33.6920   24.6340 O   0  0  0  0  0  0  0  0  0  0  0  0
  -27.0870  -32.6540   26.5860 H   0  0  0  0  0  0  0  0  0  0  0  0
  -26.8660  -35.6080   24.9240 C   0  0  0  0  0  1  0  0  0  0  0  0
  -27.8430  -35.0380   25.9650 C   0  0  0  0  0  3  0  0  0  0  0  0
  -29.6950  -35.6940   27.4370 C   0  0  0  0  0  1  0  0  0  0  0  0
  -28.8870  -36.0410   26.2700 N   0  0  0  0  0  0  0  0  0  0  0  0
  -28.4750  -36.9560   26.4300 H   0  0  0  0  0  0  0  0  0  0  0  0
  -29.6410  -18.3290   19.8590 N   0  0  0  0  0  0  0  0  0  0  0  0
  -29.0140  -17.5710   20.1050 H   0  0  0  0  0  0  0  0  0  0  0  0
  -31.0140  -17.8660   20.0450 C   0  0  0  0  0  3  0  0  0  0  0  0
  -30.9850  -16.3950   20.5920 C   0  0  0  0  0  2  0  0  0  0  0  0
  -31.9010  -15.4210   19.8130 C   0  0  0  0  0  2  0  0  0  0  0  0
  -32.3910  -14.1060   20.4610 C   0  0  0  0  0  0  0  0  0  0  0  0
  -31.7960  -11.9170   19.5810 C   0  0  0  0  0  2  0  0  0  0  0  0
  -30.9620  -12.1750   18.3050 C   0  0  0  0  0  2  0  0  0  0  0  0
  -29.4660  -12.3070   18.6520 C   0  0  0  0  0  2  0  0  0  0  0  0
  -29.2000  -13.2940   19.8190 C   0  0  0  0  0  3  0  0  0  0  0  0
  -30.1720  -13.0510   20.9950 C   0  0  0  0  0  2  0  0  0  0  0  0
  -31.5510  -13.0410   20.4920 N   0  0  0  0  0  0  0  0  0  0  0  0
  -33.6140  -13.9710   20.4480 O   0  0  0  0  0  0  0  0  0  0  0  0
  -26.9300  -14.3150   20.4590 C   0  0  0  0  0  0  0  0  0  0  0  0
  -25.7250  -13.7440   20.7690 C   0  0  0  0  0  0  0  0  0  0  0  0
  -25.9380  -12.3320   20.7370 C   0  0  0  0  0  0  0  0  0  0  0  0
  -27.8070  -13.2610   20.2520 N   0  0  0  0  0  0  0  0  0  0  0  0
  -27.2120  -12.0630   20.4850 N   0  0  0  0  0  0  0  0  0  0  0  0
  -24.9880  -11.2190   20.8690 C   0  0  0  0  0  0  0  0  0  0  0  0
  -25.2250  -10.1490   21.7610 C   0  0  0  0  0  3  0  0  0  0  0  0
  -24.2900   -9.1000   21.8860 C   0  0  0  0  0  3  0  0  0  0  0  0
  -23.1010   -9.1140   21.1180 C   0  0  0  0  0  0  0  0  0  0  0  0
  -22.8820  -10.1680   20.2130 C   0  0  0  0  0  3  0  0  0  0  0  0
  -23.8160  -11.2090   20.0870 C   0  0  0  0  0  3  0  0  0  0  0  0
  -22.1490   -8.1240   21.1540 O   0  0  0  0  0  0  0  0  0  0  0  0
  -21.9520   -7.3550   22.2740 C   0  0  0  0  0  0  0  0  0  0  0  0
  -21.6240   -7.9260   23.5220 C   0  0  0  0  0  3  0  0  0  0  0  0
  -21.3610   -7.0940   24.6300 C   0  0  0  0  0  3  0  0  0  0  0  0
  -21.4180   -5.6950   24.4890 C   0  0  0  0  0  0  0  0  0  0  0  0
  -21.7400   -5.1230   23.2460 C   0  0  0  0  0  3  0  0  0  0  0  0
  -22.0030   -5.9520   22.1400 C   0  0  0  0  0  0  0  0  0  0  0  0
  -22.2920   -5.3970   20.9380 F   0  0  0  0  0  0  0  0  0  0  0  0
  -21.1600   -4.8950   25.5500 F   0  0  0  0  0  0  0  0  0  0  0  0
  -24.4240  -14.4630   20.9800 C   0  0  0  0  0  0  0  0  0  0  0  0
  -23.5530  -13.9200   21.8210 N   0  0  0  0  0  0  0  0  0  0  0  0
  -24.1920  -15.5390   20.4310 O   0  0  0  0  0  0  0  0  0  0  0  0
  -23.7510  -13.0480   22.2890 H   0  0  0  0  0  0  0  0  0  0  0  0
  -22.6740  -14.3850   22.0020 H   0  0  0  0  0  0  0  0  0  0  0  0
  -27.3440  -15.6370   20.3110 N   0  0  0  0  0  0  0  0  0  0  0  0
  -26.6860  -16.4050   20.3650 H   0  0  0  0  0  0  0  0  0  0  0  0
  -28.2420  -15.9110   19.9350 H   0  0  0  0  0  0  0  0  0  0  0  0
  -31.7440  -18.0260   18.6840 C   0  0  0  0  0  2  0  0  0  0  0  0
  -32.8860  -19.6590   17.0720 C   0  0  0  0  0  1  0  0  0  0  0  0
  -31.7890  -19.4610   18.1290 C   0  0  0  0  0  2  0  0  0  0  0  0
  1  4  1  0
  2  1  1  0
  3  4  1  0
  3  8  1  0
  4 55  1  0
  5  2  1  0
  5  3  1  0
  6  5  1  0
  7  5  1  0
  8  9  1  0
  8 10  2  0
  9 12  1  0
 11  9  1  0
 13 14  1  0
 13 12  1  0
 15 26  2  0
 16 14  1  0
 16 21  1  0
 17 27  1  0
 17 25  1  0
 18 24  1  0
 18 20  1  0
 19 25  1  0
 20 21  2  0
 20 19  1  0
 22 16  2  0
 23 22  1  0
 23 18  2  0
 24 17  1  0
 25 15  1  0
 27 29  2  0
 28 27  1  0
 30 28  1  0
 31 36  1  0
 32 28  1  0
 33 32  1  0
 34 35  1  0
 34 33  1  0
 35 31  1  0
 36 32  1  0
 36 37  2  0
 38 37  1  0
 39 38  2  0
 40 31  2  0
 40 39  1  0
 41 15  1  0
 41 46  1  0
 41 42  1  0
 42 43  1  1
 42 45  1  0
 44 42  1  0
 46 49  1  0
 47 46  1  0
 47 51  1  0
 48 47  2  0
 51 50  1  0
 51 53  1  0
 53 54  1  0
 53 52  1  0
 55 57  1  0
 55 56  1  0
 57 96  1  0
 57 58  1  0
 59 60  1  0
 59 58  1  0
 60 66  1  0
 61 66  1  0
 62 63  1  0
 62 61  1  0
 64 63  1  0
 64 71  1  0
 64 65  1  0
 66 65  1  0
 67 60  2  0
 68 69  2  0
 69 88  1  0
 70 69  1  0
 70 73  1  0
 71 68  1  0
 71 72  1  0
 72 70  2  0
 73 74  1  0
 74 75  2  0
 76 79  1  0
 76 75  1  0
 77 76  2  0
 78 77  1  0
 78 73  2  0
 79 80  1  0
 80 81  1  0
 81 82  2  0
 83 82  1  0
 83 87  1  0
 84 83  2  0
 85 80  2  0
 85 84  1  0
 86 85  1  0
 88 89  1  0
 89 92  1  0
 89 91  1  0
 90 88  2  0
 93 94  1  0
 93 68  1  0
 95 93  1  0
 97 98  1  0
 98 96  1  0
M  ISO  4  13 101  14 101  59 100  60 100
M  END
>  <TORSDO>  (11) 
F 25

>  <SCORE>  (11) 
-8.538

>  <name>  (11) 
10

>  <ligand_id>  (11) 
10

>  <original_smiles>  (11) 
[H]c1c([H])c([H])c2c(c1[H])C([H])([H])C([H])([H])C([H])([H])C2([H])N([H])C(=O)C1([H])N(C(=O)C([H])(N([H])C(=O)C([H])(N([H])C([H])([H])[H])C([H])([H])[H])C(C([H])([H])[H])(C([H])([H])[H])C([H])([H])[H])C([H])([H])c2c([H])c(OC([H])([H])C([H])([H])N([H])C(=O)C3([H])C([H])(N([H])C([H])(C([H])([H])C([H])([H])C(=O)N4C([H])([H])C([H])([H])C([H])([H])C([H])(n5nc(-c6c([H])c([H])c(Oc7c([H])c([H])c(F)c([H])c7F)c([H])c6[H])c(C(=O)N([H])[H])c5N([H])[H])C4([H])[H])C([H])([H])C([H])([H])C([H])([H])[H])C([H])([H])C([H])([H])[N+]3([H])[H])c([H])c([H])c2C1([H])[H]

>  <smiles>  (11) 
[H]c1c([H])c([H])c2c(c1[H])C([H])([H])C([H])([H])C([H])([H])C2([H])N([H])C(=O)C1([H])N(C(=O)C([H])(N([H])C(=O)C([H])(N([H])C([H])([H])[H])C([H])([H])[H])C(C([H])([H])[H])(C([H])([H])[H])C([H])([H])[H])C([H])([H])c2c([H])c(OC([H])([H])C([H])([H])N([H])C(=O)C3([H])C([H])(N([H])C([H])(C([H])([H])C([H])([H])C(=O)N4C([H])([H])C([H])([H])C([H])([H])C([H])(n5nc(-c6c([H])c([H])c(Oc7c([H])c([H])c(F)c([H])c7F)c([H])c6[H])c(C(=O)N([H])[H])c5N([H])[H])C4([H])[H])C([H])([H])C([H])([H])C([H])([H])[H])C([H])([H])C([H])([H])[N+]3([H])[H])c([H])c([H])c2C1([H])[H]

$$$$
11:0:0
     RDKit          3D

 99106  0  0  1  0  0  0  0  0999 V2000
  -28.0210  -20.6260   19.8720 C   0  0  0  0  0  3  0  0  0  0  0  0
  -28.9490  -21.7940   19.9440 N   0  0  0  0  0  4  0  0  0  0  0  0
  -29.8410  -21.4880   20.2990 H   0  0  0  0  0  0  0  0  0  0  0  0
  -29.1060  -22.1300   19.0080 H   0  0  0  0  0  0  0  0  0  0  0  0
  -28.4840  -22.9210   20.8010 C   0  0  0  0  0  2  0  0  0  0  0  0
  -29.0560  -24.3000   20.3860 C   0  0  0  0  0  2  0  0  0  0  0  0
  -28.7240  -25.4090   21.4130 C   0  0  0  0  0  2  0  0  0  0  0  0
  -28.8740  -26.7360   20.8910 O   0  0  0  0  0  0  0  0  0  0  0  0
  -24.5610  -31.7720   23.4650 C   0  0  0  0  0  0  0  0  0  0  0  0
  -27.6890  -27.4190   20.7560 C   0  0  0  0  0  0  0  0  0  0  0  0
  -23.5790  -30.2680   21.7630 C   0  0  0  0  0  3  0  0  0  0  0  0
  -25.2290  -28.7790   20.5170 C   0  0  0  0  0  0  0  0  0  0  0  0
  -26.0880  -30.7660   21.7710 C   0  0  0  0  0  2  0  0  0  0  0  0
  -26.3020  -29.3860   21.1840 C   0  0  0  0  0  0  0  0  0  0  0  0
  -27.5380  -28.7140   21.3000 C   0  0  0  0  0  3  0  0  0  0  0  0
  -26.6050  -26.8220   20.0800 C   0  0  0  0  0  3  0  0  0  0  0  0
  -25.3760  -27.4950   19.9600 C   0  0  0  0  0  3  0  0  0  0  0  0
  -23.9430  -29.5670   20.4270 C   0  0  0  0  0  2  0  0  0  0  0  0
  -24.7550  -30.9520   22.3920 N   0  0  0  0  0  0  0  0  0  0  0  0
  -23.4230  -31.9970   23.9030 O   0  0  0  0  0  0  0  0  0  0  0  0
  -22.8990  -29.2370   22.6920 C   0  0  0  0  0  0  0  0  0  0  0  0
  -21.6680  -28.8320   22.3370 N   0  0  0  0  0  0  0  0  0  0  0  0
  -23.4820  -28.8010   23.6890 O   0  0  0  0  0  0  0  0  0  0  0  0
  -21.2550  -29.2410   21.5100 H   0  0  0  0  0  0  0  0  0  0  0  0
  -18.5050  -27.0890   22.2680 C   0  0  0  0  0  0  0  0  0  0  0  0
  -20.8560  -27.8390   23.0380 C   0  0  0  0  0  3  0  0  0  0  0  0
  -21.3130  -26.4020   22.6980 C   0  0  0  0  0  2  0  0  0  0  0  0
  -20.5420  -25.7860   21.5260 C   0  0  0  0  0  2  0  0  0  0  0  0
  -19.0430  -25.7370   21.8360 C   0  0  0  0  0  2  0  0  0  0  0  0
  -19.3580  -28.0830   22.8190 C   0  0  0  0  0  0  0  0  0  0  0  0
  -18.8120  -29.3360   23.1710 C   0  0  0  0  0  3  0  0  0  0  0  0
  -17.4430  -29.6040   22.9850 C   0  0  0  0  0  3  0  0  0  0  0  0
  -16.5990  -28.6120   22.4540 C   0  0  0  0  0  3  0  0  0  0  0  0
  -17.1300  -27.3590   22.1020 C   0  0  0  0  0  3  0  0  0  0  0  0
  -25.7530  -32.4840   24.1760 C   0  0  0  0  0  3  0  0  0  0  0  0
  -25.3570  -33.8780   24.4100 N   0  0  0  0  0  0  0  0  0  0  0  0
  -25.7080  -34.9090   23.6300 C   0  0  0  0  0  0  0  0  0  0  0  0
  -26.4660  -34.7900   22.6630 O   0  0  0  0  0  0  0  0  0  0  0  0
  -24.6890  -34.0410   25.1500 H   0  0  0  0  0  0  0  0  0  0  0  0
  -23.9200  -36.5870   23.0670 C   0  0  0  0  0  1  0  0  0  0  0  0
  -25.1240  -36.2930   23.9770 C   0  0  0  0  0  3  0  0  0  0  0  0
  -27.1590  -37.3250   24.8810 C   0  0  0  0  0  1  0  0  0  0  0  0
  -26.1090  -37.3910   23.8670 N   0  0  0  0  0  0  0  0  0  0  0  0
  -25.6500  -38.2950   23.9460 H   0  0  0  0  0  0  0  0  0  0  0  0
  -26.1760  -31.7890   25.5280 C   0  0  1  0  0  0  0  0  0  0  0  0
  -24.9860  -31.4650   26.4610 C   0  0  0  0  0  1  0  0  0  0  0  0
  -26.9300  -30.4680   25.2470 C   0  0  0  0  0  1  0  0  0  0  0  0
  -27.1560  -32.7010   26.3040 C   0  0  0  0  0  1  0  0  0  0  0  0
  -28.7740  -19.2990   19.5060 C   0  0  0  0  0  2  0  0  0  0  0  0
  -28.9400  -18.2690   20.6780 C   0  0  0  0  0  3  0  0  0  0  0  0
  -27.8360  -17.2820   20.7860 N   0  0  0  0  0  4  0  0  0  0  0  0
  -27.9610  -16.7110   21.6050 H   0  0  0  0  0  0  0  0  0  0  0  0
  -27.7600  -16.6520   19.9960 H   0  0  0  0  0  0  0  0  0  0  0  0
  -26.9500  -17.7470   20.8830 H   0  0  0  0  0  0  0  0  0  0  0  0
  -30.3330  -17.5570   20.7370 C   0  0  0  0  0  3  0  0  0  0  0  0
  -31.4650  -18.9600   22.6220 C   0  0  0  0  0  1  0  0  0  0  0  0
  -30.9300  -17.5860   22.1760 C   0  0  0  0  0  2  0  0  0  0  0  0
  -30.3130  -16.1320   20.1030 C   0  0  0  0  0  2  0  0  0  0  0  0
  -31.4390  -15.1810   20.5760 C   0  0  0  0  0  2  0  0  0  0  0  0
  -31.6800  -13.9810   19.6480 C   0  0  0  0  0  0  0  0  0  0  0  0
  -31.1120  -11.6950   18.9030 C   0  0  0  0  0  2  0  0  0  0  0  0
  -30.0810  -11.7120   17.7590 C   0  0  0  0  0  2  0  0  0  0  0  0
  -28.6440  -11.7770   18.3150 C   0  0  0  0  0  2  0  0  0  0  0  0
  -28.4720  -12.8960   19.3750 C   0  0  0  0  0  3  0  0  0  0  0  0
  -29.5930  -12.8120   20.4380 C   0  0  0  0  0  2  0  0  0  0  0  0
  -30.8900  -12.8800   19.7420 N   0  0  0  0  0  0  0  0  0  0  0  0
  -32.6400  -14.0460   18.8750 O   0  0  0  0  0  0  0  0  0  0  0  0
  -26.3070  -13.9010   20.3490 C   0  0  0  0  0  0  0  0  0  0  0  0
  -25.1550  -13.3160   20.8020 C   0  0  0  0  0  0  0  0  0  0  0  0
  -25.3470  -11.9050   20.6710 C   0  0  0  0  0  0  0  0  0  0  0  0
  -27.1410  -12.8550   19.9800 N   0  0  0  0  0  0  0  0  0  0  0  0
  -26.5700  -11.6490   20.2270 N   0  0  0  0  0  0  0  0  0  0  0  0
  -24.4240  -10.7840   20.8870 C   0  0  0  0  0  0  0  0  0  0  0  0
  -24.7650   -9.7000   21.7260 C   0  0  0  0  0  3  0  0  0  0  0  0
  -23.8520   -8.6440   21.9370 C   0  0  0  0  0  3  0  0  0  0  0  0
  -22.5860   -8.6630   21.3090 C   0  0  0  0  0  0  0  0  0  0  0  0
  -22.2610   -9.7330   20.4550 C   0  0  0  0  0  3  0  0  0  0  0  0
  -23.1710  -10.7810   20.2410 C   0  0  0  0  0  3  0  0  0  0  0  0
  -21.6480   -7.6670   21.4330 O   0  0  0  0  0  0  0  0  0  0  0  0
  -21.5590   -6.9000   22.5680 C   0  0  0  0  0  0  0  0  0  0  0  0
  -21.3450   -7.4750   23.8410 C   0  0  0  0  0  3  0  0  0  0  0  0
  -21.1880   -6.6460   24.9690 C   0  0  0  0  0  3  0  0  0  0  0  0
  -21.2360   -5.2450   24.8270 C   0  0  0  0  0  0  0  0  0  0  0  0
  -21.4450   -4.6730   23.5610 C   0  0  0  0  0  3  0  0  0  0  0  0
  -21.6020   -5.4980   22.4330 C   0  0  0  0  0  0  0  0  0  0  0  0
  -21.7800   -4.9400   21.2120 F   0  0  0  0  0  0  0  0  0  0  0  0
  -21.0770   -4.4490   25.9100 F   0  0  0  0  0  0  0  0  0  0  0  0
  -23.9000  -14.0190   21.2290 C   0  0  0  0  0  0  0  0  0  0  0  0
  -23.1520  -13.4330   22.1570 N   0  0  0  0  0  0  0  0  0  0  0  0
  -23.6040  -15.1230   20.7720 O   0  0  0  0  0  0  0  0  0  0  0  0
  -23.4080  -12.5350   22.5440 H   0  0  0  0  0  0  0  0  0  0  0  0
  -22.3130  -13.8890   22.4870 H   0  0  0  0  0  0  0  0  0  0  0  0
  -26.7110  -15.2290   20.1900 N   0  0  0  0  0  0  0  0  0  0  0  0
  -25.8870  -15.8250   20.1660 H   0  0  0  0  0  0  0  0  0  0  0  0
  -27.2330  -15.3360   19.3280 H   0  0  0  0  0  0  0  0  0  0  0  0
  -26.8560  -20.9850   18.9050 C   0  0  0  0  0  2  0  0  0  0  0  0
  -26.2850  -19.8350   18.0580 C   0  0  0  0  0  2  0  0  0  0  0  0
  -24.8630  -19.2050   16.0370 C   0  0  0  0  0  1  0  0  0  0  0  0
  -25.2380  -20.3050   17.0370 C   0  0  0  0  0  2  0  0  0  0  0  0
  1 96  1  0
  1  2  1  0
  2  3  1  0
  2  5  1  0
  4  2  1  0
  6  5  1  0
  6  7  1  0
  8  7  1  0
  9 20  2  0
 10  8  1  0
 10 15  1  0
 11 19  1  0
 11 21  1  0
 12 14  1  0
 13 19  1  0
 14 15  2  0
 14 13  1  0
 16 10  2  0
 17 16  1  0
 17 12  2  0
 18 12  1  0
 18 11  1  0
 19  9  1  0
 21 23  2  0
 22 21  1  0
 24 22  1  0
 25 30  1  0
 26 22  1  0
 27 26  1  0
 28 29  1  0
 28 27  1  0
 29 25  1  0
 30 26  1  0
 30 31  2  0
 32 31  1  0
 33 32  2  0
 34 25  2  0
 34 33  1  0
 35  9  1  0
 35 36  1  0
 35 45  1  0
 36 39  1  0
 37 41  1  0
 37 36  1  0
 38 37  2  0
 41 40  1  0
 43 44  1  0
 43 41  1  0
 43 42  1  0
 45 48  1  1
 45 46  1  0
 47 45  1  0
 49  1  1  0
 50 49  1  0
 50 55  1  0
 50 51  1  0
 51 54  1  0
 51 52  1  0
 53 51  1  0
 55 58  1  0
 55 57  1  0
 57 56  1  0
 58 59  1  0
 60 66  1  0
 60 59  1  0
 61 66  1  0
 62 63  1  0
 62 61  1  0
 64 63  1  0
 64 71  1  0
 64 65  1  0
 66 65  1  0
 67 60  2  0
 68 69  2  0
 69 88  1  0
 70 69  1  0
 70 73  1  0
 71 72  1  0
 71 68  1  0
 72 70  2  0
 73 74  1  0
 74 75  2  0
 76 79  1  0
 76 75  1  0
 77 76  2  0
 78 77  1  0
 78 73  2  0
 79 80  1  0
 80 81  1  0
 81 82  2  0
 83 82  1  0
 83 87  1  0
 84 83  2  0
 85 80  2  0
 85 84  1  0
 86 85  1  0
 88 89  1  0
 89 92  1  0
 89 91  1  0
 90 88  2  0
 93 68  1  0
 94 93  1  0
 95 93  1  0
 97 96  1  0
 98 99  1  0
 99 97  1  0
M  ISO  4   7 101   8 101  59 100  60 100
M  END
>  <TORSDO>  (12) 
F 30

>  <SCORE>  (12) 
-8.101

>  <name>  (12) 
11

>  <ligand_id>  (12) 
11

>  <original_smiles>  (12) 
[H]c1c([H])c([H])c2c(c1[H])C([H])([H])C([H])([H])C([H])([H])C2([H])N([H])C(=O)C1([H])N(C(=O)C([H])(N([H])C(=O)C([H])(N([H])C([H])([H])[H])C([H])([H])[H])C(C([H])([H])[H])(C([H])([H])[H])C([H])([H])[H])C([H])([H])c2c([H])c(OC([H])([H])C([H])([H])C([H])([H])[N+]([H])([H])C([H])(C([H])([H])C([H])([H])C([H])([H])C([H])([H])[H])C([H])([H])C([H])(C([H])(C([H])([H])C([H])([H])[H])C([H])([H])C([H])([H])C(=O)N3C([H])([H])C([H])([H])C([H])([H])C([H])(n4nc(-c5c([H])c([H])c(Oc6c([H])c([H])c(F)c([H])c6F)c([H])c5[H])c(C(=O)N([H])[H])c4N([H])[H])C3([H])[H])[N+]([H])([H])[H])c([H])c([H])c2C1([H])[H]

>  <smiles>  (12) 
[H]c1c([H])c([H])c2c(c1[H])C([H])([H])C([H])([H])C([H])([H])C2([H])N([H])C(=O)C1([H])N(C(=O)C([H])(N([H])C(=O)C([H])(N([H])C([H])([H])[H])C([H])([H])[H])C(C([H])([H])[H])(C([H])([H])[H])C([H])([H])[H])C([H])([H])c2c([H])c(OC([H])([H])C([H])([H])C([H])([H])[N+]([H])([H])C([H])(C([H])([H])C([H])([H])C([H])([H])C([H])([H])[H])C([H])([H])C([H])(C([H])(C([H])([H])C([H])([H])[H])C([H])([H])C([H])([H])C(=O)N3C([H])([H])C([H])([H])C([H])([H])C([H])(n4nc(-c5c([H])c([H])c(Oc6c([H])c([H])c(F)c([H])c6F)c([H])c5[H])c(C(=O)N([H])[H])c4N([H])[H])C3([H])[H])[N+]([H])([H])[H])c([H])c([H])c2C1([H])[H]

$$$$
12:0:0
     RDKit          3D

 93100  0  0  1  0  0  0  0  0999 V2000
  -30.9060  -22.3830   21.1560 N   0  0  0  0  0  4  0  0  0  0  0  0
  -30.6270  -22.7750   20.2710 H   0  0  0  0  0  0  0  0  0  0  0  0
  -30.2200  -21.6930   21.4170 H   0  0  0  0  0  0  0  0  0  0  0  0
  -33.1530  -22.5860   20.1270 C   0  0  0  0  0  1  0  0  0  0  0  0
  -32.2130  -21.7040   20.9740 C   0  0  0  0  0  3  0  0  0  0  0  0
  -32.0650  -20.3000   20.3350 C   0  0  0  0  0  2  0  0  0  0  0  0
  -31.2060  -19.2960   21.1470 C   0  0  0  0  0  2  0  0  0  0  0  0
  -31.3650  -17.8280   20.7290 C   0  0  0  0  0  0  0  0  0  0  0  0
  -32.4910  -17.3560   20.3960 N   0  0  0  0  0  0  0  0  0  0  0  0
  -32.4200  -16.3670   20.1520 H   0  0  0  0  0  0  0  0  0  0  0  0
  -30.0880  -16.9800   20.7500 C   0  0  0  0  0  2  0  0  0  0  0  0
  -30.1900  -15.5580   21.3790 C   0  0  0  0  0  2  0  0  0  0  0  0
  -30.6620  -14.4360   20.4240 C   0  0  0  0  0  0  0  0  0  0  0  0
  -30.2770  -12.3390   19.1690 C   0  0  0  0  0  2  0  0  0  0  0  0
  -29.3040  -12.5910   17.9980 C   0  0  0  0  0  2  0  0  0  0  0  0
  -27.8400  -12.4560   18.4600 C   0  0  0  0  0  2  0  0  0  0  0  0
  -27.5510  -13.2510   19.7610 C   0  0  0  0  0  3  0  0  0  0  0  0
  -28.6330  -12.9650   20.8270 C   0  0  0  0  0  2  0  0  0  0  0  0
  -29.9470  -13.2890   20.2450 N   0  0  0  0  0  0  0  0  0  0  0  0
  -31.7110  -14.6370   19.8070 O   0  0  0  0  0  0  0  0  0  0  0  0
  -25.1610  -13.8620   20.5100 C   0  0  0  0  0  0  0  0  0  0  0  0
  -24.0970  -13.0890   20.8950 C   0  0  0  0  0  0  0  0  0  0  0  0
  -24.5550  -11.7370   20.8480 C   0  0  0  0  0  0  0  0  0  0  0  0
  -26.2030  -12.9790   20.2610 N   0  0  0  0  0  0  0  0  0  0  0  0
  -25.8400  -11.6960   20.5160 N   0  0  0  0  0  0  0  0  0  0  0  0
  -23.8280  -10.4760   21.0490 C   0  0  0  0  0  0  0  0  0  0  0  0
  -24.2840   -9.4980   21.9590 C   0  0  0  0  0  3  0  0  0  0  0  0
  -23.5580   -8.3020   22.1500 C   0  0  0  0  0  3  0  0  0  0  0  0
  -22.3610   -8.0760   21.4290 C   0  0  0  0  0  0  0  0  0  0  0  0
  -21.9230   -9.0440   20.5080 C   0  0  0  0  0  3  0  0  0  0  0  0
  -22.6500  -10.2320   20.3170 C   0  0  0  0  0  3  0  0  0  0  0  0
  -21.6060   -6.9330   21.5280 O   0  0  0  0  0  0  0  0  0  0  0  0
  -21.6030   -6.1700   22.6670 C   0  0  0  0  0  0  0  0  0  0  0  0
  -21.2410   -6.7070   23.9220 C   0  0  0  0  0  3  0  0  0  0  0  0
  -21.1820   -5.8700   25.0550 C   0  0  0  0  0  3  0  0  0  0  0  0
  -21.4750   -4.4990   24.9350 C   0  0  0  0  0  0  0  0  0  0  0  0
  -21.8300   -3.9610   23.6840 C   0  0  0  0  0  3  0  0  0  0  0  0
  -21.8900   -4.7950   22.5540 C   0  0  0  0  0  0  0  0  0  0  0  0
  -22.2120   -4.2680   21.3480 F   0  0  0  0  0  0  0  0  0  0  0  0
  -21.4120   -3.6940   26.0200 F   0  0  0  0  0  0  0  0  0  0  0  0
  -22.7080  -13.5710   21.1980 C   0  0  0  0  0  0  0  0  0  0  0  0
  -21.9960  -12.8740   22.0760 N   0  0  0  0  0  0  0  0  0  0  0  0
  -22.2620  -14.6000   20.6920 O   0  0  0  0  0  0  0  0  0  0  0  0
  -22.3720  -12.0420   22.5080 H   0  0  0  0  0  0  0  0  0  0  0  0
  -21.0660  -13.1800   22.3210 H   0  0  0  0  0  0  0  0  0  0  0  0
  -25.3270  -15.2320   20.3370 N   0  0  0  0  0  0  0  0  0  0  0  0
  -24.5620  -15.8850   20.4620 H   0  0  0  0  0  0  0  0  0  0  0  0
  -26.1780  -15.6720   20.0080 H   0  0  0  0  0  0  0  0  0  0  0  0
  -30.8810  -23.4400   22.2010 C   0  0  0  0  0  2  0  0  0  0  0  0
  -30.2580  -24.7610   21.6960 C   0  0  0  0  0  2  0  0  0  0  0  0
  -28.7240  -24.7180   21.5530 C   0  0  0  0  0  2  0  0  0  0  0  0
  -28.2010  -25.2430   20.2050 C   0  0  0  0  0  2  0  0  0  0  0  0
  -28.2920  -26.6730   20.1120 O   0  0  0  0  0  0  0  0  0  0  0  0
  -24.5470  -31.8530   23.2140 C   0  0  0  0  0  0  0  0  0  0  0  0
  -27.1170  -27.3970   20.1000 C   0  0  0  0  0  0  0  0  0  0  0  0
  -23.3150  -30.4680   21.5780 C   0  0  0  0  0  3  0  0  0  0  0  0
  -24.7370  -28.9260   20.1330 C   0  0  0  0  0  0  0  0  0  0  0  0
  -25.8410  -30.8060   21.3580 C   0  0  0  0  0  2  0  0  0  0  0  0
  -25.9060  -29.4360   20.7140 C   0  0  0  0  0  0  0  0  0  0  0  0
  -27.0970  -28.6780   20.6940 C   0  0  0  0  0  3  0  0  0  0  0  0
  -25.9350  -26.9160   19.4880 C   0  0  0  0  0  3  0  0  0  0  0  0
  -24.7480  -27.6660   19.5180 C   0  0  0  0  0  3  0  0  0  0  0  0
  -23.5000  -29.7910   20.1950 C   0  0  0  0  0  2  0  0  0  0  0  0
  -24.5870  -31.0570   22.1060 N   0  0  0  0  0  0  0  0  0  0  0  0
  -23.4730  -32.1300   23.7630 O   0  0  0  0  0  0  0  0  0  0  0  0
  -22.6630  -29.4490   22.5410 C   0  0  0  0  0  0  0  0  0  0  0  0
  -21.3350  -29.2760   22.4230 N   0  0  0  0  0  0  0  0  0  0  0  0
  -23.3480  -28.8140   23.3470 O   0  0  0  0  0  0  0  0  0  0  0  0
  -20.8430  -29.8390   21.7430 H   0  0  0  0  0  0  0  0  0  0  0  0
  -17.9600  -28.0900   22.9260 C   0  0  0  0  0  0  0  0  0  0  0  0
  -20.5180  -28.3400   23.1940 C   0  0  0  0  0  3  0  0  0  0  0  0
  -20.6150  -26.9080   22.6210 C   0  0  0  0  0  2  0  0  0  0  0  0
  -19.5110  -26.5850   21.6080 C   0  0  0  0  0  2  0  0  0  0  0  0
  -18.1310  -26.7370   22.2550 C   0  0  0  0  0  2  0  0  0  0  0  0
  -19.0810  -28.8490   23.3530 C   0  0  0  0  0  0  0  0  0  0  0  0
  -18.8700  -30.1130   23.9430 C   0  0  0  0  0  3  0  0  0  0  0  0
  -17.5680  -30.6220   24.1080 C   0  0  0  0  0  3  0  0  0  0  0  0
  -16.4600  -29.8610   23.6970 C   0  0  0  0  0  3  0  0  0  0  0  0
  -16.6570  -28.5970   23.1130 C   0  0  0  0  0  3  0  0  0  0  0  0
  -25.8440  -32.4660   23.8240 C   0  0  0  0  0  3  0  0  0  0  0  0
  -26.3720  -31.6790   25.0860 C   0  0  1  0  0  0  0  0  0  0  0  0
  -25.2930  -31.4440   26.1680 C   0  0  0  0  0  1  0  0  0  0  0  0
  -26.9360  -30.3000   24.6730 C   0  0  0  0  0  1  0  0  0  0  0  0
  -27.5380  -32.4580   25.7350 C   0  0  0  0  0  1  0  0  0  0  0  0
  -25.5520  -33.8660   24.1660 N   0  0  0  0  0  0  0  0  0  0  0  0
  -25.8900  -34.9180   23.4110 C   0  0  0  0  0  0  0  0  0  0  0  0
  -26.5540  -34.8140   22.3750 O   0  0  0  0  0  0  0  0  0  0  0  0
  -24.9660  -34.0240   24.9740 H   0  0  0  0  0  0  0  0  0  0  0  0
  -24.1820  -36.7330   23.0700 C   0  0  0  0  0  1  0  0  0  0  0  0
  -25.4170  -36.3070   23.8790 C   0  0  0  0  0  3  0  0  0  0  0  0
  -27.5620  -37.1620   24.7150 C   0  0  0  0  0  1  0  0  0  0  0  0
  -26.4610  -37.3460   23.7740 N   0  0  0  0  0  0  0  0  0  0  0  0
  -26.0660  -38.2690   23.9310 H   0  0  0  0  0  0  0  0  0  0  0  0
  1  3  1  0
  1 49  1  0
  2  1  1  0
  5  4  1  0
  5  1  1  0
  6  5  1  0
  6  7  1  0
  8 11  1  0
  8  7  1  0
  9  8  2  0
 10  9  1  0
 11 12  1  0
 13 12  1  0
 14 19  1  0
 15 16  1  0
 15 14  1  0
 17 16  1  0
 17 24  1  0
 17 18  1  0
 19 13  1  0
 19 18  1  0
 20 13  2  0
 21 22  2  0
 22 41  1  0
 23 22  1  0
 23 26  1  0
 24 21  1  0
 24 25  1  0
 25 23  2  0
 26 27  1  0
 27 28  2  0
 29 32  1  0
 29 28  1  0
 30 29  2  0
 31 30  1  0
 31 26  2  0
 32 33  1  0
 33 34  1  0
 34 35  2  0
 36 35  1  0
 36 40  1  0
 37 36  2  0
 38 33  2  0
 38 37  1  0
 39 38  1  0
 41 42  1  0
 42 45  1  0
 42 44  1  0
 43 41  2  0
 46 47  1  0
 46 21  1  0
 48 46  1  0
 50 49  1  0
 51 50  1  0
 52 51  1  0
 53 52  1  0
 54 65  2  0
 55 53  1  0
 55 60  1  0
 56 64  1  0
 56 66  1  0
 57 63  1  0
 57 59  1  0
 58 64  1  0
 59 58  1  0
 60 59  2  0
 61 62  1  0
 61 55  2  0
 62 57  2  0
 63 56  1  0
 64 54  1  0
 66 68  2  0
 67 66  1  0
 69 67  1  0
 70 79  2  0
 70 75  1  0
 71 67  1  0
 71 75  1  0
 72 71  1  0
 73 74  1  0
 73 72  1  0
 74 70  1  0
 75 76  2  0
 76 77  1  0
 78 77  2  0
 79 78  1  0
 80 54  1  0
 80 85  1  0
 80 81  1  0
 81 84  1  1
 81 82  1  0
 83 81  1  0
 85 88  1  0
 86 90  1  0
 86 85  1  0
 87 86  2  0
 90 89  1  0
 92 90  1  0
 92 93  1  0
 92 91  1  0
M  ISO  4  12 100  13 100  52 101  53 101
M  END
>  <TORSDO>  (13) 
F 26

>  <SCORE>  (13) 
-11.614

>  <name>  (13) 
12

>  <ligand_id>  (13) 
12

>  <original_smiles>  (13) 
[H]N=C(C([H])([H])C([H])([H])C(=O)N1C([H])([H])C([H])([H])C([H])([H])C([H])(n2nc(-c3c([H])c([H])c(Oc4c([H])c([H])c(F)c([H])c4F)c([H])c3[H])c(C(=O)N([H])[H])c2N([H])[H])C1([H])[H])C([H])([H])C([H])([H])C([H])(C([H])([H])[H])[N+]([H])([H])C([H])([H])C([H])([H])C([H])([H])C([H])([H])Oc1c([H])c([H])c2c(c1[H])C([H])([H])N(C(=O)C([H])(N([H])C(=O)C([H])(N([H])C([H])([H])[H])C([H])([H])[H])C(C([H])([H])[H])(C([H])([H])[H])C([H])([H])[H])C([H])(C(=O)N([H])C1([H])c3c([H])c([H])c([H])c([H])c3C([H])([H])C([H])([H])C1([H])[H])C2([H])[H]

>  <smiles>  (13) 
[H]N=C(C([H])([H])C([H])([H])C(=O)N1C([H])([H])C([H])([H])C([H])([H])C([H])(n2nc(-c3c([H])c([H])c(Oc4c([H])c([H])c(F)c([H])c4F)c([H])c3[H])c(C(=O)N([H])[H])c2N([H])[H])C1([H])[H])C([H])([H])C([H])([H])C([H])(C([H])([H])[H])[N+]([H])([H])C([H])([H])C([H])([H])C([H])([H])C([H])([H])Oc1c([H])c([H])c2c(c1[H])C([H])([H])N(C(=O)C([H])(N([H])C(=O)C([H])(N([H])C([H])([H])[H])C([H])([H])[H])C(C([H])([H])[H])(C([H])([H])[H])C([H])([H])[H])C([H])(C(=O)N([H])C1([H])c3c([H])c([H])c([H])c([H])c3C([H])([H])C([H])([H])C1([H])[H])C2([H])[H]

$$$$
13:0:0
     RDKit          3D

 89 98  0  0  1  0  0  0  0  0999 V2000
  -29.1110  -20.0020   19.7140 C   0  0  0  0  0  0  0  0  0  0  0  0
  -29.9390  -18.6320   20.2830 C   0  0  0  0  0  3  0  0  0  0  0  0
  -30.2980  -19.3470   21.6030 C   0  0  0  0  0  3  0  0  0  0  0  0
  -29.9020  -20.8720   21.6320 C   0  0  0  0  0  3  0  0  0  0  0  0
  -31.3570  -20.4450   21.6940 C   0  0  1  0  0  0  0  0  0  0  0  0
  -32.1050  -20.5800   23.0080 C   0  0  0  0  0  1  0  0  0  0  0  0
  -32.3100  -20.7550   20.5460 C   0  0  0  0  0  1  0  0  0  0  0  0
  -29.2250  -21.2630   20.4150 N   0  0  0  0  0  0  0  0  0  0  0  0
  -28.5080  -19.9230   18.6420 O   0  0  0  0  0  0  0  0  0  0  0  0
  -29.5600  -16.8680   20.3250 C   0  0  0  0  0  2  0  0  0  0  0  0
  -30.4470  -15.3600   20.1480 C   0  0  0  0  0  0  0  0  0  0  0  0
  -30.4270  -12.9210   19.2430 C   0  0  0  0  0  2  0  0  0  0  0  0
  -29.4610  -12.7610   18.0390 C   0  0  0  0  0  2  0  0  0  0  0  0
  -28.0210  -12.4930   18.5180 C   0  0  0  0  0  2  0  0  0  0  0  0
  -27.6170  -13.4320   19.6800 C   0  0  0  0  0  3  0  0  0  0  0  0
  -28.7020  -13.5330   20.7700 C   0  0  0  0  0  2  0  0  0  0  0  0
  -29.9260  -14.0350   20.1270 N   0  0  0  0  0  0  0  0  0  0  0  0
  -31.6540  -15.3880   19.8600 O   0  0  0  0  0  0  0  0  0  0  0  0
  -25.2780  -13.9890   20.5320 C   0  0  0  0  0  0  0  0  0  0  0  0
  -24.2240  -13.2110   20.9210 C   0  0  0  0  0  0  0  0  0  0  0  0
  -24.6800  -11.8590   20.8460 C   0  0  0  0  0  0  0  0  0  0  0  0
  -26.3040  -13.1130   20.2290 N   0  0  0  0  0  0  0  0  0  0  0  0
  -25.9600  -11.8240   20.4870 N   0  0  0  0  0  0  0  0  0  0  0  0
  -23.9510  -10.5970   21.0360 C   0  0  0  0  0  0  0  0  0  0  0  0
  -24.3950   -9.6150   21.9490 C   0  0  0  0  0  3  0  0  0  0  0  0
  -23.6640   -8.4210   22.1280 C   0  0  0  0  0  3  0  0  0  0  0  0
  -22.4750   -8.1990   21.3940 C   0  0  0  0  0  0  0  0  0  0  0  0
  -22.0500   -9.1700   20.4690 C   0  0  0  0  0  3  0  0  0  0  0  0
  -22.7810  -10.3550   20.2880 C   0  0  0  0  0  3  0  0  0  0  0  0
  -21.7150   -7.0580   21.4830 O   0  0  0  0  0  0  0  0  0  0  0  0
  -21.6650   -6.3150   22.6340 C   0  0  0  0  0  0  0  0  0  0  0  0
  -21.2150   -6.8620   23.8560 C   0  0  0  0  0  3  0  0  0  0  0  0
  -21.1140   -6.0440   24.9990 C   0  0  0  0  0  3  0  0  0  0  0  0
  -21.4520   -4.6790   24.9210 C   0  0  0  0  0  0  0  0  0  0  0  0
  -21.8950   -4.1320   23.7040 C   0  0  0  0  0  3  0  0  0  0  0  0
  -21.9970   -4.9460   22.5630 C   0  0  0  0  0  0  0  0  0  0  0  0
  -22.4040   -4.4090   21.3880 F   0  0  0  0  0  0  0  0  0  0  0  0
  -21.3480   -3.8900   26.0160 F   0  0  0  0  0  0  0  0  0  0  0  0
  -22.8400  -13.6910   21.2490 C   0  0  0  0  0  0  0  0  0  0  0  0
  -22.1370  -12.9830   22.1260 N   0  0  0  0  0  0  0  0  0  0  0  0
  -22.3930  -14.7290   20.7620 O   0  0  0  0  0  0  0  0  0  0  0  0
  -22.5120  -12.1430   22.5400 H   0  0  0  0  0  0  0  0  0  0  0  0
  -21.2090  -13.2870   22.3870 H   0  0  0  0  0  0  0  0  0  0  0  0
  -25.4440  -15.3630   20.3810 N   0  0  0  0  0  0  0  0  0  0  0  0
  -24.6870  -16.0200   20.5370 H   0  0  0  0  0  0  0  0  0  0  0  0
  -26.2880  -15.8050   20.0400 H   0  0  0  0  0  0  0  0  0  0  0  0
  -29.1570  -22.8950   20.0160 C   0  0  0  0  0  3  0  0  0  0  0  0
  -28.1270  -24.3210   20.4010 C   0  0  0  0  0  3  0  0  0  0  0  0
  -28.3180  -25.9560   20.2390 O   0  0  0  0  0  0  0  0  0  0  0  0
  -24.6460  -31.8770   23.1850 C   0  0  0  0  0  0  0  0  0  0  0  0
  -27.2750  -27.0230   20.2070 C   0  0  0  0  0  0  0  0  0  0  0  0
  -23.4770  -30.4630   21.5450 C   0  0  0  0  0  3  0  0  0  0  0  0
  -24.9510  -28.8700   20.1390 C   0  0  0  0  0  0  0  0  0  0  0  0
  -26.0410  -30.7050   21.4110 C   0  0  0  0  0  2  0  0  0  0  0  0
  -26.1310  -29.2930   20.7630 C   0  0  0  0  0  0  0  0  0  0  0  0
  -27.2890  -28.3930   20.7680 C   0  0  0  0  0  3  0  0  0  0  0  0
  -26.0620  -26.7460   19.5380 C   0  0  0  0  0  3  0  0  0  0  0  0
  -24.9410  -27.6160   19.5050 C   0  0  0  0  0  3  0  0  0  0  0  0
  -23.7220  -29.7760   20.1720 C   0  0  0  0  0  2  0  0  0  0  0  0
  -24.7420  -31.0430   22.1010 N   0  0  0  0  0  0  0  0  0  0  0  0
  -23.5510  -32.1550   23.7000 O   0  0  0  0  0  0  0  0  0  0  0  0
  -22.7880  -29.4630   22.5100 C   0  0  0  0  0  0  0  0  0  0  0  0
  -21.4580  -29.2950   22.3880 N   0  0  0  0  0  0  0  0  0  0  0  0
  -23.4580  -28.8370   23.3350 O   0  0  0  0  0  0  0  0  0  0  0  0
  -20.9700  -29.8490   21.6980 H   0  0  0  0  0  0  0  0  0  0  0  0
  -18.0770  -28.0910   22.9200 C   0  0  0  0  0  0  0  0  0  0  0  0
  -20.6400  -28.3530   23.1600 C   0  0  0  0  0  3  0  0  0  0  0  0
  -20.7340  -26.9250   22.5730 C   0  0  0  0  0  2  0  0  0  0  0  0
  -19.6220  -26.6120   21.5660 C   0  0  0  0  0  2  0  0  0  0  0  0
  -18.2460  -26.7500   22.2260 C   0  0  0  0  0  2  0  0  0  0  0  0
  -19.2010  -28.8510   23.3440 C   0  0  0  0  0  0  0  0  0  0  0  0
  -18.9850  -30.1040   23.9560 C   0  0  0  0  0  3  0  0  0  0  0  0
  -17.6810  -30.6000   24.1460 C   0  0  0  0  0  3  0  0  0  0  0  0
  -16.5730  -29.8380   23.7350 C   0  0  0  0  0  3  0  0  0  0  0  0
  -16.7720  -28.5850   23.1290 C   0  0  0  0  0  3  0  0  0  0  0  0
  -25.9060  -32.5350   23.8240 C   0  0  0  0  0  3  0  0  0  0  0  0
  -26.4120  -31.7810   25.1150 C   0  0  1  0  0  0  0  0  0  0  0  0
  -25.3070  -31.5410   26.1710 C   0  0  0  0  0  1  0  0  0  0  0  0
  -27.0170  -30.4050   24.7520 C   0  0  0  0  0  1  0  0  0  0  0  0
  -27.5450  -32.5940   25.7860 C   0  0  0  0  0  1  0  0  0  0  0  0
  -25.5700  -33.9320   24.1540 N   0  0  0  0  0  0  0  0  0  0  0  0
  -25.8900  -34.9960   23.4050 C   0  0  0  0  0  0  0  0  0  0  0  0
  -26.5610  -34.9070   22.3750 O   0  0  0  0  0  0  0  0  0  0  0  0
  -24.9730  -34.0740   24.9550 H   0  0  0  0  0  0  0  0  0  0  0  0
  -24.1420  -36.7780   23.0650 C   0  0  0  0  0  1  0  0  0  0  0  0
  -25.3890  -36.3790   23.8720 C   0  0  0  0  0  3  0  0  0  0  0  0
  -27.5090  -37.2900   24.7140 C   0  0  0  0  0  1  0  0  0  0  0  0
  -26.4100  -37.4440   23.7660 N   0  0  0  0  0  0  0  0  0  0  0  0
  -25.9910  -38.3590   23.9120 H   0  0  0  0  0  0  0  0  0  0  0  0
  1  2  1  0
  1  8  1  0
  2 10  1  0
  2  3  1  0
  3  4  1  0
  3  5  1  0
  4  8  1  0
  4  5  1  0
  5  6  1  1
  7  5  1  0
  9  1  2  0
 11 10  1  0
 12 17  1  0
 13 14  1  0
 13 12  1  0
 15 14  1  0
 15 22  1  0
 15 16  1  0
 17 11  1  0
 17 16  1  0
 18 11  2  0
 19 20  2  0
 20 39  1  0
 21 20  1  0
 21 24  1  0
 22 23  1  0
 22 19  1  0
 23 21  2  0
 24 25  1  0
 25 26  2  0
 27 30  1  0
 27 26  1  0
 28 27  2  0
 29 28  1  0
 29 24  2  0
 30 31  1  0
 31 32  1  0
 32 33  2  0
 34 33  1  0
 34 38  1  0
 35 34  2  0
 36 31  2  0
 36 35  1  0
 37 36  1  0
 39 40  1  0
 40 43  1  0
 40 42  1  0
 41 39  2  0
 44 19  1  0
 44 45  1  0
 46 44  1  0
 47 48  2  0
 47  8  1  0
 49 48  1  0
 50 61  2  0
 51 49  1  0
 51 56  1  0
 52 60  1  0
 52 62  1  0
 53 59  1  0
 53 55  1  0
 54 60  1  0
 55 56  2  0
 55 54  1  0
 57 51  2  0
 58 57  1  0
 58 53  2  0
 59 52  1  0
 60 50  1  0
 62 64  2  0
 63 62  1  0
 65 63  1  0
 66 75  2  0
 66 71  1  0
 67 63  1  0
 67 71  1  0
 68 67  1  0
 69 70  1  0
 69 68  1  0
 70 66  1  0
 71 72  2  0
 72 73  1  0
 74 73  2  0
 75 74  1  0
 76 50  1  0
 76 81  1  0
 76 77  1  0
 77 80  1  1
 77 78  1  0
 79 77  1  0
 81 84  1  0
 82 86  1  0
 82 81  1  0
 83 82  2  0
 86 85  1  0
 88 86  1  0
 88 89  1  0
 88 87  1  0
M  ISO  4  10 100  11 100  48 101  49 101
M  END
>  <TORSDO>  (14) 
F 19

>  <SCORE>  (14) 
-17.008

>  <name>  (14) 
13

>  <ligand_id>  (14) 
13

>  <original_smiles>  (14) 
[H]c1c([H])c([H])c2c(c1[H])C([H])([H])C([H])([H])C([H])([H])C2([H])N([H])C(=O)C1([H])N(C(=O)C([H])(N([H])C(=O)C([H])(N([H])C([H])([H])[H])C([H])([H])[H])C(C([H])([H])[H])(C([H])([H])[H])C([H])([H])[H])C([H])([H])c2c([H])c(OC([H])([H])C([H])([H])N3C(=O)C([H])(C([H])([H])C(=O)N4C([H])([H])C([H])([H])C([H])([H])C([H])(n5nc(-c6c([H])c([H])c(Oc7c([H])c([H])c(F)c([H])c7F)c([H])c6[H])c(C(=O)N([H])[H])c5N([H])[H])C4([H])[H])C4([H])C3([H])C4(C([H])([H])[H])C([H])([H])[H])c([H])c([H])c2C1([H])[H]

>  <smiles>  (14) 
[H]c1c([H])c([H])c2c(c1[H])C([H])([H])C([H])([H])C([H])([H])C2([H])N([H])C(=O)C1([H])N(C(=O)C([H])(N([H])C(=O)C([H])(N([H])C([H])([H])[H])C([H])([H])[H])C(C([H])([H])[H])(C([H])([H])[H])C([H])([H])[H])C([H])([H])c2c([H])c(OC([H])([H])C([H])([H])N3C(=O)C([H])(C([H])([H])C(=O)N4C([H])([H])C([H])([H])C([H])([H])C([H])(n5nc(-c6c([H])c([H])c(Oc7c([H])c([H])c(F)c([H])c7F)c([H])c6[H])c(C(=O)N([H])[H])c5N([H])[H])C4([H])[H])C4([H])C3([H])C4(C([H])([H])[H])C([H])([H])[H])c([H])c([H])c2C1([H])[H]

$$$$
14:0:0
     RDKit          3D

 98101  0  0  1  0  0  0  0  0999 V2000
  -21.7330  -24.0370   21.8300 C   0  0  0  0  0  2  0  0  0  0  0  0
  -19.5120  -26.6950   19.5400 C   0  0  1  0  0  0  0  0  0  0  0  0
  -23.5860  -25.1430   22.7880 C   0  0  0  0  0  2  0  0  0  0  0  0
  -20.4750  -25.4630   21.6520 C   0  0  0  0  0  2  0  0  0  0  0  0
  -23.5020  -23.7950   21.9210 C   0  0  0  0  0  3  0  0  0  0  0  0
  -22.2990  -26.2520   22.9740 C   0  0  0  0  0  3  0  0  0  0  0  0
  -19.3990  -28.0680   19.1830 C   0  0  0  0  0  1  0  0  0  0  0  0
  -20.7000  -26.3780   22.0160 C   0  0  2  0  0  0  0  0  0  0  0  0
  -22.4230  -26.6400   24.4900 C   0  0  0  0  0  1  0  0  0  0  0  0
  -19.0920  -28.2560   17.6490 C   0  0  0  0  0 15  0  0  0  0  0  0
  -19.9090  -26.5570   23.5060 C   0  0  0  0  0  1  0  0  0  0  0  0
  -20.3860  -27.1240   19.8120 N   0  0  0  0  0  2  0  0  0  0  0  0
  -20.3240  -26.1350   19.5340 H   0  0  0  0  0  0  0  0  0  0  0  0
  -24.9120  -22.8090   21.0030 C   0  0  0  0  0  2  0  0  0  0  0  0
  -26.7020  -22.0710   21.1600 C   0  0  0  0  0  3  0  0  0  0  0  0
  -27.8190  -20.6270   20.4930 C   0  0  0  0  0  3  0  0  0  0  0  0
  -29.5360  -19.7480   20.7500 C   0  0  0  0  0  3  0  0  0  0  0  0
  -30.3550  -18.0010   20.5780 C   0  0  0  0  0  3  0  0  0  0  0  0
  -31.8450  -16.8750   20.8540 C   0  0  0  0  0  0  0  0  0  0  0  0
  -32.7030  -14.3580   20.4630 C   0  0  0  0  0  2  0  0  0  0  0  0
  -32.1560  -13.7720   19.1190 C   0  0  0  0  0  2  0  0  0  0  0  0
  -30.6490  -13.4460   19.2050 C   0  0  0  0  0  2  0  0  0  0  0  0
  -29.9080  -14.5510   19.9890 C   0  0  0  0  0  3  0  0  0  0  0  0
  -30.5580  -14.8050   21.3450 C   0  0  0  0  0  2  0  0  0  0  0  0
  -31.7810  -15.4570   20.9880 N   0  0  0  0  0  0  0  0  0  0  0  0
  -33.0690  -17.1680   20.7600 O   0  0  0  0  0  0  0  0  0  0  0  0
  -27.4870  -15.2520   20.1400 C   0  0  0  0  0  0  0  0  0  0  0  0
  -26.3540  -14.5430   20.3920 C   0  0  0  0  0  0  0  0  0  0  0  0
  -26.7700  -13.1920   20.5940 C   0  0  0  0  0  0  0  0  0  0  0  0
  -28.5090  -14.3260   20.1880 N   0  0  0  0  0  0  0  0  0  0  0  0
  -28.0880  -13.0920   20.5360 N   0  0  0  0  0  0  0  0  0  0  0  0
  -25.9870  -11.9720   20.7630 C   0  0  0  0  0  0  0  0  0  0  0  0
  -26.1790  -11.1190   21.8710 C   0  0  0  0  0  3  0  0  0  0  0  0
  -25.3960   -9.9550   22.0110 C   0  0  0  0  0  3  0  0  0  0  0  0
  -24.4150   -9.6400   21.0420 C   0  0  0  0  0  0  0  0  0  0  0  0
  -24.2500  -10.4810   19.9280 C   0  0  0  0  0  3  0  0  0  0  0  0
  -25.0330  -11.6360   19.7850 C   0  0  0  0  0  3  0  0  0  0  0  0
  -23.6230   -8.5200   21.0840 O   0  0  0  0  0  0  0  0  0  0  0  0
  -23.0590   -8.0850   22.2550 C   0  0  0  0  0  0  0  0  0  0  0  0
  -22.2310   -8.9180   23.0390 C   0  0  0  0  0  3  0  0  0  0  0  0
  -21.6160   -8.4070   24.1980 C   0  0  0  0  0  3  0  0  0  0  0  0
  -21.8210   -7.0640   24.5710 C   0  0  0  0  0  0  0  0  0  0  0  0
  -22.6420   -6.2330   23.7890 C   0  0  0  0  0  3  0  0  0  0  0  0
  -23.2570   -6.7420   22.6330 C   0  0  0  0  0  0  0  0  0  0  0  0
  -24.0310   -5.9330   21.8690 F   0  0  0  0  0  0  0  0  0  0  0  0
  -21.2230   -6.5700   25.6800 F   0  0  0  0  0  0  0  0  0  0  0  0
  -24.9550  -15.0760   20.3340 C   0  0  0  0  0  0  0  0  0  0  0  0
  -24.0520  -14.4980   21.1170 N   0  0  0  0  0  0  0  0  0  0  0  0
  -24.6700  -16.0420   19.6290 O   0  0  0  0  0  0  0  0  0  0  0  0
  -24.2980  -13.7180   21.7090 H   0  0  0  0  0  0  0  0  0  0  0  0
  -23.1010  -14.8390   21.1240 H   0  0  0  0  0  0  0  0  0  0  0  0
  -27.7190  -16.5910   19.8460 N   0  0  0  0  0  0  0  0  0  0  0  0
  -26.9620  -17.2590   19.7530 H   0  0  0  0  0  0  0  0  0  0  0  0
  -28.6170  -16.9770   19.5950 H   0  0  0  0  0  0  0  0  0  0  0  0
  -21.5650  -27.2860   18.4110 C   0  0  0  0  0  1  0  0  0  0  0  0
  -23.1770  -26.5880   18.0220 C   0  0  0  0  0  2  0  0  0  0  0  0
  -24.6650  -26.3570   18.9580 C   0  0  0  0  0  2  0  0  0  0  0  0
  -26.2790  -26.5350   18.9310 O   0  0  0  0  0  0  0  0  0  0  0  0
  -24.5790  -31.6920   22.4900 C   0  0  0  0  0  0  0  0  0  0  0  0
  -26.7580  -27.7450   18.5370 C   0  0  0  0  0  3  0  0  0  0  0  0
  -23.4200  -30.7460   20.5790 C   0  0  0  0  0  3  0  0  0  0  0  0
  -24.8360  -29.6740   18.7320 C   0  0  0  0  0  0  0  0  0  0  0  0
  -25.9560  -30.8910   20.5740 C   0  0  0  0  0  2  0  0  0  0  0  0
  -25.9300  -29.7410   19.5940 C   0  0  0  0  0  0  0  0  0  0  0  0
  -26.9310  -28.7500   19.5190 C   0  0  0  0  0  3  0  0  0  0  0  0
  -26.0010  -28.0100   17.4110 C   0  0  0  0  0  2  0  0  0  0  0  0
  -24.9130  -28.8770   17.5830 C   0  0  0  0  0  3  0  0  0  0  0  0
  -23.6910  -30.5910   19.0470 C   0  0  0  0  0  2  0  0  0  0  0  0
  -24.6660  -31.1530   21.2510 N   0  0  0  0  0  0  0  0  0  0  0  0
  -23.4860  -31.8920   23.0420 O   0  0  0  0  0  0  0  0  0  0  0  0
  -22.9320  -29.5010   21.3470 C   0  0  0  0  0  0  0  0  0  0  0  0
  -21.7140  -29.5020   21.7980 N   0  0  0  0  0  0  0  0  0  0  0  0
  -23.6520  -28.5440   21.6090 O   0  0  0  0  0  0  0  0  0  0  0  0
  -21.1440  -30.3340   21.7540 H   0  0  0  0  0  0  0  0  0  0  0  0
  -17.7300  -28.3810   22.5050 C   0  0  0  0  0  3  0  0  0  0  0  0
  -21.1470  -28.2460   22.2470 C   0  0  0  0  0  1  0  0  0  0  0  0
  -21.0890  -26.5430   20.4860 C   0  0  0  0  0  2  0  0  0  0  0  0
  -18.8510  -26.3330   19.4310 C   0  0  0  0  0  1  0  0  0  0  0  0
  -17.0200  -27.1180   20.9420 C   0  0  0  0  0 15  0  0  0  0  0  0
  -19.3420  -28.8760   22.9400 C   0  0  0  0  0  3  0  0  0  0  0  0
  -19.4600  -30.0010   23.8160 C   0  0  0  0  0  3  0  0  0  0  0  0
  -18.3620  -30.7020   24.3470 C   0  0  0  0  0  3  0  0  0  0  0  0
  -17.0510  -30.3100   24.0300 C   0  0  0  0  0  3  0  0  0  0  0  0
  -16.7630  -29.2220   23.1540 C   0  0  0  0  0  3  0  0  0  0  0  0
  -25.8650  -32.1020   23.2430 C   0  0  0  0  0  3  0  0  0  0  0  0
  -25.5550  -33.3580   23.9260 N   0  0  0  0  0  0  0  0  0  0  0  0
  -25.9710  -34.5600   23.5090 C   0  0  0  0  0  0  0  0  0  0  0  0
  -26.7350  -34.7100   22.5510 O   0  0  0  0  0  0  0  0  0  0  0  0
  -24.8920  -33.3140   24.6860 H   0  0  0  0  0  0  0  0  0  0  0  0
  -24.4180  -36.5380   23.4410 C   0  0  0  0  0  1  0  0  0  0  0  0
  -25.4620  -35.7880   24.2850 C   0  0  0  0  0  3  0  0  0  0  0  0
  -27.4420  -36.1480   25.6890 C   0  0  0  0  0  1  0  0  0  0  0  0
  -26.5430  -36.7120   24.6850 N   0  0  0  0  0  0  0  0  0  0  0  0
  -26.1580  -37.5770   25.0550 H   0  0  0  0  0  0  0  0  0  0  0  0
  -26.3640  -31.0020   24.2520 C   0  0  1  0  0  0  0  0  0  0  0  0
  -25.2650  -30.4790   25.2050 C   0  0  0  0  0  1  0  0  0  0  0  0
  -26.9530  -29.7770   23.5100 C   0  0  0  0  0  1  0  0  0  0  0  0
  -27.5100  -31.5890   25.1050 C   0  0  0  0  0  1  0  0  0  0  0  0
  1  5  1  0
  2 12  1  0
  3  6  1  0
  4  1  1  0
  4  8  1  0
  5 14  1  0
  5  3  1  0
  6  9  1  0
  7  2  1  0
  8  6  1  0
  8 11  1  1
 12 77  1  0
  2 13  1  6
 14 15  1  0
 16 17  1  0
 16 15  2  0
 18 17  2  0
 18 19  1  0
 19 25  1  0
 20 25  1  0
 21 22  1  0
 21 20  1  0
 23 22  1  0
 23 30  1  0
 23 24  1  0
 25 24  1  0
 26 19  2  0
 27 30  1  0
 27 28  2  0
 28 29  1  0
 29 32  1  0
 30 31  1  0
 31 29  2  0
 32 33  1  0
 33 34  2  0
 35 38  1  0
 35 34  1  0
 36 35  2  0
 37 36  1  0
 37 32  2  0
 38 39  1  0
 39 44  2  0
 39 40  1  0
 40 41  2  0
 41 42  1  0
 42 46  1  0
 43 42  2  0
 44 43  1  0
 45 44  1  0
 47 28  1  0
 47 48  1  0
 48 51  1  0
 48 50  1  0
 49 47  2  0
 52 27  1  0
 53 52  1  0
 54 52  1  0
 56 55  1  0
 56 57  1  0
 58 57  1  0
 59 70  2  0
 60 58  1  0
 60 65  1  0
 61 69  1  0
 61 71  1  0
 62 68  1  0
 62 64  1  0
 63 69  1  0
 64 63  1  0
 65 64  2  0
 66 67  1  0
 66 60  1  0
 67 62  2  0
 68 61  1  0
 69 59  1  0
 71 73  2  0
 71 72  1  0
 72 76  1  0
 74 72  1  0
 75 80  2  0
 75 84  1  0
 77  8  1  0
 78  2  1  0
 80 81  1  0
 81 82  2  0
 83 82  1  0
 84 83  2  0
 85 59  1  0
 85 86  1  0
 85 95  1  0
 86 89  1  0
 87 86  1  0
 87 91  1  0
 88 87  2  0
 91 90  1  0
 91 93  1  0
 93 94  1  0
 93 92  1  0
 95 98  1  1
 95 96  1  0
 97 95  1  0
M  ISO  4  18 100  19 100  57 101  58 101
M  END
>  <TORSDO>  (15) 
F 24

>  <SCORE>  (15) 
-5.064

>  <name>  (15) 
14

>  <ligand_id>  (15) 
14

>  <original_smiles>  (15) 
[H]c1c([H])c([H])c2c(c1[H])C([H])([H])C([H])([H])C([H])([H])C2([H])N([H])C(=O)C1([H])N(C(=O)C([H])(N([H])C(=O)C([H])(N([H])C([H])([H])[H])C([H])([H])[H])C(C([H])([H])[H])(C([H])([H])[H])C([H])([H])[H])C([H])([H])c2c([H])c(OC([H])([H])C([H])([H])C([H])([H])[N+]3([H])C([H])(C([H])([H])[H])C([H])([H])C4([H])C([H])([H])C([H])(C([H])([H])C([H])([H])C([H])([H])C([H])([H])C([H])([H])C(=O)N5C([H])([H])C([H])([H])C([H])([H])C([H])(n6nc(-c7c([H])c([H])c(Oc8c([H])c([H])c(F)c([H])c8F)c([H])c7[H])c(C(=O)N([H])[H])c6N([H])[H])C5([H])[H])C([H])([H])C([H])(C([H])([H])[H])C43C([H])([H])[H])c([H])c([H])c2C1([H])[H]

>  <smiles>  (15) 
[H]c1c([H])c([H])c2c(c1[H])C([H])([H])C([H])([H])C([H])([H])C2([H])N([H])C(=O)C1([H])N(C(=O)C([H])(N([H])C(=O)C([H])(N([H])C([H])([H])[H])C([H])([H])[H])C(C([H])([H])[H])(C([H])([H])[H])C([H])([H])[H])C([H])([H])c2c([H])c(OC([H])([H])C([H])([H])C([H])([H])[N+]3([H])C([H])(C([H])([H])[H])C([H])([H])C4([H])C([H])([H])C([H])(C([H])([H])C([H])([H])C([H])([H])C([H])([H])C([H])([H])C(=O)N5C([H])([H])C([H])([H])C([H])([H])C([H])(n6nc(-c7c([H])c([H])c(Oc8c([H])c([H])c(F)c([H])c8F)c([H])c7[H])c(C(=O)N([H])[H])c6N([H])[H])C5([H])[H])C([H])([H])C([H])(C([H])([H])[H])C43C([H])([H])[H])c([H])c([H])c2C1([H])[H]

$$$$
15:0:0
     RDKit          3D

 95103  0  0  1  0  0  0  0  0999 V2000
  -30.8890  -22.3260   21.3470 C   0  0  0  0  0  3  0  0  0  0  0  0
  -31.2860  -19.6830   20.8920 C   0  0  0  0  0  2  0  0  0  0  0  0
  -30.4510  -20.0770   22.7720 C   0  0  0  0  0  2  0  0  0  0  0  0
  -31.3340  -20.9170   21.8200 C   0  0  0  0  0  3  0  0  0  0  0  0
  -31.1030  -18.8280   22.1550 C   0  0  0  0  0  3  0  0  0  0  0  0
  -30.2410  -17.6240   22.0170 N   0  0  0  0  0  4  0  0  0  0  0  0
  -29.4160  -17.8370   21.4790 H   0  0  0  0  0  0  0  0  0  0  0  0
  -29.9350  -17.3560   22.9380 H   0  0  0  0  0  0  0  0  0  0  0  0
  -30.9440  -16.4680   21.4090 C   0  0  0  0  0  2  0  0  0  0  0  0
  -30.1860  -15.1240   21.5520 C   0  0  0  0  0  2  0  0  0  0  0  0
  -30.7680  -14.0080   20.6610 C   0  0  0  0  0  0  0  0  0  0  0  0
  -30.3990  -11.9240   19.3850 C   0  0  0  0  0  2  0  0  0  0  0  0
  -29.4500  -12.1920   18.2000 C   0  0  0  0  0  2  0  0  0  0  0  0
  -27.9800  -12.0650   18.6390 C   0  0  0  0  0  2  0  0  0  0  0  0
  -27.6710  -12.8700   19.9290 C   0  0  0  0  0  3  0  0  0  0  0  0
  -28.7270  -12.5880   21.0210 C   0  0  0  0  0  2  0  0  0  0  0  0
  -30.0570  -12.8680   20.4580 N   0  0  0  0  0  0  0  0  0  0  0  0
  -31.8470  -14.2130   20.0960 O   0  0  0  0  0  0  0  0  0  0  0  0
  -25.2880  -13.5050   20.6760 C   0  0  0  0  0  0  0  0  0  0  0  0
  -24.2070  -12.7420   21.0270 C   0  0  0  0  0  0  0  0  0  0  0  0
  -24.6400  -11.3840   20.9480 C   0  0  0  0  0  0  0  0  0  0  0  0
  -26.3140  -12.6100   20.4080 N   0  0  0  0  0  0  0  0  0  0  0  0
  -25.9270  -11.3280   20.6270 N   0  0  0  0  0  0  0  0  0  0  0  0
  -23.8900  -10.1300   21.1020 C   0  0  0  0  0  0  0  0  0  0  0  0
  -24.2550   -9.1630   22.0640 C   0  0  0  0  0  3  0  0  0  0  0  0
  -23.5070   -7.9750   22.2030 C   0  0  0  0  0  3  0  0  0  0  0  0
  -22.3800   -7.7440   21.3790 C   0  0  0  0  0  0  0  0  0  0  0  0
  -22.0340   -8.6990   20.4070 C   0  0  0  0  0  3  0  0  0  0  0  0
  -22.7830   -9.8790   20.2660 C   0  0  0  0  0  3  0  0  0  0  0  0
  -21.6080   -6.6080   21.4280 O   0  0  0  0  0  0  0  0  0  0  0  0
  -21.4210   -5.9140   22.5960 C   0  0  0  0  0  0  0  0  0  0  0  0
  -20.8180   -6.5080   23.7270 C   0  0  0  0  0  3  0  0  0  0  0  0
  -20.5820   -5.7380   24.8840 C   0  0  0  0  0  3  0  0  0  0  0  0
  -20.9380   -4.3770   24.9100 C   0  0  0  0  0  0  0  0  0  0  0  0
  -21.5330   -3.7830   23.7830 C   0  0  0  0  0  3  0  0  0  0  0  0
  -21.7710   -4.5480   22.6280 C   0  0  0  0  0  0  0  0  0  0  0  0
  -22.3260   -3.9660   21.5380 F   0  0  0  0  0  0  0  0  0  0  0  0
  -20.7020   -3.6350   26.0170 F   0  0  0  0  0  0  0  0  0  0  0  0
  -22.8220  -13.2370   21.3280 C   0  0  0  0  0  0  0  0  0  0  0  0
  -22.0860  -12.5240   22.1710 N   0  0  0  0  0  0  0  0  0  0  0  0
  -22.4030  -14.2920   20.8500 O   0  0  0  0  0  0  0  0  0  0  0  0
  -22.4390  -11.6700   22.5790 H   0  0  0  0  0  0  0  0  0  0  0  0
  -21.1560  -12.8340   22.4140 H   0  0  0  0  0  0  0  0  0  0  0  0
  -25.4820  -14.8760   20.5440 N   0  0  0  0  0  0  0  0  0  0  0  0
  -24.7280  -15.5430   20.6720 H   0  0  0  0  0  0  0  0  0  0  0  0
  -26.3370  -15.3050   20.2100 H   0  0  0  0  0  0  0  0  0  0  0  0
  -30.5260  -22.7720   23.7970 C   0  0  0  0  0  1  0  0  0  0  0  0
  -30.0840  -23.0360   22.4020 N   0  0  1  0  0  4  0  0  0  0  0  0
  -29.1630  -22.6250   22.3460 H   0  0  0  0  0  0  0  0  0  0  0  0
  -29.8570  -24.5020   22.2020 C   0  0  0  0  0  2  0  0  0  0  0  0
  -29.0810  -24.8960   20.9280 C   0  0  0  0  0  2  0  0  0  0  0  0
  -28.7900  -26.4070   20.8540 C   0  0  0  0  0  2  0  0  0  0  0  0
  -27.9870  -26.6320   19.7020 O   0  0  0  0  0  0  0  0  0  0  0  0
  -24.4710  -31.8100   23.1670 C   0  0  0  0  0  0  0  0  0  0  0  0
  -26.8840  -27.4390   19.8350 C   0  0  0  0  0  0  0  0  0  0  0  0
  -23.1720  -30.5220   21.5010 C   0  0  0  0  0  3  0  0  0  0  0  0
  -24.5360  -28.9990   19.9750 C   0  0  0  0  0  0  0  0  0  0  0  0
  -25.6990  -30.8110   21.2470 C   0  0  0  0  0  2  0  0  0  0  0  0
  -25.7230  -29.4650   20.5580 C   0  0  0  0  0  0  0  0  0  0  0  0
  -26.9010  -28.6890   20.4950 C   0  0  0  0  0  3  0  0  0  0  0  0
  -25.6880  -26.9890   19.2430 C   0  0  0  0  0  3  0  0  0  0  0  0
  -24.5110  -27.7570   19.3180 C   0  0  0  0  0  3  0  0  0  0  0  0
  -23.3210  -29.8920   20.0900 C   0  0  0  0  0  2  0  0  0  0  0  0
  -24.4670  -31.0590   22.0310 N   0  0  0  0  0  0  0  0  0  0  0  0
  -23.4160  -32.0960   23.7490 O   0  0  0  0  0  0  0  0  0  0  0  0
  -22.5130  -29.4820   22.4360 C   0  0  0  0  0  0  0  0  0  0  0  0
  -21.1820  -29.3390   22.3260 N   0  0  0  0  0  0  0  0  0  0  0  0
  -23.1940  -28.8100   23.2140 O   0  0  0  0  0  0  0  0  0  0  0  0
  -20.6950  -29.9330   21.6690 H   0  0  0  0  0  0  0  0  0  0  0  0
  -17.7840  -28.2390   22.8600 C   0  0  0  0  0  0  0  0  0  0  0  0
  -20.3540  -28.3970   23.0770 C   0  0  0  0  0  3  0  0  0  0  0  0
  -20.3930  -26.9900   22.4370 C   0  0  0  0  0  2  0  0  0  0  0  0
  -19.2560  -26.7510   21.4380 C   0  0  0  0  0  2  0  0  0  0  0  0
  -17.8950  -26.9160   22.1230 C   0  0  0  0  0  2  0  0  0  0  0  0
  -18.9390  -28.9420   23.2950 C   0  0  0  0  0  0  0  0  0  0  0  0
  -18.7810  -30.1850   23.9440 C   0  0  0  0  0  3  0  0  0  0  0  0
  -17.5000  -30.7250   24.1640 C   0  0  0  0  0  3  0  0  0  0  0  0
  -16.3590  -30.0180   23.7480 C   0  0  0  0  0  3  0  0  0  0  0  0
  -16.5020  -28.7770   23.1010 C   0  0  0  0  0  3  0  0  0  0  0  0
  -25.7970  -32.3680   23.7740 C   0  0  0  0  0  3  0  0  0  0  0  0
  -26.3020  -31.5480   25.0240 C   0  0  1  0  0  0  0  0  0  0  0  0
  -25.2180  -31.3330   26.1050 C   0  0  0  0  0  1  0  0  0  0  0  0
  -26.8210  -30.1560   24.5910 C   0  0  0  0  0  1  0  0  0  0  0  0
  -27.4950  -32.2800   25.6840 C   0  0  0  0  0  1  0  0  0  0  0  0
  -25.5620  -33.7730   24.1320 N   0  0  0  0  0  0  0  0  0  0  0  0
  -25.9470  -34.8210   23.3910 C   0  0  0  0  0  0  0  0  0  0  0  0
  -26.6090  -34.7020   22.3570 O   0  0  0  0  0  0  0  0  0  0  0  0
  -24.9760  -33.9430   24.9370 H   0  0  0  0  0  0  0  0  0  0  0  0
  -24.3130  -36.7050   23.0710 C   0  0  0  0  0  1  0  0  0  0  0  0
  -25.5310  -36.2220   23.8750 C   0  0  0  0  0  3  0  0  0  0  0  0
  -27.7010  -36.9860   24.7320 C   0  0  0  0  0  1  0  0  0  0  0  0
  -26.6160  -37.2220   23.7840 N   0  0  0  0  0  0  0  0  0  0  0  0
  -26.2560  -38.1600   23.9400 H   0  0  0  0  0  0  0  0  0  0  0  0
  -32.7450  -22.6900   19.5410 C   0  0  0  0  0  1  0  0  0  0  0  0
  -32.0830  -23.1850   20.8360 C   0  0  0  0  0  2  0  0  0  0  0  0
  1 95  1  0
  1 48  1  0
  2  4  1  0
  2  5  1  0
  4  1  1  0
  4  3  1  0
  5  6  1  0
  5  3  1  0
  6  8  1  0
  7  6  1  0
  9 10  1  0
  9  6  1  0
 11 10  1  0
 12 17  1  0
 13 14  1  0
 13 12  1  0
 15 14  1  0
 15 22  1  0
 15 16  1  0
 17 11  1  0
 17 16  1  0
 18 11  2  0
 19 20  2  0
 20 39  1  0
 21 20  1  0
 21 24  1  0
 22 23  1  0
 22 19  1  0
 23 21  2  0
 24 25  1  0
 25 26  2  0
 27 30  1  0
 27 26  1  0
 28 27  2  0
 29 28  1  0
 29 24  2  0
 30 31  1  0
 31 36  2  0
 31 32  1  0
 32 33  2  0
 33 34  1  0
 34 38  1  0
 35 34  2  0
 36 35  1  0
 37 36  1  0
 39 40  1  0
 40 43  1  0
 40 42  1  0
 41 39  2  0
 44 45  1  0
 44 19  1  0
 46 44  1  0
 48 47  1  0
 48 49  1  1
 50 48  1  0
 51 50  1  0
 52 51  1  0
 53 55  1  0
 53 52  1  0
 54 65  2  0
 55 60  1  0
 56 64  1  0
 56 66  1  0
 57 63  1  0
 57 59  1  0
 58 64  1  0
 59 58  1  0
 60 59  2  0
 61 62  1  0
 61 55  2  0
 62 57  2  0
 63 56  1  0
 64 54  1  0
 66 68  2  0
 67 66  1  0
 69 67  1  0
 70 79  2  0
 70 75  1  0
 71 67  1  0
 71 75  1  0
 72 71  1  0
 73 74  1  0
 73 72  1  0
 74 70  1  0
 75 76  2  0
 76 77  1  0
 78 77  2  0
 79 78  1  0
 80 54  1  0
 80 85  1  0
 80 81  1  0
 81 84  1  1
 81 82  1  0
 83 81  1  0
 85 88  1  0
 86 90  1  0
 86 85  1  0
 87 86  2  0
 90 89  1  0
 92 90  1  0
 92 93  1  0
 92 91  1  0
 94 95  1  0
M  ISO  4  10 100  11 100  52 101  53 101
M  END
>  <TORSDO>  (16) 
F 25

>  <SCORE>  (16) 
-10.942

>  <name>  (16) 
15

>  <ligand_id>  (16) 
15

>  <original_smiles>  (16) 
[H]c1c([H])c([H])c2c(c1[H])C([H])([H])C([H])([H])C([H])([H])C2([H])N([H])C(=O)C1([H])N(C(=O)C([H])(N([H])C(=O)C([H])(N([H])C([H])([H])[H])C([H])([H])[H])C(C([H])([H])[H])(C([H])([H])[H])C([H])([H])[H])C([H])([H])c2c([H])c(OC([H])([H])C([H])([H])C([H])([H])[N+]([H])(C([H])([H])[H])C([H])(C([H])([H])C([H])([H])[H])C3([H])C([H])([H])C([H])([N+]([H])([H])C([H])([H])C([H])([H])C(=O)N4C([H])([H])C([H])([H])C([H])([H])C([H])(n5nc(-c6c([H])c([H])c(Oc7c([H])c([H])c(F)c([H])c7F)c([H])c6[H])c(C(=O)N([H])[H])c5N([H])[H])C4([H])[H])C3([H])[H])c([H])c([H])c2C1([H])[H]

>  <smiles>  (16) 
[H]c1c([H])c([H])c2c(c1[H])C([H])([H])C([H])([H])C([H])([H])C2([H])N([H])C(=O)C1([H])N(C(=O)C([H])(N([H])C(=O)C([H])(N([H])C([H])([H])[H])C([H])([H])[H])C(C([H])([H])[H])(C([H])([H])[H])C([H])([H])[H])C([H])([H])c2c([H])c(OC([H])([H])C([H])([H])C([H])([H])[N+]([H])(C([H])([H])[H])C([H])(C([H])([H])C([H])([H])[H])C3([H])C([H])([H])C([H])([N+]([H])([H])C([H])([H])C([H])([H])C(=O)N4C([H])([H])C([H])([H])C([H])([H])C([H])(n5nc(-c6c([H])c([H])c(Oc7c([H])c([H])c(F)c([H])c7F)c([H])c6[H])c(C(=O)N([H])[H])c5N([H])[H])C4([H])[H])C3([H])[H])c([H])c([H])c2C1([H])[H]

$$$$
16:0:0
     RDKit          3D

 92100  0  0  1  0  0  0  0  0999 V2000
  -29.2500  -19.8490   20.6440 C   0  0  0  0  0  3  0  0  0  0  0  0
  -31.6950  -19.1990   20.5290 C   0  0  0  0  0  2  0  0  0  0  0  0
  -31.1950  -17.5010   18.9420 C   0  0  0  0  0  3  0  0  0  0  0  0
  -30.1280  -17.4470   20.0860 C   0  0  0  0  0  3  0  0  0  0  0  0
  -31.9470  -18.8510   19.0540 C   0  0  2  0  0  0  0  0  0  0  0  0
  -30.6440  -17.1570   17.5470 C   0  0  0  0  0  1  0  0  0  0  0  0
  -33.4590  -18.6840   18.7840 C   0  0  0  0  0  1  0  0  0  0  0  0
  -31.4250  -19.9460   18.0920 C   0  0  0  0  0  1  0  0  0  0  0  0
  -30.3130  -18.7630   20.8450 N   0  0  2  0  0  4  0  0  0  0  0  0
  -30.3020  -18.5670   21.8350 H   0  0  0  0  0  0  0  0  0  0  0  0
  -30.0940  -16.0890   20.9750 C   0  0  0  0  0  2  0  0  0  0  0  0
  -30.7150  -14.7100   20.4740 C   0  0  0  0  0  0  0  0  0  0  0  0
  -30.4190  -12.4970   19.3780 C   0  0  0  0  0  2  0  0  0  0  0  0
  -29.5140  -12.6540   18.1370 C   0  0  0  0  0  2  0  0  0  0  0  0
  -28.0340  -12.5060   18.5360 C   0  0  0  0  0  2  0  0  0  0  0  0
  -27.6580  -13.3740   19.7680 C   0  0  0  0  0  3  0  0  0  0  0  0
  -28.6910  -13.2270   20.9070 C   0  0  0  0  0  2  0  0  0  0  0  0
  -30.0190  -13.5330   20.3560 N   0  0  0  0  0  0  0  0  0  0  0  0
  -31.8990  -14.7270   20.1300 O   0  0  0  0  0  0  0  0  0  0  0  0
  -25.2480  -13.9800   20.4090 C   0  0  0  0  0  0  0  0  0  0  0  0
  -24.1720  -13.2120   20.7670 C   0  0  0  0  0  0  0  0  0  0  0  0
  -24.6360  -11.8620   20.7820 C   0  0  0  0  0  0  0  0  0  0  0  0
  -26.2990  -13.0970   20.2260 N   0  0  0  0  0  0  0  0  0  0  0  0
  -25.9350  -11.8200   20.5140 N   0  0  0  0  0  0  0  0  0  0  0  0
  -23.9050  -10.6030   20.9800 C   0  0  0  0  0  0  0  0  0  0  0  0
  -24.3150   -9.6510   21.9390 C   0  0  0  0  0  3  0  0  0  0  0  0
  -23.5810   -8.4580   22.1230 C   0  0  0  0  0  3  0  0  0  0  0  0
  -22.4260   -8.2090   21.3440 C   0  0  0  0  0  0  0  0  0  0  0  0
  -22.0350   -9.1490   20.3750 C   0  0  0  0  0  3  0  0  0  0  0  0
  -22.7680  -10.3330   20.1910 C   0  0  0  0  0  3  0  0  0  0  0  0
  -21.6660   -7.0670   21.4370 O   0  0  0  0  0  0  0  0  0  0  0  0
  -21.5930   -6.3420   22.6000 C   0  0  0  0  0  0  0  0  0  0  0  0
  -21.1430   -6.9160   23.8090 C   0  0  0  0  0  3  0  0  0  0  0  0
  -21.0190   -6.1170   24.9630 C   0  0  0  0  0  3  0  0  0  0  0  0
  -21.3350   -4.7460   24.9100 C   0  0  0  0  0  0  0  0  0  0  0  0
  -21.7770   -4.1720   23.7050 C   0  0  0  0  0  3  0  0  0  0  0  0
  -21.9030   -4.9670   22.5530 C   0  0  0  0  0  0  0  0  0  0  0  0
  -22.3090   -4.4050   21.3900 F   0  0  0  0  0  0  0  0  0  0  0  0
  -21.2090   -3.9780   26.0160 F   0  0  0  0  0  0  0  0  0  0  0  0
  -22.7670  -13.6940   20.9860 C   0  0  0  0  0  0  0  0  0  0  0  0
  -22.0150  -13.0200   21.8500 N   0  0  0  0  0  0  0  0  0  0  0  0
  -22.3440  -14.7040   20.4250 O   0  0  0  0  0  0  0  0  0  0  0  0
  -22.3680  -12.2040   22.3270 H   0  0  0  0  0  0  0  0  0  0  0  0
  -21.0720  -13.3290   22.0420 H   0  0  0  0  0  0  0  0  0  0  0  0
  -25.4140  -15.3460   20.2030 N   0  0  0  0  0  0  0  0  0  0  0  0
  -24.6410  -15.9980   20.2720 H   0  0  0  0  0  0  0  0  0  0  0  0
  -26.2720  -15.7810   19.8890 H   0  0  0  0  0  0  0  0  0  0  0  0
  -29.6720  -21.3820   20.8270 C   0  0  0  0  0  3  0  0  0  0  0  0
  -28.5890  -22.5100   20.5910 C   0  0  0  0  0  2  0  0  0  0  0  0
  -29.0690  -24.0250   20.6490 C   0  0  0  0  0  3  0  0  0  0  0  0
  -27.9910  -25.0960   20.2340 C   0  0  0  0  0  3  0  0  0  0  0  0
  -28.2860  -26.5400   20.2930 O   0  0  0  0  0  0  0  0  0  0  0  0
  -24.5890  -31.9500   23.2600 C   0  0  0  0  0  0  0  0  0  0  0  0
  -27.1780  -27.3950   20.2160 C   0  0  0  0  0  0  0  0  0  0  0  0
  -23.3740  -30.5470   21.6340 C   0  0  0  0  0  3  0  0  0  0  0  0
  -24.8160  -29.0020   20.2010 C   0  0  0  0  0  0  0  0  0  0  0  0
  -25.9120  -30.8710   21.4320 C   0  0  0  0  0  2  0  0  0  0  0  0
  -25.9880  -29.4930   20.7910 C   0  0  0  0  0  0  0  0  0  0  0  0
  -27.1730  -28.7020   20.7900 C   0  0  0  0  0  3  0  0  0  0  0  0
  -25.9830  -26.9600   19.5910 C   0  0  0  0  0  3  0  0  0  0  0  0
  -24.8160  -27.7410   19.5910 C   0  0  0  0  0  3  0  0  0  0  0  0
  -23.5790  -29.8710   20.2530 C   0  0  0  0  0  2  0  0  0  0  0  0
  -24.6440  -31.1380   22.1650 N   0  0  0  0  0  0  0  0  0  0  0  0
  -23.5090  -32.2300   23.7980 O   0  0  0  0  0  0  0  0  0  0  0  0
  -22.7210  -29.5290   22.5980 C   0  0  0  0  0  0  0  0  0  0  0  0
  -21.4000  -29.3280   22.4580 N   0  0  0  0  0  0  0  0  0  0  0  0
  -23.4000  -28.9250   23.4320 O   0  0  0  0  0  0  0  0  0  0  0  0
  -20.9130  -29.8660   21.7540 H   0  0  0  0  0  0  0  0  0  0  0  0
  -18.0390  -28.0730   22.9150 C   0  0  0  0  0  0  0  0  0  0  0  0
  -20.5860  -28.3920   23.2340 C   0  0  0  0  0  3  0  0  0  0  0  0
  -20.7300  -26.9500   22.6960 C   0  0  0  0  0  2  0  0  0  0  0  0
  -19.6560  -26.5790   21.6680 C   0  0  0  0  0  2  0  0  0  0  0  0
  -18.2580  -26.7110   22.2780 C   0  0  0  0  0  2  0  0  0  0  0  0
  -19.1320  -28.8680   23.3500 C   0  0  0  0  0  0  0  0  0  0  0  0
  -18.8740  -30.1400   23.9050 C   0  0  0  0  0  3  0  0  0  0  0  0
  -17.5570  -30.6190   24.0310 C   0  0  0  0  0  3  0  0  0  0  0  0
  -16.4780  -29.8210   23.6120 C   0  0  0  0  0  3  0  0  0  0  0  0
  -16.7190  -28.5500   23.0600 C   0  0  0  0  0  3  0  0  0  0  0  0
  -25.8750  -32.5840   23.8720 C   0  0  0  0  0  3  0  0  0  0  0  0
  -25.5700  -33.9860   24.1890 N   0  0  0  0  0  0  0  0  0  0  0  0
  -25.9090  -35.0300   23.4210 C   0  0  0  0  0  0  0  0  0  0  0  0
  -26.5820  -34.9150   22.3930 O   0  0  0  0  0  0  0  0  0  0  0  0
  -24.9750  -34.1510   24.9870 H   0  0  0  0  0  0  0  0  0  0  0  0
  -24.1930  -36.8290   23.0380 C   0  0  0  0  0  1  0  0  0  0  0  0
  -25.4250  -36.4250   23.8640 C   0  0  0  0  0  3  0  0  0  0  0  0
  -27.5570  -37.3020   24.7080 C   0  0  0  0  0  1  0  0  0  0  0  0
  -26.4650  -37.4710   23.7530 N   0  0  0  0  0  0  0  0  0  0  0  0
  -26.0630  -38.3940   23.8910 H   0  0  0  0  0  0  0  0  0  0  0  0
  -26.3920  -31.8230   25.1530 C   0  0  1  0  0  0  0  0  0  0  0  0
  -25.2990  -31.5960   26.2240 C   0  0  0  0  0  1  0  0  0  0  0  0
  -26.9730  -30.4420   24.7710 C   0  0  0  0  0  1  0  0  0  0  0  0
  -27.5460  -32.6210   25.8050 C   0  0  0  0  0  1  0  0  0  0  0  0
  1 48  2  0
  1  9  1  0
  2  9  1  0
  3  6  1  0
  3  5  1  0
  3  4  1  0
  4  9  1  0
  4 11  1  0
  5  2  1  0
  5  7  1  1
  8  5  1  0
  9 10  1  1
 12 11  1  0
 13 18  1  0
 14 15  1  0
 14 13  1  0
 16 15  1  0
 16 23  1  0
 16 17  1  0
 18 12  1  0
 18 17  1  0
 19 12  2  0
 20 21  2  0
 21 22  1  0
 21 40  1  0
 22 25  1  0
 23 20  1  0
 23 24  1  0
 24 22  2  0
 25 26  1  0
 26 27  2  0
 28 31  1  0
 28 27  1  0
 29 28  2  0
 30 29  1  0
 30 25  2  0
 31 32  1  0
 32 33  1  0
 33 34  2  0
 35 34  1  0
 35 39  1  0
 36 35  2  0
 37 32  2  0
 37 36  1  0
 38 37  1  0
 40 41  1  0
 41 44  1  0
 41 43  1  0
 42 40  2  0
 45 46  1  0
 45 20  1  0
 47 45  1  0
 49 50  1  0
 49 48  1  0
 51 52  1  0
 51 50  2  0
 53 64  2  0
 54 52  1  0
 54 59  1  0
 55 63  1  0
 55 65  1  0
 56 62  1  0
 56 58  1  0
 57 63  1  0
 58 57  1  0
 59 58  2  0
 60 54  2  0
 61 60  1  0
 61 56  2  0
 62 55  1  0
 63 53  1  0
 65 67  2  0
 66 65  1  0
 68 66  1  0
 69 78  2  0
 69 74  1  0
 70 66  1  0
 70 74  1  0
 71 70  1  0
 72 73  1  0
 72 71  1  0
 73 69  1  0
 74 75  2  0
 75 76  1  0
 77 76  2  0
 78 77  1  0
 79 53  1  0
 79 80  1  0
 79 89  1  0
 80 83  1  0
 81 85  1  0
 81 80  1  0
 82 81  2  0
 85 84  1  0
 87 85  1  0
 87 88  1  0
 87 86  1  0
 89 92  1  1
 89 90  1  0
 91 89  1  0
M  ISO  4  11 100  12 100  51 101  52 101
M  END
>  <TORSDO>  (17) 
F 22

>  <SCORE>  (17) 
-12.879

>  <name>  (17) 
16

>  <ligand_id>  (17) 
16

>  <original_smiles>  (17) 
[H]c1c([H])c([H])c2c(c1[H])C([H])([H])C([H])([H])C([H])([H])C2([H])N([H])C(=O)C1([H])N(C(=O)C([H])(N([H])C(=O)C([H])(N([H])C([H])([H])[H])C([H])([H])[H])C(C([H])([H])[H])(C([H])([H])[H])C([H])([H])[H])C([H])([H])c2c([H])c(OC([H])([H])C([H])([H])C([H])([H])C([H])([H])C([H])([H])[N+]3([H])C([H])([H])C(C([H])([H])[H])(C([H])([H])[H])C([H])(C([H])([H])[H])C3([H])C([H])([H])C(=O)N3C([H])([H])C([H])([H])C([H])([H])C([H])(n4nc(-c5c([H])c([H])c(Oc6c([H])c([H])c(F)c([H])c6F)c([H])c5[H])c(C(=O)N([H])[H])c4N([H])[H])C3([H])[H])c([H])c([H])c2C1([H])[H]

>  <smiles>  (17) 
[H]c1c([H])c([H])c2c(c1[H])C([H])([H])C([H])([H])C([H])([H])C2([H])N([H])C(=O)C1([H])N(C(=O)C([H])(N([H])C(=O)C([H])(N([H])C([H])([H])[H])C([H])([H])[H])C(C([H])([H])[H])(C([H])([H])[H])C([H])([H])[H])C([H])([H])c2c([H])c(OC([H])([H])C([H])([H])C([H])([H])C([H])([H])C([H])([H])[N+]3([H])C([H])([H])C(C([H])([H])[H])(C([H])([H])[H])C([H])(C([H])([H])[H])C3([H])C([H])([H])C(=O)N3C([H])([H])C([H])([H])C([H])([H])C([H])(n4nc(-c5c([H])c([H])c(Oc6c([H])c([H])c(F)c([H])c6F)c([H])c5[H])c(C(=O)N([H])[H])c4N([H])[H])C3([H])[H])c([H])c([H])c2C1([H])[H]

$$$$
17:0:0
     RDKit          3D

 95102  0  0  1  0  0  0  0  0999 V2000
  -28.9840  -19.8790   19.9980 C   0  0  0  0  0  3  0  0  0  0  0  0
  -29.9700  -18.7420   20.3490 N   0  0  0  0  0  4  0  0  0  0  0  0
  -30.5260  -18.6230   19.5190 H   0  0  0  0  0  0  0  0  0  0  0  0
  -30.6030  -19.1040   21.0450 H   0  0  0  0  0  0  0  0  0  0  0  0
  -29.9380  -17.1530   22.3070 C   0  0  0  0  0  1  0  0  0  0  0  0
  -29.5660  -17.3320   20.8150 C   0  0  0  0  0  3  0  0  0  0  0  0
  -29.9650  -16.0560   19.8810 C   0  0  0  0  0  2  0  0  0  0  0  0
  -30.8200  -14.6720   19.9000 C   0  0  0  0  0  0  0  0  0  0  0  0
  -30.5170  -12.4310   18.8600 C   0  0  0  0  0  2  0  0  0  0  0  0
  -29.5120  -12.6020   17.6990 C   0  0  0  0  0  2  0  0  0  0  0  0
  -28.0630  -12.4780   18.2090 C   0  0  0  0  0  2  0  0  0  0  0  0
  -27.8020  -13.3310   19.4800 C   0  0  0  0  0  3  0  0  0  0  0  0
  -28.9120  -13.1110   20.5260 C   0  0  0  0  0  2  0  0  0  0  0  0
  -30.1890  -13.4460   19.8840 N   0  0  0  0  0  0  0  0  0  0  0  0
  -32.0200  -14.7050   19.5860 O   0  0  0  0  0  0  0  0  0  0  0  0
  -25.5020  -13.9990   20.4010 C   0  0  0  0  0  0  0  0  0  0  0  0
  -24.4280  -13.2570   20.8060 C   0  0  0  0  0  0  0  0  0  0  0  0
  -24.8170  -11.8870   20.6720 C   0  0  0  0  0  0  0  0  0  0  0  0
  -26.4790  -13.0840   20.0400 N   0  0  0  0  0  0  0  0  0  0  0  0
  -26.0780  -11.8080   20.2660 N   0  0  0  0  0  0  0  0  0  0  0  0
  -24.0420  -10.6530   20.8470 C   0  0  0  0  0  0  0  0  0  0  0  0
  -24.4920   -9.6190   21.6960 C   0  0  0  0  0  3  0  0  0  0  0  0
  -23.7220   -8.4490   21.8640 C   0  0  0  0  0  3  0  0  0  0  0  0
  -22.4900   -8.3040   21.1820 C   0  0  0  0  0  0  0  0  0  0  0  0
  -22.0590   -9.3280   20.3200 C   0  0  0  0  0  3  0  0  0  0  0  0
  -22.8290  -10.4900   20.1480 C   0  0  0  0  0  3  0  0  0  0  0  0
  -21.6940   -7.1860   21.2600 O   0  0  0  0  0  0  0  0  0  0  0  0
  -21.6730   -6.3950   22.3790 C   0  0  0  0  0  0  0  0  0  0  0  0
  -21.3540   -6.9170   23.6510 C   0  0  0  0  0  3  0  0  0  0  0  0
  -21.2730   -6.0580   24.7660 C   0  0  0  0  0  3  0  0  0  0  0  0
  -21.5010   -4.6780   24.6080 C   0  0  0  0  0  0  0  0  0  0  0  0
  -21.8100   -4.1530   23.3410 C   0  0  0  0  0  3  0  0  0  0  0  0
  -21.8940   -5.0110   22.2290 C   0  0  0  0  0  0  0  0  0  0  0  0
  -22.1720   -4.4990   21.0060 F   0  0  0  0  0  0  0  0  0  0  0  0
  -21.4150   -3.8500   25.6750 F   0  0  0  0  0  0  0  0  0  0  0  0
  -23.0750  -13.7790   21.1990 C   0  0  0  0  0  0  0  0  0  0  0  0
  -22.3780  -13.0720   22.0810 N   0  0  0  0  0  0  0  0  0  0  0  0
  -22.6510  -14.8470   20.7580 O   0  0  0  0  0  0  0  0  0  0  0  0
  -22.7380  -12.2080   22.4620 H   0  0  0  0  0  0  0  0  0  0  0  0
  -21.4680  -13.3950   22.3710 H   0  0  0  0  0  0  0  0  0  0  0  0
  -25.7170  -15.3700   20.2860 N   0  0  0  0  0  0  0  0  0  0  0  0
  -24.9740  -16.0280   20.4900 H   0  0  0  0  0  0  0  0  0  0  0  0
  -26.5180  -15.7900   19.8360 H   0  0  0  0  0  0  0  0  0  0  0  0
  -29.4090  -21.3220   20.5750 C   0  0  0  0  0  2  0  0  0  0  0  0
  -29.2440  -22.6950   19.7550 C   0  0  0  0  0  2  0  0  0  0  0  0
  -28.1280  -23.8240   19.9800 C   0  0  0  0  0  2  0  0  0  0  0  0
  -28.3850  -25.1510   20.8300 C   0  0  0  0  0  2  0  0  0  0  0  0
  -28.3570  -26.5040   20.2300 O   0  0  0  0  0  0  0  0  0  0  0  0
  -24.5250  -31.8920   23.1860 C   0  0  0  0  0  0  0  0  0  0  0  0
  -27.1960  -27.2870   20.2640 C   0  0  0  0  0  0  0  0  0  0  0  0
  -23.3380  -30.4430   21.5720 C   0  0  0  0  0  3  0  0  0  0  0  0
  -24.8090  -28.8560   20.2040 C   0  0  0  0  0  0  0  0  0  0  0  0
  -25.8720  -30.7790   21.3920 C   0  0  0  0  0  2  0  0  0  0  0  0
  -25.9690  -29.3830   20.7860 C   0  0  0  0  0  0  0  0  0  0  0  0
  -27.1690  -28.6110   20.8000 C   0  0  0  0  0  3  0  0  0  0  0  0
  -26.0130  -26.7960   19.6800 C   0  0  0  0  0  3  0  0  0  0  0  0
  -24.8330  -27.5670   19.6430 C   0  0  0  0  0  3  0  0  0  0  0  0
  -23.5670  -29.7260   20.2140 C   0  0  0  0  0  2  0  0  0  0  0  0
  -24.5970  -31.0550   22.1080 N   0  0  0  0  0  0  0  0  0  0  0  0
  -23.4380  -32.1770   23.7090 O   0  0  0  0  0  0  0  0  0  0  0  0
  -22.6750  -29.4500   22.5570 C   0  0  0  0  0  0  0  0  0  0  0  0
  -21.3600  -29.2300   22.3980 N   0  0  0  0  0  0  0  0  0  0  0  0
  -23.3450  -28.8730   23.4170 O   0  0  0  0  0  0  0  0  0  0  0  0
  -20.8760  -29.7410   21.6710 H   0  0  0  0  0  0  0  0  0  0  0  0
  -18.0100  -27.9460   22.8370 C   0  0  0  0  0  0  0  0  0  0  0  0
  -20.5460  -28.3030   23.1850 C   0  0  0  0  0  3  0  0  0  0  0  0
  -20.7150  -26.8510   22.6800 C   0  0  0  0  0  2  0  0  0  0  0  0
  -19.6620  -26.4470   21.6420 C   0  0  0  0  0  2  0  0  0  0  0  0
  -18.2540  -26.5740   22.2290 C   0  0  0  0  0  2  0  0  0  0  0  0
  -19.0870  -28.7650   23.2700 C   0  0  0  0  0  0  0  0  0  0  0  0
  -18.8050  -30.0450   23.7950 C   0  0  0  0  0  3  0  0  0  0  0  0
  -17.4800  -30.5100   23.8910 C   0  0  0  0  0  3  0  0  0  0  0  0
  -16.4170  -29.6900   23.4720 C   0  0  0  0  0  3  0  0  0  0  0  0
  -16.6820  -28.4090   22.9520 C   0  0  0  0  0  3  0  0  0  0  0  0
  -25.8030  -32.5450   23.7970 C   0  0  0  0  0  3  0  0  0  0  0  0
  -26.3270  -31.7980   25.0840 C   0  0  1  0  0  0  0  0  0  0  0  0
  -25.2310  -31.5570   26.1500 C   0  0  0  0  0  1  0  0  0  0  0  0
  -26.9330  -30.4240   24.7110 C   0  0  0  0  0  1  0  0  0  0  0  0
  -27.4600  -32.6190   25.7420 C   0  0  0  0  0  1  0  0  0  0  0  0
  -25.4800  -33.9430   24.1100 N   0  0  0  0  0  0  0  0  0  0  0  0
  -25.8010  -34.9900   23.3370 C   0  0  0  0  0  0  0  0  0  0  0  0
  -26.4700  -34.8790   22.3070 O   0  0  0  0  0  0  0  0  0  0  0  0
  -24.8890  -34.1010   24.9120 H   0  0  0  0  0  0  0  0  0  0  0  0
  -24.0490  -36.7540   22.9620 C   0  0  0  0  0  1  0  0  0  0  0  0
  -25.2990  -36.3780   23.7750 C   0  0  0  0  0  3  0  0  0  0  0  0
  -27.4280  -37.2980   24.5830 C   0  0  0  0  0  1  0  0  0  0  0  0
  -26.3180  -37.4410   23.6440 N   0  0  0  0  0  0  0  0  0  0  0  0
  -25.9040  -38.3570   23.7840 H   0  0  0  0  0  0  0  0  0  0  0  0
  -27.4970  -19.6410   20.3910 C   0  0  0  0  0  2  0  0  0  0  0  0
  -26.7000  -18.6070   19.5520 C   0  0  0  0  0  2  0  0  0  0  0  0
  -25.4510  -19.1900   18.8820 C   0  0  0  0  0  0  0  0  0  0  0  0
  -24.3190  -18.5050   18.9920 N   0  0  0  0  0  0  0  0  0  0  0  0
  -25.4990  -20.2510   18.2610 O   0  0  0  0  0  0  0  0  0  0  0  0
  -24.2910  -17.6360   19.5090 H   0  0  0  0  0  0  0  0  0  0  0  0
  -23.4690  -18.8450   18.5670 H   0  0  0  0  0  0  0  0  0  0  0  0
  1  2  1  0
  1 89  1  0
  1 44  1  0
  2  6  1  0
  2  4  1  0
  3  2  1  0
  6  5  1  0
  7  8  1  0
  7  6  1  0
  9 14  1  0
 10 11  1  0
 10  9  1  0
 12 11  1  0
 12 19  1  0
 12 13  1  0
 14  8  1  0
 14 13  1  0
 15  8  2  0
 16 17  2  0
 17 36  1  0
 18 17  1  0
 18 21  1  0
 19 20  1  0
 19 16  1  0
 20 18  2  0
 21 22  1  0
 22 23  2  0
 24 27  1  0
 24 23  1  0
 25 24  2  0
 26 25  1  0
 26 21  2  0
 27 28  1  0
 28 29  1  0
 29 30  2  0
 31 30  1  0
 31 35  1  0
 32 31  2  0
 33 28  2  0
 33 32  1  0
 34 33  1  0
 36 37  1  0
 37 40  1  0
 37 39  1  0
 38 36  2  0
 41 16  1  0
 41 42  1  0
 43 41  1  0
 45 46  1  0
 45 44  1  0
 46 47  1  0
 48 50  1  0
 48 47  1  0
 49 60  2  0
 50 55  1  0
 51 59  1  0
 51 61  1  0
 52 58  1  0
 52 54  1  0
 53 59  1  0
 54 55  2  0
 54 53  1  0
 56 50  2  0
 57 56  1  0
 57 52  2  0
 58 51  1  0
 59 49  1  0
 61 63  2  0
 62 61  1  0
 64 62  1  0
 65 74  2  0
 65 70  1  0
 66 62  1  0
 66 70  1  0
 67 66  1  0
 68 69  1  0
 68 67  1  0
 69 65  1  0
 70 71  2  0
 71 72  1  0
 73 72  2  0
 74 73  1  0
 75 49  1  0
 75 80  1  0
 75 76  1  0
 76 79  1  1
 76 77  1  0
 78 76  1  0
 80 83  1  0
 81 85  1  0
 81 80  1  0
 82 81  2  0
 85 84  1  0
 87 85  1  0
 87 88  1  0
 87 86  1  0
 90 89  1  0
 91 92  1  0
 91 90  1  0
 92 94  1  0
 93 91  2  0
 95 92  1  0
M  ISO  4   7 100   8 100  47 101  48 101
M  END
>  <TORSDO>  (18) 
F 26

>  <SCORE>  (18) 
-10.075

>  <name>  (18) 
17

>  <ligand_id>  (18) 
17

>  <original_smiles>  (18) 
[H]c1c([H])c([H])c2c(c1[H])C([H])([H])C([H])([H])C([H])([H])C2([H])N([H])C(=O)C1([H])N(C(=O)C([H])(N([H])C(=O)C([H])(N([H])C([H])([H])[H])C([H])([H])[H])C(C([H])([H])[H])(C([H])([H])[H])C([H])([H])[H])C([H])([H])c2c([H])c(OC([H])([H])C([H])([H])C([H])([H])C([H])([H])C([H])(C([H])([H])C([H])([H])C(=O)N([H])[H])[N+]([H])([H])C([H])(C([H])([H])[H])C([H])([H])C(=O)N3C([H])([H])C([H])([H])C([H])([H])C([H])(n4nc(-c5c([H])c([H])c(Oc6c([H])c([H])c(F)c([H])c6F)c([H])c5[H])c(C(=O)N([H])[H])c4N([H])[H])C3([H])[H])c([H])c([H])c2C1([H])[H]

>  <smiles>  (18) 
[H]c1c([H])c([H])c2c(c1[H])C([H])([H])C([H])([H])C([H])([H])C2([H])N([H])C(=O)C1([H])N(C(=O)C([H])(N([H])C(=O)C([H])(N([H])C([H])([H])[H])C([H])([H])[H])C(C([H])([H])[H])(C([H])([H])[H])C([H])([H])[H])C([H])([H])c2c([H])c(OC([H])([H])C([H])([H])C([H])([H])C([H])([H])C([H])(C([H])([H])C([H])([H])C(=O)N([H])[H])[N+]([H])([H])C([H])(C([H])([H])[H])C([H])([H])C(=O)N3C([H])([H])C([H])([H])C([H])([H])C([H])(n4nc(-c5c([H])c([H])c(Oc6c([H])c([H])c(F)c([H])c6F)c([H])c5[H])c(C(=O)N([H])[H])c4N([H])[H])C3([H])[H])c([H])c([H])c2C1([H])[H]

$$$$
18:0:0
     RDKit          3D

101108  0  0  1  0  0  0  0  0999 V2000
  -29.4480  -20.5260   20.5050 C   0  0  0  0  0  3  0  0  0  0  0  0
  -28.9920  -19.4250   19.5280 C   0  0  0  0  0  0  0  0  0  0  0  0
  -29.2870  -18.1260   19.6970 N   0  0  0  0  0  0  0  0  0  0  0  0
  -28.3020  -19.7480   18.5580 O   0  0  0  0  0  0  0  0  0  0  0  0
  -28.8780  -17.5540   18.9780 H   0  0  0  0  0  0  0  0  0  0  0  0
  -30.2970  -17.4150   20.4980 C   0  0  0  0  0  3  0  0  0  0  0  0
  -31.6520  -17.4750   19.7080 C   0  0  0  0  0  2  0  0  0  0  0  0
  -32.7640  -18.4530   20.1840 C   0  0  0  0  0  2  0  0  0  0  0  0
  -32.3440  -19.9420   20.2640 C   0  0  0  0  0  2  0  0  0  0  0  0
  -33.3460  -20.8040   21.0660 C   0  0  0  0  0  2  0  0  0  0  0  0
  -32.9330  -22.2150   21.1710 N   0  0  0  0  0  4  0  0  0  0  0  0
  -32.7470  -22.6100   20.2680 H   0  0  0  0  0  0  0  0  0  0  0  0
  -33.6720  -22.7500   21.5940 H   0  0  0  0  0  0  0  0  0  0  0  0
  -32.1180  -22.3090   21.7510 H   0  0  0  0  0  0  0  0  0  0  0  0
  -29.7860  -15.9720   20.8980 C   0  0  0  0  0  2  0  0  0  0  0  0
  -30.6730  -14.7500   20.5010 C   0  0  0  0  0  0  0  0  0  0  0  0
  -30.5460  -12.5990   19.3000 C   0  0  0  0  0  2  0  0  0  0  0  0
  -29.6020  -12.7540   18.0850 C   0  0  0  0  0  2  0  0  0  0  0  0
  -28.1230  -12.5860   18.4960 C   0  0  0  0  0  2  0  0  0  0  0  0
  -27.7470  -13.3620   19.7860 C   0  0  0  0  0  3  0  0  0  0  0  0
  -28.7970  -13.1210   20.8900 C   0  0  0  0  0  2  0  0  0  0  0  0
  -30.1040  -13.5220   20.3550 N   0  0  0  0  0  0  0  0  0  0  0  0
  -31.8370  -14.9710   20.1540 O   0  0  0  0  0  0  0  0  0  0  0  0
  -25.2920  -13.8550   20.3850 C   0  0  0  0  0  0  0  0  0  0  0  0
  -24.2550  -13.0290   20.7450 C   0  0  0  0  0  0  0  0  0  0  0  0
  -24.8000  -11.7090   20.7810 C   0  0  0  0  0  0  0  0  0  0  0  0
  -26.3970  -13.0290   20.2340 N   0  0  0  0  0  0  0  0  0  0  0  0
  -26.1010  -11.7390   20.5250 N   0  0  0  0  0  0  0  0  0  0  0  0
  -24.1500  -10.4110   20.9990 C   0  0  0  0  0  0  0  0  0  0  0  0
  -24.5580   -9.5460   22.0380 C   0  0  0  0  0  3  0  0  0  0  0  0
  -23.9070   -8.3080   22.2330 C   0  0  0  0  0  3  0  0  0  0  0  0
  -22.8340   -7.9290   21.3950 C   0  0  0  0  0  0  0  0  0  0  0  0
  -22.4470   -8.7850   20.3490 C   0  0  0  0  0  3  0  0  0  0  0  0
  -23.1010  -10.0120   20.1480 C   0  0  0  0  0  3  0  0  0  0  0  0
  -22.1520   -6.7380   21.5020 O   0  0  0  0  0  0  0  0  0  0  0  0
  -22.0090   -6.0960   22.7060 C   0  0  0  0  0  0  0  0  0  0  0  0
  -21.3570   -6.7030   23.8020 C   0  0  0  0  0  3  0  0  0  0  0  0
  -21.1700   -5.9810   24.9970 C   0  0  0  0  0  3  0  0  0  0  0  0
  -21.6240   -4.6510   25.0950 C   0  0  0  0  0  0  0  0  0  0  0  0
  -22.2660   -4.0440   24.0020 C   0  0  0  0  0  3  0  0  0  0  0  0
  -22.4580   -4.7650   22.8100 C   0  0  0  0  0  0  0  0  0  0  0  0
  -23.0640   -4.1710   21.7550 F   0  0  0  0  0  0  0  0  0  0  0  0
  -21.4370   -3.9520   26.2390 F   0  0  0  0  0  0  0  0  0  0  0  0
  -22.8260  -13.4280   20.9610 C   0  0  0  0  0  0  0  0  0  0  0  0
  -22.1250  -12.7380   21.8590 N   0  0  0  0  0  0  0  0  0  0  0  0
  -22.3290  -14.3790   20.3620 O   0  0  0  0  0  0  0  0  0  0  0  0
  -22.5320  -11.9560   22.3530 H   0  0  0  0  0  0  0  0  0  0  0  0
  -21.1670  -12.9950   22.0500 H   0  0  0  0  0  0  0  0  0  0  0  0
  -25.3870  -15.2230   20.1600 N   0  0  0  0  0  0  0  0  0  0  0  0
  -24.5850  -15.8440   20.2040 H   0  0  0  0  0  0  0  0  0  0  0  0
  -26.2600  -15.7130   20.0250 H   0  0  0  0  0  0  0  0  0  0  0  0
  -29.2970  -21.8530   19.8510 N   0  0  0  0  0  4  0  0  0  0  0  0
  -29.5280  -21.7160   18.8810 H   0  0  0  0  0  0  0  0  0  0  0  0
  -28.3200  -22.0960   19.8790 H   0  0  0  0  0  0  0  0  0  0  0  0
  -30.1280  -22.9610   20.3880 C   0  0  0  0  0  2  0  0  0  0  0  0
  -29.4860  -24.3560   20.1860 C   0  0  0  0  0  2  0  0  0  0  0  0
  -30.2920  -25.4960   20.8520 C   0  0  0  0  0  2  0  0  0  0  0  0
  -29.4650  -26.7610   21.1470 C   0  0  0  0  0  2  0  0  0  0  0  0
  -29.1290  -27.4240   19.9350 O   0  0  0  0  0  0  0  0  0  0  0  0
  -24.7070  -31.6860   23.5620 C   0  0  0  0  0  0  0  0  0  0  0  0
  -27.9270  -28.0730   20.0030 C   0  0  0  0  0  0  0  0  0  0  0  0
  -23.7360  -30.4870   21.6240 C   0  0  0  0  0  3  0  0  0  0  0  0
  -25.4110  -29.3280   20.0880 C   0  0  0  0  0  0  0  0  0  0  0  0
  -26.2230  -31.0740   21.6840 C   0  0  0  0  0  2  0  0  0  0  0  0
  -26.4730  -29.8390   20.8460 C   0  0  0  0  0  0  0  0  0  0  0  0
  -27.7370  -29.2130   20.8130 C   0  0  0  0  0  3  0  0  0  0  0  0
  -26.8590  -27.5690   19.2410 C   0  0  0  0  0  3  0  0  0  0  0  0
  -25.5970  -28.1880   19.2850 C   0  0  0  0  0  3  0  0  0  0  0  0
  -24.0910  -30.0600   20.1750 C   0  0  0  0  0  2  0  0  0  0  0  0
  -24.9010  -31.0890   22.3520 N   0  0  0  0  0  0  0  0  0  0  0  0
  -23.5730  -31.7800   24.0520 O   0  0  0  0  0  0  0  0  0  0  0  0
  -23.1300  -29.2700   22.3560 C   0  0  0  0  0  0  0  0  0  0  0  0
  -21.8380  -29.0110   22.1040 N   0  0  0  0  0  0  0  0  0  0  0  0
  -23.8190  -28.5730   23.1070 O   0  0  0  0  0  0  0  0  0  0  0  0
  -21.3430  -29.6370   21.4840 H   0  0  0  0  0  0  0  0  0  0  0  0
  -18.5460  -27.5310   22.1840 C   0  0  0  0  0  0  0  0  0  0  0  0
  -21.0610  -27.8980   22.6450 C   0  0  0  0  0  3  0  0  0  0  0  0
  -21.2930  -26.6050   21.8290 C   0  0  0  0  0  2  0  0  0  0  0  0
  -20.2660  -26.4030   20.7120 C   0  0  0  0  0  2  0  0  0  0  0  0
  -18.8510  -26.3390   21.2930 C   0  0  0  0  0  2  0  0  0  0  0  0
  -19.5830  -28.2730   22.8070 C   0  0  0  0  0  0  0  0  0  0  0  0
  -19.2460  -29.3950   23.5970 C   0  0  0  0  0  3  0  0  0  0  0  0
  -17.9020  -29.7720   23.7720 C   0  0  0  0  0  3  0  0  0  0  0  0
  -16.8770  -29.0270   23.1640 C   0  0  0  0  0  3  0  0  0  0  0  0
  -17.2000  -27.9070   22.3770 C   0  0  0  0  0  3  0  0  0  0  0  0
  -25.8900  -32.3010   24.3730 C   0  0  0  0  0  3  0  0  0  0  0  0
  -25.4610  -33.6230   24.8440 N   0  0  0  0  0  0  0  0  0  0  0  0
  -25.8310  -34.7840   24.2850 C   0  0  0  0  0  0  0  0  0  0  0  0
  -26.6340  -34.8560   23.3510 O   0  0  0  0  0  0  0  0  0  0  0  0
  -24.7540  -33.6400   25.5640 H   0  0  0  0  0  0  0  0  0  0  0  0
  -24.0780  -36.5550   23.9270 C   0  0  0  0  0  1  0  0  0  0  0  0
  -25.2070  -36.0750   24.8520 C   0  0  0  0  0  3  0  0  0  0  0  0
  -27.1530  -36.8930   26.1100 C   0  0  0  0  0  1  0  0  0  0  0  0
  -26.1900  -37.1650   25.0470 N   0  0  0  0  0  0  0  0  0  0  0  0
  -25.7190  -38.0400   25.2600 H   0  0  0  0  0  0  0  0  0  0  0  0
  -26.3570  -31.3980   25.5830 C   0  0  1  0  0  0  0  0  0  0  0  0
  -25.2010  -30.9280   26.4970 C   0  0  0  0  0  1  0  0  0  0  0  0
  -27.0870  -30.1330   25.0650 C   0  0  0  0  0  1  0  0  0  0  0  0
  -27.3700  -32.1740   26.4570 C   0  0  0  0  0  1  0  0  0  0  0  0
  -27.1170  -20.7790   21.6910 C   0  0  0  0  0  1  0  0  0  0  0  0
  -28.6220  -20.4440   21.8210 C   0  0  0  0  0  2  0  0  0  0  0  0
  1101  1  0
  2  3  1  0
  2  1  1  0
  3  6  1  0
  4  2  2  0
  5  3  1  0
  6  7  1  0
  6 15  1  0
  7  8  1  0
  8  9  1  0
  9 10  1  0
 10 11  1  0
 11 13  1  0
 11 14  1  0
 12 11  1  0
 16 15  1  0
 17 22  1  0
 18 19  1  0
 18 17  1  0
 20 19  1  0
 20 27  1  0
 20 21  1  0
 22 16  1  0
 22 21  1  0
 23 16  2  0
 24 25  2  0
 25 26  1  0
 25 44  1  0
 26 29  1  0
 27 24  1  0
 27 28  1  0
 28 26  2  0
 29 30  1  0
 30 31  2  0
 32 35  1  0
 32 31  1  0
 33 32  2  0
 34 33  1  0
 34 29  2  0
 35 36  1  0
 36 41  2  0
 36 37  1  0
 37 38  2  0
 38 39  1  0
 39 43  1  0
 40 39  2  0
 41 40  1  0
 42 41  1  0
 44 45  1  0
 45 48  1  0
 45 47  1  0
 46 44  2  0
 49 50  1  0
 49 24  1  0
 51 49  1  0
 52 54  1  0
 52 55  1  0
 52  1  1  0
 53 52  1  0
 56 55  1  0
 56 57  1  0
 57 58  1  0
 59 61  1  0
 59 58  1  0
 60 71  2  0
 61 66  1  0
 62 70  1  0
 62 72  1  0
 63 69  1  0
 63 65  1  0
 64 70  1  0
 65 64  1  0
 66 65  2  0
 67 68  1  0
 67 61  2  0
 68 63  2  0
 69 62  1  0
 70 60  1  0
 72 74  2  0
 73 72  1  0
 75 73  1  0
 76 85  2  0
 76 81  1  0
 77 73  1  0
 77 81  1  0
 78 77  1  0
 79 80  1  0
 79 78  1  0
 80 76  1  0
 81 82  2  0
 82 83  1  0
 84 83  2  0
 85 84  1  0
 86 60  1  0
 86 87  1  0
 86 96  1  0
 87 90  1  0
 88 87  1  0
 88 92  1  0
 89 88  2  0
 92 91  1  0
 92 94  1  0
 94 95  1  0
 94 93  1  0
 96 99  1  1
 96 97  1  0
 98 96  1  0
100101  1  0
M  ISO  4  15 100  16 100  58 101  59 101
M  END
>  <TORSDO>  (19) 
F 30

>  <SCORE>  (19) 
-6.349

>  <name>  (19) 
18

>  <ligand_id>  (19) 
18

>  <original_smiles>  (19) 
[H]c1c([H])c([H])c2c(c1[H])C([H])([H])C([H])([H])C([H])([H])C2([H])N([H])C(=O)C1([H])N(C(=O)C([H])(N([H])C(=O)C([H])(N([H])C([H])([H])[H])C([H])([H])[H])C(C([H])([H])[H])(C([H])([H])[H])C([H])([H])[H])C([H])([H])c2c([H])c(OC([H])([H])C([H])([H])C([H])([H])C([H])([H])[N+]([H])([H])C([H])(C(=O)N([H])C([H])(C([H])([H])C(=O)N3C([H])([H])C([H])([H])C([H])([H])C([H])(n4nc(-c5c([H])c([H])c(Oc6c([H])c([H])c(F)c([H])c6F)c([H])c5[H])c(C(=O)N([H])[H])c4N([H])[H])C3([H])[H])C([H])([H])C([H])([H])C([H])([H])C([H])([H])[N+]([H])([H])[H])C([H])([H])C([H])([H])[H])c([H])c([H])c2C1([H])[H]

>  <smiles>  (19) 
[H]c1c([H])c([H])c2c(c1[H])C([H])([H])C([H])([H])C([H])([H])C2([H])N([H])C(=O)C1([H])N(C(=O)C([H])(N([H])C(=O)C([H])(N([H])C([H])([H])[H])C([H])([H])[H])C(C([H])([H])[H])(C([H])([H])[H])C([H])([H])[H])C([H])([H])c2c([H])c(OC([H])([H])C([H])([H])C([H])([H])C([H])([H])[N+]([H])([H])C([H])(C(=O)N([H])C([H])(C([H])([H])C(=O)N3C([H])([H])C([H])([H])C([H])([H])C([H])(n4nc(-c5c([H])c([H])c(Oc6c([H])c([H])c(F)c([H])c6F)c([H])c5[H])c(C(=O)N([H])[H])c4N([H])[H])C3([H])[H])C([H])([H])C([H])([H])C([H])([H])C([H])([H])[N+]([H])([H])[H])C([H])([H])C([H])([H])[H])c([H])c([H])c2C1([H])[H]

$$$$
19:0:0
     RDKit          3D

 92100  0  0  1  0  0  0  0  0999 V2000
  -29.4200  -20.4610   19.9690 C   0  0  0  0  0  0  0  0  0  0  0  0
  -29.7660  -21.7690   19.9440 N   0  0  0  0  0  0  0  0  0  0  0  0
  -28.2470  -20.0870   19.8960 O   0  0  0  0  0  0  0  0  0  0  0  0
  -30.7530  -21.9710   20.0400 H   0  0  0  0  0  0  0  0  0  0  0  0
  -30.6470  -18.5890   17.7490 C   0  0  0  0  0  2  0  0  0  0  0  0
  -31.4030  -19.4730   18.7330 C   0  0  0  0  0  2  0  0  0  0  0  0
  -30.1250  -17.4600   18.6380 C   0  0  0  0  0  2  0  0  0  0  0  0
  -30.5520  -19.3980   20.0140 C   0  0  0  0  0  3  0  0  0  0  0  0
  -30.0060  -18.0000   20.0210 N   0  0  2  0  0  4  0  0  0  0  0  0
  -29.0240  -18.1530   20.2190 H   0  0  0  0  0  0  0  0  0  0  0  0
  -30.5970  -17.1070   21.0740 C   0  0  0  0  0  2  0  0  0  0  0  0
  -29.9620  -15.6780   21.2280 C   0  0  0  0  0  2  0  0  0  0  0  0
  -30.6620  -14.4930   20.5060 C   0  0  0  0  0  0  0  0  0  0  0  0
  -30.3710  -12.3490   19.3010 C   0  0  0  0  0  2  0  0  0  0  0  0
  -29.4280  -12.5730   18.1000 C   0  0  0  0  0  2  0  0  0  0  0  0
  -27.9500  -12.4410   18.5240 C   0  0  0  0  0  2  0  0  0  0  0  0
  -27.6200  -13.2650   19.7980 C   0  0  0  0  0  3  0  0  0  0  0  0
  -28.6710  -13.0120   20.9020 C   0  0  0  0  0  2  0  0  0  0  0  0
  -29.9970  -13.3160   20.3450 N   0  0  0  0  0  0  0  0  0  0  0  0
  -31.7780  -14.6780   20.0090 O   0  0  0  0  0  0  0  0  0  0  0  0
  -25.2190  -13.8900   20.4870 C   0  0  0  0  0  0  0  0  0  0  0  0
  -24.1450  -13.1270   20.8570 C   0  0  0  0  0  0  0  0  0  0  0  0
  -24.6000  -11.7720   20.8390 C   0  0  0  0  0  0  0  0  0  0  0  0
  -26.2630  -13.0020   20.2710 N   0  0  0  0  0  0  0  0  0  0  0  0
  -25.8920  -11.7240   20.5390 N   0  0  0  0  0  0  0  0  0  0  0  0
  -23.8660  -10.5160   21.0360 C   0  0  0  0  0  0  0  0  0  0  0  0
  -24.2970   -9.5460   21.9660 C   0  0  0  0  0  3  0  0  0  0  0  0
  -23.5660   -8.3530   22.1490 C   0  0  0  0  0  3  0  0  0  0  0  0
  -22.3870   -8.1210   21.4000 C   0  0  0  0  0  0  0  0  0  0  0  0
  -21.9750   -9.0800   20.4580 C   0  0  0  0  0  3  0  0  0  0  0  0
  -22.7070  -10.2650   20.2740 C   0  0  0  0  0  3  0  0  0  0  0  0
  -21.6270   -6.9800   21.4930 O   0  0  0  0  0  0  0  0  0  0  0  0
  -21.5900   -6.2320   22.6410 C   0  0  0  0  0  0  0  0  0  0  0  0
  -21.1990   -6.7860   23.8810 C   0  0  0  0  0  3  0  0  0  0  0  0
  -21.1080   -5.9650   25.0210 C   0  0  0  0  0  3  0  0  0  0  0  0
  -21.3980   -4.5890   24.9250 C   0  0  0  0  0  0  0  0  0  0  0  0
  -21.7820   -4.0350   23.6920 C   0  0  0  0  0  3  0  0  0  0  0  0
  -21.8750   -4.8550   22.5520 C   0  0  0  0  0  0  0  0  0  0  0  0
  -22.2260   -4.3110   21.3610 F   0  0  0  0  0  0  0  0  0  0  0  0
  -21.3040   -3.7980   26.0190 F   0  0  0  0  0  0  0  0  0  0  0  0
  -22.7490  -13.6130   21.1190 C   0  0  0  0  0  0  0  0  0  0  0  0
  -22.0140  -12.9260   21.9880 N   0  0  0  0  0  0  0  0  0  0  0  0
  -22.3180  -14.6360   20.5890 O   0  0  0  0  0  0  0  0  0  0  0  0
  -22.3790  -12.1000   22.4390 H   0  0  0  0  0  0  0  0  0  0  0  0
  -21.0770  -13.2320   22.2080 H   0  0  0  0  0  0  0  0  0  0  0  0
  -25.3930  -15.2590   20.3010 N   0  0  0  0  0  0  0  0  0  0  0  0
  -24.6250  -15.9140   20.3930 H   0  0  0  0  0  0  0  0  0  0  0  0
  -26.2430  -15.6880   19.9590 H   0  0  0  0  0  0  0  0  0  0  0  0
  -28.9150  -22.8840   19.4790 C   0  0  0  0  0  2  0  0  0  0  0  0
  -29.0720  -24.2320   20.2480 C   0  0  0  0  0  2  0  0  0  0  0  0
  -28.5520  -25.4460   19.4230 C   0  0  0  0  0  2  0  0  0  0  0  0
  -28.3980  -26.6790   20.1730 O   0  0  0  0  0  0  0  0  0  0  0  0
  -24.5930  -31.8860   23.2570 C   0  0  0  0  0  0  0  0  0  0  0  0
  -27.2100  -27.4040   20.1530 C   0  0  0  0  0  0  0  0  0  0  0  0
  -23.3790  -30.4900   21.6210 C   0  0  0  0  0  3  0  0  0  0  0  0
  -24.8210  -28.9540   20.1880 C   0  0  0  0  0  0  0  0  0  0  0  0
  -25.9120  -30.8290   21.4210 C   0  0  0  0  0  2  0  0  0  0  0  0
  -25.9870  -29.4580   20.7730 C   0  0  0  0  0  0  0  0  0  0  0  0
  -27.1800  -28.6910   20.7540 C   0  0  0  0  0  3  0  0  0  0  0  0
  -26.0060  -26.9220   19.5790 C   0  0  0  0  0  3  0  0  0  0  0  0
  -24.8290  -27.6860   19.5910 C   0  0  0  0  0  3  0  0  0  0  0  0
  -23.5820  -29.8170   20.2390 C   0  0  0  0  0  2  0  0  0  0  0  0
  -24.6470  -31.0840   22.1560 N   0  0  0  0  0  0  0  0  0  0  0  0
  -23.5120  -32.1620   23.7990 O   0  0  0  0  0  0  0  0  0  0  0  0
  -22.7290  -29.4660   22.5800 C   0  0  0  0  0  0  0  0  0  0  0  0
  -21.4050  -29.2820   22.4540 N   0  0  0  0  0  0  0  0  0  0  0  0
  -23.4140  -28.8410   23.3970 O   0  0  0  0  0  0  0  0  0  0  0  0
  -20.9140  -29.8380   21.7680 H   0  0  0  0  0  0  0  0  0  0  0  0
  -18.0320  -28.0810   22.9500 C   0  0  0  0  0  0  0  0  0  0  0  0
  -20.5880  -28.3450   23.2250 C   0  0  0  0  0  3  0  0  0  0  0  0
  -20.6950  -26.9120   22.6540 C   0  0  0  0  0  2  0  0  0  0  0  0
  -19.5950  -26.5840   21.6380 C   0  0  0  0  0  2  0  0  0  0  0  0
  -18.2120  -26.7290   22.2790 C   0  0  0  0  0  2  0  0  0  0  0  0
  -19.1480  -28.8470   23.3790 C   0  0  0  0  0  0  0  0  0  0  0  0
  -18.9250  -30.1120   23.9640 C   0  0  0  0  0  3  0  0  0  0  0  0
  -17.6190  -30.6120   24.1220 C   0  0  0  0  0  3  0  0  0  0  0  0
  -16.5170  -29.8440   23.7090 C   0  0  0  0  0  3  0  0  0  0  0  0
  -16.7250  -28.5790   23.1290 C   0  0  0  0  0  3  0  0  0  0  0  0
  -25.8810  -32.5150   23.8720 C   0  0  0  0  0  3  0  0  0  0  0  0
  -25.5770  -33.9150   24.2000 N   0  0  0  0  0  0  0  0  0  0  0  0
  -25.9110  -34.9630   23.4370 C   0  0  0  0  0  0  0  0  0  0  0  0
  -26.5780  -34.8570   22.4050 O   0  0  0  0  0  0  0  0  0  0  0  0
  -24.9850  -34.0730   25.0030 H   0  0  0  0  0  0  0  0  0  0  0  0
  -24.1850  -36.7580   23.0810 C   0  0  0  0  0  1  0  0  0  0  0  0
  -25.4270  -36.3540   23.8920 C   0  0  0  0  0  3  0  0  0  0  0  0
  -27.5670  -37.2350   24.7130 C   0  0  0  0  0  1  0  0  0  0  0  0
  -26.4620  -37.4040   23.7740 N   0  0  0  0  0  0  0  0  0  0  0  0
  -26.0590  -38.3270   23.9200 H   0  0  0  0  0  0  0  0  0  0  0  0
  -26.4010  -31.7440   25.1460 C   0  0  1  0  0  0  0  0  0  0  0  0
  -25.3130  -31.5090   26.2190 C   0  0  0  0  0  1  0  0  0  0  0  0
  -26.9790  -30.3640   24.7520 C   0  0  0  0  0  1  0  0  0  0  0  0
  -27.5580  -32.5360   25.8020 C   0  0  0  0  0  1  0  0  0  0  0  0
  2  1  1  0
  2  4  1  0
  3  1  2  0
  5  7  1  0
  5  6  1  0
  6  8  1  0
  7  9  1  0
  8  1  1  0
  8  9  1  0
  9 10  1  1
  9 11  1  0
 11 12  1  0
 13 12  1  0
 14 19  1  0
 15 16  1  0
 15 14  1  0
 17 16  1  0
 17 24  1  0
 17 18  1  0
 19 13  1  0
 19 18  1  0
 20 13  2  0
 21 22  2  0
 22 41  1  0
 23 22  1  0
 23 26  1  0
 24 21  1  0
 24 25  1  0
 25 23  2  0
 26 27  1  0
 27 28  2  0
 29 32  1  0
 29 28  1  0
 30 29  2  0
 31 30  1  0
 31 26  2  0
 32 33  1  0
 33 34  1  0
 34 35  2  0
 36 35  1  0
 36 40  1  0
 37 36  2  0
 38 33  2  0
 38 37  1  0
 39 38  1  0
 41 42  1  0
 42 45  1  0
 42 44  1  0
 43 41  2  0
 46 47  1  0
 46 21  1  0
 48 46  1  0
 49  2  1  0
 49 50  1  0
 51 52  1  0
 51 50  1  0
 53 64  2  0
 54 52  1  0
 54 59  1  0
 55 63  1  0
 55 65  1  0
 56 62  1  0
 56 58  1  0
 57 63  1  0
 58 57  1  0
 59 58  2  0
 60 61  1  0
 60 54  2  0
 61 56  2  0
 62 55  1  0
 63 53  1  0
 65 67  2  0
 66 65  1  0
 68 66  1  0
 69 78  2  0
 69 74  1  0
 70 66  1  0
 70 74  1  0
 71 70  1  0
 72 73  1  0
 72 71  1  0
 73 69  1  0
 74 75  2  0
 75 76  1  0
 77 76  2  0
 78 77  1  0
 79 53  1  0
 79 80  1  0
 79 89  1  0
 80 83  1  0
 81 85  1  0
 81 80  1  0
 82 81  2  0
 85 84  1  0
 87 85  1  0
 87 88  1  0
 87 86  1  0
 89 92  1  1
 89 90  1  0
 91 89  1  0
M  ISO  4  12 100  13 100  51 101  52 101
M  END
>  <TORSDO>  (20) 
F 22

>  <SCORE>  (20) 
-13.179

>  <name>  (20) 
19

>  <ligand_id>  (20) 
19

>  <original_smiles>  (20) 
[H]c1c([H])c([H])c2c(c1[H])C([H])([H])C([H])([H])C([H])([H])C2([H])N([H])C(=O)C1([H])N(C(=O)C([H])(N([H])C(=O)C([H])(N([H])C([H])([H])[H])C([H])([H])[H])C(C([H])([H])[H])(C([H])([H])[H])C([H])([H])[H])C([H])([H])c2c([H])c(OC([H])([H])C([H])([H])C([H])([H])N([H])C(=O)C3([H])C([H])([H])C([H])([H])C([H])([H])[N+]3([H])C([H])([H])C([H])([H])C(=O)N3C([H])([H])C([H])([H])C([H])([H])C([H])(n4nc(-c5c([H])c([H])c(Oc6c([H])c([H])c(F)c([H])c6F)c([H])c5[H])c(C(=O)N([H])[H])c4N([H])[H])C3([H])[H])c([H])c([H])c2C1([H])[H]

>  <smiles>  (20) 
[H]c1c([H])c([H])c2c(c1[H])C([H])([H])C([H])([H])C([H])([H])C2([H])N([H])C(=O)C1([H])N(C(=O)C([H])(N([H])C(=O)C([H])(N([H])C([H])([H])[H])C([H])([H])[H])C(C([H])([H])[H])(C([H])([H])[H])C([H])([H])[H])C([H])([H])c2c([H])c(OC([H])([H])C([H])([H])C([H])([H])N([H])C(=O)C3([H])C([H])([H])C([H])([H])C([H])([H])[N+]3([H])C([H])([H])C([H])([H])C(=O)N3C([H])([H])C([H])([H])C([H])([H])C([H])(n4nc(-c5c([H])c([H])c(Oc6c([H])c([H])c(F)c([H])c6F)c([H])c5[H])c(C(=O)N([H])[H])c4N([H])[H])C3([H])[H])c([H])c([H])c2C1([H])[H]

$$$$
20:0:0
     RDKit          3D

 93101  0  0  1  0  0  0  0  0999 V2000
  -28.7540  -20.6670   20.0060 C   0  0  0  0  0  3  0  0  0  0  0  0
  -27.2310  -23.1290   20.1200 C   0  0  0  0  0  2  0  0  0  0  0  0
  -27.6890  -20.8700   18.9560 C   0  0  0  0  0  3  0  0  0  0  0  0
  -26.6360  -21.8570   19.4880 C   0  0  0  0  0  3  0  0  0  0  0  0
  -28.7650  -23.1640   20.2890 C   0  0  0  0  0  3  0  0  0  0  0  0
  -28.3440  -21.2450   17.6150 C   0  0  0  0  0  1  0  0  0  0  0  0
  -25.5220  -22.1660   18.4710 C   0  0  0  0  0  1  0  0  0  0  0  0
  -30.4290  -21.6410   21.5470 C   0  0  0  0  0  1  0  0  0  0  0  0
  -29.2790  -21.7780   20.6340 N   0  0  0  0  0  0  0  0  0  0  0  0
  -29.0760  -19.3410   20.1850 N   0  0  0  0  0  0  0  0  0  0  0  0
  -28.5280  -18.7220   19.6020 H   0  0  0  0  0  0  0  0  0  0  0  0
  -29.1900  -24.3350   21.2590 C   0  0  0  0  0  2  0  0  0  0  0  0
  -28.3370  -25.6510   21.3560 C   0  0  0  0  0  2  0  0  0  0  0  0
  -28.4840  -26.6800   20.3500 O   0  0  0  0  0  0  0  0  0  0  0  0
  -24.5760  -31.9150   23.2670 C   0  0  0  0  0  0  0  0  0  0  0  0
  -27.3640  -27.4880   20.2710 C   0  0  0  0  0  0  0  0  0  0  0  0
  -23.4420  -30.4990   21.5880 C   0  0  0  0  0  3  0  0  0  0  0  0
  -24.9610  -28.9850   20.2000 C   0  0  0  0  0  0  0  0  0  0  0  0
  -25.9700  -30.8860   21.4700 C   0  0  0  0  0  2  0  0  0  0  0  0
  -26.0960  -29.5170   20.8280 C   0  0  0  0  0  0  0  0  0  0  0  0
  -27.3040  -28.7760   20.8610 C   0  0  0  0  0  3  0  0  0  0  0  0
  -26.2180  -26.9830   19.6250 C   0  0  0  0  0  3  0  0  0  0  0  0
  -25.0190  -27.7190   19.5920 C   0  0  0  0  0  3  0  0  0  0  0  0
  -23.7030  -29.8270   20.2130 C   0  0  0  0  0  2  0  0  0  0  0  0
  -24.6790  -31.1150   22.1670 N   0  0  0  0  0  0  0  0  0  0  0  0
  -23.4750  -32.1720   23.7740 O   0  0  0  0  0  0  0  0  0  0  0  0
  -22.7730  -29.4690   22.5270 C   0  0  0  0  0  0  0  0  0  0  0  0
  -21.4510  -29.2840   22.3730 N   0  0  0  0  0  0  0  0  0  0  0  0
  -23.4410  -28.8360   23.3500 O   0  0  0  0  0  0  0  0  0  0  0  0
  -20.9730  -29.8460   21.6810 H   0  0  0  0  0  0  0  0  0  0  0  0
  -18.0640  -28.1040   22.8200 C   0  0  0  0  0  0  0  0  0  0  0  0
  -20.6210  -28.3390   23.1180 C   0  0  0  0  0  3  0  0  0  0  0  0
  -20.7190  -26.9180   22.5160 C   0  0  0  0  0  2  0  0  0  0  0  0
  -19.6230  -26.6230   21.4860 C   0  0  0  0  0  2  0  0  0  0  0  0
  -18.2360  -26.7660   22.1210 C   0  0  0  0  0  2  0  0  0  0  0  0
  -19.1840  -28.8500   23.2750 C   0  0  0  0  0  0  0  0  0  0  0  0
  -18.9690  -30.1030   23.8870 C   0  0  0  0  0  3  0  0  0  0  0  0
  -17.6670  -30.6120   24.0500 C   0  0  0  0  0  3  0  0  0  0  0  0
  -16.5610  -29.8630   23.6130 C   0  0  0  0  0  3  0  0  0  0  0  0
  -16.7610  -28.6110   23.0040 C   0  0  0  0  0  3  0  0  0  0  0  0
  -25.8340  -32.5610   23.9270 C   0  0  0  0  0  3  0  0  0  0  0  0
  -25.5080  -33.9640   24.2200 N   0  0  0  0  0  0  0  0  0  0  0  0
  -25.8680  -35.0040   23.4560 C   0  0  0  0  0  0  0  0  0  0  0  0
  -26.5790  -34.8840   22.4540 O   0  0  0  0  0  0  0  0  0  0  0  0
  -24.8790  -34.1300   24.9930 H   0  0  0  0  0  0  0  0  0  0  0  0
  -24.1530  -36.7860   22.9940 C   0  0  0  0  0  1  0  0  0  0  0  0
  -25.3580  -36.3980   23.8680 C   0  0  0  0  0  3  0  0  0  0  0  0
  -27.4470  -37.3040   24.7840 C   0  0  0  0  0  1  0  0  0  0  0  0
  -26.3920  -37.4510   23.7840 N   0  0  0  0  0  0  0  0  0  0  0  0
  -25.9780  -38.3730   23.8960 H   0  0  0  0  0  0  0  0  0  0  0  0
  -26.3050  -31.8140   25.2340 C   0  0  1  0  0  0  0  0  0  0  0  0
  -25.1720  -31.5840   26.2610 C   0  0  0  0  0  1  0  0  0  0  0  0
  -26.9130  -30.4350   24.8850 C   0  0  0  0  0  1  0  0  0  0  0  0
  -27.4250  -32.6260   25.9280 C   0  0  0  0  0  1  0  0  0  0  0  0
  -29.9440  -18.5570   21.1060 C   0  0  0  0  0  2  0  0  0  0  0  0
  -30.4720  -17.2160   20.4910 C   0  0  0  0  0  2  0  0  0  0  0  0
  -29.9210  -15.8510   21.0490 C   0  0  0  0  0  2  0  0  0  0  0  0
  -30.5970  -14.5940   20.4140 C   0  0  0  0  0  0  0  0  0  0  0  0
  -30.3010  -12.4370   19.2370 C   0  0  0  0  0  2  0  0  0  0  0  0
  -29.3310  -12.6490   18.0550 C   0  0  0  0  0  2  0  0  0  0  0  0
  -27.8700  -12.4730   18.5160 C   0  0  0  0  0  2  0  0  0  0  0  0
  -27.5490  -13.2790   19.8020 C   0  0  0  0  0  3  0  0  0  0  0  0
  -28.6370  -13.0780   20.8820 C   0  0  0  0  0  2  0  0  0  0  0  0
  -29.9380  -13.4060   20.2870 N   0  0  0  0  0  0  0  0  0  0  0  0
  -31.7180  -14.7490   19.9220 O   0  0  0  0  0  0  0  0  0  0  0  0
  -25.1570  -13.8270   20.5730 C   0  0  0  0  0  0  0  0  0  0  0  0
  -24.1110  -13.0290   20.9520 C   0  0  0  0  0  0  0  0  0  0  0  0
  -24.5970  -11.6860   20.8930 C   0  0  0  0  0  0  0  0  0  0  0  0
  -26.2140  -12.9690   20.3080 N   0  0  0  0  0  0  0  0  0  0  0  0
  -25.8820  -11.6760   20.5600 N   0  0  0  0  0  0  0  0  0  0  0  0
  -23.8990  -10.4080   21.0810 C   0  0  0  0  0  0  0  0  0  0  0  0
  -24.3550   -9.4460   22.0080 C   0  0  0  0  0  3  0  0  0  0  0  0
  -23.6550   -8.2320   22.1830 C   0  0  0  0  0  3  0  0  0  0  0  0
  -22.4840   -7.9730   21.4310 C   0  0  0  0  0  0  0  0  0  0  0  0
  -22.0470   -8.9250   20.4930 C   0  0  0  0  0  3  0  0  0  0  0  0
  -22.7480  -10.1300   20.3160 C   0  0  0  0  0  3  0  0  0  0  0  0
  -21.7550   -6.8120   21.5160 O   0  0  0  0  0  0  0  0  0  0  0  0
  -21.7170   -6.0680   22.6680 C   0  0  0  0  0  0  0  0  0  0  0  0
  -21.2460   -6.6040   23.8860 C   0  0  0  0  0  3  0  0  0  0  0  0
  -21.1600   -5.7840   25.0300 C   0  0  0  0  0  3  0  0  0  0  0  0
  -21.5330   -4.4300   24.9540 C   0  0  0  0  0  0  0  0  0  0  0  0
  -21.9980   -3.8930   23.7410 C   0  0  0  0  0  3  0  0  0  0  0  0
  -22.0860   -4.7100   22.6000 C   0  0  0  0  0  0  0  0  0  0  0  0
  -22.5140   -4.1810   21.4280 F   0  0  0  0  0  0  0  0  0  0  0  0
  -21.4430   -3.6400   26.0510 F   0  0  0  0  0  0  0  0  0  0  0  0
  -22.7120  -13.4750   21.2590 C   0  0  0  0  0  0  0  0  0  0  0  0
  -22.0150  -12.7550   22.1320 N   0  0  0  0  0  0  0  0  0  0  0  0
  -22.2430  -14.4990   20.7610 O   0  0  0  0  0  0  0  0  0  0  0  0
  -22.4080  -11.9270   22.5550 H   0  0  0  0  0  0  0  0  0  0  0  0
  -21.0770  -13.0360   22.3810 H   0  0  0  0  0  0  0  0  0  0  0  0
  -25.2930  -15.2020   20.4110 N   0  0  0  0  0  0  0  0  0  0  0  0
  -24.5180  -15.8420   20.5430 H   0  0  0  0  0  0  0  0  0  0  0  0
  -26.1320  -15.6580   20.0740 H   0  0  0  0  0  0  0  0  0  0  0  0
  1 10  1  0
  1  9  1  0
  2  5  1  0
  3  6  1  0
  3  4  1  0
  3  1  1  0
  4  7  1  0
  4  2  1  0
  5  9  1  0
  5 12  1  0
  9  8  1  0
 10 55  1  0
 11 10  1  0
 12 13  1  0
 14 13  1  0
 15 26  2  0
 16 14  1  0
 16 21  1  0
 17 25  1  0
 17 27  1  0
 18 24  1  0
 18 20  1  0
 19 25  1  0
 20 21  2  0
 20 19  1  0
 22 16  2  0
 23 22  1  0
 23 18  2  0
 24 17  1  0
 25 15  1  0
 27 29  2  0
 28 27  1  0
 30 28  1  0
 31 40  2  0
 31 36  1  0
 32 28  1  0
 32 36  1  0
 33 32  1  0
 34 35  1  0
 34 33  1  0
 35 31  1  0
 36 37  2  0
 37 38  1  0
 39 38  2  0
 40 39  1  0
 41 15  1  0
 41 42  1  0
 41 51  1  0
 42 45  1  0
 43 47  1  0
 43 42  1  0
 44 43  2  0
 47 46  1  0
 49 47  1  0
 49 50  1  0
 49 48  1  0
 51 54  1  1
 51 52  1  0
 53 51  1  0
 56 57  1  0
 56 55  1  0
 58 57  1  0
 59 64  1  0
 60 61  1  0
 60 59  1  0
 62 61  1  0
 62 69  1  0
 62 63  1  0
 64 58  1  0
 64 63  1  0
 65 58  2  0
 66 67  2  0
 67 86  1  0
 68 67  1  0
 68 71  1  0
 69 70  1  0
 69 66  1  0
 70 68  2  0
 71 72  1  0
 72 73  2  0
 74 77  1  0
 74 73  1  0
 75 74  2  0
 76 75  1  0
 76 71  2  0
 77 78  1  0
 78 79  1  0
 79 80  2  0
 81 80  1  0
 81 85  1  0
 82 81  2  0
 83 78  2  0
 83 82  1  0
 84 83  1  0
 86 87  1  0
 87 90  1  0
 87 89  1  0
 88 86  2  0
 91 92  1  0
 91 66  1  0
 93 91  1  0
M  ISO  4  13 101  14 101  57 100  58 100
M  END
>  <TORSDO>  (21) 
F 21

>  <SCORE>  (21) 
-13.640

>  <name>  (21) 
20

>  <ligand_id>  (21) 
20

>  <original_smiles>  (21) 
[H]c1c([H])c([H])c2c(c1[H])C([H])([H])C([H])([H])C([H])([H])C2([H])N([H])C(=O)C1([H])N(C(=O)C([H])(N([H])C(=O)C([H])(N([H])C([H])([H])[H])C([H])([H])[H])C(C([H])([H])[H])(C([H])([H])[H])C([H])([H])[H])C([H])([H])c2c([H])c(OC([H])([H])C([H])([H])C3([H])N(C([H])([H])[H])C(=[N+]([H])C([H])([H])C([H])([H])C([H])([H])C(=O)N4C([H])([H])C([H])([H])C([H])([H])C([H])(n5nc(-c6c([H])c([H])c(Oc7c([H])c([H])c(F)c([H])c7F)c([H])c6[H])c(C(=O)N([H])[H])c5N([H])[H])C4([H])[H])C([H])(C([H])([H])[H])C([H])(C([H])([H])[H])C3([H])[H])c([H])c([H])c2C1([H])[H]

>  <smiles>  (21) 
[H]c1c([H])c([H])c2c(c1[H])C([H])([H])C([H])([H])C([H])([H])C2([H])N([H])C(=O)C1([H])N(C(=O)C([H])(N([H])C(=O)C([H])(N([H])C([H])([H])[H])C([H])([H])[H])C(C([H])([H])[H])(C([H])([H])[H])C([H])([H])[H])C([H])([H])c2c([H])c(OC([H])([H])C([H])([H])C3([H])N(C([H])([H])[H])C(=[N+]([H])C([H])([H])C([H])([H])C([H])([H])C(=O)N4C([H])([H])C([H])([H])C([H])([H])C([H])(n5nc(-c6c([H])c([H])c(Oc7c([H])c([H])c(F)c([H])c7F)c([H])c6[H])c(C(=O)N([H])[H])c5N([H])[H])C4([H])[H])C([H])(C([H])([H])[H])C([H])(C([H])([H])[H])C3([H])[H])c([H])c([H])c2C1([H])[H]

$$$$
22:0:0
     RDKit          3D

 93100  0  0  1  0  0  0  0  0999 V2000
  -29.9820  -19.4550   20.3820 C   0  0  0  0  0  3  0  0  0  0  0  0
  -30.9300  -19.2280   22.6710 C   0  0  0  0  0  1  0  0  0  0  0  0
  -31.0280  -19.8980   21.3500 N   0  0  1  0  0  4  0  0  0  0  0  0
  -30.7360  -20.8390   21.5730 H   0  0  0  0  0  0  0  0  0  0  0  0
  -33.5480  -19.9720   21.8040 C   0  0  0  0  0  1  0  0  0  0  0  0
  -32.4010  -20.1090   20.7720 C   0  0  0  0  0  3  0  0  0  0  0  0
  -32.5030  -21.5000   20.0730 C   0  0  0  0  0  2  0  0  0  0  0  0
  -33.2750  -20.8220   17.7240 C   0  0  0  0  0  1  0  0  0  0  0  0
  -32.0700  -23.0150   18.0710 C   0  0  0  0  0  1  0  0  0  0  0  0
  -32.2080  -21.5600   18.5510 C   0  0  0  0  0  3  0  0  0  0  0  0
  -28.7080  -20.5060   20.4000 C   0  0  0  0  0  2  0  0  0  0  0  0
  -28.8510  -22.1640   20.6230 C   0  0  0  0  0  2  0  0  0  0  0  0
  -28.4510  -23.6050   19.8610 C   0  0  0  0  0  2  0  0  0  0  0  0
  -27.9090  -24.9770   20.6100 C   0  0  0  0  0  2  0  0  0  0  0  0
  -28.0490  -26.4010   20.0610 O   0  0  0  0  0  0  0  0  0  0  0  0
  -24.5140  -31.9670   23.2410 C   0  0  0  0  0  0  0  0  0  0  0  0
  -26.9650  -27.3240   20.0950 C   0  0  0  0  0  0  0  0  0  0  0  0
  -23.2440  -30.5920   21.6310 C   0  0  0  0  0  3  0  0  0  0  0  0
  -24.6330  -29.0230   20.1490 C   0  0  0  0  0  0  0  0  0  0  0  0
  -25.7840  -30.8720   21.3630 C   0  0  0  0  0  2  0  0  0  0  0  0
  -25.8310  -29.4850   20.7080 C   0  0  0  0  0  0  0  0  0  0  0  0
  -27.0040  -28.6520   20.6580 C   0  0  0  0  0  3  0  0  0  0  0  0
  -25.7420  -26.9340   19.5140 C   0  0  0  0  0  3  0  0  0  0  0  0
  -24.5930  -27.7560   19.5410 C   0  0  0  0  0  3  0  0  0  0  0  0
  -23.4100  -29.9210   20.2410 C   0  0  0  0  0  2  0  0  0  0  0  0
  -24.5350  -31.1630   22.1350 N   0  0  0  0  0  0  0  0  0  0  0  0
  -23.4510  -32.2490   23.8140 O   0  0  0  0  0  0  0  0  0  0  0  0
  -22.6000  -29.5790   22.6090 C   0  0  0  0  0  0  0  0  0  0  0  0
  -21.2810  -29.3580   22.4780 N   0  0  0  0  0  0  0  0  0  0  0  0
  -23.2910  -28.9930   23.4460 O   0  0  0  0  0  0  0  0  0  0  0  0
  -20.7790  -29.8890   21.7790 H   0  0  0  0  0  0  0  0  0  0  0  0
  -17.9610  -27.9820   22.9180 C   0  0  0  0  0  0  0  0  0  0  0  0
  -20.4870  -28.4060   23.2620 C   0  0  0  0  0  3  0  0  0  0  0  0
  -20.6940  -26.9590   22.7580 C   0  0  0  0  0  2  0  0  0  0  0  0
  -19.6500  -26.5280   21.7230 C   0  0  0  0  0  2  0  0  0  0  0  0
  -18.2390  -26.6170   22.3120 C   0  0  0  0  0  2  0  0  0  0  0  0
  -19.0160  -28.8270   23.3520 C   0  0  0  0  0  0  0  0  0  0  0  0
  -18.7030  -30.0990   23.8810 C   0  0  0  0  0  3  0  0  0  0  0  0
  -17.3660  -30.5260   23.9810 C   0  0  0  0  0  3  0  0  0  0  0  0
  -16.3240  -29.6800   23.5640 C   0  0  0  0  0  3  0  0  0  0  0  0
  -16.6230  -28.4100   23.0380 C   0  0  0  0  0  3  0  0  0  0  0  0
  -25.8200  -32.5880   23.8250 C   0  0  0  0  0  3  0  0  0  0  0  0
  -26.3560  -31.8230   25.0980 C   0  0  1  0  0  0  0  0  0  0  0  0
  -25.2870  -31.6170   26.1990 C   0  0  0  0  0  1  0  0  0  0  0  0
  -26.9060  -30.4310   24.7070 C   0  0  0  0  0  1  0  0  0  0  0  0
  -27.5340  -32.6050   25.7220 C   0  0  0  0  0  1  0  0  0  0  0  0
  -25.5380  -33.9940   24.1540 N   0  0  0  0  0  0  0  0  0  0  0  0
  -25.8880  -35.0410   23.3960 C   0  0  0  0  0  0  0  0  0  0  0  0
  -26.5490  -34.9220   22.3600 O   0  0  0  0  0  0  0  0  0  0  0  0
  -24.9510  -34.1600   24.9590 H   0  0  0  0  0  0  0  0  0  0  0  0
  -24.2050  -36.8790   23.0420 C   0  0  0  0  0  1  0  0  0  0  0  0
  -25.4320  -36.4400   23.8560 C   0  0  0  0  0  3  0  0  0  0  0  0
  -27.5800  -37.2760   24.7030 C   0  0  0  0  0  1  0  0  0  0  0  0
  -26.4900  -37.4680   23.7510 N   0  0  0  0  0  0  0  0  0  0  0  0
  -26.1040  -38.3970   23.8940 H   0  0  0  0  0  0  0  0  0  0  0  0
  -29.9250  -17.8070   20.0700 C   0  0  0  0  0  2  0  0  0  0  0  0
  -30.1510  -16.4990   21.0620 C   0  0  0  0  0  2  0  0  0  0  0  0
  -30.8750  -15.1200   20.5660 C   0  0  0  0  0  0  0  0  0  0  0  0
  -30.7650  -12.8050   19.5660 C   0  0  0  0  0  2  0  0  0  0  0  0
  -29.8610  -12.8080   18.3100 C   0  0  0  0  0  2  0  0  0  0  0  0
  -28.3800  -12.6300   18.6940 C   0  0  0  0  0  2  0  0  0  0  0  0
  -27.9560  -13.5430   19.8740 C   0  0  0  0  0  3  0  0  0  0  0  0
  -28.9750  -13.4790   21.0320 C   0  0  0  0  0  2  0  0  0  0  0  0
  -30.2830  -13.8680   20.4910 N   0  0  0  0  0  0  0  0  0  0  0  0
  -32.0450  -15.2170   20.1840 O   0  0  0  0  0  0  0  0  0  0  0  0
  -25.5410  -14.1310   20.5130 C   0  0  0  0  0  0  0  0  0  0  0  0
  -24.4620  -13.3540   20.8430 C   0  0  0  0  0  0  0  0  0  0  0  0
  -24.9300  -12.0050   20.8340 C   0  0  0  0  0  0  0  0  0  0  0  0
  -26.5940  -13.2530   20.3180 N   0  0  0  0  0  0  0  0  0  0  0  0
  -26.2310  -11.9680   20.5740 N   0  0  0  0  0  0  0  0  0  0  0  0
  -24.1990  -10.7410   20.9990 C   0  0  0  0  0  0  0  0  0  0  0  0
  -24.5680   -9.7940   21.9800 C   0  0  0  0  0  3  0  0  0  0  0  0
  -23.8350   -8.5970   22.1310 C   0  0  0  0  0  3  0  0  0  0  0  0
  -22.7200   -8.3370   21.3000 C   0  0  0  0  0  0  0  0  0  0  0  0
  -22.3720   -9.2710   20.3100 C   0  0  0  0  0  3  0  0  0  0  0  0
  -23.1040  -10.4600   20.1570 C   0  0  0  0  0  3  0  0  0  0  0  0
  -21.9660   -7.1880   21.3590 O   0  0  0  0  0  0  0  0  0  0  0  0
  -21.8010   -6.4960   22.5310 C   0  0  0  0  0  0  0  0  0  0  0  0
  -21.2110   -7.0880   23.6700 C   0  0  0  0  0  3  0  0  0  0  0  0
  -20.9950   -6.3190   24.8310 C   0  0  0  0  0  3  0  0  0  0  0  0
  -21.3590   -4.9590   24.8540 C   0  0  0  0  0  0  0  0  0  0  0  0
  -21.9430   -4.3680   23.7200 C   0  0  0  0  0  3  0  0  0  0  0  0
  -22.1600   -5.1330   22.5620 C   0  0  0  0  0  0  0  0  0  0  0  0
  -22.7020   -4.5520   21.4640 F   0  0  0  0  0  0  0  0  0  0  0  0
  -21.1460   -4.2190   25.9680 F   0  0  0  0  0  0  0  0  0  0  0  0
  -23.0550  -13.8300   21.0580 C   0  0  0  0  0  0  0  0  0  0  0  0
  -22.2970  -13.1350   21.9000 N   0  0  0  0  0  0  0  0  0  0  0  0
  -22.6360  -14.8540   20.5190 O   0  0  0  0  0  0  0  0  0  0  0  0
  -22.6460  -12.3070   22.3590 H   0  0  0  0  0  0  0  0  0  0  0  0
  -21.3520  -13.4380   22.0900 H   0  0  0  0  0  0  0  0  0  0  0  0
  -25.7090  -15.5010   20.3380 N   0  0  0  0  0  0  0  0  0  0  0  0
  -24.9430  -16.1580   20.4290 H   0  0  0  0  0  0  0  0  0  0  0  0
  -26.5750  -15.9380   20.0460 H   0  0  0  0  0  0  0  0  0  0  0  0
  1 56  1  0
  1 11  1  0
  1  3  1  0
  3  4  1  1
  3  2  1  0
  6  3  1  0
  6  5  1  0
  7  6  1  0
  8 10  1  0
  9 10  1  0
 10  7  1  0
 11 12  1  0
 13 14  1  0
 13 12  1  0
 15 17  1  0
 15 14  1  0
 16 27  2  0
 17 22  1  0
 18 26  1  0
 18 28  1  0
 19 25  1  0
 19 21  1  0
 20 26  1  0
 21 20  1  0
 22 21  2  0
 23 24  1  0
 23 17  2  0
 24 19  2  0
 25 18  1  0
 26 16  1  0
 28 30  2  0
 29 28  1  0
 31 29  1  0
 32 41  2  0
 32 37  1  0
 33 29  1  0
 33 37  1  0
 34 33  1  0
 35 36  1  0
 35 34  1  0
 36 32  1  0
 37 38  2  0
 38 39  1  0
 40 39  2  0
 41 40  1  0
 42 16  1  0
 42 47  1  0
 42 43  1  0
 43 46  1  1
 43 44  1  0
 45 43  1  0
 47 50  1  0
 48 52  1  0
 48 47  1  0
 49 48  2  0
 52 51  1  0
 54 52  1  0
 54 55  1  0
 54 53  1  0
 56 57  1  0
 58 57  1  0
 59 64  1  0
 60 61  1  0
 60 59  1  0
 62 61  1  0
 62 69  1  0
 62 63  1  0
 64 58  1  0
 64 63  1  0
 65 58  2  0
 66 67  2  0
 67 86  1  0
 68 67  1  0
 68 71  1  0
 69 66  1  0
 69 70  1  0
 70 68  2  0
 71 72  1  0
 72 73  2  0
 74 77  1  0
 74 73  1  0
 75 74  2  0
 76 75  1  0
 76 71  2  0
 77 78  1  0
 78 83  2  0
 78 79  1  0
 79 80  2  0
 80 81  1  0
 81 85  1  0
 82 81  2  0
 83 82  1  0
 84 83  1  0
 86 87  1  0
 87 90  1  0
 87 89  1  0
 88 86  2  0
 91 92  1  0
 91 66  1  0
 93 91  1  0
M  ISO  4  14 101  15 101  57 100  58 100
M  END
>  <TORSDO>  (22) 
F 26

>  <SCORE>  (22) 
-11.706

>  <name>  (22) 
22

>  <ligand_id>  (22) 
22

>  <original_smiles>  (22) 
[H]c1c([H])c([H])c2c(c1[H])C([H])([H])C([H])([H])C([H])([H])C2([H])N([H])C(=O)C1([H])N(C(=O)C([H])(N([H])C(=O)C([H])(N([H])C([H])([H])[H])C([H])([H])[H])C(C([H])([H])[H])(C([H])([H])[H])C([H])([H])[H])C([H])([H])c2c([H])c(OC([H])([H])C([H])([H])C([H])([H])C([H])([H])C([H])(C([H])([H])C([H])([H])C(=O)N3C([H])([H])C([H])([H])C([H])([H])C([H])(n4nc(-c5c([H])c([H])c(Oc6c([H])c([H])c(F)c([H])c6F)c([H])c5[H])c(C(=O)N([H])[H])c4N([H])[H])C3([H])[H])[N+]([H])(C([H])([H])[H])C([H])(C([H])([H])[H])C([H])([H])C([H])(C([H])([H])[H])C([H])([H])[H])c([H])c([H])c2C1([H])[H]

>  <smiles>  (22) 
[H]c1c([H])c([H])c2c(c1[H])C([H])([H])C([H])([H])C([H])([H])C2([H])N([H])C(=O)C1([H])N(C(=O)C([H])(N([H])C(=O)C([H])(N([H])C([H])([H])[H])C([H])([H])[H])C(C([H])([H])[H])(C([H])([H])[H])C([H])([H])[H])C([H])([H])c2c([H])c(OC([H])([H])C([H])([H])C([H])([H])C([H])([H])C([H])(C([H])([H])C([H])([H])C(=O)N3C([H])([H])C([H])([H])C([H])([H])C([H])(n4nc(-c5c([H])c([H])c(Oc6c([H])c([H])c(F)c([H])c6F)c([H])c5[H])c(C(=O)N([H])[H])c4N([H])[H])C3([H])[H])[N+]([H])(C([H])([H])[H])C([H])(C([H])([H])[H])C([H])([H])C([H])(C([H])([H])[H])C([H])([H])[H])c([H])c([H])c2C1([H])[H]

$$$$
23:0:0
     RDKit          3D

 93101  0  0  1  0  0  0  0  0999 V2000
  -27.8130  -20.2590   21.4120 C   0  0  0  0  0  2  0  0  0  0  0  0
  -28.7520  -20.4640   20.4710 C   0  0  0  0  0  0  0  0  0  0  0  0
  -30.3180  -17.2750   21.3590 C   0  0  0  0  0  2  0  0  0  0  0  0
  -28.5730  -18.1940   19.3020 C   0  0  0  0  0  2  0  0  0  0  0  0
  -30.1270  -16.1620   18.8940 C   0  0  0  0  0  2  0  0  0  0  0  0
  -29.5220  -19.2870   19.8630 C   0  0  0  0  0  3  0  0  0  0  0  0
  -30.7150  -16.1700   20.3460 C   0  0  0  0  0  3  0  0  0  0  0  0
  -30.5610  -18.7430   20.8830 C   0  0  0  0  0  3  0  0  0  0  0  0
  -32.0000  -19.0450   20.4010 C   0  0  0  0  0  1  0  0  0  0  0  0
  -28.3230  -16.7310   17.3560 C   0  0  0  0  0  1  0  0  0  0  0  0
  -29.2670  -17.2730   18.3640 N   0  0  1  0  0  4  0  0  0  0  0  0
  -29.8930  -17.8560   17.8330 H   0  0  0  0  0  0  0  0  0  0  0  0
  -31.1350  -14.7800   20.9630 C   0  0  0  0  0  0  0  0  0  0  0  0
  -30.8230  -12.5040   20.1360 C   0  0  0  0  0  2  0  0  0  0  0  0
  -30.0410  -12.5530   18.8130 C   0  0  0  0  0  2  0  0  0  0  0  0
  -28.5170  -12.5340   19.0750 C   0  0  0  0  0  2  0  0  0  0  0  0
  -28.0400  -13.4620   20.2280 C   0  0  0  0  0  3  0  0  0  0  0  0
  -28.9980  -13.4550   21.4390 C   0  0  0  0  0  2  0  0  0  0  0  0
  -30.3690  -13.6450   20.9460 N   0  0  0  0  0  0  0  0  0  0  0  0
  -32.3450  -14.6910   21.1270 O   0  0  0  0  0  0  0  0  0  0  0  0
  -25.6070  -14.1120   20.6910 C   0  0  0  0  0  0  0  0  0  0  0  0
  -24.4940  -13.3620   20.9490 C   0  0  0  0  0  0  0  0  0  0  0  0
  -24.9340  -12.0060   21.0060 C   0  0  0  0  0  0  0  0  0  0  0  0
  -26.6540  -13.2060   20.5970 N   0  0  0  0  0  0  0  0  0  0  0  0
  -26.2500  -11.9370   20.8530 N   0  0  0  0  0  0  0  0  0  0  0  0
  -24.1700  -10.7640   21.1420 C   0  0  0  0  0  0  0  0  0  0  0  0
  -24.5130   -9.7860   22.1030 C   0  0  0  0  0  3  0  0  0  0  0  0
  -23.7590   -8.5970   22.2150 C   0  0  0  0  0  3  0  0  0  0  0  0
  -22.6460   -8.3770   21.3720 C   0  0  0  0  0  0  0  0  0  0  0  0
  -22.3220   -9.3470   20.4070 C   0  0  0  0  0  3  0  0  0  0  0  0
  -23.0720  -10.5310   20.2890 C   0  0  0  0  0  3  0  0  0  0  0  0
  -21.8730   -7.2430   21.3950 O   0  0  0  0  0  0  0  0  0  0  0  0
  -21.7410   -6.4890   22.5330 C   0  0  0  0  0  0  0  0  0  0  0  0
  -21.2580   -7.0410   23.7420 C   0  0  0  0  0  3  0  0  0  0  0  0
  -21.0630   -6.2170   24.8650 C   0  0  0  0  0  3  0  0  0  0  0  0
  -21.3450   -4.8410   24.7840 C   0  0  0  0  0  0  0  0  0  0  0  0
  -21.8260   -4.2870   23.5850 C   0  0  0  0  0  3  0  0  0  0  0  0
  -22.0210   -5.1100   22.4630 C   0  0  0  0  0  0  0  0  0  0  0  0
  -22.4650   -4.5700   21.3000 F   0  0  0  0  0  0  0  0  0  0  0  0
  -21.1630   -4.0430   25.8630 F   0  0  0  0  0  0  0  0  0  0  0  0
  -23.0860  -13.8680   21.0420 C   0  0  0  0  0  0  0  0  0  0  0  0
  -22.2740  -13.2330   21.8790 N   0  0  0  0  0  0  0  0  0  0  0  0
  -22.7170  -14.8650   20.4210 O   0  0  0  0  0  0  0  0  0  0  0  0
  -21.3340  -13.5770   22.0140 H   0  0  0  0  0  0  0  0  0  0  0  0
  -22.5890  -12.4490   22.4380 H   0  0  0  0  0  0  0  0  0  0  0  0
  -25.8020  -15.4790   20.5230 N   0  0  0  0  0  0  0  0  0  0  0  0
  -25.0210  -16.1240   20.6160 H   0  0  0  0  0  0  0  0  0  0  0  0
  -26.6980  -15.9480   20.4750 H   0  0  0  0  0  0  0  0  0  0  0  0
  -29.1280  -21.8550   19.9400 C   0  0  0  0  0  2  0  0  0  0  0  0
  -28.5590  -23.0660   20.7200 C   0  0  0  0  0  2  0  0  0  0  0  0
  -28.8880  -24.4400   20.0950 C   0  0  0  0  0  2  0  0  0  0  0  0
  -28.5230  -25.6140   21.0350 C   0  0  0  0  0  2  0  0  0  0  0  0
  -28.6230  -26.8970   20.4040 O   0  0  0  0  0  0  0  0  0  0  0  0
  -24.6210  -31.9880   23.3390 C   0  0  0  0  0  0  0  0  0  0  0  0
  -27.4440  -27.6050   20.3530 C   0  0  0  0  0  0  0  0  0  0  0  0
  -23.4860  -30.5420   21.6800 C   0  0  0  0  0  3  0  0  0  0  0  0
  -25.0120  -29.0340   20.2970 C   0  0  0  0  0  0  0  0  0  0  0  0
  -26.0010  -30.9720   21.5290 C   0  0  0  0  0  2  0  0  0  0  0  0
  -26.1410  -29.6020   20.9040 C   0  0  0  0  0  0  0  0  0  0  0  0
  -27.3630  -28.8920   20.9300 C   0  0  0  0  0  3  0  0  0  0  0  0
  -26.3010  -27.0500   19.7390 C   0  0  0  0  0  3  0  0  0  0  0  0
  -25.0880  -27.7590   19.7110 C   0  0  0  0  0  3  0  0  0  0  0  0
  -23.7440  -29.8580   20.3120 C   0  0  0  0  0  2  0  0  0  0  0  0
  -24.7190  -31.1850   22.2420 N   0  0  0  0  0  0  0  0  0  0  0  0
  -23.5220  -32.2350   23.8550 O   0  0  0  0  0  0  0  0  0  0  0  0
  -22.8450  -29.5120   22.6370 C   0  0  0  0  0  0  0  0  0  0  0  0
  -21.5260  -29.3020   22.4900 N   0  0  0  0  0  0  0  0  0  0  0  0
  -23.5300  -28.8990   23.4600 O   0  0  0  0  0  0  0  0  0  0  0  0
  -21.0360  -29.8470   21.7940 H   0  0  0  0  0  0  0  0  0  0  0  0
  -18.1620  -28.0690   22.9530 C   0  0  0  0  0  0  0  0  0  0  0  0
  -20.7150  -28.3510   23.2490 C   0  0  0  0  0  3  0  0  0  0  0  0
  -20.8370  -26.9240   22.6640 C   0  0  0  0  0  2  0  0  0  0  0  0
  -19.7460  -26.5970   21.6390 C   0  0  0  0  0  2  0  0  0  0  0  0
  -18.3590  -26.7250   22.2740 C   0  0  0  0  0  2  0  0  0  0  0  0
  -19.2690  -28.8410   23.3960 C   0  0  0  0  0  0  0  0  0  0  0  0
  -19.0320  -30.1020   23.9860 C   0  0  0  0  0  3  0  0  0  0  0  0
  -17.7210  -30.5890   24.1430 C   0  0  0  0  0  3  0  0  0  0  0  0
  -16.6290  -29.8140   23.7150 C   0  0  0  0  0  3  0  0  0  0  0  0
  -16.8500  -28.5570   23.1250 C   0  0  0  0  0  3  0  0  0  0  0  0
  -25.8760  -32.6540   23.9830 C   0  0  0  0  0  3  0  0  0  0  0  0
  -25.5330  -34.0530   24.2730 N   0  0  0  0  0  0  0  0  0  0  0  0
  -25.8720  -35.0950   23.4990 C   0  0  0  0  0  0  0  0  0  0  0  0
  -26.5780  -34.9810   22.4920 O   0  0  0  0  0  0  0  0  0  0  0  0
  -24.9060  -34.2130   25.0480 H   0  0  0  0  0  0  0  0  0  0  0  0
  -24.1210  -36.8430   23.0520 C   0  0  0  0  0  1  0  0  0  0  0  0
  -25.3460  -36.4840   23.9090 C   0  0  0  0  0  3  0  0  0  0  0  0
  -27.4410  -37.4270   24.7750 C   0  0  0  0  0  1  0  0  0  0  0  0
  -26.3620  -37.5540   23.7980 N   0  0  0  0  0  0  0  0  0  0  0  0
  -25.9350  -38.4690   23.9120 H   0  0  0  0  0  0  0  0  0  0  0  0
  -26.3730  -31.9180   25.2860 C   0  0  1  0  0  0  0  0  0  0  0  0
  -25.2550  -31.6680   26.3250 C   0  0  0  0  0  1  0  0  0  0  0  0
  -26.9990  -30.5510   24.9270 C   0  0  0  0  0  1  0  0  0  0  0  0
  -27.4850  -32.7470   25.9650 C   0  0  0  0  0  1  0  0  0  0  0  0
  2  1  2  0
  4  6  1  0
  5  7  1  0
  6  2  1  0
  6  8  1  0
  7 13  1  0
  7  3  1  0
  8  9  1  0
  8  3  1  0
 10 11  1  0
 11  5  1  0
 11  4  1  0
 11 12  1  6
 13 20  2  0
 14 19  1  0
 15 16  1  0
 15 14  1  0
 17 16  1  0
 17 24  1  0
 17 18  1  0
 19 13  1  0
 19 18  1  0
 21 22  2  0
 22 23  1  0
 22 41  1  0
 23 26  1  0
 24 21  1  0
 24 25  1  0
 25 23  2  0
 26 27  1  0
 27 28  2  0
 29 32  1  0
 29 28  1  0
 30 29  2  0
 31 30  1  0
 31 26  2  0
 32 33  1  0
 33 34  1  0
 34 35  2  0
 36 35  1  0
 36 40  1  0
 37 36  2  0
 38 33  2  0
 38 37  1  0
 39 38  1  0
 41 42  1  0
 42 44  1  0
 42 45  1  0
 43 41  2  0
 46 47  1  0
 46 21  1  0
 48 46  1  0
 49  2  1  0
 49 50  1  0
 51 50  1  0
 51 52  1  0
 53 52  1  0
 54 65  2  0
 55 53  1  0
 55 60  1  0
 56 64  1  0
 56 66  1  0
 57 63  1  0
 57 59  1  0
 58 64  1  0
 59 60  2  0
 59 58  1  0
 61 55  2  0
 62 61  1  0
 62 57  2  0
 63 56  1  0
 64 54  1  0
 66 68  2  0
 67 66  1  0
 69 67  1  0
 70 79  2  0
 70 75  1  0
 71 67  1  0
 71 75  1  0
 72 71  1  0
 73 74  1  0
 73 72  1  0
 74 70  1  0
 75 76  2  0
 76 77  1  0
 78 77  2  0
 79 78  1  0
 80 54  1  0
 80 81  1  0
 80 90  1  0
 81 84  1  0
 82 86  1  0
 82 81  1  0
 83 82  2  0
 86 85  1  0
 88 86  1  0
 88 89  1  0
 88 87  1  0
 90 93  1  1
 90 91  1  0
 92 90  1  0
M  ISO  4   7 100  13 100  52 101  53 101
M  END
>  <TORSDO>  (23) 
F 21

>  <SCORE>  (23) 
-9.890

>  <name>  (23) 
23

>  <ligand_id>  (23) 
23

>  <original_smiles>  (23) 
[H]C([H])=C(C([H])([H])C([H])([H])C([H])([H])C([H])([H])Oc1c([H])c([H])c2c(c1[H])C([H])([H])N(C(=O)C([H])(N([H])C(=O)C([H])(N([H])C([H])([H])[H])C([H])([H])[H])C(C([H])([H])[H])(C([H])([H])[H])C([H])([H])[H])C([H])(C(=O)N([H])C1([H])c3c([H])c([H])c([H])c([H])c3C([H])([H])C([H])([H])C1([H])[H])C2([H])[H])C1([H])C([H])(C([H])([H])[H])C([H])([H])C([H])(C(=O)N2C([H])([H])C([H])([H])C([H])([H])C([H])(n3nc(-c4c([H])c([H])c(Oc5c([H])c([H])c(F)c([H])c5F)c([H])c4[H])c(C(=O)N([H])[H])c3N([H])[H])C2([H])[H])C([H])([H])[N+]([H])(C([H])([H])[H])C1([H])[H]

>  <smiles>  (23) 
[H]C([H])=C(C([H])([H])C([H])([H])C([H])([H])C([H])([H])Oc1c([H])c([H])c2c(c1[H])C([H])([H])N(C(=O)C([H])(N([H])C(=O)C([H])(N([H])C([H])([H])[H])C([H])([H])[H])C(C([H])([H])[H])(C([H])([H])[H])C([H])([H])[H])C([H])(C(=O)N([H])C1([H])c3c([H])c([H])c([H])c([H])c3C([H])([H])C([H])([H])C1([H])[H])C2([H])[H])C1([H])C([H])(C([H])([H])[H])C([H])([H])C([H])(C(=O)N2C([H])([H])C([H])([H])C([H])([H])C([H])(n3nc(-c4c([H])c([H])c(Oc5c([H])c([H])c(F)c([H])c5F)c([H])c4[H])c(C(=O)N([H])[H])c3N([H])[H])C2([H])[H])C([H])([H])[N+]([H])(C([H])([H])[H])C1([H])[H]

$$$$
24:0:0
     RDKit          3D

 97104  0  0  1  0  0  0  0  0999 V2000
  -30.9460  -23.4150   19.1080 C   0  0  0  0  0  3  0  0  0  0  0  0
  -30.3250  -22.8410   17.9020 N   0  0  0  0  0  4  0  0  0  0  0  0
  -30.3570  -21.8470   18.0950 H   0  0  0  0  0  0  0  0  0  0  0  0
  -29.3600  -23.1090   17.8450 H   0  0  0  0  0  0  0  0  0  0  0  0
  -30.2680  -22.6060   15.4160 C   0  0  0  0  0  1  0  0  0  0  0  0
  -31.0510  -23.1030   16.6400 C   0  0  0  0  0  2  0  0  0  0  0  0
  -30.7560  -22.3750   20.3010 C   0  0  0  0  0  3  0  0  0  0  0  0
  -30.5310  -20.9460   19.8540 N   0  0  0  0  0  0  0  0  0  0  0  0
  -29.9830  -20.4980   20.5840 H   0  0  0  0  0  0  0  0  0  0  0  0
  -32.9300  -20.2840   20.3420 C   0  0  0  0  0  1  0  0  0  0  0  0
  -31.6560  -19.9950   19.5210 C   0  0  0  0  0  3  0  0  0  0  0  0
  -30.9360  -17.9100   18.2140 C   0  0  0  0  0  1  0  0  0  0  0  0
  -31.2640  -18.4310   19.6260 C   0  0  0  0  0  3  0  0  0  0  0  0
  -32.2460  -17.4390   20.4480 C   0  0  0  0  0  2  0  0  0  0  0  0
  -32.8110  -16.0790   19.8440 C   0  0  0  0  0  0  0  0  0  0  0  0
  -32.5530  -13.7690   18.9400 C   0  0  0  0  0  2  0  0  0  0  0  0
  -31.6290  -13.7960   17.7030 C   0  0  0  0  0  2  0  0  0  0  0  0
  -30.1530  -13.6680   18.1250 C   0  0  0  0  0  2  0  0  0  0  0  0
  -29.7850  -14.6280   19.2870 C   0  0  0  0  0  3  0  0  0  0  0  0
  -30.8310  -14.5920   20.4250 C   0  0  0  0  0  2  0  0  0  0  0  0
  -32.1470  -14.8760   19.8360 N   0  0  0  0  0  0  0  0  0  0  0  0
  -33.9370  -16.1390   19.3460 O   0  0  0  0  0  0  0  0  0  0  0  0
  -27.4120  -15.2830   20.0070 C   0  0  0  0  0  0  0  0  0  0  0  0
  -26.3310  -14.5400   20.3960 C   0  0  0  0  0  0  0  0  0  0  0  0
  -26.7640  -13.1780   20.3910 C   0  0  0  0  0  0  0  0  0  0  0  0
  -28.4360  -14.3800   19.7830 N   0  0  0  0  0  0  0  0  0  0  0  0
  -28.0530  -13.1090   20.0760 N   0  0  0  0  0  0  0  0  0  0  0  0
  -26.0140  -11.9370   20.6120 C   0  0  0  0  0  0  0  0  0  0  0  0
  -26.1750  -11.1720   21.7900 C   0  0  0  0  0  3  0  0  0  0  0  0
  -25.4280   -9.9910   21.9830 C   0  0  0  0  0  3  0  0  0  0  0  0
  -24.5080   -9.5640   20.9970 C   0  0  0  0  0  0  0  0  0  0  0  0
  -24.3710  -10.3150   19.8150 C   0  0  0  0  0  3  0  0  0  0  0  0
  -25.1170  -11.4890   19.6230 C   0  0  0  0  0  3  0  0  0  0  0  0
  -23.7590   -8.4160   21.0850 O   0  0  0  0  0  0  0  0  0  0  0  0
  -23.0850   -8.0820   22.2340 C   0  0  0  0  0  0  0  0  0  0  0  0
  -22.0430   -8.8860   22.7440 C   0  0  0  0  0  3  0  0  0  0  0  0
  -21.3310   -8.4730   23.8880 C   0  0  0  0  0  3  0  0  0  0  0  0
  -21.6520   -7.2540   24.5170 C   0  0  0  0  0  0  0  0  0  0  0  0
  -22.6900   -6.4520   24.0070 C   0  0  0  0  0  3  0  0  0  0  0  0
  -23.4010   -6.8650   22.8670 C   0  0  0  0  0  0  0  0  0  0  0  0
  -24.3820   -6.0750   22.3670 F   0  0  0  0  0  0  0  0  0  0  0  0
  -20.9680   -6.8530   25.6130 F   0  0  0  0  0  0  0  0  0  0  0  0
  -24.9460  -15.0520   20.6670 C   0  0  0  0  0  0  0  0  0  0  0  0
  -24.2120  -14.3940   21.5570 N   0  0  0  0  0  0  0  0  0  0  0  0
  -24.5240  -16.0690   20.1180 O   0  0  0  0  0  0  0  0  0  0  0  0
  -24.5680  -13.5680   22.0140 H   0  0  0  0  0  0  0  0  0  0  0  0
  -23.2810  -14.7170   21.7810 H   0  0  0  0  0  0  0  0  0  0  0  0
  -27.6060  -16.6480   19.8010 N   0  0  0  0  0  0  0  0  0  0  0  0
  -26.8640  -17.3290   19.9130 H   0  0  0  0  0  0  0  0  0  0  0  0
  -28.4750  -17.0580   19.4850 H   0  0  0  0  0  0  0  0  0  0  0  0
  -29.5720  -22.7980   21.2100 C   0  0  0  0  0  2  0  0  0  0  0  0
  -29.7930  -22.5700   22.7190 C   0  0  0  0  0  2  0  0  0  0  0  0
  -29.3820  -23.3690   25.1050 C   0  0  0  0  0  1  0  0  0  0  0  0
  -29.0660  -23.5850   23.6150 C   0  0  0  0  0  2  0  0  0  0  0  0
  -30.6940  -25.0080   19.2940 C   0  0  0  0  0  3  0  0  0  0  0  0
  -29.3540  -25.7710   18.8710 C   0  0  0  0  0  3  0  0  0  0  0  0
  -29.2650  -27.2400   19.1210 O   0  0  0  0  0  0  0  0  0  0  0  0
  -24.6870  -31.1200   23.1370 C   0  0  0  0  0  0  0  0  0  0  0  0
  -27.9990  -27.8480   19.2270 C   0  0  0  0  0  0  0  0  0  0  0  0
  -23.7060  -29.8450   21.2650 C   0  0  0  0  0  3  0  0  0  0  0  0
  -25.3640  -28.9270   19.5460 C   0  0  0  0  0  0  0  0  0  0  0  0
  -26.1190  -30.7040   21.1270 C   0  0  0  0  0  2  0  0  0  0  0  0
  -26.4400  -29.5180   20.2190 C   0  0  0  0  0  0  0  0  0  0  0  0
  -27.7570  -28.9910   20.0520 C   0  0  0  0  0  3  0  0  0  0  0  0
  -26.8880  -27.3150   18.5330 C   0  0  0  0  0  3  0  0  0  0  0  0
  -25.5900  -27.8340   18.6950 C   0  0  0  0  0  3  0  0  0  0  0  0
  -23.9820  -29.5080   19.7750 C   0  0  0  0  0  2  0  0  0  0  0  0
  -24.8550  -30.5650   21.9020 N   0  0  0  0  0  0  0  0  0  0  0  0
  -23.5980  -31.0630   23.7260 O   0  0  0  0  0  0  0  0  0  0  0  0
  -23.3080  -28.5470   22.0100 C   0  0  0  0  0  0  0  0  0  0  0  0
  -22.0960  -28.0360   21.7330 N   0  0  0  0  0  0  0  0  0  0  0  0
  -24.0890  -28.0130   22.8000 O   0  0  0  0  0  0  0  0  0  0  0  0
  -21.5090  -28.5380   21.0830 H   0  0  0  0  0  0  0  0  0  0  0  0
  -19.2200  -25.8440   21.6560 C   0  0  0  0  0  0  0  0  0  0  0  0
  -21.5350  -26.8030   22.2900 C   0  0  0  0  0  3  0  0  0  0  0  0
  -22.1290  -25.5560   21.5940 C   0  0  0  0  0  2  0  0  0  0  0  0
  -21.2830  -25.0640   20.4150 C   0  0  0  0  0  2  0  0  0  0  0  0
  -19.8680  -24.7100   20.8780 C   0  0  0  0  0  2  0  0  0  0  0  0
  -20.0030  -26.8350   22.3050 C   0  0  0  0  0  0  0  0  0  0  0  0
  -19.3500  -27.8860   22.9860 C   0  0  0  0  0  3  0  0  0  0  0  0
  -17.9440  -27.9550   23.0260 C   0  0  0  0  0  3  0  0  0  0  0  0
  -17.1750  -26.9630   22.3940 C   0  0  0  0  0  3  0  0  0  0  0  0
  -17.8130  -25.9100   21.7130 C   0  0  0  0  0  3  0  0  0  0  0  0
  -25.8460  -31.8720   23.8590 C   0  0  0  0  0  3  0  0  0  0  0  0
  -26.4410  -31.0700   25.0810 C   0  0  1  0  0  0  0  0  0  0  0  0
  -25.3680  -30.5670   26.0760 C   0  0  0  0  0  1  0  0  0  0  0  0
  -27.2430  -29.8410   24.5930 C   0  0  0  0  0  1  0  0  0  0  0  0
  -27.4350  -31.9630   25.8590 C   0  0  0  0  0  1  0  0  0  0  0  0
  -25.3240  -33.1740   24.3000 N   0  0  0  0  0  0  0  0  0  0  0  0
  -25.5510  -34.3360   23.6740 C   0  0  0  0  0  0  0  0  0  0  0  0
  -26.2910  -34.4330   22.6900 O   0  0  0  0  0  0  0  0  0  0  0  0
  -24.6660  -33.1630   25.0660 H   0  0  0  0  0  0  0  0  0  0  0  0
  -23.6420  -35.9390   23.3410 C   0  0  0  0  0  1  0  0  0  0  0  0
  -24.8480  -35.5910   24.2260 C   0  0  0  0  0  3  0  0  0  0  0  0
  -26.7510  -36.6310   25.3790 C   0  0  0  0  0  1  0  0  0  0  0  0
  -25.7400  -36.7670   24.3350 N   0  0  0  0  0  0  0  0  0  0  0  0
  -25.2030  -37.6080   24.5200 H   0  0  0  0  0  0  0  0  0  0  0  0
  1 55  1  0
  1  7  1  0
  2  3  1  0
  2  1  1  0
  4  2  1  0
  5  6  1  0
  6  2  1  0
  7 51  1  0
  8  7  1  0
  8  9  1  0
 11 13  1  0
 11  8  1  0
 11 10  1  0
 13 12  1  0
 13 14  1  0
 15 14  1  0
 16 21  1  0
 17 18  1  0
 17 16  1  0
 19 18  1  0
 19 26  1  0
 19 20  1  0
 21 15  1  0
 21 20  1  0
 22 15  2  0
 23 24  2  0
 24 43  1  0
 25 24  1  0
 25 28  1  0
 26 23  1  0
 26 27  1  0
 27 25  2  0
 28 29  1  0
 29 30  2  0
 31 34  1  0
 31 30  1  0
 32 31  2  0
 33 32  1  0
 33 28  2  0
 34 35  1  0
 35 36  2  0
 35 40  1  0
 36 37  1  0
 37 38  2  0
 38 42  1  0
 39 38  1  0
 40 39  2  0
 41 40  1  0
 43 44  1  0
 44 47  1  0
 44 46  1  0
 45 43  2  0
 48 49  1  0
 48 23  1  0
 50 48  1  0
 51 52  1  0
 52 54  1  0
 54 53  1  0
 56 57  1  0
 56 55  2  0
 57 59  1  0
 58 69  2  0
 59 64  1  0
 60 68  1  0
 60 70  1  0
 61 67  1  0
 61 63  1  0
 62 68  1  0
 63 62  1  0
 64 63  2  0
 65 66  1  0
 65 59  2  0
 66 61  2  0
 67 60  1  0
 68 58  1  0
 70 72  2  0
 71 70  1  0
 73 71  1  0
 74 83  2  0
 74 79  1  0
 75 71  1  0
 75 79  1  0
 76 75  1  0
 77 78  1  0
 77 76  1  0
 78 74  1  0
 79 80  2  0
 80 81  1  0
 82 81  2  0
 83 82  1  0
 84 58  1  0
 84 89  1  0
 84 85  1  0
 85 88  1  1
 85 86  1  0
 87 85  1  0
 89 92  1  0
 90 94  1  0
 90 89  1  0
 91 90  2  0
 94 93  1  0
 94 96  1  0
 96 97  1  0
 96 95  1  0
M  ISO  4  14 100  15 100  56 101  57 101
M  END
>  <TORSDO>  (24) 
F 28

>  <SCORE>  (24) 
-3.356

>  <name>  (24) 
24

>  <ligand_id>  (24) 
24

>  <original_smiles>  (24) 
[H]c1c([H])c([H])c2c(c1[H])C([H])([H])C([H])([H])C([H])([H])C2([H])N([H])C(=O)C1([H])N(C(=O)C([H])(N([H])C(=O)C([H])(N([H])C([H])([H])[H])C([H])([H])[H])C(C([H])([H])[H])(C([H])([H])[H])C([H])([H])[H])C([H])([H])c2c([H])c(OC([H])([H])C([H])([H])C([H])(C([H])(N([H])C([H])(C([H])([H])[H])C([H])(C([H])([H])[H])C([H])([H])C(=O)N3C([H])([H])C([H])([H])C([H])([H])C([H])(n4nc(-c5c([H])c([H])c(Oc6c([H])c([H])c(F)c([H])c6F)c([H])c5[H])c(C(=O)N([H])[H])c4N([H])[H])C3([H])[H])C([H])([H])C([H])([H])C([H])([H])C([H])([H])[H])[N+]([H])([H])C([H])([H])C([H])([H])[H])c([H])c([H])c2C1([H])[H]

>  <smiles>  (24) 
[H]c1c([H])c([H])c2c(c1[H])C([H])([H])C([H])([H])C([H])([H])C2([H])N([H])C(=O)C1([H])N(C(=O)C([H])(N([H])C(=O)C([H])(N([H])C([H])([H])[H])C([H])([H])[H])C(C([H])([H])[H])(C([H])([H])[H])C([H])([H])[H])C([H])([H])c2c([H])c(OC([H])([H])C([H])([H])C([H])(C([H])(N([H])C([H])(C([H])([H])[H])C([H])(C([H])([H])[H])C([H])([H])C(=O)N3C([H])([H])C([H])([H])C([H])([H])C([H])(n4nc(-c5c([H])c([H])c(Oc6c([H])c([H])c(F)c([H])c6F)c([H])c5[H])c(C(=O)N([H])[H])c4N([H])[H])C3([H])[H])C([H])([H])C([H])([H])C([H])([H])C([H])([H])[H])[N+]([H])([H])C([H])([H])C([H])([H])[H])c([H])c([H])c2C1([H])[H]

$$$$
25:0:0
     RDKit          3D

 91 99  0  0  1  0  0  0  0  0999 V2000
  -29.3160  -19.4850   19.8920 N   0  0  0  0  0  4  0  0  0  0  0  0
  -28.7430  -19.2920   20.6960 H   0  0  0  0  0  0  0  0  0  0  0  0
  -28.6920  -19.4750   19.1010 H   0  0  0  0  0  0  0  0  0  0  0  0
  -30.2360  -18.2580   19.6760 C   0  0  0  0  0  2  0  0  0  0  0  0
  -31.1830  -16.1600   23.4680 C   0  0  0  0  0  3  0  0  0  0  0  0
  -30.7350  -17.4780   23.3950 C   0  0  0  0  0  3  0  0  0  0  0  0
  -31.3360  -15.4170   22.2890 C   0  0  0  0  0  3  0  0  0  0  0  0
  -30.4550  -18.0470   22.1440 C   0  0  0  0  0  3  0  0  0  0  0  0
  -31.0160  -15.9160   20.9980 C   0  0  0  0  0  0  0  0  0  0  0  0
  -30.5670  -17.3320   20.9200 C   0  0  0  0  0  0  0  0  0  0  0  0
  -31.3520  -14.8910   19.8760 C   0  0  0  0  0  0  0  0  0  0  0  0
  -30.8950  -12.7360   18.6500 C   0  0  0  0  0  2  0  0  0  0  0  0
  -29.8780  -12.9360   17.5040 C   0  0  0  0  0  2  0  0  0  0  0  0
  -28.4320  -12.8270   18.0260 C   0  0  0  0  0  2  0  0  0  0  0  0
  -28.2080  -13.6670   19.3080 C   0  0  0  0  0  3  0  0  0  0  0  0
  -29.3200  -13.4120   20.3440 C   0  0  0  0  0  2  0  0  0  0  0  0
  -30.6160  -13.7290   19.7160 N   0  0  0  0  0  0  0  0  0  0  0  0
  -32.3690  -15.0730   19.1980 O   0  0  0  0  0  0  0  0  0  0  0  0
  -25.9090  -14.3920   20.1940 C   0  0  0  0  0  0  0  0  0  0  0  0
  -24.8230  -13.6770   20.6250 C   0  0  0  0  0  0  0  0  0  0  0  0
  -25.2020  -12.3010   20.5480 C   0  0  0  0  0  0  0  0  0  0  0  0
  -26.8800  -13.4540   19.8770 N   0  0  0  0  0  0  0  0  0  0  0  0
  -26.4640  -12.1910   20.1520 N   0  0  0  0  0  0  0  0  0  0  0  0
  -24.4150  -11.0820   20.7720 C   0  0  0  0  0  0  0  0  0  0  0  0
  -24.8080  -10.1130   21.7210 C   0  0  0  0  0  3  0  0  0  0  0  0
  -24.0240   -8.9580   21.9310 C   0  0  0  0  0  3  0  0  0  0  0  0
  -22.8330   -8.7640   21.1910 C   0  0  0  0  0  0  0  0  0  0  0  0
  -22.4590   -9.7200   20.2310 C   0  0  0  0  0  3  0  0  0  0  0  0
  -23.2430  -10.8670   20.0200 C   0  0  0  0  0  3  0  0  0  0  0  0
  -22.0230   -7.6600   21.3090 O   0  0  0  0  0  0  0  0  0  0  0  0
  -21.8990   -6.9810   22.4940 C   0  0  0  0  0  0  0  0  0  0  0  0
  -21.4920   -7.6250   23.6830 C   0  0  0  0  0  3  0  0  0  0  0  0
  -21.3120   -6.8760   24.8620 C   0  0  0  0  0  3  0  0  0  0  0  0
  -21.5270   -5.4840   24.8540 C   0  0  0  0  0  0  0  0  0  0  0  0
  -21.9280   -4.8410   23.6700 C   0  0  0  0  0  3  0  0  0  0  0  0
  -22.1100   -5.5870   22.4930 C   0  0  0  0  0  0  0  0  0  0  0  0
  -22.4760   -4.9590   21.3500 F   0  0  0  0  0  0  0  0  0  0  0  0
  -21.3460   -4.7640   25.9860 F   0  0  0  0  0  0  0  0  0  0  0  0
  -23.4780  -14.2330   20.9930 C   0  0  0  0  0  0  0  0  0  0  0  0
  -22.7920  -13.6000   21.9380 N   0  0  0  0  0  0  0  0  0  0  0  0
  -23.0490  -15.2630   20.4760 O   0  0  0  0  0  0  0  0  0  0  0  0
  -23.1530  -12.7640   22.3760 H   0  0  0  0  0  0  0  0  0  0  0  0
  -21.8910  -13.9540   22.2260 H   0  0  0  0  0  0  0  0  0  0  0  0
  -26.1440  -15.7530   20.0240 N   0  0  0  0  0  0  0  0  0  0  0  0
  -25.4330  -16.4530   20.2060 H   0  0  0  0  0  0  0  0  0  0  0  0
  -27.0070  -16.1460   19.6690 H   0  0  0  0  0  0  0  0  0  0  0  0
  -29.8440  -20.9310   19.9890 C   0  0  0  0  0  3  0  0  0  0  0  0
  -28.7670  -22.1570   19.9320 C   0  0  0  0  0  3  0  0  0  0  0  0
  -29.1940  -23.7270   20.0310 C   0  0  0  0  0  3  0  0  0  0  0  0
  -28.0750  -24.8810   19.8000 C   0  0  0  0  0  3  0  0  0  0  0  0
  -28.3330  -26.3640   19.9130 O   0  0  0  0  0  0  0  0  0  0  0  0
  -24.7070  -31.8420   23.0500 C   0  0  0  0  0  0  0  0  0  0  0  0
  -27.2280  -27.2550   19.8970 C   0  0  0  0  0  0  0  0  0  0  0  0
  -23.4560  -30.4390   21.4520 C   0  0  0  0  0  3  0  0  0  0  0  0
  -24.8630  -28.8970   19.9730 C   0  0  0  0  0  0  0  0  0  0  0  0
  -25.9910  -30.7570   21.1860 C   0  0  0  0  0  2  0  0  0  0  0  0
  -26.0550  -29.3770   20.5300 C   0  0  0  0  0  0  0  0  0  0  0  0
  -27.2400  -28.5700   20.4790 C   0  0  0  0  0  3  0  0  0  0  0  0
  -26.0060  -26.8470   19.3130 C   0  0  0  0  0  3  0  0  0  0  0  0
  -24.8440  -27.6400   19.3520 C   0  0  0  0  0  3  0  0  0  0  0  0
  -23.6270  -29.7690   20.0650 C   0  0  0  0  0  2  0  0  0  0  0  0
  -24.7390  -31.0310   21.9510 N   0  0  0  0  0  0  0  0  0  0  0  0
  -23.6400  -32.1140   23.6190 O   0  0  0  0  0  0  0  0  0  0  0  0
  -22.8290  -29.4190   22.4330 C   0  0  0  0  0  0  0  0  0  0  0  0
  -21.5000  -29.2370   22.3530 N   0  0  0  0  0  0  0  0  0  0  0  0
  -23.5380  -28.7950   23.2280 O   0  0  0  0  0  0  0  0  0  0  0  0
  -20.9860  -29.7920   21.6830 H   0  0  0  0  0  0  0  0  0  0  0  0
  -18.1490  -28.0080   22.9590 C   0  0  0  0  0  0  0  0  0  0  0  0
  -20.7120  -28.2940   23.1510 C   0  0  0  0  0  3  0  0  0  0  0  0
  -20.8100  -26.8610   22.5780 C   0  0  0  0  0  2  0  0  0  0  0  0
  -19.6810  -26.5240   21.5980 C   0  0  0  0  0  2  0  0  0  0  0  0
  -18.3190  -26.6590   22.2830 C   0  0  0  0  0  2  0  0  0  0  0  0
  -19.2730  -28.7840   23.3530 C   0  0  0  0  0  0  0  0  0  0  0  0
  -19.0590  -30.0460   23.9470 C   0  0  0  0  0  3  0  0  0  0  0  0
  -17.7550  -30.5350   24.1510 C   0  0  0  0  0  3  0  0  0  0  0  0
  -16.6470  -29.7580   23.7730 C   0  0  0  0  0  3  0  0  0  0  0  0
  -16.8440  -28.4970   23.1830 C   0  0  0  0  0  3  0  0  0  0  0  0
  -26.0060  -32.4820   23.6290 C   0  0  0  0  0  3  0  0  0  0  0  0
  -25.6780  -33.8530   24.0460 N   0  0  0  0  0  0  0  0  0  0  0  0
  -25.9410  -34.9540   23.3290 C   0  0  0  0  0  0  0  0  0  0  0  0
  -26.5550  -34.9230   22.2590 O   0  0  0  0  0  0  0  0  0  0  0  0
  -25.1220  -33.9490   24.8850 H   0  0  0  0  0  0  0  0  0  0  0  0
  -24.1520  -36.7160   23.1630 C   0  0  0  0  0  1  0  0  0  0  0  0
  -25.4450  -36.3030   23.8850 C   0  0  0  0  0  3  0  0  0  0  0  0
  -27.6000  -37.2000   24.6480 C   0  0  0  0  0  1  0  0  0  0  0  0
  -26.4440  -37.3880   23.7760 N   0  0  0  0  0  0  0  0  0  0  0  0
  -26.0250  -38.2870   23.9940 H   0  0  0  0  0  0  0  0  0  0  0  0
  -26.6160  -31.6670   24.8340 C   0  0  1  0  0  0  0  0  0  0  0  0
  -25.5900  -31.3340   25.9420 C   0  0  0  0  0  1  0  0  0  0  0  0
  -27.2260  -30.3340   24.3430 C   0  0  0  0  0  1  0  0  0  0  0  0
  -27.7710  -32.4690   25.4770 C   0  0  0  0  0  1  0  0  0  0  0  0
  1 47  1  0
  1  2  1  0
  3  1  1  0
  4  1  1  0
  4 10  1  0
  6  5  1  0
  7  5  2  0
  8  6  2  0
  9  7  1  0
 10  9  2  0
 10  8  1  0
 11  9  1  0
 12 17  1  0
 13 14  1  0
 13 12  1  0
 15 14  1  0
 15 22  1  0
 15 16  1  0
 17 11  1  0
 17 16  1  0
 18 11  2  0
 19 20  2  0
 20 39  1  0
 21 20  1  0
 21 24  1  0
 22 23  1  0
 22 19  1  0
 23 21  2  0
 24 25  1  0
 25 26  2  0
 27 30  1  0
 27 26  1  0
 28 27  2  0
 29 28  1  0
 29 24  2  0
 30 31  1  0
 31 32  1  0
 32 33  2  0
 34 33  1  0
 34 38  1  0
 35 34  2  0
 36 31  2  0
 36 35  1  0
 37 36  1  0
 39 40  1  0
 40 43  1  0
 40 42  1  0
 41 39  2  0
 44 19  1  0
 44 45  1  0
 46 44  1  0
 48 47  2  0
 48 49  1  0
 50 51  1  0
 50 49  2  0
 52 63  2  0
 53 51  1  0
 53 58  1  0
 54 62  1  0
 54 64  1  0
 55 61  1  0
 55 57  1  0
 56 62  1  0
 57 56  1  0
 58 57  2  0
 59 60  1  0
 59 53  2  0
 60 55  2  0
 61 54  1  0
 62 52  1  0
 64 66  2  0
 65 64  1  0
 67 65  1  0
 68 77  2  0
 68 73  1  0
 69 65  1  0
 69 73  1  0
 70 69  1  0
 71 72  1  0
 71 70  1  0
 72 68  1  0
 73 74  2  0
 74 75  1  0
 76 75  2  0
 77 76  1  0
 78 52  1  0
 78 79  1  0
 78 88  1  0
 79 82  1  0
 80 84  1  0
 80 79  1  0
 81 80  2  0
 84 83  1  0
 86 84  1  0
 86 87  1  0
 86 85  1  0
 88 91  1  1
 88 89  1  0
 90 88  1  0
M  ISO  4   9 100  11 100  50 101  51 101
M  END
>  <TORSDO>  (25) 
F 22

>  <SCORE>  (25) 
-8.834

>  <name>  (25) 
25

>  <ligand_id>  (25) 
25

>  <original_smiles>  (25) 
[H]c1c([H])c([H])c(C([H])([H])[N+]([H])([H])C([H])([H])C([H])([H])C([H])([H])C([H])([H])Oc2c([H])c([H])c3c(c2[H])C([H])([H])N(C(=O)C([H])(N([H])C(=O)C([H])(N([H])C([H])([H])[H])C([H])([H])[H])C(C([H])([H])[H])(C([H])([H])[H])C([H])([H])[H])C([H])(C(=O)N([H])C2([H])c4c([H])c([H])c([H])c([H])c4C([H])([H])C([H])([H])C2([H])[H])C3([H])[H])c(C(=O)N2C([H])([H])C([H])([H])C([H])([H])C([H])(n3nc(-c4c([H])c([H])c(Oc5c([H])c([H])c(F)c([H])c5F)c([H])c4[H])c(C(=O)N([H])[H])c3N([H])[H])C2([H])[H])c1[H]

>  <smiles>  (25) 
[H]c1c([H])c([H])c(C([H])([H])[N+]([H])([H])C([H])([H])C([H])([H])C([H])([H])C([H])([H])Oc2c([H])c([H])c3c(c2[H])C([H])([H])N(C(=O)C([H])(N([H])C(=O)C([H])(N([H])C([H])([H])[H])C([H])([H])[H])C(C([H])([H])[H])(C([H])([H])[H])C([H])([H])[H])C([H])(C(=O)N([H])C2([H])c4c([H])c([H])c([H])c([H])c4C([H])([H])C([H])([H])C2([H])[H])C3([H])[H])c(C(=O)N2C([H])([H])C([H])([H])C([H])([H])C([H])(n3nc(-c4c([H])c([H])c(Oc5c([H])c([H])c(F)c([H])c5F)c([H])c4[H])c(C(=O)N([H])[H])c3N([H])[H])C2([H])[H])c1[H]

$$$$
26:0:0
     RDKit          3D

 93101  0  0  1  0  0  0  0  0999 V2000
  -28.4730  -21.2490   21.2840 C   0  0  0  0  0  2  0  0  0  0  0  0
  -30.5570  -22.5850   20.6100 C   0  0  0  0  0  2  0  0  0  0  0  0
  -27.5830  -22.1770   20.4370 C   0  0  0  0  0  2  0  0  0  0  0  0
  -29.5700  -23.7430   20.8550 C   0  0  0  0  0  2  0  0  0  0  0  0
  -29.9250  -21.1700   20.7660 C   0  0  0  0  0  3  0  0  0  0  0  0
  -28.2190  -23.5570   20.1270 C   0  0  0  0  0  3  0  0  0  0  0  0
  -30.0420  -20.3020   19.4940 C   0  0  0  0  0  0  0  0  0  0  0  0
  -30.1850  -18.9850   19.6800 N   0  0  0  0  0  0  0  0  0  0  0  0
  -30.0670  -20.8110   18.3730 O   0  0  0  0  0  0  0  0  0  0  0  0
  -30.1010  -18.6400   20.6270 H   0  0  0  0  0  0  0  0  0  0  0  0
  -30.6590  -18.0460   18.6670 C   0  0  0  0  0  2  0  0  0  0  0  0
  -32.0390  -17.5100   19.0840 C   0  0  0  0  0  2  0  0  0  0  0  0
  -31.9410  -16.2440   19.9600 C   0  0  0  0  0  2  0  0  0  0  0  0
  -32.3030  -14.9440   19.2140 C   0  0  0  0  0  0  0  0  0  0  0  0
  -32.0300  -12.5150   18.8560 C   0  0  0  0  0  2  0  0  0  0  0  0
  -30.9880  -12.2160   17.7640 C   0  0  0  0  0  2  0  0  0  0  0  0
  -29.5680  -12.1810   18.3630 C   0  0  0  0  0  2  0  0  0  0  0  0
  -29.2660  -13.4160   19.2530 C   0  0  0  0  0  3  0  0  0  0  0  0
  -30.4110  -13.6440   20.2660 C   0  0  0  0  0  2  0  0  0  0  0  0
  -31.6650  -13.7820   19.5060 N   0  0  0  0  0  0  0  0  0  0  0  0
  -33.2200  -14.9890   18.3860 O   0  0  0  0  0  0  0  0  0  0  0  0
  -27.1320  -14.2700   20.4140 C   0  0  0  0  0  0  0  0  0  0  0  0
  -26.0190  -13.6180   20.8750 C   0  0  0  0  0  0  0  0  0  0  0  0
  -26.2390  -12.2300   20.6160 C   0  0  0  0  0  0  0  0  0  0  0  0
  -27.9710  -13.2840   19.9180 N   0  0  0  0  0  0  0  0  0  0  0  0
  -27.4410  -12.0460   20.0870 N   0  0  0  0  0  0  0  0  0  0  0  0
  -25.3520  -11.0720   20.7900 C   0  0  0  0  0  0  0  0  0  0  0  0
  -25.6030  -10.0930   21.7770 C   0  0  0  0  0  3  0  0  0  0  0  0
  -24.7270   -8.9980   21.9360 C   0  0  0  0  0  3  0  0  0  0  0  0
  -23.5870   -8.8750   21.1080 C   0  0  0  0  0  0  0  0  0  0  0  0
  -23.3540   -9.8410   20.1130 C   0  0  0  0  0  3  0  0  0  0  0  0
  -24.2290  -10.9280   19.9520 C   0  0  0  0  0  3  0  0  0  0  0  0
  -22.6950   -7.8320   21.1720 O   0  0  0  0  0  0  0  0  0  0  0  0
  -22.2570   -7.3340   22.3730 C   0  0  0  0  0  0  0  0  0  0  0  0
  -21.5450   -8.1310   23.2950 C   0  0  0  0  0  3  0  0  0  0  0  0
  -21.0520   -7.5610   24.4850 C   0  0  0  0  0  3  0  0  0  0  0  0
  -21.2610   -6.1950   24.7530 C   0  0  0  0  0  0  0  0  0  0  0  0
  -21.9670   -5.3980   23.8350 C   0  0  0  0  0  3  0  0  0  0  0  0
  -22.4610   -5.9660   22.6470 C   0  0  0  0  0  0  0  0  0  0  0  0
  -23.1210   -5.1890   21.7550 F   0  0  0  0  0  0  0  0  0  0  0  0
  -20.7810   -5.6450   25.8930 F   0  0  0  0  0  0  0  0  0  0  0  0
  -24.7800  -14.2500   21.4380 C   0  0  0  0  0  0  0  0  0  0  0  0
  -24.1010  -13.5630   22.3510 N   0  0  0  0  0  0  0  0  0  0  0  0
  -24.4320  -15.3840   21.1080 O   0  0  0  0  0  0  0  0  0  0  0  0
  -24.3960  -12.6430   22.6400 H   0  0  0  0  0  0  0  0  0  0  0  0
  -23.2740  -13.9650   22.7690 H   0  0  0  0  0  0  0  0  0  0  0  0
  -27.4930  -15.6130   20.3590 N   0  0  0  0  0  0  0  0  0  0  0  0
  -26.8750  -16.3570   20.6650 H   0  0  0  0  0  0  0  0  0  0  0  0
  -28.3510  -15.9540   19.9430 H   0  0  0  0  0  0  0  0  0  0  0  0
  -28.2960  -23.7960   18.6040 C   0  0  0  0  0  2  0  0  0  0  0  0
  -28.5320  -25.2530   18.1830 C   0  0  0  0  0  2  0  0  0  0  0  0
  -28.0210  -25.5200   16.7530 C   0  0  0  0  0  2  0  0  0  0  0  0
  -27.7870  -26.9100   16.5460 O   0  0  0  0  0  0  0  0  0  0  0  0
  -25.5530  -29.0370   22.9270 C   0  0  0  0  0  0  0  0  0  0  0  0
  -26.7610  -27.5120   17.2430 C   0  0  0  0  0  0  0  0  0  0  0  0
  -23.8630  -29.1430   21.1210 C   0  0  0  0  0  3  0  0  0  0  0  0
  -24.7520  -28.7940   18.7590 C   0  0  0  0  0  0  0  0  0  0  0  0
  -26.3560  -29.3600   20.5910 C   0  0  0  0  0  2  0  0  0  0  0  0
  -26.0620  -28.7330   19.2450 C   0  0  0  0  0  0  0  0  0  0  0  0
  -27.0700  -28.1010   18.4880 C   0  0  0  0  0  3  0  0  0  0  0  0
  -25.4290  -27.5720   16.7680 C   0  0  0  0  0  3  0  0  0  0  0  0
  -24.4270  -28.2100   17.5240 C   0  0  0  0  0  3  0  0  0  0  0  0
  -23.7360  -29.5090   19.6190 C   0  0  0  0  0  2  0  0  0  0  0  0
  -25.2860  -29.1490   21.5950 N   0  0  0  0  0  0  0  0  0  0  0  0
  -24.6390  -28.9710   23.7600 O   0  0  0  0  0  0  0  0  0  0  0  0
  -23.1460  -27.7960   21.3630 C   0  0  0  0  0  0  0  0  0  0  0  0
  -21.8060  -27.8030   21.2590 N   0  0  0  0  0  0  0  0  0  0  0  0
  -23.7880  -26.7720   21.6090 O   0  0  0  0  0  0  0  0  0  0  0  0
  -21.3520  -28.6850   21.0610 H   0  0  0  0  0  0  0  0  0  0  0  0
  -18.3730  -26.7130   20.9880 C   0  0  0  0  0  0  0  0  0  0  0  0
  -20.9240  -26.6470   21.4070 C   0  0  0  0  0  3  0  0  0  0  0  0
  -21.0000  -25.7260   20.1660 C   0  0  0  0  0  2  0  0  0  0  0  0
  -19.9330  -26.0410   19.1130 C   0  0  0  0  0  2  0  0  0  0  0  0
  -18.5300  -25.9070   19.7120 C   0  0  0  0  0  2  0  0  0  0  0  0
  -19.4990  -27.0740   21.7760 C   0  0  0  0  0  0  0  0  0  0  0  0
  -19.2990  -27.8560   22.9360 C   0  0  0  0  0  3  0  0  0  0  0  0
  -18.0070  -28.2680   23.3130 C   0  0  0  0  0  3  0  0  0  0  0  0
  -16.8960  -27.8940   22.5380 C   0  0  0  0  0  3  0  0  0  0  0  0
  -17.0800  -27.1170   21.3810 C   0  0  0  0  0  3  0  0  0  0  0  0
  -27.0170  -29.0070   23.4680 C   0  0  0  0  0  3  0  0  0  0  0  0
  -27.0230  -29.6950   24.7650 N   0  0  0  0  0  0  0  0  0  0  0  0
  -27.4970  -30.9320   24.9650 C   0  0  0  0  0  0  0  0  0  0  0  0
  -28.0500  -31.5910   24.0800 O   0  0  0  0  0  0  0  0  0  0  0  0
  -26.5390  -29.2370   25.5230 H   0  0  0  0  0  0  0  0  0  0  0  0
  -26.1690  -32.5400   26.3700 C   0  0  0  0  0  1  0  0  0  0  0  0
  -27.3330  -31.5350   26.3730 C   0  0  0  0  0  3  0  0  0  0  0  0
  -29.6350  -31.2550   27.1800 C   0  0  0  0  0  1  0  0  0  0  0  0
  -28.5570  -32.1940   26.8780 N   0  0  0  0  0  0  0  0  0  0  0  0
  -28.3560  -32.7260   27.7190 H   0  0  0  0  0  0  0  0  0  0  0  0
  -27.6010  -27.5470   23.6070 C   0  0  1  0  0  0  0  0  0  0  0  0
  -26.6840  -26.5860   24.3980 C   0  0  0  0  0  1  0  0  0  0  0  0
  -27.8460  -26.9260   22.2120 C   0  0  0  0  0  1  0  0  0  0  0  0
  -28.9730  -27.5960   24.3180 C   0  0  0  0  0  1  0  0  0  0  0  0
  2  5  1  0
  2  4  1  0
  3  1  1  0
  5  7  1  0
  5  1  1  0
  6 50  1  0
  6  3  1  0
  6  4  1  0
  7  8  1  0
  8 10  1  0
  9  7  2  0
 11 12  1  0
 11  8  1  0
 12 13  1  0
 14 20  1  0
 14 13  1  0
 15 20  1  0
 16 17  1  0
 16 15  1  0
 18 17  1  0
 18 25  1  0
 18 19  1  0
 20 19  1  0
 21 14  2  0
 22 23  2  0
 23 42  1  0
 24 27  1  0
 24 23  1  0
 25 26  1  0
 25 22  1  0
 26 24  2  0
 27 28  1  0
 28 29  2  0
 30 33  1  0
 30 29  1  0
 31 30  2  0
 32 31  1  0
 32 27  2  0
 33 34  1  0
 34 39  2  0
 34 35  1  0
 35 36  2  0
 36 37  1  0
 37 41  1  0
 38 37  2  0
 39 38  1  0
 40 39  1  0
 42 43  1  0
 43 45  1  0
 43 46  1  0
 44 42  2  0
 47 22  1  0
 47 48  1  0
 49 47  1  0
 51 50  1  0
 52 51  1  0
 53 52  1  0
 53 55  1  0
 54 65  2  0
 55 60  1  0
 56 66  1  0
 56 64  1  0
 57 59  1  0
 57 63  1  0
 58 64  1  0
 59 58  1  0
 60 59  2  0
 61 55  2  0
 61 62  1  0
 62 57  2  0
 63 56  1  0
 64 54  1  0
 66 68  2  0
 67 66  1  0
 69 67  1  0
 70 79  2  0
 70 75  1  0
 71 67  1  0
 71 75  1  0
 72 71  1  0
 73 74  1  0
 73 72  1  0
 74 70  1  0
 75 76  2  0
 76 77  1  0
 78 77  2  0
 79 78  1  0
 80 54  1  0
 80 90  1  0
 80 81  1  0
 81 82  1  0
 81 84  1  0
 82 86  1  0
 83 82  2  0
 86 85  1  0
 86 88  1  0
 88 87  1  0
 88 89  1  0
 90 93  1  1
 90 91  1  0
 92 90  1  0
M  ISO  4  13 100  14 100  52 101  53 101
M  END
>  <TORSDO>  (26) 
F 23

>  <SCORE>  (26) 
-8.072

>  <name>  (26) 
26

>  <ligand_id>  (26) 
26

>  <original_smiles>  (26) 
[H]c1c([H])c([H])c2c(c1[H])C([H])([H])C([H])([H])C([H])([H])C2([H])N([H])C(=O)C1([H])N(C(=O)C([H])(N([H])C(=O)C([H])(N([H])C([H])([H])[H])C([H])([H])[H])C(C([H])([H])[H])(C([H])([H])[H])C([H])([H])[H])C([H])([H])c2c([H])c(OC([H])([H])C([H])([H])C([H])([H])C3([H])C([H])([H])C([H])([H])C([H])(C(=O)N([H])C([H])([H])C([H])([H])C([H])([H])C(=O)N4C([H])([H])C([H])([H])C([H])([H])C([H])(n5nc(-c6c([H])c([H])c(Oc7c([H])c([H])c(F)c([H])c7F)c([H])c6[H])c(C(=O)N([H])[H])c5N([H])[H])C4([H])[H])C([H])([H])C3([H])[H])c([H])c([H])c2C1([H])[H]

>  <smiles>  (26) 
[H]c1c([H])c([H])c2c(c1[H])C([H])([H])C([H])([H])C([H])([H])C2([H])N([H])C(=O)C1([H])N(C(=O)C([H])(N([H])C(=O)C([H])(N([H])C([H])([H])[H])C([H])([H])[H])C(C([H])([H])[H])(C([H])([H])[H])C([H])([H])[H])C([H])([H])c2c([H])c(OC([H])([H])C([H])([H])C([H])([H])C3([H])C([H])([H])C([H])([H])C([H])(C(=O)N([H])C([H])([H])C([H])([H])C([H])([H])C(=O)N4C([H])([H])C([H])([H])C([H])([H])C([H])(n5nc(-c6c([H])c([H])c(Oc7c([H])c([H])c(F)c([H])c7F)c([H])c6[H])c(C(=O)N([H])[H])c5N([H])[H])C4([H])[H])C([H])([H])C3([H])[H])c([H])c([H])c2C1([H])[H]

$$$$
27:0:0
     RDKit          3D

 98107  0  0  1  0  0  0  0  0999 V2000
  -29.5430  -19.5440   23.8070 C   0  0  0  0  0  2  0  0  0  0  0  0
  -29.5810  -19.8560   22.3070 C   0  0  0  0  0  2  0  0  0  0  0  0
  -32.3260  -17.0750   21.5300 C   0  0  0  0  0  2  0  0  0  0  0  0
  -29.6590  -18.0410   24.0470 C   0  0  0  0  0  2  0  0  0  0  0  0
  -31.6520  -17.4960   19.0400 C   0  0  0  0  0  2  0  0  0  0  0  0
  -32.6280  -16.8630   20.0300 C   0  0  0  0  0  3  0  0  0  0  0  0
  -30.7940  -19.2400   21.5440 C   0  0  0  0  0  3  0  0  0  0  0  0
  -30.9770  -17.7220   21.9540 C   0  0  0  0  0  3  0  0  0  0  0  0
  -30.5530  -19.4880   20.0100 C   0  0  0  0  0  3  0  0  0  0  0  0
  -30.8980  -17.5460   23.4260 N   0  0  0  0  0  4  0  0  0  0  0  0
  -31.6040  -18.9570   19.1170 N   0  0  0  0  0  4  0  0  0  0  0  0
  -30.9890  -16.5680   23.6510 H   0  0  0  0  0  0  0  0  0  0  0  0
  -31.6670  -18.0220   23.8700 H   0  0  0  0  0  0  0  0  0  0  0  0
  -32.5140  -19.3540   19.3020 H   0  0  0  0  0  0  0  0  0  0  0  0
  -31.3320  -19.2580   18.1930 H   0  0  0  0  0  0  0  0  0  0  0  0
  -33.1160  -15.4380   19.6340 C   0  0  0  0  0  0  0  0  0  0  0  0
  -32.4870  -13.3090   18.5670 C   0  0  0  0  0  2  0  0  0  0  0  0
  -31.4160  -13.5500   17.4830 C   0  0  0  0  0  2  0  0  0  0  0  0
  -30.0110  -13.4340   18.0980 C   0  0  0  0  0  2  0  0  0  0  0  0
  -29.8510  -14.3330   19.3420 C   0  0  0  0  0  3  0  0  0  0  0  0
  -31.0400  -14.1640   20.3260 C   0  0  0  0  0  2  0  0  0  0  0  0
  -32.3090  -14.3420   19.6050 N   0  0  0  0  0  0  0  0  0  0  0  0
  -34.2450  -15.4090   19.1440 O   0  0  0  0  0  0  0  0  0  0  0  0
  -27.7030  -15.1280   20.5040 C   0  0  0  0  0  0  0  0  0  0  0  0
  -26.6010  -14.4440   20.9360 C   0  0  0  0  0  0  0  0  0  0  0  0
  -26.8700  -13.0650   20.6840 C   0  0  0  0  0  0  0  0  0  0  0  0
  -28.5710  -14.1650   20.0110 N   0  0  0  0  0  0  0  0  0  0  0  0
  -28.0870  -12.9130   20.1850 N   0  0  0  0  0  0  0  0  0  0  0  0
  -26.0220  -11.8780   20.8250 C   0  0  0  0  0  0  0  0  0  0  0  0
  -26.2850  -10.9050   21.8140 C   0  0  0  0  0  3  0  0  0  0  0  0
  -25.4510   -9.7740   21.9390 C   0  0  0  0  0  3  0  0  0  0  0  0
  -24.3420   -9.6110   21.0770 C   0  0  0  0  0  0  0  0  0  0  0  0
  -24.1020  -10.5710   20.0780 C   0  0  0  0  0  3  0  0  0  0  0  0
  -24.9340  -11.6930   19.9470 C   0  0  0  0  0  3  0  0  0  0  0  0
  -23.4890   -8.5350   21.1100 O   0  0  0  0  0  0  0  0  0  0  0  0
  -22.8850   -8.1300   22.2750 C   0  0  0  0  0  0  0  0  0  0  0  0
  -22.0830   -9.0020   23.0400 C   0  0  0  0  0  3  0  0  0  0  0  0
  -21.4260   -8.5270   24.1930 C   0  0  0  0  0  3  0  0  0  0  0  0
  -21.5600   -7.1790   24.5770 C   0  0  0  0  0  0  0  0  0  0  0  0
  -22.3570   -6.3060   23.8110 C   0  0  0  0  0  3  0  0  0  0  0  0
  -23.0130   -6.7810   22.6630 C   0  0  0  0  0  0  0  0  0  0  0  0
  -23.7630   -5.9310   21.9200 F   0  0  0  0  0  0  0  0  0  0  0  0
  -20.9220   -6.7180   25.6790 F   0  0  0  0  0  0  0  0  0  0  0  0
  -25.3180  -15.0330   21.4480 C   0  0  0  0  0  0  0  0  0  0  0  0
  -24.6410  -14.3320   22.3480 N   0  0  0  0  0  0  0  0  0  0  0  0
  -24.9330  -16.1440   21.0770 O   0  0  0  0  0  0  0  0  0  0  0  0
  -24.9690  -13.4310   22.6670 H   0  0  0  0  0  0  0  0  0  0  0  0
  -23.7670  -14.6910   22.7110 H   0  0  0  0  0  0  0  0  0  0  0  0
  -28.0290  -16.4840   20.4570 N   0  0  0  0  0  0  0  0  0  0  0  0
  -27.8600  -16.8890   21.3710 H   0  0  0  0  0  0  0  0  0  0  0  0
  -27.3020  -16.9280   19.9100 H   0  0  0  0  0  0  0  0  0  0  0  0
  -30.2970  -20.9570   19.6070 C   0  0  0  0  0  2  0  0  0  0  0  0
  -31.3110  -21.9670   20.1700 C   0  0  0  0  0  2  0  0  0  0  0  0
  -30.6300  -23.2230   20.7080 C   0  0  0  0  0  2  0  0  0  0  0  0
  -31.5770  -24.4230   20.7640 C   0  0  0  0  0  2  0  0  0  0  0  0
  -30.9140  -25.6140   21.4590 C   0  0  0  0  0  2  0  0  0  0  0  0
  -31.4920  -26.9610   21.0110 C   0  0  0  0  0  2  0  0  0  0  0  0
  -30.7980  -28.0350   21.6320 O   0  0  0  0  0  0  0  0  0  0  0  0
  -25.0940  -31.6660   23.6580 C   0  0  0  0  0  0  0  0  0  0  0  0
  -29.4770  -28.2910   21.3320 C   0  0  0  0  0  0  0  0  0  0  0  0
  -24.6950  -30.0260   21.8460 C   0  0  0  0  0  3  0  0  0  0  0  0
  -26.7900  -29.0070   20.7980 C   0  0  0  0  0  0  0  0  0  0  0  0
  -26.9920  -31.0950   22.1610 C   0  0  0  0  0  2  0  0  0  0  0  0
  -27.5910  -29.8240   21.6050 C   0  0  0  0  0  0  0  0  0  0  0  0
  -28.9210  -29.4630   21.8830 C   0  0  0  0  0  3  0  0  0  0  0  0
  -28.6650  -27.4770   20.5050 C   0  0  0  0  0  3  0  0  0  0  0  0
  -27.3220  -27.8280   20.2490 C   0  0  0  0  0  3  0  0  0  0  0  0
  -25.3690  -29.4710   20.5620 C   0  0  0  0  0  2  0  0  0  0  0  0
  -25.5940  -30.9450   22.6150 N   0  0  0  0  0  0  0  0  0  0  0  0
  -23.8920  -31.6060   23.9530 O   0  0  0  0  0  0  0  0  0  0  0  0
  -24.1780  -28.8380   22.6850 C   0  0  0  0  0  0  0  0  0  0  0  0
  -23.0100  -28.3010   22.3000 N   0  0  0  0  0  0  0  0  0  0  0  0
  -24.8320  -28.4030   23.6350 O   0  0  0  0  0  0  0  0  0  0  0  0
  -22.5380  -28.7080   21.5020 H   0  0  0  0  0  0  0  0  0  0  0  0
  -20.0360  -26.2620   22.1900 C   0  0  0  0  0  0  0  0  0  0  0  0
  -22.3500  -27.1510   22.9150 C   0  0  0  0  0  3  0  0  0  0  0  0
  -22.9220  -25.8270   22.3590 C   0  0  0  0  0  2  0  0  0  0  0  0
  -22.1320  -25.2930   21.1610 C   0  0  0  0  0  2  0  0  0  0  0  0
  -20.6760  -25.0370   21.5610 C   0  0  0  0  0  2  0  0  0  0  0  0
  -20.8250  -27.2620   22.8140 C   0  0  0  0  0  0  0  0  0  0  0  0
  -20.1880  -28.3990   23.3550 C   0  0  0  0  0  3  0  0  0  0  0  0
  -18.7890  -28.5420   23.2830 C   0  0  0  0  0  3  0  0  0  0  0  0
  -18.0110  -27.5490   22.6670 C   0  0  0  0  0  3  0  0  0  0  0  0
  -18.6330  -26.4090   22.1290 C   0  0  0  0  0  3  0  0  0  0  0  0
  -25.9980  -32.6150   24.5080 C   0  0  0  0  0  3  0  0  0  0  0  0
  -25.3440  -33.9310   24.5430 N   0  0  0  0  0  0  0  0  0  0  0  0
  -25.6800  -34.9660   23.7620 C   0  0  0  0  0  0  0  0  0  0  0  0
  -26.6280  -34.9290   22.9730 O   0  0  0  0  0  0  0  0  0  0  0  0
  -24.5200  -34.0110   25.1190 H   0  0  0  0  0  0  0  0  0  0  0  0
  -23.8200  -36.2880   22.6990 C   0  0  0  0  0  1  0  0  0  0  0  0
  -24.8240  -36.2410   23.8630 C   0  0  0  0  0  3  0  0  0  0  0  0
  -26.4060  -37.6530   25.1020 C   0  0  0  0  0  1  0  0  0  0  0  0
  -25.6210  -37.4870   23.8820 N   0  0  0  0  0  0  0  0  0  0  0  0
  -25.0210  -38.3010   23.7750 H   0  0  0  0  0  0  0  0  0  0  0  0
  -26.2550  -32.0800   25.9720 C   0  0  1  0  0  0  0  0  0  0  0  0
  -24.9650  -31.6720   26.7210 C   0  0  0  0  0  1  0  0  0  0  0  0
  -27.1940  -30.8510   25.9460 C   0  0  0  0  0  1  0  0  0  0  0  0
  -26.9650  -33.1700   26.8070 C   0  0  0  0  0  1  0  0  0  0  0  0
  1  4  1  0
  2  1  1  0
  5 11  1  0
  5  6  1  0
  6 16  1  0
  6  3  1  0
  7  8  1  0
  7  2  1  0
  8  3  1  0
  8 10  1  0
  9 52  1  0
  9  7  1  0
 10 12  1  0
 10 13  1  0
 10  4  1  0
 11 14  1  0
 11  9  1  0
 15 11  1  0
 17 22  1  0
 18 19  1  0
 18 17  1  0
 20 19  1  0
 20 27  1  0
 20 21  1  0
 22 16  1  0
 22 21  1  0
 23 16  2  0
 24 25  2  0
 25 44  1  0
 26 29  1  0
 26 25  1  0
 27 28  1  0
 27 24  1  0
 28 26  2  0
 29 30  1  0
 30 31  2  0
 32 35  1  0
 32 31  1  0
 33 32  2  0
 34 33  1  0
 34 29  2  0
 35 36  1  0
 36 41  2  0
 36 37  1  0
 37 38  2  0
 38 39  1  0
 39 43  1  0
 40 39  2  0
 41 40  1  0
 42 41  1  0
 44 45  1  0
 45 47  1  0
 45 48  1  0
 46 44  2  0
 49 24  1  0
 49 50  1  0
 51 49  1  0
 52 53  1  0
 53 54  1  0
 54 55  1  0
 55 56  1  0
 57 56  1  0
 57 58  1  0
 59 70  2  0
 60 58  1  0
 60 65  1  0
 61 69  1  0
 61 71  1  0
 62 64  1  0
 63 69  1  0
 64 65  2  0
 64 63  1  0
 66 60  2  0
 67 66  1  0
 67 62  2  0
 68 62  1  0
 68 61  1  0
 69 59  1  0
 71 73  2  0
 72 71  1  0
 74 72  1  0
 75 80  1  0
 76 72  1  0
 77 76  1  0
 78 79  1  0
 78 77  1  0
 79 75  1  0
 80 76  1  0
 80 81  2  0
 82 81  1  0
 83 82  2  0
 84 75  2  0
 84 83  1  0
 85 59  1  0
 85 86  1  0
 85 95  1  0
 86 89  1  0
 87 91  1  0
 87 86  1  0
 88 87  2  0
 91 90  1  0
 91 93  1  0
 93 92  1  0
 94 93  1  0
 95 96  1  1
 95 98  1  0
 97 95  1  0
M  ISO  4   6 100  16 100  57 101  58 101
M  END
>  <TORSDO>  (27) 
F 22

>  <SCORE>  (27) 
0.052

>  <name>  (27) 
27

>  <ligand_id>  (27) 
27

>  <original_smiles>  (27) 
[H]c1c([H])c([H])c2c(c1[H])C([H])([H])C([H])([H])C([H])([H])C2([H])N([H])C(=O)C1([H])N(C(=O)C([H])(N([H])C(=O)C([H])(N([H])C([H])([H])[H])C([H])([H])[H])C(C([H])([H])[H])(C([H])([H])[H])C([H])([H])[H])C([H])([H])c2c([H])c(OC([H])([H])C([H])([H])C([H])([H])C([H])([H])C([H])([H])C([H])([H])C3([H])C4([H])C([H])([H])C([H])([H])C([H])([H])[N+]([H])([H])C4([H])C([H])([H])C([H])(C(=O)N4C([H])([H])C([H])([H])C([H])([H])C([H])(n5nc(-c6c([H])c([H])c(Oc7c([H])c([H])c(F)c([H])c7F)c([H])c6[H])c(C(=O)N([H])[H])c5N([H])[H])C4([H])[H])C([H])([H])[N+]3([H])[H])c([H])c([H])c2C1([H])[H]

>  <smiles>  (27) 
[H]c1c([H])c([H])c2c(c1[H])C([H])([H])C([H])([H])C([H])([H])C2([H])N([H])C(=O)C1([H])N(C(=O)C([H])(N([H])C(=O)C([H])(N([H])C([H])([H])[H])C([H])([H])[H])C(C([H])([H])[H])(C([H])([H])[H])C([H])([H])[H])C([H])([H])c2c([H])c(OC([H])([H])C([H])([H])C([H])([H])C([H])([H])C([H])([H])C([H])([H])C3([H])C4([H])C([H])([H])C([H])([H])C([H])([H])[N+]([H])([H])C4([H])C([H])([H])C([H])(C(=O)N4C([H])([H])C([H])([H])C([H])([H])C([H])(n5nc(-c6c([H])c([H])c(Oc7c([H])c([H])c(F)c([H])c7F)c([H])c6[H])c(C(=O)N([H])[H])c5N([H])[H])C4([H])[H])C([H])([H])[N+]3([H])[H])c([H])c([H])c2C1([H])[H]

$$$$
28:0:0
     RDKit          3D

 88 96  0  0  1  0  0  0  0  0999 V2000
  -28.2220  -16.9710   19.2120 C   0  0  0  0  0  2  0  0  0  0  0  0
  -27.9300  -18.1310   18.2210 C   0  0  0  0  0  2  0  0  0  0  0  0
  -30.1170  -19.3410   18.6860 C   0  0  0  0  0  2  0  0  0  0  0  0
  -29.4780  -17.1550   20.0870 C   0  0  0  0  0  3  0  0  0  0  0  0
  -29.7060  -19.0390   20.1520 C   0  0  0  0  0  3  0  0  0  0  0  0
  -29.1440  -18.8110   17.6900 N   0  0  0  0  0  4  0  0  0  0  0  0
  -28.8470  -19.5770   17.1080 H   0  0  0  0  0  0  0  0  0  0  0  0
  -29.6290  -18.1750   17.0780 H   0  0  0  0  0  0  0  0  0  0  0  0
  -30.3010  -15.5220   20.3090 C   0  0  0  0  0  0  0  0  0  0  0  0
  -30.3840  -12.9990   19.5390 C   0  0  0  0  0  2  0  0  0  0  0  0
  -29.4930  -12.6730   18.3080 C   0  0  0  0  0  2  0  0  0  0  0  0
  -28.0510  -12.3500   18.7390 C   0  0  0  0  0  2  0  0  0  0  0  0
  -27.5440  -13.3380   19.8140 C   0  0  0  0  0  3  0  0  0  0  0  0
  -28.5710  -13.6130   20.9330 C   0  0  0  0  0  2  0  0  0  0  0  0
  -29.7850  -14.1710   20.3010 N   0  0  0  0  0  0  0  0  0  0  0  0
  -31.5420  -15.4620   20.2280 O   0  0  0  0  0  0  0  0  0  0  0  0
  -25.1750  -13.8860   20.5610 C   0  0  0  0  0  0  0  0  0  0  0  0
  -24.1100  -13.1070   20.9120 C   0  0  0  0  0  0  0  0  0  0  0  0
  -24.5820  -11.7600   20.8850 C   0  0  0  0  0  0  0  0  0  0  0  0
  -26.2210  -13.0130   20.3240 N   0  0  0  0  0  0  0  0  0  0  0  0
  -25.8770  -11.7270   20.5890 N   0  0  0  0  0  0  0  0  0  0  0  0
  -23.8550  -10.4990   21.0640 C   0  0  0  0  0  0  0  0  0  0  0  0
  -24.2760   -9.5310   22.0020 C   0  0  0  0  0  3  0  0  0  0  0  0
  -23.5450   -8.3350   22.1700 C   0  0  0  0  0  3  0  0  0  0  0  0
  -22.3800   -8.1000   21.4010 C   0  0  0  0  0  0  0  0  0  0  0  0
  -21.9800   -9.0580   20.4510 C   0  0  0  0  0  3  0  0  0  0  0  0
  -22.7110  -10.2440   20.2800 C   0  0  0  0  0  3  0  0  0  0  0  0
  -21.6220   -6.9580   21.4810 O   0  0  0  0  0  0  0  0  0  0  0  0
  -21.5540   -6.2190   22.6340 C   0  0  0  0  0  0  0  0  0  0  0  0
  -21.0920   -6.7730   23.8490 C   0  0  0  0  0  3  0  0  0  0  0  0
  -20.9710   -5.9590   24.9930 C   0  0  0  0  0  3  0  0  0  0  0  0
  -21.3010   -4.5930   24.9230 C   0  0  0  0  0  0  0  0  0  0  0  0
  -21.7560   -4.0370   23.7140 C   0  0  0  0  0  3  0  0  0  0  0  0
  -21.8790   -4.8490   22.5730 C   0  0  0  0  0  0  0  0  0  0  0  0
  -22.2970   -4.3050   21.4040 F   0  0  0  0  0  0  0  0  0  0  0  0
  -21.1770   -3.8090   26.0200 F   0  0  0  0  0  0  0  0  0  0  0  0
  -22.7080  -13.5860   21.1550 C   0  0  0  0  0  0  0  0  0  0  0  0
  -21.9670  -12.8960   22.0140 N   0  0  0  0  0  0  0  0  0  0  0  0
  -22.2810  -14.6070   20.6190 O   0  0  0  0  0  0  0  0  0  0  0  0
  -22.3280  -12.0740   22.4740 H   0  0  0  0  0  0  0  0  0  0  0  0
  -21.0250  -13.1980   22.2160 H   0  0  0  0  0  0  0  0  0  0  0  0
  -25.3260  -15.2570   20.3950 N   0  0  0  0  0  0  0  0  0  0  0  0
  -24.5550  -15.9010   20.5240 H   0  0  0  0  0  0  0  0  0  0  0  0
  -26.1830  -15.7100   20.1140 H   0  0  0  0  0  0  0  0  0  0  0  0
  -28.7200  -20.6080   20.4890 C   0  0  0  0  0  2  0  0  0  0  0  0
  -28.9570  -22.4570   20.2840 C   0  0  0  0  0  3  0  0  0  0  0  0
  -27.9440  -24.0320   20.3640 C   0  0  0  0  0  3  0  0  0  0  0  0
  -28.1660  -25.7200   20.3270 O   0  0  0  0  0  0  0  0  0  0  0  0
  -24.6260  -31.8650   23.2190 C   0  0  0  0  0  0  0  0  0  0  0  0
  -27.1620  -26.8630   20.2750 C   0  0  0  0  0  0  0  0  0  0  0  0
  -23.4330  -30.4520   21.6000 C   0  0  0  0  0  3  0  0  0  0  0  0
  -24.8770  -28.8120   20.1970 C   0  0  0  0  0  0  0  0  0  0  0  0
  -26.0050  -30.6300   21.4590 C   0  0  0  0  0  2  0  0  0  0  0  0
  -26.0700  -29.2030   20.8160 C   0  0  0  0  0  0  0  0  0  0  0  0
  -27.2050  -28.2550   20.8200 C   0  0  0  0  0  3  0  0  0  0  0  0
  -25.9350  -26.6460   19.6040 C   0  0  0  0  0  3  0  0  0  0  0  0
  -24.8420  -27.5580   19.5650 C   0  0  0  0  0  3  0  0  0  0  0  0
  -23.6650  -29.7500   20.2320 C   0  0  0  0  0  2  0  0  0  0  0  0
  -24.7110  -31.0130   22.1450 N   0  0  0  0  0  0  0  0  0  0  0  0
  -23.5350  -32.1640   23.7330 O   0  0  0  0  0  0  0  0  0  0  0  0
  -22.7290  -29.4750   22.5790 C   0  0  0  0  0  0  0  0  0  0  0  0
  -21.3980  -29.3120   22.4540 N   0  0  0  0  0  0  0  0  0  0  0  0
  -23.3900  -28.8630   23.4210 O   0  0  0  0  0  0  0  0  0  0  0  0
  -20.9180  -29.8590   21.7530 H   0  0  0  0  0  0  0  0  0  0  0  0
  -18.0110  -28.1060   22.9720 C   0  0  0  0  0  0  0  0  0  0  0  0
  -20.5700  -28.3850   23.2350 C   0  0  0  0  0  3  0  0  0  0  0  0
  -20.6760  -26.9450   22.6810 C   0  0  0  0  0  2  0  0  0  0  0  0
  -19.5770  -26.6050   21.6710 C   0  0  0  0  0  2  0  0  0  0  0  0
  -18.1930  -26.7500   22.3110 C   0  0  0  0  0  2  0  0  0  0  0  0
  -19.1260  -28.8810   23.3910 C   0  0  0  0  0  0  0  0  0  0  0  0
  -18.8980  -30.1460   23.9750 C   0  0  0  0  0  3  0  0  0  0  0  0
  -17.5890  -30.6370   24.1430 C   0  0  0  0  0  3  0  0  0  0  0  0
  -16.4900  -29.8620   23.7350 C   0  0  0  0  0  3  0  0  0  0  0  0
  -16.7020  -28.5980   23.1550 C   0  0  0  0  0  3  0  0  0  0  0  0
  -25.8950  -32.5180   23.8490 C   0  0  0  0  0  3  0  0  0  0  0  0
  -26.3940  -31.7690   25.1470 C   0  0  1  0  0  0  0  0  0  0  0  0
  -25.2900  -31.5560   26.2110 C   0  0  0  0  0  1  0  0  0  0  0  0
  -26.9760  -30.3810   24.7970 C   0  0  0  0  0  1  0  0  0  0  0  0
  -27.5380  -32.5730   25.8040 C   0  0  0  0  0  1  0  0  0  0  0  0
  -25.5720  -33.9210   24.1710 N   0  0  0  0  0  0  0  0  0  0  0  0
  -25.9030  -34.9800   23.4210 C   0  0  0  0  0  0  0  0  0  0  0  0
  -26.5720  -34.8800   22.3910 O   0  0  0  0  0  0  0  0  0  0  0  0
  -24.9760  -34.0710   24.9730 H   0  0  0  0  0  0  0  0  0  0  0  0
  -24.1790  -36.7860   23.0800 C   0  0  0  0  0  1  0  0  0  0  0  0
  -25.4210  -36.3710   23.8870 C   0  0  0  0  0  3  0  0  0  0  0  0
  -27.5550  -37.2590   24.7200 C   0  0  0  0  0  1  0  0  0  0  0  0
  -26.4550  -37.4230   23.7720 N   0  0  0  0  0  0  0  0  0  0  0  0
  -26.0510  -38.3450   23.9100 H   0  0  0  0  0  0  0  0  0  0  0  0
  1  4  1  0
  2  1  1  0
  3  5  1  0
  4  5  1  0
  4  9  1  0
  5 45  1  0
  6  2  1  0
  6  3  1  0
  7  6  1  0
  8  6  1  0
 10 15  1  0
 11 12  1  0
 11 10  1  0
 13 12  1  0
 13 20  1  0
 13 14  1  0
 15  9  1  0
 15 14  1  0
 16  9  2  0
 17 18  2  0
 18 37  1  0
 19 18  1  0
 19 22  1  0
 20 17  1  0
 20 21  1  0
 21 19  2  0
 22 23  1  0
 23 24  2  0
 25 28  1  0
 25 24  1  0
 26 25  2  0
 27 26  1  0
 27 22  2  0
 28 29  1  0
 29 30  1  0
 30 31  2  0
 32 31  1  0
 32 36  1  0
 33 32  2  0
 34 29  2  0
 34 33  1  0
 35 34  1  0
 37 38  1  0
 38 41  1  0
 38 40  1  0
 39 37  2  0
 42 43  1  0
 42 17  1  0
 44 42  1  0
 46 47  2  0
 46 45  1  0
 48 47  1  0
 49 60  2  0
 50 48  1  0
 50 55  1  0
 51 59  1  0
 51 61  1  0
 52 58  1  0
 52 54  1  0
 53 59  1  0
 54 55  2  0
 54 53  1  0
 56 50  2  0
 57 56  1  0
 57 52  2  0
 58 51  1  0
 59 49  1  0
 61 63  2  0
 62 61  1  0
 64 62  1  0
 65 74  2  0
 65 70  1  0
 66 62  1  0
 66 70  1  0
 67 66  1  0
 68 69  1  0
 68 67  1  0
 69 65  1  0
 70 71  2  0
 71 72  1  0
 73 72  2  0
 74 73  1  0
 75 49  1  0
 75 80  1  0
 75 76  1  0
 76 79  1  1
 76 77  1  0
 78 76  1  0
 80 83  1  0
 81 85  1  0
 81 80  1  0
 82 81  2  0
 85 84  1  0
 87 85  1  0
 87 88  1  0
 87 86  1  0
M  ISO  4   4 100   9 100  47 101  48 101
M  END
>  <TORSDO>  (28) 
F 19

>  <SCORE>  (28) 
-16.669

>  <name>  (28) 
28

>  <ligand_id>  (28) 
28

>  <original_smiles>  (28) 
[H]c1c([H])c([H])c2c(c1[H])C([H])([H])C([H])([H])C([H])([H])C2([H])N([H])C(=O)C1([H])N(C(=O)C([H])(N([H])C(=O)C([H])(N([H])C([H])([H])[H])C([H])([H])[H])C(C([H])([H])[H])(C([H])([H])[H])C([H])([H])[H])C([H])([H])c2c([H])c(OC([H])([H])C([H])([H])C([H])([H])C3([H])C([H])(C(=O)N4C([H])([H])C([H])([H])C([H])([H])C([H])(n5nc(-c6c([H])c([H])c(Oc7c([H])c([H])c(F)c([H])c7F)c([H])c6[H])c(C(=O)N([H])[H])c5N([H])[H])C4([H])[H])C([H])([H])C([H])([H])[N+]([H])([H])C3([H])[H])c([H])c([H])c2C1([H])[H]

>  <smiles>  (28) 
[H]c1c([H])c([H])c2c(c1[H])C([H])([H])C([H])([H])C([H])([H])C2([H])N([H])C(=O)C1([H])N(C(=O)C([H])(N([H])C(=O)C([H])(N([H])C([H])([H])[H])C([H])([H])[H])C(C([H])([H])[H])(C([H])([H])[H])C([H])([H])[H])C([H])([H])c2c([H])c(OC([H])([H])C([H])([H])C([H])([H])C3([H])C([H])(C(=O)N4C([H])([H])C([H])([H])C([H])([H])C([H])(n5nc(-c6c([H])c([H])c(Oc7c([H])c([H])c(F)c([H])c7F)c([H])c6[H])c(C(=O)N([H])[H])c5N([H])[H])C4([H])[H])C([H])([H])C([H])([H])[N+]([H])([H])C3([H])[H])c([H])c([H])c2C1([H])[H]

$$$$
29:0:0
     RDKit          3D

 99106  0  0  1  0  0  0  0  0999 V2000
  -30.2100  -21.2980   21.9610 C   0  0  0  0  0  3  0  0  0  0  0  0
  -30.3460  -22.4640   21.0760 N   0  0  0  0  0  4  0  0  0  0  0  0
  -30.0400  -22.2010   20.1530 H   0  0  0  0  0  0  0  0  0  0  0  0
  -31.3190  -22.7150   21.0160 H   0  0  0  0  0  0  0  0  0  0  0  0
  -29.5580  -23.6020   21.5590 C   0  0  0  0  0  2  0  0  0  0  0  0
  -29.6680  -24.8320   20.6730 C   0  0  0  0  0  2  0  0  0  0  0  0
  -28.5890  -25.8210   21.0950 C   0  0  0  0  0  2  0  0  0  0  0  0
  -28.6180  -26.9150   20.2090 O   0  0  0  0  0  0  0  0  0  0  0  0
  -24.6320  -31.9390   23.2470 C   0  0  0  0  0  0  0  0  0  0  0  0
  -27.4360  -27.5950   20.2130 C   0  0  0  0  0  0  0  0  0  0  0  0
  -23.4880  -30.5190   21.5700 C   0  0  0  0  0  3  0  0  0  0  0  0
  -25.0060  -28.9940   20.2030 C   0  0  0  0  0  0  0  0  0  0  0  0
  -26.0100  -30.9220   21.4440 C   0  0  0  0  0  2  0  0  0  0  0  0
  -26.1390  -29.5590   20.8070 C   0  0  0  0  0  0  0  0  0  0  0  0
  -27.3590  -28.8550   20.8290 C   0  0  0  0  0  3  0  0  0  0  0  0
  -26.2970  -27.0290   19.6050 C   0  0  0  0  0  3  0  0  0  0  0  0
  -25.0700  -27.7120   19.6270 C   0  0  0  0  0  3  0  0  0  0  0  0
  -23.7500  -29.8320   20.2040 C   0  0  0  0  0  2  0  0  0  0  0  0
  -24.7250  -31.1400   22.1460 N   0  0  0  0  0  0  0  0  0  0  0  0
  -23.5330  -32.1990   23.7570 O   0  0  0  0  0  0  0  0  0  0  0  0
  -22.8280  -29.4910   22.5130 C   0  0  0  0  0  0  0  0  0  0  0  0
  -21.5120  -29.2920   22.3460 N   0  0  0  0  0  0  0  0  0  0  0  0
  -23.5020  -28.8740   23.3420 O   0  0  0  0  0  0  0  0  0  0  0  0
  -21.0350  -29.8430   21.6440 H   0  0  0  0  0  0  0  0  0  0  0  0
  -18.1340  -28.0780   22.7470 C   0  0  0  0  0  0  0  0  0  0  0  0
  -20.6810  -28.3480   23.0930 C   0  0  0  0  0  3  0  0  0  0  0  0
  -20.8110  -26.9190   22.5190 C   0  0  0  0  0  2  0  0  0  0  0  0
  -19.7390  -26.5920   21.4740 C   0  0  0  0  0  2  0  0  0  0  0  0
  -18.3390  -26.7290   22.0790 C   0  0  0  0  0  2  0  0  0  0  0  0
  -19.2370  -28.8450   23.2100 C   0  0  0  0  0  0  0  0  0  0  0  0
  -18.9970  -30.1090   23.7910 C   0  0  0  0  0  3  0  0  0  0  0  0
  -17.6850  -30.6030   23.9240 C   0  0  0  0  0  3  0  0  0  0  0  0
  -16.5970  -29.8310   23.4810 C   0  0  0  0  0  3  0  0  0  0  0  0
  -16.8220  -28.5730   22.8980 C   0  0  0  0  0  3  0  0  0  0  0  0
  -25.8990  -32.5810   23.8980 C   0  0  0  0  0  3  0  0  0  0  0  0
  -25.5640  -33.9760   24.2160 N   0  0  0  0  0  0  0  0  0  0  0  0
  -25.9120  -35.0270   23.4660 C   0  0  0  0  0  0  0  0  0  0  0  0
  -26.6170  -34.9290   22.4560 O   0  0  0  0  0  0  0  0  0  0  0  0
  -24.9340  -34.1230   24.9900 H   0  0  0  0  0  0  0  0  0  0  0  0
  -24.1760  -36.7970   23.0560 C   0  0  0  0  0  1  0  0  0  0  0  0
  -25.3990  -36.4100   23.9030 C   0  0  0  0  0  3  0  0  0  0  0  0
  -27.4980  -37.3190   24.7910 C   0  0  0  0  0  1  0  0  0  0  0  0
  -26.4210  -37.4740   23.8150 N   0  0  0  0  0  0  0  0  0  0  0  0
  -26.0010  -38.3890   23.9490 H   0  0  0  0  0  0  0  0  0  0  0  0
  -26.3920  -31.8150   25.1860 C   0  0  1  0  0  0  0  0  0  0  0  0
  -25.2710  -31.5600   26.2210 C   0  0  0  0  0  1  0  0  0  0  0  0
  -27.0110  -30.4480   24.8080 C   0  0  0  0  0  1  0  0  0  0  0  0
  -27.5130  -32.6280   25.8770 C   0  0  0  0  0  1  0  0  0  0  0  0
  -31.8000  -21.4010   23.9680 C   0  0  0  0  0  1  0  0  0  0  0  0
  -31.6120  -20.9600   22.5290 C   0  0  0  0  0  2  0  0  0  0  0  0
  -28.1840  -20.5490   20.5170 C   0  0  0  0  0  1  0  0  0  0  0  0
  -29.4800  -20.1510   21.2330 C   0  0  0  0  0  3  0  0  0  0  0  0
  -31.0490  -18.3850   20.6600 C   0  0  0  0  0  0  0  0  0  0  0  0
  -30.3680  -19.4740   20.3040 N   0  0  0  0  0  0  0  0  0  0  0  0
  -31.0110  -17.9170   21.8000 O   0  0  0  0  0  0  0  0  0  0  0  0
  -30.3460  -19.7220   19.3230 H   0  0  0  0  0  0  0  0  0  0  0  0
  -31.7720  -17.6220   19.5630 C   0  0  0  0  0  3  0  0  0  0  0  0
  -30.7230  -16.7670   18.8370 C   0  0  0  0  0  2  0  0  0  0  0  0
  -29.9670  -15.7740   19.7550 C   0  0  0  0  0  2  0  0  0  0  0  0
  -30.7900  -14.5310   20.0950 C   0  0  0  0  0  0  0  0  0  0  0  0
  -30.4620  -12.3390   19.1860 C   0  0  0  0  0  2  0  0  0  0  0  0
  -29.5190  -12.5830   17.9960 C   0  0  0  0  0  2  0  0  0  0  0  0
  -28.0510  -12.4010   18.4230 C   0  0  0  0  0  2  0  0  0  0  0  0
  -27.7080  -13.2620   19.6670 C   0  0  0  0  0  3  0  0  0  0  0  0
  -28.8010  -13.1750   20.7710 C   0  0  0  0  0  2  0  0  0  0  0  0
  -30.1370  -13.3550   20.1890 N   0  0  0  0  0  0  0  0  0  0  0  0
  -32.0050  -14.6000   19.9250 O   0  0  0  0  0  0  0  0  0  0  0  0
  -25.3260  -13.8700   20.4070 C   0  0  0  0  0  0  0  0  0  0  0  0
  -24.2720  -13.0930   20.7900 C   0  0  0  0  0  0  0  0  0  0  0  0
  -24.7480  -11.7440   20.7710 C   0  0  0  0  0  0  0  0  0  0  0  0
  -26.3780  -12.9900   20.1800 N   0  0  0  0  0  0  0  0  0  0  0  0
  -26.0350  -11.7100   20.4590 N   0  0  0  0  0  0  0  0  0  0  0  0
  -24.0340  -10.4790   20.9660 C   0  0  0  0  0  0  0  0  0  0  0  0
  -24.4660   -9.5300   21.9170 C   0  0  0  0  0  3  0  0  0  0  0  0
  -23.7550   -8.3270   22.1050 C   0  0  0  0  0  3  0  0  0  0  0  0
  -22.5950   -8.0630   21.3360 C   0  0  0  0  0  0  0  0  0  0  0  0
  -22.1820   -9.0020   20.3700 C   0  0  0  0  0  3  0  0  0  0  0  0
  -22.9000  -10.1950   20.1800 C   0  0  0  0  0  3  0  0  0  0  0  0
  -21.8580   -6.9110   21.4300 O   0  0  0  0  0  0  0  0  0  0  0  0
  -21.7850   -6.2000   22.6040 C   0  0  0  0  0  0  0  0  0  0  0  0
  -21.3180   -6.7840   23.8010 C   0  0  0  0  0  3  0  0  0  0  0  0
  -21.1920   -5.9970   24.9650 C   0  0  0  0  0  3  0  0  0  0  0  0
  -21.5260   -4.6310   24.9290 C   0  0  0  0  0  0  0  0  0  0  0  0
  -21.9830   -4.0470   23.7380 C   0  0  0  0  0  3  0  0  0  0  0  0
  -22.1140   -4.8310   22.5760 C   0  0  0  0  0  0  0  0  0  0  0  0
  -22.5330   -4.2590   21.4220 F   0  0  0  0  0  0  0  0  0  0  0  0
  -21.4000   -3.8720   26.0460 F   0  0  0  0  0  0  0  0  0  0  0  0
  -22.8690  -13.5530   21.0600 C   0  0  0  0  0  0  0  0  0  0  0  0
  -22.1450  -12.8640   21.9280 N   0  0  0  0  0  0  0  0  0  0  0  0
  -22.4250  -14.5740   20.5320 O   0  0  0  0  0  0  0  0  0  0  0  0
  -22.5230  -12.0450   22.3830 H   0  0  0  0  0  0  0  0  0  0  0  0
  -21.2010  -13.1600   22.1380 H   0  0  0  0  0  0  0  0  0  0  0  0
  -25.4730  -15.2460   20.2150 N   0  0  0  0  0  0  0  0  0  0  0  0
  -24.6890  -15.8840   20.3040 H   0  0  0  0  0  0  0  0  0  0  0  0
  -26.3200  -15.7140   19.9240 H   0  0  0  0  0  0  0  0  0  0  0  0
  -32.6510  -18.4880   18.6280 C   0  0  0  0  0  2  0  0  0  0  0  0
  -34.6600  -20.0680   18.5280 C   0  0  0  0  0  1  0  0  0  0  0  0
  -35.0010  -17.7230   19.3910 C   0  0  0  0  0  1  0  0  0  0  0  0
  -33.9990  -18.8960   19.2710 C   0  0  0  0  0  3  0  0  0  0  0  0
  1 50  1  0
  2  5  1  0
  2  1  1  0
  3  2  1  0
  4  2  1  0
  6  7  1  0
  6  5  1  0
  8 10  1  0
  8  7  1  0
  9 20  2  0
 10 15  1  0
 11 19  1  0
 11 21  1  0
 12 18  1  0
 12 14  1  0
 13 19  1  0
 14 15  2  0
 14 13  1  0
 16 17  1  0
 16 10  2  0
 17 12  2  0
 18 11  1  0
 19  9  1  0
 21 23  2  0
 22 21  1  0
 24 22  1  0
 25 34  2  0
 25 30  1  0
 26 22  1  0
 26 30  1  0
 27 26  1  0
 28 29  1  0
 28 27  1  0
 29 25  1  0
 30 31  2  0
 31 32  1  0
 33 32  2  0
 34 33  1  0
 35  9  1  0
 35 36  1  0
 35 45  1  0
 36 39  1  0
 37 41  1  0
 37 36  1  0
 38 37  2  0
 41 40  1  0
 43 41  1  0
 43 44  1  0
 43 42  1  0
 45 48  1  1
 45 46  1  0
 47 45  1  0
 50 49  1  0
 52 51  1  0
 52  1  1  0
 53 55  2  0
 54 53  1  0
 54 52  1  0
 56 54  1  0
 57 96  1  0
 57 53  1  0
 58 57  1  0
 58 59  1  0
 59 60  1  0
 60 66  1  0
 61 66  1  0
 62 63  1  0
 62 61  1  0
 64 63  1  0
 64 71  1  0
 64 65  1  0
 66 65  1  0
 67 60  2  0
 68 69  2  0
 69 88  1  0
 70 69  1  0
 70 73  1  0
 71 68  1  0
 71 72  1  0
 72 70  2  0
 73 74  1  0
 74 75  2  0
 76 79  1  0
 76 75  1  0
 77 76  2  0
 78 77  1  0
 78 73  2  0
 79 80  1  0
 80 81  1  0
 81 82  2  0
 83 82  1  0
 83 87  1  0
 84 83  2  0
 85 80  2  0
 85 84  1  0
 86 85  1  0
 88 89  1  0
 89 92  1  0
 89 91  1  0
 90 88  2  0
 93 94  1  0
 93 68  1  0
 95 93  1  0
 96 99  1  0
 97 99  1  0
 99 98  1  0
M  ISO  4   7 101   8 101  59 100  60 100
M  END
>  <TORSDO>  (29) 
F 28

>  <SCORE>  (29) 
-11.706

>  <name>  (29) 
29

>  <ligand_id>  (29) 
29

>  <original_smiles>  (29) 
[H]c1c([H])c([H])c2c(c1[H])C([H])([H])C([H])([H])C([H])([H])C2([H])N([H])C(=O)C1([H])N(C(=O)C([H])(N([H])C(=O)C([H])(N([H])C([H])([H])[H])C([H])([H])[H])C(C([H])([H])[H])(C([H])([H])[H])C([H])([H])[H])C([H])([H])c2c([H])c(OC([H])([H])C([H])([H])C([H])([H])[N+]([H])([H])C([H])(C([H])([H])C([H])([H])[H])C([H])(N([H])C(=O)C([H])(C([H])([H])C([H])([H])C(=O)N3C([H])([H])C([H])([H])C([H])([H])C([H])(n4nc(-c5c([H])c([H])c(Oc6c([H])c([H])c(F)c([H])c6F)c([H])c5[H])c(C(=O)N([H])[H])c4N([H])[H])C3([H])[H])C([H])([H])C([H])(C([H])([H])[H])C([H])([H])[H])C([H])([H])[H])c([H])c([H])c2C1([H])[H]

>  <smiles>  (29) 
[H]c1c([H])c([H])c2c(c1[H])C([H])([H])C([H])([H])C([H])([H])C2([H])N([H])C(=O)C1([H])N(C(=O)C([H])(N([H])C(=O)C([H])(N([H])C([H])([H])[H])C([H])([H])[H])C(C([H])([H])[H])(C([H])([H])[H])C([H])([H])[H])C([H])([H])c2c([H])c(OC([H])([H])C([H])([H])C([H])([H])[N+]([H])([H])C([H])(C([H])([H])C([H])([H])[H])C([H])(N([H])C(=O)C([H])(C([H])([H])C([H])([H])C(=O)N3C([H])([H])C([H])([H])C([H])([H])C([H])(n4nc(-c5c([H])c([H])c(Oc6c([H])c([H])c(F)c([H])c6F)c([H])c5[H])c(C(=O)N([H])[H])c4N([H])[H])C3([H])[H])C([H])([H])C([H])(C([H])([H])[H])C([H])([H])[H])C([H])([H])[H])c([H])c([H])c2C1([H])[H]

$$$$
30:0:0
     RDKit          3D

 88 96  0  0  1  0  0  0  0  0999 V2000
  -28.5870  -21.8480   20.0400 C   0  0  0  0  0  3  0  0  0  0  0  0
  -28.8300  -23.4280   20.5350 C   0  0  0  0  0  3  0  0  0  0  0  0
  -27.9460  -24.7400   19.9940 C   0  0  0  0  0  3  0  0  0  0  0  0
  -28.2180  -26.2420   20.2530 O   0  0  0  0  0  0  0  0  0  0  0  0
  -24.6090  -31.8970   23.2380 C   0  0  0  0  0  0  0  0  0  0  0  0
  -27.1680  -27.2190   20.1730 C   0  0  0  0  0  0  0  0  0  0  0  0
  -23.3990  -30.5020   21.6050 C   0  0  0  0  0  3  0  0  0  0  0  0
  -24.8390  -28.9440   20.1600 C   0  0  0  0  0  0  0  0  0  0  0  0
  -25.9510  -30.7800   21.4240 C   0  0  0  0  0  2  0  0  0  0  0  0
  -26.0200  -29.3940   20.7650 C   0  0  0  0  0  0  0  0  0  0  0  0
  -27.1850  -28.5430   20.7620 C   0  0  0  0  0  3  0  0  0  0  0  0
  -25.9680  -26.8760   19.5120 C   0  0  0  0  0  3  0  0  0  0  0  0
  -24.8260  -27.6990   19.5180 C   0  0  0  0  0  3  0  0  0  0  0  0
  -23.6100  -29.8340   20.2210 C   0  0  0  0  0  2  0  0  0  0  0  0
  -24.6720  -31.0810   22.1420 N   0  0  0  0  0  0  0  0  0  0  0  0
  -23.5270  -32.1770   23.7760 O   0  0  0  0  0  0  0  0  0  0  0  0
  -22.7360  -29.4860   22.5680 C   0  0  0  0  0  0  0  0  0  0  0  0
  -21.4080  -29.3090   22.4510 N   0  0  0  0  0  0  0  0  0  0  0  0
  -23.4180  -28.8640   23.3880 O   0  0  0  0  0  0  0  0  0  0  0  0
  -20.9140  -29.8610   21.7630 H   0  0  0  0  0  0  0  0  0  0  0  0
  -18.0380  -28.0850   22.9620 C   0  0  0  0  0  0  0  0  0  0  0  0
  -20.5950  -28.3670   23.2240 C   0  0  0  0  0  3  0  0  0  0  0  0
  -20.7060  -26.9360   22.6520 C   0  0  0  0  0  2  0  0  0  0  0  0
  -19.6040  -26.6020   21.6410 C   0  0  0  0  0  2  0  0  0  0  0  0
  -18.2230  -26.7340   22.2890 C   0  0  0  0  0  2  0  0  0  0  0  0
  -19.1510  -28.8570   23.3870 C   0  0  0  0  0  0  0  0  0  0  0  0
  -18.9240  -30.1210   23.9760 C   0  0  0  0  0  3  0  0  0  0  0  0
  -17.6160  -30.6130   24.1430 C   0  0  0  0  0  3  0  0  0  0  0  0
  -16.5170  -29.8380   23.7340 C   0  0  0  0  0  3  0  0  0  0  0  0
  -16.7290  -28.5770   23.1470 C   0  0  0  0  0  3  0  0  0  0  0  0
  -25.8910  -32.5320   23.8560 C   0  0  0  0  0  3  0  0  0  0  0  0
  -25.5790  -33.9300   24.1880 N   0  0  0  0  0  0  0  0  0  0  0  0
  -25.9110  -34.9880   23.4350 C   0  0  0  0  0  0  0  0  0  0  0  0
  -26.5820  -34.8890   22.4050 O   0  0  0  0  0  0  0  0  0  0  0  0
  -24.9810  -34.0790   24.9870 H   0  0  0  0  0  0  0  0  0  0  0  0
  -24.1920  -36.7920   23.0870 C   0  0  0  0  0  1  0  0  0  0  0  0
  -25.4250  -36.3740   23.9010 C   0  0  0  0  0  3  0  0  0  0  0  0
  -27.5550  -37.2500   24.7560 C   0  0  0  0  0  1  0  0  0  0  0  0
  -26.4610  -37.4250   23.8040 N   0  0  0  0  0  0  0  0  0  0  0  0
  -26.0560  -38.3450   23.9540 H   0  0  0  0  0  0  0  0  0  0  0  0
  -26.4100  -31.7640   25.1350 C   0  0  1  0  0  0  0  0  0  0  0  0
  -25.3190  -31.5330   26.2080 C   0  0  0  0  0  1  0  0  0  0  0  0
  -26.9920  -30.3830   24.7510 C   0  0  0  0  0  1  0  0  0  0  0  0
  -27.5600  -32.5620   25.7910 C   0  0  0  0  0  1  0  0  0  0  0  0
  -29.2640  -20.4550   20.7040 C   0  0  0  0  0  3  0  0  0  0  0  0
  -27.9560  -17.5490   18.5630 C   0  0  0  0  0  2  0  0  0  0  0  0
  -29.4810  -17.2920   18.5630 C   0  0  0  0  0  2  0  0  0  0  0  0
  -27.7090  -18.6760   19.5840 C   0  0  0  0  0  2  0  0  0  0  0  0
  -29.9490  -17.7500   19.9530 C   0  0  0  0  0  3  0  0  0  0  0  0
  -29.0640  -19.0590   20.0050 N   0  0  2  0  0  4  0  0  0  0  0  0
  -29.3890  -19.3990   19.1130 H   0  0  0  0  0  0  0  0  0  0  0  0
  -29.7870  -16.3720   20.8860 C   0  0  0  0  0  2  0  0  0  0  0  0
  -30.5930  -14.9660   20.5480 C   0  0  0  0  0  0  0  0  0  0  0  0
  -30.5210  -12.6430   19.5540 C   0  0  0  0  0  2  0  0  0  0  0  0
  -29.6290  -12.6690   18.2930 C   0  0  0  0  0  2  0  0  0  0  0  0
  -28.1470  -12.4630   18.6690 C   0  0  0  0  0  2  0  0  0  0  0  0
  -27.7090  -13.3540   19.8590 C   0  0  0  0  0  3  0  0  0  0  0  0
  -28.7230  -13.2950   21.0190 C   0  0  0  0  0  2  0  0  0  0  0  0
  -30.0260  -13.6990   20.4820 N   0  0  0  0  0  0  0  0  0  0  0  0
  -31.7830  -15.0490   20.2260 O   0  0  0  0  0  0  0  0  0  0  0  0
  -25.2900  -13.9240   20.4830 C   0  0  0  0  0  0  0  0  0  0  0  0
  -24.2210  -13.1440   20.8260 C   0  0  0  0  0  0  0  0  0  0  0  0
  -24.7030  -11.7980   20.8410 C   0  0  0  0  0  0  0  0  0  0  0  0
  -26.3520  -13.0540   20.3010 N   0  0  0  0  0  0  0  0  0  0  0  0
  -26.0060  -11.7720   20.5820 N   0  0  0  0  0  0  0  0  0  0  0  0
  -23.9850  -10.5330   21.0300 C   0  0  0  0  0  0  0  0  0  0  0  0
  -24.3970   -9.5840   21.9910 C   0  0  0  0  0  3  0  0  0  0  0  0
  -23.6760   -8.3830   22.1640 C   0  0  0  0  0  3  0  0  0  0  0  0
  -22.5310   -8.1210   21.3750 C   0  0  0  0  0  0  0  0  0  0  0  0
  -22.1420   -9.0590   20.4010 C   0  0  0  0  0  3  0  0  0  0  0  0
  -22.8640  -10.2510   20.2260 C   0  0  0  0  0  3  0  0  0  0  0  0
  -21.7830   -6.9710   21.4570 O   0  0  0  0  0  0  0  0  0  0  0  0
  -21.7030   -6.2440   22.6180 C   0  0  0  0  0  0  0  0  0  0  0  0
  -21.2290   -6.8110   23.8220 C   0  0  0  0  0  3  0  0  0  0  0  0
  -21.0950   -6.0090   24.9730 C   0  0  0  0  0  3  0  0  0  0  0  0
  -21.4260   -4.6410   24.9220 C   0  0  0  0  0  0  0  0  0  0  0  0
  -21.8920   -4.0740   23.7230 C   0  0  0  0  0  3  0  0  0  0  0  0
  -22.0260   -4.8730   22.5740 C   0  0  0  0  0  0  0  0  0  0  0  0
  -22.4540   -4.3150   21.4160 F   0  0  0  0  0  0  0  0  0  0  0  0
  -21.2920   -3.8700   26.0270 F   0  0  0  0  0  0  0  0  0  0  0  0
  -22.8100  -13.6070   21.0370 C   0  0  0  0  0  0  0  0  0  0  0  0
  -22.0550  -12.9190   21.8850 N   0  0  0  0  0  0  0  0  0  0  0  0
  -22.3830  -14.6180   20.4790 O   0  0  0  0  0  0  0  0  0  0  0  0
  -22.4140  -12.1030   22.3610 H   0  0  0  0  0  0  0  0  0  0  0  0
  -21.1040  -13.2130   22.0620 H   0  0  0  0  0  0  0  0  0  0  0  0
  -25.4440  -15.2940   20.2890 N   0  0  0  0  0  0  0  0  0  0  0  0
  -24.6650  -15.9410   20.3680 H   0  0  0  0  0  0  0  0  0  0  0  0
  -26.3060  -15.7420   20.0140 H   0  0  0  0  0  0  0  0  0  0  0  0
  1  2  1  0
  1 45  2  0
  3  4  1  0
  3  2  2  0
  5 16  2  0
  6  4  1  0
  6 11  1  0
  7 15  1  0
  7 17  1  0
  8 14  1  0
  8 10  1  0
  9 15  1  0
 10  9  1  0
 11 10  2  0
 12 13  1  0
 12  6  2  0
 13  8  2  0
 14  7  1  0
 15  5  1  0
 17 19  2  0
 18 17  1  0
 20 18  1  0
 21 30  2  0
 21 26  1  0
 22 18  1  0
 22 26  1  0
 23 22  1  0
 24 25  1  0
 24 23  1  0
 25 21  1  0
 26 27  2  0
 27 28  1  0
 29 28  2  0
 30 29  1  0
 31  5  1  0
 31 32  1  0
 31 41  1  0
 32 35  1  0
 33 37  1  0
 33 32  1  0
 34 33  2  0
 37 36  1  0
 39 37  1  0
 39 40  1  0
 39 38  1  0
 41 44  1  1
 41 42  1  0
 43 41  1  0
 46 47  1  0
 46 48  1  0
 47 49  1  0
 48 50  1  0
 49 50  1  0
 49 52  1  0
 50 45  1  0
 50 51  1  6
 53 52  1  0
 54 59  1  0
 55 56  1  0
 55 54  1  0
 57 56  1  0
 57 64  1  0
 57 58  1  0
 59 53  1  0
 59 58  1  0
 60 53  2  0
 61 62  2  0
 62 63  1  0
 62 81  1  0
 63 66  1  0
 64 61  1  0
 64 65  1  0
 65 63  2  0
 66 67  1  0
 67 68  2  0
 69 72  1  0
 69 68  1  0
 70 69  2  0
 71 70  1  0
 71 66  2  0
 72 73  1  0
 73 74  1  0
 74 75  2  0
 76 75  1  0
 76 80  1  0
 77 76  2  0
 78 73  2  0
 78 77  1  0
 79 78  1  0
 81 82  1  0
 82 85  1  0
 82 84  1  0
 83 81  2  0
 86 87  1  0
 86 61  1  0
 88 86  1  0
M  ISO  4   3 101   4 101  52 100  53 100
M  END
>  <TORSDO>  (30) 
F 21

>  <SCORE>  (30) 
-13.425

>  <name>  (30) 
30

>  <ligand_id>  (30) 
30

>  <original_smiles>  (30) 
[H]c1c([H])c([H])c2c(c1[H])C([H])([H])C([H])([H])C([H])([H])C2([H])N([H])C(=O)C1([H])N(C(=O)C([H])(N([H])C(=O)C([H])(N([H])C([H])([H])[H])C([H])([H])[H])C(C([H])([H])[H])(C([H])([H])[H])C([H])([H])[H])C([H])([H])c2c([H])c(OC([H])([H])C([H])([H])C([H])([H])C([H])([H])[N+]3([H])C([H])([H])C([H])([H])C([H])([H])C3([H])C([H])([H])C(=O)N3C([H])([H])C([H])([H])C([H])([H])C([H])(n4nc(-c5c([H])c([H])c(Oc6c([H])c([H])c(F)c([H])c6F)c([H])c5[H])c(C(=O)N([H])[H])c4N([H])[H])C3([H])[H])c([H])c([H])c2C1([H])[H]

>  <smiles>  (30) 
[H]c1c([H])c([H])c2c(c1[H])C([H])([H])C([H])([H])C([H])([H])C2([H])N([H])C(=O)C1([H])N(C(=O)C([H])(N([H])C(=O)C([H])(N([H])C([H])([H])[H])C([H])([H])[H])C(C([H])([H])[H])(C([H])([H])[H])C([H])([H])[H])C([H])([H])c2c([H])c(OC([H])([H])C([H])([H])C([H])([H])C([H])([H])[N+]3([H])C([H])([H])C([H])([H])C([H])([H])C3([H])C([H])([H])C(=O)N3C([H])([H])C([H])([H])C([H])([H])C([H])(n4nc(-c5c([H])c([H])c(Oc6c([H])c([H])c(F)c([H])c6F)c([H])c5[H])c(C(=O)N([H])[H])c4N([H])[H])C3([H])[H])c([H])c([H])c2C1([H])[H]

$$$$
31:0:0
     RDKit          3D

 98107  0  0  1  0  0  0  0  0999 V2000
  -31.8210  -21.3980   22.0310 C   0  0  0  0  0  3  0  0  0  0  0  0
  -31.3530  -19.1180   20.8960 C   0  0  0  0  0  0  0  0  0  0  0  0
  -31.4370  -20.4690   20.8780 C   0  0  0  0  0  3  0  0  0  0  0  0
  -31.0620  -18.3270   19.6170 C   0  0  0  0  0  2  0  0  0  0  0  0
  -31.5660  -18.2430   22.1380 C   0  0  0  0  0  2  0  0  0  0  0  0
  -28.8520  -17.4790   20.5510 C   0  0  0  0  0  2  0  0  0  0  0  0
  -29.1530  -17.4260   22.0600 C   0  0  0  0  0  2  0  0  0  0  0  0
  -30.1740  -17.0810   19.8660 C   0  0  0  0  0  3  0  0  0  0  0  0
  -30.6340  -17.0080   22.1600 C   0  0  0  0  0  3  0  0  0  0  0  0
  -30.8630  -16.1660   20.8940 C   0  0  0  0  0  3  0  0  0  0  0  0
  -30.2660  -14.7320   21.0070 C   0  0  0  0  0  2  0  0  0  0  0  0
  -30.6280  -13.7550   19.8680 C   0  0  0  0  0  0  0  0  0  0  0  0
  -30.0410  -11.7680   18.5110 C   0  0  0  0  0  2  0  0  0  0  0  0
  -28.9540  -12.1180   17.4770 C   0  0  0  0  0  2  0  0  0  0  0  0
  -27.5470  -12.0000   18.0940 C   0  0  0  0  0  2  0  0  0  0  0  0
  -27.4310  -12.7340   19.4580 C   0  0  0  0  0  3  0  0  0  0  0  0
  -28.6080  -12.3470   20.3830 C   0  0  0  0  0  2  0  0  0  0  0  0
  -29.8610  -12.6490   19.6740 N   0  0  0  0  0  0  0  0  0  0  0  0
  -31.6020  -14.0110   19.1520 O   0  0  0  0  0  0  0  0  0  0  0  0
  -25.1470  -13.3850   20.4570 C   0  0  0  0  0  0  0  0  0  0  0  0
  -24.1110  -12.6300   20.9350 C   0  0  0  0  0  0  0  0  0  0  0  0
  -24.5280  -11.2680   20.8200 C   0  0  0  0  0  0  0  0  0  0  0  0
  -26.1360  -12.4850   20.0880 N   0  0  0  0  0  0  0  0  0  0  0  0
  -25.7700  -11.2060   20.3580 N   0  0  0  0  0  0  0  0  0  0  0  0
  -23.7970  -10.0210   21.0700 C   0  0  0  0  0  0  0  0  0  0  0  0
  -24.2630   -9.0640   21.9990 C   0  0  0  0  0  3  0  0  0  0  0  0
  -23.5340   -7.8800   22.2370 C   0  0  0  0  0  3  0  0  0  0  0  0
  -22.3220   -7.6420   21.5440 C   0  0  0  0  0  0  0  0  0  0  0  0
  -21.8740   -8.5860   20.6040 C   0  0  0  0  0  3  0  0  0  0  0  0
  -22.6040   -9.7630   20.3650 C   0  0  0  0  0  3  0  0  0  0  0  0
  -21.5600   -6.5080   21.6910 O   0  0  0  0  0  0  0  0  0  0  0  0
  -21.5060   -5.8260   22.8800 C   0  0  0  0  0  0  0  0  0  0  0  0
  -21.0530   -6.4380   24.0700 C   0  0  0  0  0  3  0  0  0  0  0  0
  -20.9470   -5.6810   25.2550 C   0  0  0  0  0  3  0  0  0  0  0  0
  -21.2840   -4.3150   25.2500 C   0  0  0  0  0  0  0  0  0  0  0  0
  -21.7290   -3.7030   24.0650 C   0  0  0  0  0  3  0  0  0  0  0  0
  -21.8380   -4.4570   22.8830 C   0  0  0  0  0  0  0  0  0  0  0  0
  -22.2470   -3.8570   21.7390 F   0  0  0  0  0  0  0  0  0  0  0  0
  -21.1740   -3.5850   26.3850 F   0  0  0  0  0  0  0  0  0  0  0  0
  -22.7690  -13.1320   21.3850 C   0  0  0  0  0  0  0  0  0  0  0  0
  -22.1380  -12.4370   22.3250 N   0  0  0  0  0  0  0  0  0  0  0  0
  -22.2950  -14.1770   20.9400 O   0  0  0  0  0  0  0  0  0  0  0  0
  -22.5350  -11.5900   22.7040 H   0  0  0  0  0  0  0  0  0  0  0  0
  -21.2420  -12.7560   22.6670 H   0  0  0  0  0  0  0  0  0  0  0  0
  -25.3270  -14.7550   20.2880 N   0  0  0  0  0  0  0  0  0  0  0  0
  -24.5990  -15.4290   20.5010 H   0  0  0  0  0  0  0  0  0  0  0  0
  -26.1520  -15.1790   19.8850 H   0  0  0  0  0  0  0  0  0  0  0  0
  -30.5600  -22.5650   23.8010 C   0  0  0  0  0  1  0  0  0  0  0  0
  -30.7080  -22.3520   22.3360 N   0  0  1  0  0  4  0  0  0  0  0  0
  -29.8720  -21.8620   22.0530 H   0  0  0  0  0  0  0  0  0  0  0  0
  -30.7120  -23.6370   21.5700 C   0  0  0  0  0  2  0  0  0  0  0  0
  -29.2850  -24.2000   21.3320 C   0  0  0  0  0  2  0  0  0  0  0  0
  -29.1850  -25.7440   21.1110 C   0  0  0  0  0  2  0  0  0  0  0  0
  -28.7860  -26.4170   19.8990 O   0  0  0  0  0  0  0  0  0  0  0  0
  -24.9960  -31.3630   23.3930 C   0  0  0  0  0  0  0  0  0  0  0  0
  -27.6730  -27.2330   19.9530 C   0  0  0  0  0  0  0  0  0  0  0  0
  -23.8230  -30.1600   21.5780 C   0  0  0  0  0  3  0  0  0  0  0  0
  -25.3030  -28.7520   20.0490 C   0  0  0  0  0  0  0  0  0  0  0  0
  -26.3580  -30.4910   21.5020 C   0  0  0  0  0  2  0  0  0  0  0  0
  -26.4460  -29.1910   20.7330 C   0  0  0  0  0  0  0  0  0  0  0  0
  -27.6360  -28.4290   20.6970 C   0  0  0  0  0  3  0  0  0  0  0  0
  -26.5240  -26.8080   19.2570 C   0  0  0  0  0  3  0  0  0  0  0  0
  -25.3340  -27.5550   19.3110 C   0  0  0  0  0  3  0  0  0  0  0  0
  -24.0700  -29.6220   20.1430 C   0  0  0  0  0  2  0  0  0  0  0  0
  -25.0750  -30.6790   22.2180 N   0  0  0  0  0  0  0  0  0  0  0  0
  -23.9010  -31.6030   23.9230 O   0  0  0  0  0  0  0  0  0  0  0  0
  -23.1230  -29.0600   22.4060 C   0  0  0  0  0  0  0  0  0  0  0  0
  -21.7990  -28.9250   22.2210 N   0  0  0  0  0  0  0  0  0  0  0  0
  -23.7680  -28.3360   23.1700 O   0  0  0  0  0  0  0  0  0  0  0  0
  -21.3450  -29.5610   21.5820 H   0  0  0  0  0  0  0  0  0  0  0  0
  -18.3840  -27.7800   22.5010 C   0  0  0  0  0  0  0  0  0  0  0  0
  -20.9390  -27.9330   22.8630 C   0  0  0  0  0  3  0  0  0  0  0  0
  -21.0200  -26.5710   22.1360 C   0  0  0  0  0  2  0  0  0  0  0  0
  -19.9400  -26.3930   21.0650 C   0  0  0  0  0  2  0  0  0  0  0  0
  -18.5440  -26.5070   21.6850 C   0  0  0  0  0  2  0  0  0  0  0  0
  -19.5090  -28.4570   23.0390 C   0  0  0  0  0  0  0  0  0  0  0  0
  -19.3090  -29.6550   23.7590 C   0  0  0  0  0  3  0  0  0  0  0  0
  -18.0150  -30.1760   23.9440 C   0  0  0  0  0  3  0  0  0  0  0  0
  -16.9030  -29.4930   23.4230 C   0  0  0  0  0  3  0  0  0  0  0  0
  -17.0880  -28.2960   22.7080 C   0  0  0  0  0  3  0  0  0  0  0  0
  -26.2720  -31.8990   24.1170 C   0  0  0  0  0  3  0  0  0  0  0  0
  -25.9800  -33.2620   24.5760 N   0  0  0  0  0  0  0  0  0  0  0  0
  -26.3460  -34.3770   23.9290 C   0  0  0  0  0  0  0  0  0  0  0  0
  -27.0360  -34.3620   22.9060 O   0  0  0  0  0  0  0  0  0  0  0  0
  -25.3700  -33.3500   25.3760 H   0  0  0  0  0  0  0  0  0  0  0  0
  -24.6450  -36.2170   23.7190 C   0  0  0  0  0  1  0  0  0  0  0  0
  -25.8680  -35.7220   24.5070 C   0  0  0  0  0  3  0  0  0  0  0  0
  -27.9970  -36.4950   25.4550 C   0  0  0  0  0  1  0  0  0  0  0  0
  -26.9140  -36.7670   24.5120 N   0  0  0  0  0  0  0  0  0  0  0  0
  -26.5160  -37.6730   24.7430 H   0  0  0  0  0  0  0  0  0  0  0  0
  -26.7330  -30.9880   25.3200 C   0  0  1  0  0  0  0  0  0  0  0  0
  -25.6010  -30.6670   26.3250 C   0  0  0  0  0  1  0  0  0  0  0  0
  -27.3010  -29.6460   24.8030 C   0  0  0  0  0  1  0  0  0  0  0  0
  -27.8780  -31.6830   26.0940 C   0  0  0  0  0  1  0  0  0  0  0  0
  -33.1910  -22.0920   21.7930 C   0  0  0  0  0  2  0  0  0  0  0  0
  -35.4780  -22.0680   20.7050 C   0  0  0  0  0  1  0  0  0  0  0  0
  -34.7330  -20.0420   22.0000 C   0  0  0  0  0  1  0  0  0  0  0  0
  -34.2690  -21.2120   21.1140 C   0  0  0  0  0  3  0  0  0  0  0  0
  1  3  1  0
  1 49  1  0
  2  5  1  0
  3  2  2  0
  4  2  1  0
  5  9  1  0
  6  7  1  0
  8  4  1  0
  8  6  1  0
  8 10  1  0
  9  7  1  0
 10 11  1  0
 10  9  1  0
 12 11  1  0
 13 18  1  0
 14 15  1  0
 14 13  1  0
 16 15  1  0
 16 23  1  0
 16 17  1  0
 18 12  1  0
 18 17  1  0
 19 12  2  0
 20 21  2  0
 21 40  1  0
 22 21  1  0
 22 25  1  0
 23 24  1  0
 23 20  1  0
 24 22  2  0
 25 26  1  0
 26 27  2  0
 28 31  1  0
 28 27  1  0
 29 28  2  0
 30 29  1  0
 30 25  2  0
 31 32  1  0
 32 37  2  0
 32 33  1  0
 33 34  2  0
 35 34  1  0
 35 39  1  0
 36 35  2  0
 37 36  1  0
 38 37  1  0
 40 41  1  0
 41 44  1  0
 41 43  1  0
 42 40  2  0
 45 20  1  0
 45 46  1  0
 47 45  1  0
 49 48  1  0
 49 50  1  6
 51 49  1  0
 52 51  1  0
 53 52  1  0
 54 56  1  0
 54 53  1  0
 55 66  2  0
 56 61  1  0
 57 65  1  0
 57 67  1  0
 58 64  1  0
 58 60  1  0
 59 65  1  0
 60 59  1  0
 61 60  2  0
 62 63  1  0
 62 56  2  0
 63 58  2  0
 64 57  1  0
 65 55  1  0
 67 69  2  0
 68 67  1  0
 70 68  1  0
 71 80  2  0
 71 76  1  0
 72 68  1  0
 72 76  1  0
 73 72  1  0
 74 75  1  0
 74 73  1  0
 75 71  1  0
 76 77  2  0
 77 78  1  0
 79 78  2  0
 80 79  1  0
 81 55  1  0
 81 82  1  0
 81 91  1  0
 82 85  1  0
 83 87  1  0
 83 82  1  0
 84 83  2  0
 87 86  1  0
 87 89  1  0
 89 90  1  0
 89 88  1  0
 91 94  1  1
 91 92  1  0
 93 91  1  0
 95  1  1  0
 96 98  1  0
 98 95  1  0
 98 97  1  0
M  ISO  4  11 100  12 100  53 101  54 101
M  END
>  <TORSDO>  (31) 
F 24

>  <SCORE>  (31) 
-8.916

>  <name>  (31) 
31

>  <ligand_id>  (31) 
31

>  <original_smiles>  (31) 
[H]C(=C1C([H])([H])C2([H])C([H])([H])C([H])([H])C([H])(C1([H])[H])C2([H])C([H])([H])C(=O)N1C([H])([H])C([H])([H])C([H])([H])C([H])(n2nc(-c3c([H])c([H])c(Oc4c([H])c([H])c(F)c([H])c4F)c([H])c3[H])c(C(=O)N([H])[H])c2N([H])[H])C1([H])[H])C([H])(C([H])([H])C([H])(C([H])([H])[H])C([H])([H])[H])[N+]([H])(C([H])([H])[H])C([H])([H])C([H])([H])C([H])([H])Oc1c([H])c([H])c2c(c1[H])C([H])([H])N(C(=O)C([H])(N([H])C(=O)C([H])(N([H])C([H])([H])[H])C([H])([H])[H])C(C([H])([H])[H])(C([H])([H])[H])C([H])([H])[H])C([H])(C(=O)N([H])C1([H])c3c([H])c([H])c([H])c([H])c3C([H])([H])C([H])([H])C1([H])[H])C2([H])[H]

>  <smiles>  (31) 
[H]C(=C1C([H])([H])C2([H])C([H])([H])C([H])([H])C([H])(C1([H])[H])C2([H])C([H])([H])C(=O)N1C([H])([H])C([H])([H])C([H])([H])C([H])(n2nc(-c3c([H])c([H])c(Oc4c([H])c([H])c(F)c([H])c4F)c([H])c3[H])c(C(=O)N([H])[H])c2N([H])[H])C1([H])[H])C([H])(C([H])([H])C([H])(C([H])([H])[H])C([H])([H])[H])[N+]([H])(C([H])([H])[H])C([H])([H])C([H])([H])C([H])([H])Oc1c([H])c([H])c2c(c1[H])C([H])([H])N(C(=O)C([H])(N([H])C(=O)C([H])(N([H])C([H])([H])[H])C([H])([H])[H])C(C([H])([H])[H])(C([H])([H])[H])C([H])([H])[H])C([H])(C(=O)N([H])C1([H])c3c([H])c([H])c([H])c([H])c3C([H])([H])C([H])([H])C1([H])[H])C2([H])[H]

$$$$
32:0:0
     RDKit          3D

 90 98  0  0  1  0  0  0  0  0999 V2000
  -31.3290  -21.9140   19.8580 C   0  0  0  0  0  3  0  0  0  0  0  0
  -30.4090  -23.0040   19.8670 C   0  0  0  0  0  3  0  0  0  0  0  0
  -30.9670  -20.5330   19.7950 C   0  0  0  0  0  3  0  0  0  0  0  0
  -28.6940  -21.3200   19.7430 C   0  0  0  0  0  3  0  0  0  0  0  0
  -29.0110  -22.8220   19.8190 C   0  0  0  0  0  0  0  0  0  0  0  0
  -29.6250  -20.0960   19.7270 C   0  0  0  0  0  0  0  0  0  0  0  0
  -27.9990  -24.2320   19.7200 C   0  0  0  0  0  2  0  0  0  0  0  0
  -28.2550  -25.8210   20.0140 O   0  0  0  0  0  0  0  0  0  0  0  0
  -24.6070  -31.6850   23.0280 C   0  0  0  0  0  0  0  0  0  0  0  0
  -27.2190  -26.8880   19.9660 C   0  0  0  0  0  0  0  0  0  0  0  0
  -23.4230  -30.2990   21.3730 C   0  0  0  0  0  3  0  0  0  0  0  0
  -24.8850  -28.7230   19.9380 C   0  0  0  0  0  0  0  0  0  0  0  0
  -25.9850  -30.5420   21.2290 C   0  0  0  0  0  2  0  0  0  0  0  0
  -26.0700  -29.1430   20.5580 C   0  0  0  0  0  0  0  0  0  0  0  0
  -27.2300  -28.2470   20.5480 C   0  0  0  0  0  3  0  0  0  0  0  0
  -26.0010  -26.6100   19.3060 C   0  0  0  0  0  3  0  0  0  0  0  0
  -24.8760  -27.4780   19.2900 C   0  0  0  0  0  3  0  0  0  0  0  0
  -23.6570  -29.6300   19.9890 C   0  0  0  0  0  2  0  0  0  0  0  0
  -24.6920  -30.8680   21.9290 N   0  0  0  0  0  0  0  0  0  0  0  0
  -23.5170  -31.9620   23.5500 O   0  0  0  0  0  0  0  0  0  0  0  0
  -22.7350  -29.2870   22.3270 C   0  0  0  0  0  0  0  0  0  0  0  0
  -21.4000  -29.1530   22.2330 N   0  0  0  0  0  0  0  0  0  0  0  0
  -23.4110  -28.6240   23.1170 O   0  0  0  0  0  0  0  0  0  0  0  0
  -20.9090  -29.7410   21.5720 H   0  0  0  0  0  0  0  0  0  0  0  0
  -18.0050  -28.0240   22.8260 C   0  0  0  0  0  0  0  0  0  0  0  0
  -20.5800  -28.2100   23.0000 C   0  0  0  0  0  3  0  0  0  0  0  0
  -20.6190  -26.7980   22.3690 C   0  0  0  0  0  2  0  0  0  0  0  0
  -19.4710  -26.5460   21.3850 C   0  0  0  0  0  2  0  0  0  0  0  0
  -18.1180  -26.7000   22.0870 C   0  0  0  0  0  2  0  0  0  0  0  0
  -19.1600  -28.7400   23.2400 C   0  0  0  0  0  0  0  0  0  0  0  0
  -18.9970  -29.9810   23.8930 C   0  0  0  0  0  3  0  0  0  0  0  0
  -17.7140  -30.5050   24.1330 C   0  0  0  0  0  3  0  0  0  0  0  0
  -16.5740  -29.7870   23.7300 C   0  0  0  0  0  3  0  0  0  0  0  0
  -16.7220  -28.5470   23.0830 C   0  0  0  0  0  3  0  0  0  0  0  0
  -25.8740  -32.3280   23.6660 C   0  0  0  0  0  3  0  0  0  0  0  0
  -25.5420  -33.7170   24.0340 N   0  0  0  0  0  0  0  0  0  0  0  0
  -25.8620  -34.8000   23.3130 C   0  0  0  0  0  0  0  0  0  0  0  0
  -26.5350  -34.7370   22.2800 O   0  0  0  0  0  0  0  0  0  0  0  0
  -24.9350  -33.8360   24.8320 H   0  0  0  0  0  0  0  0  0  0  0  0
  -24.1090  -36.5860   23.0280 C   0  0  0  0  0  1  0  0  0  0  0  0
  -25.3610  -36.1680   23.8150 C   0  0  0  0  0  3  0  0  0  0  0  0
  -27.4910  -37.0630   24.6530 C   0  0  0  0  0  1  0  0  0  0  0  0
  -26.3790  -37.2390   23.7230 N   0  0  0  0  0  0  0  0  0  0  0  0
  -25.9610  -38.1490   23.8970 H   0  0  0  0  0  0  0  0  0  0  0  0
  -26.3940  -31.5390   24.9310 C   0  0  1  0  0  0  0  0  0  0  0  0
  -25.3070  -31.2860   26.0000 C   0  0  0  0  0  1  0  0  0  0  0  0
  -26.9780  -30.1650   24.5280 C   0  0  0  0  0  1  0  0  0  0  0  0
  -27.5420  -32.3280   25.6040 C   0  0  0  0  0  1  0  0  0  0  0  0
  -29.3030  -18.3790   19.5920 C   0  0  0  0  0  3  0  0  0  0  0  0
  -30.1880  -16.8970   20.1460 C   0  0  0  0  0  2  0  0  0  0  0  0
  -30.5080  -15.1850   19.7780 C   0  0  0  0  0  0  0  0  0  0  0  0
  -30.3700  -12.6540   19.1820 C   0  0  0  0  0  2  0  0  0  0  0  0
  -29.4350  -12.3390   17.9890 C   0  0  0  0  0  2  0  0  0  0  0  0
  -28.0170  -12.0660   18.5010 C   0  0  0  0  0  2  0  0  0  0  0  0
  -27.5770  -13.1320   19.5340 C   0  0  0  0  0  3  0  0  0  0  0  0
  -28.6530  -13.4700   20.6020 C   0  0  0  0  0  2  0  0  0  0  0  0
  -29.8830  -13.8980   19.9100 N   0  0  0  0  0  0  0  0  0  0  0  0
  -31.6520  -15.0250   19.3290 O   0  0  0  0  0  0  0  0  0  0  0  0
  -25.2710  -13.6990   20.4480 C   0  0  0  0  0  0  0  0  0  0  0  0
  -24.2240  -12.9480   20.8870 C   0  0  0  0  0  0  0  0  0  0  0  0
  -24.6570  -11.5900   20.7960 C   0  0  0  0  0  0  0  0  0  0  0  0
  -26.2820  -12.8170   20.1240 N   0  0  0  0  0  0  0  0  0  0  0  0
  -25.9250  -11.5330   20.3950 N   0  0  0  0  0  0  0  0  0  0  0  0
  -23.9100  -10.3460   21.0060 C   0  0  0  0  0  0  0  0  0  0  0  0
  -24.3740   -9.3440   21.8850 C   0  0  0  0  0  3  0  0  0  0  0  0
  -23.6240   -8.1660   22.0850 C   0  0  0  0  0  3  0  0  0  0  0  0
  -22.3950   -7.9830   21.4060 C   0  0  0  0  0  0  0  0  0  0  0  0
  -21.9470   -8.9750   20.5160 C   0  0  0  0  0  3  0  0  0  0  0  0
  -22.6980  -10.1450   20.3150 C   0  0  0  0  0  3  0  0  0  0  0  0
  -21.6110   -6.8620   21.5240 O   0  0  0  0  0  0  0  0  0  0  0  0
  -21.6210   -6.0890   22.6580 C   0  0  0  0  0  0  0  0  0  0  0  0
  -21.3000   -6.6230   23.9240 C   0  0  0  0  0  3  0  0  0  0  0  0
  -21.2580   -5.7800   25.0540 C   0  0  0  0  0  3  0  0  0  0  0  0
  -21.5220   -4.4030   24.9160 C   0  0  0  0  0  0  0  0  0  0  0  0
  -21.8330   -3.8700   23.6530 C   0  0  0  0  0  3  0  0  0  0  0  0
  -21.8790   -4.7100   22.5290 C   0  0  0  0  0  0  0  0  0  0  0  0
  -22.1630   -4.1870   21.3100 F   0  0  0  0  0  0  0  0  0  0  0  0
  -21.4700   -3.5930   25.9970 F   0  0  0  0  0  0  0  0  0  0  0  0
  -22.8650  -13.4590   21.2660 C   0  0  0  0  0  0  0  0  0  0  0  0
  -22.1840  -12.7720   22.1740 N   0  0  0  0  0  0  0  0  0  0  0  0
  -22.4230  -14.5060   20.7960 O   0  0  0  0  0  0  0  0  0  0  0  0
  -22.5540  -11.9250   22.5780 H   0  0  0  0  0  0  0  0  0  0  0  0
  -21.2780  -13.1020   22.4770 H   0  0  0  0  0  0  0  0  0  0  0  0
  -25.4370  -15.0570   20.2560 N   0  0  0  0  0  0  0  0  0  0  0  0
  -24.7140  -15.7380   20.4570 H   0  0  0  0  0  0  0  0  0  0  0  0
  -26.2790  -15.4680   19.8800 H   0  0  0  0  0  0  0  0  0  0  0  0
  -27.8870  -18.2710   20.2260 C   0  0  0  0  0  2  0  0  0  0  0  0
  -25.4620  -17.6180   20.0280 C   0  0  0  0  0  1  0  0  0  0  0  0
  -26.4780  -19.0750   18.2270 C   0  0  0  0  0  1  0  0  0  0  0  0
  -26.7490  -17.9620   19.2510 C   0  0  0  0  0  3  0  0  0  0  0  0
  1  2  1  0
  3  1  2  0
  4  5  1  0
  5  2  2  0
  6  4  2  0
  6  3  1  0
  7  5  1  0
  7  8  1  0
  9 20  2  0
 10  8  1  0
 10 15  1  0
 11 19  1  0
 11 21  1  0
 12 18  1  0
 12 14  1  0
 13 19  1  0
 14 13  1  0
 15 14  2  0
 16 10  2  0
 17 16  1  0
 17 12  2  0
 18 11  1  0
 19  9  1  0
 21 23  2  0
 22 21  1  0
 24 22  1  0
 25 34  2  0
 25 30  1  0
 26 22  1  0
 26 30  1  0
 27 26  1  0
 28 29  1  0
 28 27  1  0
 29 25  1  0
 30 31  2  0
 31 32  1  0
 33 32  2  0
 34 33  1  0
 35  9  1  0
 35 36  1  0
 35 45  1  0
 36 39  1  0
 37 41  1  0
 37 36  1  0
 38 37  2  0
 41 40  1  0
 43 41  1  0
 43 44  1  0
 43 42  1  0
 45 48  1  1
 45 46  1  0
 47 45  1  0
 49  6  1  0
 49 50  1  0
 49 87  1  0
 51 57  1  0
 51 50  1  0
 52 57  1  0
 53 54  1  0
 53 52  1  0
 55 54  1  0
 55 62  1  0
 55 56  1  0
 57 56  1  0
 58 51  2  0
 59 60  2  0
 60 79  1  0
 61 60  1  0
 61 64  1  0
 62 63  1  0
 62 59  1  0
 63 61  2  0
 64 65  1  0
 65 66  2  0
 67 70  1  0
 67 66  1  0
 68 67  2  0
 69 68  1  0
 69 64  2  0
 70 71  1  0
 71 72  1  0
 72 73  2  0
 74 73  1  0
 74 78  1  0
 75 74  2  0
 76 71  2  0
 76 75  1  0
 77 76  1  0
 79 80  1  0
 80 83  1  0
 80 82  1  0
 81 79  2  0
 84 59  1  0
 84 85  1  0
 86 84  1  0
 89 90  1  0
 90 88  1  0
 90 87  1  0
M  ISO  4   7 101   8 101  50 100  51 100
M  END
>  <TORSDO>  (32) 
F 21

>  <SCORE>  (32) 
-14.533

>  <name>  (32) 
32

>  <ligand_id>  (32) 
32

>  <original_smiles>  (32) 
[H]c1c([H])c([H])c2c(c1[H])C([H])([H])C([H])([H])C([H])([H])C2([H])N([H])C(=O)C1([H])N(C(=O)C([H])(N([H])C(=O)C([H])(N([H])C([H])([H])[H])C([H])([H])[H])C(C([H])([H])[H])(C([H])([H])[H])C([H])([H])[H])C([H])([H])c2c([H])c(OC([H])([H])c3c([H])c([H])c([H])c(C([H])(C([H])([H])C(=O)N4C([H])([H])C([H])([H])C([H])([H])C([H])(n5nc(-c6c([H])c([H])c(Oc7c([H])c([H])c(F)c([H])c7F)c([H])c6[H])c(C(=O)N([H])[H])c5N([H])[H])C4([H])[H])C([H])([H])C([H])(C([H])([H])[H])C([H])([H])[H])c3[H])c([H])c([H])c2C1([H])[H]

>  <smiles>  (32) 
[H]c1c([H])c([H])c2c(c1[H])C([H])([H])C([H])([H])C([H])([H])C2([H])N([H])C(=O)C1([H])N(C(=O)C([H])(N([H])C(=O)C([H])(N([H])C([H])([H])[H])C([H])([H])[H])C(C([H])([H])[H])(C([H])([H])[H])C([H])([H])[H])C([H])([H])c2c([H])c(OC([H])([H])c3c([H])c([H])c([H])c(C([H])(C([H])([H])C(=O)N4C([H])([H])C([H])([H])C([H])([H])C([H])(n5nc(-c6c([H])c([H])c(Oc7c([H])c([H])c(F)c([H])c7F)c([H])c6[H])c(C(=O)N([H])[H])c5N([H])[H])C4([H])[H])C([H])([H])C([H])(C([H])([H])[H])C([H])([H])[H])c3[H])c([H])c([H])c2C1([H])[H]

$$$$
33:0:0
     RDKit          3D

 91 98  0  0  1  0  0  0  0  0999 V2000
  -28.8520  -21.5440   20.0410 C   0  0  0  0  0  3  0  0  0  0  0  0
  -29.5170  -19.0430   20.2770 C   0  0  0  0  0  0  0  0  0  0  0  0
  -29.8250  -20.3800   20.1360 N   0  0  0  0  0  0  0  0  0  0  0  0
  -28.3420  -18.6750   20.2300 O   0  0  0  0  0  0  0  0  0  0  0  0
  -30.8090  -20.6200   20.1540 H   0  0  0  0  0  0  0  0  0  0  0  0
  -30.6190  -17.9310   20.5120 C   0  0  0  0  0  2  0  0  0  0  0  0
  -30.1260  -16.4940   21.0300 C   0  0  0  0  0  2  0  0  0  0  0  0
  -31.0180  -15.2030   20.7860 C   0  0  0  0  0  0  0  0  0  0  0  0
  -31.0030  -12.8600   19.9380 C   0  0  0  0  0  2  0  0  0  0  0  0
  -30.1900  -12.8340   18.6260 C   0  0  0  0  0  2  0  0  0  0  0  0
  -28.6850  -12.6530   18.9160 C   0  0  0  0  0  2  0  0  0  0  0  0
  -28.1720  -13.6170   20.0170 C   0  0  0  0  0  3  0  0  0  0  0  0
  -29.1110  -13.6200   21.2440 C   0  0  0  0  0  2  0  0  0  0  0  0
  -30.4630  -13.9490   20.7760 N   0  0  0  0  0  0  0  0  0  0  0  0
  -32.2070  -15.3550   20.4910 O   0  0  0  0  0  0  0  0  0  0  0  0
  -25.7300  -14.2200   20.5370 C   0  0  0  0  0  0  0  0  0  0  0  0
  -24.6350  -13.4480   20.8120 C   0  0  0  0  0  0  0  0  0  0  0  0
  -25.0960  -12.0960   20.8180 C   0  0  0  0  0  0  0  0  0  0  0  0
  -26.7890  -13.3380   20.3880 N   0  0  0  0  0  0  0  0  0  0  0  0
  -26.4080  -12.0560   20.6200 N   0  0  0  0  0  0  0  0  0  0  0  0
  -24.3550  -10.8340   20.9430 C   0  0  0  0  0  0  0  0  0  0  0  0
  -24.7400   -9.8400   21.8690 C   0  0  0  0  0  3  0  0  0  0  0  0
  -24.0010   -8.6420   21.9810 C   0  0  0  0  0  3  0  0  0  0  0  0
  -22.8640   -8.4320   21.1660 C   0  0  0  0  0  0  0  0  0  0  0  0
  -22.4980   -9.4150   20.2310 C   0  0  0  0  0  3  0  0  0  0  0  0
  -23.2360  -10.6040   20.1150 C   0  0  0  0  0  3  0  0  0  0  0  0
  -22.1000   -7.2900   21.1900 O   0  0  0  0  0  0  0  0  0  0  0  0
  -22.0120   -6.5050   22.3110 C   0  0  0  0  0  0  0  0  0  0  0  0
  -21.5570   -7.0180   23.5460 C   0  0  0  0  0  3  0  0  0  0  0  0
  -21.4150   -6.1610   24.6560 C   0  0  0  0  0  3  0  0  0  0  0  0
  -21.7180   -4.7930   24.5330 C   0  0  0  0  0  0  0  0  0  0  0  0
  -22.1650   -4.2780   23.3040 C   0  0  0  0  0  3  0  0  0  0  0  0
  -22.3090   -5.1320   22.1960 C   0  0  0  0  0  0  0  0  0  0  0  0
  -22.7200   -4.6260   21.0080 F   0  0  0  0  0  0  0  0  0  0  0  0
  -21.5740   -3.9680   25.5970 F   0  0  0  0  0  0  0  0  0  0  0  0
  -23.2210  -13.9250   20.9670 C   0  0  0  0  0  0  0  0  0  0  0  0
  -22.4260  -13.2380   21.7800 N   0  0  0  0  0  0  0  0  0  0  0  0
  -22.8260  -14.9450   20.4030 O   0  0  0  0  0  0  0  0  0  0  0  0
  -22.7570  -12.4140   22.2620 H   0  0  0  0  0  0  0  0  0  0  0  0
  -21.4730  -13.5410   21.9250 H   0  0  0  0  0  0  0  0  0  0  0  0
  -25.9080  -15.5920   20.3800 N   0  0  0  0  0  0  0  0  0  0  0  0
  -25.1370  -16.2470   20.4480 H   0  0  0  0  0  0  0  0  0  0  0  0
  -26.7880  -16.0450   20.1680 H   0  0  0  0  0  0  0  0  0  0  0  0
  -29.3860  -22.8900   19.3370 C   0  0  0  0  0  3  0  0  0  0  0  0
  -28.5980  -24.2810   19.5260 C   0  0  0  0  0  3  0  0  0  0  0  0
  -29.0700  -25.5600   18.6990 C   0  0  0  0  0  2  0  0  0  0  0  0
  -28.8700  -26.9370   19.2020 O   0  0  0  0  0  0  0  0  0  0  0  0
  -24.7260  -31.4890   22.9060 C   0  0  0  0  0  0  0  0  0  0  0  0
  -27.6420  -27.6090   19.2510 C   0  0  0  0  0  0  0  0  0  0  0  0
  -23.5950  -30.1840   21.1370 C   0  0  0  0  0  3  0  0  0  0  0  0
  -25.1290  -28.9520   19.4970 C   0  0  0  0  0  0  0  0  0  0  0  0
  -26.0800  -30.7680   20.9270 C   0  0  0  0  0  2  0  0  0  0  0  0
  -26.2630  -29.4880   20.1190 C   0  0  0  0  0  0  0  0  0  0  0  0
  -27.5160  -28.8270   19.9890 C   0  0  0  0  0  3  0  0  0  0  0  0
  -26.4820  -27.1100   18.6220 C   0  0  0  0  0  3  0  0  0  0  0  0
  -25.2400  -27.7720   18.7400 C   0  0  0  0  0  3  0  0  0  0  0  0
  -23.8180  -29.6900   19.6810 C   0  0  0  0  0  2  0  0  0  0  0  0
  -24.8190  -30.8270   21.7150 N   0  0  0  0  0  0  0  0  0  0  0  0
  -23.6430  -31.5980   23.5000 O   0  0  0  0  0  0  0  0  0  0  0  0
  -23.0630  -29.0080   21.9890 C   0  0  0  0  0  0  0  0  0  0  0  0
  -21.7640  -28.6970   21.8430 N   0  0  0  0  0  0  0  0  0  0  0  0
  -23.8180  -28.3820   22.7370 O   0  0  0  0  0  0  0  0  0  0  0  0
  -21.2110  -29.2650   21.2180 H   0  0  0  0  0  0  0  0  0  0  0  0
  -18.5580  -27.0530   22.1670 C   0  0  0  0  0  0  0  0  0  0  0  0
  -21.0630  -27.5980   22.5070 C   0  0  0  0  0  3  0  0  0  0  0  0
  -21.3450  -26.2510   21.8020 C   0  0  0  0  0  2  0  0  0  0  0  0
  -20.2980  -25.8940   20.7410 C   0  0  0  0  0  2  0  0  0  0  0  0
  -18.9050  -25.8060   21.3710 C   0  0  0  0  0  2  0  0  0  0  0  0
  -19.5710  -27.9030   22.6860 C   0  0  0  0  0  0  0  0  0  0  0  0
  -19.1940  -29.0670   23.3890 C   0  0  0  0  0  3  0  0  0  0  0  0
  -17.8360  -29.3870   23.5790 C   0  0  0  0  0  3  0  0  0  0  0  0
  -16.8380  -28.5350   23.0760 C   0  0  0  0  0  3  0  0  0  0  0  0
  -17.1990  -27.3690   22.3760 C   0  0  0  0  0  3  0  0  0  0  0  0
  -25.9680  -32.1620   23.5700 C   0  0  0  0  0  3  0  0  0  0  0  0
  -25.5560  -33.4910   24.0460 N   0  0  0  0  0  0  0  0  0  0  0  0
  -25.8050  -34.6400   23.4060 C   0  0  0  0  0  0  0  0  0  0  0  0
  -26.4780  -34.6990   22.3740 O   0  0  0  0  0  0  0  0  0  0  0  0
  -24.9550  -33.5120   24.8560 H   0  0  0  0  0  0  0  0  0  0  0  0
  -23.9430  -36.3240   23.2450 C   0  0  0  0  0  1  0  0  0  0  0  0
  -25.2180  -35.9310   24.0090 C   0  0  0  0  0  3  0  0  0  0  0  0
  -27.2860  -36.8840   24.9310 C   0  0  0  0  0  1  0  0  0  0  0  0
  -26.1660  -37.0670   24.0100 N   0  0  0  0  0  0  0  0  0  0  0  0
  -25.6930  -37.9330   24.2530 H   0  0  0  0  0  0  0  0  0  0  0  0
  -26.5760  -31.3130   24.7530 C   0  0  1  0  0  0  0  0  0  0  0  0
  -25.5340  -30.8900   25.8150 C   0  0  0  0  0  1  0  0  0  0  0  0
  -27.2490  -30.0300   24.2150 C   0  0  0  0  0  1  0  0  0  0  0  0
  -27.6810  -32.1270   25.4690 C   0  0  0  0  0  1  0  0  0  0  0  0
  -28.2620  -21.8310   21.4510 C   0  0  0  0  0  2  0  0  0  0  0  0
  -27.0610  -23.4610   22.9820 C   0  0  0  0  0  1  0  0  0  0  0  0
  -25.9110  -22.7020   20.8780 C   0  0  0  0  0  1  0  0  0  0  0  0
  -27.2710  -23.0180   21.5270 C   0  0  0  0  0  3  0  0  0  0  0  0
  1 44  1  0
  1  3  1  0
  1 88  1  0
  2  6  1  0
  3  5  1  0
  3  2  1  0
  4  2  2  0
  6  7  1  0
  8  7  1  0
  9 14  1  0
 10 11  1  0
 10  9  1  0
 12 11  1  0
 12 19  1  0
 12 13  1  0
 14  8  1  0
 14 13  1  0
 15  8  2  0
 16 17  2  0
 17 18  1  0
 17 36  1  0
 18 21  1  0
 19 16  1  0
 19 20  1  0
 20 18  2  0
 21 22  1  0
 22 23  2  0
 24 27  1  0
 24 23  1  0
 25 24  2  0
 26 25  1  0
 26 21  2  0
 27 28  1  0
 28 29  1  0
 29 30  2  0
 31 30  1  0
 31 35  1  0
 32 31  2  0
 33 28  2  0
 33 32  1  0
 34 33  1  0
 36 37  1  0
 37 40  1  0
 37 39  1  0
 38 36  2  0
 41 42  1  0
 41 16  1  0
 43 41  1  0
 44 45  2  0
 46 47  1  0
 46 45  1  0
 47 49  1  0
 48 59  2  0
 49 54  1  0
 50 58  1  0
 50 60  1  0
 51 57  1  0
 51 53  1  0
 52 58  1  0
 53 52  1  0
 54 53  2  0
 55 56  1  0
 55 49  2  0
 56 51  2  0
 57 50  1  0
 58 48  1  0
 60 62  2  0
 61 60  1  0
 63 61  1  0
 64 73  2  0
 64 69  1  0
 65 61  1  0
 65 69  1  0
 66 65  1  0
 67 68  1  0
 67 66  1  0
 68 64  1  0
 69 70  2  0
 70 71  1  0
 72 71  2  0
 73 72  1  0
 74 48  1  0
 74 75  1  0
 74 84  1  0
 75 78  1  0
 76 80  1  0
 76 75  1  0
 77 76  2  0
 80 79  1  0
 80 82  1  0
 82 83  1  0
 82 81  1  0
 84 87  1  1
 84 85  1  0
 86 84  1  0
 88 91  1  0
 90 91  1  0
 91 89  1  0
M  ISO  4   7 100   8 100  46 101  47 101
M  END
>  <TORSDO>  (33) 
F 24

>  <SCORE>  (33) 
-8.687

>  <name>  (33) 
33

>  <ligand_id>  (33) 
33

>  <original_smiles>  (33) 
[H]c1c([H])c([H])c2c(c1[H])C([H])([H])C([H])([H])C([H])([H])C2([H])N([H])C(=O)C1([H])N(C(=O)C([H])(N([H])C(=O)C([H])(N([H])C([H])([H])[H])C([H])([H])[H])C(C([H])([H])[H])(C([H])([H])[H])C([H])([H])[H])C([H])([H])c2c([H])c(OC([H])([H])C([H])([H])C([H])([H])C([H])(N([H])C(=O)C([H])([H])C([H])([H])C(=O)N3C([H])([H])C([H])([H])C([H])([H])C([H])(n4nc(-c5c([H])c([H])c(Oc6c([H])c([H])c(F)c([H])c6F)c([H])c5[H])c(C(=O)N([H])[H])c4N([H])[H])C3([H])[H])C([H])([H])C([H])(C([H])([H])[H])C([H])([H])[H])c([H])c([H])c2C1([H])[H]

>  <smiles>  (33) 
[H]c1c([H])c([H])c2c(c1[H])C([H])([H])C([H])([H])C([H])([H])C2([H])N([H])C(=O)C1([H])N(C(=O)C([H])(N([H])C(=O)C([H])(N([H])C([H])([H])[H])C([H])([H])[H])C(C([H])([H])[H])(C([H])([H])[H])C([H])([H])[H])C([H])([H])c2c([H])c(OC([H])([H])C([H])([H])C([H])([H])C([H])(N([H])C(=O)C([H])([H])C([H])([H])C(=O)N3C([H])([H])C([H])([H])C([H])([H])C([H])(n4nc(-c5c([H])c([H])c(Oc6c([H])c([H])c(F)c([H])c6F)c([H])c5[H])c(C(=O)N([H])[H])c4N([H])[H])C3([H])[H])C([H])([H])C([H])(C([H])([H])[H])C([H])([H])[H])c([H])c([H])c2C1([H])[H]

$$$$
34:0:0
     RDKit          3D

 94102  0  0  1  0  0  0  0  0999 V2000
  -30.1550  -19.3000   19.7660 C   0  0  0  0  0  0  0  0  0  0  0  0
  -29.3750  -20.4860   19.8780 N   0  0  0  0  0  0  0  0  0  0  0  0
  -31.3560  -19.4050   19.5220 O   0  0  0  0  0  0  0  0  0  0  0  0
  -28.4200  -20.2910   20.1520 H   0  0  0  0  0  0  0  0  0  0  0  0
  -28.7800  -18.0210   22.2820 C   0  0  0  0  0  2  0  0  0  0  0  0
  -28.3280  -17.8820   20.8050 C   0  0  0  0  0  2  0  0  0  0  0  0
  -29.7420  -16.9040   22.7530 C   0  0  0  0  0  2  0  0  0  0  0  0
  -30.2890  -16.3130   20.3580 C   0  0  0  0  0  3  0  0  0  0  0  0
  -29.5460  -17.7580   19.8460 C   0  0  0  0  0  3  0  0  0  0  0  0
  -30.9060  -16.6080   21.7620 C   0  0  0  0  0  3  0  0  0  0  0  0
  -30.8580  -14.9730   19.5370 C   0  0  0  0  0  0  0  0  0  0  0  0
  -30.4720  -12.7560   18.3360 C   0  0  0  0  0  2  0  0  0  0  0  0
  -29.3730  -12.9250   17.2590 C   0  0  0  0  0  2  0  0  0  0  0  0
  -27.9640  -12.7530   17.8660 C   0  0  0  0  0  2  0  0  0  0  0  0
  -27.7980  -13.5290   19.1990 C   0  0  0  0  0  3  0  0  0  0  0  0
  -28.9960  -13.2950   20.1430 C   0  0  0  0  0  2  0  0  0  0  0  0
  -30.2060  -13.7360   19.4310 N   0  0  0  0  0  0  0  0  0  0  0  0
  -31.9560  -15.0530   18.9760 O   0  0  0  0  0  0  0  0  0  0  0  0
  -25.5420  -14.1380   20.2510 C   0  0  0  0  0  0  0  0  0  0  0  0
  -24.5070  -13.3810   20.7220 C   0  0  0  0  0  0  0  0  0  0  0  0
  -24.9170  -12.0230   20.5710 C   0  0  0  0  0  0  0  0  0  0  0  0
  -26.5200  -13.2460   19.8440 N   0  0  0  0  0  0  0  0  0  0  0  0
  -26.1590  -11.9620   20.1000 N   0  0  0  0  0  0  0  0  0  0  0  0
  -24.1740  -10.7760   20.7950 C   0  0  0  0  0  0  0  0  0  0  0  0
  -24.6330   -9.7970   21.7020 C   0  0  0  0  0  3  0  0  0  0  0  0
  -23.8890   -8.6180   21.9200 C   0  0  0  0  0  3  0  0  0  0  0  0
  -22.6730   -8.4090   21.2270 C   0  0  0  0  0  0  0  0  0  0  0  0
  -22.2310   -9.3770   20.3100 C   0  0  0  0  0  3  0  0  0  0  0  0
  -22.9750  -10.5480   20.0920 C   0  0  0  0  0  3  0  0  0  0  0  0
  -21.8980   -7.2810   21.3530 O   0  0  0  0  0  0  0  0  0  0  0  0
  -21.8250   -6.5860   22.5330 C   0  0  0  0  0  0  0  0  0  0  0  0
  -21.4340   -7.2070   23.7390 C   0  0  0  0  0  3  0  0  0  0  0  0
  -21.3040   -6.4400   24.9150 C   0  0  0  0  0  3  0  0  0  0  0  0
  -21.5570   -5.0560   24.8850 C   0  0  0  0  0  0  0  0  0  0  0  0
  -21.9420   -4.4350   23.6830 C   0  0  0  0  0  3  0  0  0  0  0  0
  -22.0730   -5.1990   22.5110 C   0  0  0  0  0  0  0  0  0  0  0  0
  -22.4250   -4.5920   21.3510 F   0  0  0  0  0  0  0  0  0  0  0  0
  -21.4240   -4.3180   26.0120 F   0  0  0  0  0  0  0  0  0  0  0  0
  -23.1750  -13.8900   21.1890 C   0  0  0  0  0  0  0  0  0  0  0  0
  -22.5530  -13.1970   22.1370 N   0  0  0  0  0  0  0  0  0  0  0  0
  -22.7000  -14.9380   20.7510 O   0  0  0  0  0  0  0  0  0  0  0  0
  -22.9540  -12.3510   22.5130 H   0  0  0  0  0  0  0  0  0  0  0  0
  -21.6670  -13.5220   22.4980 H   0  0  0  0  0  0  0  0  0  0  0  0
  -25.7190  -15.5070   20.1110 N   0  0  0  0  0  0  0  0  0  0  0  0
  -24.9890  -16.1670   20.3570 H   0  0  0  0  0  0  0  0  0  0  0  0
  -26.5070  -15.9410   19.6550 H   0  0  0  0  0  0  0  0  0  0  0  0
  -31.8050  -15.5690   22.3160 N   0  0  0  0  0  4  0  0  0  0  0  0
  -31.3300  -14.7080   22.5200 H   0  0  0  0  0  0  0  0  0  0  0  0
  -32.2050  -15.8980   23.1790 H   0  0  0  0  0  0  0  0  0  0  0  0
  -32.5770  -15.3860   21.6970 H   0  0  0  0  0  0  0  0  0  0  0  0
  -29.5710  -21.9820   19.4160 C   0  0  0  0  0  2  0  0  0  0  0  0
  -28.8660  -23.3500   20.0990 C   0  0  0  0  0  2  0  0  0  0  0  0
  -28.6620  -24.8190   19.3060 C   0  0  0  0  0  2  0  0  0  0  0  0
  -28.5090  -26.2480   19.8860 O   0  0  0  0  0  0  0  0  0  0  0  0
  -24.5700  -31.5890   23.0000 C   0  0  0  0  0  0  0  0  0  0  0  0
  -27.3780  -27.1300   19.8030 C   0  0  0  0  0  0  0  0  0  0  0  0
  -23.4420  -30.2170   21.2880 C   0  0  0  0  0  3  0  0  0  0  0  0
  -24.9660  -28.7560   19.8190 C   0  0  0  0  0  0  0  0  0  0  0  0
  -25.9830  -30.5910   21.1670 C   0  0  0  0  0  2  0  0  0  0  0  0
  -26.1160  -29.2320   20.4610 C   0  0  0  0  0  0  0  0  0  0  0  0
  -27.3170  -28.4330   20.4390 C   0  0  0  0  0  3  0  0  0  0  0  0
  -26.1960  -26.7430   19.1340 C   0  0  0  0  0  3  0  0  0  0  0  0
  -25.0170  -27.5240   19.1460 C   0  0  0  0  0  3  0  0  0  0  0  0
  -23.7020  -29.6000   19.8880 C   0  0  0  0  0  2  0  0  0  0  0  0
  -24.6830  -30.8180   21.8750 N   0  0  0  0  0  0  0  0  0  0  0  0
  -23.4680  -31.8110   23.5250 O   0  0  0  0  0  0  0  0  0  0  0  0
  -22.7920  -29.1480   22.2020 C   0  0  0  0  0  0  0  0  0  0  0  0
  -21.4680  -28.9530   22.0700 N   0  0  0  0  0  0  0  0  0  0  0  0
  -23.4800  -28.4980   22.9940 O   0  0  0  0  0  0  0  0  0  0  0  0
  -20.9670  -29.5330   21.4100 H   0  0  0  0  0  0  0  0  0  0  0  0
  -18.1130  -27.6700   22.5320 C   0  0  0  0  0  0  0  0  0  0  0  0
  -20.6690  -27.9610   22.7940 C   0  0  0  0  0  3  0  0  0  0  0  0
  -20.7890  -26.5640   22.1410 C   0  0  0  0  0  2  0  0  0  0  0  0
  -19.6840  -26.2790   21.1190 C   0  0  0  0  0  2  0  0  0  0  0  0
  -18.3060  -26.3640   21.7810 C   0  0  0  0  0  2  0  0  0  0  0  0
  -19.2220  -28.4280   22.9950 C   0  0  0  0  0  0  0  0  0  0  0  0
  -18.9860  -29.6500   23.6600 C   0  0  0  0  0  3  0  0  0  0  0  0
  -17.6740  -30.1160   23.8680 C   0  0  0  0  0  3  0  0  0  0  0  0
  -16.5790  -29.3550   23.4210 C   0  0  0  0  0  3  0  0  0  0  0  0
  -16.8000  -28.1350   22.7590 C   0  0  0  0  0  3  0  0  0  0  0  0
  -25.8170  -32.2450   23.6700 C   0  0  0  0  0  3  0  0  0  0  0  0
  -25.4320  -33.5950   24.1070 N   0  0  0  0  0  0  0  0  0  0  0  0
  -25.7050  -34.7240   23.4390 C   0  0  0  0  0  0  0  0  0  0  0  0
  -26.3750  -34.7390   22.4030 O   0  0  0  0  0  0  0  0  0  0  0  0
  -24.8330  -33.6520   24.9180 H   0  0  0  0  0  0  0  0  0  0  0  0
  -23.8760  -36.4430   23.2470 C   0  0  0  0  0  1  0  0  0  0  0  0
  -25.1490  -36.0440   24.0100 C   0  0  0  0  0  3  0  0  0  0  0  0
  -27.2430  -36.9830   24.8840 C   0  0  0  0  0  1  0  0  0  0  0  0
  -26.1200  -37.1600   23.9680 N   0  0  0  0  0  0  0  0  0  0  0  0
  -25.6670  -38.0410   24.1900 H   0  0  0  0  0  0  0  0  0  0  0  0
  -26.3770  -31.4110   24.8890 C   0  0  1  0  0  0  0  0  0  0  0  0
  -25.3020  -31.0390   25.9370 C   0  0  0  0  0  1  0  0  0  0  0  0
  -27.0330  -30.0990   24.4020 C   0  0  0  0  0  1  0  0  0  0  0  0
  -27.4840  -32.2160   25.6100 C   0  0  0  0  0  1  0  0  0  0  0  0
  1  2  1  0
  2  4  1  0
  3  1  2  0
  5  7  1  0
  6  5  1  0
  8 11  1  0
  8 10  1  0
  9  1  1  0
  9  8  1  0
  9  6  1  0
 10 47  1  0
 10  7  1  0
 12 17  1  0
 13 14  1  0
 13 12  1  0
 15 14  1  0
 15 22  1  0
 15 16  1  0
 17 11  1  0
 17 16  1  0
 18 11  2  0
 19 20  2  0
 20 39  1  0
 21 20  1  0
 21 24  1  0
 22 23  1  0
 22 19  1  0
 23 21  2  0
 24 25  1  0
 25 26  2  0
 27 30  1  0
 27 26  1  0
 28 27  2  0
 29 28  1  0
 29 24  2  0
 30 31  1  0
 31 32  1  0
 32 33  2  0
 34 33  1  0
 34 38  1  0
 35 34  2  0
 36 31  2  0
 36 35  1  0
 37 36  1  0
 39 40  1  0
 40 43  1  0
 40 42  1  0
 41 39  2  0
 44 19  1  0
 44 45  1  0
 46 44  1  0
 47 48  1  0
 47 49  1  0
 50 47  1  0
 51  2  1  0
 51 52  1  0
 53 54  1  0
 53 52  1  0
 55 66  2  0
 56 54  1  0
 56 61  1  0
 57 65  1  0
 57 67  1  0
 58 64  1  0
 58 60  1  0
 59 65  1  0
 60 59  1  0
 61 60  2  0
 62 63  1  0
 62 56  2  0
 63 58  2  0
 64 57  1  0
 65 55  1  0
 67 69  2  0
 68 67  1  0
 70 68  1  0
 71 80  2  0
 71 76  1  0
 72 68  1  0
 72 76  1  0
 73 72  1  0
 74 75  1  0
 74 73  1  0
 75 71  1  0
 76 77  2  0
 77 78  1  0
 79 78  2  0
 80 79  1  0
 81 55  1  0
 81 82  1  0
 81 91  1  0
 82 85  1  0
 83 87  1  0
 83 82  1  0
 84 83  2  0
 87 86  1  0
 89 87  1  0
 89 90  1  0
 89 88  1  0
 91 94  1  1
 91 92  1  0
 93 91  1  0
M  ISO  4   8 100  11 100  53 101  54 101
M  END
>  <TORSDO>  (34) 
F 21

>  <SCORE>  (34) 
-7.042

>  <name>  (34) 
34

>  <ligand_id>  (34) 
34

>  <original_smiles>  (34) 
[H]c1c([H])c([H])c2c(c1[H])C([H])([H])C([H])([H])C([H])([H])C2([H])N([H])C(=O)C1([H])N(C(=O)C([H])(N([H])C(=O)C([H])(N([H])C([H])([H])[H])C([H])([H])[H])C(C([H])([H])[H])(C([H])([H])[H])C([H])([H])[H])C([H])([H])c2c([H])c(OC([H])([H])C([H])([H])C([H])([H])N([H])C(=O)C3([H])C([H])([H])C([H])([H])C([H])([H])C([H])([N+]([H])([H])[H])C3([H])C(=O)N3C([H])([H])C([H])([H])C([H])([H])C([H])(n4nc(-c5c([H])c([H])c(Oc6c([H])c([H])c(F)c([H])c6F)c([H])c5[H])c(C(=O)N([H])[H])c4N([H])[H])C3([H])[H])c([H])c([H])c2C1([H])[H]

>  <smiles>  (34) 
[H]c1c([H])c([H])c2c(c1[H])C([H])([H])C([H])([H])C([H])([H])C2([H])N([H])C(=O)C1([H])N(C(=O)C([H])(N([H])C(=O)C([H])(N([H])C([H])([H])[H])C([H])([H])[H])C(C([H])([H])[H])(C([H])([H])[H])C([H])([H])[H])C([H])([H])c2c([H])c(OC([H])([H])C([H])([H])C([H])([H])N([H])C(=O)C3([H])C([H])([H])C([H])([H])C([H])([H])C([H])([N+]([H])([H])[H])C3([H])C(=O)N3C([H])([H])C([H])([H])C([H])([H])C([H])(n4nc(-c5c([H])c([H])c(Oc6c([H])c([H])c(F)c([H])c6F)c([H])c5[H])c(C(=O)N([H])[H])c4N([H])[H])C3([H])[H])c([H])c([H])c2C1([H])[H]

$$$$
35:0:0
     RDKit          3D

 98107  0  0  1  0  0  0  0  0999 V2000
  -29.9260  -18.6450   18.1070 C   0  0  0  0  0  3  0  0  0  0  0  0
  -30.0950  -17.4280   18.8120 C   0  0  0  0  0  3  0  0  0  0  0  0
  -29.2090  -18.5130   20.7950 C   0  0  0  0  0  3  0  0  0  0  0  0
  -29.3720  -19.7880   18.7290 C   0  0  0  0  0  0  0  0  0  0  0  0
  -29.0420  -19.7650   20.0930 C   0  0  0  0  0  0  0  0  0  0  0  0
  -29.7080  -17.3070   20.1680 C   0  0  0  0  0  0  0  0  0  0  0  0
  -29.0690  -21.0570   17.9440 C   0  0  0  0  0  2  0  0  0  0  0  0
  -28.4250  -21.0750   20.7040 C   0  0  0  0  0  2  0  0  0  0  0  0
  -29.4920  -22.3290   18.7050 C   0  0  0  0  0  2  0  0  0  0  0  0
  -28.8940  -22.5200   20.1430 C   0  0  1  0  0  0  0  0  0  0  0  0
  -29.7060  -15.9010   20.9100 C   0  0  0  0  0  2  0  0  0  0  0  0
  -30.4540  -14.6070   20.3280 C   0  0  0  0  0  0  0  0  0  0  0  0
  -30.2780  -12.3420   19.2890 C   0  0  0  0  0  2  0  0  0  0  0  0
  -29.3000  -12.4340   18.0980 C   0  0  0  0  0  2  0  0  0  0  0  0
  -27.8440  -12.2320   18.5680 C   0  0  0  0  0  2  0  0  0  0  0  0
  -27.4970  -13.1010   19.8050 C   0  0  0  0  0  3  0  0  0  0  0  0
  -28.5870  -12.9800   20.8910 C   0  0  0  0  0  2  0  0  0  0  0  0
  -29.8670  -13.3640   20.2780 N   0  0  0  0  0  0  0  0  0  0  0  0
  -31.5880  -14.7570   19.8590 O   0  0  0  0  0  0  0  0  0  0  0  0
  -25.1260  -13.6610   20.6060 C   0  0  0  0  0  0  0  0  0  0  0  0
  -24.0730  -12.8710   20.9840 C   0  0  0  0  0  0  0  0  0  0  0  0
  -24.5430  -11.5250   20.9120 C   0  0  0  0  0  0  0  0  0  0  0  0
  -26.1670  -12.7930   20.3230 N   0  0  0  0  0  0  0  0  0  0  0  0
  -25.8250  -11.5040   20.5690 N   0  0  0  0  0  0  0  0  0  0  0  0
  -23.8290  -10.2560   21.0950 C   0  0  0  0  0  0  0  0  0  0  0  0
  -24.2790   -9.2830   22.0160 C   0  0  0  0  0  3  0  0  0  0  0  0
  -23.5630   -8.0780   22.1880 C   0  0  0  0  0  3  0  0  0  0  0  0
  -22.3850   -7.8380   21.4410 C   0  0  0  0  0  0  0  0  0  0  0  0
  -21.9570   -8.8010   20.5090 C   0  0  0  0  0  3  0  0  0  0  0  0
  -22.6730   -9.9980   20.3350 C   0  0  0  0  0  3  0  0  0  0  0  0
  -21.6380   -6.6900   21.5260 O   0  0  0  0  0  0  0  0  0  0  0  0
  -21.6080   -5.9330   22.6700 C   0  0  0  0  0  0  0  0  0  0  0  0
  -21.1290   -6.4520   23.8940 C   0  0  0  0  0  3  0  0  0  0  0  0
  -21.0480   -5.6190   25.0280 C   0  0  0  0  0  3  0  0  0  0  0  0
  -21.4400   -4.2680   24.9390 C   0  0  0  0  0  0  0  0  0  0  0  0
  -21.9130   -3.7510   23.7210 C   0  0  0  0  0  3  0  0  0  0  0  0
  -21.9950   -4.5800   22.5890 C   0  0  0  0  0  0  0  0  0  0  0  0
  -22.4300   -4.0700   21.4120 F   0  0  0  0  0  0  0  0  0  0  0  0
  -21.3570   -3.4660   26.0270 F   0  0  0  0  0  0  0  0  0  0  0  0
  -22.6810  -13.3340   21.3020 C   0  0  0  0  0  0  0  0  0  0  0  0
  -21.9800  -12.6150   22.1720 N   0  0  0  0  0  0  0  0  0  0  0  0
  -22.2210  -14.3670   20.8170 O   0  0  0  0  0  0  0  0  0  0  0  0
  -22.3650  -11.7800   22.5880 H   0  0  0  0  0  0  0  0  0  0  0  0
  -21.0480  -12.9090   22.4270 H   0  0  0  0  0  0  0  0  0  0  0  0
  -25.2750  -15.0370   20.4600 N   0  0  0  0  0  0  0  0  0  0  0  0
  -24.5130  -15.6870   20.6220 H   0  0  0  0  0  0  0  0  0  0  0  0
  -26.1200  -15.4940   20.1400 H   0  0  0  0  0  0  0  0  0  0  0  0
  -27.7490  -23.6620   20.1070 C   0  0  0  0  0  2  0  0  0  0  0  0
  -28.0470  -25.0700   19.4010 C   0  0  0  0  0  2  0  0  0  0  0  0
  -27.9370  -26.3500   20.1240 O   0  0  0  0  0  0  0  0  0  0  0  0
  -24.4900  -31.8630   23.1580 C   0  0  0  0  0  0  0  0  0  0  0  0
  -26.8180  -27.1880   20.0650 C   0  0  0  0  0  0  0  0  0  0  0  0
  -23.1740  -30.5030   21.5650 C   0  0  0  0  0  3  0  0  0  0  0  0
  -24.5130  -28.8790   20.1090 C   0  0  0  0  0  0  0  0  0  0  0  0
  -25.7140  -30.7200   21.2980 C   0  0  0  0  0  2  0  0  0  0  0  0
  -25.7150  -29.3340   20.6640 C   0  0  0  0  0  0  0  0  0  0  0  0
  -26.8650  -28.4960   20.6360 C   0  0  0  0  0  3  0  0  0  0  0  0
  -25.5930  -26.7730   19.4960 C   0  0  0  0  0  3  0  0  0  0  0  0
  -24.4540  -27.6040   19.5170 C   0  0  0  0  0  3  0  0  0  0  0  0
  -23.3150  -29.8040   20.1860 C   0  0  0  0  0  2  0  0  0  0  0  0
  -24.4810  -31.0460   22.0640 N   0  0  0  0  0  0  0  0  0  0  0  0
  -23.4400  -32.1930   23.7270 O   0  0  0  0  0  0  0  0  0  0  0  0
  -22.5020  -29.5250   22.5580 C   0  0  0  0  0  0  0  0  0  0  0  0
  -21.1750  -29.3520   22.4280 N   0  0  0  0  0  0  0  0  0  0  0  0
  -23.1720  -28.9260   23.4030 O   0  0  0  0  0  0  0  0  0  0  0  0
  -20.6980  -29.8820   21.7120 H   0  0  0  0  0  0  0  0  0  0  0  0
  -17.8010  -28.1400   22.8930 C   0  0  0  0  0  0  0  0  0  0  0  0
  -20.3470  -28.4480   23.2240 C   0  0  0  0  0  3  0  0  0  0  0  0
  -20.4830  -26.9880   22.7300 C   0  0  0  0  0  2  0  0  0  0  0  0
  -19.4160  -26.5970   21.7020 C   0  0  0  0  0  2  0  0  0  0  0  0
  -18.0120  -26.7600   22.2950 C   0  0  0  0  0  2  0  0  0  0  0  0
  -18.8970  -28.9400   23.3140 C   0  0  0  0  0  0  0  0  0  0  0  0
  -18.6450  -30.2300   23.8290 C   0  0  0  0  0  3  0  0  0  0  0  0
  -17.3300  -30.7230   23.9250 C   0  0  0  0  0  3  0  0  0  0  0  0
  -16.2490  -29.9220   23.5210 C   0  0  0  0  0  3  0  0  0  0  0  0
  -16.4840  -28.6320   23.0140 C   0  0  0  0  0  3  0  0  0  0  0  0
  -25.8220  -32.4420   23.7340 C   0  0  0  0  0  3  0  0  0  0  0  0
  -26.3850  -31.6150   24.9560 C   0  0  1  0  0  0  0  0  0  0  0  0
  -25.3430  -31.3630   26.0700 C   0  0  0  0  0  1  0  0  0  0  0  0
  -26.9110  -30.2370   24.4880 C   0  0  0  0  0  1  0  0  0  0  0  0
  -27.5890  -32.3570   25.5850 C   0  0  0  0  0  1  0  0  0  0  0  0
  -25.5700  -33.8340   24.1270 N   0  0  0  0  0  0  0  0  0  0  0  0
  -25.8790  -34.9040   23.3810 C   0  0  0  0  0  0  0  0  0  0  0  0
  -26.4800  -34.8190   22.3050 O   0  0  0  0  0  0  0  0  0  0  0  0
  -25.0420  -33.9790   24.9750 H   0  0  0  0  0  0  0  0  0  0  0  0
  -24.1810  -36.7450   23.1780 C   0  0  0  0  0  1  0  0  0  0  0  0
  -25.4530  -36.2870   23.9090 C   0  0  0  0  0  3  0  0  0  0  0  0
  -27.6480  -37.0940   24.6550 C   0  0  0  0  0  1  0  0  0  0  0  0
  -26.5030  -37.3200   23.7760 N   0  0  0  0  0  0  0  0  0  0  0  0
  -26.1270  -38.2420   23.9810 H   0  0  0  0  0  0  0  0  0  0  0  0
  -30.0450  -23.0330   21.0700 C   0  0  0  0  0  2  0  0  0  0  0  0
  -29.6830  -23.4170   22.5440 C   0  0  0  0  0  3  0  0  0  0  0  0
  -29.7840  -24.8810   22.7730 N   0  0  0  0  0  4  0  0  0  0  0  0
  -30.7400  -25.1940   22.7430 H   0  0  0  0  0  0  0  0  0  0  0  0
  -29.4130  -25.1190   23.6790 H   0  0  0  0  0  0  0  0  0  0  0  0
  -29.2590  -25.4050   22.0930 H   0  0  0  0  0  0  0  0  0  0  0  0
  -30.2680  -21.1330   23.6540 C   0  0  0  0  0  1  0  0  0  0  0  0
  -30.5520  -22.6490   23.5730 C   0  0  0  0  0  2  0  0  0  0  0  0
  1  4  2  0
  1  2  1  0
  2  6  2  0
  4  5  1  0
  5  8  1  0
  5  3  2  0
  6  3  1  0
  6 11  1  0
  7  9  1  0
  7  4  1  0
  9 10  1  0
 10 48  1  6
 10  8  1  0
 10 91  1  0
 12 11  1  0
 13 18  1  0
 14 15  1  0
 14 13  1  0
 16 15  1  0
 16 23  1  0
 16 17  1  0
 18 12  1  0
 18 17  1  0
 19 12  2  0
 20 21  2  0
 21 40  1  0
 22 21  1  0
 22 25  1  0
 23 24  1  0
 23 20  1  0
 24 22  2  0
 25 26  1  0
 26 27  2  0
 28 31  1  0
 28 27  1  0
 29 28  2  0
 30 29  1  0
 30 25  2  0
 31 32  1  0
 32 33  1  0
 33 34  2  0
 35 34  1  0
 35 39  1  0
 36 35  2  0
 37 32  2  0
 37 36  1  0
 38 37  1  0
 40 41  1  0
 41 44  1  0
 41 43  1  0
 42 40  2  0
 45 20  1  0
 45 46  1  0
 47 45  1  0
 49 48  1  0
 49 50  1  0
 51 62  2  0
 52 50  1  0
 52 57  1  0
 53 61  1  0
 53 63  1  0
 54 60  1  0
 54 56  1  0
 55 61  1  0
 56 55  1  0
 57 56  2  0
 58 59  1  0
 58 52  2  0
 59 54  2  0
 60 53  1  0
 61 51  1  0
 63 65  2  0
 64 63  1  0
 66 64  1  0
 67 76  2  0
 67 72  1  0
 68 64  1  0
 68 72  1  0
 69 68  1  0
 70 71  1  0
 70 69  1  0
 71 67  1  0
 72 73  2  0
 73 74  1  0
 75 74  2  0
 76 75  1  0
 77 51  1  0
 77 82  1  0
 77 78  1  0
 78 81  1  1
 78 79  1  0
 80 78  1  0
 82 85  1  0
 83 87  1  0
 83 82  1  0
 84 83  2  0
 87 86  1  0
 89 87  1  0
 89 90  1  0
 89 88  1  0
 92 91  1  0
 92 93  1  0
 92 98  1  0
 93 95  1  0
 94 93  1  0
 96 93  1  0
 98 97  1  0
M  ISO  4  11 100  12 100  49 101  50 101
M  END
>  <TORSDO>  (35) 
F 23

>  <SCORE>  (35) 
-13.133

>  <name>  (35) 
35

>  <ligand_id>  (35) 
35

>  <original_smiles>  (35) 
[H]c1c([H])c([H])c2c(c1[H])C([H])([H])C([H])([H])C([H])([H])C2([H])N([H])C(=O)C1([H])N(C(=O)C([H])(N([H])C(=O)C([H])(N([H])C([H])([H])[H])C([H])([H])[H])C(C([H])([H])[H])(C([H])([H])[H])C([H])([H])[H])C([H])([H])c2c([H])c(OC([H])([H])C([H])([H])C3(C([H])([H])C([H])(C([H])([H])C([H])([H])[H])[N+]([H])([H])[H])C([H])([H])c4c([H])c(C([H])([H])C(=O)N5C([H])([H])C([H])([H])C([H])([H])C([H])(n6nc(-c7c([H])c([H])c(Oc8c([H])c([H])c(F)c([H])c8F)c([H])c7[H])c(C(=O)N([H])[H])c6N([H])[H])C5([H])[H])c([H])c([H])c4C([H])([H])C3([H])[H])c([H])c([H])c2C1([H])[H]

>  <smiles>  (35) 
[H]c1c([H])c([H])c2c(c1[H])C([H])([H])C([H])([H])C([H])([H])C2([H])N([H])C(=O)C1([H])N(C(=O)C([H])(N([H])C(=O)C([H])(N([H])C([H])([H])[H])C([H])([H])[H])C(C([H])([H])[H])(C([H])([H])[H])C([H])([H])[H])C([H])([H])c2c([H])c(OC([H])([H])C([H])([H])C3(C([H])([H])C([H])(C([H])([H])C([H])([H])[H])[N+]([H])([H])[H])C([H])([H])c4c([H])c(C([H])([H])C(=O)N5C([H])([H])C([H])([H])C([H])([H])C([H])(n6nc(-c7c([H])c([H])c(Oc8c([H])c([H])c(F)c([H])c8F)c([H])c7[H])c(C(=O)N([H])[H])c6N([H])[H])C5([H])[H])c([H])c([H])c4C([H])([H])C3([H])[H])c([H])c([H])c2C1([H])[H]

$$$$
36:0:0
     RDKit          3D

 93100  0  0  1  0  0  0  0  0999 V2000
  -27.6580  -21.2660   19.5010 C   0  0  0  0  0  3  0  0  0  0  0  0
  -27.7240  -19.9670   20.2160 N   0  0  0  0  0  4  0  0  0  0  0  0
  -27.9800  -20.1640   21.1690 H   0  0  0  0  0  0  0  0  0  0  0  0
  -26.8080  -19.5470   20.2300 H   0  0  0  0  0  0  0  0  0  0  0  0
  -28.7080  -18.9930   19.6920 C   0  0  0  0  0  2  0  0  0  0  0  0
  -28.9910  -17.8480   20.6870 C   0  0  0  0  0  2  0  0  0  0  0  0
  -29.9470  -16.7980   20.0940 C   0  0  0  0  0  2  0  0  0  0  0  0
  -30.4010  -15.7140   21.0920 C   0  0  0  0  0  2  0  0  0  0  0  0
  -30.9890  -14.5030   20.3450 C   0  0  0  0  0  0  0  0  0  0  0  0
  -30.6650  -12.3050   19.2650 C   0  0  0  0  0  2  0  0  0  0  0  0
  -29.7060  -12.4540   18.0650 C   0  0  0  0  0  2  0  0  0  0  0  0
  -28.2340  -12.3520   18.5110 C   0  0  0  0  0  2  0  0  0  0  0  0
  -27.9180  -13.2540   19.7340 C   0  0  0  0  0  3  0  0  0  0  0  0
  -28.9810  -13.0500   20.8360 C   0  0  0  0  0  2  0  0  0  0  0  0
  -30.3050  -13.3300   20.2560 N   0  0  0  0  0  0  0  0  0  0  0  0
  -32.0610  -14.6830   19.7570 O   0  0  0  0  0  0  0  0  0  0  0  0
  -25.5540  -13.9290   20.5050 C   0  0  0  0  0  0  0  0  0  0  0  0
  -24.4710  -13.1850   20.8920 C   0  0  0  0  0  0  0  0  0  0  0  0
  -24.8880  -11.8200   20.8320 C   0  0  0  0  0  0  0  0  0  0  0  0
  -26.5660  -13.0180   20.2400 N   0  0  0  0  0  0  0  0  0  0  0  0
  -26.1670  -11.7450   20.4910 N   0  0  0  0  0  0  0  0  0  0  0  0
  -24.1270  -10.5790   21.0250 C   0  0  0  0  0  0  0  0  0  0  0  0
  -24.5470   -9.5890   21.9390 C   0  0  0  0  0  3  0  0  0  0  0  0
  -23.7910   -8.4110   22.1190 C   0  0  0  0  0  3  0  0  0  0  0  0
  -22.5960   -8.2170   21.3840 C   0  0  0  0  0  0  0  0  0  0  0  0
  -22.1940   -9.1940   20.4570 C   0  0  0  0  0  3  0  0  0  0  0  0
  -22.9520  -10.3640   20.2750 C   0  0  0  0  0  3  0  0  0  0  0  0
  -21.8090   -7.0950   21.4750 O   0  0  0  0  0  0  0  0  0  0  0  0
  -21.7510   -6.3500   22.6260 C   0  0  0  0  0  0  0  0  0  0  0  0
  -21.3430   -6.9090   23.8560 C   0  0  0  0  0  3  0  0  0  0  0  0
  -21.2310   -6.0900   24.9980 C   0  0  0  0  0  3  0  0  0  0  0  0
  -21.5160   -4.7140   24.9090 C   0  0  0  0  0  0  0  0  0  0  0  0
  -21.9120   -4.1550   23.6820 C   0  0  0  0  0  3  0  0  0  0  0  0
  -22.0260   -4.9710   22.5420 C   0  0  0  0  0  0  0  0  0  0  0  0
  -22.3910   -4.4230   21.3580 F   0  0  0  0  0  0  0  0  0  0  0  0
  -21.3990   -3.9240   26.0030 F   0  0  0  0  0  0  0  0  0  0  0  0
  -23.0960  -13.7030   21.2080 C   0  0  0  0  0  0  0  0  0  0  0  0
  -22.3710  -13.0260   22.0880 N   0  0  0  0  0  0  0  0  0  0  0  0
  -22.6770  -14.7450   20.7050 O   0  0  0  0  0  0  0  0  0  0  0  0
  -22.7250  -12.1810   22.5170 H   0  0  0  0  0  0  0  0  0  0  0  0
  -21.4490  -13.3560   22.3370 H   0  0  0  0  0  0  0  0  0  0  0  0
  -25.7550  -15.2960   20.3400 N   0  0  0  0  0  0  0  0  0  0  0  0
  -24.9950  -15.9590   20.4390 H   0  0  0  0  0  0  0  0  0  0  0  0
  -26.6030  -15.7070   19.9720 H   0  0  0  0  0  0  0  0  0  0  0  0
  -27.0400  -22.3450   20.4230 C   0  0  0  0  0  2  0  0  0  0  0  0
  -26.9580  -23.7590   19.8110 C   0  0  0  0  0  2  0  0  0  0  0  0
  -28.3220  -24.4730   19.6930 C   0  0  0  0  0  2  0  0  0  0  0  0
  -28.5730  -25.4990   20.8190 C   0  0  0  0  0  2  0  0  0  0  0  0
  -28.5670  -26.8600   20.3830 O   0  0  0  0  0  0  0  0  0  0  0  0
  -24.6270  -31.9870   23.3620 C   0  0  0  0  0  0  0  0  0  0  0  0
  -27.3660  -27.5300   20.4020 C   0  0  0  0  0  0  0  0  0  0  0  0
  -23.4640  -30.5510   21.7180 C   0  0  0  0  0  3  0  0  0  0  0  0
  -24.9540  -29.0000   20.3570 C   0  0  0  0  0  0  0  0  0  0  0  0
  -25.9890  -30.9270   21.5640 C   0  0  0  0  0  2  0  0  0  0  0  0
  -26.0950  -29.5470   20.9560 C   0  0  0  0  0  0  0  0  0  0  0  0
  -27.3040  -28.8190   20.9760 C   0  0  0  0  0  3  0  0  0  0  0  0
  -26.2060  -26.9950   19.8020 C   0  0  0  0  0  3  0  0  0  0  0  0
  -25.0010  -27.7200   19.7810 C   0  0  0  0  0  3  0  0  0  0  0  0
  -23.7060  -29.8490   20.3570 C   0  0  0  0  0  2  0  0  0  0  0  0
  -24.7100  -31.1710   22.2740 N   0  0  0  0  0  0  0  0  0  0  0  0
  -23.5340  -32.2600   23.8760 O   0  0  0  0  0  0  0  0  0  0  0  0
  -22.8020  -29.5390   22.6810 C   0  0  0  0  0  0  0  0  0  0  0  0
  -21.4840  -29.3370   22.5200 N   0  0  0  0  0  0  0  0  0  0  0  0
  -23.4700  -28.9390   23.5270 O   0  0  0  0  0  0  0  0  0  0  0  0
  -21.0060  -29.8740   21.8090 H   0  0  0  0  0  0  0  0  0  0  0  0
  -18.1090  -28.1280   22.9590 C   0  0  0  0  0  0  0  0  0  0  0  0
  -20.6590  -28.4040   23.2840 C   0  0  0  0  0  3  0  0  0  0  0  0
  -20.7810  -26.9660   22.7270 C   0  0  0  0  0  2  0  0  0  0  0  0
  -19.7030  -26.6240   21.6950 C   0  0  0  0  0  2  0  0  0  0  0  0
  -18.3070  -26.7700   22.3060 C   0  0  0  0  0  2  0  0  0  0  0  0
  -19.2130  -28.9010   23.4040 C   0  0  0  0  0  0  0  0  0  0  0  0
  -18.9760  -30.1720   23.9710 C   0  0  0  0  0  3  0  0  0  0  0  0
  -17.6660  -30.6680   24.1020 C   0  0  0  0  0  3  0  0  0  0  0  0
  -16.5750  -29.8930   23.6750 C   0  0  0  0  0  3  0  0  0  0  0  0
  -16.7970  -28.6250   23.1080 C   0  0  0  0  0  3  0  0  0  0  0  0
  -25.8970  -32.6340   23.9990 C   0  0  0  0  0  3  0  0  0  0  0  0
  -25.5830  -34.0410   24.2770 N   0  0  0  0  0  0  0  0  0  0  0  0
  -25.9200  -35.0670   23.4840 C   0  0  0  0  0  0  0  0  0  0  0  0
  -26.6000  -34.9290   22.4620 O   0  0  0  0  0  0  0  0  0  0  0  0
  -24.9810  -34.2250   25.0670 H   0  0  0  0  0  0  0  0  0  0  0  0
  -24.1790  -36.8310   23.0610 C   0  0  0  0  0  1  0  0  0  0  0  0
  -25.4230  -36.4680   23.8870 C   0  0  0  0  0  3  0  0  0  0  0  0
  -27.5510  -37.4010   24.6800 C   0  0  0  0  0  1  0  0  0  0  0  0
  -26.4490  -37.5220   23.7290 N   0  0  0  0  0  0  0  0  0  0  0  0
  -26.0360  -38.4450   23.8340 H   0  0  0  0  0  0  0  0  0  0  0  0
  -26.3810  -31.8990   25.3080 C   0  0  1  0  0  0  0  0  0  0  0  0
  -25.2540  -31.6610   26.3410 C   0  0  0  0  0  1  0  0  0  0  0  0
  -27.0040  -30.5250   24.9640 C   0  0  0  0  0  1  0  0  0  0  0  0
  -27.4910  -32.7280   25.9960 C   0  0  0  0  0  1  0  0  0  0  0  0
  -26.9710  -21.1240   18.1080 C   0  0  0  0  0  2  0  0  0  0  0  0
  -24.8240  -22.4940   17.6810 C   0  0  0  0  0  1  0  0  0  0  0  0
  -24.9100  -20.0530   17.0840 C   0  0  0  0  0  1  0  0  0  0  0  0
  -25.4190  -21.1230   18.0670 C   0  0  0  0  0  3  0  0  0  0  0  0
  1 90  1  0
  1  2  1  0
  1 45  1  0
  2  4  1  0
  2  3  1  0
  5  2  1  0
  5  6  1  0
  7  6  1  0
  7  8  1  0
  9  8  1  0
 10 15  1  0
 11 12  1  0
 11 10  1  0
 13 12  1  0
 13 20  1  0
 13 14  1  0
 15  9  1  0
 15 14  1  0
 16  9  2  0
 17 18  2  0
 18 37  1  0
 19 18  1  0
 19 22  1  0
 20 21  1  0
 20 17  1  0
 21 19  2  0
 22 23  1  0
 23 24  2  0
 25 28  1  0
 25 24  1  0
 26 25  2  0
 27 26  1  0
 27 22  2  0
 28 29  1  0
 29 30  1  0
 30 31  2  0
 32 31  1  0
 32 36  1  0
 33 32  2  0
 34 29  2  0
 34 33  1  0
 35 34  1  0
 37 38  1  0
 38 41  1  0
 38 40  1  0
 39 37  2  0
 42 43  1  0
 42 17  1  0
 44 42  1  0
 46 45  1  0
 47 46  1  0
 47 48  1  0
 49 51  1  0
 49 48  1  0
 50 61  2  0
 51 56  1  0
 52 60  1  0
 52 62  1  0
 53 55  1  0
 54 60  1  0
 55 56  2  0
 55 54  1  0
 57 51  2  0
 58 57  1  0
 58 53  2  0
 59 53  1  0
 59 52  1  0
 60 50  1  0
 62 64  2  0
 63 62  1  0
 65 63  1  0
 66 75  2  0
 66 71  1  0
 67 63  1  0
 67 71  1  0
 68 67  1  0
 69 70  1  0
 69 68  1  0
 70 66  1  0
 71 72  2  0
 72 73  1  0
 74 73  2  0
 75 74  1  0
 76 50  1  0
 76 77  1  0
 76 86  1  0
 77 80  1  0
 78 82  1  0
 78 77  1  0
 79 78  2  0
 82 81  1  0
 84 85  1  0
 84 82  1  0
 84 83  1  0
 86 89  1  1
 86 87  1  0
 88 86  1  0
 91 93  1  0
 92 93  1  0
 93 90  1  0
M  ISO  4   8 100   9 100  48 101  49 101
M  END
>  <TORSDO>  (36) 
F 27

>  <SCORE>  (36) 
-11.475

>  <name>  (36) 
36

>  <ligand_id>  (36) 
36

>  <original_smiles>  (36) 
[H]c1c([H])c([H])c2c(c1[H])C([H])([H])C([H])([H])C([H])([H])C2([H])N([H])C(=O)C1([H])N(C(=O)C([H])(N([H])C(=O)C([H])(N([H])C([H])([H])[H])C([H])([H])[H])C(C([H])([H])[H])(C([H])([H])[H])C([H])([H])[H])C([H])([H])c2c([H])c(OC([H])([H])C([H])([H])C([H])([H])C([H])([H])C([H])(C([H])([H])C([H])(C([H])([H])[H])C([H])([H])[H])[N+]([H])([H])C([H])([H])C([H])([H])C([H])([H])C([H])([H])C(=O)N3C([H])([H])C([H])([H])C([H])([H])C([H])(n4nc(-c5c([H])c([H])c(Oc6c([H])c([H])c(F)c([H])c6F)c([H])c5[H])c(C(=O)N([H])[H])c4N([H])[H])C3([H])[H])c([H])c([H])c2C1([H])[H]

>  <smiles>  (36) 
[H]c1c([H])c([H])c2c(c1[H])C([H])([H])C([H])([H])C([H])([H])C2([H])N([H])C(=O)C1([H])N(C(=O)C([H])(N([H])C(=O)C([H])(N([H])C([H])([H])[H])C([H])([H])[H])C(C([H])([H])[H])(C([H])([H])[H])C([H])([H])[H])C([H])([H])c2c([H])c(OC([H])([H])C([H])([H])C([H])([H])C([H])([H])C([H])(C([H])([H])C([H])(C([H])([H])[H])C([H])([H])[H])[N+]([H])([H])C([H])([H])C([H])([H])C([H])([H])C([H])([H])C(=O)N3C([H])([H])C([H])([H])C([H])([H])C([H])(n4nc(-c5c([H])c([H])c(Oc6c([H])c([H])c(F)c([H])c6F)c([H])c5[H])c(C(=O)N([H])[H])c4N([H])[H])C3([H])[H])c([H])c([H])c2C1([H])[H]

$$$$
37:0:0
     RDKit          3D

 89 97  0  0  1  0  0  0  0  0999 V2000
  -29.6990  -18.4010   20.6990 C   0  0  0  0  0  0  0  0  0  0  0  0
  -29.6400  -17.2080   18.4180 C   0  0  0  0  0  2  0  0  0  0  0  0
  -29.1240  -19.6540   18.6730 C   0  0  0  0  0  2  0  0  0  0  0  0
  -29.5800  -16.8620   19.9280 C   0  0  0  0  0  3  0  0  0  0  0  0
  -28.7210  -18.5050   16.5310 C   0  0  0  0  0  1  0  0  0  0  0  0
  -29.2920  -19.7020   20.1320 N   0  0  0  0  0  0  0  0  0  0  0  0
  -28.7770  -18.3600   18.0060 N   0  0  1  0  0  4  0  0  0  0  0  0
  -30.0630  -18.3910   21.8780 O   0  0  0  0  0  0  0  0  0  0  0  0
  -27.8310  -18.1380   18.2790 H   0  0  0  0  0  0  0  0  0  0  0  0
  -30.4560  -15.3580   20.1740 C   0  0  0  0  0  0  0  0  0  0  0  0
  -30.4420  -12.9210   19.3060 C   0  0  0  0  0  2  0  0  0  0  0  0
  -29.4980  -12.7670   18.0840 C   0  0  0  0  0  2  0  0  0  0  0  0
  -28.0510  -12.4970   18.5340 C   0  0  0  0  0  2  0  0  0  0  0  0
  -27.6210  -13.4300   19.6920 C   0  0  0  0  0  3  0  0  0  0  0  0
  -28.6870  -13.5430   20.7990 C   0  0  0  0  0  2  0  0  0  0  0  0
  -29.9230  -14.0380   20.1710 N   0  0  0  0  0  0  0  0  0  0  0  0
  -31.6860  -15.3560   20.0190 O   0  0  0  0  0  0  0  0  0  0  0  0
  -25.2670  -13.9740   20.5070 C   0  0  0  0  0  0  0  0  0  0  0  0
  -24.2110  -13.1920   20.8770 C   0  0  0  0  0  0  0  0  0  0  0  0
  -24.6750  -11.8430   20.8090 C   0  0  0  0  0  0  0  0  0  0  0  0
  -26.3020  -13.1040   20.2210 N   0  0  0  0  0  0  0  0  0  0  0  0
  -25.9610  -11.8130   20.4710 N   0  0  0  0  0  0  0  0  0  0  0  0
  -23.9480  -10.5780   20.9850 C   0  0  0  0  0  0  0  0  0  0  0  0
  -24.3860   -9.5930   21.8980 C   0  0  0  0  0  3  0  0  0  0  0  0
  -23.6580   -8.3950   22.0640 C   0  0  0  0  0  3  0  0  0  0  0  0
  -22.4800   -8.1710   21.3140 C   0  0  0  0  0  0  0  0  0  0  0  0
  -22.0610   -9.1440   20.3890 C   0  0  0  0  0  3  0  0  0  0  0  0
  -22.7890  -10.3340   20.2230 C   0  0  0  0  0  3  0  0  0  0  0  0
  -21.7230   -7.0270   21.3890 O   0  0  0  0  0  0  0  0  0  0  0  0
  -21.6760   -6.2680   22.5320 C   0  0  0  0  0  0  0  0  0  0  0  0
  -21.2310   -6.8010   23.7610 C   0  0  0  0  0  3  0  0  0  0  0  0
  -21.1330   -5.9690   24.8940 C   0  0  0  0  0  3  0  0  0  0  0  0
  -21.4660   -4.6050   24.7990 C   0  0  0  0  0  0  0  0  0  0  0  0
  -21.9040   -4.0720   23.5740 C   0  0  0  0  0  3  0  0  0  0  0  0
  -22.0040   -4.9010   22.4440 C   0  0  0  0  0  0  0  0  0  0  0  0
  -22.4060   -4.3760   21.2610 F   0  0  0  0  0  0  0  0  0  0  0  0
  -21.3640   -3.8050   25.8850 F   0  0  0  0  0  0  0  0  0  0  0  0
  -22.8190  -13.6650   21.1780 C   0  0  0  0  0  0  0  0  0  0  0  0
  -22.0990  -12.9460   22.0320 N   0  0  0  0  0  0  0  0  0  0  0  0
  -22.3800  -14.7050   20.6900 O   0  0  0  0  0  0  0  0  0  0  0  0
  -22.4710  -12.1060   22.4490 H   0  0  0  0  0  0  0  0  0  0  0  0
  -21.1640  -13.2420   22.2730 H   0  0  0  0  0  0  0  0  0  0  0  0
  -25.4290  -15.3500   20.3610 N   0  0  0  0  0  0  0  0  0  0  0  0
  -24.6670  -16.0000   20.5100 H   0  0  0  0  0  0  0  0  0  0  0  0
  -26.2760  -15.7960   20.0410 H   0  0  0  0  0  0  0  0  0  0  0  0
  -28.9160  -21.1960   20.7760 C   0  0  0  0  0  2  0  0  0  0  0  0
  -28.9250  -22.8770   20.1430 C   0  0  0  0  0  3  0  0  0  0  0  0
  -28.1310  -24.3960   20.6860 C   0  0  0  0  0  3  0  0  0  0  0  0
  -28.3380  -26.0080   20.4470 O   0  0  0  0  0  0  0  0  0  0  0  0
  -24.6330  -31.9720   23.2370 C   0  0  0  0  0  0  0  0  0  0  0  0
  -27.2950  -27.0640   20.4000 C   0  0  0  0  0  0  0  0  0  0  0  0
  -23.4820  -30.5190   21.6180 C   0  0  0  0  0  3  0  0  0  0  0  0
  -24.9720  -28.8960   20.2670 C   0  0  0  0  0  0  0  0  0  0  0  0
  -26.0470  -30.7640   21.5060 C   0  0  0  0  0  2  0  0  0  0  0  0
  -26.1440  -29.3390   20.8920 C   0  0  0  0  0  0  0  0  0  0  0  0
  -27.3030  -28.4440   20.9300 C   0  0  0  0  0  3  0  0  0  0  0  0
  -26.0910  -26.7630   19.7270 C   0  0  0  0  0  3  0  0  0  0  0  0
  -24.9690  -27.6270   19.6650 C   0  0  0  0  0  3  0  0  0  0  0  0
  -23.7410  -29.8000   20.2660 C   0  0  0  0  0  2  0  0  0  0  0  0
  -24.7410  -31.1130   22.1730 N   0  0  0  0  0  0  0  0  0  0  0  0
  -23.5320  -32.2630   23.7320 O   0  0  0  0  0  0  0  0  0  0  0  0
  -22.7840  -29.5420   22.5980 C   0  0  0  0  0  0  0  0  0  0  0  0
  -21.4580  -29.3630   22.4590 N   0  0  0  0  0  0  0  0  0  0  0  0
  -23.4430  -28.9420   23.4520 O   0  0  0  0  0  0  0  0  0  0  0  0
  -20.9790  -29.8960   21.7460 H   0  0  0  0  0  0  0  0  0  0  0  0
  -18.0720  -28.1660   22.9750 C   0  0  0  0  0  0  0  0  0  0  0  0
  -20.6310  -28.4390   23.2420 C   0  0  0  0  0  3  0  0  0  0  0  0
  -20.7340  -26.9970   22.6910 C   0  0  0  0  0  2  0  0  0  0  0  0
  -19.6350  -26.6580   21.6790 C   0  0  0  0  0  2  0  0  0  0  0  0
  -18.2520  -26.8090   22.3160 C   0  0  0  0  0  2  0  0  0  0  0  0
  -19.1880  -28.9380   23.3950 C   0  0  0  0  0  0  0  0  0  0  0  0
  -18.9630  -30.2060   23.9730 C   0  0  0  0  0  3  0  0  0  0  0  0
  -17.6560  -30.7040   24.1320 C   0  0  0  0  0  3  0  0  0  0  0  0
  -16.5540  -29.9310   23.7250 C   0  0  0  0  0  3  0  0  0  0  0  0
  -16.7640  -28.6630   23.1540 C   0  0  0  0  0  3  0  0  0  0  0  0
  -25.8870  -32.6450   23.8750 C   0  0  0  0  0  3  0  0  0  0  0  0
  -26.3900  -31.9060   25.1770 C   0  0  1  0  0  0  0  0  0  0  0  0
  -25.2770  -31.6450   26.2180 C   0  0  0  0  0  1  0  0  0  0  0  0
  -27.0280  -30.5420   24.8260 C   0  0  0  0  0  1  0  0  0  0  0  0
  -27.4970  -32.7460   25.8590 C   0  0  0  0  0  1  0  0  0  0  0  0
  -25.5410  -34.0440   24.1860 N   0  0  0  0  0  0  0  0  0  0  0  0
  -25.8630  -35.1000   23.4300 C   0  0  0  0  0  0  0  0  0  0  0  0
  -26.5460  -35.0020   22.4070 O   0  0  0  0  0  0  0  0  0  0  0  0
  -24.9330  -34.1910   24.9800 H   0  0  0  0  0  0  0  0  0  0  0  0
  -24.1190  -36.8740   23.0420 C   0  0  0  0  0  1  0  0  0  0  0  0
  -25.3500  -36.4850   23.8760 C   0  0  0  0  0  3  0  0  0  0  0  0
  -27.4540  -37.4050   24.7470 C   0  0  0  0  0  1  0  0  0  0  0  0
  -26.3710  -37.5520   23.7790 N   0  0  0  0  0  0  0  0  0  0  0  0
  -25.9490  -38.4670   23.9110 H   0  0  0  0  0  0  0  0  0  0  0  0
  1  8  2  0
  2  4  1  0
  3  6  1  0
  4 10  1  0
  4  1  1  0
  5  7  1  0
  6  1  1  0
  6 46  1  0
  7  9  1  1
  7  2  1  0
  7  3  1  0
 11 16  1  0
 12 13  1  0
 12 11  1  0
 14 13  1  0
 14 21  1  0
 14 15  1  0
 16 10  1  0
 16 15  1  0
 17 10  2  0
 18 19  2  0
 19 38  1  0
 20 19  1  0
 20 23  1  0
 21 22  1  0
 21 18  1  0
 22 20  2  0
 23 24  1  0
 24 25  2  0
 26 29  1  0
 26 25  1  0
 27 26  2  0
 28 27  1  0
 28 23  2  0
 29 30  1  0
 30 31  1  0
 31 32  2  0
 33 32  1  0
 33 37  1  0
 34 33  2  0
 35 30  2  0
 35 34  1  0
 36 35  1  0
 38 39  1  0
 39 42  1  0
 39 41  1  0
 40 38  2  0
 43 18  1  0
 43 44  1  0
 45 43  1  0
 47 48  2  0
 47 46  1  0
 49 48  1  0
 50 61  2  0
 51 49  1  0
 51 56  1  0
 52 60  1  0
 52 62  1  0
 53 55  1  0
 54 60  1  0
 55 56  2  0
 55 54  1  0
 57 51  2  0
 58 57  1  0
 58 53  2  0
 59 53  1  0
 59 52  1  0
 60 50  1  0
 62 64  2  0
 63 62  1  0
 65 63  1  0
 66 75  2  0
 66 71  1  0
 67 63  1  0
 67 71  1  0
 68 67  1  0
 69 70  1  0
 69 68  1  0
 70 66  1  0
 71 72  2  0
 72 73  1  0
 74 73  2  0
 75 74  1  0
 76 50  1  0
 76 81  1  0
 76 77  1  0
 77 80  1  1
 77 78  1  0
 79 77  1  0
 81 84  1  0
 82 86  1  0
 82 81  1  0
 83 82  2  0
 86 85  1  0
 88 86  1  0
 88 89  1  0
 88 87  1  0
M  ISO  4   4 100  10 100  48 101  49 101
M  END
>  <TORSDO>  (37) 
F 19

>  <SCORE>  (37) 
-15.605

>  <name>  (37) 
37

>  <ligand_id>  (37) 
37

>  <original_smiles>  (37) 
[H]c1c([H])c([H])c2c(c1[H])C([H])([H])C([H])([H])C([H])([H])C2([H])N([H])C(=O)C1([H])N(C(=O)C([H])(N([H])C(=O)C([H])(N([H])C([H])([H])[H])C([H])([H])[H])C(C([H])([H])[H])(C([H])([H])[H])C([H])([H])[H])C([H])([H])c2c([H])c(OC([H])([H])C([H])([H])C([H])([H])N3C(=O)C([H])(C(=O)N4C([H])([H])C([H])([H])C([H])([H])C([H])(n5nc(-c6c([H])c([H])c(Oc7c([H])c([H])c(F)c([H])c7F)c([H])c6[H])c(C(=O)N([H])[H])c5N([H])[H])C4([H])[H])C([H])([H])[N+]([H])(C([H])([H])[H])C3([H])[H])c([H])c([H])c2C1([H])[H]

>  <smiles>  (37) 
[H]c1c([H])c([H])c2c(c1[H])C([H])([H])C([H])([H])C([H])([H])C2([H])N([H])C(=O)C1([H])N(C(=O)C([H])(N([H])C(=O)C([H])(N([H])C([H])([H])[H])C([H])([H])[H])C(C([H])([H])[H])(C([H])([H])[H])C([H])([H])[H])C([H])([H])c2c([H])c(OC([H])([H])C([H])([H])C([H])([H])N3C(=O)C([H])(C(=O)N4C([H])([H])C([H])([H])C([H])([H])C([H])(n5nc(-c6c([H])c([H])c(Oc7c([H])c([H])c(F)c([H])c7F)c([H])c6[H])c(C(=O)N([H])[H])c5N([H])[H])C4([H])[H])C([H])([H])[N+]([H])(C([H])([H])[H])C3([H])[H])c([H])c([H])c2C1([H])[H]

$$$$
38:0:0
     RDKit          3D

 96105  0  0  1  0  0  0  0  0999 V2000
  -29.3190  -18.1350   18.1760 C   0  0  0  0  0  2  0  0  0  0  0  0
  -30.4140  -20.0320   19.3310 C   0  0  0  0  0  2  0  0  0  0  0  0
  -27.9080  -19.6320   19.7250 C   0  0  0  0  0  2  0  0  0  0  0  0
  -28.6810  -20.4730   17.4850 C   0  0  0  0  0  2  0  0  0  0  0  0
  -29.7980  -17.1230   19.2360 C   0  0  0  0  0  2  0  0  0  0  0  0
  -31.1840  -18.9730   20.1600 C   0  0  0  0  0  2  0  0  0  0  0  0
  -27.6210  -21.0800   20.2110 C   0  0  0  0  0  2  0  0  0  0  0  0
  -27.5920  -21.5260   17.7840 C   0  0  0  0  0  2  0  0  0  0  0  0
  -29.0720  -19.5660   18.6980 C   0  0  2  0  0  0  0  0  0  0  0  0
  -30.4170  -17.7310   20.4490 N   0  0  2  0  0  4  0  0  0  0  0  0
  -27.8120  -22.1030   19.1320 N   0  0  1  0  0  4  0  0  0  0  0  0
  -29.6460  -18.0260   21.0340 H   0  0  0  0  0  0  0  0  0  0  0  0
  -28.7990  -22.3120   19.1150 H   0  0  0  0  0  0  0  0  0  0  0  0
  -25.6710  -23.3070   19.7400 C   0  0  0  0  0  1  0  0  0  0  0  0
  -27.1580  -23.4300   19.3410 C   0  0  0  0  0  3  0  0  0  0  0  0
  -27.9520  -24.3490   20.3170 C   0  0  0  0  0  2  0  0  0  0  0  0
  -28.7050  -25.5240   19.6240 C   0  0  0  0  0  2  0  0  0  0  0  0
  -28.6080  -26.7620   20.3370 O   0  0  0  0  0  0  0  0  0  0  0  0
  -24.6600  -31.8980   23.2770 C   0  0  0  0  0  0  0  0  0  0  0  0
  -27.4180  -27.4630   20.2830 C   0  0  0  0  0  0  0  0  0  0  0  0
  -23.5070  -30.4750   21.6140 C   0  0  0  0  0  3  0  0  0  0  0  0
  -25.0080  -28.9460   20.2430 C   0  0  0  0  0  0  0  0  0  0  0  0
  -26.0380  -30.8500   21.4880 C   0  0  0  0  0  2  0  0  0  0  0  0
  -26.1460  -29.4770   20.8610 C   0  0  0  0  0  0  0  0  0  0  0  0
  -27.3500  -28.7370   20.8890 C   0  0  0  0  0  3  0  0  0  0  0  0
  -26.2580  -26.9600   19.6480 C   0  0  0  0  0  3  0  0  0  0  0  0
  -25.0560  -27.6810   19.6420 C   0  0  0  0  0  3  0  0  0  0  0  0
  -23.7590  -29.7950   20.2440 C   0  0  0  0  0  2  0  0  0  0  0  0
  -24.7520  -31.0890   22.1850 N   0  0  0  0  0  0  0  0  0  0  0  0
  -23.5650  -32.1660   23.7880 O   0  0  0  0  0  0  0  0  0  0  0  0
  -22.8430  -29.4500   22.5630 C   0  0  0  0  0  0  0  0  0  0  0  0
  -21.5220  -29.2640   22.4130 N   0  0  0  0  0  0  0  0  0  0  0  0
  -23.5140  -28.8280   23.3920 O   0  0  0  0  0  0  0  0  0  0  0  0
  -21.0440  -29.8180   21.7170 H   0  0  0  0  0  0  0  0  0  0  0  0
  -18.1360  -28.0940   22.8750 C   0  0  0  0  0  0  0  0  0  0  0  0
  -20.6930  -28.3300   23.1710 C   0  0  0  0  0  3  0  0  0  0  0  0
  -20.7910  -26.9000   22.5890 C   0  0  0  0  0  2  0  0  0  0  0  0
  -19.6950  -26.5900   21.5660 C   0  0  0  0  0  2  0  0  0  0  0  0
  -18.3080  -26.7460   22.1960 C   0  0  0  0  0  2  0  0  0  0  0  0
  -19.2570  -28.8450   23.3190 C   0  0  0  0  0  0  0  0  0  0  0  0
  -19.0420  -30.1080   23.9110 C   0  0  0  0  0  3  0  0  0  0  0  0
  -17.7390  -30.6220   24.0590 C   0  0  0  0  0  3  0  0  0  0  0  0
  -16.6330  -29.8660   23.6350 C   0  0  0  0  0  3  0  0  0  0  0  0
  -16.8340  -28.6030   23.0510 C   0  0  0  0  0  3  0  0  0  0  0  0
  -25.9260  -32.5450   23.9200 C   0  0  0  0  0  3  0  0  0  0  0  0
  -25.6010  -33.9440   24.2260 N   0  0  0  0  0  0  0  0  0  0  0  0
  -25.9340  -34.9870   23.4540 C   0  0  0  0  0  0  0  0  0  0  0  0
  -26.6190  -34.8730   22.4350 O   0  0  0  0  0  0  0  0  0  0  0  0
  -24.9990  -34.1070   25.0200 H   0  0  0  0  0  0  0  0  0  0  0  0
  -24.1960  -36.7530   23.0390 C   0  0  0  0  0  1  0  0  0  0  0  0
  -25.4250  -36.3760   23.8820 C   0  0  0  0  0  3  0  0  0  0  0  0
  -27.5350  -37.2930   24.7390 C   0  0  0  0  0  1  0  0  0  0  0  0
  -26.4500  -37.4360   23.7720 N   0  0  0  0  0  0  0  0  0  0  0  0
  -26.0330  -38.3550   23.8980 H   0  0  0  0  0  0  0  0  0  0  0  0
  -26.4200  -31.7890   25.2140 C   0  0  1  0  0  0  0  0  0  0  0  0
  -25.3050  -31.5470   26.2590 C   0  0  0  0  0  1  0  0  0  0  0  0
  -27.0290  -30.4160   24.8470 C   0  0  0  0  0  1  0  0  0  0  0  0
  -27.5500  -32.6000   25.8940 C   0  0  0  0  0  1  0  0  0  0  0  0
  -31.2110  -16.7820   21.2920 C   0  0  0  0  0  2  0  0  0  0  0  0
  -30.5930  -15.3670   21.5120 C   0  0  0  0  0  2  0  0  0  0  0  0
  -30.9970  -14.3220   20.4510 C   0  0  0  0  0  0  0  0  0  0  0  0
  -30.5370  -12.2890   19.1260 C   0  0  0  0  0  2  0  0  0  0  0  0
  -29.5900  -12.5900   17.9500 C   0  0  0  0  0  2  0  0  0  0  0  0
  -28.1180  -12.4940   18.3960 C   0  0  0  0  0  2  0  0  0  0  0  0
  -27.8340  -13.2820   19.7030 C   0  0  0  0  0  3  0  0  0  0  0  0
  -28.8960  -12.9630   20.7840 C   0  0  0  0  0  2  0  0  0  0  0  0
  -30.2260  -13.2280   20.2150 N   0  0  0  0  0  0  0  0  0  0  0  0
  -32.0300  -14.5330   19.8100 O   0  0  0  0  0  0  0  0  0  0  0  0
  -25.4430  -13.9380   20.4050 C   0  0  0  0  0  0  0  0  0  0  0  0
  -24.3630  -13.1870   20.7870 C   0  0  0  0  0  0  0  0  0  0  0  0
  -24.8000  -11.8280   20.7630 C   0  0  0  0  0  0  0  0  0  0  0  0
  -26.4750  -13.0380   20.1830 N   0  0  0  0  0  0  0  0  0  0  0  0
  -26.0880  -11.7630   20.4500 N   0  0  0  0  0  0  0  0  0  0  0  0
  -24.0510  -10.5800   20.9660 C   0  0  0  0  0  0  0  0  0  0  0  0
  -24.4680   -9.6150   21.9080 C   0  0  0  0  0  3  0  0  0  0  0  0
  -23.7220   -8.4320   22.0990 C   0  0  0  0  0  3  0  0  0  0  0  0
  -22.5440   -8.2070   21.3470 C   0  0  0  0  0  0  0  0  0  0  0  0
  -22.1460   -9.1590   20.3940 C   0  0  0  0  0  3  0  0  0  0  0  0
  -22.8920  -10.3350   20.2020 C   0  0  0  0  0  3  0  0  0  0  0  0
  -21.7710   -7.0750   21.4470 O   0  0  0  0  0  0  0  0  0  0  0  0
  -21.7020   -6.3510   22.6100 C   0  0  0  0  0  0  0  0  0  0  0  0
  -21.2710   -6.9270   23.8250 C   0  0  0  0  0  3  0  0  0  0  0  0
  -21.1500   -6.1290   24.9800 C   0  0  0  0  0  3  0  0  0  0  0  0
  -21.4490   -4.7540   24.9210 C   0  0  0  0  0  0  0  0  0  0  0  0
  -21.8730   -4.1770   23.7110 C   0  0  0  0  0  3  0  0  0  0  0  0
  -21.9980   -4.9720   22.5590 C   0  0  0  0  0  0  0  0  0  0  0  0
  -22.3860   -4.4070   21.3910 F   0  0  0  0  0  0  0  0  0  0  0  0
  -21.3250   -3.9860   26.0280 F   0  0  0  0  0  0  0  0  0  0  0  0
  -22.9760  -13.6930   21.0640 C   0  0  0  0  0  0  0  0  0  0  0  0
  -22.2400  -13.0150   21.9390 N   0  0  0  0  0  0  0  0  0  0  0  0
  -22.5530  -14.7220   20.5410 O   0  0  0  0  0  0  0  0  0  0  0  0
  -22.5930  -12.1820   22.3860 H   0  0  0  0  0  0  0  0  0  0  0  0
  -21.3080  -13.3350   22.1650 H   0  0  0  0  0  0  0  0  0  0  0  0
  -25.6300  -15.3030   20.2150 N   0  0  0  0  0  0  0  0  0  0  0  0
  -24.8650  -15.9640   20.3050 H   0  0  0  0  0  0  0  0  0  0  0  0
  -26.4760  -15.7220   19.8510 H   0  0  0  0  0  0  0  0  0  0  0  0
  9  1  1  6
  1  5  1  0
  2  6  1  0
  3  7  1  0
  4  8  1  0
  5 10  1  0
  6 10  1  0
  8 11  1  0
  9  4  1  0
  9  2  1  0
  9  3  1  0
 10 12  1  1
 10 59  1  0
 11 15  1  0
 11  7  1  0
 11 13  1  6
 15 14  1  0
 15 16  1  0
 17 16  1  0
 17 18  1  0
 19 30  2  0
 20 18  1  0
 20 25  1  0
 21 29  1  0
 21 31  1  0
 22 28  1  0
 22 24  1  0
 23 29  1  0
 24 25  2  0
 24 23  1  0
 26 20  2  0
 27 26  1  0
 27 22  2  0
 28 21  1  0
 29 19  1  0
 31 33  2  0
 32 31  1  0
 34 32  1  0
 35 44  2  0
 35 40  1  0
 36 32  1  0
 36 40  1  0
 37 36  1  0
 38 39  1  0
 38 37  1  0
 39 35  1  0
 40 41  2  0
 41 42  1  0
 43 42  2  0
 44 43  1  0
 45 19  1  0
 45 46  1  0
 45 55  1  0
 46 49  1  0
 47 51  1  0
 47 46  1  0
 48 47  2  0
 51 50  1  0
 53 51  1  0
 53 54  1  0
 53 52  1  0
 55 58  1  1
 55 56  1  0
 57 55  1  0
 59 60  1  0
 61 60  1  0
 62 67  1  0
 63 64  1  0
 63 62  1  0
 65 64  1  0
 65 72  1  0
 65 66  1  0
 67 61  1  0
 67 66  1  0
 68 61  2  0
 69 70  2  0
 70 89  1  0
 71 70  1  0
 71 74  1  0
 72 69  1  0
 72 73  1  0
 73 71  2  0
 74 75  1  0
 75 76  2  0
 77 80  1  0
 77 76  1  0
 78 77  2  0
 79 78  1  0
 79 74  2  0
 80 81  1  0
 81 82  1  0
 82 83  2  0
 84 83  1  0
 84 88  1  0
 85 84  2  0
 86 81  2  0
 86 85  1  0
 87 86  1  0
 89 90  1  0
 90 93  1  0
 90 92  1  0
 91 89  2  0
 94 95  1  0
 94 69  1  0
 96 94  1  0
M  ISO  4  17 101  18 101  60 100  61 100
M  END
>  <TORSDO>  (38) 
F 21

>  <SCORE>  (38) 
-13.704

>  <name>  (38) 
38

>  <ligand_id>  (38) 
38

>  <original_smiles>  (38) 
[H]c1c([H])c([H])c2c(c1[H])C([H])([H])C([H])([H])C([H])([H])C2([H])N([H])C(=O)C1([H])N(C(=O)C([H])(N([H])C(=O)C([H])(N([H])C([H])([H])[H])C([H])([H])[H])C(C([H])([H])[H])(C([H])([H])[H])C([H])([H])[H])C([H])([H])c2c([H])c(OC([H])([H])C([H])([H])C([H])(C([H])([H])[H])[N+]3([H])C([H])([H])C([H])([H])C4(C([H])([H])C([H])([H])[N+]([H])(C([H])([H])C([H])([H])C(=O)N5C([H])([H])C([H])([H])C([H])([H])C([H])(n6nc(-c7c([H])c([H])c(Oc8c([H])c([H])c(F)c([H])c8F)c([H])c7[H])c(C(=O)N([H])[H])c6N([H])[H])C5([H])[H])C([H])([H])C4([H])[H])C([H])([H])C3([H])[H])c([H])c([H])c2C1([H])[H]

>  <smiles>  (38) 
[H]c1c([H])c([H])c2c(c1[H])C([H])([H])C([H])([H])C([H])([H])C2([H])N([H])C(=O)C1([H])N(C(=O)C([H])(N([H])C(=O)C([H])(N([H])C([H])([H])[H])C([H])([H])[H])C(C([H])([H])[H])(C([H])([H])[H])C([H])([H])[H])C([H])([H])c2c([H])c(OC([H])([H])C([H])([H])C([H])(C([H])([H])[H])[N+]3([H])C([H])([H])C([H])([H])C4(C([H])([H])C([H])([H])[N+]([H])(C([H])([H])C([H])([H])C(=O)N5C([H])([H])C([H])([H])C([H])([H])C([H])(n6nc(-c7c([H])c([H])c(Oc8c([H])c([H])c(F)c([H])c8F)c([H])c7[H])c(C(=O)N([H])[H])c6N([H])[H])C5([H])[H])C([H])([H])C4([H])[H])C([H])([H])C3([H])[H])c([H])c([H])c2C1([H])[H]

$$$$
39:0:0
     RDKit          3D

 97106  0  0  1  0  0  0  0  0999 V2000
  -33.4330  -18.6260   19.8730 C   0  0  0  0  0  2  0  0  0  0  0  0
  -32.5720  -17.5530   20.5200 C   0  0  0  0  0  2  0  0  0  0  0  0
  -31.4420  -20.0400   19.7440 C   0  0  0  0  0  2  0  0  0  0  0  0
  -32.8930  -19.9940   20.2620 C   0  0  0  0  0  3  0  0  0  0  0  0
  -31.0800  -17.5050   20.0420 C   0  0  0  0  0  3  0  0  0  0  0  0
  -30.4970  -18.9570   20.1960 N   0  0  2  0  0  4  0  0  0  0  0  0
  -30.3830  -19.0930   21.1880 H   0  0  0  0  0  0  0  0  0  0  0  0
  -35.4310  -23.6500   20.2080 C   0  0  0  0  0  2  0  0  0  0  0  0
  -34.0420  -23.7380   19.5690 C   0  0  0  0  0  2  0  0  0  0  0  0
  -36.0830  -22.3130   19.8530 C   0  0  0  0  0  2  0  0  0  0  0  0
  -33.1480  -22.5620   20.0050 C   0  0  0  0  0  2  0  0  0  0  0  0
  -35.2140  -21.1350   20.3150 C   0  0  0  0  0  2  0  0  0  0  0  0
  -33.7780  -21.1700   19.7270 C   0  0  0  0  0  3  0  0  0  0  0  0
  -30.2310  -16.4050   22.2560 C   0  0  0  0  0  1  0  0  0  0  0  0
  -30.3460  -16.1880   20.7290 C   0  0  0  0  0  3  0  0  0  0  0  0
  -30.9340  -14.6940   20.4270 C   0  0  0  0  0  0  0  0  0  0  0  0
  -30.6480  -12.3400   19.6190 C   0  0  0  0  0  2  0  0  0  0  0  0
  -29.7750  -12.3360   18.3460 C   0  0  0  0  0  2  0  0  0  0  0  0
  -28.2880  -12.2130   18.7310 C   0  0  0  0  0  2  0  0  0  0  0  0
  -27.8860  -13.2110   19.8480 C   0  0  0  0  0  3  0  0  0  0  0  0
  -28.9010  -13.2370   21.0070 C   0  0  0  0  0  2  0  0  0  0  0  0
  -30.2330  -13.5020   20.4490 N   0  0  0  0  0  0  0  0  0  0  0  0
  -32.0890  -14.6210   20.0160 O   0  0  0  0  0  0  0  0  0  0  0  0
  -25.5190  -13.8950   20.5540 C   0  0  0  0  0  0  0  0  0  0  0  0
  -24.4190  -13.1660   20.9100 C   0  0  0  0  0  0  0  0  0  0  0  0
  -24.8270  -11.7960   20.8860 C   0  0  0  0  0  0  0  0  0  0  0  0
  -26.5280  -12.9740   20.3260 N   0  0  0  0  0  0  0  0  0  0  0  0
  -26.1190  -11.7070   20.5920 N   0  0  0  0  0  0  0  0  0  0  0  0
  -24.0460  -10.5650   21.0670 C   0  0  0  0  0  0  0  0  0  0  0  0
  -24.4320   -9.5760   22.0010 C   0  0  0  0  0  3  0  0  0  0  0  0
  -23.6550   -8.4100   22.1710 C   0  0  0  0  0  3  0  0  0  0  0  0
  -22.4780   -8.2240   21.4090 C   0  0  0  0  0  0  0  0  0  0  0  0
  -22.1110   -9.1990   20.4660 C   0  0  0  0  0  3  0  0  0  0  0  0
  -22.8880  -10.3570   20.2930 C   0  0  0  0  0  3  0  0  0  0  0  0
  -21.6740   -7.1110   21.4890 O   0  0  0  0  0  0  0  0  0  0  0  0
  -21.6090   -6.3510   22.6290 C   0  0  0  0  0  0  0  0  0  0  0  0
  -21.2020   -6.8940   23.8670 C   0  0  0  0  0  3  0  0  0  0  0  0
  -21.0820   -6.0610   24.9970 C   0  0  0  0  0  3  0  0  0  0  0  0
  -21.3600   -4.6840   24.8890 C   0  0  0  0  0  0  0  0  0  0  0  0
  -21.7620   -4.1400   23.6560 C   0  0  0  0  0  3  0  0  0  0  0  0
  -21.8820   -4.9720   22.5290 C   0  0  0  0  0  0  0  0  0  0  0  0
  -22.2480   -4.4380   21.3380 F   0  0  0  0  0  0  0  0  0  0  0  0
  -21.2380   -3.8820   25.9720 F   0  0  0  0  0  0  0  0  0  0  0  0
  -23.0380  -13.6990   21.1610 C   0  0  0  0  0  0  0  0  0  0  0  0
  -22.2740  -13.0390   22.0230 N   0  0  0  0  0  0  0  0  0  0  0  0
  -22.6490  -14.7370   20.6270 O   0  0  0  0  0  0  0  0  0  0  0  0
  -22.6020  -12.1980   22.4730 H   0  0  0  0  0  0  0  0  0  0  0  0
  -21.3450  -13.3780   22.2350 H   0  0  0  0  0  0  0  0  0  0  0  0
  -25.7440  -15.2570   20.3790 N   0  0  0  0  0  0  0  0  0  0  0  0
  -25.0050  -15.9450   20.4770 H   0  0  0  0  0  0  0  0  0  0  0  0
  -26.6190  -15.6550   20.0610 H   0  0  0  0  0  0  0  0  0  0  0  0
  -29.1580  -19.3480   19.5740 C   0  0  0  0  0  2  0  0  0  0  0  0
  -28.4720  -20.7520   20.0470 C   0  0  0  0  0  3  0  0  0  0  0  0
  -28.6540  -22.1520   19.2630 C   0  0  0  0  0  3  0  0  0  0  0  0
  -28.1460  -23.5300   19.9320 C   0  0  0  0  0  3  0  0  0  0  0  0
  -28.3660  -24.9110   19.1390 C   0  0  0  0  0  3  0  0  0  0  0  0
  -28.3130  -26.2380   19.8130 O   0  0  0  0  0  0  0  0  0  0  0  0
  -24.6600  -31.4520   23.2170 C   0  0  0  0  0  0  0  0  0  0  0  0
  -27.1920  -27.0850   19.8100 C   0  0  0  0  0  0  0  0  0  0  0  0
  -23.4390  -30.2150   21.4650 C   0  0  0  0  0  3  0  0  0  0  0  0
  -24.8620  -28.7490   19.9250 C   0  0  0  0  0  0  0  0  0  0  0  0
  -25.9850  -30.4870   21.3190 C   0  0  0  0  0  2  0  0  0  0  0  0
  -26.0390  -29.1640   20.5640 C   0  0  0  0  0  0  0  0  0  0  0  0
  -27.2030  -28.3410   20.4990 C   0  0  0  0  0  3  0  0  0  0  0  0
  -25.9890  -26.7200   19.1650 C   0  0  0  0  0  3  0  0  0  0  0  0
  -24.8420  -27.5350   19.2200 C   0  0  0  0  0  3  0  0  0  0  0  0
  -23.6470  -29.6460   20.0370 C   0  0  0  0  0  2  0  0  0  0  0  0
  -24.7140  -30.7310   22.0590 N   0  0  0  0  0  0  0  0  0  0  0  0
  -23.5780  -31.7080   23.7680 O   0  0  0  0  0  0  0  0  0  0  0  0
  -22.7490  -29.1400   22.3390 C   0  0  0  0  0  0  0  0  0  0  0  0
  -21.4190  -29.0100   22.2010 N   0  0  0  0  0  0  0  0  0  0  0  0
  -23.4110  -28.4310   23.1000 O   0  0  0  0  0  0  0  0  0  0  0  0
  -20.9460  -29.6330   21.5630 H   0  0  0  0  0  0  0  0  0  0  0  0
  -18.0090  -27.8790   22.6180 C   0  0  0  0  0  0  0  0  0  0  0  0
  -20.5740  -28.0330   22.8910 C   0  0  0  0  0  3  0  0  0  0  0  0
  -20.6290  -26.6550   22.1890 C   0  0  0  0  0  2  0  0  0  0  0  0
  -19.5150  -26.4600   21.1580 C   0  0  0  0  0  2  0  0  0  0  0  0
  -18.1410  -26.5900   21.8230 C   0  0  0  0  0  2  0  0  0  0  0  0
  -19.1520  -28.5640   23.1050 C   0  0  0  0  0  0  0  0  0  0  0  0
  -18.9760  -29.7760   23.8080 C   0  0  0  0  0  3  0  0  0  0  0  0
  -17.6880  -30.3010   24.0270 C   0  0  0  0  0  3  0  0  0  0  0  0
  -16.5580  -29.6090   23.5570 C   0  0  0  0  0  3  0  0  0  0  0  0
  -16.7190  -28.4000   22.8570 C   0  0  0  0  0  3  0  0  0  0  0  0
  -25.9510  -32.0070   23.8940 C   0  0  0  0  0  3  0  0  0  0  0  0
  -25.6820  -33.3940   24.3020 N   0  0  0  0  0  0  0  0  0  0  0  0
  -26.0670  -34.4790   23.6160 C   0  0  0  0  0  0  0  0  0  0  0  0
  -26.7560  -34.4140   22.5950 O   0  0  0  0  0  0  0  0  0  0  0  0
  -25.0770  -33.5220   25.0990 H   0  0  0  0  0  0  0  0  0  0  0  0
  -24.4130  -36.3500   23.3260 C   0  0  0  0  0  1  0  0  0  0  0  0
  -25.6140  -35.8540   24.1460 C   0  0  0  0  0  3  0  0  0  0  0  0
  -27.7500  -36.6140   25.0880 C   0  0  0  0  0  1  0  0  0  0  0  0
  -26.6840  -36.8760   24.1250 N   0  0  0  0  0  0  0  0  0  0  0  0
  -26.3050  -37.8010   24.3120 H   0  0  0  0  0  0  0  0  0  0  0  0
  -26.4180  -31.1500   25.1350 C   0  0  1  0  0  0  0  0  0  0  0  0
  -25.3000  -30.8910   26.1730 C   0  0  0  0  0  1  0  0  0  0  0  0
  -26.9610  -29.7770   24.6770 C   0  0  0  0  0  1  0  0  0  0  0  0
  -27.5860  -31.8620   25.8560 C   0  0  0  0  0  1  0  0  0  0  0  0
  1  4  1  0
  1  2  1  0
  3  6  1  0
  3  4  1  0
  4 13  1  0
  5  6  1  0
  5  2  1  0
  5 15  1  0
  6  7  1  1
  9 11  1  0
  9  8  1  0
 10  8  1  0
 10 12  1  0
 13 11  1  0
 13 12  1  0
 15 14  1  0
 16 22  1  0
 16 15  1  0
 17 22  1  0
 18 19  1  0
 18 17  1  0
 20 19  1  0
 20 27  1  0
 20 21  1  0
 22 21  1  0
 23 16  2  0
 24 25  2  0
 25 44  1  0
 26 25  1  0
 26 29  1  0
 27 24  1  0
 27 28  1  0
 28 26  2  0
 29 30  1  0
 30 31  2  0
 32 35  1  0
 32 31  1  0
 33 32  2  0
 34 33  1  0
 34 29  2  0
 35 36  1  0
 36 37  1  0
 37 38  2  0
 39 38  1  0
 39 43  1  0
 40 39  2  0
 41 36  2  0
 41 40  1  0
 42 41  1  0
 44 45  1  0
 45 48  1  0
 45 47  1  0
 46 44  2  0
 49 50  1  0
 49 24  1  0
 51 49  1  0
 52 53  1  0
 52  6  1  0
 54 55  1  0
 54 53  2  0
 56 57  1  0
 56 55  2  0
 58 69  2  0
 59 57  1  0
 59 64  1  0
 60 68  1  0
 60 70  1  0
 61 67  1  0
 61 63  1  0
 62 68  1  0
 63 62  1  0
 64 63  2  0
 65 66  1  0
 65 59  2  0
 66 61  2  0
 67 60  1  0
 68 58  1  0
 70 72  2  0
 71 70  1  0
 73 71  1  0
 74 83  2  0
 74 79  1  0
 75 71  1  0
 75 79  1  0
 76 75  1  0
 77 78  1  0
 77 76  1  0
 78 74  1  0
 79 80  2  0
 80 81  1  0
 82 81  2  0
 83 82  1  0
 84 58  1  0
 84 85  1  0
 84 94  1  0
 85 88  1  0
 86 90  1  0
 86 85  1  0
 87 86  2  0
 90 89  1  0
 92 90  1  0
 92 93  1  0
 92 91  1  0
 94 97  1  1
 94 95  1  0
 96 94  1  0
M  ISO  4  15 100  16 100  56 101  57 101
M  END
>  <TORSDO>  (39) 
F 23

>  <SCORE>  (39) 
-12.008

>  <name>  (39) 
39

>  <ligand_id>  (39) 
39

>  <original_smiles>  (39) 
[H]c1c([H])c([H])c2c(c1[H])C([H])([H])C([H])([H])C([H])([H])C2([H])N([H])C(=O)C1([H])N(C(=O)C([H])(N([H])C(=O)C([H])(N([H])C([H])([H])[H])C([H])([H])[H])C(C([H])([H])[H])(C([H])([H])[H])C([H])([H])[H])C([H])([H])c2c([H])c(OC([H])([H])C([H])([H])C([H])([H])C([H])([H])C([H])([H])[N+]3([H])C([H])([H])C([H])(C4([H])C([H])([H])C([H])([H])C([H])([H])C([H])([H])C4([H])[H])C([H])([H])C([H])([H])C3([H])C([H])(C(=O)N3C([H])([H])C([H])([H])C([H])([H])C([H])(n4nc(-c5c([H])c([H])c(Oc6c([H])c([H])c(F)c([H])c6F)c([H])c5[H])c(C(=O)N([H])[H])c4N([H])[H])C3([H])[H])C([H])([H])[H])c([H])c([H])c2C1([H])[H]

>  <smiles>  (39) 
[H]c1c([H])c([H])c2c(c1[H])C([H])([H])C([H])([H])C([H])([H])C2([H])N([H])C(=O)C1([H])N(C(=O)C([H])(N([H])C(=O)C([H])(N([H])C([H])([H])[H])C([H])([H])[H])C(C([H])([H])[H])(C([H])([H])[H])C([H])([H])[H])C([H])([H])c2c([H])c(OC([H])([H])C([H])([H])C([H])([H])C([H])([H])C([H])([H])[N+]3([H])C([H])([H])C([H])(C4([H])C([H])([H])C([H])([H])C([H])([H])C([H])([H])C4([H])[H])C([H])([H])C([H])([H])C3([H])C([H])(C(=O)N3C([H])([H])C([H])([H])C([H])([H])C([H])(n4nc(-c5c([H])c([H])c(Oc6c([H])c([H])c(F)c([H])c6F)c([H])c5[H])c(C(=O)N([H])[H])c4N([H])[H])C3([H])[H])C([H])([H])[H])c([H])c([H])c2C1([H])[H]

$$$$
40:0:0
     RDKit          3D

 91 99  0  0  1  0  0  0  0  0999 V2000
  -29.2720  -20.4590   20.2460 C   0  0  0  0  0  2  0  0  0  0  0  0
  -30.3170  -19.6150   18.0520 C   0  0  0  0  0  2  0  0  0  0  0  0
  -29.8170  -17.3340   18.4410 C   0  0  0  0  0  2  0  0  0  0  0  0
  -30.6550  -18.2290   17.5260 C   0  0  0  0  0  3  0  0  0  0  0  0
  -30.2130  -19.4160   19.5740 C   0  0  0  0  0  3  0  0  0  0  0  0
  -30.3800  -18.0350   16.0280 C   0  0  0  0  0  1  0  0  0  0  0  0
  -29.7880  -17.9890   19.7740 N   0  0  2  0  0  4  0  0  0  0  0  0
  -28.8210  -18.0140   20.0620 H   0  0  0  0  0  0  0  0  0  0  0  0
  -30.5470  -17.2560   20.8380 C   0  0  0  0  0  2  0  0  0  0  0  0
  -30.0000  -15.8330   21.2080 C   0  0  0  0  0  2  0  0  0  0  0  0
  -30.6870  -14.6330   20.5010 C   0  0  0  0  0  0  0  0  0  0  0  0
  -30.4080  -12.4800   19.3220 C   0  0  0  0  0  2  0  0  0  0  0  0
  -29.4550  -12.6860   18.1260 C   0  0  0  0  0  2  0  0  0  0  0  0
  -27.9840  -12.5350   18.5630 C   0  0  0  0  0  2  0  0  0  0  0  0
  -27.6490  -13.3560   19.8380 C   0  0  0  0  0  3  0  0  0  0  0  0
  -28.7160  -13.1290   20.9350 C   0  0  0  0  0  2  0  0  0  0  0  0
  -30.0310  -13.4490   20.3620 N   0  0  0  0  0  0  0  0  0  0  0  0
  -31.7930  -14.8220   19.9850 O   0  0  0  0  0  0  0  0  0  0  0  0
  -25.2540  -13.9450   20.5740 C   0  0  0  0  0  0  0  0  0  0  0  0
  -24.1910  -13.1640   20.9400 C   0  0  0  0  0  0  0  0  0  0  0  0
  -24.6560  -11.8150   20.8840 C   0  0  0  0  0  0  0  0  0  0  0  0
  -26.3010  -13.0710   20.3230 N   0  0  0  0  0  0  0  0  0  0  0  0
  -25.9440  -11.7830   20.5660 N   0  0  0  0  0  0  0  0  0  0  0  0
  -23.9350  -10.5470   21.0590 C   0  0  0  0  0  0  0  0  0  0  0  0
  -24.3720   -9.5700   21.9820 C   0  0  0  0  0  3  0  0  0  0  0  0
  -23.6510   -8.3680   22.1450 C   0  0  0  0  0  3  0  0  0  0  0  0
  -22.4800   -8.1330   21.3860 C   0  0  0  0  0  0  0  0  0  0  0  0
  -22.0630   -9.0980   20.4530 C   0  0  0  0  0  3  0  0  0  0  0  0
  -22.7840  -10.2930   20.2870 C   0  0  0  0  0  3  0  0  0  0  0  0
  -21.7310   -6.9840   21.4590 O   0  0  0  0  0  0  0  0  0  0  0  0
  -21.6830   -6.2290   22.6030 C   0  0  0  0  0  0  0  0  0  0  0  0
  -21.2430   -6.7650   23.8330 C   0  0  0  0  0  3  0  0  0  0  0  0
  -21.1430   -5.9360   24.9680 C   0  0  0  0  0  3  0  0  0  0  0  0
  -21.4730   -4.5710   24.8740 C   0  0  0  0  0  0  0  0  0  0  0  0
  -21.9060   -4.0330   23.6490 C   0  0  0  0  0  3  0  0  0  0  0  0
  -22.0070   -4.8590   22.5170 C   0  0  0  0  0  0  0  0  0  0  0  0
  -22.4050   -4.3320   21.3340 F   0  0  0  0  0  0  0  0  0  0  0  0
  -21.3680   -3.7710   25.9620 F   0  0  0  0  0  0  0  0  0  0  0  0
  -22.7940  -13.6330   21.2320 C   0  0  0  0  0  0  0  0  0  0  0  0
  -22.0770  -12.9200   22.0920 N   0  0  0  0  0  0  0  0  0  0  0  0
  -22.3490  -14.6650   20.7320 O   0  0  0  0  0  0  0  0  0  0  0  0
  -22.4500  -12.0850   22.5180 H   0  0  0  0  0  0  0  0  0  0  0  0
  -21.1400  -13.2160   22.3310 H   0  0  0  0  0  0  0  0  0  0  0  0
  -25.4120  -15.3190   20.4160 N   0  0  0  0  0  0  0  0  0  0  0  0
  -24.6380  -15.9650   20.5320 H   0  0  0  0  0  0  0  0  0  0  0  0
  -26.2470  -15.7640   20.0640 H   0  0  0  0  0  0  0  0  0  0  0  0
  -29.5800  -21.9350   19.8680 C   0  0  0  0  0  2  0  0  0  0  0  0
  -28.7070  -22.9840   20.5980 C   0  0  0  0  0  2  0  0  0  0  0  0
  -28.9280  -24.4370   20.1060 C   0  0  0  0  0  2  0  0  0  0  0  0
  -28.1720  -25.4920   20.9440 C   0  0  0  0  0  2  0  0  0  0  0  0
  -28.3290  -26.8260   20.4270 O   0  0  0  0  0  0  0  0  0  0  0  0
  -24.5130  -32.0790   23.3530 C   0  0  0  0  0  0  0  0  0  0  0  0
  -27.1760  -27.5770   20.3880 C   0  0  0  0  0  0  0  0  0  0  0  0
  -23.3240  -30.6620   21.7120 C   0  0  0  0  0  3  0  0  0  0  0  0
  -24.7900  -29.0950   20.3330 C   0  0  0  0  0  0  0  0  0  0  0  0
  -25.8540  -31.0050   21.5470 C   0  0  0  0  0  2  0  0  0  0  0  0
  -25.9430  -29.6240   20.9280 C   0  0  0  0  0  0  0  0  0  0  0  0
  -27.1410  -28.8740   20.9500 C   0  0  0  0  0  3  0  0  0  0  0  0
  -26.0100  -27.0630   19.7800 C   0  0  0  0  0  3  0  0  0  0  0  0
  -24.8190  -27.8130   19.7550 C   0  0  0  0  0  3  0  0  0  0  0  0
  -23.5500  -29.9580   20.3480 C   0  0  0  0  0  2  0  0  0  0  0  0
  -24.5810  -31.2640   22.2630 N   0  0  0  0  0  0  0  0  0  0  0  0
  -23.4260  -32.3670   23.8730 O   0  0  0  0  0  0  0  0  0  0  0  0
  -22.6510  -29.6590   22.6780 C   0  0  0  0  0  0  0  0  0  0  0  0
  -21.3300  -29.4760   22.5240 N   0  0  0  0  0  0  0  0  0  0  0  0
  -23.3160  -29.0480   23.5180 O   0  0  0  0  0  0  0  0  0  0  0  0
  -20.8560  -30.0210   21.8180 H   0  0  0  0  0  0  0  0  0  0  0  0
  -17.9440  -28.2940   22.9650 C   0  0  0  0  0  0  0  0  0  0  0  0
  -20.4940  -28.5530   23.2920 C   0  0  0  0  0  3  0  0  0  0  0  0
  -20.6080  -27.1120   22.7430 C   0  0  0  0  0  2  0  0  0  0  0  0
  -19.5300  -26.7730   21.7090 C   0  0  0  0  0  2  0  0  0  0  0  0
  -18.1340  -26.9320   22.3180 C   0  0  0  0  0  2  0  0  0  0  0  0
  -19.0540  -29.0620   23.4060 C   0  0  0  0  0  0  0  0  0  0  0  0
  -18.8250  -30.3370   23.9670 C   0  0  0  0  0  3  0  0  0  0  0  0
  -17.5170  -30.8440   24.0920 C   0  0  0  0  0  3  0  0  0  0  0  0
  -16.4210  -30.0740   23.6670 C   0  0  0  0  0  3  0  0  0  0  0  0
  -16.6360  -28.8010   23.1090 C   0  0  0  0  0  3  0  0  0  0  0  0
  -25.7940  -32.7110   23.9840 C   0  0  0  0  0  3  0  0  0  0  0  0
  -25.5020  -34.1240   24.2570 N   0  0  0  0  0  0  0  0  0  0  0  0
  -25.8700  -35.1430   23.4670 C   0  0  0  0  0  0  0  0  0  0  0  0
  -26.5610  -34.9910   22.4560 O   0  0  0  0  0  0  0  0  0  0  0  0
  -24.8930  -34.3180   25.0380 H   0  0  0  0  0  0  0  0  0  0  0  0
  -24.1720  -36.9420   23.0160 C   0  0  0  0  0  1  0  0  0  0  0  0
  -25.3940  -36.5540   23.8620 C   0  0  0  0  0  3  0  0  0  0  0  0
  -27.5270  -37.4420   24.6940 C   0  0  0  0  0  1  0  0  0  0  0  0
  -26.4430  -37.5880   23.7250 N   0  0  0  0  0  0  0  0  0  0  0  0
  -26.0480  -38.5190   23.8310 H   0  0  0  0  0  0  0  0  0  0  0  0
  -26.2680  -31.9760   25.2980 C   0  0  1  0  0  0  0  0  0  0  0  0
  -25.1400  -31.7660   26.3340 C   0  0  0  0  0  1  0  0  0  0  0  0
  -26.8650  -30.5890   24.9610 C   0  0  0  0  0  1  0  0  0  0  0  0
  -27.3960  -32.7890   25.9780 C   0  0  0  0  0  1  0  0  0  0  0  0
  2  5  1  0
  3  7  1  0
  4  6  1  0
  4  2  1  0
  4  3  1  0
  5  7  1  0
  5  1  1  0
  7  8  1  1
  7  9  1  0
  9 10  1  0
 11 10  1  0
 12 17  1  0
 13 14  1  0
 13 12  1  0
 15 14  1  0
 15 22  1  0
 15 16  1  0
 17 11  1  0
 17 16  1  0
 18 11  2  0
 19 20  2  0
 20 39  1  0
 21 20  1  0
 21 24  1  0
 22 23  1  0
 22 19  1  0
 23 21  2  0
 24 25  1  0
 25 26  2  0
 27 30  1  0
 27 26  1  0
 28 27  2  0
 29 28  1  0
 29 24  2  0
 30 31  1  0
 31 32  1  0
 32 33  2  0
 34 33  1  0
 34 38  1  0
 35 34  2  0
 36 31  2  0
 36 35  1  0
 37 36  1  0
 39 40  1  0
 40 43  1  0
 40 42  1  0
 41 39  2  0
 44 45  1  0
 44 19  1  0
 46 44  1  0
 47  1  1  0
 47 48  1  0
 49 48  1  0
 49 50  1  0
 51 50  1  0
 52 63  2  0
 53 51  1  0
 53 58  1  0
 54 62  1  0
 54 64  1  0
 55 61  1  0
 55 57  1  0
 56 62  1  0
 57 58  2  0
 57 56  1  0
 59 53  2  0
 60 59  1  0
 60 55  2  0
 61 54  1  0
 62 52  1  0
 64 66  2  0
 65 64  1  0
 67 65  1  0
 68 77  2  0
 68 73  1  0
 69 65  1  0
 69 73  1  0
 70 69  1  0
 71 72  1  0
 71 70  1  0
 72 68  1  0
 73 74  2  0
 74 75  1  0
 76 75  2  0
 77 76  1  0
 78 52  1  0
 78 79  1  0
 78 88  1  0
 79 82  1  0
 80 84  1  0
 80 79  1  0
 81 80  2  0
 84 83  1  0
 86 87  1  0
 86 84  1  0
 86 85  1  0
 88 91  1  1
 88 89  1  0
 90 88  1  0
M  ISO  4  10 100  11 100  50 101  51 101
M  END
>  <TORSDO>  (40) 
F 23

>  <SCORE>  (40) 
-12.362

>  <name>  (40) 
40

>  <ligand_id>  (40) 
40

>  <original_smiles>  (40) 
[H]c1c([H])c([H])c2c(c1[H])C([H])([H])C([H])([H])C([H])([H])C2([H])N([H])C(=O)C1([H])N(C(=O)C([H])(N([H])C(=O)C([H])(N([H])C([H])([H])[H])C([H])([H])[H])C(C([H])([H])[H])(C([H])([H])[H])C([H])([H])[H])C([H])([H])c2c([H])c(OC([H])([H])C([H])([H])C([H])([H])C([H])([H])C([H])([H])C3([H])C([H])([H])C([H])(C([H])([H])[H])C([H])([H])[N+]3([H])C([H])([H])C([H])([H])C(=O)N3C([H])([H])C([H])([H])C([H])([H])C([H])(n4nc(-c5c([H])c([H])c(Oc6c([H])c([H])c(F)c([H])c6F)c([H])c5[H])c(C(=O)N([H])[H])c4N([H])[H])C3([H])[H])c([H])c([H])c2C1([H])[H]

>  <smiles>  (40) 
[H]c1c([H])c([H])c2c(c1[H])C([H])([H])C([H])([H])C([H])([H])C2([H])N([H])C(=O)C1([H])N(C(=O)C([H])(N([H])C(=O)C([H])(N([H])C([H])([H])[H])C([H])([H])[H])C(C([H])([H])[H])(C([H])([H])[H])C([H])([H])[H])C([H])([H])c2c([H])c(OC([H])([H])C([H])([H])C([H])([H])C([H])([H])C([H])([H])C3([H])C([H])([H])C([H])(C([H])([H])[H])C([H])([H])[N+]3([H])C([H])([H])C([H])([H])C(=O)N3C([H])([H])C([H])([H])C([H])([H])C([H])(n4nc(-c5c([H])c([H])c(Oc6c([H])c([H])c(F)c([H])c6F)c([H])c5[H])c(C(=O)N([H])[H])c4N([H])[H])C3([H])[H])c([H])c([H])c2C1([H])[H]

$$$$
41:0:0
     RDKit          3D

 92100  0  0  1  0  0  0  0  0999 V2000
  -26.0780  -22.1490   20.0690 C   0  0  0  0  0  1  0  0  0  0  0  0
  -27.1980  -22.0490   19.0140 C   0  0  0  0  0  3  0  0  0  0  0  0
  -28.3630  -21.2460   19.4810 N   0  0  0  0  0  4  0  0  0  0  0  0
  -29.1560  -21.5700   18.9510 H   0  0  0  0  0  0  0  0  0  0  0  0
  -28.5670  -21.4260   20.4500 H   0  0  0  0  0  0  0  0  0  0  0  0
  -27.1630  -19.0670   20.0040 C   0  0  0  0  0  2  0  0  0  0  0  0
  -27.8030  -17.7870   20.5620 C   0  0  0  0  0  2  0  0  0  0  0  0
  -29.5380  -19.0180   19.6600 C   0  0  0  0  0  2  0  0  0  0  0  0
  -28.2790  -19.7820   19.2280 C   0  0  0  0  0  3  0  0  0  0  0  0
  -29.0460  -17.6480   19.8100 N   0  0  0  0  0  0  0  0  0  0  0  0
  -29.9960  -16.7080   20.4220 C   0  0  0  0  0  2  0  0  0  0  0  0
  -30.7840  -15.9940   19.3050 C   0  0  0  0  0  2  0  0  0  0  0  0
  -31.5740  -14.7100   19.6450 C   0  0  0  0  0  0  0  0  0  0  0  0
  -31.2580  -12.3770   18.9850 C   0  0  0  0  0  2  0  0  0  0  0  0
  -30.3070  -12.3760   17.7720 C   0  0  0  0  0  2  0  0  0  0  0  0
  -28.8330  -12.3230   18.2290 C   0  0  0  0  0  2  0  0  0  0  0  0
  -28.5060  -13.3780   19.3160 C   0  0  0  0  0  3  0  0  0  0  0  0
  -29.5800  -13.3850   20.4260 C   0  0  0  0  0  2  0  0  0  0  0  0
  -30.9050  -13.5390   19.8090 N   0  0  0  0  0  0  0  0  0  0  0  0
  -32.7760  -14.7470   19.3720 O   0  0  0  0  0  0  0  0  0  0  0  0
  -26.2020  -14.1690   20.1360 C   0  0  0  0  0  0  0  0  0  0  0  0
  -25.0940  -13.4780   20.5470 C   0  0  0  0  0  0  0  0  0  0  0  0
  -25.4520  -12.0960   20.5060 C   0  0  0  0  0  0  0  0  0  0  0  0
  -27.1640  -13.2070   19.8640 N   0  0  0  0  0  0  0  0  0  0  0  0
  -26.7210  -11.9570   20.1480 N   0  0  0  0  0  0  0  0  0  0  0  0
  -24.6440  -10.8920   20.7320 C   0  0  0  0  0  0  0  0  0  0  0  0
  -24.9770   -9.9590   21.7380 C   0  0  0  0  0  3  0  0  0  0  0  0
  -24.1750   -8.8160   21.9470 C   0  0  0  0  0  3  0  0  0  0  0  0
  -23.0260   -8.6010   21.1510 C   0  0  0  0  0  0  0  0  0  0  0  0
  -22.7120   -9.5210   20.1350 C   0  0  0  0  0  3  0  0  0  0  0  0
  -23.5150  -10.6540   19.9240 C   0  0  0  0  0  3  0  0  0  0  0  0
  -22.2040   -7.5070   21.2650 O   0  0  0  0  0  0  0  0  0  0  0  0
  -21.9880   -6.8900   22.4710 C   0  0  0  0  0  0  0  0  0  0  0  0
  -21.4730   -7.5920   23.5830 C   0  0  0  0  0  3  0  0  0  0  0  0
  -21.2020   -6.9060   24.7830 C   0  0  0  0  0  3  0  0  0  0  0  0
  -21.4370   -5.5200   24.8710 C   0  0  0  0  0  0  0  0  0  0  0  0
  -21.9460   -4.8190   23.7640 C   0  0  0  0  0  3  0  0  0  0  0  0
  -22.2170   -5.5040   22.5650 C   0  0  0  0  0  0  0  0  0  0  0  0
  -22.6880   -4.8200   21.4930 F   0  0  0  0  0  0  0  0  0  0  0  0
  -21.1670   -4.8590   26.0210 F   0  0  0  0  0  0  0  0  0  0  0  0
  -23.7470  -14.0580   20.8680 C   0  0  0  0  0  0  0  0  0  0  0  0
  -23.0130  -13.4370   21.7860 N   0  0  0  0  0  0  0  0  0  0  0  0
  -23.3560  -15.0970   20.3380 O   0  0  0  0  0  0  0  0  0  0  0  0
  -23.3390  -12.5940   22.2350 H   0  0  0  0  0  0  0  0  0  0  0  0
  -22.1110  -13.8120   22.0450 H   0  0  0  0  0  0  0  0  0  0  0  0
  -26.4640  -15.5240   19.9550 N   0  0  0  0  0  0  0  0  0  0  0  0
  -25.7620  -16.2360   20.1250 H   0  0  0  0  0  0  0  0  0  0  0  0
  -27.3720  -15.9120   19.7210 H   0  0  0  0  0  0  0  0  0  0  0  0
  -27.6240  -23.4340   18.4590 C   0  0  0  0  0  2  0  0  0  0  0  0
  -27.9750  -24.5180   19.5010 C   0  0  0  0  0  2  0  0  0  0  0  0
  -28.4330  -25.8420   18.8430 C   0  0  0  0  0  2  0  0  0  0  0  0
  -28.3180  -26.9660   19.7190 O   0  0  0  0  0  0  0  0  0  0  0  0
  -24.5340  -31.9060   23.1730 C   0  0  0  0  0  0  0  0  0  0  0  0
  -27.1150  -27.6440   19.7900 C   0  0  0  0  0  0  0  0  0  0  0  0
  -23.2900  -30.5800   21.4960 C   0  0  0  0  0  3  0  0  0  0  0  0
  -24.7070  -29.1250   19.9600 C   0  0  0  0  0  0  0  0  0  0  0  0
  -25.8080  -30.9610   21.2520 C   0  0  0  0  0  2  0  0  0  0  0  0
  -25.8780  -29.6210   20.5470 C   0  0  0  0  0  0  0  0  0  0  0  0
  -27.0790  -28.8830   20.4680 C   0  0  0  0  0  3  0  0  0  0  0  0
  -25.9170  -27.1560   19.2120 C   0  0  0  0  0  3  0  0  0  0  0  0
  -24.7200  -27.8880   19.2960 C   0  0  0  0  0  3  0  0  0  0  0  0
  -23.4620  -29.9730   20.0800 C   0  0  0  0  0  2  0  0  0  0  0  0
  -24.5630  -31.1610   22.0320 N   0  0  0  0  0  0  0  0  0  0  0  0
  -23.4670  -32.1460   23.7550 O   0  0  0  0  0  0  0  0  0  0  0  0
  -22.6700  -29.5090   22.4230 C   0  0  0  0  0  0  0  0  0  0  0  0
  -21.3470  -29.3090   22.3020 N   0  0  0  0  0  0  0  0  0  0  0  0
  -23.3740  -28.8630   23.2020 O   0  0  0  0  0  0  0  0  0  0  0  0
  -20.8390  -29.8810   21.6410 H   0  0  0  0  0  0  0  0  0  0  0  0
  -18.0070  -28.0050   22.7500 C   0  0  0  0  0  0  0  0  0  0  0  0
  -20.5560  -28.3270   23.0410 C   0  0  0  0  0  3  0  0  0  0  0  0
  -20.7010  -26.9170   22.4230 C   0  0  0  0  0  2  0  0  0  0  0  0
  -19.6120  -26.5920   21.3960 C   0  0  0  0  0  2  0  0  0  0  0  0
  -18.2240  -26.6800   22.0370 C   0  0  0  0  0  2  0  0  0  0  0  0
  -19.1030  -28.7840   23.2070 C   0  0  0  0  0  0  0  0  0  0  0  0
  -18.8490  -30.0240   23.8330 C   0  0  0  0  0  3  0  0  0  0  0  0
  -17.5300  -30.4870   24.0040 C   0  0  0  0  0  3  0  0  0  0  0  0
  -16.4480  -29.7040   23.5650 C   0  0  0  0  0  3  0  0  0  0  0  0
  -16.6880  -28.4650   22.9440 C   0  0  0  0  0  3  0  0  0  0  0  0
  -25.8350  -32.5120   23.7880 C   0  0  0  0  0  3  0  0  0  0  0  0
  -25.5440  -33.9050   24.1520 N   0  0  0  0  0  0  0  0  0  0  0  0
  -25.8900  -34.9700   23.4150 C   0  0  0  0  0  0  0  0  0  0  0  0
  -26.5580  -34.8800   22.3810 O   0  0  0  0  0  0  0  0  0  0  0  0
  -24.9540  -34.0490   24.9580 H   0  0  0  0  0  0  0  0  0  0  0  0
  -24.1870  -36.7910   23.0940 C   0  0  0  0  0  1  0  0  0  0  0  0
  -25.4190  -36.3520   23.9030 C   0  0  0  0  0  3  0  0  0  0  0  0
  -27.5580  -37.1890   24.7680 C   0  0  0  0  0  1  0  0  0  0  0  0
  -26.4650  -37.3930   23.8200 N   0  0  0  0  0  0  0  0  0  0  0  0
  -26.0710  -38.3150   23.9870 H   0  0  0  0  0  0  0  0  0  0  0  0
  -26.3640  -31.7060   25.0380 C   0  0  1  0  0  0  0  0  0  0  0  0
  -25.2840  -31.4540   26.1150 C   0  0  0  0  0  1  0  0  0  0  0  0
  -26.9310  -30.3350   24.6050 C   0  0  0  0  0  1  0  0  0  0  0  0
  -27.5310  -32.4750   25.7020 C   0  0  0  0  0  1  0  0  0  0  0  0
  2  3  1  0
  2  1  1  0
  3  5  1  0
  4  3  1  0
  6  7  1  0
  8 10  1  0
  9  3  1  0
  9  8  1  0
  9  6  1  0
 10 11  1  0
 10  7  1  0
 12 13  1  0
 12 11  1  0
 13 19  1  0
 14 19  1  0
 15 16  1  0
 15 14  1  0
 17 16  1  0
 17 24  1  0
 17 18  1  0
 19 18  1  0
 20 13  2  0
 21 22  2  0
 22 41  1  0
 23 22  1  0
 23 26  1  0
 24 21  1  0
 24 25  1  0
 25 23  2  0
 26 27  1  0
 27 28  2  0
 29 32  1  0
 29 28  1  0
 30 29  2  0
 31 30  1  0
 31 26  2  0
 32 33  1  0
 33 38  2  0
 33 34  1  0
 34 35  2  0
 35 36  1  0
 36 40  1  0
 37 36  2  0
 38 37  1  0
 39 38  1  0
 41 42  1  0
 42 45  1  0
 42 44  1  0
 43 41  2  0
 46 47  1  0
 46 21  1  0
 48 46  1  0
 49  2  1  0
 49 50  1  0
 51 50  1  0
 51 52  1  0
 52 54  1  0
 53 64  2  0
 54 59  1  0
 55 63  1  0
 55 65  1  0
 56 62  1  0
 56 58  1  0
 57 63  1  0
 58 57  1  0
 59 58  2  0
 60 61  1  0
 60 54  2  0
 61 56  2  0
 62 55  1  0
 63 53  1  0
 65 67  2  0
 66 65  1  0
 68 66  1  0
 69 78  2  0
 69 74  1  0
 70 66  1  0
 70 74  1  0
 71 70  1  0
 72 73  1  0
 72 71  1  0
 73 69  1  0
 74 75  2  0
 75 76  1  0
 77 76  2  0
 78 77  1  0
 79 53  1  0
 79 80  1  0
 79 89  1  0
 80 83  1  0
 81 85  1  0
 81 80  1  0
 82 81  2  0
 85 84  1  0
 87 85  1  0
 87 88  1  0
 87 86  1  0
 89 92  1  1
 89 90  1  0
 91 89  1  0
M  ISO  4  12 100  13 100  51 101  52 101
M  END
>  <TORSDO>  (41) 
F 23

>  <SCORE>  (41) 
-11.047

>  <name>  (41) 
41

>  <ligand_id>  (41) 
41

>  <original_smiles>  (41) 
[H]c1c([H])c([H])c2c(c1[H])C([H])([H])C([H])([H])C([H])([H])C2([H])N([H])C(=O)C1([H])N(C(=O)C([H])(N([H])C(=O)C([H])(N([H])C([H])([H])[H])C([H])([H])[H])C(C([H])([H])[H])(C([H])([H])[H])C([H])([H])[H])C([H])([H])c2c([H])c(OC([H])([H])C([H])([H])C([H])([H])C([H])(C([H])([H])[H])[N+]([H])([H])C3([H])C([H])([H])N(C([H])([H])C([H])([H])C(=O)N4C([H])([H])C([H])([H])C([H])([H])C([H])(n5nc(-c6c([H])c([H])c(Oc7c([H])c([H])c(F)c([H])c7F)c([H])c6[H])c(C(=O)N([H])[H])c5N([H])[H])C4([H])[H])C([H])([H])C3([H])[H])c([H])c([H])c2C1([H])[H]

>  <smiles>  (41) 
[H]c1c([H])c([H])c2c(c1[H])C([H])([H])C([H])([H])C([H])([H])C2([H])N([H])C(=O)C1([H])N(C(=O)C([H])(N([H])C(=O)C([H])(N([H])C([H])([H])[H])C([H])([H])[H])C(C([H])([H])[H])(C([H])([H])[H])C([H])([H])[H])C([H])([H])c2c([H])c(OC([H])([H])C([H])([H])C([H])([H])C([H])(C([H])([H])[H])[N+]([H])([H])C3([H])C([H])([H])N(C([H])([H])C([H])([H])C(=O)N4C([H])([H])C([H])([H])C([H])([H])C([H])(n5nc(-c6c([H])c([H])c(Oc7c([H])c([H])c(F)c([H])c7F)c([H])c6[H])c(C(=O)N([H])[H])c5N([H])[H])C4([H])[H])C([H])([H])C3([H])[H])c([H])c([H])c2C1([H])[H]

$$$$
42:0:0
     RDKit          3D

 96104  0  0  1  0  0  0  0  0999 V2000
  -30.5840  -21.2990   20.8740 C   0  0  0  0  0  3  0  0  0  0  0  0
  -30.5970  -20.4030   19.6770 N   0  0  0  0  0  4  0  0  0  0  0  0
  -30.6580  -21.0130   18.8750 H   0  0  0  0  0  0  0  0  0  0  0  0
  -31.4790  -19.9120   19.7000 H   0  0  0  0  0  0  0  0  0  0  0  0
  -28.1970  -20.0000   18.8620 C   0  0  0  0  0  1  0  0  0  0  0  0
  -29.5310  -19.4010   19.3470 C   0  0  0  0  0  3  0  0  0  0  0  0
  -29.3480  -18.2230   20.3430 C   0  0  0  0  0  2  0  0  0  0  0  0
  -30.1440  -16.9700   19.9390 C   0  0  0  0  0  2  0  0  0  0  0  0
  -30.0520  -15.7800   20.9250 C   0  0  0  0  0  2  0  0  0  0  0  0
  -30.7760  -14.5480   20.3450 C   0  0  0  0  0  0  0  0  0  0  0  0
  -30.4930  -12.4280   19.1370 C   0  0  0  0  0  2  0  0  0  0  0  0
  -29.5270  -12.6830   17.9610 C   0  0  0  0  0  2  0  0  0  0  0  0
  -28.0600  -12.5190   18.4090 C   0  0  0  0  0  2  0  0  0  0  0  0
  -27.7400  -13.2980   19.7160 C   0  0  0  0  0  3  0  0  0  0  0  0
  -28.8190  -13.0280   20.7900 C   0  0  0  0  0  2  0  0  0  0  0  0
  -30.1290  -13.3620   20.2110 N   0  0  0  0  0  0  0  0  0  0  0  0
  -31.9020  -14.7370   19.8740 O   0  0  0  0  0  0  0  0  0  0  0  0
  -25.3320  -13.8440   20.4450 C   0  0  0  0  0  0  0  0  0  0  0  0
  -24.2880  -13.0440   20.8280 C   0  0  0  0  0  0  0  0  0  0  0  0
  -24.7840  -11.7050   20.7950 C   0  0  0  0  0  0  0  0  0  0  0  0
  -26.3990  -12.9910   20.2080 N   0  0  0  0  0  0  0  0  0  0  0  0
  -26.0720  -11.6990   20.4710 N   0  0  0  0  0  0  0  0  0  0  0  0
  -24.0920  -10.4250   20.9980 C   0  0  0  0  0  0  0  0  0  0  0  0
  -24.5350   -9.4910   21.9600 C   0  0  0  0  0  3  0  0  0  0  0  0
  -23.8430   -8.2740   22.1480 C   0  0  0  0  0  3  0  0  0  0  0  0
  -22.6950   -7.9840   21.3740 C   0  0  0  0  0  0  0  0  0  0  0  0
  -22.2730   -8.9070   20.4010 C   0  0  0  0  0  3  0  0  0  0  0  0
  -22.9650  -10.1150   20.2110 C   0  0  0  0  0  3  0  0  0  0  0  0
  -21.9780   -6.8170   21.4690 O   0  0  0  0  0  0  0  0  0  0  0  0
  -21.8810   -6.1250   22.6500 C   0  0  0  0  0  0  0  0  0  0  0  0
  -21.3360   -6.7100   23.8150 C   0  0  0  0  0  3  0  0  0  0  0  0
  -21.1910   -5.9420   24.9870 C   0  0  0  0  0  3  0  0  0  0  0  0
  -21.5830   -4.5900   24.9960 C   0  0  0  0  0  0  0  0  0  0  0  0
  -22.1190   -4.0030   23.8370 C   0  0  0  0  0  3  0  0  0  0  0  0
  -22.2650   -4.7690   22.6660 C   0  0  0  0  0  0  0  0  0  0  0  0
  -22.7650   -4.1940   21.5450 F   0  0  0  0  0  0  0  0  0  0  0  0
  -21.4360   -3.8480   26.1180 F   0  0  0  0  0  0  0  0  0  0  0  0
  -22.8810  -13.4860   21.1150 C   0  0  0  0  0  0  0  0  0  0  0  0
  -22.1800  -12.7680   21.9850 N   0  0  0  0  0  0  0  0  0  0  0  0
  -22.4120  -14.5020   20.6050 O   0  0  0  0  0  0  0  0  0  0  0  0
  -22.5730  -11.9480   22.4240 H   0  0  0  0  0  0  0  0  0  0  0  0
  -21.2370  -13.0470   22.2190 H   0  0  0  0  0  0  0  0  0  0  0  0
  -25.4550  -15.2160   20.2630 N   0  0  0  0  0  0  0  0  0  0  0  0
  -24.6700  -15.8460   20.3830 H   0  0  0  0  0  0  0  0  0  0  0  0
  -26.2930  -15.6840   19.9370 H   0  0  0  0  0  0  0  0  0  0  0  0
  -31.0850  -20.6650   22.2050 C   0  0  0  0  0  2  0  0  0  0  0  0
  -34.7090  -19.4280   21.5800 C   0  0  0  0  0  2  0  0  0  0  0  0
  -34.9380  -20.7960   22.2470 C   0  0  0  0  0  2  0  0  0  0  0  0
  -33.1930  -19.2840   21.3940 C   0  0  0  0  0  2  0  0  0  0  0  0
  -33.5720  -21.4860   22.2700 C   0  0  0  0  0  2  0  0  0  0  0  0
  -32.5880  -20.3160   22.3510 C   0  0  0  0  0  3  0  0  0  0  0  0
  -29.3040  -22.1510   21.0710 C   0  0  0  0  0  2  0  0  0  0  0  0
  -29.0320  -23.1600   19.9330 C   0  0  0  0  0  2  0  0  0  0  0  0
  -28.2450  -24.4020   20.3930 C   0  0  0  0  0  2  0  0  0  0  0  0
  -28.3380  -25.5620   19.3840 C   0  0  0  0  0  2  0  0  0  0  0  0
  -28.2230  -26.8120   20.0520 O   0  0  0  0  0  0  0  0  0  0  0  0
  -24.6460  -31.9730   23.3100 C   0  0  0  0  0  0  0  0  0  0  0  0
  -27.0210  -27.4760   20.1120 C   0  0  0  0  0  0  0  0  0  0  0  0
  -23.3200  -30.6070   21.7300 C   0  0  0  0  0  3  0  0  0  0  0  0
  -24.6580  -29.0180   20.2490 C   0  0  0  0  0  0  0  0  0  0  0  0
  -25.8370  -30.8940   21.4100 C   0  0  0  0  0  2  0  0  0  0  0  0
  -25.8510  -29.5200   20.7810 C   0  0  0  0  0  0  0  0  0  0  0  0
  -27.0290  -28.7500   20.7150 C   0  0  0  0  0  3  0  0  0  0  0  0
  -25.8050  -26.9740   19.5930 C   0  0  0  0  0  3  0  0  0  0  0  0
  -24.6270  -27.7430   19.6590 C   0  0  0  0  0  3  0  0  0  0  0  0
  -23.4410  -29.9110   20.3480 C   0  0  0  0  0  2  0  0  0  0  0  0
  -24.6230  -31.1720   22.2080 N   0  0  0  0  0  0  0  0  0  0  0  0
  -23.6030  -32.2800   23.9010 O   0  0  0  0  0  0  0  0  0  0  0  0
  -22.6880  -29.6080   22.7250 C   0  0  0  0  0  0  0  0  0  0  0  0
  -21.3750  -29.3670   22.5720 N   0  0  0  0  0  0  0  0  0  0  0  0
  -23.3730  -29.0510   23.5860 O   0  0  0  0  0  0  0  0  0  0  0  0
  -20.8820  -29.8650   21.8450 H   0  0  0  0  0  0  0  0  0  0  0  0
  -18.0680  -27.9740   22.9490 C   0  0  0  0  0  0  0  0  0  0  0  0
  -20.5760  -28.4360   23.3670 C   0  0  0  0  0  3  0  0  0  0  0  0
  -20.8180  -26.9760   22.9170 C   0  0  0  0  0  2  0  0  0  0  0  0
  -19.8140  -26.4960   21.8660 C   0  0  0  0  0  2  0  0  0  0  0  0
  -18.3830  -26.5910   22.4040 C   0  0  0  0  0  2  0  0  0  0  0  0
  -19.0990  -28.8450   23.3870 C   0  0  0  0  0  0  0  0  0  0  0  0
  -18.7570  -30.1340   23.8520 C   0  0  0  0  0  3  0  0  0  0  0  0
  -17.4140  -30.5520   23.8900 C   0  0  0  0  0  3  0  0  0  0  0  0
  -16.3950  -29.6790   23.4740 C   0  0  0  0  0  3  0  0  0  0  0  0
  -16.7220  -28.3930   23.0080 C   0  0  0  0  0  3  0  0  0  0  0  0
  -25.9820  -32.5630   23.8630 C   0  0  0  0  0  3  0  0  0  0  0  0
  -25.7260  -33.9570   24.2430 N   0  0  0  0  0  0  0  0  0  0  0  0
  -26.0170  -35.0190   23.4800 C   0  0  0  0  0  0  0  0  0  0  0  0
  -26.6070  -34.9270   22.4000 O   0  0  0  0  0  0  0  0  0  0  0  0
  -25.1960  -34.1040   25.0890 H   0  0  0  0  0  0  0  0  0  0  0  0
  -24.2920  -36.8390   23.2990 C   0  0  0  0  0  1  0  0  0  0  0  0
  -25.5880  -36.4040   24.0000 C   0  0  0  0  0  3  0  0  0  0  0  0
  -27.7900  -37.2520   24.6780 C   0  0  0  0  0  1  0  0  0  0  0  0
  -26.6220  -37.4460   23.8230 N   0  0  0  0  0  0  0  0  0  0  0  0
  -26.2400  -38.3690   24.0130 H   0  0  0  0  0  0  0  0  0  0  0  0
  -26.5620  -31.7480   25.0850 C   0  0  1  0  0  0  0  0  0  0  0  0
  -25.5300  -31.4990   26.2090 C   0  0  0  0  0  1  0  0  0  0  0  0
  -27.0980  -30.3720   24.6190 C   0  0  0  0  0  1  0  0  0  0  0  0
  -27.7590  -32.5100   25.7030 C   0  0  0  0  0  1  0  0  0  0  0  0
  1 52  1  0
  1 46  1  0
  2  4  1  0
  2  1  1  0
  3  2  1  0
  6  5  1  0
  6  2  1  0
  6  7  1  0
  8  7  1  0
  8  9  1  0
 10  9  1  0
 11 16  1  0
 12 13  1  0
 12 11  1  0
 14 13  1  0
 14 21  1  0
 14 15  1  0
 16 10  1  0
 16 15  1  0
 17 10  2  0
 18 19  2  0
 19 38  1  0
 20 19  1  0
 20 23  1  0
 21 18  1  0
 21 22  1  0
 22 20  2  0
 23 24  1  0
 24 25  2  0
 26 29  1  0
 26 25  1  0
 27 26  2  0
 28 27  1  0
 28 23  2  0
 29 30  1  0
 30 35  2  0
 30 31  1  0
 31 32  2  0
 32 33  1  0
 33 37  1  0
 34 33  2  0
 35 34  1  0
 36 35  1  0
 38 39  1  0
 39 42  1  0
 39 41  1  0
 40 38  2  0
 43 44  1  0
 43 18  1  0
 45 43  1  0
 46 51  1  0
 47 48  1  0
 48 50  1  0
 49 47  1  0
 49 51  1  0
 50 51  1  0
 53 54  1  0
 53 52  1  0
 55 56  1  0
 55 54  1  0
 56 58  1  0
 57 68  2  0
 58 63  1  0
 59 67  1  0
 59 69  1  0
 60 66  1  0
 60 62  1  0
 61 67  1  0
 62 61  1  0
 63 62  2  0
 64 65  1  0
 64 58  2  0
 65 60  2  0
 66 59  1  0
 67 57  1  0
 69 71  2  0
 70 69  1  0
 72 70  1  0
 73 82  2  0
 73 78  1  0
 74 70  1  0
 74 78  1  0
 75 74  1  0
 76 77  1  0
 76 75  1  0
 77 73  1  0
 78 79  2  0
 79 80  1  0
 81 80  2  0
 82 81  1  0
 83 57  1  0
 83 84  1  0
 83 93  1  0
 84 87  1  0
 85 89  1  0
 85 84  1  0
 86 85  2  0
 89 88  1  0
 91 89  1  0
 91 92  1  0
 91 90  1  0
 93 96  1  1
 93 94  1  0
 95 93  1  0
M  ISO  4   9 100  10 100  55 101  56 101
M  END
>  <TORSDO>  (42) 
F 27

>  <SCORE>  (42) 
-11.463

>  <name>  (42) 
42

>  <ligand_id>  (42) 
42

>  <original_smiles>  (42) 
[H]c1c([H])c([H])c2c(c1[H])C([H])([H])C([H])([H])C([H])([H])C2([H])N([H])C(=O)C1([H])N(C(=O)C([H])(N([H])C(=O)C([H])(N([H])C([H])([H])[H])C([H])([H])[H])C(C([H])([H])[H])(C([H])([H])[H])C([H])([H])[H])C([H])([H])c2c([H])c(OC([H])([H])C([H])([H])C([H])([H])C([H])([H])C([H])(C([H])([H])C3([H])C([H])([H])C([H])([H])C([H])([H])C3([H])[H])[N+]([H])([H])C([H])(C([H])([H])[H])C([H])([H])C([H])([H])C([H])([H])C(=O)N3C([H])([H])C([H])([H])C([H])([H])C([H])(n4nc(-c5c([H])c([H])c(Oc6c([H])c([H])c(F)c([H])c6F)c([H])c5[H])c(C(=O)N([H])[H])c4N([H])[H])C3([H])[H])c([H])c([H])c2C1([H])[H]

>  <smiles>  (42) 
[H]c1c([H])c([H])c2c(c1[H])C([H])([H])C([H])([H])C([H])([H])C2([H])N([H])C(=O)C1([H])N(C(=O)C([H])(N([H])C(=O)C([H])(N([H])C([H])([H])[H])C([H])([H])[H])C(C([H])([H])[H])(C([H])([H])[H])C([H])([H])[H])C([H])([H])c2c([H])c(OC([H])([H])C([H])([H])C([H])([H])C([H])([H])C([H])(C([H])([H])C3([H])C([H])([H])C([H])([H])C([H])([H])C3([H])[H])[N+]([H])([H])C([H])(C([H])([H])[H])C([H])([H])C([H])([H])C([H])([H])C(=O)N3C([H])([H])C([H])([H])C([H])([H])C([H])(n4nc(-c5c([H])c([H])c(Oc6c([H])c([H])c(F)c([H])c6F)c([H])c5[H])c(C(=O)N([H])[H])c4N([H])[H])C3([H])[H])c([H])c([H])c2C1([H])[H]

$$$$
43:0:0
     RDKit          3D

 97105  0  0  1  0  0  0  0  0999 V2000
  -29.8910  -21.1370   20.4910 C   0  0  0  0  0  3  0  0  0  0  0  0
  -33.5950  -21.7390   21.1410 C   0  0  0  0  0  2  0  0  0  0  0  0
  -32.3100  -22.1530   20.4210 C   0  0  0  0  0  2  0  0  0  0  0  0
  -33.2470  -20.4120   21.8240 C   0  0  0  0  0  2  0  0  0  0  0  0
  -31.1840  -21.5250   21.2600 C   0  0  0  0  0  3  0  0  0  0  0  0
  -31.7750  -20.3220   21.8620 N   0  0  0  0  0  4  0  0  0  0  0  0
  -31.4220  -20.1490   22.7870 H   0  0  0  0  0  0  0  0  0  0  0  0
  -31.4610  -19.5940   21.2300 H   0  0  0  0  0  0  0  0  0  0  0  0
  -30.2930  -20.0140   19.5660 N   0  0  0  0  0  0  0  0  0  0  0  0
  -30.3490  -20.3480   18.6090 H   0  0  0  0  0  0  0  0  0  0  0  0
  -29.6610  -18.6540   19.6140 C   0  0  0  0  0  3  0  0  0  0  0  0
  -29.0490  -18.3750   18.2110 C   0  0  0  0  0  2  0  0  0  0  0  0
  -26.7790  -19.5100   18.5080 C   0  0  0  0  0  1  0  0  0  0  0  0
  -27.6720  -19.0410   16.1990 C   0  0  0  0  0  1  0  0  0  0  0  0
  -28.0480  -19.4030   17.6460 C   0  0  0  0  0  3  0  0  0  0  0  0
  -30.6890  -17.4730   19.9740 C   0  0  0  0  0  2  0  0  0  0  0  0
  -30.1250  -16.0920   20.5550 C   0  0  0  0  0  2  0  0  0  0  0  0
  -30.9300  -14.7540   20.2880 C   0  0  0  0  0  0  0  0  0  0  0  0
  -30.7310  -12.4190   19.4520 C   0  0  0  0  0  2  0  0  0  0  0  0
  -29.8230  -12.4350   18.1980 C   0  0  0  0  0  2  0  0  0  0  0  0
  -28.3400  -12.3200   18.5940 C   0  0  0  0  0  2  0  0  0  0  0  0
  -27.9560  -13.3050   19.7290 C   0  0  0  0  0  3  0  0  0  0  0  0
  -28.9770  -13.2670   20.8890 C   0  0  0  0  0  2  0  0  0  0  0  0
  -30.3070  -13.5330   20.3210 N   0  0  0  0  0  0  0  0  0  0  0  0
  -32.1040  -14.8460   19.9190 O   0  0  0  0  0  0  0  0  0  0  0  0
  -25.5750  -14.0070   20.3840 C   0  0  0  0  0  0  0  0  0  0  0  0
  -24.4760  -13.2800   20.7430 C   0  0  0  0  0  0  0  0  0  0  0  0
  -24.8900  -11.9140   20.7560 C   0  0  0  0  0  0  0  0  0  0  0  0
  -26.5920  -13.0870   20.1930 N   0  0  0  0  0  0  0  0  0  0  0  0
  -26.1850  -11.8240   20.4820 N   0  0  0  0  0  0  0  0  0  0  0  0
  -24.1150  -10.6820   20.9500 C   0  0  0  0  0  0  0  0  0  0  0  0
  -24.5080   -9.7040   21.8880 C   0  0  0  0  0  3  0  0  0  0  0  0
  -23.7310   -8.5400   22.0760 C   0  0  0  0  0  3  0  0  0  0  0  0
  -22.5530   -8.3410   21.3140 C   0  0  0  0  0  0  0  0  0  0  0  0
  -22.1810   -9.3100   20.3620 C   0  0  0  0  0  3  0  0  0  0  0  0
  -22.9550  -10.4670   20.1770 C   0  0  0  0  0  3  0  0  0  0  0  0
  -21.7540   -7.2290   21.4090 O   0  0  0  0  0  0  0  0  0  0  0  0
  -21.6890   -6.4880   22.5630 C   0  0  0  0  0  0  0  0  0  0  0  0
  -21.3030   -7.0630   23.7950 C   0  0  0  0  0  3  0  0  0  0  0  0
  -21.1710   -6.2510   24.9380 C   0  0  0  0  0  3  0  0  0  0  0  0
  -21.4260   -4.8680   24.8540 C   0  0  0  0  0  0  0  0  0  0  0  0
  -21.8190   -4.2970   23.6320 C   0  0  0  0  0  3  0  0  0  0  0  0
  -21.9470   -5.1050   22.4890 C   0  0  0  0  0  0  0  0  0  0  0  0
  -22.2960   -4.5450   21.3060 F   0  0  0  0  0  0  0  0  0  0  0  0
  -21.2960   -4.0880   25.9490 F   0  0  0  0  0  0  0  0  0  0  0  0
  -23.0940  -13.8120   20.9810 C   0  0  0  0  0  0  0  0  0  0  0  0
  -22.3410  -13.1720   21.8650 N   0  0  0  0  0  0  0  0  0  0  0  0
  -22.6910  -14.8280   20.4160 O   0  0  0  0  0  0  0  0  0  0  0  0
  -22.6830  -12.3480   22.3370 H   0  0  0  0  0  0  0  0  0  0  0  0
  -21.4190  -13.5240   22.0830 H   0  0  0  0  0  0  0  0  0  0  0  0
  -25.7830  -15.3690   20.1870 N   0  0  0  0  0  0  0  0  0  0  0  0
  -25.0390  -16.0510   20.3000 H   0  0  0  0  0  0  0  0  0  0  0  0
  -26.6540  -15.7810   19.8920 H   0  0  0  0  0  0  0  0  0  0  0  0
  -29.1940  -22.4160   19.8130 C   0  0  0  0  0  2  0  0  0  0  0  0
  -29.1930  -23.8440   20.5400 C   0  0  0  0  0  3  0  0  0  0  0  0
  -28.2450  -24.9640   19.9160 C   0  0  0  0  0  3  0  0  0  0  0  0
  -28.4200  -26.4000   20.2500 O   0  0  0  0  0  0  0  0  0  0  0  0
  -24.5870  -31.7640   23.1840 C   0  0  0  0  0  0  0  0  0  0  0  0
  -27.3020  -27.2480   20.1550 C   0  0  0  0  0  0  0  0  0  0  0  0
  -23.4330  -30.3750   21.5010 C   0  0  0  0  0  3  0  0  0  0  0  0
  -24.9260  -28.8470   20.1000 C   0  0  0  0  0  0  0  0  0  0  0  0
  -25.9710  -30.7090   21.3840 C   0  0  0  0  0  2  0  0  0  0  0  0
  -26.0780  -29.3370   20.7290 C   0  0  0  0  0  0  0  0  0  0  0  0
  -27.2670  -28.5480   20.7510 C   0  0  0  0  0  3  0  0  0  0  0  0
  -26.1300  -26.8240   19.4830 C   0  0  0  0  0  3  0  0  0  0  0  0
  -24.9530  -27.5940   19.4720 C   0  0  0  0  0  3  0  0  0  0  0  0
  -23.6830  -29.7120   20.1230 C   0  0  0  0  0  2  0  0  0  0  0  0
  -24.6810  -30.9670   22.0800 N   0  0  0  0  0  0  0  0  0  0  0  0
  -23.4890  -32.0310   23.6930 O   0  0  0  0  0  0  0  0  0  0  0  0
  -22.7520  -29.3450   22.4330 C   0  0  0  0  0  0  0  0  0  0  0  0
  -21.4280  -29.1710   22.2740 N   0  0  0  0  0  0  0  0  0  0  0  0
  -23.4140  -28.7070   23.2570 O   0  0  0  0  0  0  0  0  0  0  0  0
  -20.9530  -29.7330   21.5820 H   0  0  0  0  0  0  0  0  0  0  0  0
  -18.0400  -27.9920   22.7180 C   0  0  0  0  0  0  0  0  0  0  0  0
  -20.5970  -28.2250   23.0210 C   0  0  0  0  0  3  0  0  0  0  0  0
  -20.6950  -26.8040   22.4200 C   0  0  0  0  0  2  0  0  0  0  0  0
  -19.6030  -26.5100   21.3870 C   0  0  0  0  0  2  0  0  0  0  0  0
  -18.2140  -26.6550   22.0160 C   0  0  0  0  0  2  0  0  0  0  0  0
  -19.1610  -28.7350   23.1750 C   0  0  0  0  0  0  0  0  0  0  0  0
  -18.9460  -29.9890   23.7890 C   0  0  0  0  0  3  0  0  0  0  0  0
  -17.6450  -30.4970   23.9530 C   0  0  0  0  0  3  0  0  0  0  0  0
  -16.5390  -29.7500   23.5130 C   0  0  0  0  0  3  0  0  0  0  0  0
  -16.7370  -28.4990   22.9030 C   0  0  0  0  0  3  0  0  0  0  0  0
  -25.8510  -32.3990   23.8410 C   0  0  0  0  0  3  0  0  0  0  0  0
  -26.3370  -31.6250   25.1280 C   0  0  1  0  0  0  0  0  0  0  0  0
  -25.2130  -31.3760   26.1590 C   0  0  0  0  0  1  0  0  0  0  0  0
  -26.9420  -30.2520   24.7500 C   0  0  0  0  0  1  0  0  0  0  0  0
  -27.4630  -32.4210   25.8290 C   0  0  0  0  0  1  0  0  0  0  0  0
  -25.5290  -33.7960   24.1650 N   0  0  0  0  0  0  0  0  0  0  0  0
  -25.8820  -34.8520   23.4210 C   0  0  0  0  0  0  0  0  0  0  0  0
  -26.5830  -34.7540   22.4110 O   0  0  0  0  0  0  0  0  0  0  0  0
  -24.9070  -33.9470   24.9450 H   0  0  0  0  0  0  0  0  0  0  0  0
  -24.1510  -36.6360   23.0330 C   0  0  0  0  0  1  0  0  0  0  0  0
  -25.3760  -36.2370   23.8700 C   0  0  0  0  0  3  0  0  0  0  0  0
  -27.4850  -37.1320   24.7540 C   0  0  0  0  0  1  0  0  0  0  0  0
  -26.4030  -37.2970   23.7860 N   0  0  0  0  0  0  0  0  0  0  0  0
  -25.9870  -38.2130   23.9320 H   0  0  0  0  0  0  0  0  0  0  0  0
  1 54  1  0
  2  4  1  0
  3  2  1  0
  3  5  1  0
  4  6  1  0
  5  1  1  0
  5  6  1  0
  6  7  1  0
  8  6  1  0
  9 11  1  0
  9  1  1  0
 10  9  1  0
 11 12  1  0
 11 16  1  0
 14 15  1  0
 15 12  1  0
 15 13  1  0
 16 17  1  0
 18 24  1  0
 18 17  1  0
 19 24  1  0
 20 21  1  0
 20 19  1  0
 22 21  1  0
 22 29  1  0
 22 23  1  0
 24 23  1  0
 25 18  2  0
 26 27  2  0
 27 28  1  0
 27 46  1  0
 28 31  1  0
 29 26  1  0
 29 30  1  0
 30 28  2  0
 31 32  1  0
 32 33  2  0
 34 37  1  0
 34 33  1  0
 35 34  2  0
 36 35  1  0
 36 31  2  0
 37 38  1  0
 38 39  1  0
 39 40  2  0
 41 40  1  0
 41 45  1  0
 42 41  2  0
 43 38  2  0
 43 42  1  0
 44 43  1  0
 46 47  1  0
 47 50  1  0
 47 49  1  0
 48 46  2  0
 51 52  1  0
 51 26  1  0
 53 51  1  0
 54 55  1  0
 56 57  1  0
 56 55  2  0
 58 69  2  0
 59 57  1  0
 59 64  1  0
 60 68  1  0
 60 70  1  0
 61 67  1  0
 61 63  1  0
 62 68  1  0
 63 64  2  0
 63 62  1  0
 65 59  2  0
 66 65  1  0
 66 61  2  0
 67 60  1  0
 68 58  1  0
 70 72  2  0
 71 70  1  0
 73 71  1  0
 74 83  2  0
 74 79  1  0
 75 71  1  0
 75 79  1  0
 76 75  1  0
 77 78  1  0
 77 76  1  0
 78 74  1  0
 79 80  2  0
 80 81  1  0
 82 81  2  0
 83 82  1  0
 84 58  1  0
 84 89  1  0
 84 85  1  0
 85 88  1  1
 85 86  1  0
 87 85  1  0
 89 92  1  0
 90 94  1  0
 90 89  1  0
 91 90  2  0
 94 93  1  0
 96 94  1  0
 96 97  1  0
 96 95  1  0
M  ISO  4  17 100  18 100  56 101  57 101
M  END
>  <TORSDO>  (43) 
F 26

>  <SCORE>  (43) 
-11.870

>  <name>  (43) 
43

>  <ligand_id>  (43) 
43

>  <original_smiles>  (43) 
[H]c1c([H])c([H])c2c(c1[H])C([H])([H])C([H])([H])C([H])([H])C2([H])N([H])C(=O)C1([H])N(C(=O)C([H])(N([H])C(=O)C([H])(N([H])C([H])([H])[H])C([H])([H])[H])C(C([H])([H])[H])(C([H])([H])[H])C([H])([H])[H])C([H])([H])c2c([H])c(OC([H])([H])C([H])([H])C([H])([H])C([H])(N([H])C([H])(C([H])([H])C([H])([H])C(=O)N3C([H])([H])C([H])([H])C([H])([H])C([H])(n4nc(-c5c([H])c([H])c(Oc6c([H])c([H])c(F)c([H])c6F)c([H])c5[H])c(C(=O)N([H])[H])c4N([H])[H])C3([H])[H])C([H])([H])C([H])(C([H])([H])[H])C([H])([H])[H])C3([H])C([H])([H])C([H])([H])C([H])([H])[N+]3([H])[H])c([H])c([H])c2C1([H])[H]

>  <smiles>  (43) 
[H]c1c([H])c([H])c2c(c1[H])C([H])([H])C([H])([H])C([H])([H])C2([H])N([H])C(=O)C1([H])N(C(=O)C([H])(N([H])C(=O)C([H])(N([H])C([H])([H])[H])C([H])([H])[H])C(C([H])([H])[H])(C([H])([H])[H])C([H])([H])[H])C([H])([H])c2c([H])c(OC([H])([H])C([H])([H])C([H])([H])C([H])(N([H])C([H])(C([H])([H])C([H])([H])C(=O)N3C([H])([H])C([H])([H])C([H])([H])C([H])(n4nc(-c5c([H])c([H])c(Oc6c([H])c([H])c(F)c([H])c6F)c([H])c5[H])c(C(=O)N([H])[H])c4N([H])[H])C3([H])[H])C([H])([H])C([H])(C([H])([H])[H])C([H])([H])[H])C3([H])C([H])([H])C([H])([H])C([H])([H])[N+]3([H])[H])c([H])c([H])c2C1([H])[H]

$$$$
44:0:0
     RDKit          3D

 94103  0  0  1  0  0  0  0  0999 V2000
  -30.9250  -16.6160   22.0800 C   0  0  0  0  0  2  0  0  0  0  0  0
  -27.7410  -18.5650   19.6540 C   0  0  0  0  0  2  0  0  0  0  0  0
  -31.8070  -17.7210   21.4370 C   0  0  0  0  0  2  0  0  0  0  0  0
  -27.7810  -20.0710   19.8610 C   0  0  0  0  0  2  0  0  0  0  0  0
  -29.3860  -16.6470   20.0060 C   0  0  0  0  0  2  0  0  0  0  0  0
  -29.9850  -15.7900   21.1470 C   0  0  0  0  0  3  0  0  0  0  0  0
  -28.9740  -18.0740   20.4070 C   0  0  0  0  0  3  0  0  0  0  0  0
  -30.0680  -19.1340   20.1370 C   0  0  0  0  0  3  0  0  0  0  0  0
  -31.1670  -19.1330   21.2400 C   0  0  0  0  0  3  0  0  0  0  0  0
  -29.2740  -20.4380   19.7540 C   0  0  0  0  0  3  0  0  0  0  0  0
  -32.3160  -20.1170   20.9220 C   0  0  0  0  0  1  0  0  0  0  0  0
  -30.6510  -14.5140   20.5430 C   0  0  0  0  0  0  0  0  0  0  0  0
  -30.3530  -12.3490   19.3860 C   0  0  0  0  0  2  0  0  0  0  0  0
  -29.4340  -12.5480   18.1610 C   0  0  0  0  0  2  0  0  0  0  0  0
  -27.9500  -12.4050   18.5570 C   0  0  0  0  0  2  0  0  0  0  0  0
  -27.5920  -13.2460   19.8100 C   0  0  0  0  0  3  0  0  0  0  0  0
  -28.6270  -13.0350   20.9370 C   0  0  0  0  0  2  0  0  0  0  0  0
  -29.9650  -13.3410   20.4050 N   0  0  0  0  0  0  0  0  0  0  0  0
  -31.7820  -14.6520   20.0690 O   0  0  0  0  0  0  0  0  0  0  0  0
  -25.1850  -13.8850   20.4600 C   0  0  0  0  0  0  0  0  0  0  0  0
  -24.1050  -13.1240   20.8180 C   0  0  0  0  0  0  0  0  0  0  0  0
  -24.5610  -11.7700   20.8220 C   0  0  0  0  0  0  0  0  0  0  0  0
  -26.2290  -12.9910   20.2650 N   0  0  0  0  0  0  0  0  0  0  0  0
  -25.8560  -11.7170   20.5420 N   0  0  0  0  0  0  0  0  0  0  0  0
  -23.8260  -10.5140   21.0200 C   0  0  0  0  0  0  0  0  0  0  0  0
  -24.2550   -9.5500   21.9590 C   0  0  0  0  0  3  0  0  0  0  0  0
  -23.5250   -8.3570   22.1440 C   0  0  0  0  0  3  0  0  0  0  0  0
  -22.3520   -8.1200   21.3890 C   0  0  0  0  0  0  0  0  0  0  0  0
  -21.9430   -9.0720   20.4380 C   0  0  0  0  0  3  0  0  0  0  0  0
  -22.6750  -10.2570   20.2520 C   0  0  0  0  0  3  0  0  0  0  0  0
  -21.5930   -6.9790   21.4810 O   0  0  0  0  0  0  0  0  0  0  0  0
  -21.5560   -6.2310   22.6310 C   0  0  0  0  0  0  0  0  0  0  0  0
  -21.1630   -6.7870   23.8680 C   0  0  0  0  0  3  0  0  0  0  0  0
  -21.0720   -5.9670   25.0100 C   0  0  0  0  0  3  0  0  0  0  0  0
  -21.3630   -4.5930   24.9170 C   0  0  0  0  0  0  0  0  0  0  0  0
  -21.7470   -4.0370   23.6840 C   0  0  0  0  0  3  0  0  0  0  0  0
  -21.8410   -4.8540   22.5440 C   0  0  0  0  0  0  0  0  0  0  0  0
  -22.1920   -4.3100   21.3540 F   0  0  0  0  0  0  0  0  0  0  0  0
  -21.2670   -3.8030   26.0110 F   0  0  0  0  0  0  0  0  0  0  0  0
  -22.7040  -13.6110   21.0540 C   0  0  0  0  0  0  0  0  0  0  0  0
  -21.9570  -12.9330   21.9180 N   0  0  0  0  0  0  0  0  0  0  0  0
  -22.2780  -14.6270   20.5050 O   0  0  0  0  0  0  0  0  0  0  0  0
  -22.3130  -12.1120   22.3840 H   0  0  0  0  0  0  0  0  0  0  0  0
  -21.0150  -13.2380   22.1160 H   0  0  0  0  0  0  0  0  0  0  0  0
  -25.3620  -15.2500   20.2610 N   0  0  0  0  0  0  0  0  0  0  0  0
  -24.6010  -15.9150   20.3410 H   0  0  0  0  0  0  0  0  0  0  0  0
  -26.2300  -15.6750   19.9630 H   0  0  0  0  0  0  0  0  0  0  0  0
  -29.6090  -21.7240   20.4330 N   0  0  0  0  0  4  0  0  0  0  0  0
  -30.5820  -21.9220   20.2590 H   0  0  0  0  0  0  0  0  0  0  0  0
  -29.4860  -21.6280   21.4280 H   0  0  0  0  0  0  0  0  0  0  0  0
  -28.7900  -22.8670   19.9400 C   0  0  0  0  0  2  0  0  0  0  0  0
  -29.2260  -24.2930   20.3740 C   0  0  0  0  0  2  0  0  0  0  0  0
  -28.1470  -25.2860   19.8880 C   0  0  0  0  0  2  0  0  0  0  0  0
  -28.3250  -26.6840   20.1800 O   0  0  0  0  0  0  0  0  0  0  0  0
  -24.5690  -31.9080   23.2380 C   0  0  0  0  0  0  0  0  0  0  0  0
  -27.1670  -27.4500   20.1330 C   0  0  0  0  0  0  0  0  0  0  0  0
  -23.3460  -30.5120   21.6070 C   0  0  0  0  0  3  0  0  0  0  0  0
  -24.7800  -28.9820   20.1620 C   0  0  0  0  0  0  0  0  0  0  0  0
  -25.8720  -30.8600   21.3900 C   0  0  0  0  0  2  0  0  0  0  0  0
  -25.9480  -29.4920   20.7450 C   0  0  0  0  0  0  0  0  0  0  0  0
  -27.1430  -28.7330   20.7300 C   0  0  0  0  0  3  0  0  0  0  0  0
  -25.9790  -26.9790   19.5170 C   0  0  0  0  0  3  0  0  0  0  0  0
  -24.7890  -27.7240   19.5450 C   0  0  0  0  0  3  0  0  0  0  0  0
  -23.5410  -29.8430   20.2230 C   0  0  0  0  0  2  0  0  0  0  0  0
  -24.6150  -31.1080   22.1350 N   0  0  0  0  0  0  0  0  0  0  0  0
  -23.4940  -32.1820   23.7880 O   0  0  0  0  0  0  0  0  0  0  0  0
  -22.7010  -29.4880   22.5690 C   0  0  0  0  0  0  0  0  0  0  0  0
  -21.3770  -29.3040   22.4480 N   0  0  0  0  0  0  0  0  0  0  0  0
  -23.3900  -28.8620   23.3790 O   0  0  0  0  0  0  0  0  0  0  0  0
  -20.8810  -29.8610   21.7660 H   0  0  0  0  0  0  0  0  0  0  0  0
  -18.0070  -28.0990   22.9490 C   0  0  0  0  0  0  0  0  0  0  0  0
  -20.5630  -28.3670   23.2230 C   0  0  0  0  0  3  0  0  0  0  0  0
  -20.6730  -26.9320   22.6570 C   0  0  0  0  0  2  0  0  0  0  0  0
  -19.5740  -26.6000   21.6420 C   0  0  0  0  0  2  0  0  0  0  0  0
  -18.1890  -26.7460   22.2820 C   0  0  0  0  0  2  0  0  0  0  0  0
  -19.1220  -28.8680   23.3750 C   0  0  0  0  0  0  0  0  0  0  0  0
  -18.9000  -30.1350   23.9560 C   0  0  0  0  0  3  0  0  0  0  0  0
  -17.5950  -30.6330   24.1190 C   0  0  0  0  0  3  0  0  0  0  0  0
  -16.4930  -29.8620   23.7090 C   0  0  0  0  0  3  0  0  0  0  0  0
  -16.7000  -28.5970   23.1290 C   0  0  0  0  0  3  0  0  0  0  0  0
  -25.8620  -32.5360   23.8450 C   0  0  0  0  0  3  0  0  0  0  0  0
  -26.3920  -31.7600   25.1120 C   0  0  1  0  0  0  0  0  0  0  0  0
  -25.3130  -31.5240   26.1940 C   0  0  0  0  0  1  0  0  0  0  0  0
  -26.9670  -30.3820   24.7090 C   0  0  0  0  0  1  0  0  0  0  0  0
  -27.5510  -32.5500   25.7630 C   0  0  0  0  0  1  0  0  0  0  0  0
  -25.5600  -33.9330   24.1780 N   0  0  0  0  0  0  0  0  0  0  0  0
  -25.8840  -34.9840   23.4130 C   0  0  0  0  0  0  0  0  0  0  0  0
  -26.5410  -34.8780   22.3730 O   0  0  0  0  0  0  0  0  0  0  0  0
  -24.9740  -34.0880   24.9860 H   0  0  0  0  0  0  0  0  0  0  0  0
  -24.1470  -36.7740   23.0850 C   0  0  0  0  0  1  0  0  0  0  0  0
  -25.4020  -36.3730   23.8770 C   0  0  0  0  0  3  0  0  0  0  0  0
  -27.5520  -37.2580   24.6660 C   0  0  0  0  0  1  0  0  0  0  0  0
  -26.4320  -37.4260   23.7430 N   0  0  0  0  0  0  0  0  0  0  0  0
  -26.0280  -38.3460   23.9010 H   0  0  0  0  0  0  0  0  0  0  0  0
  2  4  1  0
  3  1  1  0
  5  7  1  0
  5  6  1  0
  6 12  1  0
  6  1  1  0
  7  2  1  0
  8  7  1  0
  8  9  1  0
  9  3  1  0
 10  4  1  0
 10  8  1  0
 10 48  1  0
 11  9  1  0
 13 18  1  0
 14 15  1  0
 14 13  1  0
 15 16  1  0
 16 23  1  0
 16 17  1  0
 18 12  1  0
 18 17  1  0
 19 12  2  0
 20 21  2  0
 21 22  1  0
 21 40  1  0
 22 25  1  0
 23 20  1  0
 23 24  1  0
 24 22  2  0
 25 26  1  0
 26 27  2  0
 28 31  1  0
 28 27  1  0
 29 28  2  0
 30 29  1  0
 30 25  2  0
 31 32  1  0
 32 33  1  0
 33 34  2  0
 35 34  1  0
 35 39  1  0
 36 35  2  0
 37 32  2  0
 37 36  1  0
 38 37  1  0
 40 41  1  0
 41 44  1  0
 41 43  1  0
 42 40  2  0
 45 46  1  0
 45 20  1  0
 47 45  1  0
 48 50  1  0
 49 48  1  0
 51 52  1  0
 51 48  1  0
 53 54  1  0
 53 52  1  0
 55 66  2  0
 55 81  1  0
 56 54  1  0
 56 61  1  0
 57 65  1  0
 57 67  1  0
 58 64  1  0
 58 60  1  0
 59 65  1  0
 60 59  1  0
 61 60  2  0
 62 63  1  0
 62 56  2  0
 63 58  2  0
 64 57  1  0
 65 55  1  0
 67 69  2  0
 68 67  1  0
 68 72  1  0
 70 68  1  0
 71 80  2  0
 71 76  1  0
 72 76  1  0
 73 72  1  0
 74 75  1  0
 74 73  1  0
 75 71  1  0
 76 77  2  0
 77 78  1  0
 79 78  2  0
 80 79  1  0
 81 86  1  0
 81 82  1  0
 82 85  1  1
 82 83  1  0
 84 82  1  0
 86 89  1  0
 87 91  1  0
 87 86  1  0
 88 87  2  0
 90 91  1  0
 93 91  1  0
 93 94  1  0
 93 92  1  0
M  ISO  4   6 100  12 100  53 101  54 101
M  END
>  <TORSDO>  (44) 
F 20

>  <SCORE>  (44) 
-14.122

>  <name>  (44) 
44

>  <ligand_id>  (44) 
44

>  <original_smiles>  (44) 
[H]c1c([H])c([H])c2c(c1[H])C([H])([H])C([H])([H])C([H])([H])C2([H])N([H])C(=O)C1([H])N(C(=O)C([H])(N([H])C(=O)C([H])(N([H])C([H])([H])[H])C([H])([H])[H])C(C([H])([H])[H])(C([H])([H])[H])C([H])([H])[H])C([H])([H])c2c([H])c(OC([H])([H])C([H])([H])C([H])([H])[N+]([H])([H])C3([H])C([H])([H])C([H])([H])C4([H])C([H])([H])C([H])(C(=O)N5C([H])([H])C([H])([H])C([H])([H])C([H])(n6nc(-c7c([H])c([H])c(Oc8c([H])c([H])c(F)c([H])c8F)c([H])c7[H])c(C(=O)N([H])[H])c6N([H])[H])C5([H])[H])C([H])([H])C([H])([H])C([H])(C([H])([H])[H])C43[H])c([H])c([H])c2C1([H])[H]

>  <smiles>  (44) 
[H]c1c([H])c([H])c2c(c1[H])C([H])([H])C([H])([H])C([H])([H])C2([H])N([H])C(=O)C1([H])N(C(=O)C([H])(N([H])C(=O)C([H])(N([H])C([H])([H])[H])C([H])([H])[H])C(C([H])([H])[H])(C([H])([H])[H])C([H])([H])[H])C([H])([H])c2c([H])c(OC([H])([H])C([H])([H])C([H])([H])[N+]([H])([H])C3([H])C([H])([H])C([H])([H])C4([H])C([H])([H])C([H])(C(=O)N5C([H])([H])C([H])([H])C([H])([H])C([H])(n6nc(-c7c([H])c([H])c(Oc8c([H])c([H])c(F)c([H])c8F)c([H])c7[H])c(C(=O)N([H])[H])c6N([H])[H])C5([H])[H])C([H])([H])C([H])([H])C([H])(C([H])([H])[H])C43[H])c([H])c([H])c2C1([H])[H]

$$$$
45:0:0
     RDKit          3D

 92100  0  0  1  0  0  0  0  0999 V2000
  -29.1660  -20.6980   20.2690 C   0  0  0  0  0  3  0  0  0  0  0  0
  -31.0370  -22.0420   24.0670 C   0  0  0  0  0  2  0  0  0  0  0  0
  -31.5710  -20.7670   23.3950 C   0  0  0  0  0  2  0  0  0  0  0  0
  -29.5140  -22.1570   23.9130 C   0  0  0  0  0  2  0  0  0  0  0  0
  -31.1610  -20.7210   21.9160 C   0  0  0  0  0  2  0  0  0  0  0  0
  -29.1000  -22.0980   22.4350 C   0  0  0  0  0  2  0  0  0  0  0  0
  -29.6240  -20.8160   21.7480 C   0  0  0  0  0  3  0  0  0  0  0  0
  -29.6610  -19.2290   18.2140 C   0  0  0  0  0  1  0  0  0  0  0  0
  -29.3780  -19.2250   19.6660 N   0  0  1  0  0  4  0  0  0  0  0  0
  -28.4140  -18.9290   19.6990 H   0  0  0  0  0  0  0  0  0  0  0  0
  -30.0750  -17.9670   20.3450 C   0  0  0  0  0  2  0  0  0  0  0  0
  -29.5780  -16.3900   20.0380 C   0  0  0  0  0  2  0  0  0  0  0  0
  -30.4630  -14.9930   19.9900 C   0  0  0  0  0  0  0  0  0  0  0  0
  -30.2670  -12.6890   18.9740 C   0  0  0  0  0  2  0  0  0  0  0  0
  -29.2440  -12.7460   17.8120 C   0  0  0  0  0  2  0  0  0  0  0  0
  -27.8100  -12.5400   18.3330 C   0  0  0  0  0  2  0  0  0  0  0  0
  -27.5060  -13.4090   19.5780 C   0  0  0  0  0  3  0  0  0  0  0  0
  -28.6340  -13.3280   20.6270 C   0  0  0  0  0  2  0  0  0  0  0  0
  -29.8850  -13.7270   19.9690 N   0  0  0  0  0  0  0  0  0  0  0  0
  -31.6610  -15.0650   19.6970 O   0  0  0  0  0  0  0  0  0  0  0  0
  -25.1730  -13.9930   20.4600 C   0  0  0  0  0  0  0  0  0  0  0  0
  -24.1270  -13.2180   20.8770 C   0  0  0  0  0  0  0  0  0  0  0  0
  -24.5790  -11.8650   20.7980 C   0  0  0  0  0  0  0  0  0  0  0  0
  -26.1950  -13.1130   20.1480 N   0  0  0  0  0  0  0  0  0  0  0  0
  -25.8510  -11.8260   20.4160 N   0  0  0  0  0  0  0  0  0  0  0  0
  -23.8550  -10.6030   21.0060 C   0  0  0  0  0  0  0  0  0  0  0  0
  -24.3280   -9.6170   21.8990 C   0  0  0  0  0  3  0  0  0  0  0  0
  -23.6040   -8.4220   22.0970 C   0  0  0  0  0  3  0  0  0  0  0  0
  -22.3900   -8.2040   21.4020 C   0  0  0  0  0  0  0  0  0  0  0  0
  -21.9360   -9.1770   20.4950 C   0  0  0  0  0  3  0  0  0  0  0  0
  -22.6620  -10.3640   20.2950 C   0  0  0  0  0  3  0  0  0  0  0  0
  -21.6350   -7.0630   21.5120 O   0  0  0  0  0  0  0  0  0  0  0  0
  -21.6340   -6.3080   22.6570 C   0  0  0  0  0  0  0  0  0  0  0  0
  -21.2840   -6.8550   23.9110 C   0  0  0  0  0  3  0  0  0  0  0  0
  -21.2280   -6.0270   25.0490 C   0  0  0  0  0  3  0  0  0  0  0  0
  -21.5140   -4.6530   24.9360 C   0  0  0  0  0  0  0  0  0  0  0  0
  -21.8560   -4.1050   23.6880 C   0  0  0  0  0  3  0  0  0  0  0  0
  -21.9120   -4.9300   22.5510 C   0  0  0  0  0  0  0  0  0  0  0  0
  -22.2240   -4.3940   21.3460 F   0  0  0  0  0  0  0  0  0  0  0  0
  -21.4530   -3.8540   26.0260 F   0  0  0  0  0  0  0  0  0  0  0  0
  -22.7500  -13.6980   21.2340 C   0  0  0  0  0  0  0  0  0  0  0  0
  -22.0710  -12.9940   22.1340 N   0  0  0  0  0  0  0  0  0  0  0  0
  -22.2870  -14.7300   20.7520 O   0  0  0  0  0  0  0  0  0  0  0  0
  -22.4610  -12.1560   22.5400 H   0  0  0  0  0  0  0  0  0  0  0  0
  -21.1530  -13.2980   22.4240 H   0  0  0  0  0  0  0  0  0  0  0  0
  -25.3390  -15.3670   20.2930 N   0  0  0  0  0  0  0  0  0  0  0  0
  -24.5770  -16.0220   20.4300 H   0  0  0  0  0  0  0  0  0  0  0  0
  -26.1660  -15.7970   19.9010 H   0  0  0  0  0  0  0  0  0  0  0  0
  -29.4420  -22.1420   19.4430 C   0  0  0  0  0  2  0  0  0  0  0  0
  -28.4510  -23.5020   19.3330 C   0  0  0  0  0  2  0  0  0  0  0  0
  -28.4700  -24.9180   20.2130 C   0  0  0  0  0  2  0  0  0  0  0  0
  -28.4090  -26.3610   19.6790 O   0  0  0  0  0  0  0  0  0  0  0  0
  -24.6510  -31.6660   23.1410 C   0  0  0  0  0  0  0  0  0  0  0  0
  -27.2760  -27.2260   19.8000 C   0  0  0  0  0  0  0  0  0  0  0  0
  -23.4430  -30.3340   21.4520 C   0  0  0  0  0  3  0  0  0  0  0  0
  -24.8910  -28.8680   19.9190 C   0  0  0  0  0  0  0  0  0  0  0  0
  -25.9790  -30.6800   21.2430 C   0  0  0  0  0  2  0  0  0  0  0  0
  -26.0700  -29.3280   20.5190 C   0  0  0  0  0  0  0  0  0  0  0  0
  -27.2630  -28.5250   20.4410 C   0  0  0  0  0  3  0  0  0  0  0  0
  -26.0670  -26.8400   19.1890 C   0  0  0  0  0  3  0  0  0  0  0  0
  -24.8970  -27.6340   19.2450 C   0  0  0  0  0  3  0  0  0  0  0  0
  -23.6440  -29.7340   20.0370 C   0  0  0  0  0  2  0  0  0  0  0  0
  -24.7120  -30.9110   22.0020 N   0  0  0  0  0  0  0  0  0  0  0  0
  -23.5740  -31.9000   23.7070 O   0  0  0  0  0  0  0  0  0  0  0  0
  -22.8040  -29.2650   22.3700 C   0  0  0  0  0  0  0  0  0  0  0  0
  -21.4810  -29.0630   22.2470 N   0  0  0  0  0  0  0  0  0  0  0  0
  -23.5010  -28.6200   23.1590 O   0  0  0  0  0  0  0  0  0  0  0  0
  -20.9710  -29.6360   21.5870 H   0  0  0  0  0  0  0  0  0  0  0  0
  -18.1530  -27.7050   22.6740 C   0  0  0  0  0  0  0  0  0  0  0  0
  -20.6940  -28.0680   22.9790 C   0  0  0  0  0  3  0  0  0  0  0  0
  -20.8660  -26.6610   22.3620 C   0  0  0  0  0  2  0  0  0  0  0  0
  -19.7880  -26.3220   21.3270 C   0  0  0  0  0  2  0  0  0  0  0  0
  -18.3940  -26.3870   21.9590 C   0  0  0  0  0  2  0  0  0  0  0  0
  -19.2310  -28.5000   23.1400 C   0  0  0  0  0  0  0  0  0  0  0  0
  -18.9530  -29.7320   23.7700 C   0  0  0  0  0  3  0  0  0  0  0  0
  -17.6260  -30.1690   23.9410 C   0  0  0  0  0  3  0  0  0  0  0  0
  -16.5610  -29.3690   23.4930 C   0  0  0  0  0  3  0  0  0  0  0  0
  -16.8240  -28.1400   22.8650 C   0  0  0  0  0  3  0  0  0  0  0  0
  -25.9340  -32.2910   23.7730 C   0  0  0  0  0  3  0  0  0  0  0  0
  -25.6040  -33.6630   24.1900 N   0  0  0  0  0  0  0  0  0  0  0  0
  -25.9090  -34.7650   23.4940 C   0  0  0  0  0  0  0  0  0  0  0  0
  -26.5640  -34.7350   22.4490 O   0  0  0  0  0  0  0  0  0  0  0  0
  -25.0160  -33.7570   25.0050 H   0  0  0  0  0  0  0  0  0  0  0  0
  -24.1440  -36.5460   23.2850 C   0  0  0  0  0  1  0  0  0  0  0  0
  -25.4100  -36.1160   24.0440 C   0  0  0  0  0  3  0  0  0  0  0  0
  -27.5480  -36.9890   24.8780 C   0  0  0  0  0  1  0  0  0  0  0  0
  -26.4230  -37.1930   23.9690 N   0  0  0  0  0  0  0  0  0  0  0  0
  -26.0050  -38.0960   24.1830 H   0  0  0  0  0  0  0  0  0  0  0  0
  -26.4870  -31.4620   24.9980 C   0  0  1  0  0  0  0  0  0  0  0  0
  -25.4200  -31.1570   26.0760 C   0  0  0  0  0  1  0  0  0  0  0  0
  -27.0760  -30.1130   24.5280 C   0  0  0  0  0  1  0  0  0  0  0  0
  -27.6440  -32.2360   25.6720 C   0  0  0  0  0  1  0  0  0  0  0  0
  1 49  1  0
  1  7  1  0
  3  2  1  0
  4  2  1  0
  5  3  1  0
  6  4  1  0
  7  5  1  0
  7  6  1  0
  8  9  1  0
  9 10  1  6
  9  1  1  0
  9 11  1  0
 12 11  1  0
 13 12  1  0
 14 19  1  0
 15 16  1  0
 15 14  1  0
 17 16  1  0
 17 24  1  0
 17 18  1  0
 19 13  1  0
 19 18  1  0
 20 13  2  0
 21 22  2  0
 22 41  1  0
 23 22  1  0
 23 26  1  0
 24 25  1  0
 24 21  1  0
 25 23  2  0
 26 27  1  0
 27 28  2  0
 29 32  1  0
 29 28  1  0
 30 29  2  0
 31 30  1  0
 31 26  2  0
 32 33  1  0
 33 34  1  0
 34 35  2  0
 36 35  1  0
 36 40  1  0
 37 36  2  0
 38 33  2  0
 38 37  1  0
 39 38  1  0
 41 42  1  0
 42 45  1  0
 42 44  1  0
 43 41  2  0
 46 47  1  0
 46 21  1  0
 48 46  1  0
 50 49  1  0
 50 51  1  0
 52 54  1  0
 52 51  1  0
 53 64  2  0
 54 59  1  0
 55 63  1  0
 55 65  1  0
 56 62  1  0
 56 58  1  0
 57 63  1  0
 58 57  1  0
 59 58  2  0
 60 61  1  0
 60 54  2  0
 61 56  2  0
 62 55  1  0
 63 53  1  0
 65 67  2  0
 66 65  1  0
 68 66  1  0
 69 78  2  0
 69 74  1  0
 70 66  1  0
 70 74  1  0
 71 70  1  0
 72 73  1  0
 72 71  1  0
 73 69  1  0
 74 75  2  0
 75 76  1  0
 77 76  2  0
 78 77  1  0
 79 53  1  0
 79 80  1  0
 79 89  1  0
 80 83  1  0
 81 85  1  0
 81 80  1  0
 82 81  2  0
 85 84  1  0
 87 85  1  0
 87 88  1  0
 87 86  1  0
 89 92  1  1
 89 90  1  0
 91 89  1  0
M  ISO  4  12 100  13 100  51 101  52 101
M  END
>  <TORSDO>  (45) 
F 23

>  <SCORE>  (45) 
-12.590

>  <name>  (45) 
45

>  <ligand_id>  (45) 
45

>  <original_smiles>  (45) 
[H]c1c([H])c([H])c2c(c1[H])C([H])([H])C([H])([H])C([H])([H])C2([H])N([H])C(=O)C1([H])N(C(=O)C([H])(N([H])C(=O)C([H])(N([H])C([H])([H])[H])C([H])([H])[H])C(C([H])([H])[H])(C([H])([H])[H])C([H])([H])[H])C([H])([H])c2c([H])c(OC([H])([H])C([H])([H])C([H])([H])C([H])(C3([H])C([H])([H])C([H])([H])C([H])([H])C([H])([H])C3([H])[H])[N+]([H])(C([H])([H])[H])C([H])([H])C([H])([H])C(=O)N3C([H])([H])C([H])([H])C([H])([H])C([H])(n4nc(-c5c([H])c([H])c(Oc6c([H])c([H])c(F)c([H])c6F)c([H])c5[H])c(C(=O)N([H])[H])c4N([H])[H])C3([H])[H])c([H])c([H])c2C1([H])[H]

>  <smiles>  (45) 
[H]c1c([H])c([H])c2c(c1[H])C([H])([H])C([H])([H])C([H])([H])C2([H])N([H])C(=O)C1([H])N(C(=O)C([H])(N([H])C(=O)C([H])(N([H])C([H])([H])[H])C([H])([H])[H])C(C([H])([H])[H])(C([H])([H])[H])C([H])([H])[H])C([H])([H])c2c([H])c(OC([H])([H])C([H])([H])C([H])([H])C([H])(C3([H])C([H])([H])C([H])([H])C([H])([H])C([H])([H])C3([H])[H])[N+]([H])(C([H])([H])[H])C([H])([H])C([H])([H])C(=O)N3C([H])([H])C([H])([H])C([H])([H])C([H])(n4nc(-c5c([H])c([H])c(Oc6c([H])c([H])c(F)c([H])c6F)c([H])c5[H])c(C(=O)N([H])[H])c4N([H])[H])C3([H])[H])c([H])c([H])c2C1([H])[H]

$$$$
46:0:0
     RDKit          3D

 94101  0  0  1  0  0  0  0  0999 V2000
  -28.6220  -18.2180   21.5170 C   0  0  0  0  0  1  0  0  0  0  0  0
  -28.5630  -18.1060   20.0440 N   0  0  1  0  0  4  0  0  0  0  0  0
  -27.7070  -17.5780   19.9260 H   0  0  0  0  0  0  0  0  0  0  0  0
  -28.1000  -19.4240   19.3990 C   0  0  0  0  0  2  0  0  0  0  0  0
  -28.6760  -20.8390   19.8910 C   0  0  0  0  0  2  0  0  0  0  0  0
  -27.7370  -22.1110   19.6610 C   0  0  0  0  0  2  0  0  0  0  0  0
  -28.3430  -23.5910   19.5390 C   0  0  0  0  0  3  0  0  0  0  0  0
  -27.2730  -24.7760   19.4340 C   0  0  0  0  0  3  0  0  0  0  0  0
  -27.6330  -26.2170   19.2870 O   0  0  0  0  0  0  0  0  0  0  0  0
  -24.6630  -31.5510   23.1380 C   0  0  0  0  0  0  0  0  0  0  0  0
  -26.5880  -27.1550   19.4220 C   0  0  0  0  0  0  0  0  0  0  0  0
  -23.1780  -30.3590   21.5720 C   0  0  0  0  0  3  0  0  0  0  0  0
  -24.3440  -28.8870   19.8360 C   0  0  0  0  0  0  0  0  0  0  0  0
  -25.6860  -30.5810   21.0690 C   0  0  0  0  0  2  0  0  0  0  0  0
  -25.6050  -29.2630   20.3080 C   0  0  0  0  0  0  0  0  0  0  0  0
  -26.7310  -28.4090   20.0940 C   0  0  0  0  0  3  0  0  0  0  0  0
  -25.2990  -26.8470   18.9270 C   0  0  0  0  0  3  0  0  0  0  0  0
  -24.1920  -27.6880   19.1320 C   0  0  0  0  0  3  0  0  0  0  0  0
  -23.1750  -29.8070   20.1220 C   0  0  0  0  0  2  0  0  0  0  0  0
  -24.5370  -30.8390   21.9830 N   0  0  0  0  0  0  0  0  0  0  0  0
  -23.6760  -31.8260   23.8360 O   0  0  0  0  0  0  0  0  0  0  0  0
  -22.5930  -29.2890   22.5250 C   0  0  0  0  0  0  0  0  0  0  0  0
  -21.2800  -29.0290   22.4090 N   0  0  0  0  0  0  0  0  0  0  0  0
  -23.3190  -28.6940   23.3270 O   0  0  0  0  0  0  0  0  0  0  0  0
  -20.7530  -29.5680   21.7360 H   0  0  0  0  0  0  0  0  0  0  0  0
  -18.0430  -27.4430   22.7550 C   0  0  0  0  0  0  0  0  0  0  0  0
  -20.5280  -28.0300   23.1710 C   0  0  0  0  0  3  0  0  0  0  0  0
  -20.8400  -26.5980   22.6800 C   0  0  0  0  0  2  0  0  0  0  0  0
  -19.8560  -26.0890   21.6210 C   0  0  0  0  0  2  0  0  0  0  0  0
  -18.4240  -26.0960   22.1640 C   0  0  0  0  0  2  0  0  0  0  0  0
  -19.0310  -28.3560   23.2140 C   0  0  0  0  0  0  0  0  0  0  0  0
  -18.6210  -29.6080   23.7230 C   0  0  0  0  0  3  0  0  0  0  0  0
  -17.2580  -29.9500   23.7810 C   0  0  0  0  0  3  0  0  0  0  0  0
  -16.2840  -29.0380   23.3390 C   0  0  0  0  0  3  0  0  0  0  0  0
  -16.6780  -27.7860   22.8320 C   0  0  0  0  0  3  0  0  0  0  0  0
  -26.0500  -32.0730   23.6290 C   0  0  0  0  0  3  0  0  0  0  0  0
  -25.8680  -33.4590   24.0830 N   0  0  0  0  0  0  0  0  0  0  0  0
  -26.1850  -34.5420   23.3610 C   0  0  0  0  0  0  0  0  0  0  0  0
  -26.7260  -34.4730   22.2540 O   0  0  0  0  0  0  0  0  0  0  0  0
  -25.3650  -33.5910   24.9470 H   0  0  0  0  0  0  0  0  0  0  0  0
  -24.5440  -36.4520   23.3300 C   0  0  0  0  0  1  0  0  0  0  0  0
  -25.8420  -35.9190   23.9600 C   0  0  0  0  0  3  0  0  0  0  0  0
  -28.1100  -36.6170   24.5860 C   0  0  0  0  0  1  0  0  0  0  0  0
  -26.9220  -36.9180   23.7950 N   0  0  0  0  0  0  0  0  0  0  0  0
  -26.5990  -37.8470   24.0520 H   0  0  0  0  0  0  0  0  0  0  0  0
  -26.6680  -31.1900   24.7810 C   0  0  1  0  0  0  0  0  0  0  0  0
  -25.6870  -30.9140   25.9430 C   0  0  0  0  0  1  0  0  0  0  0  0
  -27.1420  -29.8230   24.2320 C   0  0  0  0  0  1  0  0  0  0  0  0
  -27.9190  -31.8860   25.3600 C   0  0  0  0  0  1  0  0  0  0  0  0
  -29.5220  -17.1250   19.3240 C   0  0  0  0  0  3  0  0  0  0  0  0
  -30.5630  -17.8270   18.3780 C   0  0  0  0  0  2  0  0  0  0  0  0
  -31.9840  -19.0590   20.1210 C   0  0  0  0  0  1  0  0  0  0  0  0
  -31.9850  -18.1510   18.8970 C   0  0  0  0  0  2  0  0  0  0  0  0
  -30.0330  -15.6870   19.9430 C   0  0  0  0  0  3  0  0  0  0  0  0
  -30.1350  -14.4560   18.9410 C   0  0  0  0  0  0  0  0  0  0  0  0
  -29.4670  -12.3260   17.8270 C   0  0  0  0  0  2  0  0  0  0  0  0
  -28.2860  -12.5470   16.8640 C   0  0  0  0  0  2  0  0  0  0  0  0
  -26.9540  -12.3580   17.6110 C   0  0  0  0  0  2  0  0  0  0  0  0
  -26.9080  -13.1750   18.9240 C   0  0  0  0  0  3  0  0  0  0  0  0
  -28.1850  -13.0010   19.7610 C   0  0  0  0  0  2  0  0  0  0  0  0
  -29.3600  -13.3180   18.9300 N   0  0  0  0  0  0  0  0  0  0  0  0
  -31.0130  -14.5720   18.0820 O   0  0  0  0  0  0  0  0  0  0  0  0
  -24.8070  -13.7570   20.2870 C   0  0  0  0  0  0  0  0  0  0  0  0
  -23.8450  -12.9720   20.8690 C   0  0  0  0  0  0  0  0  0  0  0  0
  -24.2450  -11.6240   20.6370 C   0  0  0  0  0  0  0  0  0  0  0  0
  -25.7210  -12.8790   19.7210 N   0  0  0  0  0  0  0  0  0  0  0  0
  -25.4080  -11.5880   19.9990 N   0  0  0  0  0  0  0  0  0  0  0  0
  -23.5590  -10.3600   20.9350 C   0  0  0  0  0  0  0  0  0  0  0  0
  -24.1380   -9.3780   21.7660 C   0  0  0  0  0  3  0  0  0  0  0  0
  -23.4470   -8.1780   22.0460 C   0  0  0  0  0  3  0  0  0  0  0  0
  -22.1640   -7.9540   21.4920 C   0  0  0  0  0  0  0  0  0  0  0  0
  -21.6020   -8.9260   20.6450 C   0  0  0  0  0  3  0  0  0  0  0  0
  -22.2960  -10.1170   20.3650 C   0  0  0  0  0  3  0  0  0  0  0  0
  -21.4290   -6.8100   21.6890 O   0  0  0  0  0  0  0  0  0  0  0  0
  -21.5040   -6.1000   22.8600 C   0  0  0  0  0  0  0  0  0  0  0  0
  -21.2140   -6.6900   24.1090 C   0  0  0  0  0  3  0  0  0  0  0  0
  -21.2330   -5.9070   25.2780 C   0  0  0  0  0  3  0  0  0  0  0  0
  -21.5320   -4.5330   25.2040 C   0  0  0  0  0  0  0  0  0  0  0  0
  -21.8130   -3.9420   23.9610 C   0  0  0  0  0  3  0  0  0  0  0  0
  -21.7960   -4.7230   22.7910 C   0  0  0  0  0  0  0  0  0  0  0  0
  -22.0490   -4.1420   21.5940 F   0  0  0  0  0  0  0  0  0  0  0  0
  -21.5410   -3.7790   26.3280 F   0  0  0  0  0  0  0  0  0  0  0  0
  -22.5770  -13.4520   21.5130 C   0  0  0  0  0  0  0  0  0  0  0  0
  -22.0940  -12.7300   22.5210 N   0  0  0  0  0  0  0  0  0  0  0  0
  -22.0340  -14.4950   21.1580 O   0  0  0  0  0  0  0  0  0  0  0  0
  -22.5520  -11.8880   22.8310 H   0  0  0  0  0  0  0  0  0  0  0  0
  -21.2520  -13.0350   22.9890 H   0  0  0  0  0  0  0  0  0  0  0  0
  -24.9640  -15.1320   20.1690 N   0  0  0  0  0  0  0  0  0  0  0  0
  -24.2840  -15.7890   20.5360 H   0  0  0  0  0  0  0  0  0  0  0  0
  -25.7030  -15.5840   19.6480 H   0  0  0  0  0  0  0  0  0  0  0  0
  -30.2180  -15.3550   21.4780 C   0  0  0  0  0  2  0  0  0  0  0  0
  -31.6840  -15.1150   23.5520 C   0  0  0  0  0  1  0  0  0  0  0  0
  -32.3130  -13.8640   21.4980 C   0  0  0  0  0  1  0  0  0  0  0  0
  -31.6630  -15.1630   22.0170 C   0  0  0  0  0  3  0  0  0  0  0  0
  2  1  1  0
  2  3  1  1
  4  5  1  0
  4  2  1  0
  6  5  1  0
  7  6  1  0
  8  7  2  0
  9 11  1  0
  9  8  1  0
 10 21  2  0
 11 16  1  0
 12 20  1  0
 12 22  1  0
 13 19  1  0
 13 15  1  0
 14 20  1  0
 15 14  1  0
 16 15  2  0
 17 18  1  0
 17 11  2  0
 18 13  2  0
 19 12  1  0
 20 10  1  0
 22 24  2  0
 23 22  1  0
 25 23  1  0
 26 35  2  0
 26 31  1  0
 27 23  1  0
 27 31  1  0
 28 27  1  0
 29 30  1  0
 29 28  1  0
 30 26  1  0
 31 32  2  0
 32 33  1  0
 34 33  2  0
 35 34  1  0
 36 10  1  0
 36 37  1  0
 36 46  1  0
 37 40  1  0
 38 42  1  0
 38 37  1  0
 39 38  2  0
 42 41  1  0
 44 42  1  0
 44 45  1  0
 44 43  1  0
 46 49  1  1
 46 47  1  0
 48 46  1  0
 50 51  1  0
 50 54  1  0
 50  2  1  0
 51 53  1  0
 53 52  1  0
 54 91  1  0
 55 54  1  0
 56 61  1  0
 57 58  1  0
 57 56  1  0
 59 58  1  0
 59 66  1  0
 59 60  1  0
 61 55  1  0
 61 60  1  0
 62 55  2  0
 63 64  2  0
 64 83  1  0
 65 64  1  0
 65 68  1  0
 66 67  1  0
 66 63  1  0
 67 65  2  0
 68 69  1  0
 69 70  2  0
 71 74  1  0
 71 70  1  0
 72 71  2  0
 73 72  1  0
 73 68  2  0
 74 75  1  0
 75 76  1  0
 76 77  2  0
 78 77  1  0
 78 82  1  0
 79 78  2  0
 80 75  2  0
 80 79  1  0
 81 80  1  0
 83 84  1  0
 84 86  1  0
 84 87  1  0
 85 83  2  0
 88 63  1  0
 88 89  1  0
 90 88  1  0
 91 94  1  0
 93 94  1  0
 94 92  1  0
M  ISO  4   8 101   9 101  54 100  55 100
M  END
>  <TORSDO>  (46) 
F 27

>  <SCORE>  (46) 
-3.696

>  <name>  (46) 
46

>  <ligand_id>  (46) 
46

>  <original_smiles>  (46) 
[H]c1c([H])c([H])c2c(c1[H])C([H])([H])C([H])([H])C([H])([H])C2([H])N([H])C(=O)C1([H])N(C(=O)C([H])(N([H])C(=O)C([H])(N([H])C([H])([H])[H])C([H])([H])[H])C(C([H])([H])[H])(C([H])([H])[H])C([H])([H])[H])C([H])([H])c2c([H])c(OC([H])([H])C([H])([H])C([H])([H])C([H])([H])C([H])([H])[N+]([H])(C([H])([H])[H])C([H])(C([H])([H])C([H])([H])C([H])([H])[H])C([H])(C(=O)N3C([H])([H])C([H])([H])C([H])([H])C([H])(n4nc(-c5c([H])c([H])c(Oc6c([H])c([H])c(F)c([H])c6F)c([H])c5[H])c(C(=O)N([H])[H])c4N([H])[H])C3([H])[H])C([H])([H])C([H])(C([H])([H])[H])C([H])([H])[H])c([H])c([H])c2C1([H])[H]

>  <smiles>  (46) 
[H]c1c([H])c([H])c2c(c1[H])C([H])([H])C([H])([H])C([H])([H])C2([H])N([H])C(=O)C1([H])N(C(=O)C([H])(N([H])C(=O)C([H])(N([H])C([H])([H])[H])C([H])([H])[H])C(C([H])([H])[H])(C([H])([H])[H])C([H])([H])[H])C([H])([H])c2c([H])c(OC([H])([H])C([H])([H])C([H])([H])C([H])([H])C([H])([H])[N+]([H])(C([H])([H])[H])C([H])(C([H])([H])C([H])([H])C([H])([H])[H])C([H])(C(=O)N3C([H])([H])C([H])([H])C([H])([H])C([H])(n4nc(-c5c([H])c([H])c(Oc6c([H])c([H])c(F)c([H])c6F)c([H])c5[H])c(C(=O)N([H])[H])c4N([H])[H])C3([H])[H])C([H])([H])C([H])(C([H])([H])[H])C([H])([H])[H])c([H])c([H])c2C1([H])[H]

$$$$
47:0:0
     RDKit          3D

 95104  0  0  1  0  0  0  0  0999 V2000
  -29.1600  -20.8680   21.7360 C   0  0  0  0  0  0  0  0  0  0  0  0
  -29.1290  -22.1860   21.5090 N   0  0  0  0  0  0  0  0  0  0  0  0
  -28.7620  -20.3730   22.7930 O   0  0  0  0  0  0  0  0  0  0  0  0
  -29.4740  -22.5170   20.6190 H   0  0  0  0  0  0  0  0  0  0  0  0
  -28.8610  -18.7350   20.3310 C   0  0  0  0  0  2  0  0  0  0  0  0
  -29.7590  -16.4080   21.0330 C   0  0  0  0  0  2  0  0  0  0  0  0
  -32.0590  -16.9870   20.8610 C   0  0  0  0  0  2  0  0  0  0  0  0
  -29.7330  -19.9740   20.6180 C   0  0  0  0  0  3  0  0  0  0  0  0
  -29.8210  -17.5700   20.0360 C   0  0  0  0  0  3  0  0  0  0  0  0
  -31.2460  -18.0990   20.1650 C   0  0  0  0  0  3  0  0  0  0  0  0
  -31.1230  -19.4040   20.9700 C   0  0  0  0  0  3  0  0  0  0  0  0
  -31.1490  -15.7230   20.9850 C   0  0  1  0  0  0  0  0  0  0  0  0
  -32.2850  -20.3750   20.7110 C   0  0  0  0  0  1  0  0  0  0  0  0
  -31.5310  -15.0010   22.3020 C   0  0  0  0  0  1  0  0  0  0  0  0
  -31.3220  -14.7510   19.7640 C   0  0  0  0  0  0  0  0  0  0  0  0
  -30.7900  -12.6730   18.5170 C   0  0  0  0  0  2  0  0  0  0  0  0
  -29.7190  -12.8970   17.4320 C   0  0  0  0  0  2  0  0  0  0  0  0
  -28.3050  -12.7570   18.0240 C   0  0  0  0  0  2  0  0  0  0  0  0
  -28.1270  -13.5940   19.3170 C   0  0  0  0  0  3  0  0  0  0  0  0
  -29.2900  -13.3220   20.2970 C   0  0  0  0  0  2  0  0  0  0  0  0
  -30.5550  -13.6310   19.6120 N   0  0  0  0  0  0  0  0  0  0  0  0
  -32.2250  -14.9960   18.9570 O   0  0  0  0  0  0  0  0  0  0  0  0
  -25.8760  -14.2610   20.3790 C   0  0  0  0  0  0  0  0  0  0  0  0
  -24.8190  -13.5120   20.8210 C   0  0  0  0  0  0  0  0  0  0  0  0
  -25.1900  -12.1470   20.6160 C   0  0  0  0  0  0  0  0  0  0  0  0
  -26.8300  -13.3530   19.9420 N   0  0  0  0  0  0  0  0  0  0  0  0
  -26.4250  -12.0720   20.1380 N   0  0  0  0  0  0  0  0  0  0  0  0
  -24.4200  -10.9100   20.7950 C   0  0  0  0  0  0  0  0  0  0  0  0
  -24.8260   -9.9140   21.7100 C   0  0  0  0  0  3  0  0  0  0  0  0
  -24.0610   -8.7410   21.8760 C   0  0  0  0  0  3  0  0  0  0  0  0
  -22.8750   -8.5540   21.1260 C   0  0  0  0  0  0  0  0  0  0  0  0
  -22.4890   -9.5380   20.1990 C   0  0  0  0  0  3  0  0  0  0  0  0
  -23.2540  -10.7040   20.0320 C   0  0  0  0  0  3  0  0  0  0  0  0
  -22.0820   -7.4360   21.2020 O   0  0  0  0  0  0  0  0  0  0  0  0
  -21.9030   -6.7590   22.3820 C   0  0  0  0  0  0  0  0  0  0  0  0
  -21.3830   -7.3910   23.5320 C   0  0  0  0  0  3  0  0  0  0  0  0
  -21.1500   -6.6410   24.7020 C   0  0  0  0  0  3  0  0  0  0  0  0
  -21.4260   -5.2620   24.7220 C   0  0  0  0  0  0  0  0  0  0  0  0
  -21.9390   -4.6290   23.5760 C   0  0  0  0  0  3  0  0  0  0  0  0
  -22.1740   -5.3760   22.4070 C   0  0  0  0  0  0  0  0  0  0  0  0
  -22.6470   -4.7570   21.2990 F   0  0  0  0  0  0  0  0  0  0  0  0
  -21.1960   -4.5400   25.8440 F   0  0  0  0  0  0  0  0  0  0  0  0
  -23.4980  -14.0280   21.3160 C   0  0  0  0  0  0  0  0  0  0  0  0
  -22.8730  -13.3170   22.2470 N   0  0  0  0  0  0  0  0  0  0  0  0
  -23.0370  -15.0950   20.9140 O   0  0  0  0  0  0  0  0  0  0  0  0
  -23.2600  -12.4500   22.5910 H   0  0  0  0  0  0  0  0  0  0  0  0
  -21.9930  -13.6430   22.6220 H   0  0  0  0  0  0  0  0  0  0  0  0
  -26.0980  -15.6320   20.2950 N   0  0  0  0  0  0  0  0  0  0  0  0
  -25.3920  -16.3100   20.5600 H   0  0  0  0  0  0  0  0  0  0  0  0
  -26.9250  -16.0580   19.8980 H   0  0  0  0  0  0  0  0  0  0  0  0
  -28.6750  -23.1850   22.4750 C   0  0  0  0  0  2  0  0  0  0  0  0
  -29.1990  -24.5870   22.1280 C   0  0  0  0  0  2  0  0  0  0  0  0
  -28.6280  -25.1510   20.8170 C   0  0  0  0  0  2  0  0  0  0  0  0
  -29.1610  -26.5560   20.4970 C   0  0  0  0  0  2  0  0  0  0  0  0
  -28.5620  -27.0230   19.2930 O   0  0  0  0  0  0  0  0  0  0  0  0
  -24.7120  -31.7110   23.0230 C   0  0  0  0  0  0  0  0  0  0  0  0
  -27.3710  -27.6800   19.4660 C   0  0  0  0  0  0  0  0  0  0  0  0
  -23.4710  -30.3750   21.3480 C   0  0  0  0  0  3  0  0  0  0  0  0
  -24.9070  -29.0200   19.7340 C   0  0  0  0  0  0  0  0  0  0  0  0
  -25.9550  -30.8840   21.0310 C   0  0  0  0  0  2  0  0  0  0  0  0
  -26.0670  -29.5680   20.2950 C   0  0  0  0  0  0  0  0  0  0  0  0
  -27.3020  -28.9020   20.1670 C   0  0  0  0  0  3  0  0  0  0  0  0
  -26.2020  -27.1370   18.8980 C   0  0  0  0  0  3  0  0  0  0  0  0
  -24.9660  -27.7980   19.0380 C   0  0  0  0  0  3  0  0  0  0  0  0
  -23.6270  -29.8050   19.9130 C   0  0  0  0  0  2  0  0  0  0  0  0
  -24.7330  -31.0010   21.8610 N   0  0  0  0  0  0  0  0  0  0  0  0
  -23.6560  -31.8890   23.6450 O   0  0  0  0  0  0  0  0  0  0  0  0
  -22.9290  -29.2560   22.2640 C   0  0  0  0  0  0  0  0  0  0  0  0
  -21.6150  -28.9960   22.1740 N   0  0  0  0  0  0  0  0  0  0  0  0
  -23.6830  -28.6260   23.0100 O   0  0  0  0  0  0  0  0  0  0  0  0
  -21.0630  -29.5630   21.5450 H   0  0  0  0  0  0  0  0  0  0  0  0
  -18.3540  -27.5250   22.6720 C   0  0  0  0  0  0  0  0  0  0  0  0
  -20.8900  -27.9610   22.9100 C   0  0  0  0  0  3  0  0  0  0  0  0
  -21.0870  -26.5740   22.2570 C   0  0  0  0  0  2  0  0  0  0  0  0
  -19.9900  -26.2200   21.2490 C   0  0  0  0  0  2  0  0  0  0  0  0
  -18.6160  -26.2280   21.9250 C   0  0  0  0  0  2  0  0  0  0  0  0
  -19.4220  -28.3470   23.1200 C   0  0  0  0  0  0  0  0  0  0  0  0
  -19.1230  -29.5590   23.7790 C   0  0  0  0  0  3  0  0  0  0  0  0
  -17.7900  -29.9530   23.9940 C   0  0  0  0  0  3  0  0  0  0  0  0
  -16.7360  -29.1290   23.5620 C   0  0  0  0  0  3  0  0  0  0  0  0
  -17.0190  -27.9170   22.9070 C   0  0  0  0  0  3  0  0  0  0  0  0
  -26.0050  -32.3560   23.6120 C   0  0  0  0  0  3  0  0  0  0  0  0
  -25.6570  -33.7060   24.0730 N   0  0  0  0  0  0  0  0  0  0  0  0
  -25.9150  -34.8310   23.3930 C   0  0  0  0  0  0  0  0  0  0  0  0
  -26.5440  -34.8420   22.3310 O   0  0  0  0  0  0  0  0  0  0  0  0
  -25.0920  -33.7680   24.9070 H   0  0  0  0  0  0  0  0  0  0  0  0
  -24.1080  -36.5720   23.2480 C   0  0  0  0  0  1  0  0  0  0  0  0
  -25.3900  -36.1530   23.9820 C   0  0  0  0  0  3  0  0  0  0  0  0
  -27.5170  -37.0490   24.8200 C   0  0  0  0  0  1  0  0  0  0  0  0
  -26.3770  -37.2540   23.9300 N   0  0  0  0  0  0  0  0  0  0  0  0
  -25.9430  -38.1390   24.1730 H   0  0  0  0  0  0  0  0  0  0  0  0
  -26.6440  -31.5120   24.7840 C   0  0  1  0  0  0  0  0  0  0  0  0
  -25.6330  -31.1170   25.8860 C   0  0  0  0  0  1  0  0  0  0  0  0
  -27.2770  -30.2130   24.2350 C   0  0  0  0  0  1  0  0  0  0  0  0
  -27.7880  -32.3150   25.4470 C   0  0  0  0  0  1  0  0  0  0  0  0
  1  3  2  0
  2  1  1  0
  2 51  1  0
  4  2  1  0
  5  8  1  0
  7 12  1  0
  8 11  1  0
  8  1  1  0
  9 10  1  0
  9  5  1  0
  9  6  1  0
 10  7  1  0
 10 11  1  0
 11 13  1  0
 12  6  1  0
 12 14  1  1
 15 12  1  0
 16 21  1  0
 17 18  1  0
 17 16  1  0
 19 18  1  0
 19 26  1  0
 19 20  1  0
 21 15  1  0
 21 20  1  0
 22 15  2  0
 23 24  2  0
 24 43  1  0
 25 28  1  0
 25 24  1  0
 26 27  1  0
 26 23  1  0
 27 25  2  0
 28 29  1  0
 29 30  2  0
 31 34  1  0
 31 30  1  0
 32 31  2  0
 33 32  1  0
 33 28  2  0
 34 35  1  0
 35 40  2  0
 35 36  1  0
 36 37  2  0
 37 38  1  0
 38 42  1  0
 39 38  2  0
 40 39  1  0
 41 40  1  0
 43 44  1  0
 44 46  1  0
 44 47  1  0
 45 43  2  0
 48 23  1  0
 48 49  1  0
 50 48  1  0
 52 51  1  0
 53 52  1  0
 54 53  1  0
 55 57  1  0
 55 54  1  0
 56 67  2  0
 57 62  1  0
 58 66  1  0
 58 68  1  0
 59 65  1  0
 59 61  1  0
 60 66  1  0
 61 60  1  0
 62 61  2  0
 63 64  1  0
 63 57  2  0
 64 59  2  0
 65 58  1  0
 66 56  1  0
 68 70  2  0
 69 68  1  0
 71 69  1  0
 72 81  2  0
 72 77  1  0
 73 69  1  0
 73 77  1  0
 74 73  1  0
 75 76  1  0
 75 74  1  0
 76 72  1  0
 77 78  2  0
 78 79  1  0
 80 79  2  0
 81 80  1  0
 82 56  1  0
 82 83  1  0
 82 92  1  0
 83 86  1  0
 84 88  1  0
 84 83  1  0
 85 84  2  0
 88 87  1  0
 90 88  1  0
 90 91  1  0
 90 89  1  0
 92 95  1  1
 92 93  1  0
 94 92  1  0
M  ISO  4  12 100  15 100  54 101  55 101
M  END
>  <TORSDO>  (47) 
F 21

>  <SCORE>  (47) 
-8.910

>  <name>  (47) 
47

>  <ligand_id>  (47) 
47

>  <original_smiles>  (47) 
[H]c1c([H])c([H])c2c(c1[H])C([H])([H])C([H])([H])C([H])([H])C2([H])N([H])C(=O)C1([H])N(C(=O)C([H])(N([H])C(=O)C([H])(N([H])C([H])([H])[H])C([H])([H])[H])C(C([H])([H])[H])(C([H])([H])[H])C([H])([H])[H])C([H])([H])c2c([H])c(OC([H])([H])C([H])([H])C([H])([H])C([H])([H])N([H])C(=O)C3([H])C([H])([H])C4([H])C([H])([H])C(C(=O)N5C([H])([H])C([H])([H])C([H])([H])C([H])(n6nc(-c7c([H])c([H])c(Oc8c([H])c([H])c(F)c([H])c8F)c([H])c7[H])c(C(=O)N([H])[H])c6N([H])[H])C5([H])[H])(C([H])([H])[H])C([H])([H])C4([H])C3([H])C([H])([H])[H])c([H])c([H])c2C1([H])[H]

>  <smiles>  (47) 
[H]c1c([H])c([H])c2c(c1[H])C([H])([H])C([H])([H])C([H])([H])C2([H])N([H])C(=O)C1([H])N(C(=O)C([H])(N([H])C(=O)C([H])(N([H])C([H])([H])[H])C([H])([H])[H])C(C([H])([H])[H])(C([H])([H])[H])C([H])([H])[H])C([H])([H])c2c([H])c(OC([H])([H])C([H])([H])C([H])([H])C([H])([H])N([H])C(=O)C3([H])C([H])([H])C4([H])C([H])([H])C(C(=O)N5C([H])([H])C([H])([H])C([H])([H])C([H])(n6nc(-c7c([H])c([H])c(Oc8c([H])c([H])c(F)c([H])c8F)c([H])c7[H])c(C(=O)N([H])[H])c6N([H])[H])C5([H])[H])(C([H])([H])[H])C([H])([H])C4([H])C3([H])C([H])([H])[H])c([H])c([H])c2C1([H])[H]

$$$$
48:0:0
     RDKit          3D

 94103  0  0  1  0  0  0  0  0999 V2000
  -30.4350  -20.0090   20.0620 N   0  0  0  0  0  4  0  0  0  0  0  0
  -31.1500  -20.1070   20.7650 H   0  0  0  0  0  0  0  0  0  0  0  0
  -29.5840  -19.7500   20.5390 H   0  0  0  0  0  0  0  0  0  0  0  0
  -28.1070  -17.2480   20.0620 C   0  0  0  0  0  2  0  0  0  0  0  0
  -28.3190  -16.3670   21.2950 C   0  0  0  0  0  2  0  0  0  0  0  0
  -29.7210  -18.2040   18.3590 C   0  0  0  0  0  2  0  0  0  0  0  0
  -31.4690  -17.5170   19.8110 C   0  0  0  0  0  2  0  0  0  0  0  0
  -29.2600  -16.9280   19.1200 C   0  0  0  0  0  3  0  0  0  0  0  0
  -30.8570  -18.8390   19.1630 C   0  0  0  0  0  3  0  0  0  0  0  0
  -30.4050  -16.3170   19.9930 C   0  0  2  0  0  0  0  0  0  0  0  0
  -29.8470  -16.3150   21.4950 C   0  0  2  0  0  0  0  0  0  0  0  0
  -30.3720  -15.1760   22.4150 C   0  0  0  0  0  1  0  0  0  0  0  0
  -30.1230  -17.5810   22.3580 C   0  0  0  0  0  1  0  0  0  0  0  0
  -30.8560  -14.8510   19.3820 C   0  0  0  0  0  0  0  0  0  0  0  0
  -30.3450  -12.6800   18.2220 C   0  0  0  0  0  2  0  0  0  0  0  0
  -29.1860  -12.8500   17.2080 C   0  0  0  0  0  2  0  0  0  0  0  0
  -27.8200  -12.6310   17.8880 C   0  0  0  0  0  2  0  0  0  0  0  0
  -27.6920  -13.4150   19.2180 C   0  0  0  0  0  3  0  0  0  0  0  0
  -28.9530  -13.1900   20.0830 C   0  0  0  0  0  2  0  0  0  0  0  0
  -30.1330  -13.6570   19.3270 N   0  0  0  0  0  0  0  0  0  0  0  0
  -31.9290  -14.8610   18.7730 O   0  0  0  0  0  0  0  0  0  0  0  0
  -25.4800  -13.9490   20.4390 C   0  0  0  0  0  0  0  0  0  0  0  0
  -24.4990  -13.1520   20.9500 C   0  0  0  0  0  0  0  0  0  0  0  0
  -24.9130  -11.8110   20.7010 C   0  0  0  0  0  0  0  0  0  0  0  0
  -26.4560  -13.0950   19.9350 N   0  0  0  0  0  0  0  0  0  0  0  0
  -26.1210  -11.7950   20.1440 N   0  0  0  0  0  0  0  0  0  0  0  0
  -24.1930  -10.5510   20.8980 C   0  0  0  0  0  0  0  0  0  0  0  0
  -24.7080   -9.5270   21.7230 C   0  0  0  0  0  3  0  0  0  0  0  0
  -23.9820   -8.3320   21.9090 C   0  0  0  0  0  3  0  0  0  0  0  0
  -22.7290   -8.1550   21.2770 C   0  0  0  0  0  0  0  0  0  0  0  0
  -22.2330   -9.1710   20.4390 C   0  0  0  0  0  3  0  0  0  0  0  0
  -22.9600  -10.3560   20.2450 C   0  0  0  0  0  3  0  0  0  0  0  0
  -21.9690   -7.0140   21.3820 O   0  0  0  0  0  0  0  0  0  0  0  0
  -21.9480   -6.2690   22.5330 C   0  0  0  0  0  0  0  0  0  0  0  0
  -21.5720   -6.8300   23.7720 C   0  0  0  0  0  3  0  0  0  0  0  0
  -21.5020   -6.0140   24.9200 C   0  0  0  0  0  3  0  0  0  0  0  0
  -21.7910   -4.6390   24.8270 C   0  0  0  0  0  0  0  0  0  0  0  0
  -22.1630   -4.0800   23.5900 C   0  0  0  0  0  3  0  0  0  0  0  0
  -22.2350   -4.8920   22.4440 C   0  0  0  0  0  0  0  0  0  0  0  0
  -22.5760   -4.3450   21.2520 F   0  0  0  0  0  0  0  0  0  0  0  0
  -21.7060   -3.8530   25.9240 F   0  0  0  0  0  0  0  0  0  0  0  0
  -23.1970  -13.6230   21.5320 C   0  0  0  0  0  0  0  0  0  0  0  0
  -22.6400  -12.8750   22.4790 N   0  0  0  0  0  0  0  0  0  0  0  0
  -22.6920  -14.6910   21.1900 O   0  0  0  0  0  0  0  0  0  0  0  0
  -23.0690  -12.0160   22.7880 H   0  0  0  0  0  0  0  0  0  0  0  0
  -21.7810  -13.1770   22.9130 H   0  0  0  0  0  0  0  0  0  0  0  0
  -25.5780  -15.3230   20.3440 N   0  0  0  0  0  0  0  0  0  0  0  0
  -24.8360  -15.9340   20.6690 H   0  0  0  0  0  0  0  0  0  0  0  0
  -26.3840  -15.8220   19.9920 H   0  0  0  0  0  0  0  0  0  0  0  0
  -30.2350  -21.4070   19.4670 C   0  0  0  0  0  3  0  0  0  0  0  0
  -29.7300  -22.5870   20.4460 C   0  0  0  0  0  3  0  0  0  0  0  0
  -29.5780  -24.0980   19.9050 C   0  0  0  0  0  3  0  0  0  0  0  0
  -28.7670  -25.1750   20.7770 C   0  0  0  0  0  3  0  0  0  0  0  0
  -28.8310  -26.6170   20.4340 O   0  0  0  0  0  0  0  0  0  0  0  0
  -24.6440  -31.8350   23.2200 C   0  0  0  0  0  0  0  0  0  0  0  0
  -27.6430  -27.3640   20.3920 C   0  0  0  0  0  0  0  0  0  0  0  0
  -23.5900  -30.3420   21.5560 C   0  0  0  0  0  3  0  0  0  0  0  0
  -25.1860  -28.8250   20.2480 C   0  0  0  0  0  0  0  0  0  0  0  0
  -26.1150  -30.7870   21.4830 C   0  0  0  0  0  2  0  0  0  0  0  0
  -26.2980  -29.3990   20.8780 C   0  0  0  0  0  0  0  0  0  0  0  0
  -27.5300  -28.6830   20.9320 C   0  0  0  0  0  3  0  0  0  0  0  0
  -26.5050  -26.8340   19.7460 C   0  0  0  0  0  3  0  0  0  0  0  0
  -25.2900  -27.5460   19.6760 C   0  0  0  0  0  3  0  0  0  0  0  0
  -23.9060  -29.6380   20.2090 C   0  0  0  0  0  2  0  0  0  0  0  0
  -24.7990  -31.0090   22.1430 N   0  0  0  0  0  0  0  0  0  0  0  0
  -23.5240  -32.0680   23.6950 O   0  0  0  0  0  0  0  0  0  0  0  0
  -22.9310  -29.3190   22.5110 C   0  0  0  0  0  0  0  0  0  0  0  0
  -21.6220  -29.0760   22.3280 N   0  0  0  0  0  0  0  0  0  0  0  0
  -23.5970  -28.7440   23.3750 O   0  0  0  0  0  0  0  0  0  0  0  0
  -21.1440  -29.5960   21.6040 H   0  0  0  0  0  0  0  0  0  0  0  0
  -18.2850  -27.7260   22.6910 C   0  0  0  0  0  0  0  0  0  0  0  0
  -20.8100  -28.1180   23.0800 C   0  0  0  0  0  3  0  0  0  0  0  0
  -21.0090  -26.6800   22.5490 C   0  0  0  0  0  2  0  0  0  0  0  0
  -19.9770  -26.2780   21.4890 C   0  0  0  0  0  2  0  0  0  0  0  0
  -18.5590  -26.3710   22.0610 C   0  0  0  0  0  2  0  0  0  0  0  0
  -19.3420  -28.5530   23.1550 C   0  0  0  0  0  0  0  0  0  0  0  0
  -19.0330  -29.8150   23.7040 C   0  0  0  0  0  3  0  0  0  0  0  0
  -17.6990  -30.2550   23.7910 C   0  0  0  0  0  3  0  0  0  0  0  0
  -16.6550  -29.4270   23.3420 C   0  0  0  0  0  3  0  0  0  0  0  0
  -16.9480  -28.1630   22.7990 C   0  0  0  0  0  3  0  0  0  0  0  0
  -25.8630  -32.5420   23.8890 C   0  0  0  0  0  3  0  0  0  0  0  0
  -25.4590  -33.9210   24.1970 N   0  0  0  0  0  0  0  0  0  0  0  0
  -25.7510  -34.9880   23.4400 C   0  0  0  0  0  0  0  0  0  0  0  0
  -26.4560  -34.9180   22.4300 O   0  0  0  0  0  0  0  0  0  0  0  0
  -24.8320  -34.0430   24.9790 H   0  0  0  0  0  0  0  0  0  0  0  0
  -23.9300  -36.6750   23.0250 C   0  0  0  0  0  1  0  0  0  0  0  0
  -25.1690  -36.3470   23.8740 C   0  0  0  0  0  3  0  0  0  0  0  0
  -27.2240  -37.3630   24.7560 C   0  0  0  0  0  1  0  0  0  0  0  0
  -26.1400  -37.4600   23.7820 N   0  0  0  0  0  0  0  0  0  0  0  0
  -25.6760  -38.3550   23.9110 H   0  0  0  0  0  0  0  0  0  0  0  0
  -26.3700  -31.8080   25.1910 C   0  0  1  0  0  0  0  0  0  0  0  0
  -25.2460  -31.4870   26.2040 C   0  0  0  0  0  1  0  0  0  0  0  0
  -27.0730  -30.4780   24.8290 C   0  0  0  0  0  1  0  0  0  0  0  0
  -27.4210  -32.6860   25.9090 C   0  0  0  0  0  1  0  0  0  0  0  0
  1  3  1  0
  1  2  1  0
  4  5  1  0
  5 11  1  0
  6  9  1  0
  7 10  1  0
  8  6  1  0
  8 10  1  0
  8  4  1  0
  9  7  1  0
  9  1  1  0
 10 14  1  6
 10 11  1  0
 11 13  1  1
 11 12  1  0
 15 20  1  0
 16 17  1  0
 16 15  1  0
 18 17  1  0
 18 25  1  0
 18 19  1  0
 20 14  1  0
 20 19  1  0
 21 14  2  0
 22 23  2  0
 23 42  1  0
 24 27  1  0
 24 23  1  0
 25 26  1  0
 25 22  1  0
 26 24  2  0
 27 28  1  0
 28 29  2  0
 30 33  1  0
 30 29  1  0
 31 30  2  0
 32 31  1  0
 32 27  2  0
 33 34  1  0
 34 35  1  0
 35 36  2  0
 37 36  1  0
 37 41  1  0
 38 37  2  0
 39 34  2  0
 39 38  1  0
 40 39  1  0
 42 43  1  0
 43 45  1  0
 43 46  1  0
 44 42  2  0
 47 22  1  0
 47 48  1  0
 49 47  1  0
 50  1  1  0
 50 51  2  0
 52 51  1  0
 52 53  2  0
 54 53  1  0
 55 66  2  0
 56 54  1  0
 56 61  1  0
 57 65  1  0
 57 67  1  0
 58 60  1  0
 59 65  1  0
 60 61  2  0
 60 59  1  0
 62 56  2  0
 63 62  1  0
 63 58  2  0
 64 58  1  0
 64 57  1  0
 65 55  1  0
 67 69  2  0
 68 67  1  0
 70 68  1  0
 71 80  2  0
 71 76  1  0
 72 68  1  0
 72 76  1  0
 73 72  1  0
 74 75  1  0
 74 73  1  0
 75 71  1  0
 76 77  2  0
 77 78  1  0
 79 78  2  0
 80 79  1  0
 81 55  1  0
 81 82  1  0
 81 91  1  0
 82 85  1  0
 83 87  1  0
 83 82  1  0
 84 83  2  0
 87 86  1  0
 89 87  1  0
 89 90  1  0
 89 88  1  0
 91 94  1  1
 91 92  1  0
 93 91  1  0
M  ISO  4  10 100  14 100  53 101  54 101
M  END
>  <TORSDO>  (48) 
F 21

>  <SCORE>  (48) 
-9.934

>  <name>  (48) 
48

>  <ligand_id>  (48) 
48

>  <original_smiles>  (48) 
[H]c1c([H])c([H])c2c(c1[H])C([H])([H])C([H])([H])C([H])([H])C2([H])N([H])C(=O)C1([H])N(C(=O)C([H])(N([H])C(=O)C([H])(N([H])C([H])([H])[H])C([H])([H])[H])C(C([H])([H])[H])(C([H])([H])[H])C([H])([H])[H])C([H])([H])c2c([H])c(OC([H])([H])C([H])([H])C([H])([H])C([H])([H])[N+]([H])([H])C3([H])C([H])([H])C4([H])C([H])([H])C([H])([H])C(C([H])([H])[H])(C([H])([H])[H])C4(C(=O)N4C([H])([H])C([H])([H])C([H])([H])C([H])(n5nc(-c6c([H])c([H])c(Oc7c([H])c([H])c(F)c([H])c7F)c([H])c6[H])c(C(=O)N([H])[H])c5N([H])[H])C4([H])[H])C3([H])[H])c([H])c([H])c2C1([H])[H]

>  <smiles>  (48) 
[H]c1c([H])c([H])c2c(c1[H])C([H])([H])C([H])([H])C([H])([H])C2([H])N([H])C(=O)C1([H])N(C(=O)C([H])(N([H])C(=O)C([H])(N([H])C([H])([H])[H])C([H])([H])[H])C(C([H])([H])[H])(C([H])([H])[H])C([H])([H])[H])C([H])([H])c2c([H])c(OC([H])([H])C([H])([H])C([H])([H])C([H])([H])[N+]([H])([H])C3([H])C([H])([H])C4([H])C([H])([H])C([H])([H])C(C([H])([H])[H])(C([H])([H])[H])C4(C(=O)N4C([H])([H])C([H])([H])C([H])([H])C([H])(n5nc(-c6c([H])c([H])c(Oc7c([H])c([H])c(F)c([H])c7F)c([H])c6[H])c(C(=O)N([H])[H])c5N([H])[H])C4([H])[H])C3([H])[H])c([H])c([H])c2C1([H])[H]

$$$$
49:0:0
     RDKit          3D

 96105  0  0  1  0  0  0  0  0999 V2000
  -32.0700  -18.6830   19.9540 C   0  0  0  0  0  2  0  0  0  0  0  0
  -30.7470  -20.9930   21.4540 C   0  0  0  0  0  2  0  0  0  0  0  0
  -32.8320  -18.6840   21.2910 C   0  0  0  0  0  2  0  0  0  0  0  0
  -30.6190  -19.4940   21.7840 C   0  0  0  0  0  3  0  0  0  0  0  0
  -30.6510  -19.1460   20.2940 C   0  0  1  0  0  0  0  0  0  0  0  0
  -30.5880  -20.6270   20.0550 N   0  0  0  0  0  0  0  0  0  0  0  0
  -31.8390  -18.8930   22.3620 N   0  0  0  0  0  4  0  0  0  0  0  0
  -32.2200  -19.4240   23.1290 H   0  0  0  0  0  0  0  0  0  0  0  0
  -31.5900  -17.9820   22.7120 H   0  0  0  0  0  0  0  0  0  0  0  0
  -29.5160  -18.2280   19.7240 C   0  0  0  0  0  2  0  0  0  0  0  0
  -29.7480  -16.6830   19.4040 C   0  0  0  0  0  2  0  0  0  0  0  0
  -30.4830  -15.6500   20.3180 C   0  0  0  0  0  0  0  0  0  0  0  0
  -30.5890  -15.7280   21.6750 C   0  0  0  0  0  0  0  0  0  0  0  0
  -31.4710  -14.8230   22.5390 C   0  0  0  0  0  1  0  0  0  0  0  0
  -29.8160  -16.7140   22.5320 C   0  0  0  0  0  1  0  0  0  0  0  0
  -31.0850  -14.4830   19.6180 C   0  0  0  0  0  0  0  0  0  0  0  0
  -30.5850  -12.3310   18.4920 C   0  0  0  0  0  2  0  0  0  0  0  0
  -29.5480  -12.5750   17.3720 C   0  0  0  0  0  2  0  0  0  0  0  0
  -28.1140  -12.4690   17.9270 C   0  0  0  0  0  2  0  0  0  0  0  0
  -27.9180  -13.3100   19.2170 C   0  0  0  0  0  3  0  0  0  0  0  0
  -29.0590  -13.0530   20.2240 C   0  0  0  0  0  2  0  0  0  0  0  0
  -30.3440  -13.3270   19.5540 N   0  0  0  0  0  0  0  0  0  0  0  0
  -32.1560  -14.5840   19.0150 O   0  0  0  0  0  0  0  0  0  0  0  0
  -25.6250  -14.0170   20.1510 C   0  0  0  0  0  0  0  0  0  0  0  0
  -24.5610  -13.2890   20.6130 C   0  0  0  0  0  0  0  0  0  0  0  0
  -24.9550  -11.9200   20.5310 C   0  0  0  0  0  0  0  0  0  0  0  0
  -26.6020  -13.0910   19.8140 N   0  0  0  0  0  0  0  0  0  0  0  0
  -26.2080  -11.8260   20.1020 N   0  0  0  0  0  0  0  0  0  0  0  0
  -24.1930  -10.6880   20.7790 C   0  0  0  0  0  0  0  0  0  0  0  0
  -24.6390   -9.7160   21.7010 C   0  0  0  0  0  3  0  0  0  0  0  0
  -23.8770   -8.5520   21.9360 C   0  0  0  0  0  3  0  0  0  0  0  0
  -22.6560   -8.3510   21.2520 C   0  0  0  0  0  0  0  0  0  0  0  0
  -22.2280   -9.3100   20.3180 C   0  0  0  0  0  3  0  0  0  0  0  0
  -22.9880  -10.4660   20.0800 C   0  0  0  0  0  3  0  0  0  0  0  0
  -21.8680   -7.2340   21.3970 O   0  0  0  0  0  0  0  0  0  0  0  0
  -21.8300   -6.5260   22.5720 C   0  0  0  0  0  0  0  0  0  0  0  0
  -21.4970   -7.1360   23.8020 C   0  0  0  0  0  3  0  0  0  0  0  0
  -21.3970   -6.3560   24.9700 C   0  0  0  0  0  3  0  0  0  0  0  0
  -21.6270   -4.9680   24.9140 C   0  0  0  0  0  0  0  0  0  0  0  0
  -21.9530   -4.3580   23.6900 C   0  0  0  0  0  3  0  0  0  0  0  0
  -22.0520   -5.1340   22.5230 C   0  0  0  0  0  0  0  0  0  0  0  0
  -22.3450   -4.5370   21.3410 F   0  0  0  0  0  0  0  0  0  0  0  0
  -21.5240   -4.2170   26.0360 F   0  0  0  0  0  0  0  0  0  0  0  0
  -23.2160  -13.8270   21.0140 C   0  0  0  0  0  0  0  0  0  0  0  0
  -22.5510  -13.1750   21.9620 N   0  0  0  0  0  0  0  0  0  0  0  0
  -22.7700  -14.8620   20.5200 O   0  0  0  0  0  0  0  0  0  0  0  0
  -22.9240  -12.3390   22.3850 H   0  0  0  0  0  0  0  0  0  0  0  0
  -21.6540  -13.5210   22.2690 H   0  0  0  0  0  0  0  0  0  0  0  0
  -25.8370  -15.3800   19.9680 N   0  0  0  0  0  0  0  0  0  0  0  0
  -25.1140  -16.0690   20.1390 H   0  0  0  0  0  0  0  0  0  0  0  0
  -26.6790  -15.7810   19.5770 H   0  0  0  0  0  0  0  0  0  0  0  0
  -29.7080  -21.3790   19.1230 C   0  0  0  0  0  2  0  0  0  0  0  0
  -28.7790  -22.5360   19.6420 C   0  0  0  0  0  2  0  0  0  0  0  0
  -29.2620  -24.0320   19.5600 C   0  0  0  0  0  2  0  0  0  0  0  0
  -28.0710  -25.0320   19.3580 C   0  0  0  0  0  2  0  0  0  0  0  0
  -28.2710  -26.4670   19.5350 O   0  0  0  0  0  0  0  0  0  0  0  0
  -24.5430  -31.5820   22.9400 C   0  0  0  0  0  0  0  0  0  0  0  0
  -27.1140  -27.2520   19.5750 C   0  0  0  0  0  0  0  0  0  0  0  0
  -23.3020  -30.2600   21.2650 C   0  0  0  0  0  3  0  0  0  0  0  0
  -24.7200  -28.7990   19.7310 C   0  0  0  0  0  0  0  0  0  0  0  0
  -25.8320  -30.6170   21.0280 C   0  0  0  0  0  2  0  0  0  0  0  0
  -25.9010  -29.2790   20.3110 C   0  0  0  0  0  0  0  0  0  0  0  0
  -27.1000  -28.5200   20.2210 C   0  0  0  0  0  3  0  0  0  0  0  0
  -25.8980  -26.8070   18.9940 C   0  0  0  0  0  3  0  0  0  0  0  0
  -24.7190  -27.5650   19.0680 C   0  0  0  0  0  3  0  0  0  0  0  0
  -23.4800  -29.6550   19.8490 C   0  0  0  0  0  2  0  0  0  0  0  0
  -24.5780  -30.8340   21.8010 N   0  0  0  0  0  0  0  0  0  0  0  0
  -23.4740  -31.8270   23.5160 O   0  0  0  0  0  0  0  0  0  0  0  0
  -22.6740  -29.1900   22.1870 C   0  0  0  0  0  0  0  0  0  0  0  0
  -21.3430  -29.0250   22.0980 N   0  0  0  0  0  0  0  0  0  0  0  0
  -23.3800  -28.5140   22.9410 O   0  0  0  0  0  0  0  0  0  0  0  0
  -20.8360  -29.6260   21.4630 H   0  0  0  0  0  0  0  0  0  0  0  0
  -17.9730  -27.8340   22.6560 C   0  0  0  0  0  0  0  0  0  0  0  0
  -20.5430  -28.0520   22.8420 C   0  0  0  0  0  3  0  0  0  0  0  0
  -20.6050  -26.6560   22.1800 C   0  0  0  0  0  2  0  0  0  0  0  0
  -19.4620  -26.4040   21.1920 C   0  0  0  0  0  2  0  0  0  0  0  0
  -18.1080  -26.5230   21.8970 C   0  0  0  0  0  2  0  0  0  0  0  0
  -19.1160  -28.5590   23.0850 C   0  0  0  0  0  0  0  0  0  0  0  0
  -18.9370  -29.7860   23.7590 C   0  0  0  0  0  3  0  0  0  0  0  0
  -17.6450  -30.2910   24.0030 C   0  0  0  0  0  3  0  0  0  0  0  0
  -16.5160  -29.5630   23.5870 C   0  0  0  0  0  3  0  0  0  0  0  0
  -16.6820  -28.3350   22.9220 C   0  0  0  0  0  3  0  0  0  0  0  0
  -25.8410  -32.1870   23.5600 C   0  0  0  0  0  3  0  0  0  0  0  0
  -25.5270  -33.5550   23.9940 N   0  0  0  0  0  0  0  0  0  0  0  0
  -25.8390  -34.6630   23.3090 C   0  0  0  0  0  0  0  0  0  0  0  0
  -26.4930  -34.6400   22.2630 O   0  0  0  0  0  0  0  0  0  0  0  0
  -24.9380  -33.6450   24.8110 H   0  0  0  0  0  0  0  0  0  0  0  0
  -24.0980  -36.4680   23.1060 C   0  0  0  0  0  1  0  0  0  0  0  0
  -25.3470  -36.0090   23.8770 C   0  0  0  0  0  3  0  0  0  0  0  0
  -27.4840  -36.8360   24.7560 C   0  0  0  0  0  1  0  0  0  0  0  0
  -26.3740  -37.0730   23.8380 N   0  0  0  0  0  0  0  0  0  0  0  0
  -25.9650  -37.9770   24.0580 H   0  0  0  0  0  0  0  0  0  0  0  0
  -26.4090  -31.3360   24.7630 C   0  0  1  0  0  0  0  0  0  0  0  0
  -25.3560  -31.0100   25.8460 C   0  0  0  0  0  1  0  0  0  0  0  0
  -26.9950  -29.9970   24.2580 C   0  0  0  0  0  1  0  0  0  0  0  0
  -27.5720  -32.0980   25.4410 C   0  0  0  0  0  1  0  0  0  0  0  0
  1  5  1  0
  1  3  1  0
  3  7  1  0
  4  2  1  0
  4  7  1  0
  5 10  1  6
  5  4  1  0
  6  5  1  0
  6  2  1  0
  7  9  1  0
  7  8  1  0
 11 10  1  0
 11 12  1  0
 12 13  2  0
 13 15  1  0
 13 14  1  0
 16 12  1  0
 17 22  1  0
 18 19  1  0
 18 17  1  0
 20 19  1  0
 20 27  1  0
 20 21  1  0
 22 16  1  0
 22 21  1  0
 23 16  2  0
 24 25  2  0
 25 44  1  0
 26 25  1  0
 26 29  1  0
 27 28  1  0
 27 24  1  0
 28 26  2  0
 29 30  1  0
 30 31  2  0
 32 35  1  0
 32 31  1  0
 33 32  2  0
 34 33  1  0
 34 29  2  0
 35 36  1  0
 36 37  1  0
 37 38  2  0
 39 38  1  0
 39 43  1  0
 40 39  2  0
 41 36  2  0
 41 40  1  0
 42 41  1  0
 44 45  1  0
 45 48  1  0
 45 47  1  0
 46 44  2  0
 49 50  1  0
 49 24  1  0
 51 49  1  0
 52 53  1  0
 52  6  1  0
 54 53  1  0
 55 56  1  0
 55 54  1  0
 56 58  1  0
 57 68  2  0
 58 63  1  0
 59 67  1  0
 59 69  1  0
 60 66  1  0
 60 62  1  0
 61 67  1  0
 62 61  1  0
 63 62  2  0
 64 65  1  0
 64 58  2  0
 65 60  2  0
 66 59  1  0
 67 57  1  0
 69 71  2  0
 70 69  1  0
 72 70  1  0
 73 82  2  0
 73 78  1  0
 74 70  1  0
 74 78  1  0
 75 74  1  0
 76 77  1  0
 76 75  1  0
 77 73  1  0
 78 79  2  0
 79 80  1  0
 81 80  2  0
 82 81  1  0
 83 57  1  0
 83 84  1  0
 83 93  1  0
 84 87  1  0
 85 89  1  0
 85 84  1  0
 86 85  2  0
 89 88  1  0
 91 89  1  0
 91 92  1  0
 91 90  1  0
 93 96  1  1
 93 94  1  0
 95 93  1  0
M  ISO  4  12 100  16 100  55 101  56 101
M  END
>  <TORSDO>  (49) 
F 23

>  <SCORE>  (49) 
-9.826

>  <name>  (49) 
49

>  <ligand_id>  (49) 
49

>  <original_smiles>  (49) 
[H]c1c([H])c([H])c2c(c1[H])C([H])([H])C([H])([H])C([H])([H])C2([H])N([H])C(=O)C1([H])N(C(=O)C([H])(N([H])C(=O)C([H])(N([H])C([H])([H])[H])C([H])([H])[H])C(C([H])([H])[H])(C([H])([H])[H])C([H])([H])[H])C([H])([H])c2c([H])c(OC([H])([H])C([H])([H])C([H])([H])C([H])([H])N3C([H])([H])C4([H])C3(C([H])([H])C([H])([H])C(C(=O)N3C([H])([H])C([H])([H])C([H])([H])C([H])(n5nc(-c6c([H])c([H])c(Oc7c([H])c([H])c(F)c([H])c7F)c([H])c6[H])c(C(=O)N([H])[H])c5N([H])[H])C3([H])[H])=C(C([H])([H])[H])C([H])([H])[H])C([H])([H])C([H])([H])[N+]4([H])[H])c([H])c([H])c2C1([H])[H]

>  <smiles>  (49) 
[H]c1c([H])c([H])c2c(c1[H])C([H])([H])C([H])([H])C([H])([H])C2([H])N([H])C(=O)C1([H])N(C(=O)C([H])(N([H])C(=O)C([H])(N([H])C([H])([H])[H])C([H])([H])[H])C(C([H])([H])[H])(C([H])([H])[H])C([H])([H])[H])C([H])([H])c2c([H])c(OC([H])([H])C([H])([H])C([H])([H])C([H])([H])N3C([H])([H])C4([H])C3(C([H])([H])C([H])([H])C(C(=O)N3C([H])([H])C([H])([H])C([H])([H])C([H])(n5nc(-c6c([H])c([H])c(Oc7c([H])c([H])c(F)c([H])c7F)c([H])c6[H])c(C(=O)N([H])[H])c5N([H])[H])C3([H])[H])=C(C([H])([H])[H])C([H])([H])[H])C([H])([H])C([H])([H])[N+]4([H])[H])c([H])c([H])c2C1([H])[H]

$$$$
50:0:0
     RDKit          3D

 92100  0  0  1  0  0  0  0  0999 V2000
  -27.0610  -21.5040   20.3740 C   0  0  0  0  0  1  0  0  0  0  0  0
  -28.4770  -21.8390   20.8730 C   0  0  0  0  0  3  0  0  0  0  0  0
  -29.2500  -20.6190   21.2260 N   0  0  0  0  0  0  0  0  0  0  0  0
  -29.4930  -20.5460   22.2130 H   0  0  0  0  0  0  0  0  0  0  0  0
  -29.4850  -18.2730   18.2970 C   0  0  0  0  0  3  0  0  0  0  0  0
  -29.7460  -17.0430   18.9300 C   0  0  0  0  0  3  0  0  0  0  0  0
  -29.3030  -19.4470   19.0500 C   0  0  0  0  0  3  0  0  0  0  0  0
  -29.6360  -18.1630   21.0890 C   0  0  0  0  0  3  0  0  0  0  0  0
  -29.8230  -16.9590   20.3380 C   0  0  0  0  0  0  0  0  0  0  0  0
  -29.3870  -19.4270   20.4590 C   0  0  0  0  0  0  0  0  0  0  0  0
  -30.7110  -14.6220   20.5010 C   0  0  0  0  0  0  0  0  0  0  0  0
  -30.4890  -12.4100   19.4250 C   0  0  0  0  0  2  0  0  0  0  0  0
  -29.5800  -12.5750   18.1870 C   0  0  0  0  0  2  0  0  0  0  0  0
  -28.0950  -12.4360   18.5800 C   0  0  0  0  0  2  0  0  0  0  0  0
  -27.7180  -13.2910   19.8210 C   0  0  0  0  0  3  0  0  0  0  0  0
  -28.7470  -13.1060   20.9600 C   0  0  0  0  0  2  0  0  0  0  0  0
  -30.0820  -13.4140   20.4240 N   0  0  0  0  0  0  0  0  0  0  0  0
  -31.8500  -14.7980   20.0560 O   0  0  0  0  0  0  0  0  0  0  0  0
  -29.9730  -15.6640   20.9680 N   0  0  0  0  0  0  0  0  0  0  0  0
  -29.2070  -15.3960   21.5680 H   0  0  0  0  0  0  0  0  0  0  0  0
  -25.3030  -13.8960   20.4720 C   0  0  0  0  0  0  0  0  0  0  0  0
  -24.2280  -13.1240   20.8250 C   0  0  0  0  0  0  0  0  0  0  0  0
  -24.6940  -11.7740   20.8180 C   0  0  0  0  0  0  0  0  0  0  0  0
  -26.3550  -13.0150   20.2710 N   0  0  0  0  0  0  0  0  0  0  0  0
  -25.9910  -11.7350   20.5370 N   0  0  0  0  0  0  0  0  0  0  0  0
  -23.9670  -10.5130   21.0090 C   0  0  0  0  0  0  0  0  0  0  0  0
  -24.3800   -9.5580   21.9660 C   0  0  0  0  0  3  0  0  0  0  0  0
  -23.6550   -8.3600   22.1400 C   0  0  0  0  0  3  0  0  0  0  0  0
  -22.5030   -8.1060   21.3580 C   0  0  0  0  0  0  0  0  0  0  0  0
  -22.1100   -9.0480   20.3910 C   0  0  0  0  0  3  0  0  0  0  0  0
  -22.8360  -10.2370   20.2150 C   0  0  0  0  0  3  0  0  0  0  0  0
  -21.7510   -6.9600   21.4420 O   0  0  0  0  0  0  0  0  0  0  0  0
  -21.6720   -6.2320   22.6020 C   0  0  0  0  0  0  0  0  0  0  0  0
  -21.1980   -6.7980   23.8060 C   0  0  0  0  0  3  0  0  0  0  0  0
  -21.0680   -5.9970   24.9570 C   0  0  0  0  0  3  0  0  0  0  0  0
  -21.4030   -4.6300   24.9060 C   0  0  0  0  0  0  0  0  0  0  0  0
  -21.8700   -4.0640   23.7070 C   0  0  0  0  0  3  0  0  0  0  0  0
  -22.0010   -4.8620   22.5570 C   0  0  0  0  0  0  0  0  0  0  0  0
  -22.4310   -4.3060   21.4000 F   0  0  0  0  0  0  0  0  0  0  0  0
  -21.2700   -3.8580   26.0100 F   0  0  0  0  0  0  0  0  0  0  0  0
  -22.8240  -13.6000   21.0610 C   0  0  0  0  0  0  0  0  0  0  0  0
  -22.0790  -12.9110   21.9180 N   0  0  0  0  0  0  0  0  0  0  0  0
  -22.3960  -14.6200   20.5240 O   0  0  0  0  0  0  0  0  0  0  0  0
  -22.4360  -12.0850   22.3750 H   0  0  0  0  0  0  0  0  0  0  0  0
  -21.1370  -13.2150   22.1220 H   0  0  0  0  0  0  0  0  0  0  0  0
  -25.4650  -15.2670   20.2880 N   0  0  0  0  0  0  0  0  0  0  0  0
  -24.6920  -15.9150   20.3830 H   0  0  0  0  0  0  0  0  0  0  0  0
  -26.3200  -15.7120   19.9790 H   0  0  0  0  0  0  0  0  0  0  0  0
  -29.2430  -22.8790   19.9870 C   0  0  0  0  0  2  0  0  0  0  0  0
  -28.5560  -24.2440   19.6030 C   0  0  0  0  0  2  0  0  0  0  0  0
  -28.4070  -25.3530   20.6910 C   0  0  0  0  0  2  0  0  0  0  0  0
  -28.4210  -26.7160   20.1850 O   0  0  0  0  0  0  0  0  0  0  0  0
  -24.5750  -31.9300   23.2280 C   0  0  0  0  0  0  0  0  0  0  0  0
  -27.2440  -27.4480   20.1980 C   0  0  0  0  0  0  0  0  0  0  0  0
  -23.3790  -30.5190   21.5850 C   0  0  0  0  0  3  0  0  0  0  0  0
  -24.8450  -28.9670   20.1800 C   0  0  0  0  0  0  0  0  0  0  0  0
  -25.9040  -30.8790   21.3920 C   0  0  0  0  0  2  0  0  0  0  0  0
  -26.0000  -29.4970   20.7680 C   0  0  0  0  0  0  0  0  0  0  0  0
  -27.2030  -28.7470   20.7670 C   0  0  0  0  0  3  0  0  0  0  0  0
  -26.0710  -26.9360   19.6070 C   0  0  0  0  0  3  0  0  0  0  0  0
  -24.8770  -27.6870   19.5940 C   0  0  0  0  0  3  0  0  0  0  0  0
  -23.5980  -29.8270   20.2120 C   0  0  0  0  0  2  0  0  0  0  0  0
  -24.6380  -31.1240   22.1290 N   0  0  0  0  0  0  0  0  0  0  0  0
  -23.4900  -32.2010   23.7640 O   0  0  0  0  0  0  0  0  0  0  0  0
  -22.7240  -29.5020   22.5490 C   0  0  0  0  0  0  0  0  0  0  0  0
  -21.3980  -29.3250   22.4250 N   0  0  0  0  0  0  0  0  0  0  0  0
  -23.4060  -28.8770   23.3640 O   0  0  0  0  0  0  0  0  0  0  0  0
  -20.9080  -29.8890   21.7440 H   0  0  0  0  0  0  0  0  0  0  0  0
  -18.0250  -28.1350   22.9250 C   0  0  0  0  0  0  0  0  0  0  0  0
  -20.5820  -28.3850   23.1940 C   0  0  0  0  0  3  0  0  0  0  0  0
  -20.6810  -26.9560   22.6120 C   0  0  0  0  0  2  0  0  0  0  0  0
  -19.5760  -26.6390   21.5980 C   0  0  0  0  0  2  0  0  0  0  0  0
  -18.1960  -26.7870   22.2450 C   0  0  0  0  0  2  0  0  0  0  0  0
  -19.1450  -28.8910   23.3570 C   0  0  0  0  0  0  0  0  0  0  0  0
  -18.9320  -30.1550   23.9500 C   0  0  0  0  0  3  0  0  0  0  0  0
  -17.6290  -30.6590   24.1180 C   0  0  0  0  0  3  0  0  0  0  0  0
  -16.5210  -29.8990   23.7040 C   0  0  0  0  0  3  0  0  0  0  0  0
  -16.7210  -28.6390   23.1130 C   0  0  0  0  0  3  0  0  0  0  0  0
  -25.8550  -32.5680   23.8530 C   0  0  0  0  0  3  0  0  0  0  0  0
  -25.5410  -33.9650   24.1800 N   0  0  0  0  0  0  0  0  0  0  0  0
  -25.8750  -35.0170   23.4210 C   0  0  0  0  0  0  0  0  0  0  0  0
  -26.5510  -34.9120   22.3940 O   0  0  0  0  0  0  0  0  0  0  0  0
  -24.9430  -34.1190   24.9780 H   0  0  0  0  0  0  0  0  0  0  0  0
  -24.1530  -36.8100   23.0390 C   0  0  0  0  0  1  0  0  0  0  0  0
  -25.3820  -36.4050   23.8710 C   0  0  0  0  0  3  0  0  0  0  0  0
  -27.5040  -37.2910   24.7330 C   0  0  0  0  0  1  0  0  0  0  0  0
  -26.4170  -37.4580   23.7730 N   0  0  0  0  0  0  0  0  0  0  0  0
  -26.0080  -38.3790   23.9130 H   0  0  0  0  0  0  0  0  0  0  0  0
  -26.3710  -31.8000   25.1310 C   0  0  1  0  0  0  0  0  0  0  0  0
  -25.2780  -31.5610   26.1980 C   0  0  0  0  0  1  0  0  0  0  0  0
  -26.9570  -30.4230   24.7400 C   0  0  0  0  0  1  0  0  0  0  0  0
  -27.5180  -32.5960   25.7970 C   0  0  0  0  0  1  0  0  0  0  0  0
  2  1  1  0
  2  3  1  0
  3  4  1  0
  5  6  2  0
  5  7  1  0
  6  9  1  0
  7 10  2  0
  9 19  1  0
  9  8  2  0
 10  8  1  0
 10  3  1  0
 11 19  1  0
 12 17  1  0
 13 14  1  0
 13 12  1  0
 15 14  1  0
 15 24  1  0
 15 16  1  0
 17 11  1  0
 17 16  1  0
 18 11  2  0
 19 20  1  0
 21 22  2  0
 22 41  1  0
 23 22  1  0
 23 26  1  0
 24 21  1  0
 24 25  1  0
 25 23  2  0
 26 27  1  0
 27 28  2  0
 29 32  1  0
 29 28  1  0
 30 29  2  0
 31 30  1  0
 31 26  2  0
 32 33  1  0
 33 34  1  0
 34 35  2  0
 36 35  1  0
 36 40  1  0
 37 36  2  0
 38 33  2  0
 38 37  1  0
 39 38  1  0
 41 42  1  0
 42 45  1  0
 42 44  1  0
 43 41  2  0
 46 47  1  0
 46 21  1  0
 48 46  1  0
 49  2  1  0
 50 49  1  0
 50 51  1  0
 52 54  1  0
 52 51  1  0
 53 64  2  0
 54 59  1  0
 55 63  1  0
 55 65  1  0
 56 62  1  0
 56 58  1  0
 57 63  1  0
 58 57  1  0
 59 58  2  0
 60 54  2  0
 61 60  1  0
 61 56  2  0
 62 55  1  0
 63 53  1  0
 65 67  2  0
 66 65  1  0
 68 66  1  0
 69 78  2  0
 69 74  1  0
 70 66  1  0
 70 74  1  0
 71 70  1  0
 72 73  1  0
 72 71  1  0
 73 69  1  0
 74 75  2  0
 75 76  1  0
 77 76  2  0
 78 77  1  0
 79 53  1  0
 79 80  1  0
 79 89  1  0
 80 83  1  0
 81 85  1  0
 81 80  1  0
 82 81  2  0
 85 84  1  0
 87 85  1  0
 87 88  1  0
 87 86  1  0
 89 92  1  1
 89 90  1  0
 91 89  1  0
M  ISO  4  11 100  19 100  51 101  52 101
M  END
>  <TORSDO>  (50) 
F 21

>  <SCORE>  (50) 
-13.252

>  <name>  (50) 
50

>  <ligand_id>  (50) 
50

>  <original_smiles>  (50) 
[H]c1c([H])c(N([H])C(=O)N2C([H])([H])C([H])([H])C([H])([H])C([H])(n3nc(-c4c([H])c([H])c(Oc5c([H])c([H])c(F)c([H])c5F)c([H])c4[H])c(C(=O)N([H])[H])c3N([H])[H])C2([H])[H])c([H])c(N([H])C([H])(C([H])([H])[H])C([H])([H])C([H])([H])C([H])([H])Oc2c([H])c([H])c3c(c2[H])C([H])([H])N(C(=O)C([H])(N([H])C(=O)C([H])(N([H])C([H])([H])[H])C([H])([H])[H])C(C([H])([H])[H])(C([H])([H])[H])C([H])([H])[H])C([H])(C(=O)N([H])C2([H])c4c([H])c([H])c([H])c([H])c4C([H])([H])C([H])([H])C2([H])[H])C3([H])[H])c1[H]

>  <smiles>  (50) 
[H]c1c([H])c(N([H])C(=O)N2C([H])([H])C([H])([H])C([H])([H])C([H])(n3nc(-c4c([H])c([H])c(Oc5c([H])c([H])c(F)c([H])c5F)c([H])c4[H])c(C(=O)N([H])[H])c3N([H])[H])C2([H])[H])c([H])c(N([H])C([H])(C([H])([H])[H])C([H])([H])C([H])([H])C([H])([H])Oc2c([H])c([H])c3c(c2[H])C([H])([H])N(C(=O)C([H])(N([H])C(=O)C([H])(N([H])C([H])([H])[H])C([H])([H])[H])C(C([H])([H])[H])(C([H])([H])[H])C([H])([H])[H])C([H])(C(=O)N([H])C2([H])c4c([H])c([H])c([H])c([H])c4C([H])([H])C([H])([H])C2([H])[H])C3([H])[H])c1[H]

$$$$
51:0:0
     RDKit          3D

102111  0  0  1  0  0  0  0  0999 V2000
  -30.5810  -20.4710   23.9010 C   0  0  0  0  0  2  0  0  0  0  0  0
  -30.4420  -21.8880   24.5040 C   0  0  0  0  0  2  0  0  0  0  0  0
  -30.6370  -21.6360   20.2580 C   0  0  0  0  0  2  0  0  0  0  0  0
  -30.0060  -23.1710   22.2950 C   0  0  0  0  0  2  0  0  0  0  0  0
  -29.6590  -22.0550   21.3360 C   0  0  0  0  0  3  0  0  0  0  0  0
  -30.3300  -20.7190   21.4210 C   0  0  0  0  0  3  0  0  0  0  0  0
  -31.3180  -20.4510   22.5440 C   0  0  0  0  0  3  0  0  0  0  0  0
  -29.5510  -22.9240   23.7610 C   0  0  0  0  0  3  0  0  0  0  0  0
  -29.5450  -24.1730   24.5720 N   0  0  0  0  0  4  0  0  0  0  0  0
  -30.4860  -24.5100   24.7030 H   0  0  0  0  0  0  0  0  0  0  0  0
  -29.2010  -23.9210   25.4850 H   0  0  0  0  0  0  0  0  0  0  0  0
  -28.6860  -25.2880   24.1110 C   0  0  0  0  0  2  0  0  0  0  0  0
  -29.4280  -26.2610   23.1590 C   0  0  0  0  0  2  0  0  0  0  0  0
  -28.6050  -26.5850   21.9010 C   0  0  0  0  0  2  0  0  0  0  0  0
  -29.4450  -27.1140   20.7160 C   0  0  0  0  0  2  0  0  0  0  0  0
  -28.6810  -27.1300   19.5070 O   0  0  0  0  0  0  0  0  0  0  0  0
  -24.7420  -31.8180   23.0950 C   0  0  0  0  0  0  0  0  0  0  0  0
  -27.5060  -27.8360   19.5780 C   0  0  0  0  0  0  0  0  0  0  0  0
  -23.5460  -30.4870   21.3840 C   0  0  0  0  0  3  0  0  0  0  0  0
  -25.0250  -29.1510   19.7920 C   0  0  0  0  0  0  0  0  0  0  0  0
  -26.0340  -31.0140   21.1290 C   0  0  0  0  0  2  0  0  0  0  0  0
  -26.1680  -29.7100   20.3790 C   0  0  0  0  0  0  0  0  0  0  0  0
  -27.4110  -29.0600   20.2710 C   0  0  0  0  0  3  0  0  0  0  0  0
  -26.3570  -27.2860   18.9780 C   0  0  0  0  0  3  0  0  0  0  0  0
  -25.1120  -27.9350   19.0890 C   0  0  0  0  0  3  0  0  0  0  0  0
  -23.7370  -29.9250   19.9480 C   0  0  0  0  0  2  0  0  0  0  0  0
  -24.7940  -31.1150   21.9290 N   0  0  0  0  0  0  0  0  0  0  0  0
  -23.6700  -31.9880   23.6920 O   0  0  0  0  0  0  0  0  0  0  0  0
  -22.9900  -29.3600   22.2800 C   0  0  0  0  0  0  0  0  0  0  0  0
  -21.6740  -29.1110   22.1740 N   0  0  0  0  0  0  0  0  0  0  0  0
  -23.7340  -28.7160   23.0250 O   0  0  0  0  0  0  0  0  0  0  0  0
  -21.1320  -29.6890   21.5470 H   0  0  0  0  0  0  0  0  0  0  0  0
  -18.3940  -27.6770   22.6440 C   0  0  0  0  0  0  0  0  0  0  0  0
  -20.9360  -28.0740   22.8920 C   0  0  0  0  0  3  0  0  0  0  0  0
  -21.1140  -26.6950   22.2140 C   0  0  0  0  0  2  0  0  0  0  0  0
  -20.0130  -26.3750   21.1990 C   0  0  0  0  0  2  0  0  0  0  0  0
  -18.6390  -26.3900   21.8750 C   0  0  0  0  0  2  0  0  0  0  0  0
  -19.4730  -28.4760   23.1090 C   0  0  0  0  0  0  0  0  0  0  0  0
  -19.1900  -29.6810   23.7870 C   0  0  0  0  0  3  0  0  0  0  0  0
  -17.8610  -30.0890   24.0070 C   0  0  0  0  0  3  0  0  0  0  0  0
  -16.7980  -29.2870   23.5590 C   0  0  0  0  0  3  0  0  0  0  0  0
  -17.0640  -28.0830   22.8840 C   0  0  0  0  0  3  0  0  0  0  0  0
  -26.0190  -32.4640   23.7190 C   0  0  0  0  0  3  0  0  0  0  0  0
  -25.6720  -33.8350   24.1150 N   0  0  0  0  0  0  0  0  0  0  0  0
  -25.9710  -34.9290   23.4030 C   0  0  0  0  0  0  0  0  0  0  0  0
  -26.6430  -34.8940   22.3680 O   0  0  0  0  0  0  0  0  0  0  0  0
  -25.0750  -33.9350   24.9220 H   0  0  0  0  0  0  0  0  0  0  0  0
  -24.1940  -36.6850   23.1250 C   0  0  0  0  0  1  0  0  0  0  0  0
  -25.4420  -36.2800   23.9240 C   0  0  0  0  0  3  0  0  0  0  0  0
  -27.5480  -37.1830   24.8060 C   0  0  0  0  0  1  0  0  0  0  0  0
  -26.4450  -37.3660   23.8660 N   0  0  0  0  0  0  0  0  0  0  0  0
  -26.0120  -38.2650   24.0540 H   0  0  0  0  0  0  0  0  0  0  0  0
  -26.5910  -31.6540   24.9480 C   0  0  1  0  0  0  0  0  0  0  0  0
  -25.5290  -31.3280   26.0220 C   0  0  0  0  0  1  0  0  0  0  0  0
  -27.2190  -30.3200   24.4800 C   0  0  0  0  0  1  0  0  0  0  0  0
  -27.7240  -32.4610   25.6260 C   0  0  0  0  0  1  0  0  0  0  0  0
  -32.1680  -19.1780   22.2820 C   0  0  0  0  0  3  0  0  0  0  0  0
  -31.2430  -18.0310   22.0590 N   0  0  0  0  0  4  0  0  0  0  0  0
  -30.9140  -17.7130   22.9580 H   0  0  0  0  0  0  0  0  0  0  0  0
  -30.4450  -18.4030   21.5670 H   0  0  0  0  0  0  0  0  0  0  0  0
  -31.7390  -16.8750   21.2800 C   0  0  0  0  0  2  0  0  0  0  0  0
  -30.6860  -15.7570   21.1410 C   0  0  0  0  0  2  0  0  0  0  0  0
  -31.1600  -14.6180   20.2250 C   0  0  0  0  0  0  0  0  0  0  0  0
  -30.8700  -12.3300   19.3460 C   0  0  0  0  0  2  0  0  0  0  0  0
  -29.9270  -12.3060   18.1300 C   0  0  0  0  0  2  0  0  0  0  0  0
  -28.4600  -12.1940   18.5850 C   0  0  0  0  0  2  0  0  0  0  0  0
  -28.0940  -13.2320   19.6790 C   0  0  0  0  0  3  0  0  0  0  0  0
  -29.1460  -13.2340   20.8120 C   0  0  0  0  0  2  0  0  0  0  0  0
  -30.4730  -13.4490   20.2090 N   0  0  0  0  0  0  0  0  0  0  0  0
  -32.1670  -14.7960   19.5310 O   0  0  0  0  0  0  0  0  0  0  0  0
  -25.7450  -13.9260   20.4770 C   0  0  0  0  0  0  0  0  0  0  0  0
  -24.6560  -13.1890   20.8610 C   0  0  0  0  0  0  0  0  0  0  0  0
  -25.0570  -11.8210   20.7790 C   0  0  0  0  0  0  0  0  0  0  0  0
  -26.7440  -13.0060   20.1930 N   0  0  0  0  0  0  0  0  0  0  0  0
  -26.3330  -11.7350   20.4280 N   0  0  0  0  0  0  0  0  0  0  0  0
  -24.2840  -10.5840   20.9610 C   0  0  0  0  0  0  0  0  0  0  0  0
  -24.6370   -9.6300   21.9400 C   0  0  0  0  0  3  0  0  0  0  0  0
  -23.8690   -8.4590   22.1080 C   0  0  0  0  0  3  0  0  0  0  0  0
  -22.7320   -8.2330   21.2960 C   0  0  0  0  0  0  0  0  0  0  0  0
  -22.3980   -9.1760   20.3080 C   0  0  0  0  0  3  0  0  0  0  0  0
  -23.1660  -10.3390   20.1380 C   0  0  0  0  0  3  0  0  0  0  0  0
  -21.9410   -7.1120   21.3710 O   0  0  0  0  0  0  0  0  0  0  0  0
  -21.7350   -6.4540   22.5570 C   0  0  0  0  0  0  0  0  0  0  0  0
  -21.1540   -7.0940   23.6730 C   0  0  0  0  0  3  0  0  0  0  0  0
  -20.8970   -6.3610   24.8490 C   0  0  0  0  0  3  0  0  0  0  0  0
  -21.2100   -4.9890   24.9090 C   0  0  0  0  0  0  0  0  0  0  0  0
  -21.7840   -4.3500   23.7960 C   0  0  0  0  0  3  0  0  0  0  0  0
  -22.0430   -5.0790   22.6220 C   0  0  0  0  0  0  0  0  0  0  0  0
  -22.5760   -4.4530   21.5460 F   0  0  0  0  0  0  0  0  0  0  0  0
  -20.9570   -4.2840   26.0350 F   0  0  0  0  0  0  0  0  0  0  0  0
  -23.2900  -13.7170   21.1940 C   0  0  0  0  0  0  0  0  0  0  0  0
  -22.5710  -13.0410   22.0850 N   0  0  0  0  0  0  0  0  0  0  0  0
  -22.8700  -14.7620   20.7000 O   0  0  0  0  0  0  0  0  0  0  0  0
  -22.9240  -12.1940   22.5050 H   0  0  0  0  0  0  0  0  0  0  0  0
  -21.6560  -13.3750   22.3490 H   0  0  0  0  0  0  0  0  0  0  0  0
  -25.9640  -15.2920   20.3280 N   0  0  0  0  0  0  0  0  0  0  0  0
  -25.2330  -15.9790   20.4720 H   0  0  0  0  0  0  0  0  0  0  0  0
  -26.8250  -15.6970   19.9800 H   0  0  0  0  0  0  0  0  0  0  0  0
  -33.2190  -19.3920   21.1410 C   0  0  0  0  0  2  0  0  0  0  0  0
  -34.7990  -20.8810   19.8300 C   0  0  0  0  0  1  0  0  0  0  0  0
  -34.9460  -20.8640   22.3500 C   0  0  0  0  0  1  0  0  0  0  0  0
  -34.0070  -20.7280   21.1380 C   0  0  0  0  0  3  0  0  0  0  0  0
  1  2  1  0
  4  8  1  0
  5  3  1  0
  5  6  1  0
  5  4  1  0
  6  3  1  0
  6  7  1  0
  7 57  1  0
  7  1  1  0
  8  2  1  0
  8  9  1  0
  9 10  1  0
  9 11  1  0
 12  9  1  0
 13 12  1  0
 14 13  1  0
 15 14  1  0
 16 18  1  0
 16 15  1  0
 17 28  2  0
 18 23  1  0
 19 27  1  0
 19 29  1  0
 20 26  1  0
 20 22  1  0
 21 27  1  0
 22 21  1  0
 23 22  2  0
 24 25  1  0
 24 18  2  0
 25 20  2  0
 26 19  1  0
 27 17  1  0
 29 31  2  0
 30 29  1  0
 32 30  1  0
 33 42  2  0
 33 38  1  0
 34 30  1  0
 34 38  1  0
 35 34  1  0
 36 37  1  0
 36 35  1  0
 37 33  1  0
 38 39  2  0
 39 40  1  0
 41 40  2  0
 42 41  1  0
 43 17  1  0
 43 44  1  0
 43 53  1  0
 44 47  1  0
 45 49  1  0
 45 44  1  0
 46 45  2  0
 49 48  1  0
 51 49  1  0
 51 52  1  0
 51 50  1  0
 53 56  1  1
 53 54  1  0
 55 53  1  0
 57 99  1  0
 58 57  1  0
 58 59  1  0
 60 58  1  0
 61 58  1  0
 62 61  1  0
 63 62  1  0
 64 69  1  0
 65 66  1  0
 65 64  1  0
 67 66  1  0
 67 74  1  0
 67 68  1  0
 69 63  1  0
 69 68  1  0
 70 63  2  0
 71 72  2  0
 72 91  1  0
 73 72  1  0
 73 76  1  0
 74 75  1  0
 74 71  1  0
 75 73  2  0
 76 77  1  0
 77 78  2  0
 79 82  1  0
 79 78  1  0
 80 79  2  0
 81 80  1  0
 81 76  2  0
 82 83  1  0
 83 88  2  0
 83 84  1  0
 84 85  2  0
 85 86  1  0
 86 90  1  0
 87 86  2  0
 88 87  1  0
 89 88  1  0
 91 92  1  0
 92 95  1  0
 92 94  1  0
 93 91  2  0
 96 97  1  0
 96 71  1  0
 98 96  1  0
100102  1  0
102 99  1  0
102101  1  0
M  ISO  4  15 101  16 101  62 100  63 100
M  END
>  <TORSDO>  (51) 
F 27

>  <SCORE>  (51) 
-10.554

>  <name>  (51) 
51

>  <ligand_id>  (51) 
51

>  <original_smiles>  (51) 
[H]c1c([H])c([H])c2c(c1[H])C([H])([H])C([H])([H])C([H])([H])C2([H])N([H])C(=O)C1([H])N(C(=O)C([H])(N([H])C(=O)C([H])(N([H])C([H])([H])[H])C([H])([H])[H])C(C([H])([H])[H])(C([H])([H])[H])C([H])([H])[H])C([H])([H])c2c([H])c(OC([H])([H])C([H])([H])C([H])([H])C([H])([H])[N+]([H])([H])C3([H])C([H])([H])C([H])([H])C([H])(C([H])(C([H])([H])C([H])(C([H])([H])[H])C([H])([H])[H])[N+]([H])([H])C([H])([H])C([H])([H])C(=O)N4C([H])([H])C([H])([H])C([H])([H])C([H])(n5nc(-c6c([H])c([H])c(Oc7c([H])c([H])c(F)c([H])c7F)c([H])c6[H])c(C(=O)N([H])[H])c5N([H])[H])C4([H])[H])C4([H])C([H])([H])C4([H])C3([H])[H])c([H])c([H])c2C1([H])[H]

>  <smiles>  (51) 
[H]c1c([H])c([H])c2c(c1[H])C([H])([H])C([H])([H])C([H])([H])C2([H])N([H])C(=O)C1([H])N(C(=O)C([H])(N([H])C(=O)C([H])(N([H])C([H])([H])[H])C([H])([H])[H])C(C([H])([H])[H])(C([H])([H])[H])C([H])([H])[H])C([H])([H])c2c([H])c(OC([H])([H])C([H])([H])C([H])([H])C([H])([H])[N+]([H])([H])C3([H])C([H])([H])C([H])([H])C([H])(C([H])(C([H])([H])C([H])(C([H])([H])[H])C([H])([H])[H])[N+]([H])([H])C([H])([H])C([H])([H])C(=O)N4C([H])([H])C([H])([H])C([H])([H])C([H])(n5nc(-c6c([H])c([H])c(Oc7c([H])c([H])c(F)c([H])c7F)c([H])c6[H])c(C(=O)N([H])[H])c5N([H])[H])C4([H])[H])C4([H])C([H])([H])C4([H])C3([H])[H])c([H])c([H])c2C1([H])[H]

$$$$
52:0:0
     RDKit          3D

 94102  0  0  1  0  0  0  0  0999 V2000
  -29.7860  -19.6890   19.7990 C   0  0  0  0  0  3  0  0  0  0  0  0
  -27.6400  -19.1970   16.5320 C   0  0  0  0  0  2  0  0  0  0  0  0
  -28.7480  -18.9710   15.4880 C   0  0  0  0  0  2  0  0  0  0  0  0
  -28.1380  -18.9340   17.9640 C   0  0  0  0  0  2  0  0  0  0  0  0
  -30.5160  -19.4350   17.2340 C   0  0  0  0  0  2  0  0  0  0  0  0
  -29.9910  -19.8160   15.8300 C   0  0  0  0  0  3  0  0  0  0  0  0
  -29.4160  -19.7380   18.2780 C   0  0  0  0  0  3  0  0  0  0  0  0
  -31.0750  -19.7690   14.7470 C   0  0  0  0  0  1  0  0  0  0  0  0
  -32.1670  -18.9360   20.2330 C   0  0  0  0  0  1  0  0  0  0  0  0
  -30.7490  -18.5240   20.0860 N   0  0  1  0  0  4  0  0  0  0  0  0
  -30.7300  -18.0160   19.2130 H   0  0  0  0  0  0  0  0  0  0  0  0
  -30.3620  -17.4700   21.1310 C   0  0  0  0  0  2  0  0  0  0  0  0
  -29.8850  -16.0330   20.6060 C   0  0  0  0  0  2  0  0  0  0  0  0
  -30.8340  -14.7600   20.6490 C   0  0  0  0  0  0  0  0  0  0  0  0
  -30.8080  -12.4190   19.8430 C   0  0  0  0  0  2  0  0  0  0  0  0
  -29.9410  -12.3740   18.5620 C   0  0  0  0  0  2  0  0  0  0  0  0
  -28.4350  -12.2370   18.8820 C   0  0  0  0  0  2  0  0  0  0  0  0
  -27.9690  -13.1880   20.0160 C   0  0  0  0  0  3  0  0  0  0  0  0
  -28.9550  -13.1520   21.2050 C   0  0  0  0  0  2  0  0  0  0  0  0
  -30.2900  -13.5020   20.6990 N   0  0  0  0  0  0  0  0  0  0  0  0
  -32.0350  -14.9100   20.4000 O   0  0  0  0  0  0  0  0  0  0  0  0
  -25.5430  -13.8170   20.5780 C   0  0  0  0  0  0  0  0  0  0  0  0
  -24.4490  -13.0650   20.9020 C   0  0  0  0  0  0  0  0  0  0  0  0
  -24.9010  -11.7100   20.9270 C   0  0  0  0  0  0  0  0  0  0  0  0
  -26.5920  -12.9260   20.4280 N   0  0  0  0  0  0  0  0  0  0  0  0
  -26.2060  -11.6530   20.6950 N   0  0  0  0  0  0  0  0  0  0  0  0
  -24.1580  -10.4580   21.0980 C   0  0  0  0  0  0  0  0  0  0  0  0
  -24.5450   -9.4950   22.0560 C   0  0  0  0  0  3  0  0  0  0  0  0
  -23.8080   -8.3010   22.2100 C   0  0  0  0  0  3  0  0  0  0  0  0
  -22.6700   -8.0640   21.4060 C   0  0  0  0  0  0  0  0  0  0  0  0
  -22.3030   -9.0130   20.4370 C   0  0  0  0  0  3  0  0  0  0  0  0
  -23.0400  -10.1970   20.2820 C   0  0  0  0  0  3  0  0  0  0  0  0
  -21.9030   -6.9270   21.4740 O   0  0  0  0  0  0  0  0  0  0  0  0
  -21.8140   -6.1860   22.6250 C   0  0  0  0  0  0  0  0  0  0  0  0
  -21.3430   -6.7430   23.8340 C   0  0  0  0  0  3  0  0  0  0  0  0
  -21.2050   -5.9290   24.9760 C   0  0  0  0  0  3  0  0  0  0  0  0
  -21.5280   -4.5610   24.9110 C   0  0  0  0  0  0  0  0  0  0  0  0
  -21.9920   -4.0050   23.7060 C   0  0  0  0  0  3  0  0  0  0  0  0
  -22.1320   -4.8160   22.5660 C   0  0  0  0  0  0  0  0  0  0  0  0
  -22.5590   -4.2700   21.4020 F   0  0  0  0  0  0  0  0  0  0  0  0
  -21.3910   -3.7760   26.0040 F   0  0  0  0  0  0  0  0  0  0  0  0
  -23.0400  -13.5560   21.0770 C   0  0  0  0  0  0  0  0  0  0  0  0
  -22.2560  -12.8980   21.9230 N   0  0  0  0  0  0  0  0  0  0  0  0
  -22.6390  -14.5630   20.4910 O   0  0  0  0  0  0  0  0  0  0  0  0
  -22.5840  -12.0830   22.4230 H   0  0  0  0  0  0  0  0  0  0  0  0
  -21.3090  -13.2160   22.0800 H   0  0  0  0  0  0  0  0  0  0  0  0
  -25.7350  -15.1780   20.3670 N   0  0  0  0  0  0  0  0  0  0  0  0
  -24.9290  -15.7900   20.3110 H   0  0  0  0  0  0  0  0  0  0  0  0
  -26.4830  -15.4800   19.7590 H   0  0  0  0  0  0  0  0  0  0  0  0
  -30.1940  -21.1840   20.2630 C   0  0  0  0  0  3  0  0  0  0  0  0
  -29.0630  -22.3260   20.2610 C   0  0  0  0  0  3  0  0  0  0  0  0
  -29.4500  -23.8570   20.4560 C   0  0  0  0  0  3  0  0  0  0  0  0
  -28.2270  -24.8610   20.5560 C   0  0  0  0  0  3  0  0  0  0  0  0
  -28.4720  -26.3100   20.4320 O   0  0  0  0  0  0  0  0  0  0  0  0
  -24.6000  -31.6890   23.2380 C   0  0  0  0  0  0  0  0  0  0  0  0
  -27.3510  -27.1410   20.3460 C   0  0  0  0  0  0  0  0  0  0  0  0
  -23.4740  -30.2970   21.5320 C   0  0  0  0  0  3  0  0  0  0  0  0
  -24.9930  -28.7400   20.1890 C   0  0  0  0  0  0  0  0  0  0  0  0
  -26.0150  -30.6130   21.4800 C   0  0  0  0  0  2  0  0  0  0  0  0
  -26.1260  -29.2340   20.8500 C   0  0  0  0  0  0  0  0  0  0  0  0
  -27.3110  -28.4460   20.9180 C   0  0  0  0  0  3  0  0  0  0  0  0
  -26.2070  -26.7010   19.6460 C   0  0  0  0  0  3  0  0  0  0  0  0
  -25.0370  -27.4810   19.5710 C   0  0  0  0  0  3  0  0  0  0  0  0
  -23.7580  -29.6160   20.1660 C   0  0  0  0  0  2  0  0  0  0  0  0
  -24.7120  -30.8840   22.1410 N   0  0  0  0  0  0  0  0  0  0  0  0
  -23.4920  -31.9730   23.7160 O   0  0  0  0  0  0  0  0  0  0  0  0
  -22.7570  -29.2860   22.4580 C   0  0  0  0  0  0  0  0  0  0  0  0
  -21.4320  -29.1440   22.2850 N   0  0  0  0  0  0  0  0  0  0  0  0
  -23.3920  -28.6330   23.2910 O   0  0  0  0  0  0  0  0  0  0  0  0
  -20.9840  -29.7330   21.5960 H   0  0  0  0  0  0  0  0  0  0  0  0
  -17.9970  -28.0860   22.7050 C   0  0  0  0  0  0  0  0  0  0  0  0
  -20.5620  -28.2160   23.0080 C   0  0  0  0  0  3  0  0  0  0  0  0
  -20.6080  -26.8060   22.3770 C   0  0  0  0  0  2  0  0  0  0  0  0
  -19.5000  -26.5630   21.3460 C   0  0  0  0  0  2  0  0  0  0  0  0
  -18.1160  -26.7570   21.9740 C   0  0  0  0  0  2  0  0  0  0  0  0
  -19.1450  -28.7770   23.1740 C   0  0  0  0  0  0  0  0  0  0  0  0
  -18.9790  -30.0280   23.8090 C   0  0  0  0  0  3  0  0  0  0  0  0
  -17.6970  -30.5830   23.9830 C   0  0  0  0  0  3  0  0  0  0  0  0
  -16.5640  -29.8860   23.5300 C   0  0  0  0  0  3  0  0  0  0  0  0
  -16.7160  -28.6390   22.9000 C   0  0  0  0  0  3  0  0  0  0  0  0
  -25.8530  -32.3080   23.9310 C   0  0  0  0  0  3  0  0  0  0  0  0
  -25.5440  -33.7130   24.2360 N   0  0  0  0  0  0  0  0  0  0  0  0
  -25.9430  -34.7570   23.4970 C   0  0  0  0  0  0  0  0  0  0  0  0
  -26.6810  -34.6390   22.5150 O   0  0  0  0  0  0  0  0  0  0  0  0
  -24.9020  -33.8790   24.9960 H   0  0  0  0  0  0  0  0  0  0  0  0
  -24.2580  -36.5680   23.0300 C   0  0  0  0  0  1  0  0  0  0  0  0
  -25.4450  -36.1540   23.9140 C   0  0  0  0  0  3  0  0  0  0  0  0
  -27.5350  -37.0280   24.8650 C   0  0  0  0  0  1  0  0  0  0  0  0
  -26.4960  -37.1940   23.8520 N   0  0  0  0  0  0  0  0  0  0  0  0
  -26.0910  -38.1190   23.9620 H   0  0  0  0  0  0  0  0  0  0  0  0
  -26.2900  -31.5380   25.2380 C   0  0  1  0  0  0  0  0  0  0  0  0
  -25.1310  -31.3040   26.2350 C   0  0  0  0  0  1  0  0  0  0  0  0
  -26.8960  -30.1590   24.8820 C   0  0  0  0  0  1  0  0  0  0  0  0
  -27.3960  -32.3330   25.9710 C   0  0  0  0  0  1  0  0  0  0  0  0
  1 10  1  0
  1 50  1  0
  2  4  1  0
  3  6  1  0
  3  2  1  0
  4  7  1  0
  5  7  1  0
  6  8  1  0
  6  5  1  0
  7  1  1  0
 10  9  1  0
 10 12  1  0
 10 11  1  6
 13 14  1  0
 13 12  1  0
 14 20  1  0
 15 20  1  0
 16 17  1  0
 16 15  1  0
 18 17  1  0
 18 25  1  0
 18 19  1  0
 20 19  1  0
 21 14  2  0
 22 23  2  0
 23 24  1  0
 23 42  1  0
 24 27  1  0
 25 22  1  0
 25 26  1  0
 26 24  2  0
 27 28  1  0
 28 29  2  0
 30 33  1  0
 30 29  1  0
 31 30  2  0
 32 31  1  0
 32 27  2  0
 33 34  1  0
 34 35  1  0
 35 36  2  0
 37 36  1  0
 37 41  1  0
 38 37  2  0
 39 34  2  0
 39 38  1  0
 40 39  1  0
 42 43  1  0
 43 46  1  0
 43 45  1  0
 44 42  2  0
 47 22  1  0
 48 47  1  0
 49 47  1  0
 51 50  2  0
 51 52  1  0
 52 53  2  0
 54 53  1  0
 55 66  2  0
 56 54  1  0
 56 61  1  0
 57 65  1  0
 57 67  1  0
 58 60  1  0
 59 65  1  0
 60 61  2  0
 60 59  1  0
 62 56  2  0
 63 62  1  0
 63 58  2  0
 64 58  1  0
 64 57  1  0
 65 55  1  0
 67 69  2  0
 68 67  1  0
 70 68  1  0
 71 80  2  0
 71 76  1  0
 72 68  1  0
 72 76  1  0
 73 72  1  0
 74 75  1  0
 74 73  1  0
 75 71  1  0
 76 77  2  0
 77 78  1  0
 79 78  2  0
 80 79  1  0
 81 55  1  0
 81 82  1  0
 81 91  1  0
 82 85  1  0
 83 87  1  0
 83 82  1  0
 84 83  2  0
 87 86  1  0
 89 87  1  0
 89 90  1  0
 89 88  1  0
 91 94  1  1
 91 92  1  0
 93 91  1  0
M  ISO  4  13 100  14 100  53 101  54 101
M  END
>  <TORSDO>  (52) 
F 24

>  <SCORE>  (52) 
-12.450

>  <name>  (52) 
52

>  <ligand_id>  (52) 
52

>  <original_smiles>  (52) 
[H]c1c([H])c([H])c2c(c1[H])C([H])([H])C([H])([H])C([H])([H])C2([H])N([H])C(=O)C1([H])N(C(=O)C([H])(N([H])C(=O)C([H])(N([H])C([H])([H])[H])C([H])([H])[H])C(C([H])([H])[H])(C([H])([H])[H])C([H])([H])[H])C([H])([H])c2c([H])c(OC([H])([H])C([H])([H])C([H])([H])C([H])([H])C([H])(C3([H])C([H])([H])C([H])([H])C([H])([H])C([H])(C([H])([H])[H])C3([H])[H])[N+]([H])(C([H])([H])[H])C([H])([H])C([H])([H])C(=O)N3C([H])([H])C([H])([H])C([H])([H])C([H])(n4nc(-c5c([H])c([H])c(Oc6c([H])c([H])c(F)c([H])c6F)c([H])c5[H])c(C(=O)N([H])[H])c4N([H])[H])C3([H])[H])c([H])c([H])c2C1([H])[H]

>  <smiles>  (52) 
[H]c1c([H])c([H])c2c(c1[H])C([H])([H])C([H])([H])C([H])([H])C2([H])N([H])C(=O)C1([H])N(C(=O)C([H])(N([H])C(=O)C([H])(N([H])C([H])([H])[H])C([H])([H])[H])C(C([H])([H])[H])(C([H])([H])[H])C([H])([H])[H])C([H])([H])c2c([H])c(OC([H])([H])C([H])([H])C([H])([H])C([H])([H])C([H])(C3([H])C([H])([H])C([H])([H])C([H])([H])C([H])(C([H])([H])[H])C3([H])[H])[N+]([H])(C([H])([H])[H])C([H])([H])C([H])([H])C(=O)N3C([H])([H])C([H])([H])C([H])([H])C([H])(n4nc(-c5c([H])c([H])c(Oc6c([H])c([H])c(F)c([H])c6F)c([H])c5[H])c(C(=O)N([H])[H])c4N([H])[H])C3([H])[H])c([H])c([H])c2C1([H])[H]

$$$$
53:0:0
     RDKit          3D

 97105  0  0  1  0  0  0  0  0999 V2000
  -29.1030  -21.4080   19.6550 N   0  0  1  0  0  4  0  0  0  0  0  0
  -29.9720  -21.6110   19.1820 H   0  0  0  0  0  0  0  0  0  0  0  0
  -28.7220  -20.8220   17.2300 C   0  0  0  0  0  1  0  0  0  0  0  0
  -28.2920  -20.5670   18.6880 C   0  0  0  0  0  3  0  0  0  0  0  0
  -25.9540  -19.5550   18.1890 C   0  0  0  0  0  1  0  0  0  0  0  0
  -26.7460  -20.6780   18.8740 C   0  0  0  0  0  2  0  0  0  0  0  0
  -28.4170  -22.7300   19.8940 C   0  0  0  0  0  2  0  0  0  0  0  0
  -29.2640  -24.0280   20.1430 C   0  0  0  0  0  2  0  0  0  0  0  0
  -28.3910  -25.2200   19.6630 C   0  0  0  0  0  2  0  0  0  0  0  0
  -28.7020  -26.6330   19.8080 O   0  0  0  0  0  0  0  0  0  0  0  0
  -24.6040  -31.5190   23.0390 C   0  0  0  0  0  0  0  0  0  0  0  0
  -27.5530  -27.4210   19.7320 C   0  0  0  0  0  0  0  0  0  0  0  0
  -23.5130  -30.1470   21.3020 C   0  0  0  0  0  3  0  0  0  0  0  0
  -25.0790  -28.8230   19.7940 C   0  0  0  0  0  0  0  0  0  0  0  0
  -26.0210  -30.6720   21.1710 C   0  0  0  0  0  2  0  0  0  0  0  0
  -26.2040  -29.3540   20.4410 C   0  0  0  0  0  0  0  0  0  0  0  0
  -27.4450  -28.6610   20.4110 C   0  0  0  0  0  3  0  0  0  0  0  0
  -26.4060  -26.9570   19.0300 C   0  0  0  0  0  3  0  0  0  0  0  0
  -25.1800  -27.6260   19.0810 C   0  0  0  0  0  3  0  0  0  0  0  0
  -23.7820  -29.5890   19.8840 C   0  0  0  0  0  2  0  0  0  0  0  0
  -24.7290  -30.7890   21.8960 N   0  0  0  0  0  0  0  0  0  0  0  0
  -23.5000  -31.6860   23.5760 O   0  0  0  0  0  0  0  0  0  0  0  0
  -22.9240  -29.0180   22.1800 C   0  0  0  0  0  0  0  0  0  0  0  0
  -21.6110  -28.7670   22.0380 N   0  0  0  0  0  0  0  0  0  0  0  0
  -23.6430  -28.3770   22.9500 O   0  0  0  0  0  0  0  0  0  0  0  0
  -21.0880  -29.3390   21.3900 H   0  0  0  0  0  0  0  0  0  0  0  0
  -18.3140  -27.3500   22.4420 C   0  0  0  0  0  0  0  0  0  0  0  0
  -20.8500  -27.7390   22.7450 C   0  0  0  0  0  3  0  0  0  0  0  0
  -21.0390  -26.3510   22.0900 C   0  0  0  0  0  2  0  0  0  0  0  0
  -19.9650  -26.0270   21.0490 C   0  0  0  0  0  2  0  0  0  0  0  0
  -18.5710  -26.0570   21.6860 C   0  0  0  0  0  2  0  0  0  0  0  0
  -19.3840  -28.1460   22.9260 C   0  0  0  0  0  0  0  0  0  0  0  0
  -19.0900  -29.3550   23.5940 C   0  0  0  0  0  3  0  0  0  0  0  0
  -17.7580  -29.7670   23.7830 C   0  0  0  0  0  3  0  0  0  0  0  0
  -16.7020  -28.9670   23.3150 C   0  0  0  0  0  3  0  0  0  0  0  0
  -16.9800  -27.7590   22.6500 C   0  0  0  0  0  3  0  0  0  0  0  0
  -25.8380  -32.1960   23.7120 C   0  0  0  0  0  3  0  0  0  0  0  0
  -26.3360  -31.4360   25.0000 C   0  0  1  0  0  0  0  0  0  0  0  0
  -25.2100  -31.1360   26.0170 C   0  0  0  0  0  1  0  0  0  0  0  0
  -27.0030  -30.0920   24.6220 C   0  0  0  0  0  1  0  0  0  0  0  0
  -27.4190  -32.2770   25.7170 C   0  0  0  0  0  1  0  0  0  0  0  0
  -25.4590  -33.5780   24.0360 N   0  0  0  0  0  0  0  0  0  0  0  0
  -25.8470  -34.6550   23.3420 C   0  0  0  0  0  0  0  0  0  0  0  0
  -26.6300  -34.5920   22.3900 O   0  0  0  0  0  0  0  0  0  0  0  0
  -24.7750  -33.6980   24.7700 H   0  0  0  0  0  0  0  0  0  0  0  0
  -24.1580  -36.4390   22.7940 C   0  0  0  0  0  1  0  0  0  0  0  0
  -25.2730  -36.0200   23.7670 C   0  0  0  0  0  3  0  0  0  0  0  0
  -27.2550  -36.8910   24.9250 C   0  0  0  0  0  1  0  0  0  0  0  0
  -26.2920  -37.0890   23.8440 N   0  0  0  0  0  0  0  0  0  0  0  0
  -25.8540  -37.9980   23.9740 H   0  0  0  0  0  0  0  0  0  0  0  0
  -29.4960  -20.6270   20.8940 C   0  0  0  0  0  3  0  0  0  0  0  0
  -31.8930  -17.4610   20.1710 C   0  0  0  0  0  2  0  0  0  0  0  0
  -29.7370  -16.6830   21.2270 C   0  0  0  0  0  2  0  0  0  0  0  0
  -31.5560  -18.9320   20.5190 C   0  0  0  0  0  2  0  0  0  0  0  0
  -29.3900  -18.1420   21.5830 C   0  0  0  0  0  2  0  0  0  0  0  0
  -31.2600  -16.4800   21.1860 C   0  0  0  0  0  3  0  0  0  0  0  0
  -30.0220  -19.1580   20.6020 C   0  0  0  0  0  3  0  0  0  0  0  0
  -31.6950  -14.9870   21.0750 C   0  0  0  0  0  2  0  0  0  0  0  0
  -31.6090  -14.2630   19.7120 C   0  0  0  0  0  0  0  0  0  0  0  0
  -30.9650  -12.2120   18.4860 C   0  0  0  0  0  2  0  0  0  0  0  0
  -29.9220  -12.4320   17.3780 C   0  0  0  0  0  2  0  0  0  0  0  0
  -28.4990  -12.3660   17.9580 C   0  0  0  0  0  2  0  0  0  0  0  0
  -28.3310  -13.2690   19.2070 C   0  0  0  0  0  3  0  0  0  0  0  0
  -29.4700  -13.0380   20.2280 C   0  0  0  0  0  2  0  0  0  0  0  0
  -30.7610  -13.2150   19.5440 N   0  0  0  0  0  0  0  0  0  0  0  0
  -32.4710  -14.5450   18.8720 O   0  0  0  0  0  0  0  0  0  0  0  0
  -26.0790  -14.0470   20.1870 C   0  0  0  0  0  0  0  0  0  0  0  0
  -24.9910  -13.3530   20.6440 C   0  0  0  0  0  0  0  0  0  0  0  0
  -25.3240  -11.9690   20.5170 C   0  0  0  0  0  0  0  0  0  0  0  0
  -27.0130  -13.0920   19.8170 N   0  0  0  0  0  0  0  0  0  0  0  0
  -26.5670  -11.8340   20.0720 N   0  0  0  0  0  0  0  0  0  0  0  0
  -24.5130  -10.7650   20.7440 C   0  0  0  0  0  0  0  0  0  0  0  0
  -24.8880   -9.7900   21.6960 C   0  0  0  0  0  3  0  0  0  0  0  0
  -24.0820   -8.6510   21.9090 C   0  0  0  0  0  3  0  0  0  0  0  0
  -22.8870   -8.4780   21.1700 C   0  0  0  0  0  0  0  0  0  0  0  0
  -22.5310   -9.4420   20.2090 C   0  0  0  0  0  3  0  0  0  0  0  0
  -23.3360  -10.5720   19.9950 C   0  0  0  0  0  3  0  0  0  0  0  0
  -22.0580   -7.3910   21.2900 O   0  0  0  0  0  0  0  0  0  0  0  0
  -21.8850   -6.7450   22.4880 C   0  0  0  0  0  0  0  0  0  0  0  0
  -21.3960   -7.4170   23.6310 C   0  0  0  0  0  3  0  0  0  0  0  0
  -21.1650   -6.7010   24.8230 C   0  0  0  0  0  3  0  0  0  0  0  0
  -21.4140   -5.3170   24.8740 C   0  0  0  0  0  0  0  0  0  0  0  0
  -21.8950   -4.6460   23.7360 C   0  0  0  0  0  3  0  0  0  0  0  0
  -22.1260   -5.3580   22.5460 C   0  0  0  0  0  0  0  0  0  0  0  0
  -22.5700   -4.7020   21.4460 F   0  0  0  0  0  0  0  0  0  0  0  0
  -21.1860   -4.6280   26.0160 F   0  0  0  0  0  0  0  0  0  0  0  0
  -23.6780  -13.9350   21.0780 C   0  0  0  0  0  0  0  0  0  0  0  0
  -23.0160  -13.3050   22.0430 N   0  0  0  0  0  0  0  0  0  0  0  0
  -23.2520  -14.9850   20.5990 O   0  0  0  0  0  0  0  0  0  0  0  0
  -23.3720  -12.4540   22.4550 H   0  0  0  0  0  0  0  0  0  0  0  0
  -22.1390  -13.6800   22.3760 H   0  0  0  0  0  0  0  0  0  0  0  0
  -26.3440  -15.4040   20.0350 N   0  0  0  0  0  0  0  0  0  0  0  0
  -25.6560  -16.1190   20.2460 H   0  0  0  0  0  0  0  0  0  0  0  0
  -27.1960  -15.7770   19.6370 H   0  0  0  0  0  0  0  0  0  0  0  0
  -30.3790  -21.4020   21.9250 C   0  0  0  0  0  2  0  0  0  0  0  0
  -30.5340  -22.5840   24.2000 C   0  0  0  0  0  1  0  0  0  0  0  0
  -29.6130  -21.9320   23.1600 C   0  0  0  0  0  2  0  0  0  0  0  0
  1  7  1  0
  1 51  1  0
  1  2  1  6
  4  3  1  0
  4  6  1  0
  4  1  1  0
  5  6  1  0
  7  8  1  0
  9 10  1  0
  9  8  1  0
 11 22  2  0
 12 10  1  0
 12 17  1  0
 13 21  1  0
 13 23  1  0
 14 20  1  0
 14 16  1  0
 15 21  1  0
 16 15  1  0
 17 16  2  0
 18 19  1  0
 18 12  2  0
 19 14  2  0
 20 13  1  0
 21 11  1  0
 23 25  2  0
 24 23  1  0
 26 24  1  0
 27 36  2  0
 27 32  1  0
 28 24  1  0
 28 32  1  0
 29 28  1  0
 30 31  1  0
 30 29  1  0
 31 27  1  0
 32 33  2  0
 33 34  1  0
 35 34  2  0
 36 35  1  0
 37 11  1  0
 37 42  1  0
 37 38  1  0
 38 41  1  1
 38 39  1  0
 40 38  1  0
 42 45  1  0
 43 47  1  0
 43 42  1  0
 44 43  2  0
 47 46  1  0
 47 49  1  0
 49 50  1  0
 49 48  1  0
 51 95  1  0
 52 54  1  0
 52 56  1  0
 53 55  1  0
 54 57  1  0
 56 58  1  0
 56 53  1  0
 57 51  1  0
 57 55  1  0
 59 58  1  0
 60 65  1  0
 61 62  1  0
 61 60  1  0
 63 62  1  0
 63 70  1  0
 63 64  1  0
 65 59  1  0
 65 64  1  0
 66 59  2  0
 67 68  2  0
 68 87  1  0
 69 68  1  0
 69 72  1  0
 70 71  1  0
 70 67  1  0
 71 69  2  0
 72 73  1  0
 73 74  2  0
 75 78  1  0
 75 74  1  0
 76 75  2  0
 77 76  1  0
 77 72  2  0
 78 79  1  0
 79 84  2  0
 79 80  1  0
 80 81  2  0
 81 82  1  0
 82 86  1  0
 83 82  2  0
 84 83  1  0
 85 84  1  0
 87 88  1  0
 88 91  1  0
 88 90  1  0
 89 87  2  0
 92 67  1  0
 92 93  1  0
 94 92  1  0
 95 97  1  0
 97 96  1  0
M  ISO  4   9 101  10 101  58 100  59 100
M  END
>  <TORSDO>  (53) 
F 26

>  <SCORE>  (53) 
-10.085

>  <name>  (53) 
53

>  <ligand_id>  (53) 
53

>  <original_smiles>  (53) 
[H]c1c([H])c([H])c2c(c1[H])C([H])([H])C([H])([H])C([H])([H])C2([H])N([H])C(=O)C1([H])N(C(=O)C([H])(N([H])C(=O)C([H])(N([H])C([H])([H])[H])C([H])([H])[H])C(C([H])([H])[H])(C([H])([H])[H])C([H])([H])[H])C([H])([H])c2c([H])c(OC([H])([H])C([H])([H])C([H])([H])[N+]([H])(C([H])(C([H])([H])[H])C([H])([H])C([H])([H])[H])C([H])(C([H])([H])C([H])([H])C([H])([H])[H])C3([H])C([H])([H])C([H])([H])C([H])(C([H])([H])C(=O)N4C([H])([H])C([H])([H])C([H])([H])C([H])(n5nc(-c6c([H])c([H])c(Oc7c([H])c([H])c(F)c([H])c7F)c([H])c6[H])c(C(=O)N([H])[H])c5N([H])[H])C4([H])[H])C([H])([H])C3([H])[H])c([H])c([H])c2C1([H])[H]

>  <smiles>  (53) 
[H]c1c([H])c([H])c2c(c1[H])C([H])([H])C([H])([H])C([H])([H])C2([H])N([H])C(=O)C1([H])N(C(=O)C([H])(N([H])C(=O)C([H])(N([H])C([H])([H])[H])C([H])([H])[H])C(C([H])([H])[H])(C([H])([H])[H])C([H])([H])[H])C([H])([H])c2c([H])c(OC([H])([H])C([H])([H])C([H])([H])[N+]([H])(C([H])(C([H])([H])[H])C([H])([H])C([H])([H])[H])C([H])(C([H])([H])C([H])([H])C([H])([H])[H])C3([H])C([H])([H])C([H])([H])C([H])(C([H])([H])C(=O)N4C([H])([H])C([H])([H])C([H])([H])C([H])(n5nc(-c6c([H])c([H])c(Oc7c([H])c([H])c(F)c([H])c7F)c([H])c6[H])c(C(=O)N([H])[H])c5N([H])[H])C4([H])[H])C([H])([H])C3([H])[H])c([H])c([H])c2C1([H])[H]

$$$$
54:0:0
     RDKit          3D

 92101  0  0  1  0  0  0  0  0999 V2000
  -28.7390  -17.4950   19.1530 C   0  0  0  0  0  3  0  0  0  0  0  0
  -28.3020  -19.0690   18.9190 C   0  0  0  0  0  2  0  0  0  0  0  0
  -30.1120  -18.4900   21.0850 C   0  0  0  0  0  2  0  0  0  0  0  0
  -29.5690  -16.9730   20.4350 C   0  0  0  0  0  0  0  0  0  0  0  0
  -29.3060  -20.3020   19.1130 C   0  0  0  0  0  3  0  0  0  0  0  0
  -28.8210  -21.8860   18.9250 C   0  0  0  0  0  3  0  0  0  0  0  0
  -29.8340  -20.1370   20.5370 C   0  0  0  0  0  3  0  0  0  0  0  0
  -28.7220  -22.6000   20.3740 C   0  0  0  0  0  3  0  0  0  0  0  0
  -29.3460  -21.4540   21.2990 N   0  0  0  0  0  4  0  0  0  0  0  0
  -30.1420  -21.8360   21.7850 H   0  0  0  0  0  0  0  0  0  0  0  0
  -28.6950  -21.1880   22.0230 H   0  0  0  0  0  0  0  0  0  0  0  0
  -30.3720  -15.3710   20.3280 C   0  0  0  0  0  0  0  0  0  0  0  0
  -30.3880  -12.8860   19.4960 C   0  0  0  0  0  2  0  0  0  0  0  0
  -29.4720  -12.6270   18.2680 C   0  0  0  0  0  2  0  0  0  0  0  0
  -28.0230  -12.3550   18.7030 C   0  0  0  0  0  2  0  0  0  0  0  0
  -27.5640  -13.3350   19.8070 C   0  0  0  0  0  3  0  0  0  0  0  0
  -28.6000  -13.5320   20.9300 C   0  0  0  0  0  2  0  0  0  0  0  0
  -29.8360  -14.0390   20.3120 N   0  0  0  0  0  0  0  0  0  0  0  0
  -31.5970  -15.3330   20.1170 O   0  0  0  0  0  0  0  0  0  0  0  0
  -25.1970  -13.8860   20.5670 C   0  0  0  0  0  0  0  0  0  0  0  0
  -24.1350  -13.1130   20.9230 C   0  0  0  0  0  0  0  0  0  0  0  0
  -24.5920  -11.7590   20.8840 C   0  0  0  0  0  0  0  0  0  0  0  0
  -26.2390  -13.0120   20.3190 N   0  0  0  0  0  0  0  0  0  0  0  0
  -25.8880  -11.7250   20.5800 N   0  0  0  0  0  0  0  0  0  0  0  0
  -23.8590  -10.5000   21.0610 C   0  0  0  0  0  0  0  0  0  0  0  0
  -24.2770   -9.5290   21.9960 C   0  0  0  0  0  3  0  0  0  0  0  0
  -23.5420   -8.3350   22.1660 C   0  0  0  0  0  3  0  0  0  0  0  0
  -22.3740   -8.1040   21.3990 C   0  0  0  0  0  0  0  0  0  0  0  0
  -21.9740   -9.0660   20.4560 C   0  0  0  0  0  3  0  0  0  0  0  0
  -22.7080  -10.2510   20.2850 C   0  0  0  0  0  3  0  0  0  0  0  0
  -21.6130   -6.9610   21.4750 O   0  0  0  0  0  0  0  0  0  0  0  0
  -21.5470   -6.2170   22.6240 C   0  0  0  0  0  0  0  0  0  0  0  0
  -21.0930   -6.7690   23.8430 C   0  0  0  0  0  3  0  0  0  0  0  0
  -20.9730   -5.9500   24.9840 C   0  0  0  0  0  3  0  0  0  0  0  0
  -21.2960   -4.5820   24.9090 C   0  0  0  0  0  0  0  0  0  0  0  0
  -21.7420   -4.0300   23.6960 C   0  0  0  0  0  3  0  0  0  0  0  0
  -21.8660   -4.8450   22.5560 C   0  0  0  0  0  0  0  0  0  0  0  0
  -22.2750   -4.3040   21.3830 F   0  0  0  0  0  0  0  0  0  0  0  0
  -21.1730   -3.7940   26.0030 F   0  0  0  0  0  0  0  0  0  0  0  0
  -22.7380  -13.5930   21.1890 C   0  0  0  0  0  0  0  0  0  0  0  0
  -22.0050  -12.8990   22.0510 N   0  0  0  0  0  0  0  0  0  0  0  0
  -22.3120  -14.6240   20.6670 O   0  0  0  0  0  0  0  0  0  0  0  0
  -22.3670  -12.0660   22.4890 H   0  0  0  0  0  0  0  0  0  0  0  0
  -21.0700  -13.2100   22.2780 H   0  0  0  0  0  0  0  0  0  0  0  0
  -25.3700  -15.2610   20.3990 N   0  0  0  0  0  0  0  0  0  0  0  0
  -24.6000  -15.9130   20.4810 H   0  0  0  0  0  0  0  0  0  0  0  0
  -26.2280  -15.6900   20.0800 H   0  0  0  0  0  0  0  0  0  0  0  0
  -31.0280  -23.1750   18.1590 C   0  0  0  0  0  1  0  0  0  0  0  0
  -29.4250  -22.2820   16.3340 C   0  0  0  0  0  1  0  0  0  0  0  0
  -29.5620  -22.7730   17.8180 C   0  0  0  0  0  3  0  0  0  0  0  0
  -28.1730  -24.2910   20.8080 C   0  0  0  0  0  2  0  0  0  0  0  0
  -28.3880  -25.8940   20.4790 O   0  0  0  0  0  0  0  0  0  0  0  0
  -24.6550  -31.8600   23.2850 C   0  0  0  0  0  0  0  0  0  0  0  0
  -27.3420  -26.9570   20.4360 C   0  0  0  0  0  0  0  0  0  0  0  0
  -23.5160  -30.4210   21.6400 C   0  0  0  0  0  3  0  0  0  0  0  0
  -25.0150  -28.8000   20.2930 C   0  0  0  0  0  0  0  0  0  0  0  0
  -26.0800  -30.6550   21.5600 C   0  0  0  0  0  2  0  0  0  0  0  0
  -26.1860  -29.2350   20.9320 C   0  0  0  0  0  0  0  0  0  0  0  0
  -27.3470  -28.3360   20.9720 C   0  0  0  0  0  3  0  0  0  0  0  0
  -26.1360  -26.6670   19.7520 C   0  0  0  0  0  3  0  0  0  0  0  0
  -25.0170  -27.5340   19.6820 C   0  0  0  0  0  3  0  0  0  0  0  0
  -23.7920  -29.7140   20.2850 C   0  0  0  0  0  2  0  0  0  0  0  0
  -24.7710  -31.0100   22.2160 N   0  0  0  0  0  0  0  0  0  0  0  0
  -23.5510  -32.1530   23.7710 O   0  0  0  0  0  0  0  0  0  0  0  0
  -22.8040  -29.4410   22.6110 C   0  0  0  0  0  0  0  0  0  0  0  0
  -21.4760  -29.2790   22.4640 N   0  0  0  0  0  0  0  0  0  0  0  0
  -23.4510  -28.8310   23.4630 O   0  0  0  0  0  0  0  0  0  0  0  0
  -21.0030  -29.8340   21.7650 H   0  0  0  0  0  0  0  0  0  0  0  0
  -18.0770  -28.0990   22.9560 C   0  0  0  0  0  0  0  0  0  0  0  0
  -20.6380  -28.3490   23.2320 C   0  0  0  0  0  3  0  0  0  0  0  0
  -20.7300  -26.9110   22.6660 C   0  0  0  0  0  2  0  0  0  0  0  0
  -19.6330  -26.5940   21.6440 C   0  0  0  0  0  2  0  0  0  0  0  0
  -18.2480  -26.7490   22.2790 C   0  0  0  0  0  2  0  0  0  0  0  0
  -19.2000  -28.8570   23.3870 C   0  0  0  0  0  0  0  0  0  0  0  0
  -18.9860  -30.1190   23.9800 C   0  0  0  0  0  3  0  0  0  0  0  0
  -17.6850  -30.6300   24.1430 C   0  0  0  0  0  3  0  0  0  0  0  0
  -16.5750  -29.8710   23.7270 C   0  0  0  0  0  3  0  0  0  0  0  0
  -16.7730  -28.6080   23.1410 C   0  0  0  0  0  3  0  0  0  0  0  0
  -25.9050  -32.5220   23.9370 C   0  0  0  0  0  3  0  0  0  0  0  0
  -25.5730  -33.9250   24.2320 N   0  0  0  0  0  0  0  0  0  0  0  0
  -25.9150  -34.9780   23.4710 C   0  0  0  0  0  0  0  0  0  0  0  0
  -26.6100  -34.8640   22.4570 O   0  0  0  0  0  0  0  0  0  0  0  0
  -24.9630  -34.0830   25.0190 H   0  0  0  0  0  0  0  0  0  0  0  0
  -24.1890  -36.7590   23.0680 C   0  0  0  0  0  1  0  0  0  0  0  0
  -25.4200  -36.3680   23.9040 C   0  0  0  0  0  3  0  0  0  0  0  0
  -27.5380  -37.2780   24.7520 C   0  0  0  0  0  1  0  0  0  0  0  0
  -26.4490  -37.4260   23.7910 N   0  0  0  0  0  0  0  0  0  0  0  0
  -26.0340  -38.3440   23.9200 H   0  0  0  0  0  0  0  0  0  0  0  0
  -26.3790  -31.7920   25.2570 C   0  0  1  0  0  0  0  0  0  0  0  0
  -25.2440  -31.5820   26.2890 C   0  0  0  0  0  1  0  0  0  0  0  0
  -26.9890  -30.4080   24.9400 C   0  0  0  0  0  1  0  0  0  0  0  0
  -27.5030  -32.6180   25.9300 C   0  0  0  0  0  1  0  0  0  0  0  0
  1  4  2  0
  2  1  1  0
  4  3  1  0
  5  2  1  0
  5  7  1  0
  6 50  1  0
  6  5  1  0
  6  8  1  0
  7  3  1  0
  7  9  1  0
  8 51  1  0
  8  9  1  0
  9 10  1  0
  9 11  1  0
 12  4  1  0
 13 18  1  0
 14 15  1  0
 14 13  1  0
 16 15  1  0
 16 23  1  0
 16 17  1  0
 18 12  1  0
 18 17  1  0
 19 12  2  0
 20 21  2  0
 21 40  1  0
 22 21  1  0
 22 25  1  0
 23 20  1  0
 23 24  1  0
 24 22  2  0
 25 26  1  0
 26 27  2  0
 28 31  1  0
 28 27  1  0
 29 28  2  0
 30 29  1  0
 30 25  2  0
 31 32  1  0
 32 33  1  0
 33 34  2  0
 35 34  1  0
 35 39  1  0
 36 35  2  0
 37 32  2  0
 37 36  1  0
 38 37  1  0
 40 41  1  0
 41 44  1  0
 41 43  1  0
 42 40  2  0
 45 46  1  0
 45 20  1  0
 47 45  1  0
 49 50  1  0
 50 48  1  0
 52 51  1  0
 53 64  2  0
 54 52  1  0
 54 59  1  0
 55 63  1  0
 55 65  1  0
 56 58  1  0
 57 63  1  0
 58 59  2  0
 58 57  1  0
 60 54  2  0
 61 60  1  0
 61 56  2  0
 62 56  1  0
 62 55  1  0
 63 53  1  0
 65 67  2  0
 66 65  1  0
 68 66  1  0
 69 78  2  0
 69 74  1  0
 70 66  1  0
 70 74  1  0
 71 70  1  0
 72 73  1  0
 72 71  1  0
 73 69  1  0
 74 75  2  0
 75 76  1  0
 77 76  2  0
 78 77  1  0
 79 53  1  0
 79 80  1  0
 79 89  1  0
 80 83  1  0
 81 85  1  0
 81 80  1  0
 82 81  2  0
 85 84  1  0
 87 85  1  0
 87 88  1  0
 87 86  1  0
 89 92  1  1
 89 90  1  0
 91 89  1  0
M  ISO  4   4 100  12 100  51 101  52 101
M  END
>  <TORSDO>  (54) 
F 18

>  <SCORE>  (54) 
-16.091

>  <name>  (54) 
54

>  <ligand_id>  (54) 
54

>  <original_smiles>  (54) 
[H]c1c([H])c([H])c2c(c1[H])C([H])([H])C([H])([H])C([H])([H])C2([H])N([H])C(=O)C1([H])N(C(=O)C([H])(N([H])C(=O)C([H])(N([H])C([H])([H])[H])C([H])([H])[H])C(C([H])([H])[H])(C([H])([H])[H])C([H])([H])[H])C([H])([H])c2c([H])c(OC([H])([H])C3([H])C([H])(C([H])(C([H])([H])[H])C([H])([H])[H])C4([H])C([H])([H])C([H])([H])C([H])(C(=O)N5C([H])([H])C([H])([H])C([H])([H])C([H])(n6nc(-c7c([H])c([H])c(Oc8c([H])c([H])c(F)c([H])c8F)c([H])c7[H])c(C(=O)N([H])[H])c6N([H])[H])C5([H])[H])C([H])([H])C4([H])[N+]3([H])[H])c([H])c([H])c2C1([H])[H]

>  <smiles>  (54) 
[H]c1c([H])c([H])c2c(c1[H])C([H])([H])C([H])([H])C([H])([H])C2([H])N([H])C(=O)C1([H])N(C(=O)C([H])(N([H])C(=O)C([H])(N([H])C([H])([H])[H])C([H])([H])[H])C(C([H])([H])[H])(C([H])([H])[H])C([H])([H])[H])C([H])([H])c2c([H])c(OC([H])([H])C3([H])C([H])(C([H])(C([H])([H])[H])C([H])([H])[H])C4([H])C([H])([H])C([H])([H])C([H])(C(=O)N5C([H])([H])C([H])([H])C([H])([H])C([H])(n6nc(-c7c([H])c([H])c(Oc8c([H])c([H])c(F)c([H])c8F)c([H])c7[H])c(C(=O)N([H])[H])c6N([H])[H])C5([H])[H])C([H])([H])C4([H])[N+]3([H])[H])c([H])c([H])c2C1([H])[H]

$$$$
55:0:0
     RDKit          3D

 96104  0  0  1  0  0  0  0  0999 V2000
  -31.5910  -20.5000   19.8510 C   0  0  0  0  0  1  0  0  0  0  0  0
  -30.1870  -20.5270   20.4840 C   0  0  0  0  0  3  0  0  0  0  0  0
  -29.8850  -21.8960   21.0130 N   0  0  0  0  0  4  0  0  0  0  0  0
  -29.1990  -21.7880   21.7430 H   0  0  0  0  0  0  0  0  0  0  0  0
  -30.7210  -22.2650   21.4350 H   0  0  0  0  0  0  0  0  0  0  0  0
  -29.3340  -22.8970   20.0480 C   0  0  0  0  0  2  0  0  0  0  0  0
  -29.2630  -24.3560   20.6090 C   0  0  0  0  0  2  0  0  0  0  0  0
  -28.4250  -25.3250   19.7300 C   0  0  0  0  0  2  0  0  0  0  0  0
  -28.4200  -26.7030   20.1890 O   0  0  0  0  0  0  0  0  0  0  0  0
  -24.6080  -31.9040   23.2610 C   0  0  0  0  0  0  0  0  0  0  0  0
  -27.2480  -27.4530   20.1400 C   0  0  0  0  0  0  0  0  0  0  0  0
  -23.4040  -30.5180   21.6050 C   0  0  0  0  0  3  0  0  0  0  0  0
  -24.8580  -28.9980   20.1610 C   0  0  0  0  0  0  0  0  0  0  0  0
  -25.9330  -30.8670   21.4190 C   0  0  0  0  0  2  0  0  0  0  0  0
  -26.0180  -29.4980   20.7650 C   0  0  0  0  0  0  0  0  0  0  0  0
  -27.2100  -28.7320   20.7560 C   0  0  0  0  0  3  0  0  0  0  0  0
  -26.0680  -26.9970   19.5020 C   0  0  0  0  0  3  0  0  0  0  0  0
  -24.8800  -27.7500   19.5260 C   0  0  0  0  0  3  0  0  0  0  0  0
  -23.6170  -29.8600   20.2170 C   0  0  0  0  0  2  0  0  0  0  0  0
  -24.6670  -31.1110   22.1550 N   0  0  0  0  0  0  0  0  0  0  0  0
  -23.5240  -32.1740   23.7990 O   0  0  0  0  0  0  0  0  0  0  0  0
  -22.7510  -29.4850   22.5530 C   0  0  0  0  0  0  0  0  0  0  0  0
  -21.4280  -29.2990   22.4180 N   0  0  0  0  0  0  0  0  0  0  0  0
  -23.4330  -28.8560   23.3680 O   0  0  0  0  0  0  0  0  0  0  0  0
  -20.9370  -29.8640   21.7390 H   0  0  0  0  0  0  0  0  0  0  0  0
  -18.0550  -28.0910   22.8950 C   0  0  0  0  0  0  0  0  0  0  0  0
  -20.6110  -28.3530   23.1780 C   0  0  0  0  0  3  0  0  0  0  0  0
  -20.7170  -26.9260   22.5910 C   0  0  0  0  0  2  0  0  0  0  0  0
  -19.6190  -26.6100   21.5700 C   0  0  0  0  0  2  0  0  0  0  0  0
  -18.2350  -26.7480   22.2100 C   0  0  0  0  0  2  0  0  0  0  0  0
  -19.1710  -28.8520   23.3360 C   0  0  0  0  0  0  0  0  0  0  0  0
  -18.9470  -30.1110   23.9350 C   0  0  0  0  0  3  0  0  0  0  0  0
  -17.6420  -30.6090   24.1000 C   0  0  0  0  0  3  0  0  0  0  0  0
  -16.5400  -29.8450   23.6760 C   0  0  0  0  0  3  0  0  0  0  0  0
  -16.7480  -28.5900   23.0790 C   0  0  0  0  0  3  0  0  0  0  0  0
  -25.8920  -32.5300   23.8860 C   0  0  0  0  0  3  0  0  0  0  0  0
  -26.3930  -31.7680   25.1750 C   0  0  1  0  0  0  0  0  0  0  0  0
  -25.2850  -31.5450   26.2330 C   0  0  0  0  0  1  0  0  0  0  0  0
  -26.9720  -30.3830   24.8010 C   0  0  0  0  0  1  0  0  0  0  0  0
  -27.5420  -32.5610   25.8410 C   0  0  0  0  0  1  0  0  0  0  0  0
  -25.5940  -33.9350   24.1960 N   0  0  0  0  0  0  0  0  0  0  0  0
  -25.9390  -34.9730   23.4230 C   0  0  0  0  0  0  0  0  0  0  0  0
  -26.6130  -34.8490   22.3950 O   0  0  0  0  0  0  0  0  0  0  0  0
  -24.9970  -34.1080   24.9920 H   0  0  0  0  0  0  0  0  0  0  0  0
  -24.2290  -36.7750   23.0310 C   0  0  0  0  0  1  0  0  0  0  0  0
  -25.4610  -36.3710   23.8560 C   0  0  0  0  0  3  0  0  0  0  0  0
  -27.5960  -37.2510   24.6930 C   0  0  0  0  0  1  0  0  0  0  0  0
  -26.5040  -37.4140   23.7370 N   0  0  0  0  0  0  0  0  0  0  0  0
  -26.1030  -38.3390   23.8670 H   0  0  0  0  0  0  0  0  0  0  0  0
  -29.9550  -19.4230   21.5850 C   0  0  0  0  0  3  0  0  0  0  0  0
  -30.5730  -17.1300   20.7610 C   0  0  0  0  0  3  0  0  0  0  0  0
  -32.0630  -17.3290   20.5080 C   0  0  0  0  0  1  0  0  0  0  0  0
  -29.7210  -18.0390   21.1030 N   0  0  0  0  0  2  0  0  0  0  0  0
  -30.0880  -15.6540   20.8010 C   0  0  0  0  0  2  0  0  0  0  0  0
  -30.6650  -14.5900   19.8090 C   0  0  0  0  0  0  0  0  0  0  0  0
  -30.2420  -12.5080   18.5150 C   0  0  0  0  0  2  0  0  0  0  0  0
  -29.1930  -12.7690   17.4160 C   0  0  0  0  0  2  0  0  0  0  0  0
  -27.7590  -12.6310   17.9660 C   0  0  0  0  0  2  0  0  0  0  0  0
  -27.5530  -13.4100   19.2910 C   0  0  0  0  0  3  0  0  0  0  0  0
  -28.6930  -13.0950   20.2860 C   0  0  0  0  0  2  0  0  0  0  0  0
  -29.9700  -13.4280   19.6320 N   0  0  0  0  0  0  0  0  0  0  0  0
  -31.7010  -14.8120   19.1740 O   0  0  0  0  0  0  0  0  0  0  0  0
  -25.2190  -14.0380   20.1780 C   0  0  0  0  0  0  0  0  0  0  0  0
  -24.1770  -13.2770   20.6330 C   0  0  0  0  0  0  0  0  0  0  0  0
  -24.6250  -11.9210   20.5720 C   0  0  0  0  0  0  0  0  0  0  0  0
  -26.2370  -13.1490   19.8730 N   0  0  0  0  0  0  0  0  0  0  0  0
  -25.8870  -11.8700   20.1650 N   0  0  0  0  0  0  0  0  0  0  0  0
  -23.9090  -10.6630   20.8240 C   0  0  0  0  0  0  0  0  0  0  0  0
  -24.3920   -9.7130   21.7500 C   0  0  0  0  0  3  0  0  0  0  0  0
  -23.6780   -8.5190   21.9890 C   0  0  0  0  0  3  0  0  0  0  0  0
  -22.4660   -8.2690   21.3030 C   0  0  0  0  0  0  0  0  0  0  0  0
  -22.0020   -9.2070   20.3650 C   0  0  0  0  0  3  0  0  0  0  0  0
  -22.7170  -10.3930   20.1240 C   0  0  0  0  0  3  0  0  0  0  0  0
  -21.7180   -7.1250   21.4510 O   0  0  0  0  0  0  0  0  0  0  0  0
  -21.7090   -6.4200   22.6270 C   0  0  0  0  0  0  0  0  0  0  0  0
  -21.3090   -7.0070   23.8470 C   0  0  0  0  0  3  0  0  0  0  0  0
  -21.2470   -6.2260   25.0180 C   0  0  0  0  0  3  0  0  0  0  0  0
  -21.5760   -4.8580   24.9710 C   0  0  0  0  0  0  0  0  0  0  0  0
  -21.9670   -4.2690   23.7550 C   0  0  0  0  0  3  0  0  0  0  0  0
  -22.0300   -5.0470   22.5860 C   0  0  0  0  0  0  0  0  0  0  0  0
  -22.3880   -4.4700   21.4140 F   0  0  0  0  0  0  0  0  0  0  0  0
  -21.5080   -4.1050   26.0940 F   0  0  0  0  0  0  0  0  0  0  0  0
  -22.8070  -13.7630   21.0120 C   0  0  0  0  0  0  0  0  0  0  0  0
  -22.1500  -13.0810   21.9440 N   0  0  0  0  0  0  0  0  0  0  0  0
  -22.3290  -14.7810   20.5140 O   0  0  0  0  0  0  0  0  0  0  0  0
  -22.5530  -12.2600   22.3690 H   0  0  0  0  0  0  0  0  0  0  0  0
  -21.2310  -13.3830   22.2360 H   0  0  0  0  0  0  0  0  0  0  0  0
  -25.3870  -15.4060   19.9800 N   0  0  0  0  0  0  0  0  0  0  0  0
  -24.6510  -16.0830   20.1510 H   0  0  0  0  0  0  0  0  0  0  0  0
  -26.2300  -15.8240   19.6080 H   0  0  0  0  0  0  0  0  0  0  0  0
  -30.8340  -19.5320   22.8690 C   0  0  0  0  0  2  0  0  0  0  0  0
  -30.4980  -18.4490   26.5300 C   0  0  0  0  0  2  0  0  0  0  0  0
  -29.0570  -18.8830   26.2210 C   0  0  0  0  0  2  0  0  0  0  0  0
  -31.3180  -18.7520   25.2720 C   0  0  0  0  0  2  0  0  0  0  0  0
  -29.0750  -19.4500   24.7950 C   0  0  0  0  0  2  0  0  0  0  0  0
  -30.3000  -18.8110   24.1310 C   0  0  0  0  0  3  0  0  0  0  0  0
  2  1  1  0
  2  3  1  0
  2 50  1  0
  3  5  1  0
  3  4  1  0
  6  7  1  0
  6  3  1  0
  8  9  1  0
  8  7  1  0
 10 21  2  0
 11  9  1  0
 11 16  1  0
 12 20  1  0
 12 22  1  0
 13 19  1  0
 13 15  1  0
 14 20  1  0
 15 14  1  0
 16 15  2  0
 17 18  1  0
 17 11  2  0
 18 13  2  0
 19 12  1  0
 20 10  1  0
 22 24  2  0
 23 22  1  0
 25 23  1  0
 26 35  2  0
 26 31  1  0
 27 23  1  0
 27 31  1  0
 28 27  1  0
 29 30  1  0
 29 28  1  0
 30 26  1  0
 31 32  2  0
 32 33  1  0
 34 33  2  0
 35 34  1  0
 36 10  1  0
 36 41  1  0
 36 37  1  0
 37 40  1  1
 37 38  1  0
 39 37  1  0
 41 44  1  0
 42 46  1  0
 42 41  1  0
 43 42  2  0
 46 45  1  0
 48 46  1  0
 48 49  1  0
 48 47  1  0
 50 91  1  0
 51 52  1  0
 51 54  1  0
 51 53  1  0
 53 50  1  0
 55 54  1  0
 56 61  1  0
 57 58  1  0
 57 56  1  0
 59 58  1  0
 59 66  1  0
 59 60  1  0
 61 55  1  0
 61 60  1  0
 62 55  2  0
 63 64  2  0
 64 83  1  0
 65 64  1  0
 65 68  1  0
 66 67  1  0
 66 63  1  0
 67 65  2  0
 68 69  1  0
 69 70  2  0
 71 74  1  0
 71 70  1  0
 72 71  2  0
 73 72  1  0
 73 68  2  0
 74 75  1  0
 75 76  1  0
 76 77  2  0
 78 77  1  0
 78 82  1  0
 79 78  2  0
 80 75  2  0
 80 79  1  0
 81 80  1  0
 83 84  1  0
 84 87  1  0
 84 86  1  0
 85 83  2  0
 88 89  1  0
 88 63  1  0
 90 88  1  0
 91 96  1  0
 93 92  1  0
 94 92  1  0
 95 93  1  0
 96 95  1  0
 96 94  1  0
M  ISO  4   8 101   9 101  54 100  55 100
M  END
>  <TORSDO>  (55) 
F 25

>  <SCORE>  (55) 
0.300

>  <name>  (55) 
55

>  <ligand_id>  (55) 
55

>  <original_smiles>  (55) 
[H]c1c([H])c([H])c2c(c1[H])C([H])([H])C([H])([H])C([H])([H])C2([H])N([H])C(=O)C1([H])N(C(=O)C([H])(N([H])C(=O)C([H])(N([H])C([H])([H])[H])C([H])([H])[H])C(C([H])([H])[H])(C([H])([H])[H])C([H])([H])[H])C([H])([H])c2c([H])c(OC([H])([H])C([H])([H])C([H])([H])[N+]([H])([H])C([H])(C([H])([H])[H])C([H])(N=C(C([H])([H])[H])C([H])([H])C(=O)N3C([H])([H])C([H])([H])C([H])([H])C([H])(n4nc(-c5c([H])c([H])c(Oc6c([H])c([H])c(F)c([H])c6F)c([H])c5[H])c(C(=O)N([H])[H])c4N([H])[H])C3([H])[H])C([H])([H])C3([H])C([H])([H])C([H])([H])C([H])([H])C3([H])[H])c([H])c([H])c2C1([H])[H]

>  <smiles>  (55) 
[H]c1c([H])c([H])c2c(c1[H])C([H])([H])C([H])([H])C([H])([H])C2([H])N([H])C(=O)C1([H])N(C(=O)C([H])(N([H])C(=O)C([H])(N([H])C([H])([H])[H])C([H])([H])[H])C(C([H])([H])[H])(C([H])([H])[H])C([H])([H])[H])C([H])([H])c2c([H])c(OC([H])([H])C([H])([H])C([H])([H])[N+]([H])([H])C([H])(C([H])([H])[H])C([H])(N=C(C([H])([H])[H])C([H])([H])C(=O)N3C([H])([H])C([H])([H])C([H])([H])C([H])(n4nc(-c5c([H])c([H])c(Oc6c([H])c([H])c(F)c([H])c6F)c([H])c5[H])c(C(=O)N([H])[H])c4N([H])[H])C3([H])[H])C([H])([H])C3([H])C([H])([H])C([H])([H])C([H])([H])C3([H])[H])c([H])c([H])c2C1([H])[H]

$$$$
56:0:0
     RDKit          3D

 95103  0  0  1  0  0  0  0  0999 V2000
  -29.0980  -24.7360   21.1710 C   0  0  0  0  0  2  0  0  0  0  0  0
  -30.9960  -24.5780   19.5630 C   0  0  0  0  0  2  0  0  0  0  0  0
  -29.0290  -23.1750   21.2710 C   0  0  0  0  0  2  0  0  0  0  0  0
  -31.3070  -23.2700   20.3890 C   0  0  0  0  0  2  0  0  0  0  0  0
  -29.6200  -25.2630   19.8300 C   0  0  0  0  0  3  0  0  0  0  0  0
  -30.1240  -22.3770   20.6010 N   0  0  1  0  0  4  0  0  0  0  0  0
  -29.7980  -22.1510   19.6730 H   0  0  0  0  0  0  0  0  0  0  0  0
  -29.6540  -26.7410   19.7910 O   0  0  0  0  0  0  0  0  0  0  0  0
  -25.3130  -31.3090   23.2690 C   0  0  0  0  0  0  0  0  0  0  0  0
  -28.4520  -27.4540   19.8040 C   0  0  0  0  0  0  0  0  0  0  0  0
  -24.3140  -30.0520   21.3930 C   0  0  0  0  0  3  0  0  0  0  0  0
  -25.9570  -28.8360   19.8650 C   0  0  0  0  0  0  0  0  0  0  0  0
  -26.8180  -30.6050   21.3990 C   0  0  0  0  0  2  0  0  0  0  0  0
  -27.0470  -29.3380   20.5870 C   0  0  0  0  0  0  0  0  0  0  0  0
  -28.2960  -28.6580   20.5530 C   0  0  0  0  0  3  0  0  0  0  0  0
  -27.3410  -27.0100   19.0510 C   0  0  0  0  0  3  0  0  0  0  0  0
  -26.1050  -27.6770   19.0900 C   0  0  0  0  0  3  0  0  0  0  0  0
  -24.6480  -29.5910   19.9520 C   0  0  0  0  0  2  0  0  0  0  0  0
  -25.4950  -30.6660   22.0790 N   0  0  0  0  0  0  0  0  0  0  0  0
  -24.1870  -31.4200   23.7730 O   0  0  0  0  0  0  0  0  0  0  0  0
  -23.7060  -28.8600   22.1710 C   0  0  0  0  0  0  0  0  0  0  0  0
  -22.4080  -28.5920   21.9490 N   0  0  0  0  0  0  0  0  0  0  0  0
  -24.4040  -28.1860   22.9340 O   0  0  0  0  0  0  0  0  0  0  0  0
  -21.9010  -29.1960   21.3180 H   0  0  0  0  0  0  0  0  0  0  0  0
  -19.1460  -27.0430   22.0590 C   0  0  0  0  0  0  0  0  0  0  0  0
  -21.6440  -27.4970   22.5450 C   0  0  0  0  0  3  0  0  0  0  0  0
  -21.9230  -26.1620   21.8170 C   0  0  0  0  0  2  0  0  0  0  0  0
  -20.9240  -25.8680   20.6950 C   0  0  0  0  0  2  0  0  0  0  0  0
  -19.4970  -25.8070   21.2470 C   0  0  0  0  0  2  0  0  0  0  0  0
  -20.1550  -27.8450   22.6570 C   0  0  0  0  0  0  0  0  0  0  0  0
  -19.7760  -29.0010   23.3730 C   0  0  0  0  0  3  0  0  0  0  0  0
  -18.4210  -29.3580   23.5010 C   0  0  0  0  0  3  0  0  0  0  0  0
  -17.4240  -28.5510   22.9220 C   0  0  0  0  0  3  0  0  0  0  0  0
  -17.7880  -27.3950   22.2080 C   0  0  0  0  0  3  0  0  0  0  0  0
  -26.5060  -31.9560   24.0370 C   0  0  0  0  0  3  0  0  0  0  0  0
  -26.0550  -33.2630   24.5390 N   0  0  0  0  0  0  0  0  0  0  0  0
  -26.4520  -34.4440   24.0470 C   0  0  0  0  0  0  0  0  0  0  0  0
  -27.3020  -34.5480   23.1570 O   0  0  0  0  0  0  0  0  0  0  0  0
  -25.3190  -33.2550   25.2290 H   0  0  0  0  0  0  0  0  0  0  0  0
  -24.7320  -36.2370   23.6730 C   0  0  0  0  0  1  0  0  0  0  0  0
  -25.8060  -35.7110   24.6370 C   0  0  0  0  0  3  0  0  0  0  0  0
  -27.6970  -36.4520   26.0170 C   0  0  0  0  0  1  0  0  0  0  0  0
  -26.7780  -36.7860   24.9330 N   0  0  0  0  0  0  0  0  0  0  0  0
  -26.2990  -37.6480   25.1790 H   0  0  0  0  0  0  0  0  0  0  0  0
  -27.0390  -31.0610   25.2220 C   0  0  1  0  0  0  0  0  0  0  0  0
  -25.9270  -30.5610   26.1710 C   0  0  0  0  0  1  0  0  0  0  0  0
  -27.7880  -29.8230   24.6760 C   0  0  0  0  0  1  0  0  0  0  0  0
  -28.0610  -31.8590   26.0640 C   0  0  0  0  0  1  0  0  0  0  0  0
  -30.4120  -20.9980   21.2270 C   0  0  0  0  0  3  0  0  0  0  0  0
  -30.9830  -19.9050   20.2380 C   0  0  0  0  0  0  0  0  0  0  0  0
  -31.1500  -18.6200   20.6710 N   0  0  0  0  0  0  0  0  0  0  0  0
  -31.2310  -20.2240   19.0730 O   0  0  0  0  0  0  0  0  0  0  0  0
  -30.9250  -18.4560   21.6440 H   0  0  0  0  0  0  0  0  0  0  0  0
  -31.5940  -17.4140   19.9040 C   0  0  0  0  0  3  0  0  0  0  0  0
  -31.0830  -16.0130   20.4420 C   0  0  0  0  0  3  0  0  0  0  0  0
  -31.6340  -14.7270   19.7130 C   0  0  0  0  0  0  0  0  0  0  0  0
  -31.1760  -12.5460   18.6020 C   0  0  0  0  0  2  0  0  0  0  0  0
  -30.1370  -12.7680   17.4810 C   0  0  0  0  0  2  0  0  0  0  0  0
  -28.7020  -12.6830   18.0400 C   0  0  0  0  0  2  0  0  0  0  0  0
  -28.5140  -13.5270   19.3290 C   0  0  0  0  0  3  0  0  0  0  0  0
  -29.6580  -13.2750   20.3360 C   0  0  0  0  0  2  0  0  0  0  0  0
  -30.9260  -13.5540   19.6520 N   0  0  0  0  0  0  0  0  0  0  0  0
  -32.7130  -14.8320   19.1220 O   0  0  0  0  0  0  0  0  0  0  0  0
  -26.2710  -14.2380   20.3630 C   0  0  0  0  0  0  0  0  0  0  0  0
  -25.1830  -13.5190   20.7730 C   0  0  0  0  0  0  0  0  0  0  0  0
  -25.5110  -12.1450   20.5540 C   0  0  0  0  0  0  0  0  0  0  0  0
  -27.2010  -13.3060   19.9290 N   0  0  0  0  0  0  0  0  0  0  0  0
  -26.7540  -12.0360   20.1000 N   0  0  0  0  0  0  0  0  0  0  0  0
  -24.6950  -10.9320   20.6990 C   0  0  0  0  0  0  0  0  0  0  0  0
  -25.0720   -9.8890   21.5740 C   0  0  0  0  0  3  0  0  0  0  0  0
  -24.2600   -8.7420   21.7110 C   0  0  0  0  0  3  0  0  0  0  0  0
  -23.0590   -8.6300   20.9720 C   0  0  0  0  0  0  0  0  0  0  0  0
  -22.7010   -9.6600   20.0840 C   0  0  0  0  0  3  0  0  0  0  0  0
  -23.5120  -10.7990   19.9460 C   0  0  0  0  0  3  0  0  0  0  0  0
  -22.2230   -7.5400   21.0180 O   0  0  0  0  0  0  0  0  0  0  0  0
  -22.0190   -6.8390   22.1800 C   0  0  0  0  0  0  0  0  0  0  0  0
  -21.5930   -7.4740   23.3670 C   0  0  0  0  0  3  0  0  0  0  0  0
  -21.3280   -6.7060   24.5180 C   0  0  0  0  0  3  0  0  0  0  0  0
  -21.4800   -5.3080   24.4840 C   0  0  0  0  0  0  0  0  0  0  0  0
  -21.8990   -4.6740   23.3010 C   0  0  0  0  0  3  0  0  0  0  0  0
  -22.1650   -5.4380   22.1520 C   0  0  0  0  0  0  0  0  0  0  0  0
  -22.5480   -4.8210   21.0080 F   0  0  0  0  0  0  0  0  0  0  0  0
  -21.2180   -4.5680   25.5870 F   0  0  0  0  0  0  0  0  0  0  0  0
  -23.8720  -14.0730   21.2510 C   0  0  0  0  0  0  0  0  0  0  0  0
  -23.2210  -13.3860   22.1830 N   0  0  0  0  0  0  0  0  0  0  0  0
  -23.4400  -15.1470   20.8320 O   0  0  0  0  0  0  0  0  0  0  0  0
  -23.5870  -12.5160   22.5380 H   0  0  0  0  0  0  0  0  0  0  0  0
  -22.3460  -13.7350   22.5470 H   0  0  0  0  0  0  0  0  0  0  0  0
  -26.5440  -15.6020   20.3030 N   0  0  0  0  0  0  0  0  0  0  0  0
  -25.8580  -16.3040   20.5550 H   0  0  0  0  0  0  0  0  0  0  0  0
  -27.3950  -15.9970   19.9250 H   0  0  0  0  0  0  0  0  0  0  0  0
  -29.5350  -19.6020   23.2900 C   0  0  0  0  0  1  0  0  0  0  0  0
  -29.1720  -20.3950   22.0100 C   0  0  0  0  0  3  0  0  0  0  0  0
  -28.4520  -18.2690   20.6290 C   0  0  0  0  0  1  0  0  0  0  0  0
  -28.1070  -19.6870   21.1210 C   0  0  0  0  0  2  0  0  0  0  0  0
  1  3  1  0
  2  5  1  0
  2  4  1  0
  4  6  1  0
  5  8  1  0
  5  1  1  0
  6 49  1  0
  6  3  1  0
  6  7  1  6
  8 10  1  0
  9 20  2  0
 10 15  1  0
 11 19  1  0
 11 21  1  0
 12 18  1  0
 12 14  1  0
 13 19  1  0
 14 13  1  0
 15 14  2  0
 16 17  1  0
 16 10  2  0
 17 12  2  0
 18 11  1  0
 19  9  1  0
 21 23  2  0
 22 21  1  0
 24 22  1  0
 25 34  2  0
 25 30  1  0
 26 22  1  0
 26 30  1  0
 27 26  1  0
 28 29  1  0
 28 27  1  0
 29 25  1  0
 30 31  2  0
 31 32  1  0
 33 32  2  0
 34 33  1  0
 35  9  1  0
 35 36  1  0
 35 45  1  0
 36 39  1  0
 37 36  1  0
 37 41  1  0
 38 37  2  0
 41 40  1  0
 41 43  1  0
 43 44  1  0
 43 42  1  0
 45 48  1  1
 45 46  1  0
 47 45  1  0
 49 50  1  0
 49 93  1  0
 50 51  1  0
 51 53  1  0
 52 50  2  0
 54 55  2  0
 54 51  1  0
 56 55  1  0
 57 62  1  0
 58 59  1  0
 58 57  1  0
 60 59  1  0
 60 67  1  0
 60 61  1  0
 62 56  1  0
 62 61  1  0
 63 56  2  0
 64 65  2  0
 65 84  1  0
 66 69  1  0
 66 65  1  0
 67 68  1  0
 67 64  1  0
 68 66  2  0
 69 70  1  0
 70 71  2  0
 72 75  1  0
 72 71  1  0
 73 72  2  0
 74 73  1  0
 74 69  2  0
 75 76  1  0
 76 77  1  0
 77 78  2  0
 79 78  1  0
 79 83  1  0
 80 79  2  0
 81 76  2  0
 81 80  1  0
 82 81  1  0
 84 85  1  0
 85 87  1  0
 85 88  1  0
 86 84  2  0
 89 64  1  0
 89 90  1  0
 91 89  1  0
 93 92  1  0
 94 95  1  0
 95 93  1  0
M  ISO  4   5 101   8 101  55 100  56 100
M  END
>  <TORSDO>  (56) 
F 22

>  <SCORE>  (56) 
-5.846

>  <name>  (56) 
56

>  <ligand_id>  (56) 
56

>  <original_smiles>  (56) 
[H]c1c([H])c([H])c2c(c1[H])C([H])([H])C([H])([H])C([H])([H])C2([H])N([H])C(=O)C1([H])N(C(=O)C([H])(N([H])C(=O)C([H])(N([H])C([H])([H])[H])C([H])([H])[H])C(C([H])([H])[H])(C([H])([H])[H])C([H])([H])[H])C([H])([H])c2c([H])c(OC3([H])C([H])([H])C([H])([H])[N+]([H])(C([H])(C(=O)N([H])C([H])([H])C([H])([H])C(=O)N4C([H])([H])C([H])([H])C([H])([H])C([H])(n5nc(-c6c([H])c([H])c(Oc7c([H])c([H])c(F)c([H])c7F)c([H])c6[H])c(C(=O)N([H])[H])c5N([H])[H])C4([H])[H])C([H])(C([H])([H])[H])C([H])([H])C([H])([H])[H])C([H])([H])C3([H])[H])c([H])c([H])c2C1([H])[H]

>  <smiles>  (56) 
[H]c1c([H])c([H])c2c(c1[H])C([H])([H])C([H])([H])C([H])([H])C2([H])N([H])C(=O)C1([H])N(C(=O)C([H])(N([H])C(=O)C([H])(N([H])C([H])([H])[H])C([H])([H])[H])C(C([H])([H])[H])(C([H])([H])[H])C([H])([H])[H])C([H])([H])c2c([H])c(OC3([H])C([H])([H])C([H])([H])[N+]([H])(C([H])(C(=O)N([H])C([H])([H])C([H])([H])C(=O)N4C([H])([H])C([H])([H])C([H])([H])C([H])(n5nc(-c6c([H])c([H])c(Oc7c([H])c([H])c(F)c([H])c7F)c([H])c6[H])c(C(=O)N([H])[H])c5N([H])[H])C4([H])[H])C([H])(C([H])([H])[H])C([H])([H])C([H])([H])[H])C([H])([H])C3([H])[H])c([H])c([H])c2C1([H])[H]

$$$$
57:0:0
     RDKit          3D

 90 98  0  0  1  0  0  0  0  0999 V2000
  -30.6220  -17.8130   19.8850 C   0  0  0  0  0  0  0  0  0  0  0  0
  -28.7450  -16.7030   20.6000 C   0  0  0  0  0  2  0  0  0  0  0  0
  -29.4900  -18.9590   19.8620 C   0  0  0  0  0  3  0  0  0  0  0  0
  -29.9750  -16.3620   19.6960 C   0  0  1  0  0  0  0  0  0  0  0  0
  -29.5800  -16.3470   18.1830 C   0  0  0  0  0  1  0  0  0  0  0  0
  -27.1090  -18.6000   20.5080 C   0  0  0  0  0  1  0  0  0  0  0  0
  -28.5210  -18.2050   20.7120 N   0  0  1  0  0  4  0  0  0  0  0  0
  -31.8330  -18.0170   20.0190 O   0  0  0  0  0  0  0  0  0  0  0  0
  -28.7510  -18.4340   21.6680 H   0  0  0  0  0  0  0  0  0  0  0  0
  -30.7930  -14.9380   20.0040 C   0  0  0  0  0  0  0  0  0  0  0  0
  -30.6410  -12.4950   19.3710 C   0  0  0  0  0  2  0  0  0  0  0  0
  -29.7230  -12.3190   18.1380 C   0  0  0  0  0  2  0  0  0  0  0  0
  -28.2400  -12.2140   18.5550 C   0  0  0  0  0  2  0  0  0  0  0  0
  -27.8350  -13.2620   19.6230 C   0  0  0  0  0  3  0  0  0  0  0  0
  -28.8810  -13.3840   20.7480 C   0  0  0  0  0  2  0  0  0  0  0  0
  -30.1800  -13.6900   20.1310 N   0  0  0  0  0  0  0  0  0  0  0  0
  -32.0160  -14.9160   19.8270 O   0  0  0  0  0  0  0  0  0  0  0  0
  -25.4910  -13.9870   20.3560 C   0  0  0  0  0  0  0  0  0  0  0  0
  -24.3920  -13.2770   20.7490 C   0  0  0  0  0  0  0  0  0  0  0  0
  -24.7870  -11.9040   20.7440 C   0  0  0  0  0  0  0  0  0  0  0  0
  -26.4870  -13.0500   20.1320 N   0  0  0  0  0  0  0  0  0  0  0  0
  -26.0730  -11.7940   20.4330 N   0  0  0  0  0  0  0  0  0  0  0  0
  -24.0000  -10.6850   20.9550 C   0  0  0  0  0  0  0  0  0  0  0  0
  -24.4160   -9.6870   21.8650 C   0  0  0  0  0  3  0  0  0  0  0  0
  -23.6300   -8.5310   22.0660 C   0  0  0  0  0  3  0  0  0  0  0  0
  -22.4170   -8.3660   21.3580 C   0  0  0  0  0  0  0  0  0  0  0  0
  -22.0200   -9.3510   20.4360 C   0  0  0  0  0  3  0  0  0  0  0  0
  -22.8050  -10.4980   20.2330 C   0  0  0  0  0  3  0  0  0  0  0  0
  -21.6020   -7.2650   21.4710 O   0  0  0  0  0  0  0  0  0  0  0  0
  -21.6010   -6.4860   22.5990 C   0  0  0  0  0  0  0  0  0  0  0  0
  -21.3160   -7.0190   23.8740 C   0  0  0  0  0  3  0  0  0  0  0  0
  -21.2570   -6.1700   24.9970 C   0  0  0  0  0  3  0  0  0  0  0  0
  -21.4740   -4.7870   24.8460 C   0  0  0  0  0  0  0  0  0  0  0  0
  -21.7520   -4.2520   23.5760 C   0  0  0  0  0  3  0  0  0  0  0  0
  -21.8130   -5.1000   22.4550 C   0  0  0  0  0  0  0  0  0  0  0  0
  -22.0620   -4.5760   21.2300 F   0  0  0  0  0  0  0  0  0  0  0  0
  -21.4090   -3.9690   25.9220 F   0  0  0  0  0  0  0  0  0  0  0  0
  -23.0200  -13.8300   21.0060 C   0  0  0  0  0  0  0  0  0  0  0  0
  -22.2620  -13.2000   21.8960 N   0  0  0  0  0  0  0  0  0  0  0  0
  -22.6320  -14.8570   20.4500 O   0  0  0  0  0  0  0  0  0  0  0  0
  -22.5910  -12.3700   22.3680 H   0  0  0  0  0  0  0  0  0  0  0  0
  -21.3410  -13.5540   22.1110 H   0  0  0  0  0  0  0  0  0  0  0  0
  -25.7150  -15.3430   20.1330 N   0  0  0  0  0  0  0  0  0  0  0  0
  -24.9060  -15.9560   20.1220 H   0  0  0  0  0  0  0  0  0  0  0  0
  -26.4230  -15.6320   19.4740 H   0  0  0  0  0  0  0  0  0  0  0  0
  -29.7790  -20.5660   20.2410 C   0  0  0  0  0  3  0  0  0  0  0  0
  -28.7870  -21.8500   19.8400 C   0  0  0  0  0  3  0  0  0  0  0  0
  -29.1180  -23.4610   20.1130 C   0  0  0  0  0  3  0  0  0  0  0  0
  -28.0650  -24.6950   19.7470 C   0  0  0  0  0  3  0  0  0  0  0  0
  -28.2940  -26.2040   19.9420 O   0  0  0  0  0  0  0  0  0  0  0  0
  -24.5000  -31.6520   23.0420 C   0  0  0  0  0  0  0  0  0  0  0  0
  -27.2000  -27.1290   19.8890 C   0  0  0  0  0  0  0  0  0  0  0  0
  -23.3340  -30.2790   21.3570 C   0  0  0  0  0  3  0  0  0  0  0  0
  -24.8220  -28.7850   19.8940 C   0  0  0  0  0  0  0  0  0  0  0  0
  -25.8780  -30.6180   21.2070 C   0  0  0  0  0  2  0  0  0  0  0  0
  -25.9870  -29.2520   20.5180 C   0  0  0  0  0  0  0  0  0  0  0  0
  -27.1770  -28.4400   20.4990 C   0  0  0  0  0  3  0  0  0  0  0  0
  -26.0070  -26.7520   19.2310 C   0  0  0  0  0  3  0  0  0  0  0  0
  -24.8430  -27.5470   19.2360 C   0  0  0  0  0  3  0  0  0  0  0  0
  -23.5740  -29.6480   19.9600 C   0  0  0  0  0  2  0  0  0  0  0  0
  -24.5900  -30.8690   21.9250 N   0  0  0  0  0  0  0  0  0  0  0  0
  -23.4060  -31.8980   23.5740 O   0  0  0  0  0  0  0  0  0  0  0  0
  -22.6770  -29.2290   22.2850 C   0  0  0  0  0  0  0  0  0  0  0  0
  -21.3530  -29.0320   22.1450 N   0  0  0  0  0  0  0  0  0  0  0  0
  -23.3580  -28.5950   23.0950 O   0  0  0  0  0  0  0  0  0  0  0  0
  -20.8610  -29.5970   21.4670 H   0  0  0  0  0  0  0  0  0  0  0  0
  -18.0010  -27.7310   22.5690 C   0  0  0  0  0  0  0  0  0  0  0  0
  -20.5470  -28.0570   22.8830 C   0  0  0  0  0  3  0  0  0  0  0  0
  -20.6960  -26.6410   22.2830 C   0  0  0  0  0  2  0  0  0  0  0  0
  -19.6200  -26.3080   21.2440 C   0  0  0  0  0  2  0  0  0  0  0  0
  -18.2250  -26.4020   21.8690 C   0  0  0  0  0  2  0  0  0  0  0  0
  -19.0900  -28.5160   23.0320 C   0  0  0  0  0  0  0  0  0  0  0  0
  -18.8260  -29.7590   23.6460 C   0  0  0  0  0  3  0  0  0  0  0  0
  -17.5050  -30.2190   23.8030 C   0  0  0  0  0  3  0  0  0  0  0  0
  -16.4300  -29.4330   23.3570 C   0  0  0  0  0  3  0  0  0  0  0  0
  -16.6790  -28.1900   22.7460 C   0  0  0  0  0  3  0  0  0  0  0  0
  -25.7630  -32.2940   23.6920 C   0  0  0  0  0  3  0  0  0  0  0  0
  -26.2850  -31.4970   24.9520 C   0  0  1  0  0  0  0  0  0  0  0  0
  -25.1900  -31.2200   26.0100 C   0  0  0  0  0  1  0  0  0  0  0  0
  -26.8860  -30.1370   24.5310 C   0  0  0  0  0  1  0  0  0  0  0  0
  -27.4230  -32.2880   25.6370 C   0  0  0  0  0  1  0  0  0  0  0  0
  -25.4200  -33.6750   24.0650 N   0  0  0  0  0  0  0  0  0  0  0  0
  -25.7550  -34.7620   23.3560 C   0  0  0  0  0  0  0  0  0  0  0  0
  -26.4490  -34.7070   22.3380 O   0  0  0  0  0  0  0  0  0  0  0  0
  -24.8050  -33.7900   24.8560 H   0  0  0  0  0  0  0  0  0  0  0  0
  -24.0040  -36.5420   23.0360 C   0  0  0  0  0  1  0  0  0  0  0  0
  -25.2370  -36.1260   23.8550 C   0  0  0  0  0  3  0  0  0  0  0  0
  -27.3390  -37.0160   24.7610 C   0  0  0  0  0  1  0  0  0  0  0  0
  -26.2540  -37.1980   23.8000 N   0  0  0  0  0  0  0  0  0  0  0  0
  -25.8300  -38.1060   23.9680 H   0  0  0  0  0  0  0  0  0  0  0  0
  1  8  2  0
  2  7  1  0
  3  1  1  0
  3 46  1  0
  3  7  1  0
  4  5  1  6
  4  1  1  0
  4 10  1  0
  4  2  1  0
  6  7  1  0
  7  9  1  1
 10 16  1  0
 11 16  1  0
 12 13  1  0
 12 11  1  0
 14 13  1  0
 14 21  1  0
 14 15  1  0
 16 15  1  0
 17 10  2  0
 18 19  2  0
 19 38  1  0
 20 19  1  0
 20 23  1  0
 21 18  1  0
 21 22  1  0
 22 20  2  0
 23 24  1  0
 24 25  2  0
 26 29  1  0
 26 25  1  0
 27 26  2  0
 28 27  1  0
 28 23  2  0
 29 30  1  0
 30 31  1  0
 31 32  2  0
 33 32  1  0
 33 37  1  0
 34 33  2  0
 35 30  2  0
 35 34  1  0
 36 35  1  0
 38 39  1  0
 39 42  1  0
 39 41  1  0
 40 38  2  0
 43 18  1  0
 44 43  1  0
 45 43  1  0
 47 48  1  0
 47 46  2  0
 49 50  1  0
 49 48  2  0
 51 62  2  0
 52 50  1  0
 52 57  1  0
 53 61  1  0
 53 63  1  0
 54 60  1  0
 54 56  1  0
 55 61  1  0
 56 55  1  0
 57 56  2  0
 58 59  1  0
 58 52  2  0
 59 54  2  0
 60 53  1  0
 61 51  1  0
 63 65  2  0
 64 63  1  0
 66 64  1  0
 67 76  2  0
 67 72  1  0
 68 64  1  0
 68 72  1  0
 69 68  1  0
 70 71  1  0
 70 69  1  0
 71 67  1  0
 72 73  2  0
 73 74  1  0
 75 74  2  0
 76 75  1  0
 77 51  1  0
 77 82  1  0
 77 78  1  0
 78 81  1  1
 78 79  1  0
 80 78  1  0
 82 85  1  0
 83 87  1  0
 83 82  1  0
 84 83  2  0
 87 86  1  0
 89 87  1  0
 89 90  1  0
 89 88  1  0
M  ISO  4   4 100  10 100  49 101  50 101
M  END
>  <TORSDO>  (57) 
F 20

>  <SCORE>  (57) 
-12.433

>  <name>  (57) 
57

>  <ligand_id>  (57) 
57

>  <original_smiles>  (57) 
[H]c1c([H])c([H])c2c(c1[H])C([H])([H])C([H])([H])C([H])([H])C2([H])N([H])C(=O)C1([H])N(C(=O)C([H])(N([H])C(=O)C([H])(N([H])C([H])([H])[H])C([H])([H])[H])C(C([H])([H])[H])(C([H])([H])[H])C([H])([H])[H])C([H])([H])c2c([H])c(OC([H])([H])C([H])([H])C([H])([H])C([H])([H])C3([H])C(=O)C(C(=O)N4C([H])([H])C([H])([H])C([H])([H])C([H])(n5nc(-c6c([H])c([H])c(Oc7c([H])c([H])c(F)c([H])c7F)c([H])c6[H])c(C(=O)N([H])[H])c5N([H])[H])C4([H])[H])(C([H])([H])[H])C([H])([H])[N+]3([H])C([H])([H])[H])c([H])c([H])c2C1([H])[H]

>  <smiles>  (57) 
[H]c1c([H])c([H])c2c(c1[H])C([H])([H])C([H])([H])C([H])([H])C2([H])N([H])C(=O)C1([H])N(C(=O)C([H])(N([H])C(=O)C([H])(N([H])C([H])([H])[H])C([H])([H])[H])C(C([H])([H])[H])(C([H])([H])[H])C([H])([H])[H])C([H])([H])c2c([H])c(OC([H])([H])C([H])([H])C([H])([H])C([H])([H])C3([H])C(=O)C(C(=O)N4C([H])([H])C([H])([H])C([H])([H])C([H])(n5nc(-c6c([H])c([H])c(Oc7c([H])c([H])c(F)c([H])c7F)c([H])c6[H])c(C(=O)N([H])[H])c5N([H])[H])C4([H])[H])(C([H])([H])[H])C([H])([H])[N+]3([H])C([H])([H])[H])c([H])c([H])c2C1([H])[H]

$$$$
58:0:0
     RDKit          3D

 93102  0  0  1  0  0  0  0  0999 V2000
  -29.4130  -20.7920   20.0010 C   0  0  0  0  0  0  0  0  0  0  0  0
  -29.7100  -22.0720   20.3980 C   0  0  0  0  0  0  0  0  0  0  0  0
  -30.5040  -19.0660   21.7180 C   0  0  0  0  0  2  0  0  0  0  0  0
  -30.6860  -17.5430   21.5730 C   0  0  0  0  0  2  0  0  0  0  0  0
  -28.0690  -18.8730   19.4730 C   0  0  0  0  0  2  0  0  0  0  0  0
  -28.2320  -20.3690   19.1370 C   0  0  0  0  0  3  0  0  0  0  0  0
  -30.2240  -19.5020   20.2720 C   0  0  0  0  0  3  0  0  0  0  0  0
  -29.6210  -17.1320   20.5400 C   0  0  0  0  0  3  0  0  0  0  0  0
  -30.9400  -22.3810   21.2400 C   0  0  0  0  0  1  0  0  0  0  0  0
  -28.4930  -20.5840   17.6270 C   0  0  0  0  0  1  0  0  0  0  0  0
  -29.4450  -18.3710   19.7010 N   0  0  1  0  0  4  0  0  0  0  0  0
  -29.8420  -18.1950   18.7900 H   0  0  0  0  0  0  0  0  0  0  0  0
  -28.9350  -23.3510   19.9690 C   0  0  0  0  0  2  0  0  0  0  0  0
  -28.3090  -24.2410   21.0980 C   0  0  0  0  0  2  0  0  0  0  0  0
  -28.7740  -25.7330   21.2350 C   0  0  0  0  0  2  0  0  0  0  0  0
  -28.4710  -26.6380   20.1530 O   0  0  0  0  0  0  0  0  0  0  0  0
  -24.6070  -31.8710   23.2340 C   0  0  0  0  0  0  0  0  0  0  0  0
  -27.3080  -27.3840   20.2370 C   0  0  0  0  0  0  0  0  0  0  0  0
  -23.4270  -30.4450   21.5910 C   0  0  0  0  0  3  0  0  0  0  0  0
  -24.9090  -28.8980   20.2000 C   0  0  0  0  0  0  0  0  0  0  0  0
  -25.9550  -30.8100   21.4180 C   0  0  0  0  0  2  0  0  0  0  0  0
  -26.0580  -29.4270   20.8030 C   0  0  0  0  0  0  0  0  0  0  0  0
  -27.2640  -28.6750   20.8210 C   0  0  0  0  0  3  0  0  0  0  0  0
  -26.1430  -26.8750   19.6320 C   0  0  0  0  0  3  0  0  0  0  0  0
  -24.9460  -27.6200   19.6130 C   0  0  0  0  0  3  0  0  0  0  0  0
  -23.6600  -29.7550   20.2190 C   0  0  0  0  0  2  0  0  0  0  0  0
  -24.6800  -31.0600   22.1390 N   0  0  0  0  0  0  0  0  0  0  0  0
  -23.5200  -32.1430   23.7610 O   0  0  0  0  0  0  0  0  0  0  0  0
  -22.7680  -29.4330   22.5550 C   0  0  0  0  0  0  0  0  0  0  0  0
  -21.4430  -29.2570   22.4260 N   0  0  0  0  0  0  0  0  0  0  0  0
  -23.4470  -28.8070   23.3730 O   0  0  0  0  0  0  0  0  0  0  0  0
  -20.9590  -29.8140   21.7360 H   0  0  0  0  0  0  0  0  0  0  0  0
  -18.0590  -28.0860   22.9310 C   0  0  0  0  0  0  0  0  0  0  0  0
  -20.6190  -28.3240   23.1970 C   0  0  0  0  0  3  0  0  0  0  0  0
  -20.7090  -26.8950   22.6170 C   0  0  0  0  0  2  0  0  0  0  0  0
  -19.6030  -26.5840   21.6030 C   0  0  0  0  0  2  0  0  0  0  0  0
  -18.2220  -26.7380   22.2500 C   0  0  0  0  0  2  0  0  0  0  0  0
  -19.1850  -28.8380   23.3600 C   0  0  0  0  0  0  0  0  0  0  0  0
  -18.9800  -30.1010   23.9560 C   0  0  0  0  0  3  0  0  0  0  0  0
  -17.6810  -30.6150   24.1250 C   0  0  0  0  0  3  0  0  0  0  0  0
  -16.5690  -29.8620   23.7150 C   0  0  0  0  0  3  0  0  0  0  0  0
  -16.7580  -28.5990   23.1260 C   0  0  0  0  0  3  0  0  0  0  0  0
  -25.8840  -32.5110   23.8620 C   0  0  0  0  0  3  0  0  0  0  0  0
  -26.4010  -31.7440   25.1400 C   0  0  1  0  0  0  0  0  0  0  0  0
  -25.3040  -31.4900   26.2020 C   0  0  0  0  0  1  0  0  0  0  0  0
  -26.9960  -30.3710   24.7450 C   0  0  0  0  0  1  0  0  0  0  0  0
  -27.5440  -32.5440   25.8090 C   0  0  0  0  0  1  0  0  0  0  0  0
  -25.5660  -33.9080   24.1890 N   0  0  0  0  0  0  0  0  0  0  0  0
  -25.8950  -34.9610   23.4280 C   0  0  0  0  0  0  0  0  0  0  0  0
  -26.5740  -34.8590   22.4010 O   0  0  0  0  0  0  0  0  0  0  0  0
  -24.9600  -34.0600   24.9820 H   0  0  0  0  0  0  0  0  0  0  0  0
  -24.1590  -36.7420   23.0510 C   0  0  0  0  0  1  0  0  0  0  0  0
  -25.3930  -36.3470   23.8770 C   0  0  0  0  0  3  0  0  0  0  0  0
  -27.5150  -37.2460   24.7240 C   0  0  0  0  0  1  0  0  0  0  0  0
  -26.4190  -37.4080   23.7730 N   0  0  0  0  0  0  0  0  0  0  0  0
  -26.0060  -38.3250   23.9210 H   0  0  0  0  0  0  0  0  0  0  0  0
  -29.9390  -15.8780   19.6470 C   0  0  0  0  0  2  0  0  0  0  0  0
  -30.6660  -14.5900   20.1730 C   0  0  0  0  0  0  0  0  0  0  0  0
  -30.3560  -12.3710   19.1990 C   0  0  0  0  0  2  0  0  0  0  0  0
  -29.4010  -12.5470   18.0020 C   0  0  0  0  0  2  0  0  0  0  0  0
  -27.9340  -12.3990   18.4520 C   0  0  0  0  0  2  0  0  0  0  0  0
  -27.5980  -13.2640   19.6920 C   0  0  0  0  0  3  0  0  0  0  0  0
  -28.6830  -13.1590   20.7880 C   0  0  0  0  0  2  0  0  0  0  0  0
  -30.0020  -13.4000   20.1880 N   0  0  0  0  0  0  0  0  0  0  0  0
  -31.8930  -14.6310   20.0770 O   0  0  0  0  0  0  0  0  0  0  0  0
  -25.2310  -13.8890   20.4520 C   0  0  0  0  0  0  0  0  0  0  0  0
  -24.1630  -13.1230   20.8350 C   0  0  0  0  0  0  0  0  0  0  0  0
  -24.6150  -11.7690   20.8040 C   0  0  0  0  0  0  0  0  0  0  0  0
  -26.2630  -12.9960   20.2080 N   0  0  0  0  0  0  0  0  0  0  0  0
  -25.9030  -11.7180   20.4850 N   0  0  0  0  0  0  0  0  0  0  0  0
  -23.8850  -10.5140   21.0030 C   0  0  0  0  0  0  0  0  0  0  0  0
  -24.3240   -9.5460   21.9330 C   0  0  0  0  0  3  0  0  0  0  0  0
  -23.5940   -8.3530   22.1200 C   0  0  0  0  0  3  0  0  0  0  0  0
  -22.4130   -8.1180   21.3780 C   0  0  0  0  0  0  0  0  0  0  0  0
  -21.9950   -9.0750   20.4350 C   0  0  0  0  0  3  0  0  0  0  0  0
  -22.7260  -10.2590   20.2460 C   0  0  0  0  0  3  0  0  0  0  0  0
  -21.6550   -6.9770   21.4730 O   0  0  0  0  0  0  0  0  0  0  0  0
  -21.6160   -6.2350   22.6270 C   0  0  0  0  0  0  0  0  0  0  0  0
  -21.2050   -6.7930   23.8580 C   0  0  0  0  0  3  0  0  0  0  0  0
  -21.1120   -5.9790   25.0040 C   0  0  0  0  0  3  0  0  0  0  0  0
  -21.4200   -4.6080   24.9220 C   0  0  0  0  0  0  0  0  0  0  0  0
  -21.8270   -4.0500   23.6970 C   0  0  0  0  0  3  0  0  0  0  0  0
  -21.9210   -4.8620   22.5530 C   0  0  0  0  0  0  0  0  0  0  0  0
  -22.2910   -4.3160   21.3690 F   0  0  0  0  0  0  0  0  0  0  0  0
  -21.3260   -3.8240   26.0210 F   0  0  0  0  0  0  0  0  0  0  0  0
  -22.7700  -13.6110   21.1160 C   0  0  0  0  0  0  0  0  0  0  0  0
  -22.0440  -12.9200   21.9870 N   0  0  0  0  0  0  0  0  0  0  0  0
  -22.3370  -14.6400   20.5990 O   0  0  0  0  0  0  0  0  0  0  0  0
  -22.4060  -12.0870   22.4260 H   0  0  0  0  0  0  0  0  0  0  0  0
  -21.1110  -13.2320   22.2190 H   0  0  0  0  0  0  0  0  0  0  0  0
  -25.3990  -15.2580   20.2680 N   0  0  0  0  0  0  0  0  0  0  0  0
  -24.6330  -15.9140   20.3740 H   0  0  0  0  0  0  0  0  0  0  0  0
  -26.2370  -15.6840   19.8950 H   0  0  0  0  0  0  0  0  0  0  0  0
  1  7  1  0
  1  2  2  0
  2  9  1  0
  4  3  1  0
  5 11  1  0
  6 10  1  0
  6  5  1  0
  6  1  1  0
  7  3  1  0
  8 57  1  0
  8  4  1  0
 11 12  1  6
 11  7  1  0
 11  8  1  0
 13  2  1  0
 13 14  1  0
 14 15  1  0
 16 18  1  0
 16 15  1  0
 17 28  2  0
 18 23  1  0
 19 27  1  0
 19 29  1  0
 20 26  1  0
 20 22  1  0
 21 27  1  0
 22 23  2  0
 22 21  1  0
 24 18  2  0
 25 24  1  0
 25 20  2  0
 26 19  1  0
 27 17  1  0
 29 31  2  0
 30 29  1  0
 32 30  1  0
 33 42  2  0
 33 38  1  0
 34 30  1  0
 34 38  1  0
 35 34  1  0
 36 37  1  0
 36 35  1  0
 37 33  1  0
 38 39  2  0
 39 40  1  0
 41 40  2  0
 42 41  1  0
 43 17  1  0
 43 48  1  0
 43 44  1  0
 44 47  1  1
 44 45  1  0
 46 44  1  0
 48 51  1  0
 49 53  1  0
 49 48  1  0
 50 49  2  0
 53 52  1  0
 55 53  1  0
 55 56  1  0
 55 54  1  0
 57 58  1  0
 58 64  1  0
 59 64  1  0
 60 61  1  0
 60 59  1  0
 62 61  1  0
 62 69  1  0
 62 63  1  0
 64 63  1  0
 65 58  2  0
 66 67  2  0
 67 86  1  0
 68 67  1  0
 68 71  1  0
 69 66  1  0
 69 70  1  0
 70 68  2  0
 71 72  1  0
 72 73  2  0
 74 77  1  0
 74 73  1  0
 75 74  2  0
 76 75  1  0
 76 71  2  0
 77 78  1  0
 78 79  1  0
 79 80  2  0
 81 80  1  0
 81 85  1  0
 82 81  2  0
 83 78  2  0
 83 82  1  0
 84 83  1  0
 86 87  1  0
 87 90  1  0
 87 89  1  0
 88 86  2  0
 91 92  1  0
 91 66  1  0
 93 91  1  0
M  ISO  4  15 101  16 101  57 100  58 100
M  END
>  <TORSDO>  (58) 
F 20

>  <SCORE>  (58) 
-14.202

>  <name>  (58) 
58

>  <ligand_id>  (58) 
58

>  <original_smiles>  (58) 
[H]c1c([H])c([H])c2c(c1[H])C([H])([H])C([H])([H])C([H])([H])C2([H])N([H])C(=O)C1([H])N(C(=O)C([H])(N([H])C(=O)C([H])(N([H])C([H])([H])[H])C([H])([H])[H])C(C([H])([H])[H])(C([H])([H])[H])C([H])([H])[H])C([H])([H])c2c([H])c(OC([H])([H])C([H])([H])C([H])([H])C(=C3C([H])(C([H])([H])[H])C([H])([H])[N+]4([H])C3([H])C([H])([H])C([H])([H])C4([H])C([H])([H])C(=O)N3C([H])([H])C([H])([H])C([H])([H])C([H])(n4nc(-c5c([H])c([H])c(Oc6c([H])c([H])c(F)c([H])c6F)c([H])c5[H])c(C(=O)N([H])[H])c4N([H])[H])C3([H])[H])C([H])([H])[H])c([H])c([H])c2C1([H])[H]

>  <smiles>  (58) 
[H]c1c([H])c([H])c2c(c1[H])C([H])([H])C([H])([H])C([H])([H])C2([H])N([H])C(=O)C1([H])N(C(=O)C([H])(N([H])C(=O)C([H])(N([H])C([H])([H])[H])C([H])([H])[H])C(C([H])([H])[H])(C([H])([H])[H])C([H])([H])[H])C([H])([H])c2c([H])c(OC([H])([H])C([H])([H])C([H])([H])C(=C3C([H])(C([H])([H])[H])C([H])([H])[N+]4([H])C3([H])C([H])([H])C([H])([H])C4([H])C([H])([H])C(=O)N3C([H])([H])C([H])([H])C([H])([H])C([H])(n4nc(-c5c([H])c([H])c(Oc6c([H])c([H])c(F)c([H])c6F)c([H])c5[H])c(C(=O)N([H])[H])c4N([H])[H])C3([H])[H])C([H])([H])[H])c([H])c([H])c2C1([H])[H]

$$$$
59:0:0
     RDKit          3D

 98105  0  0  1  0  0  0  0  0999 V2000
  -28.8030  -19.8540   20.0000 C   0  0  0  0  0  3  0  0  0  0  0  0
  -26.4880  -19.0400   19.4110 C   0  0  0  0  0  1  0  0  0  0  0  0
  -27.3450  -19.8680   20.2840 N   0  0  0  0  0  4  0  0  0  0  0  0
  -27.1820  -19.6110   21.2450 H   0  0  0  0  0  0  0  0  0  0  0  0
  -27.0220  -20.8190   20.1820 H   0  0  0  0  0  0  0  0  0  0  0  0
  -29.3730  -21.3140   20.3360 C   0  0  0  0  0  2  0  0  0  0  0  0
  -28.5180  -22.5350   18.1980 C   0  0  0  0  0  1  0  0  0  0  0  0
  -28.6040  -22.5880   19.7460 C   0  0  0  0  0  3  0  0  0  0  0  0
  -29.1100  -24.0250   20.2260 C   0  0  0  0  0  2  0  0  0  0  0  0
  -27.9970  -25.1290   20.4580 C   0  0  0  0  0  2  0  0  0  0  0  0
  -28.3000  -26.5550   20.1800 O   0  0  0  0  0  0  0  0  0  0  0  0
  -24.6220  -31.9490   23.2520 C   0  0  0  0  0  0  0  0  0  0  0  0
  -27.2060  -27.4250   20.1480 C   0  0  0  0  0  0  0  0  0  0  0  0
  -23.4050  -30.5560   21.6190 C   0  0  0  0  0  3  0  0  0  0  0  0
  -24.8420  -29.0200   20.1750 C   0  0  0  0  0  0  0  0  0  0  0  0
  -25.9390  -30.8850   21.4070 C   0  0  0  0  0  2  0  0  0  0  0  0
  -26.0180  -29.5110   20.7560 C   0  0  0  0  0  0  0  0  0  0  0  0
  -27.2090  -28.7250   20.7360 C   0  0  0  0  0  3  0  0  0  0  0  0
  -26.0170  -27.0050   19.5080 C   0  0  0  0  0  3  0  0  0  0  0  0
  -24.8430  -27.7680   19.5450 C   0  0  0  0  0  3  0  0  0  0  0  0
  -23.6030  -29.8850   20.2350 C   0  0  0  0  0  2  0  0  0  0  0  0
  -24.6760  -31.1430   22.1530 N   0  0  0  0  0  0  0  0  0  0  0  0
  -23.5420  -32.2320   23.7930 O   0  0  0  0  0  0  0  0  0  0  0  0
  -22.7500  -29.5370   22.5820 C   0  0  0  0  0  0  0  0  0  0  0  0
  -21.4280  -29.3310   22.4400 N   0  0  0  0  0  0  0  0  0  0  0  0
  -23.4300  -28.9280   23.4090 O   0  0  0  0  0  0  0  0  0  0  0  0
  -20.9340  -29.8770   21.7470 H   0  0  0  0  0  0  0  0  0  0  0  0
  -18.0650  -28.0960   22.9580 C   0  0  0  0  0  0  0  0  0  0  0  0
  -20.6210  -28.3830   23.2130 C   0  0  0  0  0  3  0  0  0  0  0  0
  -20.7330  -26.9480   22.6470 C   0  0  0  0  0  2  0  0  0  0  0  0
  -19.6320  -26.6160   21.6330 C   0  0  0  0  0  2  0  0  0  0  0  0
  -18.2520  -26.7480   22.2810 C   0  0  0  0  0  2  0  0  0  0  0  0
  -19.1780  -28.8700   23.3810 C   0  0  0  0  0  0  0  0  0  0  0  0
  -18.9480  -30.1290   23.9780 C   0  0  0  0  0  3  0  0  0  0  0  0
  -17.6370  -30.6180   24.1460 C   0  0  0  0  0  3  0  0  0  0  0  0
  -16.5400  -29.8450   23.7300 C   0  0  0  0  0  3  0  0  0  0  0  0
  -16.7550  -28.5820   23.1470 C   0  0  0  0  0  3  0  0  0  0  0  0
  -25.9120  -32.5790   23.8610 C   0  0  0  0  0  3  0  0  0  0  0  0
  -26.4470  -31.8060   25.1280 C   0  0  1  0  0  0  0  0  0  0  0  0
  -25.3530  -31.5060   26.1800 C   0  0  0  0  0  1  0  0  0  0  0  0
  -27.0740  -30.4510   24.7180 C   0  0  0  0  0  1  0  0  0  0  0  0
  -27.5780  -32.6190   25.8020 C   0  0  0  0  0  1  0  0  0  0  0  0
  -25.5970  -33.9740   24.2010 N   0  0  0  0  0  0  0  0  0  0  0  0
  -25.9090  -35.0340   23.4400 C   0  0  0  0  0  0  0  0  0  0  0  0
  -26.5610  -34.9400   22.3970 O   0  0  0  0  0  0  0  0  0  0  0  0
  -25.0070  -34.1180   25.0050 H   0  0  0  0  0  0  0  0  0  0  0  0
  -24.1650  -36.8310   23.1280 C   0  0  0  0  0  1  0  0  0  0  0  0
  -25.4200  -36.4180   23.9160 C   0  0  0  0  0  3  0  0  0  0  0  0
  -27.5660  -37.3060   24.7200 C   0  0  0  0  0  1  0  0  0  0  0  0
  -26.4490  -37.4770   23.7950 N   0  0  0  0  0  0  0  0  0  0  0  0
  -26.0410  -38.3920   23.9610 H   0  0  0  0  0  0  0  0  0  0  0  0
  -29.4880  -18.5410   20.6600 C   0  0  0  0  0  3  0  0  0  0  0  0
  -29.6570  -17.2800   19.6910 C   0  0  0  0  0  3  0  0  0  0  0  0
  -29.5340  -15.8090   20.2900 C   0  0  0  0  0  3  0  0  0  0  0  0
  -30.1230  -14.6110   19.4460 C   0  0  0  0  0  0  0  0  0  0  0  0
  -29.8140  -12.4040   18.3350 C   0  0  0  0  0  2  0  0  0  0  0  0
  -28.6670  -12.5000   17.3080 C   0  0  0  0  0  2  0  0  0  0  0  0
  -27.3000  -12.2690   17.9830 C   0  0  0  0  0  2  0  0  0  0  0  0
  -27.1240  -13.1040   19.2820 C   0  0  0  0  0  3  0  0  0  0  0  0
  -28.3630  -12.9450   20.1890 C   0  0  0  0  0  2  0  0  0  0  0  0
  -29.5370  -13.3710   19.4160 N   0  0  0  0  0  0  0  0  0  0  0  0
  -31.1200  -14.8420   18.7580 O   0  0  0  0  0  0  0  0  0  0  0  0
  -24.8890  -13.5870   20.4630 C   0  0  0  0  0  0  0  0  0  0  0  0
  -23.9260  -12.7580   20.9770 C   0  0  0  0  0  0  0  0  0  0  0  0
  -24.4030  -11.4280   20.7720 C   0  0  0  0  0  0  0  0  0  0  0  0
  -25.8880  -12.7550   19.9830 N   0  0  0  0  0  0  0  0  0  0  0  0
  -25.6100  -11.4460   20.2220 N   0  0  0  0  0  0  0  0  0  0  0  0
  -23.7480  -10.1330   21.0110 C   0  0  0  0  0  0  0  0  0  0  0  0
  -24.2880   -9.1900   21.9110 C   0  0  0  0  0  3  0  0  0  0  0  0
  -23.6350   -7.9600   22.1390 C   0  0  0  0  0  3  0  0  0  0  0  0
  -22.4250   -7.6650   21.4670 C   0  0  0  0  0  0  0  0  0  0  0  0
  -21.9030   -8.5980   20.5530 C   0  0  0  0  0  3  0  0  0  0  0  0
  -22.5580   -9.8190   20.3230 C   0  0  0  0  0  3  0  0  0  0  0  0
  -21.7320   -6.4860   21.6050 O   0  0  0  0  0  0  0  0  0  0  0  0
  -21.6950   -5.8090   22.7980 C   0  0  0  0  0  0  0  0  0  0  0  0
  -21.1820   -6.3980   23.9750 C   0  0  0  0  0  3  0  0  0  0  0  0
  -21.1000   -5.6440   25.1620 C   0  0  0  0  0  3  0  0  0  0  0  0
  -21.5210   -4.3020   25.1750 C   0  0  0  0  0  0  0  0  0  0  0  0
  -22.0260   -3.7110   24.0050 C   0  0  0  0  0  3  0  0  0  0  0  0
  -22.1120   -4.4630   22.8190 C   0  0  0  0  0  0  0  0  0  0  0  0
  -22.5800   -3.8840   21.6870 F   0  0  0  0  0  0  0  0  0  0  0  0
  -21.4350   -3.5730   26.3130 F   0  0  0  0  0  0  0  0  0  0  0  0
  -22.5970  -13.1730   21.5360 C   0  0  0  0  0  0  0  0  0  0  0  0
  -22.0640  -12.4100   22.4870 N   0  0  0  0  0  0  0  0  0  0  0  0
  -22.0420  -14.2060   21.1700 O   0  0  0  0  0  0  0  0  0  0  0  0
  -22.5190  -11.5670   22.8020 H   0  0  0  0  0  0  0  0  0  0  0  0
  -21.1810  -12.6710   22.9030 H   0  0  0  0  0  0  0  0  0  0  0  0
  -24.9900  -14.9700   20.3500 N   0  0  0  0  0  0  0  0  0  0  0  0
  -24.2310  -15.5870   20.6180 H   0  0  0  0  0  0  0  0  0  0  0  0
  -25.7350  -15.4470   19.8580 H   0  0  0  0  0  0  0  0  0  0  0  0
  -30.8270  -18.8720   21.3870 C   0  0  0  0  0  2  0  0  0  0  0  0
  -31.7530  -17.6900   21.7640 C   0  0  0  0  0  2  0  0  0  0  0  0
  -31.0250  -16.4180   22.2400 C   0  0  0  0  0  2  0  0  0  0  0  0
  -31.8120  -15.1260   21.9190 C   0  0  0  0  0  2  0  0  0  0  0  0
  -31.0200  -13.9070   22.1610 N   0  0  0  0  0  4  0  0  0  0  0  0
  -30.9050  -13.7400   23.1440 H   0  0  0  0  0  0  0  0  0  0  0  0
  -31.4890  -13.1090   21.7660 H   0  0  0  0  0  0  0  0  0  0  0  0
  -30.1150  -13.9770   21.7340 H   0  0  0  0  0  0  0  0  0  0  0  0
  1  3  1  0
  1  6  1  0
  1 52  1  0
  2  3  1  0
  3  4  1  0
  5  3  1  0
  8  7  1  0
  8  9  1  0
  8  6  1  0
  9 10  1  0
 11 10  1  0
 12 23  2  0
 13 11  1  0
 13 18  1  0
 14 22  1  0
 14 24  1  0
 15 21  1  0
 15 17  1  0
 16 22  1  0
 17 16  1  0
 18 17  2  0
 19 20  1  0
 19 13  2  0
 20 15  2  0
 21 14  1  0
 22 12  1  0
 24 26  2  0
 25 24  1  0
 27 25  1  0
 28 37  2  0
 28 33  1  0
 29 25  1  0
 29 33  1  0
 30 29  1  0
 31 32  1  0
 31 30  1  0
 32 28  1  0
 33 34  2  0
 34 35  1  0
 36 35  2  0
 37 36  1  0
 38 12  1  0
 38 43  1  0
 38 39  1  0
 39 42  1  1
 39 40  1  0
 41 39  1  0
 43 46  1  0
 44 48  1  0
 44 43  1  0
 45 44  2  0
 48 47  1  0
 50 48  1  0
 50 51  1  0
 50 49  1  0
 52 53  1  0
 52 91  1  0
 53 54  2  0
 55 54  1  0
 56 61  1  0
 57 58  1  0
 57 56  1  0
 59 58  1  0
 59 66  1  0
 59 60  1  0
 61 55  1  0
 61 60  1  0
 62 55  2  0
 63 64  2  0
 64 83  1  0
 65 64  1  0
 65 68  1  0
 66 67  1  0
 66 63  1  0
 67 65  2  0
 68 69  1  0
 69 70  2  0
 71 74  1  0
 71 70  1  0
 72 71  2  0
 73 72  1  0
 73 68  2  0
 74 75  1  0
 75 80  2  0
 75 76  1  0
 76 77  2  0
 77 78  1  0
 78 82  1  0
 79 78  2  0
 80 79  1  0
 81 80  1  0
 83 84  1  0
 84 86  1  0
 84 87  1  0
 85 83  2  0
 88 63  1  0
 88 89  1  0
 90 88  1  0
 91 92  1  0
 92 93  1  0
 94 95  1  0
 94 93  1  0
 95 96  1  0
 97 95  1  0
 98 95  1  0
M  ISO  4  10 101  11 101  54 100  55 100
M  END
>  <TORSDO>  (59) 
F 29

>  <SCORE>  (59) 
-8.821

>  <name>  (59) 
59

>  <ligand_id>  (59) 
59

>  <original_smiles>  (59) 
[H]c1c([H])c([H])c2c(c1[H])C([H])([H])C([H])([H])C([H])([H])C2([H])N([H])C(=O)C1([H])N(C(=O)C([H])(N([H])C(=O)C([H])(N([H])C([H])([H])[H])C([H])([H])[H])C(C([H])([H])[H])(C([H])([H])[H])C([H])([H])[H])C([H])([H])c2c([H])c(OC([H])([H])C([H])([H])C([H])(C([H])([H])[H])C([H])([H])C([H])(C([H])(C([H])([H])C([H])([H])C(=O)N3C([H])([H])C([H])([H])C([H])([H])C([H])(n4nc(-c5c([H])c([H])c(Oc6c([H])c([H])c(F)c([H])c6F)c([H])c5[H])c(C(=O)N([H])[H])c4N([H])[H])C3([H])[H])C([H])([H])C([H])([H])C([H])([H])C([H])([H])[N+]([H])([H])[H])[N+]([H])([H])C([H])([H])[H])c([H])c([H])c2C1([H])[H]

>  <smiles>  (59) 
[H]c1c([H])c([H])c2c(c1[H])C([H])([H])C([H])([H])C([H])([H])C2([H])N([H])C(=O)C1([H])N(C(=O)C([H])(N([H])C(=O)C([H])(N([H])C([H])([H])[H])C([H])([H])[H])C(C([H])([H])[H])(C([H])([H])[H])C([H])([H])[H])C([H])([H])c2c([H])c(OC([H])([H])C([H])([H])C([H])(C([H])([H])[H])C([H])([H])C([H])(C([H])(C([H])([H])C([H])([H])C(=O)N3C([H])([H])C([H])([H])C([H])([H])C([H])(n4nc(-c5c([H])c([H])c(Oc6c([H])c([H])c(F)c([H])c6F)c([H])c5[H])c(C(=O)N([H])[H])c4N([H])[H])C3([H])[H])C([H])([H])C([H])([H])C([H])([H])C([H])([H])[N+]([H])([H])[H])[N+]([H])([H])C([H])([H])[H])c([H])c([H])c2C1([H])[H]

$$$$
60:0:0
     RDKit          3D

 93100  0  0  1  0  0  0  0  0999 V2000
  -28.8520  -22.8630   20.9360 C   0  0  0  0  0  3  0  0  0  0  0  0
  -31.2020  -23.7780   21.5500 C   0  0  0  0  0  1  0  0  0  0  0  0
  -29.9190  -22.3640   23.2160 C   0  0  0  0  0  1  0  0  0  0  0  0
  -29.8070  -23.3660   22.0530 C   0  0  0  0  0  3  0  0  0  0  0  0
  -29.0370  -21.3990   20.7870 N   0  0  0  0  0  0  0  0  0  0  0  0
  -29.3020  -21.0780   21.7130 H   0  0  0  0  0  0  0  0  0  0  0  0
  -29.9980  -20.8980   19.7990 C   0  0  0  0  0  2  0  0  0  0  0  0
  -32.0750  -19.5530   19.3480 C   0  0  0  0  0  1  0  0  0  0  0  0
  -30.8200  -19.6350   20.2470 C   0  0  0  0  0  3  0  0  0  0  0  0
  -30.0400  -18.3490   20.2590 N   0  0  0  0  0  4  0  0  0  0  0  0
  -29.3960  -18.4040   21.0320 H   0  0  0  0  0  0  0  0  0  0  0  0
  -29.4810  -18.3090   19.4210 H   0  0  0  0  0  0  0  0  0  0  0  0
  -30.8490  -17.0820   20.3670 C   0  0  0  0  0  2  0  0  0  0  0  0
  -30.0580  -15.7410   20.5960 C   0  0  0  0  0  2  0  0  0  0  0  0
  -30.7370  -14.4510   20.0320 C   0  0  0  0  0  0  0  0  0  0  0  0
  -30.3400  -12.2810   18.9080 C   0  0  0  0  0  2  0  0  0  0  0  0
  -29.3410  -12.5060   17.7530 C   0  0  0  0  0  2  0  0  0  0  0  0
  -27.8880  -12.3930   18.2580 C   0  0  0  0  0  2  0  0  0  0  0  0
  -27.6350  -13.2330   19.5370 C   0  0  0  0  0  3  0  0  0  0  0  0
  -28.7460  -13.0100   20.5880 C   0  0  0  0  0  2  0  0  0  0  0  0
  -30.0420  -13.2790   19.9510 N   0  0  0  0  0  0  0  0  0  0  0  0
  -31.8590  -14.5580   19.5300 O   0  0  0  0  0  0  0  0  0  0  0  0
  -25.3120  -13.8900   20.4250 C   0  0  0  0  0  0  0  0  0  0  0  0
  -24.2400  -13.1410   20.8290 C   0  0  0  0  0  0  0  0  0  0  0  0
  -24.6490  -11.7760   20.7160 C   0  0  0  0  0  0  0  0  0  0  0  0
  -26.3070  -12.9840   20.0920 N   0  0  0  0  0  0  0  0  0  0  0  0
  -25.9150  -11.7060   20.3260 N   0  0  0  0  0  0  0  0  0  0  0  0
  -23.8890  -10.5340   20.9010 C   0  0  0  0  0  0  0  0  0  0  0  0
  -24.2950   -9.5500   21.8300 C   0  0  0  0  0  3  0  0  0  0  0  0
  -23.5360   -8.3720   22.0020 C   0  0  0  0  0  3  0  0  0  0  0  0
  -22.3580   -8.1690   21.2450 C   0  0  0  0  0  0  0  0  0  0  0  0
  -21.9710   -9.1410   20.3050 C   0  0  0  0  0  3  0  0  0  0  0  0
  -22.7300  -10.3100   20.1300 C   0  0  0  0  0  3  0  0  0  0  0  0
  -21.5730   -7.0450   21.3260 O   0  0  0  0  0  0  0  0  0  0  0  0
  -21.4660   -6.3260   22.4900 C   0  0  0  0  0  0  0  0  0  0  0  0
  -20.9300   -6.8900   23.6670 C   0  0  0  0  0  3  0  0  0  0  0  0
  -20.7720   -6.0960   24.8210 C   0  0  0  0  0  3  0  0  0  0  0  0
  -21.1400   -4.7370   24.7960 C   0  0  0  0  0  0  0  0  0  0  0  0
  -21.6670   -4.1710   23.6220 C   0  0  0  0  0  3  0  0  0  0  0  0
  -21.8270   -4.9640   22.4710 C   0  0  0  0  0  0  0  0  0  0  0  0
  -22.3160   -4.4080   21.3360 F   0  0  0  0  0  0  0  0  0  0  0  0
  -20.9810   -3.9710   25.9000 F   0  0  0  0  0  0  0  0  0  0  0  0
  -22.8810  -13.6550   21.2070 C   0  0  0  0  0  0  0  0  0  0  0  0
  -22.1760  -12.9400   22.0770 N   0  0  0  0  0  0  0  0  0  0  0  0
  -22.4570  -14.7220   20.7670 O   0  0  0  0  0  0  0  0  0  0  0  0
  -22.5340  -12.0740   22.4520 H   0  0  0  0  0  0  0  0  0  0  0  0
  -21.2650  -13.2640   22.3710 H   0  0  0  0  0  0  0  0  0  0  0  0
  -25.5160  -15.2610   20.2920 N   0  0  0  0  0  0  0  0  0  0  0  0
  -24.7820  -15.9360   20.4720 H   0  0  0  0  0  0  0  0  0  0  0  0
  -26.3570  -15.6820   19.9190 H   0  0  0  0  0  0  0  0  0  0  0  0
  -28.8040  -23.7630   19.6450 C   0  0  0  0  0  2  0  0  0  0  0  0
  -28.0030  -25.1150   19.8140 C   0  0  0  0  0  2  0  0  0  0  0  0
  -28.2820  -26.5270   19.6180 O   0  0  0  0  0  0  0  0  0  0  0  0
  -24.8500  -31.6870   23.1910 C   0  0  0  0  0  0  0  0  0  0  0  0
  -27.1640  -27.3500   19.6920 C   0  0  0  0  0  0  0  0  0  0  0  0
  -23.5120  -30.4320   21.5360 C   0  0  0  0  0  3  0  0  0  0  0  0
  -24.8330  -28.9550   19.9280 C   0  0  0  0  0  0  0  0  0  0  0  0
  -26.0370  -30.7230   21.2180 C   0  0  0  0  0  2  0  0  0  0  0  0
  -26.0430  -29.3960   20.4800 C   0  0  0  0  0  0  0  0  0  0  0  0
  -27.2130  -28.6040   20.3540 C   0  0  0  0  0  3  0  0  0  0  0  0
  -25.9340  -26.9420   19.1260 C   0  0  0  0  0  3  0  0  0  0  0  0
  -24.7760  -27.7300   19.2440 C   0  0  0  0  0  3  0  0  0  0  0  0
  -23.6230  -29.8470   20.1030 C   0  0  0  0  0  2  0  0  0  0  0  0
  -24.8220  -30.9580   22.0390 N   0  0  0  0  0  0  0  0  0  0  0  0
  -23.8090  -31.9530   23.8090 O   0  0  0  0  0  0  0  0  0  0  0  0
  -22.8820  -29.3670   22.4630 C   0  0  0  0  0  0  0  0  0  0  0  0
  -21.5640  -29.1480   22.3200 N   0  0  0  0  0  0  0  0  0  0  0  0
  -23.5760  -28.7420   23.2680 O   0  0  0  0  0  0  0  0  0  0  0  0
  -21.0630  -29.7070   21.6440 H   0  0  0  0  0  0  0  0  0  0  0  0
  -18.2420  -27.7680   22.6840 C   0  0  0  0  0  0  0  0  0  0  0  0
  -20.7690  -28.1660   23.0590 C   0  0  0  0  0  3  0  0  0  0  0  0
  -20.9740  -26.7430   22.4920 C   0  0  0  0  0  2  0  0  0  0  0  0
  -19.9340  -26.3600   21.4340 C   0  0  0  0  0  2  0  0  0  0  0  0
  -18.5200  -26.4300   22.0200 C   0  0  0  0  0  2  0  0  0  0  0  0
  -19.2980  -28.5910   23.1570 C   0  0  0  0  0  0  0  0  0  0  0  0
  -18.9880  -29.8410   23.7330 C   0  0  0  0  0  3  0  0  0  0  0  0
  -17.6520  -30.2710   23.8440 C   0  0  0  0  0  3  0  0  0  0  0  0
  -16.6090  -29.4450   23.3900 C   0  0  0  0  0  3  0  0  0  0  0  0
  -16.9040  -28.1970   22.8130 C   0  0  0  0  0  3  0  0  0  0  0  0
  -26.1870  -32.2410   23.7740 C   0  0  0  0  0  3  0  0  0  0  0  0
  -26.7340  -31.3950   24.9880 C   0  0  1  0  0  0  0  0  0  0  0  0
  -25.6860  -31.1500   26.0980 C   0  0  0  0  0  1  0  0  0  0  0  0
  -27.2420  -30.0160   24.5070 C   0  0  0  0  0  1  0  0  0  0  0  0
  -27.9450  -32.1150   25.6260 C   0  0  0  0  0  1  0  0  0  0  0  0
  -25.9510  -33.6340   24.1760 N   0  0  0  0  0  0  0  0  0  0  0  0
  -26.3270  -34.7060   23.4670 C   0  0  0  0  0  0  0  0  0  0  0  0
  -26.9840  -34.6230   22.4250 O   0  0  0  0  0  0  0  0  0  0  0  0
  -25.3730  -33.7760   24.9920 H   0  0  0  0  0  0  0  0  0  0  0  0
  -24.7060  -36.6090   23.1990 C   0  0  0  0  0  1  0  0  0  0  0  0
  -25.9110  -36.0910   23.9990 C   0  0  0  0  0  3  0  0  0  0  0  0
  -28.0710  -36.8170   24.9120 C   0  0  0  0  0  1  0  0  0  0  0  0
  -27.0020  -37.0890   23.9570 N   0  0  0  0  0  0  0  0  0  0  0  0
  -26.6420  -38.0220   24.1400 H   0  0  0  0  0  0  0  0  0  0  0  0
  1 51  1  0
  1  4  1  0
  2  4  1  0
  4  3  1  0
  5  1  1  0
  5  6  1  0
  7  9  1  0
  7  5  1  0
  9  8  1  0
  9 10  1  0
 10 13  1  0
 10 11  1  0
 12 10  1  0
 13 14  1  0
 15 14  1  0
 16 21  1  0
 17 18  1  0
 17 16  1  0
 19 18  1  0
 19 26  1  0
 19 20  1  0
 21 15  1  0
 21 20  1  0
 22 15  2  0
 23 24  2  0
 24 43  1  0
 25 24  1  0
 25 28  1  0
 26 27  1  0
 26 23  1  0
 27 25  2  0
 28 29  1  0
 29 30  2  0
 31 34  1  0
 31 30  1  0
 32 31  2  0
 33 32  1  0
 33 28  2  0
 34 35  1  0
 35 36  1  0
 36 37  2  0
 38 37  1  0
 38 42  1  0
 39 38  2  0
 40 35  2  0
 40 39  1  0
 41 40  1  0
 43 44  1  0
 44 47  1  0
 44 46  1  0
 45 43  2  0
 48 23  1  0
 48 49  1  0
 50 48  1  0
 51 52  1  0
 53 55  1  0
 53 52  1  0
 54 65  2  0
 55 60  1  0
 56 64  1  0
 56 66  1  0
 57 63  1  0
 57 59  1  0
 58 64  1  0
 59 58  1  0
 60 59  2  0
 61 62  1  0
 61 55  2  0
 62 57  2  0
 63 56  1  0
 64 54  1  0
 66 68  2  0
 67 66  1  0
 69 67  1  0
 70 79  2  0
 70 75  1  0
 71 67  1  0
 71 75  1  0
 72 71  1  0
 73 74  1  0
 73 72  1  0
 74 70  1  0
 75 76  2  0
 76 77  1  0
 78 77  2  0
 79 78  1  0
 80 54  1  0
 80 85  1  0
 80 81  1  0
 81 84  1  1
 81 82  1  0
 83 81  1  0
 85 88  1  0
 86 90  1  0
 86 85  1  0
 87 86  2  0
 90 89  1  0
 92 90  1  0
 92 93  1  0
 92 91  1  0
M  ISO  4  14 100  15 100  52 101  53 101
M  END
>  <TORSDO>  (60) 
F 25

>  <SCORE>  (60) 
-11.207

>  <name>  (60) 
60

>  <ligand_id>  (60) 
60

>  <original_smiles>  (60) 
[H]c1c([H])c([H])c2c(c1[H])C([H])([H])C([H])([H])C([H])([H])C2([H])N([H])C(=O)C1([H])N(C(=O)C([H])(N([H])C(=O)C([H])(N([H])C([H])([H])[H])C([H])([H])[H])C(C([H])([H])[H])(C([H])([H])[H])C([H])([H])[H])C([H])([H])c2c([H])c(OC([H])([H])C([H])([H])C([H])(N([H])C([H])([H])C([H])(C([H])([H])[H])[N+]([H])([H])C([H])([H])C([H])([H])C(=O)N3C([H])([H])C([H])([H])C([H])([H])C([H])(n4nc(-c5c([H])c([H])c(Oc6c([H])c([H])c(F)c([H])c6F)c([H])c5[H])c(C(=O)N([H])[H])c4N([H])[H])C3([H])[H])C([H])(C([H])([H])[H])C([H])([H])[H])c([H])c([H])c2C1([H])[H]

>  <smiles>  (60) 
[H]c1c([H])c([H])c2c(c1[H])C([H])([H])C([H])([H])C([H])([H])C2([H])N([H])C(=O)C1([H])N(C(=O)C([H])(N([H])C(=O)C([H])(N([H])C([H])([H])[H])C([H])([H])[H])C(C([H])([H])[H])(C([H])([H])[H])C([H])([H])[H])C([H])([H])c2c([H])c(OC([H])([H])C([H])([H])C([H])(N([H])C([H])([H])C([H])(C([H])([H])[H])[N+]([H])([H])C([H])([H])C([H])([H])C(=O)N3C([H])([H])C([H])([H])C([H])([H])C([H])(n4nc(-c5c([H])c([H])c(Oc6c([H])c([H])c(F)c([H])c6F)c([H])c5[H])c(C(=O)N([H])[H])c4N([H])[H])C3([H])[H])C([H])(C([H])([H])[H])C([H])([H])[H])c([H])c([H])c2C1([H])[H]

$$$$
61:0:0
     RDKit          3D

100108  0  0  1  0  0  0  0  0999 V2000
  -30.9470  -18.3040   24.8020 C   0  0  0  0  0  2  0  0  0  0  0  0
  -31.6210  -19.6600   24.6140 C   0  0  0  0  0  2  0  0  0  0  0  0
  -29.8810  -18.2520   23.7060 C   0  0  0  0  0  3  0  0  0  0  0  0
  -31.6160  -19.9260   23.0940 C   0  0  0  0  0  3  0  0  0  0  0  0
  -30.5080  -18.9990   22.4950 C   0  0  0  0  0  3  0  0  0  0  0  0
  -28.5710  -18.9060   24.1840 C   0  0  0  0  0  1  0  0  0  0  0  0
  -31.0400  -22.3640   23.8440 C   0  0  0  0  0  1  0  0  0  0  0  0
  -31.5610  -21.4420   22.7180 C   0  0  0  0  0  3  0  0  0  0  0  0
  -30.7770  -21.6630   21.4770 N   0  0  0  0  0  4  0  0  0  0  0  0
  -31.1460  -21.0690   20.7550 H   0  0  0  0  0  0  0  0  0  0  0  0
  -29.8190  -21.3860   21.6230 H   0  0  0  0  0  0  0  0  0  0  0  0
  -30.8040  -23.0260   20.8960 C   0  0  0  0  0  2  0  0  0  0  0  0
  -29.6580  -23.9340   21.3730 C   0  0  0  0  0  2  0  0  0  0  0  0
  -29.4530  -25.1370   20.4370 C   0  0  0  0  0  2  0  0  0  0  0  0
  -28.5860  -26.2380   21.0560 C   0  0  0  0  0  2  0  0  0  0  0  0
  -28.4210  -27.2830   20.1030 O   0  0  0  0  0  0  0  0  0  0  0  0
  -24.1960  -31.5940   23.8210 C   0  0  0  0  0  0  0  0  0  0  0  0
  -27.1970  -27.8880   20.1930 C   0  0  0  0  0  0  0  0  0  0  0  0
  -23.0960  -30.2950   22.0230 C   0  0  0  0  0  3  0  0  0  0  0  0
  -24.6650  -29.0930   20.4090 C   0  0  0  0  0  0  0  0  0  0  0  0
  -25.5650  -30.9320   21.8520 C   0  0  0  0  0  2  0  0  0  0  0  0
  -25.7710  -29.6650   21.0510 C   0  0  0  0  0  0  0  0  0  0  0  0
  -27.0410  -29.0670   20.9460 C   0  0  0  0  0  3  0  0  0  0  0  0
  -26.0840  -27.3140   19.5470 C   0  0  0  0  0  3  0  0  0  0  0  0
  -24.8130  -27.9140   19.6570 C   0  0  0  0  0  3  0  0  0  0  0  0
  -23.3430  -29.8100   20.5670 C   0  0  0  0  0  2  0  0  0  0  0  0
  -24.3030  -30.9490   22.6250 N   0  0  0  0  0  0  0  0  0  0  0  0
  -23.1050  -31.6890   24.4010 O   0  0  0  0  0  0  0  0  0  0  0  0
  -22.5660  -29.1050   22.8530 C   0  0  0  0  0  0  0  0  0  0  0  0
  -21.3520  -28.6380   22.5190 N   0  0  0  0  0  0  0  0  0  0  0  0
  -23.2490  -28.6050   23.7510 O   0  0  0  0  0  0  0  0  0  0  0  0
  -20.8530  -29.1070   21.7770 H   0  0  0  0  0  0  0  0  0  0  0  0
  -18.5010  -26.4440   22.2070 C   0  0  0  0  0  0  0  0  0  0  0  0
  -20.6680  -27.5030   23.1350 C   0  0  0  0  0  3  0  0  0  0  0  0
  -21.3580  -26.1700   22.7630 C   0  0  0  0  0  2  0  0  0  0  0  0
  -20.7480  -25.4990   21.5280 C   0  0  0  0  0  2  0  0  0  0  0  0
  -19.2620  -25.2090   21.7540 C   0  0  0  0  0  2  0  0  0  0  0  0
  -19.1640  -27.5270   22.8420 C   0  0  0  0  0  0  0  0  0  0  0  0
  -18.4180  -28.6670   23.2120 C   0  0  0  0  0  3  0  0  0  0  0  0
  -17.0340  -28.7340   22.9600 C   0  0  0  0  0  3  0  0  0  0  0  0
  -16.3790  -27.6520   22.3470 C   0  0  0  0  0  3  0  0  0  0  0  0
  -17.1110  -26.5100   21.9760 C   0  0  0  0  0  3  0  0  0  0  0  0
  -25.4300  -32.2630   24.5040 C   0  0  0  0  0  3  0  0  0  0  0  0
  -25.1570  -33.7020   24.5970 N   0  0  0  0  0  0  0  0  0  0  0  0
  -25.6580  -34.6260   23.7660 C   0  0  0  0  0  0  0  0  0  0  0  0
  -26.4660  -34.3560   22.8720 O   0  0  0  0  0  0  0  0  0  0  0  0
  -24.4630  -33.9890   25.2730 H   0  0  0  0  0  0  0  0  0  0  0  0
  -24.1030  -36.4090   22.9140 C   0  0  0  0  0  1  0  0  0  0  0  0
  -25.1860  -36.0810   23.9540 C   0  0  0  0  0  3  0  0  0  0  0  0
  -27.2500  -36.9630   24.9500 C   0  0  0  0  0  1  0  0  0  0  0  0
  -26.2810  -37.0710   23.8610 N   0  0  0  0  0  0  0  0  0  0  0  0
  -25.9120  -38.0180   23.8580 H   0  0  0  0  0  0  0  0  0  0  0  0
  -25.7560  -31.6620   25.9270 C   0  0  1  0  0  0  0  0  0  0  0  0
  -24.5360  -31.6160   26.8760 C   0  0  0  0  0  1  0  0  0  0  0  0
  -26.3100  -30.2240   25.7960 C   0  0  0  0  0  1  0  0  0  0  0  0
  -26.8600  -32.5020   26.6120 C   0  0  0  0  0  1  0  0  0  0  0  0
  -31.0370  -18.0740   21.3400 C   0  0  0  0  0  3  0  0  0  0  0  0
  -31.1720  -16.6540   21.7670 N   0  0  0  0  0  4  0  0  0  0  0  0
  -31.8310  -16.5970   22.5270 H   0  0  0  0  0  0  0  0  0  0  0  0
  -30.2800  -16.3430   22.1190 H   0  0  0  0  0  0  0  0  0  0  0  0
  -31.6350  -15.7250   20.7040 C   0  0  0  0  0  2  0  0  0  0  0  0
  -31.5710  -14.2520   21.1560 C   0  0  0  0  0  2  0  0  0  0  0  0
  -31.7020  -13.2540   19.9970 C   0  0  0  0  0  0  0  0  0  0  0  0
  -31.0070  -11.1010   18.9990 C   0  0  0  0  0  2  0  0  0  0  0  0
  -30.0890  -11.2630   17.7750 C   0  0  0  0  0  2  0  0  0  0  0  0
  -28.6190  -11.4130   18.2080 C   0  0  0  0  0  2  0  0  0  0  0  0
  -28.4350  -12.4850   19.3120 C   0  0  0  0  0  3  0  0  0  0  0  0
  -29.4400  -12.2570   20.4630 C   0  0  0  0  0  2  0  0  0  0  0  0
  -30.7990  -12.2460   19.8940 N   0  0  0  0  0  0  0  0  0  0  0  0
  -32.6940  -13.3380   19.2650 O   0  0  0  0  0  0  0  0  0  0  0  0
  -26.2140  -13.6050   19.9820 C   0  0  0  0  0  0  0  0  0  0  0  0
  -25.0140  -13.0850   20.3840 C   0  0  0  0  0  0  0  0  0  0  0  0
  -25.1860  -11.6680   20.4000 C   0  0  0  0  0  0  0  0  0  0  0  0
  -27.0560  -12.5200   19.7930 N   0  0  0  0  0  0  0  0  0  0  0  0
  -26.4380  -11.3520   20.0980 N   0  0  0  0  0  0  0  0  0  0  0  0
  -24.2180  -10.5900   20.6330 C   0  0  0  0  0  0  0  0  0  0  0  0
  -24.5210   -9.4970   21.4720 C   0  0  0  0  0  3  0  0  0  0  0  0
  -23.5680   -8.4800   21.6960 C   0  0  0  0  0  3  0  0  0  0  0  0
  -22.2940   -8.5530   21.0810 C   0  0  0  0  0  0  0  0  0  0  0  0
  -22.0080   -9.6320   20.2280 C   0  0  0  0  0  3  0  0  0  0  0  0
  -22.9590  -10.6410   20.0020 C   0  0  0  0  0  3  0  0  0  0  0  0
  -21.3160   -7.5990   21.2210 O   0  0  0  0  0  0  0  0  0  0  0  0
  -21.2160   -6.8300   22.3520 C   0  0  0  0  0  0  0  0  0  0  0  0
  -20.9320   -7.3940   23.6140 C   0  0  0  0  0  3  0  0  0  0  0  0
  -20.7710   -6.5580   24.7380 C   0  0  0  0  0  3  0  0  0  0  0  0
  -20.8840   -5.1620   24.6000 C   0  0  0  0  0  0  0  0  0  0  0  0
  -21.1590   -4.5980   23.3420 C   0  0  0  0  0  3  0  0  0  0  0  0
  -21.3240   -5.4300   22.2200 C   0  0  0  0  0  0  0  0  0  0  0  0
  -21.5710   -4.8810   21.0070 F   0  0  0  0  0  0  0  0  0  0  0  0
  -20.7210   -4.3580   25.6770 F   0  0  0  0  0  0  0  0  0  0  0  0
  -23.7460  -13.8490   20.6380 C   0  0  0  0  0  0  0  0  0  0  0  0
  -22.9120  -13.3650   21.5520 N   0  0  0  0  0  0  0  0  0  0  0  0
  -23.5090  -14.9070   20.0560 O   0  0  0  0  0  0  0  0  0  0  0  0
  -23.1190  -12.5080   22.0440 H   0  0  0  0  0  0  0  0  0  0  0  0
  -22.0550  -13.8550   21.7630 H   0  0  0  0  0  0  0  0  0  0  0  0
  -26.6490  -14.9030   19.7360 N   0  0  0  0  0  0  0  0  0  0  0  0
  -26.0130  -15.6890   19.8020 H   0  0  0  0  0  0  0  0  0  0  0  0
  -27.5320  -15.1430   19.3060 H   0  0  0  0  0  0  0  0  0  0  0  0
  -29.4100  -19.2980   19.3370 C   0  0  0  0  0  1  0  0  0  0  0  0
  -30.2750  -18.1720   19.9720 C   0  0  0  0  0  2  0  0  0  0  0  0
  2  1  1  0
  3  6  1  0
  3  1  1  0
  4  8  1  0
  4  2  1  0
  5 57  1  0
  5  4  1  0
  5  3  1  0
  8  7  1  0
  9 11  1  0
  9  8  1  0
 10  9  1  0
 12 13  1  0
 12  9  1  0
 14 15  1  0
 14 13  1  0
 16 18  1  0
 16 15  1  0
 17 28  2  0
 18 23  1  0
 19 27  1  0
 19 29  1  0
 20 26  1  0
 20 22  1  0
 21 27  1  0
 22 21  1  0
 23 22  2  0
 24 25  1  0
 24 18  2  0
 25 20  2  0
 26 19  1  0
 27 17  1  0
 29 31  2  0
 30 29  1  0
 32 30  1  0
 33 38  1  0
 34 30  1  0
 35 34  1  0
 36 37  1  0
 36 35  1  0
 37 33  1  0
 38 34  1  0
 38 39  2  0
 40 39  1  0
 41 40  2  0
 42 33  2  0
 42 41  1  0
 43 17  1  0
 43 44  1  0
 43 53  1  0
 44 47  1  0
 45 49  1  0
 45 44  1  0
 46 45  2  0
 49 48  1  0
 51 49  1  0
 51 50  1  0
 52 51  1  0
 53 56  1  1
 53 54  1  0
 55 53  1  0
 57100  1  0
 57 58  1  0
 58 60  1  0
 58 59  1  0
 61 62  1  0
 61 58  1  0
 63 62  1  0
 64 69  1  0
 65 66  1  0
 65 64  1  0
 67 66  1  0
 67 74  1  0
 67 68  1  0
 69 63  1  0
 69 68  1  0
 70 63  2  0
 71 72  2  0
 72 73  1  0
 72 91  1  0
 73 76  1  0
 74 71  1  0
 74 75  1  0
 75 73  2  0
 76 77  1  0
 77 78  2  0
 79 82  1  0
 79 78  1  0
 80 79  2  0
 81 80  1  0
 81 76  2  0
 82 83  1  0
 83 84  1  0
 84 85  2  0
 86 85  1  0
 86 90  1  0
 87 86  2  0
 88 83  2  0
 88 87  1  0
 89 88  1  0
 91 92  1  0
 92 95  1  0
 92 94  1  0
 93 91  2  0
 96 97  1  0
 96 71  1  0
 98 96  1  0
 99100  1  0
M  ISO  4  15 101  16 101  62 100  63 100
M  END
>  <TORSDO>  (61) 
F 27

>  <SCORE>  (61) 
1.460

>  <name>  (61) 
61

>  <ligand_id>  (61) 
61

>  <original_smiles>  (61) 
[H]c1c([H])c([H])c2c(c1[H])C([H])([H])C([H])([H])C([H])([H])C2([H])N([H])C(=O)C1([H])N(C(=O)C([H])(N([H])C(=O)C([H])(N([H])C([H])([H])[H])C([H])([H])[H])C(C([H])([H])[H])(C([H])([H])[H])C([H])([H])[H])C([H])([H])c2c([H])c(OC([H])([H])C([H])([H])C([H])([H])C([H])([H])[N+]([H])([H])C([H])(C([H])([H])[H])C3([H])C([H])([H])C([H])([H])C([H])(C([H])([H])[H])C3([H])C([H])(C([H])([H])C([H])([H])[H])[N+]([H])([H])C([H])([H])C([H])([H])C(=O)N3C([H])([H])C([H])([H])C([H])([H])C([H])(n4nc(-c5c([H])c([H])c(Oc6c([H])c([H])c(F)c([H])c6F)c([H])c5[H])c(C(=O)N([H])[H])c4N([H])[H])C3([H])[H])c([H])c([H])c2C1([H])[H]

>  <smiles>  (61) 
[H]c1c([H])c([H])c2c(c1[H])C([H])([H])C([H])([H])C([H])([H])C2([H])N([H])C(=O)C1([H])N(C(=O)C([H])(N([H])C(=O)C([H])(N([H])C([H])([H])[H])C([H])([H])[H])C(C([H])([H])[H])(C([H])([H])[H])C([H])([H])[H])C([H])([H])c2c([H])c(OC([H])([H])C([H])([H])C([H])([H])C([H])([H])[N+]([H])([H])C([H])(C([H])([H])[H])C3([H])C([H])([H])C([H])([H])C([H])(C([H])([H])[H])C3([H])C([H])(C([H])([H])C([H])([H])[H])[N+]([H])([H])C([H])([H])C([H])([H])C(=O)N3C([H])([H])C([H])([H])C([H])([H])C([H])(n4nc(-c5c([H])c([H])c(Oc6c([H])c([H])c(F)c([H])c6F)c([H])c5[H])c(C(=O)N([H])[H])c4N([H])[H])C3([H])[H])c([H])c([H])c2C1([H])[H]

$$$$
62:0:0
     RDKit          3D

 89 96  0  0  1  0  0  0  0  0999 V2000
  -29.3540  -20.6230   20.3280 C   0  0  0  0  0  0  0  0  0  0  0  0
  -30.6130  -20.7600   20.5110 N   0  0  0  0  0  0  0  0  0  0  0  0
  -31.7220  -21.9970   22.2820 C   0  0  0  0  0  1  0  0  0  0  0  0
  -31.2680  -22.0250   20.8150 C   0  0  0  0  0  3  0  0  0  0  0  0
  -32.4460  -22.2050   19.8300 C   0  0  0  0  0  2  0  0  0  0  0  0
  -34.4180  -23.5670   19.0030 C   0  0  0  0  0  1  0  0  0  0  0  0
  -32.1980  -24.7120   19.3260 C   0  0  0  0  0  1  0  0  0  0  0  0
  -33.1250  -23.5960   19.8350 C   0  0  0  0  0  3  0  0  0  0  0  0
  -29.0940  -18.8120   19.9700 C   0  0  0  0  0  2  0  0  0  0  0  0
  -29.6670  -17.1420   20.6470 C   0  0  0  0  0  2  0  0  0  0  0  0
  -30.2750  -15.4820   20.1500 C   0  0  0  0  0  0  0  0  0  0  0  0
  -30.2970  -12.9650   19.3160 C   0  0  0  0  0  2  0  0  0  0  0  0
  -29.3740  -12.6860   18.0980 C   0  0  0  0  0  2  0  0  0  0  0  0
  -27.9430  -12.3690   18.5590 C   0  0  0  0  0  2  0  0  0  0  0  0
  -27.4870  -13.3360   19.6770 C   0  0  0  0  0  3  0  0  0  0  0  0
  -28.5450  -13.5600   20.7830 C   0  0  0  0  0  2  0  0  0  0  0  0
  -29.7470  -14.1290   20.1420 N   0  0  0  0  0  0  0  0  0  0  0  0
  -31.4600  -15.4190   19.7740 O   0  0  0  0  0  0  0  0  0  0  0  0
  -25.1370  -13.8640   20.4890 C   0  0  0  0  0  0  0  0  0  0  0  0
  -24.0860  -13.0790   20.8730 C   0  0  0  0  0  0  0  0  0  0  0  0
  -24.5590  -11.7310   20.8240 C   0  0  0  0  0  0  0  0  0  0  0  0
  -26.1770  -12.9960   20.2150 N   0  0  0  0  0  0  0  0  0  0  0  0
  -25.8460  -11.7060   20.4850 N   0  0  0  0  0  0  0  0  0  0  0  0
  -23.8380  -10.4660   21.0220 C   0  0  0  0  0  0  0  0  0  0  0  0
  -24.2870   -9.4930   21.9430 C   0  0  0  0  0  3  0  0  0  0  0  0
  -23.5630   -8.2960   22.1310 C   0  0  0  0  0  3  0  0  0  0  0  0
  -22.3750   -8.0620   21.3980 C   0  0  0  0  0  0  0  0  0  0  0  0
  -21.9450   -9.0230   20.4660 C   0  0  0  0  0  3  0  0  0  0  0  0
  -22.6700  -10.2110   20.2760 C   0  0  0  0  0  3  0  0  0  0  0  0
  -21.6210   -6.9170   21.4950 O   0  0  0  0  0  0  0  0  0  0  0  0
  -21.5920   -6.1680   22.6440 C   0  0  0  0  0  0  0  0  0  0  0  0
  -21.1880   -6.7160   23.8800 C   0  0  0  0  0  3  0  0  0  0  0  0
  -21.1070   -5.8940   25.0220 C   0  0  0  0  0  3  0  0  0  0  0  0
  -21.4200   -4.5250   24.9270 C   0  0  0  0  0  0  0  0  0  0  0  0
  -21.8190   -3.9760   23.6950 C   0  0  0  0  0  3  0  0  0  0  0  0
  -21.9010   -4.7950   22.5570 C   0  0  0  0  0  0  0  0  0  0  0  0
  -22.2640   -4.2570   21.3670 F   0  0  0  0  0  0  0  0  0  0  0  0
  -21.3360   -3.7320   26.0230 F   0  0  0  0  0  0  0  0  0  0  0  0
  -22.6930  -13.5510   21.1700 C   0  0  0  0  0  0  0  0  0  0  0  0
  -21.9830  -12.8490   22.0450 N   0  0  0  0  0  0  0  0  0  0  0  0
  -22.2450  -14.5780   20.6630 O   0  0  0  0  0  0  0  0  0  0  0  0
  -22.3590  -12.0190   22.4780 H   0  0  0  0  0  0  0  0  0  0  0  0
  -21.0490  -13.1480   22.2850 H   0  0  0  0  0  0  0  0  0  0  0  0
  -25.2920  -15.2370   20.3180 N   0  0  0  0  0  0  0  0  0  0  0  0
  -24.5280  -15.8900   20.4570 H   0  0  0  0  0  0  0  0  0  0  0  0
  -26.1380  -15.6840   19.9880 H   0  0  0  0  0  0  0  0  0  0  0  0
  -28.3100  -22.1760   20.4810 C   0  0  0  0  0  2  0  0  0  0  0  0
  -28.2710  -23.9790   19.8810 C   0  0  0  0  0  2  0  0  0  0  0  0
  -28.1550  -25.6270   20.3740 O   0  0  0  0  0  0  0  0  0  0  0  0
  -24.6380  -31.8190   23.1790 C   0  0  0  0  0  0  0  0  0  0  0  0
  -27.1720  -26.7890   20.2250 C   0  0  0  0  0  0  0  0  0  0  0  0
  -23.4470  -30.4090   21.5510 C   0  0  0  0  0  3  0  0  0  0  0  0
  -24.8940  -28.7640   20.1440 C   0  0  0  0  0  0  0  0  0  0  0  0
  -26.0200  -30.5700   21.4270 C   0  0  0  0  0  2  0  0  0  0  0  0
  -26.0820  -29.1420   20.7800 C   0  0  0  0  0  0  0  0  0  0  0  0
  -27.2040  -28.1760   20.7970 C   0  0  0  0  0  3  0  0  0  0  0  0
  -25.9580  -26.5990   19.5210 C   0  0  0  0  0  3  0  0  0  0  0  0
  -24.8660  -27.5170   19.4930 C   0  0  0  0  0  3  0  0  0  0  0  0
  -23.6820  -29.7030   20.1840 C   0  0  0  0  0  2  0  0  0  0  0  0
  -24.7250  -30.9650   22.1040 N   0  0  0  0  0  0  0  0  0  0  0  0
  -23.5450  -32.1230   23.6900 O   0  0  0  0  0  0  0  0  0  0  0  0
  -22.7350  -29.4380   22.5290 C   0  0  0  0  0  0  0  0  0  0  0  0
  -21.4010  -29.2930   22.4110 N   0  0  0  0  0  0  0  0  0  0  0  0
  -23.3910  -28.8120   23.3640 O   0  0  0  0  0  0  0  0  0  0  0  0
  -20.9230  -29.8450   21.7130 H   0  0  0  0  0  0  0  0  0  0  0  0
  -18.0060  -28.1220   22.9480 C   0  0  0  0  0  0  0  0  0  0  0  0
  -20.5700  -28.3680   23.1920 C   0  0  0  0  0  3  0  0  0  0  0  0
  -20.6540  -26.9320   22.6230 C   0  0  0  0  0  2  0  0  0  0  0  0
  -19.5430  -26.6160   21.6170 C   0  0  0  0  0  2  0  0  0  0  0  0
  -18.1670  -26.7720   22.2690 C   0  0  0  0  0  2  0  0  0  0  0  0
  -19.1330  -28.8790   23.3660 C   0  0  0  0  0  0  0  0  0  0  0  0
  -18.9250  -30.1400   23.9660 C   0  0  0  0  0  3  0  0  0  0  0  0
  -17.6230  -30.6440   24.1480 C   0  0  0  0  0  3  0  0  0  0  0  0
  -16.5110  -29.8860   23.7440 C   0  0  0  0  0  3  0  0  0  0  0  0
  -16.7030  -28.6270   23.1480 C   0  0  0  0  0  3  0  0  0  0  0  0
  -25.9050  -32.4690   23.8140 C   0  0  0  0  0  3  0  0  0  0  0  0
  -25.5820  -33.8700   24.1480 N   0  0  0  0  0  0  0  0  0  0  0  0
  -25.9140  -34.9360   23.4080 C   0  0  0  0  0  0  0  0  0  0  0  0
  -26.5830  -34.8450   22.3770 O   0  0  0  0  0  0  0  0  0  0  0  0
  -24.9840  -34.0130   24.9490 H   0  0  0  0  0  0  0  0  0  0  0  0
  -24.1850  -36.7400   23.0890 C   0  0  0  0  0  1  0  0  0  0  0  0
  -25.4310  -36.3230   23.8850 C   0  0  0  0  0  3  0  0  0  0  0  0
  -27.5710  -37.2050   24.7110 C   0  0  0  0  0  1  0  0  0  0  0  0
  -26.4640  -37.3790   23.7750 N   0  0  0  0  0  0  0  0  0  0  0  0
  -26.0580  -38.2980   23.9300 H   0  0  0  0  0  0  0  0  0  0  0  0
  -26.4070  -31.7110   25.1060 C   0  0  1  0  0  0  0  0  0  0  0  0
  -25.3040  -31.4890   26.1680 C   0  0  0  0  0  1  0  0  0  0  0  0
  -26.9910  -30.3270   24.7450 C   0  0  0  0  0  1  0  0  0  0  0  0
  -27.5560  -32.5080   25.7670 C   0  0  0  0  0  1  0  0  0  0  0  0
  1 47  1  0
  1  2  2  0
  2  4  1  0
  4  3  1  0
  5  8  1  0
  5  4  1  0
  6  8  1  0
  7  8  1  0
  9  1  1  0
  9 10  1  0
 11 10  1  0
 12 17  1  0
 13 14  1  0
 13 12  1  0
 15 14  1  0
 15 22  1  0
 15 16  1  0
 17 11  1  0
 17 16  1  0
 18 11  2  0
 19 20  2  0
 20 39  1  0
 21 20  1  0
 21 24  1  0
 22 23  1  0
 22 19  1  0
 23 21  2  0
 24 25  1  0
 25 26  2  0
 27 30  1  0
 27 26  1  0
 28 27  2  0
 29 28  1  0
 29 24  2  0
 30 31  1  0
 31 32  1  0
 32 33  2  0
 34 33  1  0
 34 38  1  0
 35 34  2  0
 36 31  2  0
 36 35  1  0
 37 36  1  0
 39 40  1  0
 40 43  1  0
 40 42  1  0
 41 39  2  0
 44 45  1  0
 44 19  1  0
 46 44  1  0
 48 49  1  0
 48 47  1  0
 50 61  2  0
 51 49  1  0
 51 56  1  0
 52 60  1  0
 52 62  1  0
 53 59  1  0
 53 55  1  0
 54 60  1  0
 55 56  2  0
 55 54  1  0
 57 51  2  0
 58 57  1  0
 58 53  2  0
 59 52  1  0
 60 50  1  0
 62 64  2  0
 63 62  1  0
 65 63  1  0
 66 75  2  0
 66 71  1  0
 67 63  1  0
 67 71  1  0
 68 67  1  0
 69 70  1  0
 69 68  1  0
 70 66  1  0
 71 72  2  0
 72 73  1  0
 74 73  2  0
 75 74  1  0
 76 50  1  0
 76 77  1  0
 76 86  1  0
 77 80  1  0
 78 82  1  0
 78 77  1  0
 79 78  2  0
 82 81  1  0
 84 82  1  0
 84 85  1  0
 84 83  1  0
 86 89  1  1
 86 87  1  0
 88 86  1  0
M  ISO  4  10 100  11 100  48 101  49 101
M  END
>  <TORSDO>  (62) 
F 23

>  <SCORE>  (62) 
-14.809

>  <name>  (62) 
62

>  <ligand_id>  (62) 
62

>  <original_smiles>  (62) 
[H]c1c([H])c([H])c2c(c1[H])C([H])([H])C([H])([H])C([H])([H])C2([H])N([H])C(=O)C1([H])N(C(=O)C([H])(N([H])C(=O)C([H])(N([H])C([H])([H])[H])C([H])([H])[H])C(C([H])([H])[H])(C([H])([H])[H])C([H])([H])[H])C([H])([H])c2c([H])c(OC([H])([H])C([H])([H])C(=NC([H])(C([H])([H])[H])C([H])([H])C([H])(C([H])([H])[H])C([H])([H])[H])C([H])([H])C([H])([H])C(=O)N3C([H])([H])C([H])([H])C([H])([H])C([H])(n4nc(-c5c([H])c([H])c(Oc6c([H])c([H])c(F)c([H])c6F)c([H])c5[H])c(C(=O)N([H])[H])c4N([H])[H])C3([H])[H])c([H])c([H])c2C1([H])[H]

>  <smiles>  (62) 
[H]c1c([H])c([H])c2c(c1[H])C([H])([H])C([H])([H])C([H])([H])C2([H])N([H])C(=O)C1([H])N(C(=O)C([H])(N([H])C(=O)C([H])(N([H])C([H])([H])[H])C([H])([H])[H])C(C([H])([H])[H])(C([H])([H])[H])C([H])([H])[H])C([H])([H])c2c([H])c(OC([H])([H])C([H])([H])C(=NC([H])(C([H])([H])[H])C([H])([H])C([H])(C([H])([H])[H])C([H])([H])[H])C([H])([H])C([H])([H])C(=O)N3C([H])([H])C([H])([H])C([H])([H])C([H])(n4nc(-c5c([H])c([H])c(Oc6c([H])c([H])c(F)c([H])c6F)c([H])c5[H])c(C(=O)N([H])[H])c4N([H])[H])C3([H])[H])c([H])c([H])c2C1([H])[H]

$$$$
63:0:0
     RDKit          3D

 91100  0  0  1  0  0  0  0  0999 V2000
  -30.2890  -22.4210   17.9850 C   0  0  0  0  0  3  0  0  0  0  0  0
  -29.8980  -23.7790   18.0340 C   0  0  0  0  0  3  0  0  0  0  0  0
  -28.8310  -23.4480   20.2070 C   0  0  0  0  0  3  0  0  0  0  0  0
  -29.9320  -21.5820   19.0520 C   0  0  0  0  0  0  0  0  0  0  0  0
  -29.2360  -22.0770   20.1430 C   0  0  0  0  0  0  0  0  0  0  0  0
  -29.1640  -24.3210   19.1230 C   0  0  0  0  0  0  0  0  0  0  0  0
  -30.2070  -20.0960   19.1980 C   0  0  0  0  0  2  0  0  0  0  0  0
  -29.0160  -20.9310   21.1280 C   0  0  0  0  0  2  0  0  0  0  0  0
  -29.8820  -19.8040   20.6230 N   0  0  1  0  0  4  0  0  0  0  0  0
  -30.7530  -19.9280   21.1140 H   0  0  0  0  0  0  0  0  0  0  0  0
  -28.7010  -25.7980   18.9640 C   0  0  0  0  0  2  0  0  0  0  0  0
  -28.3830  -26.5980   20.1310 O   0  0  0  0  0  0  0  0  0  0  0  0
  -24.6080  -31.8720   23.2090 C   0  0  0  0  0  0  0  0  0  0  0  0
  -27.2330  -27.3840   20.1030 C   0  0  0  0  0  0  0  0  0  0  0  0
  -23.3980  -30.4740   21.5710 C   0  0  0  0  0  3  0  0  0  0  0  0
  -24.8440  -28.9340   20.1370 C   0  0  0  0  0  0  0  0  0  0  0  0
  -25.9300  -30.8130   21.3720 C   0  0  0  0  0  2  0  0  0  0  0  0
  -26.0090  -29.4400   20.7250 C   0  0  0  0  0  0  0  0  0  0  0  0
  -27.2040  -28.6700   20.7110 C   0  0  0  0  0  3  0  0  0  0  0  0
  -26.0340  -26.8980   19.5350 C   0  0  0  0  0  3  0  0  0  0  0  0
  -24.8520  -27.6620   19.5430 C   0  0  0  0  0  3  0  0  0  0  0  0
  -23.6040  -29.8010   20.1890 C   0  0  0  0  0  2  0  0  0  0  0  0
  -24.6640  -31.0690   22.1090 N   0  0  0  0  0  0  0  0  0  0  0  0
  -23.5260  -32.1460   23.7500 O   0  0  0  0  0  0  0  0  0  0  0  0
  -22.7440  -29.4520   22.5310 C   0  0  0  0  0  0  0  0  0  0  0  0
  -21.4160  -29.2800   22.4130 N   0  0  0  0  0  0  0  0  0  0  0  0
  -23.4270  -28.8190   23.3400 O   0  0  0  0  0  0  0  0  0  0  0  0
  -20.9250  -29.8420   21.7330 H   0  0  0  0  0  0  0  0  0  0  0  0
  -18.0370  -28.1070   22.9390 C   0  0  0  0  0  0  0  0  0  0  0  0
  -20.5980  -28.3450   23.1860 C   0  0  0  0  0  3  0  0  0  0  0  0
  -20.6850  -26.9160   22.6010 C   0  0  0  0  0  2  0  0  0  0  0  0
  -19.5700  -26.6070   21.5970 C   0  0  0  0  0  2  0  0  0  0  0  0
  -18.1960  -26.7610   22.2550 C   0  0  0  0  0  2  0  0  0  0  0  0
  -19.1650  -28.8590   23.3630 C   0  0  0  0  0  0  0  0  0  0  0  0
  -18.9610  -30.1200   23.9630 C   0  0  0  0  0  3  0  0  0  0  0  0
  -17.6620  -30.6310   24.1430 C   0  0  0  0  0  3  0  0  0  0  0  0
  -16.5480  -29.8770   23.7360 C   0  0  0  0  0  3  0  0  0  0  0  0
  -16.7370  -28.6170   23.1400 C   0  0  0  0  0  3  0  0  0  0  0  0
  -25.8940  -32.5020   23.8260 C   0  0  0  0  0  3  0  0  0  0  0  0
  -26.4210  -31.7250   25.0950 C   0  0  1  0  0  0  0  0  0  0  0  0
  -25.3350  -31.4770   26.1690 C   0  0  0  0  0  1  0  0  0  0  0  0
  -27.0060  -30.3520   24.6910 C   0  0  0  0  0  1  0  0  0  0  0  0
  -27.5750  -32.5170   25.7540 C   0  0  0  0  0  1  0  0  0  0  0  0
  -25.5850  -33.8980   24.1650 N   0  0  0  0  0  0  0  0  0  0  0  0
  -25.9070  -34.9550   23.4070 C   0  0  0  0  0  0  0  0  0  0  0  0
  -26.5680  -34.8580   22.3690 O   0  0  0  0  0  0  0  0  0  0  0  0
  -24.9980  -34.0470   24.9720 H   0  0  0  0  0  0  0  0  0  0  0  0
  -24.1730  -36.7450   23.0710 C   0  0  0  0  0  1  0  0  0  0  0  0
  -25.4190  -36.3400   23.8740 C   0  0  0  0  0  3  0  0  0  0  0  0
  -27.5580  -37.2240   24.6960 C   0  0  0  0  0  1  0  0  0  0  0  0
  -26.4490  -37.3950   23.7610 N   0  0  0  0  0  0  0  0  0  0  0  0
  -26.0410  -38.3140   23.9190 H   0  0  0  0  0  0  0  0  0  0  0  0
  -29.4000  -18.4090   20.9330 C   0  0  0  0  0  3  0  0  0  0  0  0
  -30.3710  -17.2220   20.5730 C   0  0  0  0  0  3  0  0  0  0  0  0
  -29.8970  -15.7990   21.0520 C   0  0  0  0  0  2  0  0  0  0  0  0
  -30.6460  -14.5620   20.4530 C   0  0  0  0  0  0  0  0  0  0  0  0
  -30.3860  -12.3850   19.2910 C   0  0  0  0  0  2  0  0  0  0  0  0
  -29.4400  -12.5850   18.0860 C   0  0  0  0  0  2  0  0  0  0  0  0
  -27.9650  -12.4410   18.5130 C   0  0  0  0  0  2  0  0  0  0  0  0
  -27.6270  -13.2720   19.7780 C   0  0  0  0  0  3  0  0  0  0  0  0
  -28.6830  -13.0490   20.8850 C   0  0  0  0  0  2  0  0  0  0  0  0
  -30.0040  -13.3640   20.3210 N   0  0  0  0  0  0  0  0  0  0  0  0
  -31.7800  -14.7330   19.9970 O   0  0  0  0  0  0  0  0  0  0  0  0
  -25.2310  -13.8920   20.4810 C   0  0  0  0  0  0  0  0  0  0  0  0
  -24.1590  -13.1270   20.8520 C   0  0  0  0  0  0  0  0  0  0  0  0
  -24.6170  -11.7730   20.8340 C   0  0  0  0  0  0  0  0  0  0  0  0
  -26.2730  -13.0050   20.2570 N   0  0  0  0  0  0  0  0  0  0  0  0
  -25.9080  -11.7270   20.5290 N   0  0  0  0  0  0  0  0  0  0  0  0
  -23.8870  -10.5140   21.0290 C   0  0  0  0  0  0  0  0  0  0  0  0
  -24.3120   -9.5510   21.9710 C   0  0  0  0  0  3  0  0  0  0  0  0
  -23.5820   -8.3570   22.1540 C   0  0  0  0  0  3  0  0  0  0  0  0
  -22.4130   -8.1180   21.3960 C   0  0  0  0  0  0  0  0  0  0  0  0
  -22.0060   -9.0690   20.4440 C   0  0  0  0  0  3  0  0  0  0  0  0
  -22.7360  -10.2550   20.2590 C   0  0  0  0  0  3  0  0  0  0  0  0
  -21.6550   -6.9750   21.4880 O   0  0  0  0  0  0  0  0  0  0  0  0
  -21.6000   -6.2400   22.6450 C   0  0  0  0  0  0  0  0  0  0  0  0
  -21.1680   -6.8030   23.8650 C   0  0  0  0  0  3  0  0  0  0  0  0
  -21.0610   -5.9950   25.0150 C   0  0  0  0  0  3  0  0  0  0  0  0
  -21.3750   -4.6240   24.9430 C   0  0  0  0  0  0  0  0  0  0  0  0
  -21.8000   -4.0600   23.7270 C   0  0  0  0  0  3  0  0  0  0  0  0
  -21.9090   -4.8670   22.5810 C   0  0  0  0  0  0  0  0  0  0  0  0
  -22.2990   -4.3150   21.4060 F   0  0  0  0  0  0  0  0  0  0  0  0
  -21.2640   -3.8440   26.0450 F   0  0  0  0  0  0  0  0  0  0  0  0
  -22.7620  -13.6100   21.1170 C   0  0  0  0  0  0  0  0  0  0  0  0
  -22.0290  -12.9200   21.9830 N   0  0  0  0  0  0  0  0  0  0  0  0
  -22.3300  -14.6340   20.5900 O   0  0  0  0  0  0  0  0  0  0  0  0
  -22.3900  -12.0890   22.4300 H   0  0  0  0  0  0  0  0  0  0  0  0
  -21.0920  -13.2270   22.2050 H   0  0  0  0  0  0  0  0  0  0  0  0
  -25.4010  -15.2610   20.2940 N   0  0  0  0  0  0  0  0  0  0  0  0
  -24.6340  -15.9180   20.3960 H   0  0  0  0  0  0  0  0  0  0  0  0
  -26.2490  -15.6940   19.9540 H   0  0  0  0  0  0  0  0  0  0  0  0
  1  2  2  0
  1  4  1  0
  2  6  1  0
  4  7  1  0
  4  5  2  0
  5  3  1  0
  5  8  1  0
  6  3  2  0
  7  9  1  0
  9 53  1  0
  9 10  1  1
  9  8  1  0
 11  6  1  0
 11 12  1  0
 13 24  2  0
 14 12  1  0
 14 19  1  0
 15 23  1  0
 15 25  1  0
 16 22  1  0
 16 18  1  0
 17 23  1  0
 18 17  1  0
 19 18  2  0
 20 21  1  0
 20 14  2  0
 21 16  2  0
 22 15  1  0
 23 13  1  0
 25 27  2  0
 26 25  1  0
 28 26  1  0
 29 38  2  0
 29 34  1  0
 30 26  1  0
 30 34  1  0
 31 30  1  0
 32 33  1  0
 32 31  1  0
 33 29  1  0
 34 35  2  0
 35 36  1  0
 37 36  2  0
 38 37  1  0
 39 13  1  0
 39 44  1  0
 39 40  1  0
 40 43  1  1
 40 41  1  0
 42 40  1  0
 44 47  1  0
 45 49  1  0
 45 44  1  0
 46 45  2  0
 49 48  1  0
 51 49  1  0
 51 52  1  0
 51 50  1  0
 54 53  2  0
 54 55  1  0
 56 55  1  0
 57 62  1  0
 58 59  1  0
 58 57  1  0
 60 59  1  0
 60 67  1  0
 60 61  1  0
 62 56  1  0
 62 61  1  0
 63 56  2  0
 64 65  2  0
 65 84  1  0
 66 65  1  0
 66 69  1  0
 67 64  1  0
 67 68  1  0
 68 66  2  0
 69 70  1  0
 70 71  2  0
 72 75  1  0
 72 71  1  0
 73 72  2  0
 74 73  1  0
 74 69  2  0
 75 76  1  0
 76 77  1  0
 77 78  2  0
 79 78  1  0
 79 83  1  0
 80 79  2  0
 81 76  2  0
 81 80  1  0
 82 81  1  0
 84 85  1  0
 85 88  1  0
 85 87  1  0
 86 84  2  0
 89 90  1  0
 89 64  1  0
 91 89  1  0
M  ISO  4  11 101  12 101  55 100  56 100
M  END
>  <TORSDO>  (63) 
F 20

>  <SCORE>  (63) 
-13.772

>  <name>  (63) 
63

>  <ligand_id>  (63) 
63

>  <original_smiles>  (63) 
[H]c1c([H])c([H])c2c(c1[H])C([H])([H])C([H])([H])C([H])([H])C2([H])N([H])C(=O)C1([H])N(C(=O)C([H])(N([H])C(=O)C([H])(N([H])C([H])([H])[H])C([H])([H])[H])C(C([H])([H])[H])(C([H])([H])[H])C([H])([H])[H])C([H])([H])c2c([H])c(OC([H])([H])c3c([H])c([H])c4c(c3[H])C([H])([H])[N+]([H])(C([H])([H])C([H])([H])C([H])([H])C(=O)N3C([H])([H])C([H])([H])C([H])([H])C([H])(n5nc(-c6c([H])c([H])c(Oc7c([H])c([H])c(F)c([H])c7F)c([H])c6[H])c(C(=O)N([H])[H])c5N([H])[H])C3([H])[H])C4([H])[H])c([H])c([H])c2C1([H])[H]

>  <smiles>  (63) 
[H]c1c([H])c([H])c2c(c1[H])C([H])([H])C([H])([H])C([H])([H])C2([H])N([H])C(=O)C1([H])N(C(=O)C([H])(N([H])C(=O)C([H])(N([H])C([H])([H])[H])C([H])([H])[H])C(C([H])([H])[H])(C([H])([H])[H])C([H])([H])[H])C([H])([H])c2c([H])c(OC([H])([H])c3c([H])c([H])c4c(c3[H])C([H])([H])[N+]([H])(C([H])([H])C([H])([H])C([H])([H])C(=O)N3C([H])([H])C([H])([H])C([H])([H])C([H])(n5nc(-c6c([H])c([H])c(Oc7c([H])c([H])c(F)c([H])c7F)c([H])c6[H])c(C(=O)N([H])[H])c5N([H])[H])C3([H])[H])C4([H])[H])c([H])c([H])c2C1([H])[H]

$$$$
64:0:0
     RDKit          3D

 94103  0  0  1  0  0  0  0  0999 V2000
  -32.3070  -17.5770   21.9650 C   0  0  0  0  0  2  0  0  0  0  0  0
  -32.1280  -16.7360   20.6950 C   0  0  0  0  0  2  0  0  0  0  0  0
  -31.1370  -19.7190   21.2250 C   0  0  0  0  0  2  0  0  0  0  0  0
  -29.8220  -17.7660   22.2990 C   0  0  0  0  0  2  0  0  0  0  0  0
  -30.4730  -18.0710   19.2530 C   0  0  0  0  0  2  0  0  0  0  0  0
  -31.1500  -18.5340   22.2080 C   0  0  0  0  0  3  0  0  0  0  0  0
  -30.2410  -19.5780   19.9750 C   0  0  0  0  0  3  0  0  0  0  0  0
  -30.6820  -16.6030   20.0750 C   0  0  2  0  0  0  0  0  0  0  0  0
  -29.6620  -16.5630   21.2990 C   0  0  1  0  0  0  0  0  0  0  0  0
  -29.8620  -15.2970   22.1920 C   0  0  0  0  0  1  0  0  0  0  0  0
  -28.2150  -16.6560   20.7690 C   0  0  0  0  0  1  0  0  0  0  0  0
  -30.8580  -15.1550   19.1980 C   0  0  0  0  0  0  0  0  0  0  0  0
  -30.5010  -12.8380   18.1900 C   0  0  0  0  0  2  0  0  0  0  0  0
  -29.3640  -12.8280   17.1390 C   0  0  0  0  0  2  0  0  0  0  0  0
  -28.0030  -12.5700   17.8070 C   0  0  0  0  0  2  0  0  0  0  0  0
  -27.8150  -13.4420   19.0710 C   0  0  0  0  0  3  0  0  0  0  0  0
  -29.0590  -13.3860   19.9850 C   0  0  0  0  0  2  0  0  0  0  0  0
  -30.2170  -13.8970   19.2220 N   0  0  0  0  0  0  0  0  0  0  0  0
  -31.7920  -15.1960   18.3890 O   0  0  0  0  0  0  0  0  0  0  0  0
  -25.6400  -13.9670   20.3260 C   0  0  0  0  0  0  0  0  0  0  0  0
  -24.6580  -13.1670   20.8390 C   0  0  0  0  0  0  0  0  0  0  0  0
  -25.0640  -11.8240   20.5720 C   0  0  0  0  0  0  0  0  0  0  0  0
  -26.5910  -13.1120   19.7940 N   0  0  0  0  0  0  0  0  0  0  0  0
  -26.2620  -11.8100   19.9980 N   0  0  0  0  0  0  0  0  0  0  0  0
  -24.3500  -10.5580   20.7740 C   0  0  0  0  0  0  0  0  0  0  0  0
  -24.8050   -9.5910   21.6980 C   0  0  0  0  0  3  0  0  0  0  0  0
  -24.0870   -8.3900   21.8880 C   0  0  0  0  0  3  0  0  0  0  0  0
  -22.9040   -8.1470   21.1520 C   0  0  0  0  0  0  0  0  0  0  0  0
  -22.4680   -9.1020   20.2150 C   0  0  0  0  0  3  0  0  0  0  0  0
  -23.1860  -10.2940   20.0250 C   0  0  0  0  0  3  0  0  0  0  0  0
  -22.1560   -6.9980   21.2510 O   0  0  0  0  0  0  0  0  0  0  0  0
  -21.8330   -6.4530   22.4680 C   0  0  0  0  0  0  0  0  0  0  0  0
  -21.1740   -7.2030   23.4680 C   0  0  0  0  0  3  0  0  0  0  0  0
  -20.7990   -6.5840   24.6780 C   0  0  0  0  0  3  0  0  0  0  0  0
  -21.0710   -5.2180   24.8850 C   0  0  0  0  0  0  0  0  0  0  0  0
  -21.7220   -4.4700   23.8890 C   0  0  0  0  0  3  0  0  0  0  0  0
  -22.0990   -5.0860   22.6820 C   0  0  0  0  0  0  0  0  0  0  0  0
  -22.7060   -4.3560   21.7160 F   0  0  0  0  0  0  0  0  0  0  0  0
  -20.7030   -4.6230   26.0430 F   0  0  0  0  0  0  0  0  0  0  0  0
  -23.3640  -13.6270   21.4470 C   0  0  0  0  0  0  0  0  0  0  0  0
  -22.8350  -12.8750   22.4050 N   0  0  0  0  0  0  0  0  0  0  0  0
  -22.8410  -14.6880   21.1070 O   0  0  0  0  0  0  0  0  0  0  0  0
  -23.2750  -12.0150   22.6970 H   0  0  0  0  0  0  0  0  0  0  0  0
  -21.9780  -13.1650   22.8540 H   0  0  0  0  0  0  0  0  0  0  0  0
  -25.7780  -15.3480   20.2410 N   0  0  0  0  0  0  0  0  0  0  0  0
  -25.0620  -15.9820   20.5770 H   0  0  0  0  0  0  0  0  0  0  0  0
  -26.5420  -15.8210   19.7780 H   0  0  0  0  0  0  0  0  0  0  0  0
  -30.3040  -20.9430   19.1810 N   0  0  0  0  0  4  0  0  0  0  0  0
  -30.0810  -20.7360   18.2200 H   0  0  0  0  0  0  0  0  0  0  0  0
  -31.2660  -21.2390   19.1830 H   0  0  0  0  0  0  0  0  0  0  0  0
  -29.4240  -22.1970   19.5740 C   0  0  0  0  0  2  0  0  0  0  0  0
  -29.3820  -23.6310   18.7130 C   0  0  0  0  0  3  0  0  0  0  0  0
  -28.3730  -24.9030   19.1020 C   0  0  0  0  0  3  0  0  0  0  0  0
  -28.3760  -26.3310   18.5160 O   0  0  0  0  0  0  0  0  0  0  0  0
  -24.7800  -30.8820   23.0310 C   0  0  0  0  0  0  0  0  0  0  0  0
  -27.3000  -27.2410   18.7770 C   0  0  0  0  0  0  0  0  0  0  0  0
  -23.5480  -30.0020   21.0840 C   0  0  0  0  0  3  0  0  0  0  0  0
  -24.9680  -28.8910   19.2580 C   0  0  0  0  0  0  0  0  0  0  0  0
  -26.0960  -30.3160   20.9610 C   0  0  0  0  0  2  0  0  0  0  0  0
  -26.1560  -29.1630   19.9490 C   0  0  0  0  0  0  0  0  0  0  0  0
  -27.3240  -28.3600   19.6950 C   0  0  0  0  0  3  0  0  0  0  0  0
  -26.0900  -27.0690   18.0720 C   0  0  0  0  0  3  0  0  0  0  0  0
  -24.9450  -27.8590   18.3080 C   0  0  0  0  0  3  0  0  0  0  0  0
  -23.7440  -29.7360   19.5680 C   0  0  0  0  0  2  0  0  0  0  0  0
  -24.8280  -30.4050   21.7510 N   0  0  0  0  0  0  0  0  0  0  0  0
  -23.7030  -31.0070   23.6360 O   0  0  0  0  0  0  0  0  0  0  0  0
  -22.8810  -28.7670   21.7350 C   0  0  0  0  0  0  0  0  0  0  0  0
  -21.5510  -28.6390   21.5860 N   0  0  0  0  0  0  0  0  0  0  0  0
  -23.5620  -27.9340   22.3390 O   0  0  0  0  0  0  0  0  0  0  0  0
  -21.0570  -29.3680   21.0900 H   0  0  0  0  0  0  0  0  0  0  0  0
  -18.1630  -27.3850   21.8410 C   0  0  0  0  0  0  0  0  0  0  0  0
  -20.7340  -27.5250   22.0760 C   0  0  0  0  0  3  0  0  0  0  0  0
  -20.7840  -26.3270   21.0990 C   0  0  0  0  0  2  0  0  0  0  0  0
  -19.6420  -26.3320   20.0780 C   0  0  0  0  0  2  0  0  0  0  0  0
  -18.2860  -26.2960   20.7890 C   0  0  0  0  0  2  0  0  0  0  0  0
  -19.3120  -27.9720   22.4340 C   0  0  0  0  0  0  0  0  0  0  0  0
  -19.1410  -29.0030   23.3830 C   0  0  0  0  0  3  0  0  0  0  0  0
  -17.8530  -29.4460   23.7420 C   0  0  0  0  0  3  0  0  0  0  0  0
  -16.7190  -28.8510   23.1620 C   0  0  0  0  0  3  0  0  0  0  0  0
  -16.8750  -27.8200   22.2170 C   0  0  0  0  0  3  0  0  0  0  0  0
  -26.0720  -31.3140   23.7900 C   0  0  0  0  0  3  0  0  0  0  0  0
  -26.4680  -30.3220   24.9530 C   0  0  1  0  0  0  0  0  0  0  0  0
  -25.2990  -29.9870   25.9100 C   0  0  0  0  0  1  0  0  0  0  0  0
  -27.0040  -28.9900   24.3800 C   0  0  0  0  0  1  0  0  0  0  0  0
  -27.6140  -30.9330   25.7940 C   0  0  0  0  0  1  0  0  0  0  0  0
  -25.8460  -32.6670   24.3240 N   0  0  0  0  0  0  0  0  0  0  0  0
  -26.3000  -33.7950   23.7610 C   0  0  0  0  0  0  0  0  0  0  0  0
  -27.0190  -33.7990   22.7590 O   0  0  0  0  0  0  0  0  0  0  0  0
  -25.2190  -32.7420   25.1110 H   0  0  0  0  0  0  0  0  0  0  0  0
  -24.7350  -35.7620   23.6260 C   0  0  0  0  0  1  0  0  0  0  0  0
  -25.8940  -35.1310   24.4160 C   0  0  0  0  0  3  0  0  0  0  0  0
  -28.0450  -35.6890   25.4620 C   0  0  0  0  0  1  0  0  0  0  0  0
  -27.0080  -36.0990   24.5190 N   0  0  0  0  0  0  0  0  0  0  0  0
  -26.6650  -37.0130   24.8010 H   0  0  0  0  0  0  0  0  0  0  0  0
  1  6  1  0
  2  1  1  0
  5  7  1  0
  5  8  1  0
  6  3  1  0
  6  4  1  0
  7 48  1  0
  7  3  1  0
  8 12  1  6
  8  2  1  0
  8  9  1  0
  9 10  1  1
  9  4  1  0
 11  9  1  0
 12 18  1  0
 13 18  1  0
 14 15  1  0
 14 13  1  0
 16 15  1  0
 16 23  1  0
 16 17  1  0
 18 17  1  0
 19 12  2  0
 20 21  2  0
 21 40  1  0
 22 25  1  0
 22 21  1  0
 23 24  1  0
 23 20  1  0
 24 22  2  0
 25 26  1  0
 26 27  2  0
 28 31  1  0
 28 27  1  0
 29 28  2  0
 30 29  1  0
 30 25  2  0
 31 32  1  0
 32 37  2  0
 32 33  1  0
 33 34  2  0
 34 35  1  0
 35 39  1  0
 36 35  2  0
 37 36  1  0
 38 37  1  0
 40 41  1  0
 41 43  1  0
 41 44  1  0
 42 40  2  0
 45 20  1  0
 45 46  1  0
 47 45  1  0
 48 50  1  0
 48 51  1  0
 49 48  1  0
 52 53  2  0
 52 51  1  0
 54 56  1  0
 54 53  1  0
 55 66  2  0
 56 61  1  0
 57 67  1  0
 57 65  1  0
 58 64  1  0
 58 60  1  0
 59 65  1  0
 60 59  1  0
 61 60  2  0
 62 63  1  0
 62 56  2  0
 63 58  2  0
 64 57  1  0
 65 55  1  0
 67 69  2  0
 68 67  1  0
 70 68  1  0
 71 80  2  0
 71 76  1  0
 72 68  1  0
 72 76  1  0
 73 72  1  0
 74 75  1  0
 74 73  1  0
 75 71  1  0
 76 77  2  0
 77 78  1  0
 79 78  2  0
 80 79  1  0
 81 55  1  0
 81 86  1  0
 81 82  1  0
 82 85  1  1
 82 83  1  0
 84 82  1  0
 86 89  1  0
 87 86  1  0
 87 91  1  0
 88 87  2  0
 91 90  1  0
 91 93  1  0
 93 94  1  0
 93 92  1  0
M  ISO  4   8 100  12 100  53 101  54 101
M  END
>  <TORSDO>  (64) 
F 20

>  <SCORE>  (64) 
-6.953

>  <name>  (64) 
64

>  <ligand_id>  (64) 
64

>  <original_smiles>  (64) 
[H]c1c([H])c([H])c2c(c1[H])C([H])([H])C([H])([H])C([H])([H])C2([H])N([H])C(=O)C1([H])N(C(=O)C([H])(N([H])C(=O)C([H])(N([H])C([H])([H])[H])C([H])([H])[H])C(C([H])([H])[H])(C([H])([H])[H])C([H])([H])[H])C([H])([H])c2c([H])c(OC([H])([H])C([H])([H])C([H])([H])[N+]([H])([H])C3([H])C([H])([H])C4([H])C([H])([H])C([H])([H])C(C(=O)N5C([H])([H])C([H])([H])C([H])([H])C([H])(n6nc(-c7c([H])c([H])c(Oc8c([H])c([H])c(F)c([H])c8F)c([H])c7[H])c(C(=O)N([H])[H])c6N([H])[H])C5([H])[H])(C3([H])[H])C(C([H])([H])[H])(C([H])([H])[H])C4([H])[H])c([H])c([H])c2C1([H])[H]

>  <smiles>  (64) 
[H]c1c([H])c([H])c2c(c1[H])C([H])([H])C([H])([H])C([H])([H])C2([H])N([H])C(=O)C1([H])N(C(=O)C([H])(N([H])C(=O)C([H])(N([H])C([H])([H])[H])C([H])([H])[H])C(C([H])([H])[H])(C([H])([H])[H])C([H])([H])[H])C([H])([H])c2c([H])c(OC([H])([H])C([H])([H])C([H])([H])[N+]([H])([H])C3([H])C([H])([H])C4([H])C([H])([H])C([H])([H])C(C(=O)N5C([H])([H])C([H])([H])C([H])([H])C([H])(n6nc(-c7c([H])c([H])c(Oc8c([H])c([H])c(F)c([H])c8F)c([H])c7[H])c(C(=O)N([H])[H])c6N([H])[H])C5([H])[H])(C3([H])[H])C(C([H])([H])[H])(C([H])([H])[H])C4([H])[H])c([H])c([H])c2C1([H])[H]

$$$$
65:0:0
     RDKit          3D

 91 99  0  0  1  0  0  0  0  0999 V2000
  -30.2680  -20.0970   21.0550 C   0  0  0  0  0  2  0  0  0  0  0  0
  -30.0040  -18.5030   21.1790 C   0  0  0  0  0  2  0  0  0  0  0  0
  -27.6380  -18.2580   17.7790 C   0  0  0  0  0  2  0  0  0  0  0  0
  -28.7390  -19.2070   18.2680 C   0  0  0  0  0  2  0  0  0  0  0  0
  -27.7130  -16.8960   18.4910 C   0  0  0  0  0  2  0  0  0  0  0  0
  -29.9840  -18.3830   18.6280 C   0  0  0  0  0  2  0  0  0  0  0  0
  -28.3060  -17.0190   19.9210 C   0  0  0  0  0  2  0  0  0  0  0  0
  -29.7970  -17.4880   19.9240 C   0  0  2  0  0  0  0  0  0  0  0  0
  -31.4170  -15.8990   18.4210 C   0  0  0  0  0  1  0  0  0  0  0  0
  -30.8350  -16.1980   19.8290 C   0  0  0  0  0  3  0  0  0  0  0  0
  -31.0190  -14.8120   20.6570 C   0  0  0  0  0  0  0  0  0  0  0  0
  -30.7470  -12.5230   19.7070 C   0  0  0  0  0  2  0  0  0  0  0  0
  -29.8700  -12.4890   18.4390 C   0  0  0  0  0  2  0  0  0  0  0  0
  -28.3680  -12.3900   18.7880 C   0  0  0  0  0  2  0  0  0  0  0  0
  -27.9380  -13.3210   19.9590 C   0  0  0  0  0  3  0  0  0  0  0  0
  -28.9620  -13.3440   21.1130 C   0  0  0  0  0  2  0  0  0  0  0  0
  -30.2670  -13.6640   20.5180 N   0  0  0  0  0  0  0  0  0  0  0  0
  -32.2190  -14.6450   20.8790 O   0  0  0  0  0  0  0  0  0  0  0  0
  -25.5290  -13.9220   20.6190 C   0  0  0  0  0  0  0  0  0  0  0  0
  -24.4450  -13.1620   20.9230 C   0  0  0  0  0  0  0  0  0  0  0  0
  -24.9010  -11.8090   20.9240 C   0  0  0  0  0  0  0  0  0  0  0  0
  -26.5800  -13.0420   20.4140 N   0  0  0  0  0  0  0  0  0  0  0  0
  -26.2070  -11.7620   20.6820 N   0  0  0  0  0  0  0  0  0  0  0  0
  -24.1490  -10.5600   21.0830 C   0  0  0  0  0  0  0  0  0  0  0  0
  -24.5340   -9.5900   22.0310 C   0  0  0  0  0  3  0  0  0  0  0  0
  -23.7840   -8.4050   22.1830 C   0  0  0  0  0  3  0  0  0  0  0  0
  -22.6350   -8.1880   21.3880 C   0  0  0  0  0  0  0  0  0  0  0  0
  -22.2700   -9.1480   20.4270 C   0  0  0  0  0  3  0  0  0  0  0  0
  -23.0210  -10.3230   20.2720 C   0  0  0  0  0  3  0  0  0  0  0  0
  -21.8670   -7.0510   21.4420 O   0  0  0  0  0  0  0  0  0  0  0  0
  -21.7790   -6.2990   22.5860 C   0  0  0  0  0  0  0  0  0  0  0  0
  -21.3370   -6.8530   23.8080 C   0  0  0  0  0  3  0  0  0  0  0  0
  -21.1930   -6.0310   24.9430 C   0  0  0  0  0  3  0  0  0  0  0  0
  -21.4820   -4.6560   24.8600 C   0  0  0  0  0  0  0  0  0  0  0  0
  -21.9170   -4.1020   23.6430 C   0  0  0  0  0  3  0  0  0  0  0  0
  -22.0610   -4.9200   22.5100 C   0  0  0  0  0  0  0  0  0  0  0  0
  -22.4570   -4.3780   21.3330 F   0  0  0  0  0  0  0  0  0  0  0  0
  -21.3400   -3.8620   25.9470 F   0  0  0  0  0  0  0  0  0  0  0  0
  -23.0410  -13.6590   21.1100 C   0  0  0  0  0  0  0  0  0  0  0  0
  -22.2600  -12.9960   21.9510 N   0  0  0  0  0  0  0  0  0  0  0  0
  -22.6420  -14.6800   20.5450 O   0  0  0  0  0  0  0  0  0  0  0  0
  -22.5940  -12.1810   22.4430 H   0  0  0  0  0  0  0  0  0  0  0  0
  -21.3150  -13.3150   22.1160 H   0  0  0  0  0  0  0  0  0  0  0  0
  -25.6780  -15.2940   20.4770 N   0  0  0  0  0  0  0  0  0  0  0  0
  -24.8690  -15.9060   20.4590 H   0  0  0  0  0  0  0  0  0  0  0  0
  -26.5260  -15.7470   20.1640 H   0  0  0  0  0  0  0  0  0  0  0  0
  -29.1600  -21.2160   21.3320 C   0  0  0  0  0  2  0  0  0  0  0  0
  -29.0880  -22.4700   20.3470 C   0  0  0  0  0  2  0  0  0  0  0  0
  -28.9060  -23.9550   20.9130 C   0  0  0  0  0  3  0  0  0  0  0  0
  -28.3980  -25.0770   19.8990 C   0  0  0  0  0  3  0  0  0  0  0  0
  -28.3710  -26.5040   20.3160 O   0  0  0  0  0  0  0  0  0  0  0  0
  -24.5940  -31.8960   23.2440 C   0  0  0  0  0  0  0  0  0  0  0  0
  -27.2270  -27.3230   20.2260 C   0  0  0  0  0  0  0  0  0  0  0  0
  -23.3960  -30.4970   21.5970 C   0  0  0  0  0  3  0  0  0  0  0  0
  -24.8530  -28.9390   20.1890 C   0  0  0  0  0  0  0  0  0  0  0  0
  -25.9350  -30.8100   21.4280 C   0  0  0  0  0  2  0  0  0  0  0  0
  -26.0150  -29.4270   20.7940 C   0  0  0  0  0  0  0  0  0  0  0  0
  -27.2000  -28.6290   20.8090 C   0  0  0  0  0  3  0  0  0  0  0  0
  -26.0390  -26.9000   19.5800 C   0  0  0  0  0  3  0  0  0  0  0  0
  -24.8700  -27.6830   19.5700 C   0  0  0  0  0  3  0  0  0  0  0  0
  -23.6180  -29.8110   20.2210 C   0  0  0  0  0  2  0  0  0  0  0  0
  -24.6610  -31.0870   22.1460 N   0  0  0  0  0  0  0  0  0  0  0  0
  -23.5100  -32.1780   23.7700 O   0  0  0  0  0  0  0  0  0  0  0  0
  -22.7230  -29.4880   22.5600 C   0  0  0  0  0  0  0  0  0  0  0  0
  -21.3970  -29.3090   22.4210 N   0  0  0  0  0  0  0  0  0  0  0  0
  -23.3920  -28.8650   23.3920 O   0  0  0  0  0  0  0  0  0  0  0  0
  -20.9120  -29.8590   21.7240 H   0  0  0  0  0  0  0  0  0  0  0  0
  -18.0280  -28.0730   22.8960 C   0  0  0  0  0  0  0  0  0  0  0  0
  -20.5810  -28.3670   23.1900 C   0  0  0  0  0  3  0  0  0  0  0  0
  -20.7130  -26.9350   22.6290 C   0  0  0  0  0  2  0  0  0  0  0  0
  -19.6170  -26.5660   21.6250 C   0  0  0  0  0  2  0  0  0  0  0  0
  -18.2250  -26.7150   22.2500 C   0  0  0  0  0  2  0  0  0  0  0  0
  -19.1320  -28.8510   23.3350 C   0  0  0  0  0  0  0  0  0  0  0  0
  -18.8880  -30.1120   23.9240 C   0  0  0  0  0  3  0  0  0  0  0  0
  -17.5750  -30.5870   24.0930 C   0  0  0  0  0  3  0  0  0  0  0  0
  -16.4870  -29.8060   23.6640 C   0  0  0  0  0  3  0  0  0  0  0  0
  -16.7130  -28.5510   23.0710 C   0  0  0  0  0  3  0  0  0  0  0  0
  -25.8750  -32.5310   23.8670 C   0  0  0  0  0  3  0  0  0  0  0  0
  -25.5660  -33.9320   24.1900 N   0  0  0  0  0  0  0  0  0  0  0  0
  -25.8980  -34.9810   23.4300 C   0  0  0  0  0  0  0  0  0  0  0  0
  -26.5720  -34.8710   22.4020 O   0  0  0  0  0  0  0  0  0  0  0  0
  -24.9720  -34.0870   24.9900 H   0  0  0  0  0  0  0  0  0  0  0  0
  -24.1780  -36.7780   23.0590 C   0  0  0  0  0  1  0  0  0  0  0  0
  -25.4100  -36.3700   23.8800 C   0  0  0  0  0  3  0  0  0  0  0  0
  -27.5420  -37.2540   24.7240 C   0  0  0  0  0  1  0  0  0  0  0  0
  -26.4460  -37.4200   23.7720 N   0  0  0  0  0  0  0  0  0  0  0  0
  -26.0400  -38.3410   23.9120 H   0  0  0  0  0  0  0  0  0  0  0  0
  -26.3860  -31.7650   25.1490 C   0  0  1  0  0  0  0  0  0  0  0  0
  -25.2900  -31.5390   26.2170 C   0  0  0  0  0  1  0  0  0  0  0  0
  -26.9700  -30.3830   24.7650 C   0  0  0  0  0  1  0  0  0  0  0  0
  -27.5340  -32.5640   25.8120 C   0  0  0  0  0  1  0  0  0  0  0  0
  1  2  1  0
  1 47  1  0
  3  4  1  0
  3  5  1  0
  4  6  1  0
  5  7  1  0
  6  8  1  0
  7  8  1  0
  8  2  1  1
 10  9  1  0
 10  8  1  0
 10 11  1  0
 11 18  2  0
 12 17  1  0
 13 14  1  0
 13 12  1  0
 15 14  1  0
 15 22  1  0
 15 16  1  0
 17 11  1  0
 17 16  1  0
 19 20  2  0
 20 21  1  0
 20 39  1  0
 21 24  1  0
 22 19  1  0
 22 23  1  0
 23 21  2  0
 24 25  1  0
 25 26  2  0
 27 30  1  0
 27 26  1  0
 28 27  2  0
 29 28  1  0
 29 24  2  0
 30 31  1  0
 31 32  1  0
 32 33  2  0
 34 33  1  0
 34 38  1  0
 35 34  2  0
 36 31  2  0
 36 35  1  0
 37 36  1  0
 39 40  1  0
 40 43  1  0
 40 42  1  0
 41 39  2  0
 44 19  1  0
 45 44  1  0
 46 44  1  0
 48 49  1  0
 48 47  1  0
 50 51  1  0
 50 49  2  0
 52 63  2  0
 53 51  1  0
 53 58  1  0
 54 62  1  0
 54 64  1  0
 55 61  1  0
 55 57  1  0
 56 62  1  0
 57 58  2  0
 57 56  1  0
 59 53  2  0
 60 59  1  0
 60 55  2  0
 61 54  1  0
 62 52  1  0
 64 66  2  0
 65 64  1  0
 67 65  1  0
 68 77  2  0
 68 73  1  0
 69 65  1  0
 69 73  1  0
 70 69  1  0
 71 72  1  0
 71 70  1  0
 72 68  1  0
 73 74  2  0
 74 75  1  0
 76 75  2  0
 77 76  1  0
 78 52  1  0
 78 79  1  0
 78 88  1  0
 79 82  1  0
 80 84  1  0
 80 79  1  0
 81 80  2  0
 84 83  1  0
 86 84  1  0
 86 87  1  0
 86 85  1  0
 88 91  1  1
 88 89  1  0
 90 88  1  0
M  ISO  4  10 100  11 100  50 101  51 101
M  END
>  <TORSDO>  (65) 
F 23

>  <SCORE>  (65) 
-12.596

>  <name>  (65) 
65

>  <ligand_id>  (65) 
65

>  <original_smiles>  (65) 
[H]c1c([H])c([H])c2c(c1[H])C([H])([H])C([H])([H])C([H])([H])C2([H])N([H])C(=O)C1([H])N(C(=O)C([H])(N([H])C(=O)C([H])(N([H])C([H])([H])[H])C([H])([H])[H])C(C([H])([H])[H])(C([H])([H])[H])C([H])([H])[H])C([H])([H])c2c([H])c(OC([H])([H])C([H])([H])C([H])([H])C([H])([H])C([H])([H])C([H])([H])C3(C([H])(C(=O)N4C([H])([H])C([H])([H])C([H])([H])C([H])(n5nc(-c6c([H])c([H])c(Oc7c([H])c([H])c(F)c([H])c7F)c([H])c6[H])c(C(=O)N([H])[H])c5N([H])[H])C4([H])[H])C([H])([H])[H])C([H])([H])C([H])([H])C([H])([H])C([H])([H])C3([H])[H])c([H])c([H])c2C1([H])[H]

>  <smiles>  (65) 
[H]c1c([H])c([H])c2c(c1[H])C([H])([H])C([H])([H])C([H])([H])C2([H])N([H])C(=O)C1([H])N(C(=O)C([H])(N([H])C(=O)C([H])(N([H])C([H])([H])[H])C([H])([H])[H])C(C([H])([H])[H])(C([H])([H])[H])C([H])([H])[H])C([H])([H])c2c([H])c(OC([H])([H])C([H])([H])C([H])([H])C([H])([H])C([H])([H])C([H])([H])C3(C([H])(C(=O)N4C([H])([H])C([H])([H])C([H])([H])C([H])(n5nc(-c6c([H])c([H])c(Oc7c([H])c([H])c(F)c([H])c7F)c([H])c6[H])c(C(=O)N([H])[H])c5N([H])[H])C4([H])[H])C([H])([H])[H])C([H])([H])C([H])([H])C([H])([H])C([H])([H])C3([H])[H])c([H])c([H])c2C1([H])[H]

$$$$
66:0:0
     RDKit          3D

103111  0  0  1  0  0  0  0  0999 V2000
  -30.9690  -22.0380   19.5050 C   0  0  0  0  0  3  0  0  0  0  0  0
  -29.9760  -18.9500   21.4450 C   0  0  0  0  0  3  0  0  0  0  0  0
  -30.5820  -19.5340   20.2930 C   0  0  0  0  0  3  0  0  0  0  0  0
  -29.6020  -19.9680   22.2780 C   0  0  0  0  0  3  0  0  0  0  0  0
  -30.5440  -20.9000   20.4190 C   0  0  0  0  0  0  0  0  0  0  0  0
  -29.9560  -21.1440   21.6500 N   0  0  0  0  0  0  0  0  0  0  0  0
  -29.7840  -22.0650   22.0440 H   0  0  0  0  0  0  0  0  0  0  0  0
  -32.3060  -24.0070   20.3470 C   0  0  0  0  0  1  0  0  0  0  0  0
  -32.3310  -22.6230   19.7890 N   0  0  2  0  0  4  0  0  0  0  0  0
  -32.6650  -22.0640   20.5580 H   0  0  0  0  0  0  0  0  0  0  0  0
  -32.8980  -22.1410   17.2870 C   0  0  0  0  0  1  0  0  0  0  0  0
  -33.3910  -22.4860   18.7190 C   0  0  0  0  0  3  0  0  0  0  0  0
  -34.4400  -21.4280   19.1620 C   0  0  0  0  0  2  0  0  0  0  0  0
  -35.2350  -21.2770   16.7220 C   0  0  0  0  0  1  0  0  0  0  0  0
  -35.0560  -20.5310   18.0610 C   0  0  0  0  0  3  0  0  0  0  0  0
  -36.3880  -19.9030   18.5540 C   0  0  0  0  0  2  0  0  0  0  0  0
  -36.8170  -18.6340   17.7900 C   0  0  0  0  0  0  0  0  0  0  0  0
  -37.0410  -16.1810   17.8250 C   0  0  0  0  0  2  0  0  0  0  0  0
  -36.2870  -15.4250   16.7230 C   0  0  0  0  0  2  0  0  0  0  0  0
  -34.8410  -15.1430   17.1630 C   0  0  0  0  0  2  0  0  0  0  0  0
  -34.1270  -16.4190   17.6770 C   0  0  0  0  0  3  0  0  0  0  0  0
  -34.9920  -17.1590   18.7220 C   0  0  0  0  0  2  0  0  0  0  0  0
  -36.3220  -17.4220   18.1420 N   0  0  0  0  0  0  0  0  0  0  0  0
  -37.7340  -18.7580   16.9710 O   0  0  0  0  0  0  0  0  0  0  0  0
  -31.7320  -16.9570   18.4680 C   0  0  0  0  0  0  0  0  0  0  0  0
  -30.7040  -16.1490   18.8810 C   0  0  0  0  0  0  0  0  0  0  0  0
  -31.2120  -14.8150   18.8410 C   0  0  0  0  0  0  0  0  0  0  0  0
  -32.7990  -16.1090   18.2070 N   0  0  0  0  0  0  0  0  0  0  0  0
  -32.4910  -14.8180   18.4900 N   0  0  0  0  0  0  0  0  0  0  0  0
  -30.5390  -13.5280   19.0600 C   0  0  0  0  0  0  0  0  0  0  0  0
  -30.6420  -12.8410   20.2910 C   0  0  0  0  0  3  0  0  0  0  0  0
  -29.9710  -11.6150   20.4850 C   0  0  0  0  0  3  0  0  0  0  0  0
  -29.1840  -11.0640   19.4450 C   0  0  0  0  0  0  0  0  0  0  0  0
  -29.1070  -11.7390   18.2140 C   0  0  0  0  0  3  0  0  0  0  0  0
  -29.7790  -12.9570   18.0210 C   0  0  0  0  0  3  0  0  0  0  0  0
  -28.5170   -9.8660   19.5330 O   0  0  0  0  0  0  0  0  0  0  0  0
  -27.5780   -9.6370   20.5070 C   0  0  0  0  0  0  0  0  0  0  0  0
  -26.3960  -10.4030   20.5990 C   0  0  0  0  0  3  0  0  0  0  0  0
  -25.4280  -10.0870   21.5730 C   0  0  0  0  0  3  0  0  0  0  0  0
  -25.6350   -9.0030   22.4480 C   0  0  0  0  0  0  0  0  0  0  0  0
  -26.8090   -8.2350   22.3530 C   0  0  0  0  0  3  0  0  0  0  0  0
  -27.7760   -8.5500   21.3830 C   0  0  0  0  0  0  0  0  0  0  0  0
  -28.8980   -7.7950   21.2810 F   0  0  0  0  0  0  0  0  0  0  0  0
  -24.7010   -8.6940   23.3780 F   0  0  0  0  0  0  0  0  0  0  0  0
  -29.3000  -16.5750   19.1960 C   0  0  0  0  0  0  0  0  0  0  0  0
  -28.6550  -15.9020   20.1450 N   0  0  0  0  0  0  0  0  0  0  0  0
  -28.7820  -17.5410   18.6370 O   0  0  0  0  0  0  0  0  0  0  0  0
  -29.0880  -15.1220   20.6180 H   0  0  0  0  0  0  0  0  0  0  0  0
  -27.7140  -16.1680   20.3990 H   0  0  0  0  0  0  0  0  0  0  0  0
  -31.8490  -18.3290   18.2750 N   0  0  0  0  0  0  0  0  0  0  0  0
  -31.0660  -18.9630   18.3890 H   0  0  0  0  0  0  0  0  0  0  0  0
  -32.6680  -18.7790   17.8860 H   0  0  0  0  0  0  0  0  0  0  0  0
  -30.8550  -21.6150   18.0050 C   0  0  0  0  0  2  0  0  0  0  0  0
  -31.0260  -22.7330   16.9740 C   0  0  0  0  0  0  0  0  0  0  0  0
  -30.8230  -23.9870   17.3880 N   0  0  0  0  0  0  0  0  0  0  0  0
  -31.3070  -22.4600   15.8070 O   0  0  0  0  0  0  0  0  0  0  0  0
  -30.5830  -24.1410   18.3570 H   0  0  0  0  0  0  0  0  0  0  0  0
  -30.7510  -25.1640   16.5350 C   0  0  0  0  0  2  0  0  0  0  0  0
  -28.4740  -25.8310   17.4060 C   0  0  0  0  0  1  0  0  0  0  0  0
  -29.9480  -26.2760   17.2390 C   0  0  0  0  0  3  0  0  0  0  0  0
  -30.5910  -26.7220   18.5900 C   0  0  0  0  0  2  0  0  0  0  0  0
  -30.7080  -28.2550   18.8060 C   0  0  0  0  0  2  0  0  0  0  0  0
  -30.2530  -28.6720   20.1020 O   0  0  0  0  0  0  0  0  0  0  0  0
  -25.2970  -27.2320   25.0110 C   0  0  0  0  0  0  0  0  0  0  0  0
  -28.9020  -28.6220   20.3900 C   0  0  0  0  0  0  0  0  0  0  0  0
  -24.4650  -27.5650   22.7070 C   0  0  0  0  0  3  0  0  0  0  0  0
  -26.1500  -28.5120   21.0480 C   0  0  0  0  0  0  0  0  0  0  0  0
  -26.6280  -28.6830   23.4900 C   0  0  0  0  0  2  0  0  0  0  0  0
  -27.1120  -28.6140   22.0610 C   0  0  0  0  0  0  0  0  0  0  0  0
  -28.4860  -28.6530   21.7390 C   0  0  0  0  0  3  0  0  0  0  0  0
  -27.9110  -28.5620   19.3870 C   0  0  0  0  0  3  0  0  0  0  0  0
  -26.5460  -28.4780   19.7040 C   0  0  0  0  0  3  0  0  0  0  0  0
  -24.6990  -28.4680   21.4670 C   0  0  0  0  0  2  0  0  0  0  0  0
  -25.4830  -27.7910   23.7820 N   0  0  0  0  0  0  0  0  0  0  0  0
  -24.2830  -26.5710   25.2680 O   0  0  0  0  0  0  0  0  0  0  0  0
  -24.3880  -26.0940   22.2400 C   0  0  0  0  0  0  0  0  0  0  0  0
  -23.4440  -25.8060   21.3300 N   0  0  0  0  0  0  0  0  0  0  0  0
  -25.1810  -25.2530   22.6700 O   0  0  0  0  0  0  0  0  0  0  0  0
  -22.8220  -26.5480   21.0390 H   0  0  0  0  0  0  0  0  0  0  0  0
  -21.5960  -24.0830   18.7460 C   0  0  0  0  0  0  0  0  0  0  0  0
  -23.2130  -24.4970   20.7210 C   0  0  0  0  0  3  0  0  0  0  0  0
  -24.3470  -24.1300   19.7370 C   0  0  0  0  0  2  0  0  0  0  0  0
  -24.0450  -24.5320   18.2910 C   0  0  0  0  0  2  0  0  0  0  0  0
  -22.7650  -23.8510   17.8010 C   0  0  0  0  0  2  0  0  0  0  0  0
  -21.8090  -24.4020   20.1140 C   0  0  0  0  0  0  0  0  0  0  0  0
  -20.6930  -24.6420   20.9450 C   0  0  0  0  0  3  0  0  0  0  0  0
  -19.3850  -24.5730   20.4300 C   0  0  0  0  0  3  0  0  0  0  0  0
  -19.1800  -24.2480   19.0790 C   0  0  0  0  0  3  0  0  0  0  0  0
  -20.2840  -23.9980   18.2400 C   0  0  0  0  0  3  0  0  0  0  0  0
  -26.3380  -27.4170   26.1600 C   0  0  0  0  0  3  0  0  0  0  0  0
  -25.6570  -28.1050   27.2660 N   0  0  0  0  0  0  0  0  0  0  0  0
  -25.8370  -29.3950   27.5810 C   0  0  0  0  0  0  0  0  0  0  0  0
  -26.6580  -30.1180   27.0080 O   0  0  0  0  0  0  0  0  0  0  0  0
  -24.9290  -27.5920   27.7400 H   0  0  0  0  0  0  0  0  0  0  0  0
  -23.8420  -30.8360   28.1030 C   0  0  0  0  0  1  0  0  0  0  0  0
  -24.9650  -29.9780   28.7080 C   0  0  0  0  0  3  0  0  0  0  0  0
  -26.6180  -29.9650   30.5230 C   0  0  0  0  0  1  0  0  0  0  0  0
  -25.7290  -30.7750   29.6930 N   0  0  0  0  0  0  0  0  0  0  0  0
  -25.1010  -31.2880   30.3070 H   0  0  0  0  0  0  0  0  0  0  0  0
  -26.9740  -26.0590   26.6510 C   0  0  1  0  0  0  0  0  0  0  0  0
  -25.9270  -24.9700   26.9800 C   0  0  0  0  0  1  0  0  0  0  0  0
  -27.9330  -25.4830   25.5800 C   0  0  0  0  0  1  0  0  0  0  0  0
  -27.8300  -26.3090   27.9170 C   0  0  0  0  0  1  0  0  0  0  0  0
  1 53  1  0
  1  9  1  0
  1  5  1  0
  2  4  2  0
  3  5  2  0
  3  2  1  0
  5  6  1  0
  6  7  1  0
  6  4  1  0
  9  8  1  0
  9 10  1  1
 12 11  1  0
 12 13  1  0
 12  9  1  0
 15 14  1  0
 15 16  1  0
 15 13  1  0
 17 23  1  0
 17 16  1  0
 18 23  1  0
 19 20  1  0
 19 18  1  0
 21 20  1  0
 21 28  1  0
 21 22  1  0
 23 22  1  0
 24 17  2  0
 25 26  2  0
 26 45  1  0
 27 26  1  0
 27 30  1  0
 28 25  1  0
 28 29  1  0
 29 27  2  0
 30 31  1  0
 31 32  2  0
 33 36  1  0
 33 32  1  0
 34 33  2  0
 35 34  1  0
 35 30  2  0
 36 37  1  0
 37 38  2  0
 37 42  1  0
 38 39  1  0
 39 40  2  0
 40 44  1  0
 41 40  1  0
 42 41  2  0
 43 42  1  0
 45 46  1  0
 46 49  1  0
 46 48  1  0
 47 45  2  0
 50 51  1  0
 50 25  1  0
 52 50  1  0
 54 55  1  0
 54 53  1  0
 55 57  1  0
 56 54  2  0
 58 60  1  0
 58 55  1  0
 60 59  1  0
 60 61  1  0
 61 62  1  0
 62 63  1  0
 63 65  1  0
 64 75  2  0
 65 70  1  0
 66 76  1  0
 66 74  1  0
 67 73  1  0
 67 69  1  0
 68 74  1  0
 69 68  1  0
 70 69  2  0
 71 72  1  0
 71 65  2  0
 72 67  2  0
 73 66  1  0
 74 64  1  0
 76 78  2  0
 77 76  1  0
 79 77  1  0
 80 85  1  0
 81 77  1  0
 82 81  1  0
 83 82  1  0
 84 83  1  0
 84 80  1  0
 85 81  1  0
 85 86  2  0
 87 86  1  0
 88 87  2  0
 89 80  2  0
 89 88  1  0
 90 64  1  0
 90100  1  0
 90 91  1  0
 91 92  1  0
 91 94  1  0
 92 96  1  0
 93 92  2  0
 96 95  1  0
 96 98  1  0
 98 99  1  0
 98 97  1  0
100101  1  1
100103  1  0
102100  1  0
M  ISO  4  16 100  17 100  62 101  63 101
M  END
>  <TORSDO>  (66) 
F 28

>  <SCORE>  (66) 
0.434

>  <name>  (66) 
66

>  <ligand_id>  (66) 
66

>  <original_smiles>  (66) 
[H]c1c([H])c([H])c2c(c1[H])C([H])([H])C([H])([H])C([H])([H])C2([H])N([H])C(=O)C1([H])N(C(=O)C([H])(N([H])C(=O)C([H])(N([H])C([H])([H])[H])C([H])([H])[H])C(C([H])([H])[H])(C([H])([H])[H])C([H])([H])[H])C([H])([H])c2c([H])c(OC([H])([H])C([H])([H])C([H])(C([H])([H])[H])C([H])([H])N([H])C(=O)C([H])([H])C([H])(c3c([H])c([H])c([H])n3[H])[N+]([H])(C([H])([H])[H])C([H])(C([H])([H])[H])C([H])([H])C([H])(C([H])([H])[H])C([H])([H])C(=O)N3C([H])([H])C([H])([H])C([H])([H])C([H])(n4nc(-c5c([H])c([H])c(Oc6c([H])c([H])c(F)c([H])c6F)c([H])c5[H])c(C(=O)N([H])[H])c4N([H])[H])C3([H])[H])c([H])c([H])c2C1([H])[H]

>  <smiles>  (66) 
[H]c1c([H])c([H])c2c(c1[H])C([H])([H])C([H])([H])C([H])([H])C2([H])N([H])C(=O)C1([H])N(C(=O)C([H])(N([H])C(=O)C([H])(N([H])C([H])([H])[H])C([H])([H])[H])C(C([H])([H])[H])(C([H])([H])[H])C([H])([H])[H])C([H])([H])c2c([H])c(OC([H])([H])C([H])([H])C([H])(C([H])([H])[H])C([H])([H])N([H])C(=O)C([H])([H])C([H])(c3c([H])c([H])c([H])n3[H])[N+]([H])(C([H])([H])[H])C([H])(C([H])([H])[H])C([H])([H])C([H])(C([H])([H])[H])C([H])([H])C(=O)N3C([H])([H])C([H])([H])C([H])([H])C([H])(n4nc(-c5c([H])c([H])c(Oc6c([H])c([H])c(F)c([H])c6F)c([H])c5[H])c(C(=O)N([H])[H])c4N([H])[H])C3([H])[H])c([H])c([H])c2C1([H])[H]

$$$$
67:0:0
     RDKit          3D

 98106  0  0  1  0  0  0  0  0999 V2000
  -27.7000  -20.8700   21.0820 C   0  0  0  0  0  1  0  0  0  0  0  0
  -29.0590  -21.3050   20.4970 C   0  0  0  0  0  3  0  0  0  0  0  0
  -30.0510  -18.7540   21.0710 C   0  0  0  0  0  3  0  0  0  0  0  0
  -30.4170  -17.5050   20.1790 C   0  0  0  0  0  3  0  0  0  0  0  0
  -30.0030  -20.0220   20.1050 C   0  0  0  0  0  3  0  0  0  0  0  0
  -29.6330  -17.9030   18.9050 C   0  0  0  0  0  3  0  0  0  0  0  0
  -30.9850  -18.9270   22.2800 C   0  0  0  0  0  1  0  0  0  0  0  0
  -28.1420  -17.5050   18.9510 C   0  0  0  0  0  1  0  0  0  0  0  0
  -29.7550  -19.3950   18.7710 N   0  0  2  0  0  4  0  0  0  0  0  0
  -28.8480  -19.7380   18.4960 H   0  0  0  0  0  0  0  0  0  0  0  0
  -30.1600  -19.6090   16.2930 C   0  0  0  0  0  1  0  0  0  0  0  0
  -32.1380  -19.2990   17.8380 C   0  0  0  0  0  1  0  0  0  0  0  0
  -30.7030  -19.8630   17.7090 C   0  0  0  0  0  3  0  0  0  0  0  0
  -30.2230  -16.0130   20.7650 C   0  0  0  0  0  2  0  0  0  0  0  0
  -30.9080  -14.7580   20.0590 C   0  0  0  0  0  0  0  0  0  0  0  0
  -30.6310  -12.5320   18.9470 C   0  0  0  0  0  2  0  0  0  0  0  0
  -29.6280  -12.6730   17.7820 C   0  0  0  0  0  2  0  0  0  0  0  0
  -28.1790  -12.5170   18.2840 C   0  0  0  0  0  2  0  0  0  0  0  0
  -27.8940  -13.3660   19.5540 C   0  0  0  0  0  3  0  0  0  0  0  0
  -29.0060  -13.1850   20.6090 C   0  0  0  0  0  2  0  0  0  0  0  0
  -30.2820  -13.5360   19.9760 N   0  0  0  0  0  0  0  0  0  0  0  0
  -32.0050  -14.9210   19.5180 O   0  0  0  0  0  0  0  0  0  0  0  0
  -25.5490  -13.9870   20.4010 C   0  0  0  0  0  0  0  0  0  0  0  0
  -24.4930  -13.2260   20.8130 C   0  0  0  0  0  0  0  0  0  0  0  0
  -24.9300  -11.8670   20.7340 C   0  0  0  0  0  0  0  0  0  0  0  0
  -26.5680  -13.0960   20.1000 N   0  0  0  0  0  0  0  0  0  0  0  0
  -26.2020  -11.8140   20.3570 N   0  0  0  0  0  0  0  0  0  0  0  0
  -24.1940  -10.6140   20.9420 C   0  0  0  0  0  0  0  0  0  0  0  0
  -24.6040   -9.6670   21.9070 C   0  0  0  0  0  3  0  0  0  0  0  0
  -23.8700   -8.4780   22.0980 C   0  0  0  0  0  3  0  0  0  0  0  0
  -22.7110   -8.2280   21.3260 C   0  0  0  0  0  0  0  0  0  0  0  0
  -22.3200   -9.1610   20.3500 C   0  0  0  0  0  3  0  0  0  0  0  0
  -23.0560  -10.3410   20.1560 C   0  0  0  0  0  3  0  0  0  0  0  0
  -21.9480   -7.0900   21.4290 O   0  0  0  0  0  0  0  0  0  0  0  0
  -21.8010   -6.4260   22.6190 C   0  0  0  0  0  0  0  0  0  0  0  0
  -21.2480   -7.0530   23.7570 C   0  0  0  0  0  3  0  0  0  0  0  0
  -21.0510   -6.3150   24.9420 C   0  0  0  0  0  3  0  0  0  0  0  0
  -21.3950   -4.9510   24.9870 C   0  0  0  0  0  0  0  0  0  0  0  0
  -21.9390   -4.3230   23.8530 C   0  0  0  0  0  3  0  0  0  0  0  0
  -22.1380   -5.0590   22.6710 C   0  0  0  0  0  0  0  0  0  0  0  0
  -22.6450   -4.4450   21.5760 F   0  0  0  0  0  0  0  0  0  0  0  0
  -21.1990   -4.2400   26.1220 F   0  0  0  0  0  0  0  0  0  0  0  0
  -23.1190  -13.7170   21.1680 C   0  0  0  0  0  0  0  0  0  0  0  0
  -22.4270  -13.0190   22.0600 N   0  0  0  0  0  0  0  0  0  0  0  0
  -22.6710  -14.7560   20.6860 O   0  0  0  0  0  0  0  0  0  0  0  0
  -22.8030  -12.1740   22.4690 H   0  0  0  0  0  0  0  0  0  0  0  0
  -21.5060  -13.3280   22.3360 H   0  0  0  0  0  0  0  0  0  0  0  0
  -25.7240  -15.3600   20.2360 N   0  0  0  0  0  0  0  0  0  0  0  0
  -24.9640  -16.0160   20.3840 H   0  0  0  0  0  0  0  0  0  0  0  0
  -26.5580  -15.7980   19.8740 H   0  0  0  0  0  0  0  0  0  0  0  0
  -28.9180  -22.5400   19.6000 N   0  0  0  0  0  0  0  0  0  0  0  0
  -28.7330  -22.9960   17.1220 C   0  0  0  0  0  1  0  0  0  0  0  0
  -28.1470  -22.2860   18.3620 C   0  0  0  0  0  3  0  0  0  0  0  0
  -25.8960  -21.2960   17.7580 C   0  0  0  0  0  1  0  0  0  0  0  0
  -26.6130  -22.4470   18.4700 C   0  0  0  0  0  2  0  0  0  0  0  0
  -28.5780  -23.8620   20.2820 C   0  0  0  0  0  3  0  0  0  0  0  0
  -28.5240  -25.2270   19.4310 C   0  0  0  0  0  3  0  0  0  0  0  0
  -28.3830  -26.5640   20.0610 O   0  0  0  0  0  0  0  0  0  0  0  0
  -24.6340  -31.7830   23.2820 C   0  0  0  0  0  0  0  0  0  0  0  0
  -27.2230  -27.3600   20.0120 C   0  0  0  0  0  0  0  0  0  0  0  0
  -23.4090  -30.4660   21.5870 C   0  0  0  0  0  3  0  0  0  0  0  0
  -24.8460  -28.9720   20.0770 C   0  0  0  0  0  0  0  0  0  0  0  0
  -25.9450  -30.7890   21.3950 C   0  0  0  0  0  2  0  0  0  0  0  0
  -26.0180  -29.4420   20.6820 C   0  0  0  0  0  0  0  0  0  0  0  0
  -27.2020  -28.6470   20.6350 C   0  0  0  0  0  3  0  0  0  0  0  0
  -26.0180  -26.9300   19.4070 C   0  0  0  0  0  3  0  0  0  0  0  0
  -24.8490  -27.7220   19.4340 C   0  0  0  0  0  3  0  0  0  0  0  0
  -23.6030  -29.8390   20.1790 C   0  0  0  0  0  2  0  0  0  0  0  0
  -24.6820  -31.0270   22.1470 N   0  0  0  0  0  0  0  0  0  0  0  0
  -23.5560  -32.0400   23.8370 O   0  0  0  0  0  0  0  0  0  0  0  0
  -22.7520  -29.4110   22.5050 C   0  0  0  0  0  0  0  0  0  0  0  0
  -21.4300  -29.2190   22.3550 N   0  0  0  0  0  0  0  0  0  0  0  0
  -23.4290  -28.7690   23.3120 O   0  0  0  0  0  0  0  0  0  0  0  0
  -20.9420  -29.7940   21.6840 H   0  0  0  0  0  0  0  0  0  0  0  0
  -18.0780  -27.9220   22.7260 C   0  0  0  0  0  0  0  0  0  0  0  0
  -20.6170  -28.2440   23.0800 C   0  0  0  0  0  3  0  0  0  0  0  0
  -20.7740  -26.8280   22.4780 C   0  0  0  0  0  2  0  0  0  0  0  0
  -19.7140  -26.4950   21.4240 C   0  0  0  0  0  2  0  0  0  0  0  0
  -18.3100  -26.5910   22.0290 C   0  0  0  0  0  2  0  0  0  0  0  0
  -19.1610  -28.7050   23.2030 C   0  0  0  0  0  0  0  0  0  0  0  0
  -18.8910  -29.9520   23.8100 C   0  0  0  0  0  3  0  0  0  0  0  0
  -17.5680  -30.4130   23.9490 C   0  0  0  0  0  3  0  0  0  0  0  0
  -16.4980  -29.6250   23.4910 C   0  0  0  0  0  3  0  0  0  0  0  0
  -16.7530  -28.3820   22.8830 C   0  0  0  0  0  3  0  0  0  0  0  0
  -25.9230  -32.3820   23.9270 C   0  0  0  0  0  3  0  0  0  0  0  0
  -25.6220  -33.7680   24.3170 N   0  0  0  0  0  0  0  0  0  0  0  0
  -25.9430  -34.8500   23.5940 C   0  0  0  0  0  0  0  0  0  0  0  0
  -26.5970  -34.7890   22.5490 O   0  0  0  0  0  0  0  0  0  0  0  0
  -25.0420  -33.8940   25.1330 H   0  0  0  0  0  0  0  0  0  0  0  0
  -24.2160  -36.6600   23.3430 C   0  0  0  0  0  1  0  0  0  0  0  0
  -25.4680  -36.2200   24.1170 C   0  0  0  0  0  3  0  0  0  0  0  0
  -27.6120  -37.0680   24.9600 C   0  0  0  0  0  1  0  0  0  0  0  0
  -26.5010  -37.2750   24.0330 N   0  0  0  0  0  0  0  0  0  0  0  0
  -26.0990  -38.1890   24.2230 H   0  0  0  0  0  0  0  0  0  0  0  0
  -26.4400  -31.5590   25.1710 C   0  0  1  0  0  0  0  0  0  0  0  0
  -25.3480  -31.2800   26.2310 C   0  0  0  0  0  1  0  0  0  0  0  0
  -27.0220  -30.1980   24.7250 C   0  0  0  0  0  1  0  0  0  0  0  0
  -27.5900  -32.3250   25.8650 C   0  0  0  0  0  1  0  0  0  0  0  0
  2  1  1  0
  3  7  1  0
  4 14  1  0
  4  3  1  0
  5  2  1  0
  5  3  1  0
  6  8  1  0
  6  4  1  0
  9  6  1  0
  9  5  1  0
  9 10  1  6
 11 13  1  0
 13 12  1  0
 13  9  1  0
 15 14  1  0
 16 21  1  0
 17 18  1  0
 17 16  1  0
 19 18  1  0
 19 26  1  0
 19 20  1  0
 21 15  1  0
 21 20  1  0
 22 15  2  0
 23 24  2  0
 24 43  1  0
 25 24  1  0
 25 28  1  0
 26 27  1  0
 26 23  1  0
 27 25  2  0
 28 29  1  0
 29 30  2  0
 31 34  1  0
 31 30  1  0
 32 31  2  0
 33 32  1  0
 33 28  2  0
 34 35  1  0
 35 40  2  0
 35 36  1  0
 36 37  2  0
 37 38  1  0
 38 42  1  0
 39 38  2  0
 40 39  1  0
 41 40  1  0
 43 44  1  0
 44 47  1  0
 44 46  1  0
 45 43  2  0
 48 49  1  0
 48 23  1  0
 50 48  1  0
 51 56  1  0
 51  2  1  0
 53 52  1  0
 53 55  1  0
 53 51  1  0
 54 55  1  0
 57 58  1  0
 57 56  2  0
 59 70  2  0
 60 58  1  0
 60 65  1  0
 61 69  1  0
 61 71  1  0
 62 68  1  0
 62 64  1  0
 63 69  1  0
 64 63  1  0
 65 64  2  0
 66 67  1  0
 66 60  2  0
 67 62  2  0
 68 61  1  0
 69 59  1  0
 71 73  2  0
 72 71  1  0
 74 72  1  0
 75 84  2  0
 75 80  1  0
 76 72  1  0
 76 80  1  0
 77 76  1  0
 78 79  1  0
 78 77  1  0
 79 75  1  0
 80 81  2  0
 81 82  1  0
 83 82  2  0
 84 83  1  0
 85 59  1  0
 85 86  1  0
 85 95  1  0
 86 89  1  0
 87 91  1  0
 87 86  1  0
 88 87  2  0
 91 90  1  0
 93 91  1  0
 93 94  1  0
 93 92  1  0
 95 98  1  1
 95 96  1  0
 97 95  1  0
M  ISO  4  14 100  15 100  57 101  58 101
M  END
>  <TORSDO>  (67) 
F 24

>  <SCORE>  (67) 
-12.064

>  <name>  (67) 
67

>  <ligand_id>  (67) 
67

>  <original_smiles>  (67) 
[H]c1c([H])c([H])c2c(c1[H])C([H])([H])C([H])([H])C([H])([H])C2([H])N([H])C(=O)C1([H])N(C(=O)C([H])(N([H])C(=O)C([H])(N([H])C([H])([H])[H])C([H])([H])[H])C(C([H])([H])[H])(C([H])([H])[H])C([H])([H])[H])C([H])([H])c2c([H])c(OC([H])([H])C([H])([H])N(C([H])(C([H])([H])[H])C([H])([H])C([H])([H])[H])C([H])(C([H])([H])[H])C3([H])C([H])(C([H])([H])[H])C([H])(C([H])([H])C(=O)N4C([H])([H])C([H])([H])C([H])([H])C([H])(n5nc(-c6c([H])c([H])c(Oc7c([H])c([H])c(F)c([H])c7F)c([H])c6[H])c(C(=O)N([H])[H])c5N([H])[H])C4([H])[H])C([H])(C([H])([H])[H])[N+]3([H])C([H])(C([H])([H])[H])C([H])([H])[H])c([H])c([H])c2C1([H])[H]

>  <smiles>  (67) 
[H]c1c([H])c([H])c2c(c1[H])C([H])([H])C([H])([H])C([H])([H])C2([H])N([H])C(=O)C1([H])N(C(=O)C([H])(N([H])C(=O)C([H])(N([H])C([H])([H])[H])C([H])([H])[H])C(C([H])([H])[H])(C([H])([H])[H])C([H])([H])[H])C([H])([H])c2c([H])c(OC([H])([H])C([H])([H])N(C([H])(C([H])([H])[H])C([H])([H])C([H])([H])[H])C([H])(C([H])([H])[H])C3([H])C([H])(C([H])([H])[H])C([H])(C([H])([H])C(=O)N4C([H])([H])C([H])([H])C([H])([H])C([H])(n5nc(-c6c([H])c([H])c(Oc7c([H])c([H])c(F)c([H])c7F)c([H])c6[H])c(C(=O)N([H])[H])c5N([H])[H])C4([H])[H])C([H])(C([H])([H])[H])[N+]3([H])C([H])(C([H])([H])[H])C([H])([H])[H])c([H])c([H])c2C1([H])[H]

$$$$
68:0:0
     RDKit          3D

 97105  0  0  1  0  0  0  0  0999 V2000
  -28.8130  -22.7530   20.3440 C   0  0  0  0  0  2  0  0  0  0  0  0
  -30.0660  -23.0410   18.3660 C   0  0  0  0  0  2  0  0  0  0  0  0
  -29.3050  -21.9280   19.1260 C   0  0  0  0  0  3  0  0  0  0  0  0
  -28.4550  -24.1670   19.7570 C   0  0  0  0  0  3  0  0  0  0  0  0
  -28.8430  -24.9710   17.4330 C   0  0  0  0  0  1  0  0  0  0  0  0
  -29.4220  -24.3490   18.6470 N   0  0  2  0  0  4  0  0  0  0  0  0
  -30.1470  -24.9730   18.9780 H   0  0  0  0  0  0  0  0  0  0  0  0
  -28.4560  -25.3820   20.7610 C   0  0  0  0  0  2  0  0  0  0  0  0
  -28.4760  -26.7260   20.1920 O   0  0  0  0  0  0  0  0  0  0  0  0
  -24.6350  -31.9590   23.2630 C   0  0  0  0  0  0  0  0  0  0  0  0
  -27.3070  -27.4740   20.2210 C   0  0  0  0  0  0  0  0  0  0  0  0
  -23.4460  -30.5500   21.6150 C   0  0  0  0  0  3  0  0  0  0  0  0
  -24.9140  -29.0040   20.2040 C   0  0  0  0  0  0  0  0  0  0  0  0
  -25.9710  -30.9060   21.4280 C   0  0  0  0  0  2  0  0  0  0  0  0
  -26.0690  -29.5260   20.7990 C   0  0  0  0  0  0  0  0  0  0  0  0
  -27.2710  -28.7730   20.7960 C   0  0  0  0  0  3  0  0  0  0  0  0
  -26.1340  -26.9730   19.6220 C   0  0  0  0  0  3  0  0  0  0  0  0
  -24.9440  -27.7300   19.6080 C   0  0  0  0  0  3  0  0  0  0  0  0
  -23.6670  -29.8630   20.2410 C   0  0  0  0  0  2  0  0  0  0  0  0
  -24.7030  -31.1540   22.1610 N   0  0  0  0  0  0  0  0  0  0  0  0
  -23.5490  -32.2300   23.7950 O   0  0  0  0  0  0  0  0  0  0  0  0
  -22.7880  -29.5320   22.5760 C   0  0  0  0  0  0  0  0  0  0  0  0
  -21.4630  -29.3570   22.4510 N   0  0  0  0  0  0  0  0  0  0  0  0
  -23.4710  -28.9020   23.3880 O   0  0  0  0  0  0  0  0  0  0  0  0
  -20.9740  -29.9190   21.7690 H   0  0  0  0  0  0  0  0  0  0  0  0
  -18.0820  -28.1800   22.9630 C   0  0  0  0  0  0  0  0  0  0  0  0
  -20.6440  -28.4170   23.2180 C   0  0  0  0  0  3  0  0  0  0  0  0
  -20.7330  -26.9910   22.6270 C   0  0  0  0  0  2  0  0  0  0  0  0
  -19.6200  -26.6880   21.6180 C   0  0  0  0  0  2  0  0  0  0  0  0
  -18.2420  -26.8360   22.2730 C   0  0  0  0  0  2  0  0  0  0  0  0
  -19.2110  -28.9300   23.3930 C   0  0  0  0  0  0  0  0  0  0  0  0
  -19.0040  -30.1880   23.9960 C   0  0  0  0  0  3  0  0  0  0  0  0
  -17.7030  -30.6970   24.1740 C   0  0  0  0  0  3  0  0  0  0  0  0
  -16.5910  -29.9460   23.7580 C   0  0  0  0  0  3  0  0  0  0  0  0
  -16.7820  -28.6880   23.1580 C   0  0  0  0  0  3  0  0  0  0  0  0
  -25.9120  -32.5940   23.8920 C   0  0  0  0  0  3  0  0  0  0  0  0
  -25.6040  -33.9970   24.2070 N   0  0  0  0  0  0  0  0  0  0  0  0
  -25.9410  -35.0400   23.4360 C   0  0  0  0  0  0  0  0  0  0  0  0
  -26.6160  -34.9220   22.4100 O   0  0  0  0  0  0  0  0  0  0  0  0
  -25.0020  -34.1600   25.0010 H   0  0  0  0  0  0  0  0  0  0  0  0
  -24.2110  -36.8260   23.0570 C   0  0  0  0  0  1  0  0  0  0  0  0
  -25.4530  -36.4350   23.8740 C   0  0  0  0  0  3  0  0  0  0  0  0
  -27.5860  -37.3320   24.6950 C   0  0  0  0  0  1  0  0  0  0  0  0
  -26.4860  -37.4860   23.7470 N   0  0  0  0  0  0  0  0  0  0  0  0
  -26.0810  -38.4090   23.8790 H   0  0  0  0  0  0  0  0  0  0  0  0
  -26.4160  -31.8310   25.1790 C   0  0  1  0  0  0  0  0  0  0  0  0
  -25.3100  -31.5960   26.2340 C   0  0  0  0  0  1  0  0  0  0  0  0
  -27.0050  -30.4530   24.7960 C   0  0  0  0  0  1  0  0  0  0  0  0
  -27.5630  -32.6300   25.8430 C   0  0  0  0  0  1  0  0  0  0  0  0
  -30.1730  -20.6010   19.2980 C   0  0  0  0  0  3  0  0  0  0  0  0
  -29.4990  -19.4650   19.9850 N   0  0  0  0  0  0  0  0  0  0  0  0
  -29.2720  -19.7310   20.9390 H   0  0  0  0  0  0  0  0  0  0  0  0
  -30.1600  -18.1240   19.9250 C   0  0  0  0  0  2  0  0  0  0  0  0
  -30.0690  -17.2350   21.2150 C   0  0  0  0  0  3  0  0  0  0  0  0
  -31.5910  -18.6600   22.5920 C   0  0  0  0  0  1  0  0  0  0  0  0
  -31.3140  -17.3260   22.0180 N   0  0  0  0  0  4  0  0  0  0  0  0
  -31.2470  -16.6860   22.7920 H   0  0  0  0  0  0  0  0  0  0  0  0
  -32.1040  -17.0390   21.4600 H   0  0  0  0  0  0  0  0  0  0  0  0
  -29.5660  -15.7490   21.0620 C   0  0  0  0  0  2  0  0  0  0  0  0
  -30.3980  -14.6110   20.3810 C   0  0  0  0  0  0  0  0  0  0  0  0
  -30.2460  -12.4030   19.2400 C   0  0  0  0  0  2  0  0  0  0  0  0
  -29.2610  -12.5180   18.0540 C   0  0  0  0  0  2  0  0  0  0  0  0
  -27.8030  -12.3090   18.5150 C   0  0  0  0  0  2  0  0  0  0  0  0
  -27.4480  -13.1520   19.7660 C   0  0  0  0  0  3  0  0  0  0  0  0
  -28.5340  -12.9850   20.8510 C   0  0  0  0  0  2  0  0  0  0  0  0
  -29.8280  -13.3740   20.2640 N   0  0  0  0  0  0  0  0  0  0  0  0
  -31.4990  -14.8710   19.8860 O   0  0  0  0  0  0  0  0  0  0  0  0
  -25.0510  -13.6860   20.5410 C   0  0  0  0  0  0  0  0  0  0  0  0
  -24.0160  -12.8830   20.9320 C   0  0  0  0  0  0  0  0  0  0  0  0
  -24.5160  -11.5440   20.8830 C   0  0  0  0  0  0  0  0  0  0  0  0
  -26.1160  -12.8380   20.2770 N   0  0  0  0  0  0  0  0  0  0  0  0
  -25.7990  -11.5450   20.5410 N   0  0  0  0  0  0  0  0  0  0  0  0
  -23.8340  -10.2600   21.0820 C   0  0  0  0  0  0  0  0  0  0  0  0
  -24.3000   -9.3140   22.0210 C   0  0  0  0  0  3  0  0  0  0  0  0
  -23.6170   -8.0940   22.2070 C   0  0  0  0  0  3  0  0  0  0  0  0
  -22.4520   -7.8100   21.4530 C   0  0  0  0  0  0  0  0  0  0  0  0
  -22.0050   -8.7460   20.5040 C   0  0  0  0  0  3  0  0  0  0  0  0
  -22.6900   -9.9590   20.3160 C   0  0  0  0  0  3  0  0  0  0  0  0
  -21.7390   -6.6400   21.5490 O   0  0  0  0  0  0  0  0  0  0  0  0
  -21.7040   -5.9110   22.7110 C   0  0  0  0  0  0  0  0  0  0  0  0
  -21.2310   -6.4610   23.9230 C   0  0  0  0  0  3  0  0  0  0  0  0
  -21.1490   -5.6550   25.0760 C   0  0  0  0  0  3  0  0  0  0  0  0
  -21.5280   -4.3000   25.0180 C   0  0  0  0  0  0  0  0  0  0  0  0
  -21.9950   -3.7510   23.8110 C   0  0  0  0  0  3  0  0  0  0  0  0
  -22.0800   -4.5530   22.6610 C   0  0  0  0  0  0  0  0  0  0  0  0
  -22.5100   -4.0130   21.4950 F   0  0  0  0  0  0  0  0  0  0  0  0
  -21.4420   -3.5250   26.1240 F   0  0  0  0  0  0  0  0  0  0  0  0
  -22.6110  -13.3150   21.2420 C   0  0  0  0  0  0  0  0  0  0  0  0
  -21.9260  -12.5940   22.1230 N   0  0  0  0  0  0  0  0  0  0  0  0
  -22.1300  -14.3290   20.7380 O   0  0  0  0  0  0  0  0  0  0  0  0
  -22.3260  -11.7720   22.5500 H   0  0  0  0  0  0  0  0  0  0  0  0
  -20.9860  -12.8670   22.3720 H   0  0  0  0  0  0  0  0  0  0  0  0
  -25.1730  -15.0630   20.3670 N   0  0  0  0  0  0  0  0  0  0  0  0
  -24.3880  -15.6950   20.4910 H   0  0  0  0  0  0  0  0  0  0  0  0
  -25.9980  -15.5240   20.0050 H   0  0  0  0  0  0  0  0  0  0  0  0
  -29.6440  -19.7220   16.9010 C   0  0  0  0  0  1  0  0  0  0  0  0
  -30.7250  -20.1470   17.9110 C   0  0  0  0  0  2  0  0  0  0  0  0
  2  6  1  0
  2  3  1  0
  3 50  1  0
  3  1  1  0
  4  1  1  0
  4  8  1  0
  5  6  1  0
  6  7  1  1
  6  4  1  0
  9 11  1  0
  9  8  1  0
 10 21  2  0
 11 16  1  0
 12 20  1  0
 12 22  1  0
 13 19  1  0
 13 15  1  0
 14 20  1  0
 15 14  1  0
 16 15  2  0
 17 11  2  0
 18 17  1  0
 18 13  2  0
 19 12  1  0
 20 10  1  0
 22 24  2  0
 23 22  1  0
 25 23  1  0
 26 35  2  0
 26 31  1  0
 27 23  1  0
 27 31  1  0
 28 27  1  0
 29 30  1  0
 29 28  1  0
 30 26  1  0
 31 32  2  0
 32 33  1  0
 34 33  2  0
 35 34  1  0
 36 10  1  0
 36 37  1  0
 36 46  1  0
 37 40  1  0
 38 42  1  0
 38 37  1  0
 39 38  2  0
 42 41  1  0
 44 42  1  0
 44 45  1  0
 44 43  1  0
 46 49  1  1
 46 47  1  0
 48 46  1  0
 50 97  1  0
 50 51  1  0
 51 52  1  0
 53 51  1  0
 54 53  1  0
 54 56  1  0
 56 55  1  0
 56 57  1  0
 58 56  1  0
 59 54  1  0
 60 59  1  0
 61 66  1  0
 62 63  1  0
 62 61  1  0
 64 63  1  0
 64 71  1  0
 64 65  1  0
 66 60  1  0
 66 65  1  0
 67 60  2  0
 68 69  2  0
 69 88  1  0
 70 69  1  0
 70 73  1  0
 71 68  1  0
 71 72  1  0
 72 70  2  0
 73 74  1  0
 74 75  2  0
 76 79  1  0
 76 75  1  0
 77 76  2  0
 78 77  1  0
 78 73  2  0
 79 80  1  0
 80 81  1  0
 81 82  2  0
 83 82  1  0
 83 87  1  0
 84 83  2  0
 85 80  2  0
 85 84  1  0
 86 85  1  0
 88 89  1  0
 89 92  1  0
 89 91  1  0
 90 88  2  0
 93 94  1  0
 93 68  1  0
 95 93  1  0
 96 97  1  0
M  ISO  4   8 101   9 101  59 100  60 100
M  END
>  <TORSDO>  (68) 
F 24

>  <SCORE>  (68) 
-12.180

>  <name>  (68) 
68

>  <ligand_id>  (68) 
68

>  <original_smiles>  (68) 
[H]c1c([H])c([H])c2c(c1[H])C([H])([H])C([H])([H])C([H])([H])C2([H])N([H])C(=O)C1([H])N(C(=O)C([H])(N([H])C(=O)C([H])(N([H])C([H])([H])[H])C([H])([H])[H])C(C([H])([H])[H])(C([H])([H])[H])C([H])([H])[H])C([H])([H])c2c([H])c(OC([H])([H])C3([H])C([H])([H])C([H])(C([H])(N([H])C([H])([H])C([H])(C([H])([H])C(=O)N4C([H])([H])C([H])([H])C([H])([H])C([H])(n5nc(-c6c([H])c([H])c(Oc7c([H])c([H])c(F)c([H])c7F)c([H])c6[H])c(C(=O)N([H])[H])c5N([H])[H])C4([H])[H])[N+]([H])([H])C([H])([H])[H])C([H])([H])C([H])([H])[H])C([H])([H])[N+]3([H])C([H])([H])[H])c([H])c([H])c2C1([H])[H]

>  <smiles>  (68) 
[H]c1c([H])c([H])c2c(c1[H])C([H])([H])C([H])([H])C([H])([H])C2([H])N([H])C(=O)C1([H])N(C(=O)C([H])(N([H])C(=O)C([H])(N([H])C([H])([H])[H])C([H])([H])[H])C(C([H])([H])[H])(C([H])([H])[H])C([H])([H])[H])C([H])([H])c2c([H])c(OC([H])([H])C3([H])C([H])([H])C([H])(C([H])(N([H])C([H])([H])C([H])(C([H])([H])C(=O)N4C([H])([H])C([H])([H])C([H])([H])C([H])(n5nc(-c6c([H])c([H])c(Oc7c([H])c([H])c(F)c([H])c7F)c([H])c6[H])c(C(=O)N([H])[H])c5N([H])[H])C4([H])[H])[N+]([H])([H])C([H])([H])[H])C([H])([H])C([H])([H])[H])C([H])([H])[N+]3([H])C([H])([H])[H])c([H])c([H])c2C1([H])[H]

$$$$
70:0:0
     RDKit          3D

 95103  0  0  1  0  0  0  0  0999 V2000
  -31.5450  -21.9930   19.5750 C   0  0  0  0  0  3  0  0  0  0  0  0
  -31.5620  -19.8970   17.9890 C   0  0  0  0  0  2  0  0  0  0  0  0
  -30.0540  -20.0950   17.8160 C   0  0  0  0  0  2  0  0  0  0  0  0
  -31.3600  -20.4610   19.4000 C   0  0  0  0  0  3  0  0  0  0  0  0
  -29.9480  -20.0280   19.2850 N   0  0  0  0  0  0  0  0  0  0  0  0
  -28.1040  -18.4590   19.5450 C   0  0  0  0  0  1  0  0  0  0  0  0
  -29.6300  -18.6330   19.6880 C   0  0  0  0  0  3  0  0  0  0  0  0
  -30.0760  -18.2330   21.1280 C   0  0  0  0  0  2  0  0  0  0  0  0
  -30.9150  -16.9280   21.1750 C   0  0  0  0  0  2  0  0  0  0  0  0
  -30.1020  -15.5940   21.1520 C   0  0  0  0  0  2  0  0  0  0  0  0
  -30.7180  -14.4320   20.3340 C   0  0  0  0  0  0  0  0  0  0  0  0
  -30.3270  -12.3470   19.0660 C   0  0  0  0  0  2  0  0  0  0  0  0
  -29.3410  -12.6320   17.9150 C   0  0  0  0  0  2  0  0  0  0  0  0
  -27.8850  -12.4870   18.3960 C   0  0  0  0  0  2  0  0  0  0  0  0
  -27.6100  -13.2670   19.7090 C   0  0  0  0  0  3  0  0  0  0  0  0
  -28.7050  -12.9860   20.7600 C   0  0  0  0  0  2  0  0  0  0  0  0
  -30.0150  -13.2820   20.1590 N   0  0  0  0  0  0  0  0  0  0  0  0
  -31.8050  -14.6180   19.7780 O   0  0  0  0  0  0  0  0  0  0  0  0
  -25.2370  -13.8680   20.5080 C   0  0  0  0  0  0  0  0  0  0  0  0
  -24.1810  -13.0910   20.9020 C   0  0  0  0  0  0  0  0  0  0  0  0
  -24.6380  -11.7390   20.8370 C   0  0  0  0  0  0  0  0  0  0  0  0
  -26.2730  -12.9880   20.2290 N   0  0  0  0  0  0  0  0  0  0  0  0
  -25.9170  -11.7030   20.4860 N   0  0  0  0  0  0  0  0  0  0  0  0
  -23.9170  -10.4750   21.0350 C   0  0  0  0  0  0  0  0  0  0  0  0
  -24.3700   -9.5030   21.9530 C   0  0  0  0  0  3  0  0  0  0  0  0
  -23.6480   -8.3040   22.1390 C   0  0  0  0  0  3  0  0  0  0  0  0
  -22.4590   -8.0700   21.4080 C   0  0  0  0  0  0  0  0  0  0  0  0
  -22.0250   -9.0320   20.4780 C   0  0  0  0  0  3  0  0  0  0  0  0
  -22.7480  -10.2220   20.2910 C   0  0  0  0  0  3  0  0  0  0  0  0
  -21.7080   -6.9230   21.5030 O   0  0  0  0  0  0  0  0  0  0  0  0
  -21.6790   -6.1760   22.6530 C   0  0  0  0  0  0  0  0  0  0  0  0
  -21.2670   -6.7230   23.8880 C   0  0  0  0  0  3  0  0  0  0  0  0
  -21.1860   -5.9010   25.0300 C   0  0  0  0  0  3  0  0  0  0  0  0
  -21.5070   -4.5330   24.9390 C   0  0  0  0  0  0  0  0  0  0  0  0
  -21.9100   -3.9860   23.7070 C   0  0  0  0  0  3  0  0  0  0  0  0
  -21.9940   -4.8050   22.5690 C   0  0  0  0  0  0  0  0  0  0  0  0
  -22.3640   -4.2670   21.3820 F   0  0  0  0  0  0  0  0  0  0  0  0
  -21.4210   -3.7420   26.0330 F   0  0  0  0  0  0  0  0  0  0  0  0
  -22.7940  -13.5660   21.2290 C   0  0  0  0  0  0  0  0  0  0  0  0
  -22.0960  -12.8570   22.1090 N   0  0  0  0  0  0  0  0  0  0  0  0
  -22.3400  -14.6000   20.7390 O   0  0  0  0  0  0  0  0  0  0  0  0
  -22.4760  -12.0220   22.5290 H   0  0  0  0  0  0  0  0  0  0  0  0
  -21.1660  -13.1560   22.3670 H   0  0  0  0  0  0  0  0  0  0  0  0
  -25.3980  -15.2400   20.3420 N   0  0  0  0  0  0  0  0  0  0  0  0
  -24.6380  -15.8950   20.4910 H   0  0  0  0  0  0  0  0  0  0  0  0
  -26.2430  -15.6850   20.0060 H   0  0  0  0  0  0  0  0  0  0  0  0
  -30.6400  -22.5660   20.6040 N   0  0  0  0  0  4  0  0  0  0  0  0
  -29.7190  -22.2420   20.3550 H   0  0  0  0  0  0  0  0  0  0  0  0
  -30.8560  -22.1720   21.5060 H   0  0  0  0  0  0  0  0  0  0  0  0
  -30.6370  -24.0570   20.6820 C   0  0  0  0  0  2  0  0  0  0  0  0
  -29.4230  -24.6450   21.4420 C   0  0  0  0  0  2  0  0  0  0  0  0
  -28.3160  -25.2630   20.5580 C   0  0  0  0  0  2  0  0  0  0  0  0
  -28.5050  -26.6710   20.3240 O   0  0  0  0  0  0  0  0  0  0  0  0
  -24.6040  -31.8570   23.2210 C   0  0  0  0  0  0  0  0  0  0  0  0
  -27.3460  -27.4170   20.2330 C   0  0  0  0  0  0  0  0  0  0  0  0
  -23.4500  -30.4500   21.5460 C   0  0  0  0  0  3  0  0  0  0  0  0
  -24.9480  -28.9200   20.1600 C   0  0  0  0  0  0  0  0  0  0  0  0
  -25.9790  -30.8160   21.4210 C   0  0  0  0  0  2  0  0  0  0  0  0
  -26.0880  -29.4480   20.7800 C   0  0  0  0  0  0  0  0  0  0  0  0
  -27.2900  -28.7070   20.8070 C   0  0  0  0  0  3  0  0  0  0  0  0
  -26.1910  -26.9090   19.5940 C   0  0  0  0  0  3  0  0  0  0  0  0
  -24.9950  -27.6500   19.5610 C   0  0  0  0  0  3  0  0  0  0  0  0
  -23.7000  -29.7720   20.1710 C   0  0  0  0  0  2  0  0  0  0  0  0
  -24.6950  -31.0560   22.1210 N   0  0  0  0  0  0  0  0  0  0  0  0
  -23.5060  -32.1280   23.7290 O   0  0  0  0  0  0  0  0  0  0  0  0
  -22.7720  -29.4280   22.4860 C   0  0  0  0  0  0  0  0  0  0  0  0
  -21.4510  -29.2460   22.3220 N   0  0  0  0  0  0  0  0  0  0  0  0
  -23.4330  -28.8030   23.3200 O   0  0  0  0  0  0  0  0  0  0  0  0
  -20.9820  -29.8010   21.6200 H   0  0  0  0  0  0  0  0  0  0  0  0
  -18.0610  -28.0700   22.7360 C   0  0  0  0  0  0  0  0  0  0  0  0
  -20.6130  -28.3090   23.0690 C   0  0  0  0  0  3  0  0  0  0  0  0
  -20.7200  -26.8810   22.4870 C   0  0  0  0  0  2  0  0  0  0  0  0
  -19.6400  -26.5720   21.4460 C   0  0  0  0  0  2  0  0  0  0  0  0
  -18.2450  -26.7230   22.0580 C   0  0  0  0  0  2  0  0  0  0  0  0
  -19.1740  -28.8220   23.1960 C   0  0  0  0  0  0  0  0  0  0  0  0
  -18.9490  -30.0840   23.7890 C   0  0  0  0  0  3  0  0  0  0  0  0
  -17.6440  -30.5930   23.9250 C   0  0  0  0  0  3  0  0  0  0  0  0
  -16.5460  -29.8380   23.4810 C   0  0  0  0  0  3  0  0  0  0  0  0
  -16.7550  -28.5780   22.8930 C   0  0  0  0  0  3  0  0  0  0  0  0
  -25.8710  -32.4880   23.8780 C   0  0  0  0  0  3  0  0  0  0  0  0
  -26.3520  -31.7180   25.1680 C   0  0  1  0  0  0  0  0  0  0  0  0
  -25.2280  -31.4800   26.2050 C   0  0  0  0  0  1  0  0  0  0  0  0
  -26.9470  -30.3410   24.7920 C   0  0  0  0  0  1  0  0  0  0  0  0
  -27.4820  -32.5140   25.8610 C   0  0  0  0  0  1  0  0  0  0  0  0
  -25.5520  -33.8870   24.1940 N   0  0  0  0  0  0  0  0  0  0  0  0
  -25.9030  -34.9350   23.4390 C   0  0  0  0  0  0  0  0  0  0  0  0
  -26.5990  -34.8260   22.4250 O   0  0  0  0  0  0  0  0  0  0  0  0
  -24.9360  -34.0440   24.9780 H   0  0  0  0  0  0  0  0  0  0  0  0
  -24.1800  -36.7200   23.0300 C   0  0  0  0  0  1  0  0  0  0  0  0
  -25.4010  -36.3250   23.8760 C   0  0  0  0  0  3  0  0  0  0  0  0
  -27.5130  -37.2180   24.7550 C   0  0  0  0  0  1  0  0  0  0  0  0
  -26.4350  -37.3790   23.7830 N   0  0  0  0  0  0  0  0  0  0  0  0
  -26.0250  -38.2990   23.9120 H   0  0  0  0  0  0  0  0  0  0  0  0
  -33.6880  -21.6890   21.0380 C   0  0  0  0  0  1  0  0  0  0  0  0
  -33.0320  -22.3590   19.8180 C   0  0  0  0  0  2  0  0  0  0  0  0
  1 95  1  0
  1 47  1  0
  2  4  1  0
  3  2  1  0
  3  5  1  0
  4  1  1  0
  5  4  1  0
  5  7  1  0
  7  6  1  0
  7  8  1  0
  8  9  1  0
 10  9  1  0
 11 10  1  0
 12 17  1  0
 13 14  1  0
 13 12  1  0
 15 14  1  0
 15 22  1  0
 15 16  1  0
 17 11  1  0
 17 16  1  0
 18 11  2  0
 19 20  2  0
 20 39  1  0
 21 20  1  0
 21 24  1  0
 22 23  1  0
 22 19  1  0
 23 21  2  0
 24 25  1  0
 25 26  2  0
 27 30  1  0
 27 26  1  0
 28 27  2  0
 29 28  1  0
 29 24  2  0
 30 31  1  0
 31 32  1  0
 32 33  2  0
 34 33  1  0
 34 38  1  0
 35 34  2  0
 36 31  2  0
 36 35  1  0
 37 36  1  0
 39 40  1  0
 40 43  1  0
 40 42  1  0
 41 39  2  0
 44 45  1  0
 44 19  1  0
 46 44  1  0
 47 50  1  0
 47 49  1  0
 48 47  1  0
 50 51  1  0
 52 51  1  0
 53 52  1  0
 54 65  2  0
 55 53  1  0
 55 60  1  0
 56 64  1  0
 56 66  1  0
 57 63  1  0
 57 59  1  0
 58 64  1  0
 59 60  2  0
 59 58  1  0
 61 55  2  0
 62 61  1  0
 62 57  2  0
 63 56  1  0
 64 54  1  0
 66 68  2  0
 67 66  1  0
 69 67  1  0
 70 79  2  0
 70 75  1  0
 71 67  1  0
 71 75  1  0
 72 71  1  0
 73 74  1  0
 73 72  1  0
 74 70  1  0
 75 76  2  0
 76 77  1  0
 78 77  2  0
 79 78  1  0
 80 54  1  0
 80 85  1  0
 80 81  1  0
 81 84  1  1
 81 82  1  0
 83 81  1  0
 85 88  1  0
 86 90  1  0
 86 85  1  0
 87 86  2  0
 90 89  1  0
 92 90  1  0
 92 93  1  0
 92 91  1  0
 95 94  1  0
M  ISO  4  10 100  11 100  52 101  53 101
M  END
>  <TORSDO>  (69) 
F 26

>  <SCORE>  (69) 
-11.968

>  <name>  (69) 
70

>  <ligand_id>  (69) 
70

>  <original_smiles>  (69) 
[H]c1c([H])c([H])c2c(c1[H])C([H])([H])C([H])([H])C([H])([H])C2([H])N([H])C(=O)C1([H])N(C(=O)C([H])(N([H])C(=O)C([H])(N([H])C([H])([H])[H])C([H])([H])[H])C(C([H])([H])[H])(C([H])([H])[H])C([H])([H])[H])C([H])([H])c2c([H])c(OC([H])([H])C([H])([H])C([H])([H])[N+]([H])([H])C([H])(C([H])([H])C([H])([H])[H])C3([H])N(C([H])(C([H])([H])[H])C([H])([H])C([H])([H])C([H])([H])C(=O)N4C([H])([H])C([H])([H])C([H])([H])C([H])(n5nc(-c6c([H])c([H])c(Oc7c([H])c([H])c(F)c([H])c7F)c([H])c6[H])c(C(=O)N([H])[H])c5N([H])[H])C4([H])[H])C([H])([H])C3([H])[H])c([H])c([H])c2C1([H])[H]

>  <smiles>  (69) 
[H]c1c([H])c([H])c2c(c1[H])C([H])([H])C([H])([H])C([H])([H])C2([H])N([H])C(=O)C1([H])N(C(=O)C([H])(N([H])C(=O)C([H])(N([H])C([H])([H])[H])C([H])([H])[H])C(C([H])([H])[H])(C([H])([H])[H])C([H])([H])[H])C([H])([H])c2c([H])c(OC([H])([H])C([H])([H])C([H])([H])[N+]([H])([H])C([H])(C([H])([H])C([H])([H])[H])C3([H])N(C([H])(C([H])([H])[H])C([H])([H])C([H])([H])C([H])([H])C(=O)N4C([H])([H])C([H])([H])C([H])([H])C([H])(n5nc(-c6c([H])c([H])c(Oc7c([H])c([H])c(F)c([H])c7F)c([H])c6[H])c(C(=O)N([H])[H])c5N([H])[H])C4([H])[H])C([H])([H])C3([H])[H])c([H])c([H])c2C1([H])[H]

$$$$
71:0:0
     RDKit          3D

 92100  0  0  1  0  0  0  0  0999 V2000
  -28.7500  -22.4980   20.0890 C   0  0  0  0  0  3  0  0  0  0  0  0
  -30.2260  -20.4100   20.1850 C   0  0  0  0  0  0  0  0  0  0  0  0
  -29.4710  -21.3790   20.7650 N   0  0  0  0  0  0  0  0  0  0  0  0
  -30.8790  -20.6190   19.1590 O   0  0  0  0  0  0  0  0  0  0  0  0
  -29.0680  -21.0970   21.6480 H   0  0  0  0  0  0  0  0  0  0  0  0
  -28.9300  -16.6990   20.5600 C   0  0  0  0  0  2  0  0  0  0  0  0
  -31.2150  -16.8020   21.6710 C   0  0  0  0  0  2  0  0  0  0  0  0
  -29.2530  -18.0550   19.8860 C   0  0  0  0  0  2  0  0  0  0  0  0
  -31.4630  -18.1580   20.9310 C   0  0  0  0  0  2  0  0  0  0  0  0
  -30.1350  -15.8380   21.0570 C   0  0  0  0  0  3  0  0  0  0  0  0
  -30.1390  -18.9570   20.7670 C   0  0  0  0  0  3  0  0  0  0  0  0
  -30.6570  -14.6890   20.1030 C   0  0  0  0  0  0  0  0  0  0  0  0
  -30.3730  -12.4960   18.9370 C   0  0  0  0  0  2  0  0  0  0  0  0
  -29.3560  -12.6050   17.7760 C   0  0  0  0  0  2  0  0  0  0  0  0
  -27.9130  -12.3910   18.2800 C   0  0  0  0  0  2  0  0  0  0  0  0
  -27.6090  -13.2270   19.5420 C   0  0  0  0  0  3  0  0  0  0  0  0
  -28.7330  -13.1160   20.6030 C   0  0  0  0  0  2  0  0  0  0  0  0
  -30.0090  -13.4850   19.9730 N   0  0  0  0  0  0  0  0  0  0  0  0
  -31.6990  -14.8990   19.4700 O   0  0  0  0  0  0  0  0  0  0  0  0
  -25.2430  -13.7720   20.3990 C   0  0  0  0  0  0  0  0  0  0  0  0
  -24.2220  -12.9690   20.8290 C   0  0  0  0  0  0  0  0  0  0  0  0
  -24.7240  -11.6340   20.7790 C   0  0  0  0  0  0  0  0  0  0  0  0
  -26.2990  -12.9190   20.1070 N   0  0  0  0  0  0  0  0  0  0  0  0
  -25.9960  -11.6300   20.3970 N   0  0  0  0  0  0  0  0  0  0  0  0
  -24.0500  -10.3520   21.0170 C   0  0  0  0  0  0  0  0  0  0  0  0
  -24.4820   -9.4630   22.0250 C   0  0  0  0  0  3  0  0  0  0  0  0
  -23.8040   -8.2440   22.2390 C   0  0  0  0  0  3  0  0  0  0  0  0
  -22.6820   -7.9050   21.4430 C   0  0  0  0  0  0  0  0  0  0  0  0
  -22.2710   -8.7850   20.4270 C   0  0  0  0  0  3  0  0  0  0  0  0
  -22.9510   -9.9960   20.2120 C   0  0  0  0  0  3  0  0  0  0  0  0
  -21.9750   -6.7340   21.5670 O   0  0  0  0  0  0  0  0  0  0  0  0
  -21.8100   -6.1170   22.7810 C   0  0  0  0  0  0  0  0  0  0  0  0
  -21.1470   -6.7520   23.8530 C   0  0  0  0  0  3  0  0  0  0  0  0
  -20.9370   -6.0560   25.0610 C   0  0  0  0  0  3  0  0  0  0  0  0
  -21.3830   -4.7280   25.1970 C   0  0  0  0  0  0  0  0  0  0  0  0
  -22.0370   -4.0920   24.1270 C   0  0  0  0  0  3  0  0  0  0  0  0
  -22.2490   -4.7850   22.9230 C   0  0  0  0  0  0  0  0  0  0  0  0
  -22.8650   -4.1630   21.8880 F   0  0  0  0  0  0  0  0  0  0  0  0
  -21.1750   -4.0590   26.3540 F   0  0  0  0  0  0  0  0  0  0  0  0
  -22.8280  -13.4090   21.1780 C   0  0  0  0  0  0  0  0  0  0  0  0
  -22.1690  -12.6940   22.0850 N   0  0  0  0  0  0  0  0  0  0  0  0
  -22.3340  -14.4170   20.6820 O   0  0  0  0  0  0  0  0  0  0  0  0
  -22.5880  -11.8830   22.5120 H   0  0  0  0  0  0  0  0  0  0  0  0
  -21.2370  -12.9680   22.3570 H   0  0  0  0  0  0  0  0  0  0  0  0
  -25.3460  -15.1470   20.2070 N   0  0  0  0  0  0  0  0  0  0  0  0
  -24.5430  -15.7600   20.3110 H   0  0  0  0  0  0  0  0  0  0  0  0
  -26.1500  -15.6130   19.8070 H   0  0  0  0  0  0  0  0  0  0  0  0
  -26.9160  -20.8090   19.2850 C   0  0  0  0  0  1  0  0  0  0  0  0
  -27.2430  -22.1270   20.0210 C   0  0  0  0  0  2  0  0  0  0  0  0
  -28.9810  -23.9520   20.6970 C   0  0  0  0  0  2  0  0  0  0  0  0
  -27.9740  -25.0820   20.2250 C   0  0  0  0  0  2  0  0  0  0  0  0
  -28.3660  -26.5170   20.3220 O   0  0  0  0  0  0  0  0  0  0  0  0
  -24.6450  -31.9250   23.2680 C   0  0  0  0  0  0  0  0  0  0  0  0
  -27.3130  -27.4290   20.1980 C   0  0  0  0  0  0  0  0  0  0  0  0
  -23.4820  -30.5390   21.5950 C   0  0  0  0  0  3  0  0  0  0  0  0
  -24.9670  -29.0510   20.1490 C   0  0  0  0  0  0  0  0  0  0  0  0
  -26.0190  -30.8900   21.4510 C   0  0  0  0  0  2  0  0  0  0  0  0
  -26.1210  -29.5220   20.7910 C   0  0  0  0  0  0  0  0  0  0  0  0
  -27.2980  -28.7170   20.8180 C   0  0  0  0  0  3  0  0  0  0  0  0
  -26.1620  -27.0590   19.4580 C   0  0  0  0  0  3  0  0  0  0  0  0
  -24.9950  -27.8300   19.4650 C   0  0  0  0  0  3  0  0  0  0  0  0
  -23.7220  -29.9100   20.2020 C   0  0  0  0  0  2  0  0  0  0  0  0
  -24.7340  -31.1340   22.1610 N   0  0  0  0  0  0  0  0  0  0  0  0
  -23.5490  -32.1810   23.7910 O   0  0  0  0  0  0  0  0  0  0  0  0
  -22.8250  -29.4870   22.5240 C   0  0  0  0  0  0  0  0  0  0  0  0
  -21.5020  -29.2960   22.3800 N   0  0  0  0  0  0  0  0  0  0  0  0
  -23.5030  -28.8610   23.3430 O   0  0  0  0  0  0  0  0  0  0  0  0
  -21.0170  -29.8610   21.6970 H   0  0  0  0  0  0  0  0  0  0  0  0
  -18.1260  -28.0900   22.8610 C   0  0  0  0  0  0  0  0  0  0  0  0
  -20.6860  -28.3390   23.1300 C   0  0  0  0  0  3  0  0  0  0  0  0
  -20.7850  -26.9230   22.5180 C   0  0  0  0  0  2  0  0  0  0  0  0
  -19.6780  -26.6260   21.5030 C   0  0  0  0  0  2  0  0  0  0  0  0
  -18.2990  -26.7570   22.1540 C   0  0  0  0  0  2  0  0  0  0  0  0
  -19.2470  -28.8390   23.3080 C   0  0  0  0  0  0  0  0  0  0  0  0
  -19.0310  -30.0850   23.9350 C   0  0  0  0  0  3  0  0  0  0  0  0
  -17.7290  -30.5850   24.1170 C   0  0  0  0  0  3  0  0  0  0  0  0
  -16.6220  -29.8320   23.6850 C   0  0  0  0  0  3  0  0  0  0  0  0
  -16.8220  -28.5870   23.0630 C   0  0  0  0  0  3  0  0  0  0  0  0
  -25.9130  -32.5650   23.9120 C   0  0  0  0  0  3  0  0  0  0  0  0
  -25.5840  -33.9590   24.2420 N   0  0  0  0  0  0  0  0  0  0  0  0
  -25.9070  -35.0150   23.4810 C   0  0  0  0  0  0  0  0  0  0  0  0
  -26.5810  -34.9200   22.4530 O   0  0  0  0  0  0  0  0  0  0  0  0
  -24.9810  -34.1070   25.0380 H   0  0  0  0  0  0  0  0  0  0  0  0
  -24.1600  -36.7920   23.1200 C   0  0  0  0  0  1  0  0  0  0  0  0
  -25.4000  -36.4000   23.9380 C   0  0  0  0  0  3  0  0  0  0  0  0
  -27.5100  -37.3150   24.7910 C   0  0  0  0  0  1  0  0  0  0  0  0
  -26.4220  -37.4620   23.8290 N   0  0  0  0  0  0  0  0  0  0  0  0
  -26.0060  -38.3790   23.9630 H   0  0  0  0  0  0  0  0  0  0  0  0
  -26.4170  -31.7910   25.1890 C   0  0  1  0  0  0  0  0  0  0  0  0
  -25.3060  -31.5110   26.2290 C   0  0  0  0  0  1  0  0  0  0  0  0
  -27.0420  -30.4320   24.7970 C   0  0  0  0  0  1  0  0  0  0  0  0
  -27.5360  -32.6030   25.8850 C   0  0  0  0  0  1  0  0  0  0  0  0
  1 49  1  0
  1 50  1  0
  1  3  1  0
  2  3  1  0
  3  5  1  0
  4  2  2  0
  6 10  1  0
  8  6  1  0
  8 11  1  0
  9  7  1  0
 10 12  1  0
 10  7  1  0
 11  2  1  0
 11  9  1  0
 13 18  1  0
 14 15  1  0
 14 13  1  0
 16 15  1  0
 16 23  1  0
 16 17  1  0
 18 12  1  0
 18 17  1  0
 19 12  2  0
 20 21  2  0
 21 40  1  0
 22 21  1  0
 22 25  1  0
 23 24  1  0
 23 20  1  0
 24 22  2  0
 25 26  1  0
 26 27  2  0
 28 31  1  0
 28 27  1  0
 29 28  2  0
 30 29  1  0
 30 25  2  0
 31 32  1  0
 32 37  2  0
 32 33  1  0
 33 34  2  0
 34 35  1  0
 35 39  1  0
 36 35  2  0
 37 36  1  0
 38 37  1  0
 40 41  1  0
 41 44  1  0
 41 43  1  0
 42 40  2  0
 45 46  1  0
 45 20  1  0
 47 45  1  0
 48 49  1  0
 51 52  1  0
 51 50  1  0
 53 64  2  0
 54 52  1  0
 54 59  1  0
 55 63  1  0
 55 65  1  0
 56 62  1  0
 56 58  1  0
 57 63  1  0
 58 59  2  0
 58 57  1  0
 60 61  1  0
 60 54  2  0
 61 56  2  0
 62 55  1  0
 63 53  1  0
 65 67  2  0
 66 65  1  0
 68 66  1  0
 69 78  2  0
 69 74  1  0
 70 66  1  0
 70 74  1  0
 71 70  1  0
 72 73  1  0
 72 71  1  0
 73 69  1  0
 74 75  2  0
 75 76  1  0
 77 76  2  0
 78 77  1  0
 79 53  1  0
 79 80  1  0
 79 89  1  0
 80 83  1  0
 81 85  1  0
 81 80  1  0
 82 81  2  0
 85 84  1  0
 87 85  1  0
 87 88  1  0
 87 86  1  0
 89 92  1  1
 89 90  1  0
 91 89  1  0
M  ISO  4  10 100  12 100  51 101  52 101
M  END
>  <TORSDO>  (70) 
F 21

>  <SCORE>  (70) 
-13.094

>  <name>  (70) 
71

>  <ligand_id>  (70) 
71

>  <original_smiles>  (70) 
[H]c1c([H])c([H])c2c(c1[H])C([H])([H])C([H])([H])C([H])([H])C2([H])N([H])C(=O)C1([H])N(C(=O)C([H])(N([H])C(=O)C([H])(N([H])C([H])([H])[H])C([H])([H])[H])C(C([H])([H])[H])(C([H])([H])[H])C([H])([H])[H])C([H])([H])c2c([H])c(OC([H])([H])C([H])([H])C([H])(N([H])C(=O)C3([H])C([H])([H])C([H])([H])C([H])(C(=O)N4C([H])([H])C([H])([H])C([H])([H])C([H])(n5nc(-c6c([H])c([H])c(Oc7c([H])c([H])c(F)c([H])c7F)c([H])c6[H])c(C(=O)N([H])[H])c5N([H])[H])C4([H])[H])C([H])([H])C3([H])[H])C([H])([H])C([H])([H])[H])c([H])c([H])c2C1([H])[H]

>  <smiles>  (70) 
[H]c1c([H])c([H])c2c(c1[H])C([H])([H])C([H])([H])C([H])([H])C2([H])N([H])C(=O)C1([H])N(C(=O)C([H])(N([H])C(=O)C([H])(N([H])C([H])([H])[H])C([H])([H])[H])C(C([H])([H])[H])(C([H])([H])[H])C([H])([H])[H])C([H])([H])c2c([H])c(OC([H])([H])C([H])([H])C([H])(N([H])C(=O)C3([H])C([H])([H])C([H])([H])C([H])(C(=O)N4C([H])([H])C([H])([H])C([H])([H])C([H])(n5nc(-c6c([H])c([H])c(Oc7c([H])c([H])c(F)c([H])c7F)c([H])c6[H])c(C(=O)N([H])[H])c5N([H])[H])C4([H])[H])C([H])([H])C3([H])[H])C([H])([H])C([H])([H])[H])c([H])c([H])c2C1([H])[H]

$$$$
72:0:0
     RDKit          3D

 94101  0  0  1  0  0  0  0  0999 V2000
  -29.1410  -21.5890   20.2530 C   0  0  0  0  0  3  0  0  0  0  0  0
  -29.8040  -21.8660   22.7890 C   0  0  0  0  0  1  0  0  0  0  0  0
  -27.5590  -22.6720   22.0000 C   0  0  0  0  0  1  0  0  0  0  0  0
  -28.6810  -21.6530   21.7490 C   0  0  0  0  0  3  0  0  0  0  0  0
  -29.5500  -23.0330   19.6420 C   0  0  0  0  0  2  0  0  0  0  0  0
  -28.5430  -24.2390   19.3320 C   0  0  0  0  0  2  0  0  0  0  0  0
  -28.7370  -25.5950   20.1290 C   0  0  0  0  0  2  0  0  0  0  0  0
  -28.5160  -26.8720   19.4470 O   0  0  0  0  0  0  0  0  0  0  0  0
  -24.6830  -31.7560   23.1020 C   0  0  0  0  0  0  0  0  0  0  0  0
  -27.3250  -27.5680   19.6230 C   0  0  0  0  0  0  0  0  0  0  0  0
  -23.4500  -30.4310   21.4150 C   0  0  0  0  0  3  0  0  0  0  0  0
  -24.8880  -29.0240   19.8390 C   0  0  0  0  0  0  0  0  0  0  0  0
  -25.9580  -30.8710   21.1410 C   0  0  0  0  0  2  0  0  0  0  0  0
  -26.0580  -29.5420   20.4070 C   0  0  0  0  0  0  0  0  0  0  0  0
  -27.2820  -28.8290   20.2840 C   0  0  0  0  0  3  0  0  0  0  0  0
  -26.1310  -27.0710   19.0660 C   0  0  0  0  0  3  0  0  0  0  0  0
  -24.9200  -27.7880   19.1680 C   0  0  0  0  0  3  0  0  0  0  0  0
  -23.6240  -29.8460   19.9870 C   0  0  0  0  0  2  0  0  0  0  0  0
  -24.7170  -31.0340   21.9440 N   0  0  0  0  0  0  0  0  0  0  0  0
  -23.6170  -31.9630   23.6990 O   0  0  0  0  0  0  0  0  0  0  0  0
  -22.8600  -29.3350   22.3300 C   0  0  0  0  0  0  0  0  0  0  0  0
  -21.5430  -29.0980   22.2130 N   0  0  0  0  0  0  0  0  0  0  0  0
  -23.5850  -28.7010   23.1010 O   0  0  0  0  0  0  0  0  0  0  0  0
  -21.0170  -29.6720   21.5700 H   0  0  0  0  0  0  0  0  0  0  0  0
  -18.2480  -27.6770   22.6610 C   0  0  0  0  0  0  0  0  0  0  0  0
  -20.7860  -28.0790   22.9380 C   0  0  0  0  0  3  0  0  0  0  0  0
  -20.9730  -26.6850   22.2970 C   0  0  0  0  0  2  0  0  0  0  0  0
  -19.8890  -26.3410   21.2720 C   0  0  0  0  0  2  0  0  0  0  0  0
  -18.5010  -26.3730   21.9210 C   0  0  0  0  0  2  0  0  0  0  0  0
  -19.3200  -28.4860   23.1210 C   0  0  0  0  0  0  0  0  0  0  0  0
  -19.0290  -29.7050   23.7710 C   0  0  0  0  0  3  0  0  0  0  0  0
  -17.6980  -30.1190   23.9600 C   0  0  0  0  0  3  0  0  0  0  0  0
  -16.6400  -29.3080   23.5180 C   0  0  0  0  0  3  0  0  0  0  0  0
  -16.9160  -28.0880   22.8760 C   0  0  0  0  0  3  0  0  0  0  0  0
  -25.9750  -32.3800   23.7180 C   0  0  0  0  0  3  0  0  0  0  0  0
  -26.5520  -31.5520   24.9310 C   0  0  1  0  0  0  0  0  0  0  0  0
  -25.5030  -31.2290   26.0200 C   0  0  0  0  0  1  0  0  0  0  0  0
  -27.1560  -30.2160   24.4390 C   0  0  0  0  0  1  0  0  0  0  0  0
  -27.7100  -32.3340   25.6000 C   0  0  0  0  0  1  0  0  0  0  0  0
  -25.6490  -33.7530   24.1370 N   0  0  0  0  0  0  0  0  0  0  0  0
  -25.9440  -34.8520   23.4340 C   0  0  0  0  0  0  0  0  0  0  0  0
  -26.5910  -34.8230   22.3830 O   0  0  0  0  0  0  0  0  0  0  0  0
  -25.0830  -33.8510   24.9670 H   0  0  0  0  0  0  0  0  0  0  0  0
  -24.1720  -36.6250   23.2210 C   0  0  0  0  0  1  0  0  0  0  0  0
  -25.4400  -36.2020   23.9830 C   0  0  0  0  0  3  0  0  0  0  0  0
  -27.5760  -37.0750   24.8200 C   0  0  0  0  0  1  0  0  0  0  0  0
  -26.4480  -37.2820   23.9130 N   0  0  0  0  0  0  0  0  0  0  0  0
  -26.0260  -38.1790   24.1340 H   0  0  0  0  0  0  0  0  0  0  0  0
  -30.1490  -20.3380   19.9540 C   0  0  0  0  0  3  0  0  0  0  0  0
  -29.8110  -18.9830   20.5840 N   0  0  0  0  0  4  0  0  0  0  0  0
  -30.1560  -19.0250   21.5270 H   0  0  0  0  0  0  0  0  0  0  0  0
  -28.8070  -18.9050   20.6300 H   0  0  0  0  0  0  0  0  0  0  0  0
  -30.3450  -17.6900   19.9620 C   0  0  0  0  0  3  0  0  0  0  0  0
  -30.0770  -16.3240   20.7590 C   0  0  0  0  0  3  0  0  0  0  0  0
  -30.8780  -15.0060   20.3560 C   0  0  0  0  0  0  0  0  0  0  0  0
  -30.7060  -12.7140   19.3770 C   0  0  0  0  0  2  0  0  0  0  0  0
  -29.7850  -12.7790   18.1350 C   0  0  0  0  0  2  0  0  0  0  0  0
  -28.2990  -12.6550   18.5300 C   0  0  0  0  0  2  0  0  0  0  0  0
  -27.9210  -13.5510   19.7390 C   0  0  0  0  0  3  0  0  0  0  0  0
  -28.9600  -13.4490   20.8770 C   0  0  0  0  0  2  0  0  0  0  0  0
  -30.2760  -13.7720   20.3160 N   0  0  0  0  0  0  0  0  0  0  0  0
  -32.0440  -15.1300   19.9670 O   0  0  0  0  0  0  0  0  0  0  0  0
  -25.5260  -14.1640   20.4280 C   0  0  0  0  0  0  0  0  0  0  0  0
  -24.4520  -13.3990   20.7890 C   0  0  0  0  0  0  0  0  0  0  0  0
  -24.9090  -12.0430   20.7770 C   0  0  0  0  0  0  0  0  0  0  0  0
  -26.5680  -13.2770   20.2120 N   0  0  0  0  0  0  0  0  0  0  0  0
  -26.2030  -11.9980   20.4860 N   0  0  0  0  0  0  0  0  0  0  0  0
  -24.1720  -10.7890   20.9630 C   0  0  0  0  0  0  0  0  0  0  0  0
  -24.5750   -9.8310   21.9190 C   0  0  0  0  0  3  0  0  0  0  0  0
  -23.8370   -8.6410   22.0970 C   0  0  0  0  0  3  0  0  0  0  0  0
  -22.6840   -8.3980   21.3130 C   0  0  0  0  0  0  0  0  0  0  0  0
  -22.3010   -9.3440   20.3450 C   0  0  0  0  0  3  0  0  0  0  0  0
  -23.0380  -10.5270   20.1690 C   0  0  0  0  0  3  0  0  0  0  0  0
  -21.9210   -7.2600   21.3970 O   0  0  0  0  0  0  0  0  0  0  0  0
  -21.8350   -6.5320   22.5590 C   0  0  0  0  0  0  0  0  0  0  0  0
  -21.3600   -7.1010   23.7590 C   0  0  0  0  0  3  0  0  0  0  0  0
  -21.2220   -6.3020   24.9110 C   0  0  0  0  0  3  0  0  0  0  0  0
  -21.5520   -4.9330   24.8620 C   0  0  0  0  0  0  0  0  0  0  0  0
  -22.0180   -4.3630   23.6660 C   0  0  0  0  0  3  0  0  0  0  0  0
  -22.1560   -5.1610   22.5150 C   0  0  0  0  0  0  0  0  0  0  0  0
  -22.5870   -4.6020   21.3590 F   0  0  0  0  0  0  0  0  0  0  0  0
  -21.4110   -4.1620   25.9660 F   0  0  0  0  0  0  0  0  0  0  0  0
  -23.0540  -13.8820   21.0330 C   0  0  0  0  0  0  0  0  0  0  0  0
  -22.3100  -13.2050   21.8970 N   0  0  0  0  0  0  0  0  0  0  0  0
  -22.6290  -14.9030   20.4880 O   0  0  0  0  0  0  0  0  0  0  0  0
  -22.6570  -12.3730   22.3530 H   0  0  0  0  0  0  0  0  0  0  0  0
  -21.3710  -13.5180   22.1030 H   0  0  0  0  0  0  0  0  0  0  0  0
  -25.6980  -15.5340   20.2400 N   0  0  0  0  0  0  0  0  0  0  0  0
  -24.9220  -16.1850   20.3120 H   0  0  0  0  0  0  0  0  0  0  0  0
  -26.5420  -15.9630   19.8820 H   0  0  0  0  0  0  0  0  0  0  0  0
  -32.4860  -19.9280   21.1780 C   0  0  0  0  0  1  0  0  0  0  0  0
  -31.6580  -20.7410   20.1530 C   0  0  0  0  0  3  0  0  0  0  0  0
  -33.5060  -21.9230   18.7580 C   0  0  0  0  0  1  0  0  0  0  0  0
  -32.3880  -20.8710   18.7910 C   0  0  0  0  0  2  0  0  0  0  0  0
  1  5  1  0
  1  4  1  0
  4  3  1  0
  4  2  1  0
  6  5  1  0
  6  7  1  0
  8 10  1  0
  8  7  1  0
  9 20  2  0
 10 15  1  0
 11 19  1  0
 11 21  1  0
 12 18  1  0
 12 14  1  0
 13 19  1  0
 14 13  1  0
 15 14  2  0
 16 17  1  0
 16 10  2  0
 17 12  2  0
 18 11  1  0
 19  9  1  0
 21 23  2  0
 22 21  1  0
 24 22  1  0
 25 34  2  0
 25 30  1  0
 26 22  1  0
 26 30  1  0
 27 26  1  0
 28 29  1  0
 28 27  1  0
 29 25  1  0
 30 31  2  0
 31 32  1  0
 33 32  2  0
 34 33  1  0
 35  9  1  0
 35 40  1  0
 35 36  1  0
 36 39  1  1
 36 37  1  0
 38 36  1  0
 40 43  1  0
 41 45  1  0
 41 40  1  0
 42 41  2  0
 45 44  1  0
 47 45  1  0
 47 48  1  0
 47 46  1  0
 49 92  1  0
 49  1  1  0
 49 50  1  0
 50 52  1  0
 50 51  1  0
 53 50  1  0
 53 54  2  0
 55 54  1  0
 56 61  1  0
 57 58  1  0
 57 56  1  0
 59 58  1  0
 59 66  1  0
 59 60  1  0
 61 55  1  0
 61 60  1  0
 62 55  2  0
 63 64  2  0
 64 83  1  0
 65 64  1  0
 65 68  1  0
 66 63  1  0
 66 67  1  0
 67 65  2  0
 68 69  1  0
 69 70  2  0
 71 74  1  0
 71 70  1  0
 72 71  2  0
 73 72  1  0
 73 68  2  0
 74 75  1  0
 75 76  1  0
 76 77  2  0
 78 77  1  0
 78 82  1  0
 79 78  2  0
 80 75  2  0
 80 79  1  0
 81 80  1  0
 83 84  1  0
 84 87  1  0
 84 86  1  0
 85 83  2  0
 88 89  1  0
 88 63  1  0
 90 88  1  0
 92 91  1  0
 93 94  1  0
 94 92  1  0
M  ISO  4   7 101   8 101  54 100  55 100
M  END
>  <TORSDO>  (71) 
F 26

>  <SCORE>  (71) 
-11.356

>  <name>  (71) 
72

>  <ligand_id>  (71) 
72

>  <original_smiles>  (71) 
[H]c1c([H])c([H])c2c(c1[H])C([H])([H])C([H])([H])C([H])([H])C2([H])N([H])C(=O)C1([H])N(C(=O)C([H])(N([H])C(=O)C([H])(N([H])C([H])([H])[H])C([H])([H])[H])C(C([H])([H])[H])(C([H])([H])[H])C([H])([H])[H])C([H])([H])c2c([H])c(OC([H])([H])C([H])([H])C([H])([H])C([H])(C([H])(C([H])([H])[H])C([H])([H])[H])C([H])(C([H])(C([H])([H])[H])C([H])([H])C([H])([H])[H])[N+]([H])([H])C([H])([H])C([H])([H])C(=O)N3C([H])([H])C([H])([H])C([H])([H])C([H])(n4nc(-c5c([H])c([H])c(Oc6c([H])c([H])c(F)c([H])c6F)c([H])c5[H])c(C(=O)N([H])[H])c4N([H])[H])C3([H])[H])c([H])c([H])c2C1([H])[H]

>  <smiles>  (71) 
[H]c1c([H])c([H])c2c(c1[H])C([H])([H])C([H])([H])C([H])([H])C2([H])N([H])C(=O)C1([H])N(C(=O)C([H])(N([H])C(=O)C([H])(N([H])C([H])([H])[H])C([H])([H])[H])C(C([H])([H])[H])(C([H])([H])[H])C([H])([H])[H])C([H])([H])c2c([H])c(OC([H])([H])C([H])([H])C([H])([H])C([H])(C([H])(C([H])([H])[H])C([H])([H])[H])C([H])(C([H])(C([H])([H])[H])C([H])([H])C([H])([H])[H])[N+]([H])([H])C([H])([H])C([H])([H])C(=O)N3C([H])([H])C([H])([H])C([H])([H])C([H])(n4nc(-c5c([H])c([H])c(Oc6c([H])c([H])c(F)c([H])c6F)c([H])c5[H])c(C(=O)N([H])[H])c4N([H])[H])C3([H])[H])c([H])c([H])c2C1([H])[H]

$$$$
73:0:0
     RDKit          3D

 89 97  0  0  1  0  0  0  0  0999 V2000
  -30.4190  -19.1670   20.3690 C   0  0  0  0  0  2  0  0  0  0  0  0
  -29.9450  -20.8620   20.6430 C   0  0  0  0  0  2  0  0  0  0  0  0
  -26.7900  -20.7200   19.0540 C   0  0  0  0  0  2  0  0  0  0  0  0
  -28.3170  -18.6850   19.7810 C   0  0  0  0  0  2  0  0  0  0  0  0
  -27.6040  -21.2680   17.8890 C   0  0  0  0  0  2  0  0  0  0  0  0
  -29.5460  -17.6860   20.4390 C   0  0  0  0  0  3  0  0  0  0  0  0
  -27.8500  -20.3880   20.0970 C   0  0  0  0  0  3  0  0  0  0  0  0
  -28.7290  -21.8680   19.9560 C   0  0  0  0  0  3  0  0  0  0  0  0
  -30.0560  -21.5940   17.7810 C   0  0  0  0  0  1  0  0  0  0  0  0
  -28.7880  -21.9520   18.4630 N   0  0  1  0  0  4  0  0  0  0  0  0
  -28.6380  -22.9260   18.2390 H   0  0  0  0  0  0  0  0  0  0  0  0
  -30.1980  -15.8820   20.1310 C   0  0  0  0  0  0  0  0  0  0  0  0
  -30.3630  -13.2970   19.3200 C   0  0  0  0  0  2  0  0  0  0  0  0
  -29.4800  -12.8540   18.1100 C   0  0  0  0  0  2  0  0  0  0  0  0
  -28.0600  -12.4730   18.5560 C   0  0  0  0  0  2  0  0  0  0  0  0
  -27.5440  -13.4560   19.6300 C   0  0  0  0  0  3  0  0  0  0  0  0
  -28.5730  -13.7850   20.7400 C   0  0  0  0  0  2  0  0  0  0  0  0
  -29.7230  -14.4760   20.0970 N   0  0  0  0  0  0  0  0  0  0  0  0
  -31.4180  -15.7740   19.8800 O   0  0  0  0  0  0  0  0  0  0  0  0
  -25.1870  -13.9620   20.4120 C   0  0  0  0  0  0  0  0  0  0  0  0
  -24.1370  -13.1790   20.7870 C   0  0  0  0  0  0  0  0  0  0  0  0
  -24.6170  -11.8320   20.7590 C   0  0  0  0  0  0  0  0  0  0  0  0
  -26.2360  -13.1010   20.1570 N   0  0  0  0  0  0  0  0  0  0  0  0
  -25.9100  -11.8110   20.4370 N   0  0  0  0  0  0  0  0  0  0  0  0
  -23.9000  -10.5630   20.9580 C   0  0  0  0  0  0  0  0  0  0  0  0
  -24.3250   -9.6160   21.9150 C   0  0  0  0  0  3  0  0  0  0  0  0
  -23.6050   -8.4170   22.1070 C   0  0  0  0  0  3  0  0  0  0  0  0
  -22.4450   -8.1550   21.3380 C   0  0  0  0  0  0  0  0  0  0  0  0
  -22.0380   -9.0920   20.3710 C   0  0  0  0  0  3  0  0  0  0  0  0
  -22.7600  -10.2820   20.1790 C   0  0  0  0  0  3  0  0  0  0  0  0
  -21.6960   -7.0070   21.4340 O   0  0  0  0  0  0  0  0  0  0  0  0
  -21.6140   -6.2970   22.6050 C   0  0  0  0  0  0  0  0  0  0  0  0
  -21.0840   -6.8650   23.7840 C   0  0  0  0  0  3  0  0  0  0  0  0
  -20.9540   -6.0800   24.9470 C   0  0  0  0  0  3  0  0  0  0  0  0
  -21.3430   -4.7260   24.9310 C   0  0  0  0  0  0  0  0  0  0  0  0
  -21.8640   -4.1560   23.7560 C   0  0  0  0  0  3  0  0  0  0  0  0
  -21.9960   -4.9400   22.5950 C   0  0  0  0  0  0  0  0  0  0  0  0
  -22.4770   -4.3800   21.4590 F   0  0  0  0  0  0  0  0  0  0  0  0
  -21.2100   -3.9690   26.0460 F   0  0  0  0  0  0  0  0  0  0  0  0
  -22.7350  -13.6450   21.0500 C   0  0  0  0  0  0  0  0  0  0  0  0
  -22.0080  -12.9600   21.9250 N   0  0  0  0  0  0  0  0  0  0  0  0
  -22.2900  -14.6580   20.5120 O   0  0  0  0  0  0  0  0  0  0  0  0
  -22.3770  -12.1400   22.3830 H   0  0  0  0  0  0  0  0  0  0  0  0
  -21.0670  -13.2610   22.1320 H   0  0  0  0  0  0  0  0  0  0  0  0
  -25.3440  -15.3350   20.2270 N   0  0  0  0  0  0  0  0  0  0  0  0
  -24.5960  -16.0010   20.3820 H   0  0  0  0  0  0  0  0  0  0  0  0
  -26.1850  -15.7610   19.8610 H   0  0  0  0  0  0  0  0  0  0  0  0
  -28.0810  -23.7240   20.4080 C   0  0  0  0  0  1  0  0  0  0  0  0
  -28.2440  -25.5160   20.2410 O   0  0  0  0  0  0  0  0  0  0  0  0
  -24.7160  -31.8780   23.2450 C   0  0  0  0  0  0  0  0  0  0  0  0
  -27.2750  -26.7620   20.2480 C   0  0  0  0  0  0  0  0  0  0  0  0
  -23.5480  -30.4820   21.5920 C   0  0  0  0  0  3  0  0  0  0  0  0
  -25.0180  -28.8460   20.1780 C   0  0  0  0  0  0  0  0  0  0  0  0
  -26.1320  -30.6120   21.5100 C   0  0  0  0  0  2  0  0  0  0  0  0
  -26.2060  -29.1810   20.8360 C   0  0  0  0  0  0  0  0  0  0  0  0
  -27.3180  -28.1700   20.8340 C   0  0  0  0  0  3  0  0  0  0  0  0
  -26.0560  -26.6650   19.5260 C   0  0  0  0  0  3  0  0  0  0  0  0
  -24.9900  -27.6180   19.4950 C   0  0  0  0  0  3  0  0  0  0  0  0
  -23.8130  -29.8020   20.2160 C   0  0  0  0  0  2  0  0  0  0  0  0
  -24.8210  -31.0260   22.1670 N   0  0  0  0  0  0  0  0  0  0  0  0
  -23.6130  -32.1770   23.7410 O   0  0  0  0  0  0  0  0  0  0  0  0
  -22.8220  -29.4970   22.5500 C   0  0  0  0  0  0  0  0  0  0  0  0
  -21.4930  -29.3310   22.4060 N   0  0  0  0  0  0  0  0  0  0  0  0
  -23.4720  -28.8810   23.3980 O   0  0  0  0  0  0  0  0  0  0  0  0
  -21.0220  -29.8730   21.6940 H   0  0  0  0  0  0  0  0  0  0  0  0
  -18.1020  -28.1020   22.9080 C   0  0  0  0  0  0  0  0  0  0  0  0
  -20.6620  -28.3870   23.1690 C   0  0  0  0  0  3  0  0  0  0  0  0
  -20.7740  -26.9580   22.5880 C   0  0  0  0  0  2  0  0  0  0  0  0
  -19.6730  -26.6370   21.5720 C   0  0  0  0  0  2  0  0  0  0  0  0
  -18.2890  -26.7650   22.2120 C   0  0  0  0  0  2  0  0  0  0  0  0
  -19.2160  -28.8730   23.3400 C   0  0  0  0  0  0  0  0  0  0  0  0
  -18.9810  -30.1240   23.9510 C   0  0  0  0  0  3  0  0  0  0  0  0
  -17.6710  -30.6040   24.1310 C   0  0  0  0  0  3  0  0  0  0  0  0
  -16.5740  -29.8320   23.7130 C   0  0  0  0  0  3  0  0  0  0  0  0
  -16.7920  -28.5820   23.1080 C   0  0  0  0  0  3  0  0  0  0  0  0
  -25.9680  -32.5370   23.9000 C   0  0  0  0  0  3  0  0  0  0  0  0
  -25.6430  -33.9390   24.2340 N   0  0  0  0  0  0  0  0  0  0  0  0
  -25.9420  -35.0050   23.4820 C   0  0  0  0  0  0  0  0  0  0  0  0
  -26.5890  -34.9170   22.4360 O   0  0  0  0  0  0  0  0  0  0  0  0
  -25.1100  -34.0850   25.0790 H   0  0  0  0  0  0  0  0  0  0  0  0
  -24.1920  -36.7860   23.1670 C   0  0  0  0  0  1  0  0  0  0  0  0
  -25.4490  -36.3890   23.9590 C   0  0  0  0  0  3  0  0  0  0  0  0
  -27.5760  -37.2890   24.7860 C   0  0  0  0  0  1  0  0  0  0  0  0
  -26.4710  -37.4530   23.8470 N   0  0  0  0  0  0  0  0  0  0  0  0
  -26.0540  -38.3670   24.0110 H   0  0  0  0  0  0  0  0  0  0  0  0
  -26.4560  -31.7890   25.2020 C   0  0  1  0  0  0  0  0  0  0  0  0
  -25.3350  -31.5540   26.2430 C   0  0  0  0  0  1  0  0  0  0  0  0
  -27.0690  -30.4150   24.8620 C   0  0  0  0  0  1  0  0  0  0  0  0
  -27.5870  -32.5970   25.8830 C   0  0  0  0  0  1  0  0  0  0  0  0
  1  6  1  0
  1  2  1  0
  4  7  1  0
  4  6  1  0
  5 10  1  0
  5  3  1  0
  6 12  1  0
  7  3  1  0
  8  7  1  0
  8  2  1  0
  9 10  1  0
 10  8  1  0
 10 11  1  1
 13 18  1  0
 14 15  1  0
 14 13  1  0
 16 15  1  0
 16 23  1  0
 16 17  1  0
 18 12  1  0
 18 17  1  0
 19 12  2  0
 20 21  2  0
 21 40  1  0
 22 21  1  0
 22 25  1  0
 23 20  1  0
 23 24  1  0
 24 22  2  0
 25 26  1  0
 26 27  2  0
 28 31  1  0
 28 27  1  0
 29 28  2  0
 30 29  1  0
 30 25  2  0
 31 32  1  0
 32 33  1  0
 33 34  2  0
 35 34  1  0
 35 39  1  0
 36 35  2  0
 37 32  2  0
 37 36  1  0
 38 37  1  0
 40 41  1  0
 41 44  1  0
 41 43  1  0
 42 40  2  0
 45 46  1  0
 45 20  1  0
 47 45  1  0
 49 51  1  0
 49 48  1  0
 50 61  2  0
 51 56  1  0
 52 60  1  0
 52 62  1  0
 53 59  1  0
 53 55  1  0
 54 60  1  0
 55 54  1  0
 56 55  2  0
 57 51  2  0
 58 57  1  0
 58 53  2  0
 59 52  1  0
 60 50  1  0
 62 64  2  0
 63 62  1  0
 65 63  1  0
 66 75  2  0
 66 71  1  0
 67 63  1  0
 67 71  1  0
 68 67  1  0
 69 70  1  0
 69 68  1  0
 70 66  1  0
 71 72  2  0
 72 73  1  0
 74 73  2  0
 75 74  1  0
 76 50  1  0
 76 77  1  0
 76 86  1  0
 77 80  1  0
 78 82  1  0
 78 77  1  0
 79 78  2  0
 82 81  1  0
 84 82  1  0
 84 85  1  0
 84 83  1  0
 86 89  1  1
 86 87  1  0
 88 86  1  0
M  ISO  4   6 100  12 100  48 101  49 101
M  END
>  <TORSDO>  (72) 
F 17

>  <SCORE>  (72) 
-16.449

>  <name>  (72) 
73

>  <ligand_id>  (72) 
73

>  <original_smiles>  (72) 
[H]c1c([H])c([H])c2c(c1[H])C([H])([H])C([H])([H])C([H])([H])C2([H])N([H])C(=O)C1([H])N(C(=O)C([H])(N([H])C(=O)C([H])(N([H])C([H])([H])[H])C([H])([H])[H])C(C([H])([H])[H])(C([H])([H])[H])C([H])([H])[H])C([H])([H])c2c([H])c(OC([H])([H])C34C([H])([H])C([H])([H])C([H])(C(=O)N5C([H])([H])C([H])([H])C([H])([H])C([H])(n6nc(-c7c([H])c([H])c(Oc8c([H])c([H])c(F)c([H])c8F)c([H])c7[H])c(C(=O)N([H])[H])c6N([H])[H])C5([H])[H])C([H])([H])C3([H])C([H])([H])C([H])([H])[N+]4([H])C([H])([H])[H])c([H])c([H])c2C1([H])[H]

>  <smiles>  (72) 
[H]c1c([H])c([H])c2c(c1[H])C([H])([H])C([H])([H])C([H])([H])C2([H])N([H])C(=O)C1([H])N(C(=O)C([H])(N([H])C(=O)C([H])(N([H])C([H])([H])[H])C([H])([H])[H])C(C([H])([H])[H])(C([H])([H])[H])C([H])([H])[H])C([H])([H])c2c([H])c(OC([H])([H])C34C([H])([H])C([H])([H])C([H])(C(=O)N5C([H])([H])C([H])([H])C([H])([H])C([H])(n6nc(-c7c([H])c([H])c(Oc8c([H])c([H])c(F)c([H])c8F)c([H])c7[H])c(C(=O)N([H])[H])c6N([H])[H])C5([H])[H])C([H])([H])C3([H])C([H])([H])C([H])([H])[N+]4([H])C([H])([H])[H])c([H])c([H])c2C1([H])[H]

$$$$
74:0:0
     RDKit          3D

 92100  0  0  1  0  0  0  0  0999 V2000
  -29.9050  -22.4840   22.2060 C   0  0  0  0  0  1  0  0  0  0  0  0
  -30.4080  -22.3910   20.7420 C   0  0  0  0  0  3  0  0  0  0  0  0
  -29.6580  -23.3040   19.8440 N   0  0  0  0  0  4  0  0  0  0  0  0
  -29.9740  -23.1730   18.8960 H   0  0  0  0  0  0  0  0  0  0  0  0
  -28.6900  -23.0250   19.8830 H   0  0  0  0  0  0  0  0  0  0  0  0
  -29.7400  -24.7540   20.1560 C   0  0  0  0  0  2  0  0  0  0  0  0
  -28.5290  -25.5010   19.5800 C   0  0  0  0  0  2  0  0  0  0  0  0
  -28.4790  -26.8230   20.1200 O   0  0  0  0  0  0  0  0  0  0  0  0
  -24.5990  -31.8950   23.2520 C   0  0  0  0  0  0  0  0  0  0  0  0
  -27.2710  -27.4930   20.1230 C   0  0  0  0  0  0  0  0  0  0  0  0
  -23.3970  -30.4950   21.6060 C   0  0  0  0  0  3  0  0  0  0  0  0
  -24.8550  -28.9740   20.1680 C   0  0  0  0  0  0  0  0  0  0  0  0
  -25.9210  -30.8620   21.4120 C   0  0  0  0  0  2  0  0  0  0  0  0
  -26.0100  -29.4980   20.7600 C   0  0  0  0  0  0  0  0  0  0  0  0
  -27.2180  -28.7650   20.7340 C   0  0  0  0  0  3  0  0  0  0  0  0
  -26.0890  -26.9770   19.5340 C   0  0  0  0  0  3  0  0  0  0  0  0
  -24.8870  -27.7100   19.5550 C   0  0  0  0  0  3  0  0  0  0  0  0
  -23.6080  -29.8300   20.2190 C   0  0  0  0  0  2  0  0  0  0  0  0
  -24.6560  -31.0970   22.1480 N   0  0  0  0  0  0  0  0  0  0  0  0
  -23.5200  -32.1610   23.7990 O   0  0  0  0  0  0  0  0  0  0  0  0
  -22.7530  -29.4620   22.5590 C   0  0  0  0  0  0  0  0  0  0  0  0
  -21.4280  -29.2820   22.4320 N   0  0  0  0  0  0  0  0  0  0  0  0
  -23.4390  -28.8250   23.3660 O   0  0  0  0  0  0  0  0  0  0  0  0
  -20.9350  -29.8420   21.7510 H   0  0  0  0  0  0  0  0  0  0  0  0
  -18.0560  -28.1000   22.9400 C   0  0  0  0  0  0  0  0  0  0  0  0
  -20.6160  -28.3420   23.2020 C   0  0  0  0  0  3  0  0  0  0  0  0
  -20.7110  -26.9170   22.6130 C   0  0  0  0  0  2  0  0  0  0  0  0
  -19.6030  -26.6080   21.5990 C   0  0  0  0  0  2  0  0  0  0  0  0
  -18.2230  -26.7570   22.2520 C   0  0  0  0  0  2  0  0  0  0  0  0
  -19.1790  -28.8530   23.3720 C   0  0  0  0  0  0  0  0  0  0  0  0
  -18.9720  -30.1140   23.9740 C   0  0  0  0  0  3  0  0  0  0  0  0
  -17.6710  -30.6210   24.1440 C   0  0  0  0  0  3  0  0  0  0  0  0
  -16.5600  -29.8650   23.7330 C   0  0  0  0  0  3  0  0  0  0  0  0
  -16.7540  -28.6070   23.1350 C   0  0  0  0  0  3  0  0  0  0  0  0
  -25.8860  -32.5250   23.8660 C   0  0  0  0  0  3  0  0  0  0  0  0
  -25.5800  -33.9210   24.1990 N   0  0  0  0  0  0  0  0  0  0  0  0
  -25.9120  -34.9740   23.4390 C   0  0  0  0  0  0  0  0  0  0  0  0
  -26.5810  -34.8690   22.4070 O   0  0  0  0  0  0  0  0  0  0  0  0
  -24.9800  -34.0730   24.9960 H   0  0  0  0  0  0  0  0  0  0  0  0
  -24.1760  -36.7480   23.0800 C   0  0  0  0  0  1  0  0  0  0  0  0
  -25.4210  -36.3620   23.8940 C   0  0  0  0  0  3  0  0  0  0  0  0
  -27.5530  -37.2470   24.7210 C   0  0  0  0  0  1  0  0  0  0  0  0
  -26.4530  -37.4160   23.7750 N   0  0  0  0  0  0  0  0  0  0  0  0
  -26.0500  -38.3370   23.9280 H   0  0  0  0  0  0  0  0  0  0  0  0
  -26.4010  -31.7530   25.1380 C   0  0  1  0  0  0  0  0  0  0  0  0
  -25.3050  -31.5050   26.2020 C   0  0  0  0  0  1  0  0  0  0  0  0
  -26.9820  -30.3790   24.7400 C   0  0  0  0  0  1  0  0  0  0  0  0
  -27.5580  -32.5410   25.7980 C   0  0  0  0  0  1  0  0  0  0  0  0
  -30.3940  -20.9290   20.2090 C   0  0  0  0  0  2  0  0  0  0  0  0
  -29.0470  -20.1760   20.3430 C   0  0  0  0  0  2  0  0  0  0  0  0
  -29.4340  -16.4600   19.1630 C   0  0  0  0  0  2  0  0  0  0  0  0
  -30.6290  -16.7860   21.4090 C   0  0  0  0  0  2  0  0  0  0  0  0
  -29.6660  -17.9820   19.1000 C   0  0  0  0  0  2  0  0  0  0  0  0
  -29.8610  -18.1010   21.6440 C   0  0  0  0  0  2  0  0  0  0  0  0
  -29.8550  -15.7980   20.5180 C   0  0  0  0  0  3  0  0  0  0  0  0
  -29.1360  -18.6340   20.3850 C   0  0  0  0  0  3  0  0  0  0  0  0
  -30.6660  -14.4990   20.2720 C   0  0  0  0  0  0  0  0  0  0  0  0
  -30.3680  -12.3220   19.1860 C   0  0  0  0  0  2  0  0  0  0  0  0
  -29.4190  -12.5510   17.9840 C   0  0  0  0  0  2  0  0  0  0  0  0
  -27.9410  -12.4410   18.4170 C   0  0  0  0  0  2  0  0  0  0  0  0
  -27.6230  -13.2650   19.6920 C   0  0  0  0  0  3  0  0  0  0  0  0
  -28.6860  -13.0310   20.7850 C   0  0  0  0  0  2  0  0  0  0  0  0
  -30.0140  -13.3080   20.2130 N   0  0  0  0  0  0  0  0  0  0  0  0
  -31.8430  -14.6180   19.9200 O   0  0  0  0  0  0  0  0  0  0  0  0
  -25.2400  -13.8870   20.4340 C   0  0  0  0  0  0  0  0  0  0  0  0
  -24.1720  -13.1230   20.8120 C   0  0  0  0  0  0  0  0  0  0  0  0
  -24.6290  -11.7670   20.7870 C   0  0  0  0  0  0  0  0  0  0  0  0
  -26.2790  -13.0010   20.1960 N   0  0  0  0  0  0  0  0  0  0  0  0
  -25.9160  -11.7220   20.4660 N   0  0  0  0  0  0  0  0  0  0  0  0
  -23.9050  -10.5060   20.9860 C   0  0  0  0  0  0  0  0  0  0  0  0
  -24.3430   -9.5430   21.9230 C   0  0  0  0  0  3  0  0  0  0  0  0
  -23.6180   -8.3460   22.1150 C   0  0  0  0  0  3  0  0  0  0  0  0
  -22.4410   -8.1040   21.3670 C   0  0  0  0  0  0  0  0  0  0  0  0
  -22.0230   -9.0530   20.4190 C   0  0  0  0  0  3  0  0  0  0  0  0
  -22.7480  -10.2420   20.2250 C   0  0  0  0  0  3  0  0  0  0  0  0
  -21.6890   -6.9620   21.4620 O   0  0  0  0  0  0  0  0  0  0  0  0
  -21.6400   -6.2280   22.6200 C   0  0  0  0  0  0  0  0  0  0  0  0
  -21.2190   -6.7940   23.8440 C   0  0  0  0  0  3  0  0  0  0  0  0
  -21.1190   -5.9870   24.9940 C   0  0  0  0  0  3  0  0  0  0  0  0
  -21.4280   -4.6150   24.9200 C   0  0  0  0  0  0  0  0  0  0  0  0
  -21.8440   -4.0500   23.7020 C   0  0  0  0  0  3  0  0  0  0  0  0
  -21.9470   -4.8550   22.5540 C   0  0  0  0  0  0  0  0  0  0  0  0
  -22.3270   -4.3010   21.3760 F   0  0  0  0  0  0  0  0  0  0  0  0
  -21.3230   -3.8370   26.0230 F   0  0  0  0  0  0  0  0  0  0  0  0
  -22.7750  -13.6020   21.0860 C   0  0  0  0  0  0  0  0  0  0  0  0
  -22.0520  -12.9130   21.9590 N   0  0  0  0  0  0  0  0  0  0  0  0
  -22.3310  -14.6190   20.5500 O   0  0  0  0  0  0  0  0  0  0  0  0
  -22.4180  -12.0930   22.4200 H   0  0  0  0  0  0  0  0  0  0  0  0
  -21.1130  -13.2110   22.1780 H   0  0  0  0  0  0  0  0  0  0  0  0
  -25.4090  -15.2590   20.2540 N   0  0  0  0  0  0  0  0  0  0  0  0
  -24.6430  -15.9180   20.3530 H   0  0  0  0  0  0  0  0  0  0  0  0
  -26.2680  -15.6980   19.9480 H   0  0  0  0  0  0  0  0  0  0  0  0
  2  1  1  0
  3  5  1  0
  3  6  1  0
  3  2  1  0
  4  3  1  0
  7  8  1  0
  7  6  1  0
  8 10  1  0
  9 20  2  0
 10 15  1  0
 11 19  1  0
 11 21  1  0
 12 18  1  0
 12 14  1  0
 13 19  1  0
 14 13  1  0
 15 14  2  0
 16 17  1  0
 16 10  2  0
 17 12  2  0
 18 11  1  0
 19  9  1  0
 21 23  2  0
 22 21  1  0
 24 22  1  0
 25 34  2  0
 25 30  1  0
 26 22  1  0
 26 30  1  0
 27 26  1  0
 28 29  1  0
 28 27  1  0
 29 25  1  0
 30 31  2  0
 31 32  1  0
 33 32  2  0
 34 33  1  0
 35  9  1  0
 35 36  1  0
 35 45  1  0
 36 39  1  0
 37 41  1  0
 37 36  1  0
 38 37  2  0
 41 40  1  0
 43 41  1  0
 43 44  1  0
 43 42  1  0
 45 48  1  1
 45 46  1  0
 47 45  1  0
 49 50  1  0
 49  2  1  0
 51 55  1  0
 52 54  1  0
 53 51  1  0
 53 56  1  0
 55 57  1  0
 55 52  1  0
 56 50  1  0
 56 54  1  0
 58 63  1  0
 59 60  1  0
 59 58  1  0
 61 60  1  0
 61 68  1  0
 61 62  1  0
 63 57  1  0
 63 62  1  0
 64 57  2  0
 65 66  2  0
 66 85  1  0
 67 66  1  0
 67 70  1  0
 68 65  1  0
 68 69  1  0
 69 67  2  0
 70 71  1  0
 71 72  2  0
 73 76  1  0
 73 72  1  0
 74 73  2  0
 75 74  1  0
 75 70  2  0
 76 77  1  0
 77 78  1  0
 78 79  2  0
 80 79  1  0
 80 84  1  0
 81 80  2  0
 82 77  2  0
 82 81  1  0
 83 82  1  0
 85 86  1  0
 86 89  1  0
 86 88  1  0
 87 85  2  0
 90 91  1  0
 90 65  1  0
 92 90  1  0
M  ISO  4   7 101   8 101  55 100  57 100
M  END
>  <TORSDO>  (73) 
F 22

>  <SCORE>  (73) 
-13.099

>  <name>  (73) 
74

>  <ligand_id>  (73) 
74

>  <original_smiles>  (73) 
[H]c1c([H])c([H])c2c(c1[H])C([H])([H])C([H])([H])C([H])([H])C2([H])N([H])C(=O)C1([H])N(C(=O)C([H])(N([H])C(=O)C([H])(N([H])C([H])([H])[H])C([H])([H])[H])C(C([H])([H])[H])(C([H])([H])[H])C([H])([H])[H])C([H])([H])c2c([H])c(OC([H])([H])C([H])([H])[N+]([H])([H])C([H])(C([H])([H])[H])C([H])([H])C([H])([H])C3([H])C([H])([H])C([H])([H])C([H])(C(=O)N4C([H])([H])C([H])([H])C([H])([H])C([H])(n5nc(-c6c([H])c([H])c(Oc7c([H])c([H])c(F)c([H])c7F)c([H])c6[H])c(C(=O)N([H])[H])c5N([H])[H])C4([H])[H])C([H])([H])C3([H])[H])c([H])c([H])c2C1([H])[H]

>  <smiles>  (73) 
[H]c1c([H])c([H])c2c(c1[H])C([H])([H])C([H])([H])C([H])([H])C2([H])N([H])C(=O)C1([H])N(C(=O)C([H])(N([H])C(=O)C([H])(N([H])C([H])([H])[H])C([H])([H])[H])C(C([H])([H])[H])(C([H])([H])[H])C([H])([H])[H])C([H])([H])c2c([H])c(OC([H])([H])C([H])([H])[N+]([H])([H])C([H])(C([H])([H])[H])C([H])([H])C([H])([H])C3([H])C([H])([H])C([H])([H])C([H])(C(=O)N4C([H])([H])C([H])([H])C([H])([H])C([H])(n5nc(-c6c([H])c([H])c(Oc7c([H])c([H])c(F)c([H])c7F)c([H])c6[H])c(C(=O)N([H])[H])c5N([H])[H])C4([H])[H])C([H])([H])C3([H])[H])c([H])c([H])c2C1([H])[H]

$$$$
75:0:0
     RDKit          3D

 90 97  0  0  1  0  0  0  0  0999 V2000
  -29.6640  -21.3160   20.6820 C   0  0  0  0  0  3  0  0  0  0  0  0
  -28.7880  -22.4790   20.0640 C   0  0  0  0  0  3  0  0  0  0  0  0
  -29.1090  -23.9850   20.4550 C   0  0  0  0  0  3  0  0  0  0  0  0
  -28.0590  -25.0480   19.9420 C   0  0  0  0  0  3  0  0  0  0  0  0
  -28.2710  -26.4880   20.1800 O   0  0  0  0  0  0  0  0  0  0  0  0
  -24.5900  -31.8900   23.1990 C   0  0  0  0  0  0  0  0  0  0  0  0
  -27.1490  -27.3270   20.1230 C   0  0  0  0  0  0  0  0  0  0  0  0
  -23.3580  -30.4850   21.5860 C   0  0  0  0  0  3  0  0  0  0  0  0
  -24.7820  -28.9290   20.1450 C   0  0  0  0  0  0  0  0  0  0  0  0
  -25.8940  -30.8010   21.3630 C   0  0  0  0  0  2  0  0  0  0  0  0
  -25.9600  -29.4210   20.7220 C   0  0  0  0  0  0  0  0  0  0  0  0
  -27.1450  -28.6310   20.7050 C   0  0  0  0  0  3  0  0  0  0  0  0
  -25.9490  -26.8950   19.5080 C   0  0  0  0  0  3  0  0  0  0  0  0
  -24.7770  -27.6700   19.5320 C   0  0  0  0  0  3  0  0  0  0  0  0
  -23.5480  -29.8030   20.2070 C   0  0  0  0  0  2  0  0  0  0  0  0
  -24.6340  -31.0750   22.1060 N   0  0  0  0  0  0  0  0  0  0  0  0
  -23.5150  -32.1740   23.7480 O   0  0  0  0  0  0  0  0  0  0  0  0
  -22.7100  -29.4740   22.5600 C   0  0  0  0  0  0  0  0  0  0  0  0
  -21.3820  -29.2950   22.4490 N   0  0  0  0  0  0  0  0  0  0  0  0
  -23.3980  -28.8540   23.3760 O   0  0  0  0  0  0  0  0  0  0  0  0
  -20.8870  -29.8440   21.7600 H   0  0  0  0  0  0  0  0  0  0  0  0
  -18.0130  -28.0980   22.9870 C   0  0  0  0  0  0  0  0  0  0  0  0
  -20.5720  -28.3650   23.2360 C   0  0  0  0  0  3  0  0  0  0  0  0
  -20.6730  -26.9270   22.6770 C   0  0  0  0  0  2  0  0  0  0  0  0
  -19.5650  -26.5900   21.6750 C   0  0  0  0  0  2  0  0  0  0  0  0
  -18.1870  -26.7400   22.3260 C   0  0  0  0  0  2  0  0  0  0  0  0
  -19.1330  -28.8660   23.4000 C   0  0  0  0  0  0  0  0  0  0  0  0
  -18.9170  -30.1360   23.9770 C   0  0  0  0  0  3  0  0  0  0  0  0
  -17.6130  -30.6390   24.1450 C   0  0  0  0  0  3  0  0  0  0  0  0
  -16.5070  -29.8680   23.7480 C   0  0  0  0  0  3  0  0  0  0  0  0
  -16.7080  -28.5980   23.1780 C   0  0  0  0  0  3  0  0  0  0  0  0
  -25.8850  -32.5220   23.7970 C   0  0  0  0  0  3  0  0  0  0  0  0
  -25.5740  -33.9140   24.1540 N   0  0  0  0  0  0  0  0  0  0  0  0
  -25.8850  -34.9790   23.4030 C   0  0  0  0  0  0  0  0  0  0  0  0
  -26.5330  -34.8950   22.3570 O   0  0  0  0  0  0  0  0  0  0  0  0
  -24.9950  -34.0520   24.9690 H   0  0  0  0  0  0  0  0  0  0  0  0
  -24.1380  -36.7670   23.1140 C   0  0  0  0  0  1  0  0  0  0  0  0
  -25.4000  -36.3580   23.8920 C   0  0  0  0  0  3  0  0  0  0  0  0
  -27.5500  -37.2400   24.6850 C   0  0  0  0  0  1  0  0  0  0  0  0
  -26.4240  -37.4180   23.7720 N   0  0  0  0  0  0  0  0  0  0  0  0
  -26.0160  -38.3330   23.9470 H   0  0  0  0  0  0  0  0  0  0  0  0
  -26.4380  -31.7370   25.0490 C   0  0  1  0  0  0  0  0  0  0  0  0
  -25.3730  -31.4760   26.1400 C   0  0  0  0  0  1  0  0  0  0  0  0
  -27.0200  -30.3690   24.6240 C   0  0  0  0  0  1  0  0  0  0  0  0
  -27.6000  -32.5300   25.6930 C   0  0  0  0  0  1  0  0  0  0  0  0
  -29.4280  -19.8490   20.1210 C   0  0  0  0  0  2  0  0  0  0  0  0
  -30.3350  -18.6700   20.6780 C   0  0  0  0  0  3  0  0  0  0  0  0
  -31.2640  -18.9830   22.9780 C   0  0  0  0  0  0  0  0  0  0  0  0
  -30.9410  -18.9910   24.4660 C   0  0  0  0  0  1  0  0  0  0  0  0
  -30.2650  -18.6770   22.1390 N   0  0  0  0  0  0  0  0  0  0  0  0
  -32.4050  -19.2530   22.6040 O   0  0  0  0  0  0  0  0  0  0  0  0
  -29.3660  -18.4670   22.5520 H   0  0  0  0  0  0  0  0  0  0  0  0
  -30.0450  -17.2090   20.1200 C   0  0  0  0  0  2  0  0  0  0  0  0
  -30.3920  -15.9500   21.0300 C   0  0  0  0  0  2  0  0  0  0  0  0
  -30.9790  -14.6710   20.3240 C   0  0  0  0  0  0  0  0  0  0  0  0
  -30.6720  -12.4750   19.1950 C   0  0  0  0  0  2  0  0  0  0  0  0
  -29.7380  -12.6580   17.9800 C   0  0  0  0  0  2  0  0  0  0  0  0
  -28.2610  -12.5340   18.4030 C   0  0  0  0  0  2  0  0  0  0  0  0
  -27.9280  -13.3850   19.6600 C   0  0  0  0  0  3  0  0  0  0  0  0
  -28.9800  -13.1700   20.7710 C   0  0  0  0  0  2  0  0  0  0  0  0
  -30.3000  -13.4840   20.2070 N   0  0  0  0  0  0  0  0  0  0  0  0
  -32.0990  -14.7920   19.8190 O   0  0  0  0  0  0  0  0  0  0  0  0
  -25.5350  -14.0250   20.3490 C   0  0  0  0  0  0  0  0  0  0  0  0
  -24.4550  -13.2710   20.7210 C   0  0  0  0  0  0  0  0  0  0  0  0
  -24.8980  -11.9120   20.7090 C   0  0  0  0  0  0  0  0  0  0  0  0
  -26.5710  -13.1280   20.1360 N   0  0  0  0  0  0  0  0  0  0  0  0
  -26.1910  -11.8520   20.4110 N   0  0  0  0  0  0  0  0  0  0  0  0
  -24.1530  -10.6630   20.9140 C   0  0  0  0  0  0  0  0  0  0  0  0
  -24.5610   -9.7070   21.8700 C   0  0  0  0  0  3  0  0  0  0  0  0
  -23.8160   -8.5230   22.0590 C   0  0  0  0  0  3  0  0  0  0  0  0
  -22.6510   -8.2850   21.2920 C   0  0  0  0  0  0  0  0  0  0  0  0
  -22.2630   -9.2290   20.3250 C   0  0  0  0  0  3  0  0  0  0  0  0
  -23.0060  -10.4050   20.1340 C   0  0  0  0  0  3  0  0  0  0  0  0
  -21.8810   -7.1520   21.3900 O   0  0  0  0  0  0  0  0  0  0  0  0
  -21.7890   -6.4430   22.5600 C   0  0  0  0  0  0  0  0  0  0  0  0
  -21.3590   -7.0430   23.7630 C   0  0  0  0  0  3  0  0  0  0  0  0
  -21.2120   -6.2620   24.9270 C   0  0  0  0  0  3  0  0  0  0  0  0
  -21.4840   -4.8810   24.8880 C   0  0  0  0  0  0  0  0  0  0  0  0
  -21.9070   -4.2800   23.6900 C   0  0  0  0  0  3  0  0  0  0  0  0
  -22.0560   -5.0580   22.5290 C   0  0  0  0  0  0  0  0  0  0  0  0
  -22.4430   -4.4700   21.3710 F   0  0  0  0  0  0  0  0  0  0  0  0
  -21.3360   -4.1300   26.0050 F   0  0  0  0  0  0  0  0  0  0  0  0
  -23.0630  -13.7710   20.9780 C   0  0  0  0  0  0  0  0  0  0  0  0
  -22.3260  -13.1040   21.8600 N   0  0  0  0  0  0  0  0  0  0  0  0
  -22.6370  -14.7880   20.4330 O   0  0  0  0  0  0  0  0  0  0  0  0
  -22.6830  -12.2800   22.3220 H   0  0  0  0  0  0  0  0  0  0  0  0
  -21.3920  -13.4210   22.0770 H   0  0  0  0  0  0  0  0  0  0  0  0
  -25.7190  -15.3910   20.1550 N   0  0  0  0  0  0  0  0  0  0  0  0
  -24.9630  -16.0590   20.2530 H   0  0  0  0  0  0  0  0  0  0  0  0
  -26.5850  -15.8130   19.8420 H   0  0  0  0  0  0  0  0  0  0  0  0
  2  3  1  0
  2  1  2  0
  4  5  1  0
  4  3  2  0
  6 17  2  0
  7  5  1  0
  7 12  1  0
  8 16  1  0
  8 18  1  0
  9 15  1  0
  9 11  1  0
 10 16  1  0
 11 10  1  0
 12 11  2  0
 13 14  1  0
 13  7  2  0
 14  9  2  0
 15  8  1  0
 16  6  1  0
 18 20  2  0
 19 18  1  0
 21 19  1  0
 22 31  2  0
 22 27  1  0
 23 19  1  0
 23 27  1  0
 24 23  1  0
 25 26  1  0
 25 24  1  0
 26 22  1  0
 27 28  2  0
 28 29  1  0
 30 29  2  0
 31 30  1  0
 32  6  1  0
 32 33  1  0
 32 42  1  0
 33 36  1  0
 34 38  1  0
 34 33  1  0
 35 34  2  0
 38 37  1  0
 40 38  1  0
 40 41  1  0
 40 39  1  0
 42 45  1  1
 42 43  1  0
 44 42  1  0
 46 47  1  0
 46  1  1  0
 47 53  1  0
 47 50  1  0
 48 49  1  0
 50 52  1  0
 50 48  1  0
 51 48  2  0
 53 54  1  0
 55 54  1  0
 56 61  1  0
 57 58  1  0
 57 56  1  0
 59 58  1  0
 59 66  1  0
 59 60  1  0
 61 55  1  0
 61 60  1  0
 62 55  2  0
 63 64  2  0
 64 83  1  0
 65 64  1  0
 65 68  1  0
 66 63  1  0
 66 67  1  0
 67 65  2  0
 68 69  1  0
 69 70  2  0
 71 74  1  0
 71 70  1  0
 72 71  2  0
 73 72  1  0
 73 68  2  0
 74 75  1  0
 75 76  1  0
 76 77  2  0
 78 77  1  0
 78 82  1  0
 79 78  2  0
 80 75  2  0
 80 79  1  0
 81 80  1  0
 83 84  1  0
 84 87  1  0
 84 86  1  0
 85 83  2  0
 88 89  1  0
 88 63  1  0
 90 88  1  0
M  ISO  4   4 101   5 101  54 100  55 100
M  END
>  <TORSDO>  (74) 
F 24

>  <SCORE>  (74) 
-11.410

>  <name>  (74) 
75

>  <ligand_id>  (74) 
75

>  <original_smiles>  (74) 
[H]c1c([H])c([H])c2c(c1[H])C([H])([H])C([H])([H])C([H])([H])C2([H])N([H])C(=O)C1([H])N(C(=O)C([H])(N([H])C(=O)C([H])(N([H])C([H])([H])[H])C([H])([H])[H])C(C([H])([H])[H])(C([H])([H])[H])C([H])([H])[H])C([H])([H])c2c([H])c(OC([H])([H])C([H])([H])C([H])([H])C([H])([H])C([H])([H])C([H])(N([H])C(=O)C([H])([H])[H])C([H])([H])C([H])([H])C(=O)N3C([H])([H])C([H])([H])C([H])([H])C([H])(n4nc(-c5c([H])c([H])c(Oc6c([H])c([H])c(F)c([H])c6F)c([H])c5[H])c(C(=O)N([H])[H])c4N([H])[H])C3([H])[H])c([H])c([H])c2C1([H])[H]

>  <smiles>  (74) 
[H]c1c([H])c([H])c2c(c1[H])C([H])([H])C([H])([H])C([H])([H])C2([H])N([H])C(=O)C1([H])N(C(=O)C([H])(N([H])C(=O)C([H])(N([H])C([H])([H])[H])C([H])([H])[H])C(C([H])([H])[H])(C([H])([H])[H])C([H])([H])[H])C([H])([H])c2c([H])c(OC([H])([H])C([H])([H])C([H])([H])C([H])([H])C([H])([H])C([H])(N([H])C(=O)C([H])([H])[H])C([H])([H])C([H])([H])C(=O)N3C([H])([H])C([H])([H])C([H])([H])C([H])(n4nc(-c5c([H])c([H])c(Oc6c([H])c([H])c(F)c([H])c6F)c([H])c5[H])c(C(=O)N([H])[H])c4N([H])[H])C3([H])[H])c([H])c([H])c2C1([H])[H]

$$$$
76:0:0
     RDKit          3D

 92100  0  0  1  0  0  0  0  0999 V2000
  -27.6160  -18.4740   18.5260 C   0  0  0  0  0  2  0  0  0  0  0  0
  -27.6540  -18.1780   20.0080 C   0  0  0  0  0  2  0  0  0  0  0  0
  -28.4180  -19.7610   18.4200 C   0  0  0  0  0  2  0  0  0  0  0  0
  -29.0930  -18.5630   20.3940 C   0  0  0  0  0  3  0  0  0  0  0  0
  -29.3080  -19.8320   19.5980 N   0  0  0  0  0  0  0  0  0  0  0  0
  -29.0860  -21.1230   20.3440 C   0  0  0  0  0  3  0  0  0  0  0  0
  -29.0130  -22.5010   19.5300 C   0  0  0  0  0  3  0  0  0  0  0  0
  -29.0890  -23.8950   20.3020 C   0  0  0  0  0  3  0  0  0  0  0  0
  -28.2080  -25.0830   19.7160 C   0  0  0  0  0  3  0  0  0  0  0  0
  -28.3240  -26.4750   20.2230 O   0  0  0  0  0  0  0  0  0  0  0  0
  -24.5900  -31.8800   23.2490 C   0  0  0  0  0  0  0  0  0  0  0  0
  -27.2010  -27.3230   20.1710 C   0  0  0  0  0  0  0  0  0  0  0  0
  -23.3820  -30.4850   21.6080 C   0  0  0  0  0  3  0  0  0  0  0  0
  -24.8310  -28.9410   20.1800 C   0  0  0  0  0  0  0  0  0  0  0  0
  -25.9230  -30.7980   21.4310 C   0  0  0  0  0  2  0  0  0  0  0  0
  -26.0020  -29.4190   20.7840 C   0  0  0  0  0  0  0  0  0  0  0  0
  -27.1830  -28.6170   20.7820 C   0  0  0  0  0  3  0  0  0  0  0  0
  -26.0090  -26.9150   19.5240 C   0  0  0  0  0  3  0  0  0  0  0  0
  -24.8360  -27.6910   19.5480 C   0  0  0  0  0  3  0  0  0  0  0  0
  -23.5930  -29.8130   20.2280 C   0  0  0  0  0  2  0  0  0  0  0  0
  -24.6490  -31.0720   22.1510 N   0  0  0  0  0  0  0  0  0  0  0  0
  -23.5090  -32.1600   23.7850 O   0  0  0  0  0  0  0  0  0  0  0  0
  -22.7180  -29.4660   22.5670 C   0  0  0  0  0  0  0  0  0  0  0  0
  -21.3930  -29.2850   22.4350 N   0  0  0  0  0  0  0  0  0  0  0  0
  -23.3950  -28.8470   23.3910 O   0  0  0  0  0  0  0  0  0  0  0  0
  -20.9050  -29.8380   21.7450 H   0  0  0  0  0  0  0  0  0  0  0  0
  -18.0210  -28.0800   22.9190 C   0  0  0  0  0  0  0  0  0  0  0  0
  -20.5750  -28.3510   23.2070 C   0  0  0  0  0  3  0  0  0  0  0  0
  -20.6880  -26.9140   22.6440 C   0  0  0  0  0  2  0  0  0  0  0  0
  -19.5970  -26.5810   21.6240 C   0  0  0  0  0  2  0  0  0  0  0  0
  -18.2080  -26.7250   22.2560 C   0  0  0  0  0  2  0  0  0  0  0  0
  -19.1340  -28.8510   23.3520 C   0  0  0  0  0  0  0  0  0  0  0  0
  -18.9050  -30.1160   23.9330 C   0  0  0  0  0  3  0  0  0  0  0  0
  -17.5970  -30.6130   24.0860 C   0  0  0  0  0  3  0  0  0  0  0  0
  -16.4990  -29.8410   23.6690 C   0  0  0  0  0  3  0  0  0  0  0  0
  -16.7120  -28.5770   23.0910 C   0  0  0  0  0  3  0  0  0  0  0  0
  -25.8790  -32.5080   23.8680 C   0  0  0  0  0  3  0  0  0  0  0  0
  -26.3900  -31.7400   25.1500 C   0  0  1  0  0  0  0  0  0  0  0  0
  -25.2940  -31.5190   26.2160 C   0  0  0  0  0  1  0  0  0  0  0  0
  -26.9640  -30.3560   24.7720 C   0  0  0  0  0  1  0  0  0  0  0  0
  -27.5420  -32.5340   25.8090 C   0  0  0  0  0  1  0  0  0  0  0  0
  -25.5760  -33.9110   24.1890 N   0  0  0  0  0  0  0  0  0  0  0  0
  -25.9120  -34.9570   23.4230 C   0  0  0  0  0  0  0  0  0  0  0  0
  -26.5800  -34.8440   22.3910 O   0  0  0  0  0  0  0  0  0  0  0  0
  -24.9860  -34.0730   24.9930 H   0  0  0  0  0  0  0  0  0  0  0  0
  -24.1910  -36.7560   23.0590 C   0  0  0  0  0  1  0  0  0  0  0  0
  -25.4300  -36.3500   23.8730 C   0  0  0  0  0  3  0  0  0  0  0  0
  -27.5660  -37.2290   24.7040 C   0  0  0  0  0  1  0  0  0  0  0  0
  -26.4670  -37.3980   23.7570 N   0  0  0  0  0  0  0  0  0  0  0  0
  -26.0630  -38.3180   23.9020 H   0  0  0  0  0  0  0  0  0  0  0  0
  -30.1140  -17.3610   20.1030 C   0  0  0  0  0  3  0  0  0  0  0  0
  -31.4770  -17.8740   20.3310 N   0  0  0  0  0  4  0  0  0  0  0  0
  -31.6570  -18.0310   21.3050 H   0  0  0  0  0  0  0  0  0  0  0  0
  -31.5490  -18.7620   19.8580 H   0  0  0  0  0  0  0  0  0  0  0  0
  -32.1720  -17.2490   19.9590 H   0  0  0  0  0  0  0  0  0  0  0  0
  -29.8700  -15.9770   20.8880 C   0  0  0  0  0  2  0  0  0  0  0  0
  -30.6090  -14.6570   20.4130 C   0  0  0  0  0  0  0  0  0  0  0  0
  -30.3770  -12.4270   19.3500 C   0  0  0  0  0  2  0  0  0  0  0  0
  -29.4440  -12.5690   18.1320 C   0  0  0  0  0  2  0  0  0  0  0  0
  -27.9670  -12.4240   18.5500 C   0  0  0  0  0  2  0  0  0  0  0  0
  -27.6090  -13.2860   19.7960 C   0  0  0  0  0  3  0  0  0  0  0  0
  -28.6650  -13.1200   20.9160 C   0  0  0  0  0  2  0  0  0  0  0  0
  -29.9780  -13.4450   20.3420 N   0  0  0  0  0  0  0  0  0  0  0  0
  -31.7640  -14.7780   19.9960 O   0  0  0  0  0  0  0  0  0  0  0  0
  -25.2130  -13.8990   20.5050 C   0  0  0  0  0  0  0  0  0  0  0  0
  -24.1410  -13.1300   20.8730 C   0  0  0  0  0  0  0  0  0  0  0  0
  -24.5960  -11.7760   20.8450 C   0  0  0  0  0  0  0  0  0  0  0  0
  -26.2550  -13.0130   20.2730 N   0  0  0  0  0  0  0  0  0  0  0  0
  -25.8870  -11.7340   20.5420 N   0  0  0  0  0  0  0  0  0  0  0  0
  -23.8560  -10.5220   21.0340 C   0  0  0  0  0  0  0  0  0  0  0  0
  -24.2770   -9.5550   21.9730 C   0  0  0  0  0  3  0  0  0  0  0  0
  -23.5470   -8.3600   22.1530 C   0  0  0  0  0  3  0  0  0  0  0  0
  -22.3790   -8.1230   21.3930 C   0  0  0  0  0  0  0  0  0  0  0  0
  -21.9710   -9.0760   20.4440 C   0  0  0  0  0  3  0  0  0  0  0  0
  -22.7010  -10.2640   20.2620 C   0  0  0  0  0  3  0  0  0  0  0  0
  -21.6220   -6.9810   21.4750 O   0  0  0  0  0  0  0  0  0  0  0  0
  -21.5650   -6.2410   22.6280 C   0  0  0  0  0  0  0  0  0  0  0  0
  -21.1420   -6.7990   23.8530 C   0  0  0  0  0  3  0  0  0  0  0  0
  -21.0330   -5.9860   24.9990 C   0  0  0  0  0  3  0  0  0  0  0  0
  -21.3390   -4.6140   24.9220 C   0  0  0  0  0  0  0  0  0  0  0  0
  -21.7530   -4.0530   23.7010 C   0  0  0  0  0  3  0  0  0  0  0  0
  -21.8660   -4.8650   22.5580 C   0  0  0  0  0  0  0  0  0  0  0  0
  -22.2470   -4.3170   21.3780 F   0  0  0  0  0  0  0  0  0  0  0  0
  -21.2280   -3.8270   26.0180 F   0  0  0  0  0  0  0  0  0  0  0  0
  -22.7420  -13.6150   21.1240 C   0  0  0  0  0  0  0  0  0  0  0  0
  -22.0030  -12.9280   21.9930 N   0  0  0  0  0  0  0  0  0  0  0  0
  -22.3080  -14.6350   20.5890 O   0  0  0  0  0  0  0  0  0  0  0  0
  -22.3640  -12.0950   22.4370 H   0  0  0  0  0  0  0  0  0  0  0  0
  -21.0650  -13.2340   22.2160 H   0  0  0  0  0  0  0  0  0  0  0  0
  -25.3740  -15.2670   20.3180 N   0  0  0  0  0  0  0  0  0  0  0  0
  -24.5850  -15.8960   20.4160 H   0  0  0  0  0  0  0  0  0  0  0  0
  -26.1610  -15.6900   19.8480 H   0  0  0  0  0  0  0  0  0  0  0  0
  1  2  1  0
  2  4  1  0
  3  1  1  0
  3  5  1  0
  4 51  1  0
  5  6  1  0
  5  4  1  0
  7  8  1  0
  7  6  2  0
  9 10  1  0
  9  8  2  0
 11 22  2  0
 12 10  1  0
 12 17  1  0
 13 21  1  0
 13 23  1  0
 14 20  1  0
 14 16  1  0
 15 21  1  0
 16 15  1  0
 17 16  2  0
 18 19  1  0
 18 12  2  0
 19 14  2  0
 20 13  1  0
 21 11  1  0
 23 25  2  0
 24 23  1  0
 26 24  1  0
 27 36  2  0
 27 32  1  0
 28 24  1  0
 28 32  1  0
 29 28  1  0
 30 31  1  0
 30 29  1  0
 31 27  1  0
 32 33  2  0
 33 34  1  0
 35 34  2  0
 36 35  1  0
 37 11  1  0
 37 42  1  0
 37 38  1  0
 38 41  1  1
 38 39  1  0
 40 38  1  0
 42 45  1  0
 43 47  1  0
 43 42  1  0
 44 43  2  0
 47 46  1  0
 49 47  1  0
 49 50  1  0
 49 48  1  0
 51 52  1  0
 51 56  1  0
 52 53  1  0
 54 52  1  0
 55 52  1  0
 57 56  1  0
 58 63  1  0
 59 60  1  0
 59 58  1  0
 61 60  1  0
 61 68  1  0
 61 62  1  0
 63 57  1  0
 63 62  1  0
 64 57  2  0
 65 66  2  0
 66 85  1  0
 67 66  1  0
 67 70  1  0
 68 65  1  0
 68 69  1  0
 69 67  2  0
 70 71  1  0
 71 72  2  0
 73 76  1  0
 73 72  1  0
 74 73  2  0
 75 74  1  0
 75 70  2  0
 76 77  1  0
 77 78  1  0
 78 79  2  0
 80 79  1  0
 80 84  1  0
 81 80  2  0
 82 77  2  0
 82 81  1  0
 83 82  1  0
 85 86  1  0
 86 89  1  0
 86 88  1  0
 87 85  2  0
 90 91  1  0
 90 65  1  0
 92 90  1  0
M  ISO  4   9 101  10 101  56 100  57 100
M  END
>  <TORSDO>  (75) 
F 23

>  <SCORE>  (75) 
-13.113

>  <name>  (75) 
76

>  <ligand_id>  (75) 
76

>  <original_smiles>  (75) 
[H]c1c([H])c([H])c2c(c1[H])C([H])([H])C([H])([H])C([H])([H])C2([H])N([H])C(=O)C1([H])N(C(=O)C([H])(N([H])C(=O)C([H])(N([H])C([H])([H])[H])C([H])([H])[H])C(C([H])([H])[H])(C([H])([H])[H])C([H])([H])[H])C([H])([H])c2c([H])c(OC([H])([H])C([H])([H])C([H])([H])C([H])([H])N3C([H])([H])C([H])([H])C([H])([H])C3([H])C([H])(C([H])([H])C(=O)N3C([H])([H])C([H])([H])C([H])([H])C([H])(n4nc(-c5c([H])c([H])c(Oc6c([H])c([H])c(F)c([H])c6F)c([H])c5[H])c(C(=O)N([H])[H])c4N([H])[H])C3([H])[H])[N+]([H])([H])[H])c([H])c([H])c2C1([H])[H]

>  <smiles>  (75) 
[H]c1c([H])c([H])c2c(c1[H])C([H])([H])C([H])([H])C([H])([H])C2([H])N([H])C(=O)C1([H])N(C(=O)C([H])(N([H])C(=O)C([H])(N([H])C([H])([H])[H])C([H])([H])[H])C(C([H])([H])[H])(C([H])([H])[H])C([H])([H])[H])C([H])([H])c2c([H])c(OC([H])([H])C([H])([H])C([H])([H])C([H])([H])N3C([H])([H])C([H])([H])C([H])([H])C3([H])C([H])(C([H])([H])C(=O)N3C([H])([H])C([H])([H])C([H])([H])C([H])(n4nc(-c5c([H])c([H])c(Oc6c([H])c([H])c(F)c([H])c6F)c([H])c5[H])c(C(=O)N([H])[H])c4N([H])[H])C3([H])[H])[N+]([H])([H])[H])c([H])c([H])c2C1([H])[H]

$$$$
77:0:0
     RDKit          3D

 98106  0  0  1  0  0  0  0  0999 V2000
  -26.9370  -20.7150   19.9250 C   0  0  0  0  0  2  0  0  0  0  0  0
  -27.4460  -21.9750   20.6200 C   0  0  0  0  0  2  0  0  0  0  0  0
  -28.1660  -20.1140   19.2360 C   0  0  0  0  0  2  0  0  0  0  0  0
  -28.8620  -21.6060   21.1030 C   0  0  0  0  0  3  0  0  0  0  0  0
  -29.4050  -20.6820   19.9770 C   0  0  0  0  0  3  0  0  0  0  0  0
  -29.7740  -22.8220   21.4010 C   0  0  0  0  0  0  0  0  0  0  0  0
  -29.2480  -24.0580   21.3970 N   0  0  0  0  0  0  0  0  0  0  0  0
  -30.9660  -22.6360   21.6420 O   0  0  0  0  0  0  0  0  0  0  0  0
  -28.2600  -24.1580   21.2010 H   0  0  0  0  0  0  0  0  0  0  0  0
  -30.0160  -25.2850   21.6230 C   0  0  0  0  0  2  0  0  0  0  0  0
  -29.1300  -26.5450   21.6500 C   0  0  0  0  0  2  0  0  0  0  0  0
  -28.5350  -26.7420   20.3710 O   0  0  0  0  0  0  0  0  0  0  0  0
  -24.5320  -31.9220   23.2470 C   0  0  0  0  0  0  0  0  0  0  0  0
  -27.3920  -27.5030   20.3530 C   0  0  0  0  0  0  0  0  0  0  0  0
  -23.4280  -30.4850   21.5630 C   0  0  0  0  0  3  0  0  0  0  0  0
  -24.9750  -28.9570   20.2280 C   0  0  0  0  0  0  0  0  0  0  0  0
  -25.9520  -30.8850   21.4850 C   0  0  0  0  0  2  0  0  0  0  0  0
  -26.0900  -29.5080   20.8730 C   0  0  0  0  0  0  0  0  0  0  0  0
  -27.3010  -28.7840   20.9470 C   0  0  0  0  0  3  0  0  0  0  0  0
  -26.2680  -26.9700   19.6910 C   0  0  0  0  0  3  0  0  0  0  0  0
  -25.0560  -27.6850   19.6350 C   0  0  0  0  0  3  0  0  0  0  0  0
  -23.7160  -29.7960   20.2020 C   0  0  0  0  0  2  0  0  0  0  0  0
  -24.6520  -31.1120   22.1580 N   0  0  0  0  0  0  0  0  0  0  0  0
  -23.4220  -32.1820   23.7320 O   0  0  0  0  0  0  0  0  0  0  0  0
  -22.7480  -29.4630   22.5000 C   0  0  0  0  0  0  0  0  0  0  0  0
  -21.4280  -29.2810   22.3300 N   0  0  0  0  0  0  0  0  0  0  0  0
  -23.4050  -28.8370   23.3360 O   0  0  0  0  0  0  0  0  0  0  0  0
  -20.9620  -29.8360   21.6240 H   0  0  0  0  0  0  0  0  0  0  0  0
  -18.0240  -28.1620   22.7890 C   0  0  0  0  0  0  0  0  0  0  0  0
  -20.5850  -28.3450   23.0720 C   0  0  0  0  0  3  0  0  0  0  0  0
  -20.6530  -26.9280   22.4570 C   0  0  0  0  0  2  0  0  0  0  0  0
  -19.5460  -26.6640   21.4310 C   0  0  0  0  0  2  0  0  0  0  0  0
  -18.1660  -26.8290   22.0750 C   0  0  0  0  0  2  0  0  0  0  0  0
  -19.1600  -28.8820   23.2430 C   0  0  0  0  0  0  0  0  0  0  0  0
  -18.9740  -30.1330   23.8680 C   0  0  0  0  0  3  0  0  0  0  0  0
  -17.6840  -30.6680   24.0420 C   0  0  0  0  0  3  0  0  0  0  0  0
  -16.5610  -29.9450   23.6040 C   0  0  0  0  0  3  0  0  0  0  0  0
  -16.7310  -28.6930   22.9860 C   0  0  0  0  0  3  0  0  0  0  0  0
  -25.7790  -32.5790   23.9200 C   0  0  0  0  0  3  0  0  0  0  0  0
  -26.2430  -31.8310   25.2310 C   0  0  1  0  0  0  0  0  0  0  0  0
  -25.1000  -31.5800   26.2400 C   0  0  0  0  0  1  0  0  0  0  0  0
  -26.8750  -30.4630   24.8830 C   0  0  0  0  0  1  0  0  0  0  0  0
  -27.3410  -32.6570   25.9440 C   0  0  0  0  0  1  0  0  0  0  0  0
  -25.4370  -33.9770   24.2110 N   0  0  0  0  0  0  0  0  0  0  0  0
  -25.8030  -35.0210   23.4560 C   0  0  0  0  0  0  0  0  0  0  0  0
  -26.5340  -34.9100   22.4670 O   0  0  0  0  0  0  0  0  0  0  0  0
  -24.7970  -34.1360   24.9750 H   0  0  0  0  0  0  0  0  0  0  0  0
  -24.1040  -36.8030   22.9500 C   0  0  0  0  0  1  0  0  0  0  0  0
  -25.2760  -36.4100   23.8610 C   0  0  0  0  0  3  0  0  0  0  0  0
  -27.3220  -37.3190   24.8710 C   0  0  0  0  0  1  0  0  0  0  0  0
  -26.3110  -37.4660   23.8270 N   0  0  0  0  0  0  0  0  0  0  0  0
  -25.8910  -38.3860   23.9240 H   0  0  0  0  0  0  0  0  0  0  0  0
  -30.5380  -19.6580   20.3620 C   0  0  0  0  0  3  0  0  0  0  0  0
  -29.9690  -18.3410   20.8080 N   0  0  0  0  0  4  0  0  0  0  0  0
  -29.5910  -18.4700   21.7330 H   0  0  0  0  0  0  0  0  0  0  0  0
  -29.1940  -18.1390   20.1970 H   0  0  0  0  0  0  0  0  0  0  0  0
  -30.8750  -17.1500   20.8260 C   0  0  0  0  0  2  0  0  0  0  0  0
  -30.1890  -15.7950   21.1850 C   0  0  0  0  0  2  0  0  0  0  0  0
  -30.8610  -14.5820   20.4880 C   0  0  0  0  0  0  0  0  0  0  0  0
  -30.5210  -12.4880   19.2290 C   0  0  0  0  0  2  0  0  0  0  0  0
  -29.5550  -12.7530   18.0550 C   0  0  0  0  0  2  0  0  0  0  0  0
  -28.0910  -12.5950   18.5090 C   0  0  0  0  0  2  0  0  0  0  0  0
  -27.7820  -13.3800   19.8110 C   0  0  0  0  0  3  0  0  0  0  0  0
  -28.8600  -13.1150   20.8870 C   0  0  0  0  0  2  0  0  0  0  0  0
  -30.1750  -13.4230   20.3100 N   0  0  0  0  0  0  0  0  0  0  0  0
  -31.9790  -14.7520   19.9950 O   0  0  0  0  0  0  0  0  0  0  0  0
  -25.3930  -13.9560   20.5740 C   0  0  0  0  0  0  0  0  0  0  0  0
  -24.3360  -13.1680   20.9410 C   0  0  0  0  0  0  0  0  0  0  0  0
  -24.8050  -11.8210   20.8720 C   0  0  0  0  0  0  0  0  0  0  0  0
  -26.4400  -13.0870   20.3060 N   0  0  0  0  0  0  0  0  0  0  0  0
  -26.0900  -11.7970   20.5430 N   0  0  0  0  0  0  0  0  0  0  0  0
  -24.0910  -10.5490   21.0430 C   0  0  0  0  0  0  0  0  0  0  0  0
  -24.5270   -9.5770   21.9690 C   0  0  0  0  0  3  0  0  0  0  0  0
  -23.8120   -8.3710   22.1300 C   0  0  0  0  0  3  0  0  0  0  0  0
  -22.6470   -8.1280   21.3620 C   0  0  0  0  0  0  0  0  0  0  0  0
  -22.2310   -9.0900   20.4250 C   0  0  0  0  0  3  0  0  0  0  0  0
  -22.9480  -10.2880   20.2630 C   0  0  0  0  0  3  0  0  0  0  0  0
  -21.9050   -6.9740   21.4320 O   0  0  0  0  0  0  0  0  0  0  0  0
  -21.8400   -6.2280   22.5820 C   0  0  0  0  0  0  0  0  0  0  0  0
  -21.3150   -6.7540   23.7820 C   0  0  0  0  0  3  0  0  0  0  0  0
  -21.2020   -5.9320   24.9220 C   0  0  0  0  0  3  0  0  0  0  0  0
  -21.6050   -4.5830   24.8610 C   0  0  0  0  0  0  0  0  0  0  0  0
  -22.1240   -4.0570   23.6640 C   0  0  0  0  0  3  0  0  0  0  0  0
  -22.2380   -4.8770   22.5280 C   0  0  0  0  0  0  0  0  0  0  0  0
  -22.7190   -4.3590   21.3720 F   0  0  0  0  0  0  0  0  0  0  0  0
  -21.4890   -3.7910   25.9510 F   0  0  0  0  0  0  0  0  0  0  0  0
  -22.9400  -13.6300   21.2470 C   0  0  0  0  0  0  0  0  0  0  0  0
  -22.2300  -12.9010   22.1010 N   0  0  0  0  0  0  0  0  0  0  0  0
  -22.4900  -14.6680   20.7640 O   0  0  0  0  0  0  0  0  0  0  0  0
  -22.6110  -12.0610   22.5120 H   0  0  0  0  0  0  0  0  0  0  0  0
  -21.2940  -13.1870   22.3500 H   0  0  0  0  0  0  0  0  0  0  0  0
  -25.5470  -15.3310   20.4250 N   0  0  0  0  0  0  0  0  0  0  0  0
  -24.7750  -15.9770   20.5550 H   0  0  0  0  0  0  0  0  0  0  0  0
  -26.3840  -15.7770   20.0730 H   0  0  0  0  0  0  0  0  0  0  0  0
  -32.4380  -20.8480   19.0510 C   0  0  0  0  0  1  0  0  0  0  0  0
  -31.6330  -19.5430   19.2440 C   0  0  0  0  0  3  0  0  0  0  0  0
  -32.1670  -18.5440   16.9270 C   0  0  0  0  0  1  0  0  0  0  0  0
  -31.0770  -19.0220   17.8950 C   0  0  0  0  0  2  0  0  0  0  0  0
  1  2  1  0
  2  4  1  0
  3  1  1  0
  3  5  1  0
  4  6  1  0
  5 53  1  0
  5  4  1  0
  6  8  2  0
  7  6  1  0
  7 10  1  0
  9  7  1  0
 10 11  1  0
 12 11  1  0
 13 24  2  0
 14 12  1  0
 14 19  1  0
 15 23  1  0
 15 25  1  0
 16 18  1  0
 17 23  1  0
 18 19  2  0
 18 17  1  0
 20 14  2  0
 21 20  1  0
 21 16  2  0
 22 16  1  0
 22 15  1  0
 23 13  1  0
 25 27  2  0
 26 25  1  0
 28 26  1  0
 29 38  2  0
 29 34  1  0
 30 26  1  0
 30 34  1  0
 31 30  1  0
 32 33  1  0
 32 31  1  0
 33 29  1  0
 34 35  2  0
 35 36  1  0
 37 36  2  0
 38 37  1  0
 39 13  1  0
 39 44  1  0
 39 40  1  0
 40 43  1  1
 40 41  1  0
 42 40  1  0
 44 47  1  0
 45 49  1  0
 45 44  1  0
 46 45  2  0
 49 48  1  0
 51 49  1  0
 51 52  1  0
 51 50  1  0
 53 54  1  0
 54 57  1  0
 54 55  1  0
 56 54  1  0
 57 58  1  0
 59 58  1  0
 60 65  1  0
 61 62  1  0
 61 60  1  0
 63 62  1  0
 63 70  1  0
 63 64  1  0
 65 59  1  0
 65 64  1  0
 66 59  2  0
 67 68  2  0
 68 87  1  0
 69 68  1  0
 69 72  1  0
 70 71  1  0
 70 67  1  0
 71 69  2  0
 72 73  1  0
 73 74  2  0
 75 78  1  0
 75 74  1  0
 76 75  2  0
 77 76  1  0
 77 72  2  0
 78 79  1  0
 79 80  1  0
 80 81  2  0
 82 81  1  0
 82 86  1  0
 83 82  2  0
 84 79  2  0
 84 83  1  0
 85 84  1  0
 87 88  1  0
 88 91  1  0
 88 90  1  0
 89 87  2  0
 92 93  1  0
 92 67  1  0
 94 92  1  0
 96 95  1  0
 96 53  1  0
 97 98  1  0
 98 96  1  0
M  ISO  4  11 101  12 101  58 100  59 100
M  END
>  <TORSDO>  (76) 
F 25

>  <SCORE>  (76) 
-12.059

>  <name>  (76) 
77

>  <ligand_id>  (76) 
77

>  <original_smiles>  (76) 
[H]c1c([H])c([H])c2c(c1[H])C([H])([H])C([H])([H])C([H])([H])C2([H])N([H])C(=O)C1([H])N(C(=O)C([H])(N([H])C(=O)C([H])(N([H])C([H])([H])[H])C([H])([H])[H])C(C([H])([H])[H])(C([H])([H])[H])C([H])([H])[H])C([H])([H])c2c([H])c(OC([H])([H])C([H])([H])N([H])C(=O)C3([H])C([H])([H])C([H])([H])C([H])([H])C3([H])C([H])(C([H])(C([H])([H])[H])C([H])([H])C([H])([H])[H])[N+]([H])([H])C([H])([H])C([H])([H])C(=O)N3C([H])([H])C([H])([H])C([H])([H])C([H])(n4nc(-c5c([H])c([H])c(Oc6c([H])c([H])c(F)c([H])c6F)c([H])c5[H])c(C(=O)N([H])[H])c4N([H])[H])C3([H])[H])c([H])c([H])c2C1([H])[H]

>  <smiles>  (76) 
[H]c1c([H])c([H])c2c(c1[H])C([H])([H])C([H])([H])C([H])([H])C2([H])N([H])C(=O)C1([H])N(C(=O)C([H])(N([H])C(=O)C([H])(N([H])C([H])([H])[H])C([H])([H])[H])C(C([H])([H])[H])(C([H])([H])[H])C([H])([H])[H])C([H])([H])c2c([H])c(OC([H])([H])C([H])([H])N([H])C(=O)C3([H])C([H])([H])C([H])([H])C([H])([H])C3([H])C([H])(C([H])(C([H])([H])[H])C([H])([H])C([H])([H])[H])[N+]([H])([H])C([H])([H])C([H])([H])C(=O)N3C([H])([H])C([H])([H])C([H])([H])C([H])(n4nc(-c5c([H])c([H])c(Oc6c([H])c([H])c(F)c([H])c6F)c([H])c5[H])c(C(=O)N([H])[H])c4N([H])[H])C3([H])[H])c([H])c([H])c2C1([H])[H]

$$$$
78:0:0
     RDKit          3D

 96104  0  0  1  0  0  0  0  0999 V2000
  -32.7050  -22.1730   19.2300 C   0  0  0  0  0  1  0  0  0  0  0  0
  -31.4160  -21.5440   19.8070 C   0  0  0  0  0  3  0  0  0  0  0  0
  -30.2220  -22.3810   19.2780 C   0  0  0  0  0  0  0  0  0  0  0  0
  -29.9200  -23.5210   19.9300 N   0  0  0  0  0  0  0  0  0  0  0  0
  -29.6360  -22.0390   18.2510 O   0  0  0  0  0  0  0  0  0  0  0  0
  -30.4460  -23.7250   20.7700 H   0  0  0  0  0  0  0  0  0  0  0  0
  -29.0820  -24.6110   19.4010 C   0  0  0  0  0  2  0  0  0  0  0  0
  -28.5960  -25.5990   20.4950 C   0  0  0  0  0  2  0  0  0  0  0  0
  -28.6250  -26.9640   20.0450 O   0  0  0  0  0  0  0  0  0  0  0  0
  -24.8170  -31.9840   23.3850 C   0  0  0  0  0  0  0  0  0  0  0  0
  -27.4490  -27.6810   20.1040 C   0  0  0  0  0  0  0  0  0  0  0  0
  -23.6180  -30.7030   21.6410 C   0  0  0  0  0  3  0  0  0  0  0  0
  -25.0740  -29.2180   20.1570 C   0  0  0  0  0  0  0  0  0  0  0  0
  -26.1500  -31.0310   21.5040 C   0  0  0  0  0  2  0  0  0  0  0  0
  -26.2270  -29.6940   20.7930 C   0  0  0  0  0  0  0  0  0  0  0  0
  -27.4200  -28.9350   20.7570 C   0  0  0  0  0  3  0  0  0  0  0  0
  -26.2780  -27.2150   19.4690 C   0  0  0  0  0  3  0  0  0  0  0  0
  -25.0940  -27.9790   19.4920 C   0  0  0  0  0  3  0  0  0  0  0  0
  -23.8430  -30.0960   20.2300 C   0  0  0  0  0  2  0  0  0  0  0  0
  -24.8800  -31.2500   22.2380 N   0  0  0  0  0  0  0  0  0  0  0  0
  -23.7300  -32.2460   23.9190 O   0  0  0  0  0  0  0  0  0  0  0  0
  -22.9290  -29.6420   22.5280 C   0  0  0  0  0  0  0  0  0  0  0  0
  -21.6010  -29.5090   22.3780 N   0  0  0  0  0  0  0  0  0  0  0  0
  -23.5850  -28.9440   23.3050 O   0  0  0  0  0  0  0  0  0  0  0  0
  -21.1330  -30.1290   21.7330 H   0  0  0  0  0  0  0  0  0  0  0  0
  -18.1850  -28.4000   22.7840 C   0  0  0  0  0  0  0  0  0  0  0  0
  -20.7490  -28.5450   23.0760 C   0  0  0  0  0  3  0  0  0  0  0  0
  -20.8030  -27.1580   22.3950 C   0  0  0  0  0  2  0  0  0  0  0  0
  -19.6920  -26.9510   21.3590 C   0  0  0  0  0  2  0  0  0  0  0  0
  -18.3160  -27.0980   22.0120 C   0  0  0  0  0  2  0  0  0  0  0  0
  -19.3290  -29.0880   23.2710 C   0  0  0  0  0  0  0  0  0  0  0  0
  -19.1550  -30.3100   23.9520 C   0  0  0  0  0  3  0  0  0  0  0  0
  -17.8690  -30.8470   24.1520 C   0  0  0  0  0  3  0  0  0  0  0  0
  -16.7390  -30.1550   23.6830 C   0  0  0  0  0  3  0  0  0  0  0  0
  -16.8980  -28.9340   23.0050 C   0  0  0  0  0  3  0  0  0  0  0  0
  -26.1020  -32.5510   24.0680 C   0  0  0  0  0  3  0  0  0  0  0  0
  -26.5650  -31.7100   25.3210 C   0  0  1  0  0  0  0  0  0  0  0  0
  -25.4380  -31.4550   26.3490 C   0  0  0  0  0  1  0  0  0  0  0  0
  -27.1250  -30.3380   24.8800 C   0  0  0  0  0  1  0  0  0  0  0  0
  -27.7180  -32.4450   26.0480 C   0  0  0  0  0  1  0  0  0  0  0  0
  -25.8250  -33.9430   24.4470 N   0  0  0  0  0  0  0  0  0  0  0  0
  -26.2010  -35.0130   23.7360 C   0  0  0  0  0  0  0  0  0  0  0  0
  -26.8900  -34.9310   22.7160 O   0  0  0  0  0  0  0  0  0  0  0  0
  -25.2170  -34.0820   25.2410 H   0  0  0  0  0  0  0  0  0  0  0  0
  -24.5200  -36.8570   23.4280 C   0  0  0  0  0  1  0  0  0  0  0  0
  -25.7420  -36.3950   24.2380 C   0  0  0  0  0  3  0  0  0  0  0  0
  -27.8850  -37.2000   25.1240 C   0  0  0  0  0  1  0  0  0  0  0  0
  -26.8000  -37.4260   24.1730 N   0  0  0  0  0  0  0  0  0  0  0  0
  -26.4120  -38.3500   24.3490 H   0  0  0  0  0  0  0  0  0  0  0  0
  -31.3210  -20.0030   19.5050 C   0  0  0  0  0  2  0  0  0  0  0  0
  -33.7440  -19.2200   19.6510 C   0  0  0  0  0  1  0  0  0  0  0  0
  -32.3360  -19.0960   20.2780 C   0  0  0  0  0  3  0  0  0  0  0  0
  -31.9780  -16.9760   23.0200 C   0  0  0  0  0  2  0  0  0  0  0  0
  -32.7480  -16.9750   21.6780 C   0  0  0  0  0  2  0  0  0  0  0  0
  -29.8680  -17.8880   21.8740 C   0  0  0  0  0  2  0  0  0  0  0  0
  -30.8370  -18.0090   23.0770 C   0  0  0  0  0  3  0  0  0  0  0  0
  -31.9710  -17.5660   20.4620 C   0  0  0  0  0  3  0  0  0  0  0  0
  -30.4610  -17.1930   20.6060 C   0  0  0  0  0  3  0  0  0  0  0  0
  -30.0900  -17.9500   24.4170 C   0  0  0  0  0  1  0  0  0  0  0  0
  -30.1100  -15.6590   20.6720 C   0  0  0  0  0  2  0  0  0  0  0  0
  -30.6180  -14.6300   19.6240 C   0  0  0  0  0  0  0  0  0  0  0  0
  -30.1410  -12.5280   18.3780 C   0  0  0  0  0  2  0  0  0  0  0  0
  -29.0140  -12.7520   17.3470 C   0  0  0  0  0  2  0  0  0  0  0  0
  -27.6180  -12.6330   17.9920 C   0  0  0  0  0  2  0  0  0  0  0  0
  -27.4980  -13.4430   19.3080 C   0  0  0  0  0  3  0  0  0  0  0  0
  -28.6950  -13.1130   20.2290 C   0  0  0  0  0  2  0  0  0  0  0  0
  -29.9290  -13.4580   19.4970 N   0  0  0  0  0  0  0  0  0  0  0  0
  -31.6030  -14.8900   18.9230 O   0  0  0  0  0  0  0  0  0  0  0  0
  -25.2640  -14.1250   20.4020 C   0  0  0  0  0  0  0  0  0  0  0  0
  -24.2180  -13.3830   20.8830 C   0  0  0  0  0  0  0  0  0  0  0  0
  -24.5900  -12.0170   20.7030 C   0  0  0  0  0  0  0  0  0  0  0  0
  -26.2130  -13.2110   19.9680 N   0  0  0  0  0  0  0  0  0  0  0  0
  -25.8140  -11.9340   20.2000 N   0  0  0  0  0  0  0  0  0  0  0  0
  -23.8300  -10.7800   20.9260 C   0  0  0  0  0  0  0  0  0  0  0  0
  -24.3300   -9.7460   21.7460 C   0  0  0  0  0  3  0  0  0  0  0  0
  -23.5750   -8.5720   21.9600 C   0  0  0  0  0  3  0  0  0  0  0  0
  -22.3050   -8.4260   21.3540 C   0  0  0  0  0  0  0  0  0  0  0  0
  -21.8220   -9.4490   20.5190 C   0  0  0  0  0  3  0  0  0  0  0  0
  -22.5760  -10.6140   20.3040 C   0  0  0  0  0  3  0  0  0  0  0  0
  -21.5120   -7.3110   21.4830 O   0  0  0  0  0  0  0  0  0  0  0  0
  -21.5560   -6.5240   22.6070 C   0  0  0  0  0  0  0  0  0  0  0  0
  -21.3040   -7.0490   23.8930 C   0  0  0  0  0  3  0  0  0  0  0  0
  -21.2890   -6.1910   25.0120 C   0  0  0  0  0  3  0  0  0  0  0  0
  -21.5170   -4.8120   24.8470 C   0  0  0  0  0  0  0  0  0  0  0  0
  -21.7650   -4.2880   23.5660 C   0  0  0  0  0  3  0  0  0  0  0  0
  -21.7810   -5.1420   22.4490 C   0  0  0  0  0  0  0  0  0  0  0  0
  -21.9970   -4.6280   21.2140 F   0  0  0  0  0  0  0  0  0  0  0  0
  -21.4960   -3.9870   25.9210 F   0  0  0  0  0  0  0  0  0  0  0  0
  -22.9050  -13.9060   21.3940 C   0  0  0  0  0  0  0  0  0  0  0  0
  -22.2870  -13.1990   22.3330 N   0  0  0  0  0  0  0  0  0  0  0  0
  -22.4420  -14.9740   20.9940 O   0  0  0  0  0  0  0  0  0  0  0  0
  -22.6780  -12.3360   22.6790 H   0  0  0  0  0  0  0  0  0  0  0  0
  -21.4110  -13.5290   22.7130 H   0  0  0  0  0  0  0  0  0  0  0  0
  -25.4830  -15.4940   20.2830 N   0  0  0  0  0  0  0  0  0  0  0  0
  -24.7860  -16.1840   20.5420 H   0  0  0  0  0  0  0  0  0  0  0  0
  -26.3100  -15.9060   19.8690 H   0  0  0  0  0  0  0  0  0  0  0  0
  2  1  1  0
  3  2  1  0
  3  4  1  0
  4  6  1  0
  5  3  2  0
  7  4  1  0
  7  8  1  0
  9 11  1  0
  9  8  1  0
 10 21  2  0
 11 16  1  0
 12 20  1  0
 12 22  1  0
 13 19  1  0
 13 15  1  0
 14 20  1  0
 15 14  1  0
 16 15  2  0
 17 18  1  0
 17 11  2  0
 18 13  2  0
 19 12  1  0
 20 10  1  0
 22 24  2  0
 23 22  1  0
 25 23  1  0
 26 35  2  0
 26 31  1  0
 27 23  1  0
 27 31  1  0
 28 27  1  0
 29 30  1  0
 29 28  1  0
 30 26  1  0
 31 32  2  0
 32 33  1  0
 34 33  2  0
 35 34  1  0
 36 10  1  0
 36 41  1  0
 36 37  1  0
 37 40  1  1
 37 38  1  0
 39 37  1  0
 41 44  1  0
 42 46  1  0
 42 41  1  0
 43 42  2  0
 46 45  1  0
 48 46  1  0
 48 49  1  0
 48 47  1  0
 50  2  1  0
 50 52  1  0
 52 51  1  0
 53 56  1  0
 54 53  1  0
 55 56  1  0
 56 59  1  0
 57 52  1  0
 57 58  1  0
 57 54  1  0
 58 60  1  0
 58 55  1  0
 61 60  1  0
 62 67  1  0
 63 64  1  0
 63 62  1  0
 65 64  1  0
 65 72  1  0
 65 66  1  0
 67 61  1  0
 67 66  1  0
 68 61  2  0
 69 70  2  0
 70 89  1  0
 71 70  1  0
 71 74  1  0
 72 73  1  0
 72 69  1  0
 73 71  2  0
 74 75  1  0
 75 76  2  0
 77 80  1  0
 77 76  1  0
 78 77  2  0
 79 78  1  0
 79 74  2  0
 80 81  1  0
 81 82  1  0
 82 83  2  0
 84 83  1  0
 84 88  1  0
 85 84  2  0
 86 81  2  0
 86 85  1  0
 87 86  1  0
 89 90  1  0
 90 92  1  0
 90 93  1  0
 91 89  2  0
 94 69  1  0
 94 95  1  0
 96 94  1  0
M  ISO  4   8 101   9 101  60 100  61 100
M  END
>  <TORSDO>  (77) 
F 23

>  <SCORE>  (77) 
-5.325

>  <name>  (77) 
78

>  <ligand_id>  (77) 
78

>  <original_smiles>  (77) 
[H]c1c([H])c([H])c2c(c1[H])C([H])([H])C([H])([H])C([H])([H])C2([H])N([H])C(=O)C1([H])N(C(=O)C([H])(N([H])C(=O)C([H])(N([H])C([H])([H])[H])C([H])([H])[H])C(C([H])([H])[H])(C([H])([H])[H])C([H])([H])[H])C([H])([H])c2c([H])c(OC([H])([H])C([H])([H])N([H])C(=O)C([H])(C([H])([H])[H])C([H])([H])C([H])(C([H])([H])[H])C3([H])C([H])([H])C([H])([H])C([H])(C([H])([H])[H])C([H])([H])C3([H])C([H])([H])C(=O)N3C([H])([H])C([H])([H])C([H])([H])C([H])(n4nc(-c5c([H])c([H])c(Oc6c([H])c([H])c(F)c([H])c6F)c([H])c5[H])c(C(=O)N([H])[H])c4N([H])[H])C3([H])[H])c([H])c([H])c2C1([H])[H]

>  <smiles>  (77) 
[H]c1c([H])c([H])c2c(c1[H])C([H])([H])C([H])([H])C([H])([H])C2([H])N([H])C(=O)C1([H])N(C(=O)C([H])(N([H])C(=O)C([H])(N([H])C([H])([H])[H])C([H])([H])[H])C(C([H])([H])[H])(C([H])([H])[H])C([H])([H])[H])C([H])([H])c2c([H])c(OC([H])([H])C([H])([H])N([H])C(=O)C([H])(C([H])([H])[H])C([H])([H])C([H])(C([H])([H])[H])C3([H])C([H])([H])C([H])([H])C([H])(C([H])([H])[H])C([H])([H])C3([H])C([H])([H])C(=O)N3C([H])([H])C([H])([H])C([H])([H])C([H])(n4nc(-c5c([H])c([H])c(Oc6c([H])c([H])c(F)c([H])c6F)c([H])c5[H])c(C(=O)N([H])[H])c4N([H])[H])C3([H])[H])c([H])c([H])c2C1([H])[H]

$$$$
79:0:0
     RDKit          3D

 91 99  0  0  1  0  0  0  0  0999 V2000
  -30.6180  -20.0450   22.1420 C   0  0  0  0  0  1  0  0  0  0  0  0
  -29.5010  -20.0130   21.0780 C   0  0  0  0  0  3  0  0  0  0  0  0
  -27.9700  -18.2040   20.3940 C   0  0  0  0  0  1  0  0  0  0  0  0
  -29.3750  -18.6830   20.3180 N   0  0  2  0  0  4  0  0  0  0  0  0
  -29.4750  -18.9550   19.3520 H   0  0  0  0  0  0  0  0  0  0  0  0
  -31.3620  -17.3240   18.2400 C   0  0  0  0  0  2  0  0  0  0  0  0
  -30.1430  -16.4010   18.4100 C   0  0  0  0  0  2  0  0  0  0  0  0
  -31.6420  -17.9170   19.6290 C   0  0  0  0  0  2  0  0  0  0  0  0
  -30.0240  -16.1070   19.9250 C   0  0  0  0  0  3  0  0  0  0  0  0
  -30.4200  -17.5600   20.4950 C   0  0  0  0  0  3  0  0  0  0  0  0
  -30.8910  -14.7890   20.2160 C   0  0  0  0  0  0  0  0  0  0  0  0
  -30.7000  -12.4610   19.3870 C   0  0  0  0  0  2  0  0  0  0  0  0
  -29.7840  -12.4620   18.1410 C   0  0  0  0  0  2  0  0  0  0  0  0
  -28.2960  -12.3790   18.5390 C   0  0  0  0  0  2  0  0  0  0  0  0
  -27.9140  -13.3360   19.6970 C   0  0  0  0  0  3  0  0  0  0  0  0
  -28.9510  -13.2950   20.8400 C   0  0  0  0  0  2  0  0  0  0  0  0
  -30.2770  -13.5630   20.2740 N   0  0  0  0  0  0  0  0  0  0  0  0
  -32.1100  -14.8500   20.0480 O   0  0  0  0  0  0  0  0  0  0  0  0
  -25.5330  -13.9970   20.4010 C   0  0  0  0  0  0  0  0  0  0  0  0
  -24.4500  -13.2530   20.7760 C   0  0  0  0  0  0  0  0  0  0  0  0
  -24.8840  -11.8920   20.7690 C   0  0  0  0  0  0  0  0  0  0  0  0
  -26.5600  -13.0920   20.1850 N   0  0  0  0  0  0  0  0  0  0  0  0
  -26.1760  -11.8230   20.4740 N   0  0  0  0  0  0  0  0  0  0  0  0
  -24.1310  -10.6480   20.9650 C   0  0  0  0  0  0  0  0  0  0  0  0
  -24.5420   -9.6790   21.9050 C   0  0  0  0  0  3  0  0  0  0  0  0
  -23.7930   -8.4970   22.0870 C   0  0  0  0  0  3  0  0  0  0  0  0
  -22.6160   -8.2770   21.3310 C   0  0  0  0  0  0  0  0  0  0  0  0
  -22.2250   -9.2370   20.3810 C   0  0  0  0  0  3  0  0  0  0  0  0
  -22.9750  -10.4100   20.1970 C   0  0  0  0  0  3  0  0  0  0  0  0
  -21.8380   -7.1500   21.4250 O   0  0  0  0  0  0  0  0  0  0  0  0
  -21.7800   -6.4110   22.5790 C   0  0  0  0  0  0  0  0  0  0  0  0
  -21.3820   -6.9790   23.8090 C   0  0  0  0  0  3  0  0  0  0  0  0
  -21.2690   -6.1670   24.9550 C   0  0  0  0  0  3  0  0  0  0  0  0
  -21.5400   -4.7880   24.8720 C   0  0  0  0  0  0  0  0  0  0  0  0
  -21.9310   -4.2200   23.6470 C   0  0  0  0  0  3  0  0  0  0  0  0
  -22.0460   -5.0290   22.5030 C   0  0  0  0  0  0  0  0  0  0  0  0
  -22.4010   -4.4720   21.3200 F   0  0  0  0  0  0  0  0  0  0  0  0
  -21.4240   -4.0070   25.9720 F   0  0  0  0  0  0  0  0  0  0  0  0
  -23.0590  -13.7630   21.0200 C   0  0  0  0  0  0  0  0  0  0  0  0
  -22.3070  -13.0990   21.8930 N   0  0  0  0  0  0  0  0  0  0  0  0
  -22.6480  -14.7850   20.4730 O   0  0  0  0  0  0  0  0  0  0  0  0
  -22.6530  -12.2710   22.3570 H   0  0  0  0  0  0  0  0  0  0  0  0
  -21.3740  -13.4220   22.1000 H   0  0  0  0  0  0  0  0  0  0  0  0
  -25.7220  -15.3600   20.1930 N   0  0  0  0  0  0  0  0  0  0  0  0
  -24.9220  -15.9840   20.1990 H   0  0  0  0  0  0  0  0  0  0  0  0
  -26.4960  -15.7180   19.6540 H   0  0  0  0  0  0  0  0  0  0  0  0
  -29.4910  -21.3280   20.1730 C   0  0  0  0  0  3  0  0  0  0  0  0
  -28.9730  -22.6680   20.8550 C   0  0  0  0  0  3  0  0  0  0  0  0
  -29.0360  -24.0450   20.0620 C   0  0  0  0  0  3  0  0  0  0  0  0
  -28.3480  -25.2890   20.7660 C   0  0  0  0  0  3  0  0  0  0  0  0
  -28.5010  -26.6380   20.1980 O   0  0  0  0  0  0  0  0  0  0  0  0
  -24.6420  -31.9100   23.2330 C   0  0  0  0  0  0  0  0  0  0  0  0
  -27.3620  -27.4420   20.1820 C   0  0  0  0  0  0  0  0  0  0  0  0
  -23.4740  -30.4990   21.5720 C   0  0  0  0  0  3  0  0  0  0  0  0
  -24.9620  -28.9770   20.1590 C   0  0  0  0  0  0  0  0  0  0  0  0
  -26.0030  -30.8710   21.4080 C   0  0  0  0  0  2  0  0  0  0  0  0
  -26.1140  -29.4980   20.7620 C   0  0  0  0  0  0  0  0  0  0  0  0
  -27.3190  -28.7420   20.7630 C   0  0  0  0  0  3  0  0  0  0  0  0
  -26.1900  -26.9580   19.5620 C   0  0  0  0  0  3  0  0  0  0  0  0
  -25.0000  -27.7100   19.5510 C   0  0  0  0  0  3  0  0  0  0  0  0
  -23.7100  -29.8260   20.1930 C   0  0  0  0  0  2  0  0  0  0  0  0
  -24.7250  -31.1120   22.1290 N   0  0  0  0  0  0  0  0  0  0  0  0
  -23.5510  -32.1650   23.7640 O   0  0  0  0  0  0  0  0  0  0  0  0
  -22.8230  -29.4690   22.5250 C   0  0  0  0  0  0  0  0  0  0  0  0
  -21.4970  -29.2880   22.4020 N   0  0  0  0  0  0  0  0  0  0  0  0
  -23.5090  -28.8350   23.3310 O   0  0  0  0  0  0  0  0  0  0  0  0
  -21.0010  -29.8600   21.7310 H   0  0  0  0  0  0  0  0  0  0  0  0
  -18.1240  -28.0870   22.9140 C   0  0  0  0  0  0  0  0  0  0  0  0
  -20.6870  -28.3370   23.1650 C   0  0  0  0  0  3  0  0  0  0  0  0
  -20.7770  -26.9150   22.5650 C   0  0  0  0  0  2  0  0  0  0  0  0
  -19.6640  -26.6110   21.5560 C   0  0  0  0  0  2  0  0  0  0  0  0
  -18.2900  -26.7490   22.2150 C   0  0  0  0  0  2  0  0  0  0  0  0
  -19.2480  -28.8400   23.3470 C   0  0  0  0  0  0  0  0  0  0  0  0
  -19.0380  -30.0940   23.9600 C   0  0  0  0  0  3  0  0  0  0  0  0
  -17.7360  -30.5950   24.1470 C   0  0  0  0  0  3  0  0  0  0  0  0
  -16.6260  -29.8390   23.7310 C   0  0  0  0  0  3  0  0  0  0  0  0
  -16.8220  -28.5880   23.1190 C   0  0  0  0  0  3  0  0  0  0  0  0
  -25.9120  -32.5560   23.8720 C   0  0  0  0  0  3  0  0  0  0  0  0
  -25.5840  -33.9520   24.1970 N   0  0  0  0  0  0  0  0  0  0  0  0
  -25.9130  -35.0080   23.4390 C   0  0  0  0  0  0  0  0  0  0  0  0
  -26.5940  -34.9090   22.4150 O   0  0  0  0  0  0  0  0  0  0  0  0
  -24.9840  -34.1020   24.9940 H   0  0  0  0  0  0  0  0  0  0  0  0
  -24.1680  -36.7790   23.0650 C   0  0  0  0  0  1  0  0  0  0  0  0
  -25.4070  -36.3910   23.8880 C   0  0  0  0  0  3  0  0  0  0  0  0
  -27.5250  -37.3020   24.7320 C   0  0  0  0  0  1  0  0  0  0  0  0
  -26.4280  -37.4560   23.7810 N   0  0  0  0  0  0  0  0  0  0  0  0
  -26.0100  -38.3720   23.9220 H   0  0  0  0  0  0  0  0  0  0  0  0
  -26.4210  -31.7930   25.1550 C   0  0  1  0  0  0  0  0  0  0  0  0
  -25.3190  -31.5470   26.2130 C   0  0  0  0  0  1  0  0  0  0  0  0
  -27.0230  -30.4220   24.7710 C   0  0  0  0  0  1  0  0  0  0  0  0
  -27.5580  -32.5980   25.8270 C   0  0  0  0  0  1  0  0  0  0  0  0
  2  1  1  0
  4  3  1  0
  4  2  1  0
  4  5  1  6
  6  7  1  0
  6  8  1  0
  7  9  1  0
  8 10  1  0
  9 11  1  0
  9 10  1  0
 10  4  1  0
 11 17  1  0
 12 17  1  0
 13 14  1  0
 13 12  1  0
 15 14  1  0
 15 22  1  0
 15 16  1  0
 17 16  1  0
 18 11  2  0
 19 20  2  0
 20 39  1  0
 21 20  1  0
 21 24  1  0
 22 19  1  0
 22 23  1  0
 23 21  2  0
 24 25  1  0
 25 26  2  0
 27 30  1  0
 27 26  1  0
 28 27  2  0
 29 28  1  0
 29 24  2  0
 30 31  1  0
 31 32  1  0
 32 33  2  0
 34 33  1  0
 34 38  1  0
 35 34  2  0
 36 31  2  0
 36 35  1  0
 37 36  1  0
 39 40  1  0
 40 43  1  0
 40 42  1  0
 41 39  2  0
 44 45  1  0
 44 19  1  0
 46 44  1  0
 47 48  2  0
 47  2  1  0
 49 50  2  0
 49 48  1  0
 51 50  1  0
 52 63  2  0
 53 51  1  0
 53 58  1  0
 54 62  1  0
 54 64  1  0
 55 61  1  0
 55 57  1  0
 56 62  1  0
 57 58  2  0
 57 56  1  0
 59 53  2  0
 60 59  1  0
 60 55  2  0
 61 54  1  0
 62 52  1  0
 64 66  2  0
 65 64  1  0
 67 65  1  0
 68 77  2  0
 68 73  1  0
 69 65  1  0
 69 73  1  0
 70 69  1  0
 71 72  1  0
 71 70  1  0
 72 68  1  0
 73 74  2  0
 74 75  1  0
 76 75  2  0
 77 76  1  0
 78 52  1  0
 78 79  1  0
 78 88  1  0
 79 82  1  0
 80 84  1  0
 80 79  1  0
 81 80  2  0
 84 83  1  0
 86 84  1  0
 86 87  1  0
 86 85  1  0
 88 91  1  1
 88 89  1  0
 90 88  1  0
M  ISO  4   9 100  11 100  50 101  51 101
M  END
>  <TORSDO>  (78) 
F 22

>  <SCORE>  (78) 
-12.762

>  <name>  (78) 
79

>  <ligand_id>  (78) 
79

>  <original_smiles>  (78) 
[H]c1c([H])c([H])c2c(c1[H])C([H])([H])C([H])([H])C([H])([H])C2([H])N([H])C(=O)C1([H])N(C(=O)C([H])(N([H])C(=O)C([H])(N([H])C([H])([H])[H])C([H])([H])[H])C(C([H])([H])[H])(C([H])([H])[H])C([H])([H])[H])C([H])([H])c2c([H])c(OC([H])([H])C([H])([H])C([H])([H])C([H])([H])C([H])(C([H])([H])[H])[N+]([H])(C([H])([H])[H])C3([H])C([H])([H])C([H])([H])C([H])([H])C3([H])C(=O)N3C([H])([H])C([H])([H])C([H])([H])C([H])(n4nc(-c5c([H])c([H])c(Oc6c([H])c([H])c(F)c([H])c6F)c([H])c5[H])c(C(=O)N([H])[H])c4N([H])[H])C3([H])[H])c([H])c([H])c2C1([H])[H]

>  <smiles>  (78) 
[H]c1c([H])c([H])c2c(c1[H])C([H])([H])C([H])([H])C([H])([H])C2([H])N([H])C(=O)C1([H])N(C(=O)C([H])(N([H])C(=O)C([H])(N([H])C([H])([H])[H])C([H])([H])[H])C(C([H])([H])[H])(C([H])([H])[H])C([H])([H])[H])C([H])([H])c2c([H])c(OC([H])([H])C([H])([H])C([H])([H])C([H])([H])C([H])(C([H])([H])[H])[N+]([H])(C([H])([H])[H])C3([H])C([H])([H])C([H])([H])C([H])([H])C3([H])C(=O)N3C([H])([H])C([H])([H])C([H])([H])C([H])(n4nc(-c5c([H])c([H])c(Oc6c([H])c([H])c(F)c([H])c6F)c([H])c5[H])c(C(=O)N([H])[H])c4N([H])[H])C3([H])[H])c([H])c([H])c2C1([H])[H]

$$$$
80:0:0
     RDKit          3D

 93101  0  0  1  0  0  0  0  0999 V2000
  -30.5630  -20.1350   20.7580 C   0  0  0  0  0  3  0  0  0  0  0  0
  -31.6110  -21.4620   24.7650 C   0  0  0  0  0  3  0  0  0  0  0  0
  -30.2770  -21.1250   24.4670 C   0  0  0  0  0  3  0  0  0  0  0  0
  -32.5970  -21.3770   23.7620 C   0  0  0  0  0  3  0  0  0  0  0  0
  -29.9270  -20.7000   23.1680 C   0  0  0  0  0  3  0  0  0  0  0  0
  -32.2550  -20.9390   22.4690 C   0  0  0  0  0  3  0  0  0  0  0  0
  -30.9200  -20.5890   22.1660 C   0  0  0  0  0  0  0  0  0  0  0  0
  -28.7300  -18.6100   19.9000 C   0  0  0  0  0  1  0  0  0  0  0  0
  -29.8860  -18.7640   20.8140 N   0  0  1  0  0  4  0  0  0  0  0  0
  -29.4880  -18.7720   21.7400 H   0  0  0  0  0  0  0  0  0  0  0  0
  -30.8080  -17.5410   20.7950 C   0  0  0  0  0  3  0  0  0  0  0  0
  -30.1510  -16.0980   21.0260 C   0  0  0  0  0  3  0  0  0  0  0  0
  -30.9250  -14.7930   20.5640 C   0  0  0  0  0  0  0  0  0  0  0  0
  -30.6540  -12.6310   19.3600 C   0  0  0  0  0  2  0  0  0  0  0  0
  -29.7350  -12.8560   18.1380 C   0  0  0  0  0  2  0  0  0  0  0  0
  -28.2490  -12.7230   18.5300 C   0  0  0  0  0  2  0  0  0  0  0  0
  -27.8930  -13.5320   19.8030 C   0  0  0  0  0  3  0  0  0  0  0  0
  -28.9250  -13.2950   20.9280 C   0  0  0  0  0  2  0  0  0  0  0  0
  -30.2600  -13.6040   20.3990 N   0  0  0  0  0  0  0  0  0  0  0  0
  -32.1000  -14.9010   20.2010 O   0  0  0  0  0  0  0  0  0  0  0  0
  -25.4970  -14.1770   20.4660 C   0  0  0  0  0  0  0  0  0  0  0  0
  -24.4060  -13.4230   20.8040 C   0  0  0  0  0  0  0  0  0  0  0  0
  -24.8430  -12.0630   20.7830 C   0  0  0  0  0  0  0  0  0  0  0  0
  -26.5290  -13.2770   20.2530 N   0  0  0  0  0  0  0  0  0  0  0  0
  -26.1400  -12.0010   20.5070 N   0  0  0  0  0  0  0  0  0  0  0  0
  -24.0880  -10.8150   20.9490 C   0  0  0  0  0  0  0  0  0  0  0  0
  -24.4900   -9.8260   21.8750 C   0  0  0  0  0  3  0  0  0  0  0  0
  -23.7370   -8.6430   22.0300 C   0  0  0  0  0  3  0  0  0  0  0  0
  -22.5690   -8.4370   21.2570 C   0  0  0  0  0  0  0  0  0  0  0  0
  -22.1880   -9.4140   20.3200 C   0  0  0  0  0  3  0  0  0  0  0  0
  -22.9410  -10.5900   20.1640 C   0  0  0  0  0  3  0  0  0  0  0  0
  -21.7910   -7.3070   21.3210 O   0  0  0  0  0  0  0  0  0  0  0  0
  -21.7200   -6.5470   22.4600 C   0  0  0  0  0  0  0  0  0  0  0  0
  -21.3200   -7.0920   23.6990 C   0  0  0  0  0  3  0  0  0  0  0  0
  -21.1940   -6.2590   24.8290 C   0  0  0  0  0  3  0  0  0  0  0  0
  -21.4580   -4.8810   24.7200 C   0  0  0  0  0  0  0  0  0  0  0  0
  -21.8500   -4.3330   23.4860 C   0  0  0  0  0  3  0  0  0  0  0  0
  -21.9770   -5.1640   22.3580 C   0  0  0  0  0  0  0  0  0  0  0  0
  -22.3360   -4.6280   21.1670 F   0  0  0  0  0  0  0  0  0  0  0  0
  -21.3280   -4.0780   25.8020 F   0  0  0  0  0  0  0  0  0  0  0  0
  -23.0100  -13.9260   21.0390 C   0  0  0  0  0  0  0  0  0  0  0  0
  -22.2530  -13.2560   21.9000 N   0  0  0  0  0  0  0  0  0  0  0  0
  -22.6000  -14.9490   20.4910 O   0  0  0  0  0  0  0  0  0  0  0  0
  -22.5960  -12.4260   22.3620 H   0  0  0  0  0  0  0  0  0  0  0  0
  -21.3170  -13.5760   22.1010 H   0  0  0  0  0  0  0  0  0  0  0  0
  -25.6930  -15.5440   20.2950 N   0  0  0  0  0  0  0  0  0  0  0  0
  -24.9350  -16.2120   20.3820 H   0  0  0  0  0  0  0  0  0  0  0  0
  -26.5530  -15.9620   19.9690 H   0  0  0  0  0  0  0  0  0  0  0  0
  -29.9830  -21.3560   19.8800 C   0  0  0  0  0  2  0  0  0  0  0  0
  -29.0420  -22.5060   20.4680 C   0  0  0  0  0  2  0  0  0  0  0  0
  -29.3660  -24.0310   20.0960 C   0  0  0  0  0  3  0  0  0  0  0  0
  -28.1500  -25.0490   20.1280 C   0  0  0  0  0  3  0  0  0  0  0  0
  -28.3830  -26.5120   20.1880 O   0  0  0  0  0  0  0  0  0  0  0  0
  -24.6550  -31.8950   23.2500 C   0  0  0  0  0  0  0  0  0  0  0  0
  -27.2540  -27.3500   20.1630 C   0  0  0  0  0  0  0  0  0  0  0  0
  -23.4410  -30.4880   21.6270 C   0  0  0  0  0  3  0  0  0  0  0  0
  -24.8790  -28.9490   20.1850 C   0  0  0  0  0  0  0  0  0  0  0  0
  -25.9770  -30.8160   21.4190 C   0  0  0  0  0  2  0  0  0  0  0  0
  -26.0540  -29.4420   20.7660 C   0  0  0  0  0  0  0  0  0  0  0  0
  -27.2430  -28.6550   20.7470 C   0  0  0  0  0  3  0  0  0  0  0  0
  -26.0500  -26.9130   19.5610 C   0  0  0  0  0  3  0  0  0  0  0  0
  -24.8770  -27.6860   19.5750 C   0  0  0  0  0  3  0  0  0  0  0  0
  -23.6410  -29.8170   20.2450 C   0  0  0  0  0  2  0  0  0  0  0  0
  -24.7110  -31.0810   22.1560 N   0  0  0  0  0  0  0  0  0  0  0  0
  -23.5740  -32.1720   23.7930 O   0  0  0  0  0  0  0  0  0  0  0  0
  -22.7900  -29.4690   22.5930 C   0  0  0  0  0  0  0  0  0  0  0  0
  -21.4750  -29.2470   22.4380 N   0  0  0  0  0  0  0  0  0  0  0  0
  -23.4690  -28.8840   23.4420 O   0  0  0  0  0  0  0  0  0  0  0  0
  -20.9870  -29.7630   21.7190 H   0  0  0  0  0  0  0  0  0  0  0  0
  -18.1360  -27.9160   22.8430 C   0  0  0  0  0  0  0  0  0  0  0  0
  -20.6650  -28.3050   23.2120 C   0  0  0  0  0  3  0  0  0  0  0  0
  -20.8600  -26.8600   22.7010 C   0  0  0  0  0  2  0  0  0  0  0  0
  -19.8190  -26.4480   21.6570 C   0  0  0  0  0  2  0  0  0  0  0  0
  -18.4040  -26.5510   22.2330 C   0  0  0  0  0  2  0  0  0  0  0  0
  -19.1990  -28.7470   23.2890 C   0  0  0  0  0  0  0  0  0  0  0  0
  -18.8950  -30.0200   23.8190 C   0  0  0  0  0  3  0  0  0  0  0  0
  -17.5630  -30.4640   23.9110 C   0  0  0  0  0  3  0  0  0  0  0  0
  -16.5140  -29.6320   23.4830 C   0  0  0  0  0  3  0  0  0  0  0  0
  -16.8010  -28.3600   22.9540 C   0  0  0  0  0  3  0  0  0  0  0  0
  -25.9410  -32.5300   23.8610 C   0  0  0  0  0  3  0  0  0  0  0  0
  -25.6350  -33.9300   24.1870 N   0  0  0  0  0  0  0  0  0  0  0  0
  -25.9610  -34.9780   23.4180 C   0  0  0  0  0  0  0  0  0  0  0  0
  -26.6220  -34.8680   22.3820 O   0  0  0  0  0  0  0  0  0  0  0  0
  -25.0490  -34.0890   24.9920 H   0  0  0  0  0  0  0  0  0  0  0  0
  -24.2210  -36.7590   23.0790 C   0  0  0  0  0  1  0  0  0  0  0  0
  -25.4790  -36.3700   23.8720 C   0  0  0  0  0  3  0  0  0  0  0  0
  -27.6260  -37.2670   24.6540 C   0  0  0  0  0  1  0  0  0  0  0  0
  -26.5070  -37.4240   23.7270 N   0  0  0  0  0  0  0  0  0  0  0  0
  -26.1050  -38.3460   23.8720 H   0  0  0  0  0  0  0  0  0  0  0  0
  -26.4640  -31.7650   25.1370 C   0  0  1  0  0  0  0  0  0  0  0  0
  -25.3760  -31.5390   26.2120 C   0  0  0  0  0  1  0  0  0  0  0  0
  -27.0430  -30.3850   24.7500 C   0  0  0  0  0  1  0  0  0  0  0  0
  -27.6260  -32.5590   25.7800 C   0  0  0  0  0  1  0  0  0  0  0  0
  1 49  1  0
  1  9  1  0
  1  7  1  0
  3  2  1  0
  4  2  2  0
  5  3  2  0
  6  4  1  0
  7  6  2  0
  7  5  1  0
  8  9  1  0
  9 10  1  1
 11  9  1  0
 11 12  2  0
 13 12  1  0
 14 19  1  0
 15 16  1  0
 15 14  1  0
 17 16  1  0
 17 24  1  0
 17 18  1  0
 19 13  1  0
 19 18  1  0
 20 13  2  0
 21 22  2  0
 22 41  1  0
 23 22  1  0
 23 26  1  0
 24 21  1  0
 24 25  1  0
 25 23  2  0
 26 27  1  0
 27 28  2  0
 29 32  1  0
 29 28  1  0
 30 29  2  0
 31 30  1  0
 31 26  2  0
 32 33  1  0
 33 34  1  0
 34 35  2  0
 36 35  1  0
 36 40  1  0
 37 36  2  0
 38 33  2  0
 38 37  1  0
 39 38  1  0
 41 42  1  0
 42 45  1  0
 42 44  1  0
 43 41  2  0
 46 47  1  0
 46 21  1  0
 48 46  1  0
 49 50  1  0
 51 52  2  0
 51 50  1  0
 52 53  1  0
 54 65  2  0
 55 53  1  0
 55 60  1  0
 56 64  1  0
 56 66  1  0
 57 63  1  0
 57 59  1  0
 58 64  1  0
 59 58  1  0
 60 59  2  0
 61 62  1  0
 61 55  2  0
 62 57  2  0
 63 56  1  0
 64 54  1  0
 66 68  2  0
 67 66  1  0
 69 67  1  0
 70 79  2  0
 70 75  1  0
 71 67  1  0
 71 75  1  0
 72 71  1  0
 73 74  1  0
 73 72  1  0
 74 70  1  0
 75 76  2  0
 76 77  1  0
 78 77  2  0
 79 78  1  0
 80 54  1  0
 80 81  1  0
 80 90  1  0
 81 84  1  0
 82 86  1  0
 82 81  1  0
 83 82  2  0
 86 85  1  0
 88 89  1  0
 88 86  1  0
 88 87  1  0
 90 93  1  1
 90 91  1  0
 92 90  1  0
M  ISO  4  12 100  13 100  52 101  53 101
M  END
>  <TORSDO>  (79) 
F 24

>  <SCORE>  (79) 
-12.438

>  <name>  (79) 
80

>  <ligand_id>  (79) 
80

>  <original_smiles>  (79) 
[H]c1c([H])c([H])c(C([H])(C([H])([H])C([H])([H])C([H])([H])C([H])([H])Oc2c([H])c([H])c3c(c2[H])C([H])([H])N(C(=O)C([H])(N([H])C(=O)C([H])(N([H])C([H])([H])[H])C([H])([H])[H])C(C([H])([H])[H])(C([H])([H])[H])C([H])([H])[H])C([H])(C(=O)N([H])C2([H])c4c([H])c([H])c([H])c([H])c4C([H])([H])C([H])([H])C2([H])[H])C3([H])[H])[N+]([H])(C([H])([H])[H])C([H])([H])C([H])([H])C(=O)N2C([H])([H])C([H])([H])C([H])([H])C([H])(n3nc(-c4c([H])c([H])c(Oc5c([H])c([H])c(F)c([H])c5F)c([H])c4[H])c(C(=O)N([H])[H])c3N([H])[H])C2([H])[H])c([H])c1[H]

>  <smiles>  (79) 
[H]c1c([H])c([H])c(C([H])(C([H])([H])C([H])([H])C([H])([H])C([H])([H])Oc2c([H])c([H])c3c(c2[H])C([H])([H])N(C(=O)C([H])(N([H])C(=O)C([H])(N([H])C([H])([H])[H])C([H])([H])[H])C(C([H])([H])[H])(C([H])([H])[H])C([H])([H])[H])C([H])(C(=O)N([H])C2([H])c4c([H])c([H])c([H])c([H])c4C([H])([H])C([H])([H])C2([H])[H])C3([H])[H])[N+]([H])(C([H])([H])[H])C([H])([H])C([H])([H])C(=O)N2C([H])([H])C([H])([H])C([H])([H])C([H])(n3nc(-c4c([H])c([H])c(Oc5c([H])c([H])c(F)c([H])c5F)c([H])c4[H])c(C(=O)N([H])[H])c3N([H])[H])C2([H])[H])c([H])c1[H]

$$$$
81:0:0
     RDKit          3D

 99107  0  0  1  0  0  0  0  0999 V2000
  -29.5850  -19.6710   19.8920 C   0  0  0  0  0  3  0  0  0  0  0  0
  -26.4450  -18.4920   18.9540 C   0  0  0  0  0  3  0  0  0  0  0  0
  -27.3870  -18.4790   17.7140 C   0  0  0  0  0  3  0  0  0  0  0  0
  -26.9910  -17.9360   20.2740 C   0  0  0  0  0  2  0  0  0  0  0  0
  -28.8530  -17.9800   17.9020 C   0  0  0  0  0  2  0  0  0  0  0  0
  -28.2860  -17.1760   20.0930 C   0  0  0  0  0  2  0  0  0  0  0  0
  -29.4070  -17.9610   19.3580 C   0  0  2  0  0  0  0  0  0  0  0  0
  -31.5380  -17.1380   18.1580 C   0  0  0  0  0  1  0  0  0  0  0  0
  -30.7210  -16.8000   19.4530 C   0  0  2  0  0  0  0  0  0  0  0  0
  -30.9190  -15.0540   19.5740 C   0  0  0  0  0  0  0  0  0  0  0  0
  -30.5120  -12.6230   18.8710 C   0  0  0  0  0  2  0  0  0  0  0  0
  -29.5400  -12.5060   17.6770 C   0  0  0  0  0  2  0  0  0  0  0  0
  -28.1170  -12.3230   18.2130 C   0  0  0  0  0  2  0  0  0  0  0  0
  -27.7810  -13.3490   19.3240 C   0  0  0  0  0  3  0  0  0  0  0  0
  -28.9040  -13.5310   20.3750 C   0  0  0  0  0  2  0  0  0  0  0  0
  -30.1420  -13.8670   19.6550 N   0  0  0  0  0  0  0  0  0  0  0  0
  -32.0930  -14.7470   19.3440 O   0  0  0  0  0  0  0  0  0  0  0  0
  -25.4810  -13.9860   20.2070 C   0  0  0  0  0  0  0  0  0  0  0  0
  -24.4020  -13.2460   20.6170 C   0  0  0  0  0  0  0  0  0  0  0  0
  -24.8240  -11.8860   20.5930 C   0  0  0  0  0  0  0  0  0  0  0  0
  -26.4790  -13.0770   19.9230 N   0  0  0  0  0  0  0  0  0  0  0  0
  -26.1010  -11.8050   20.2300 N   0  0  0  0  0  0  0  0  0  0  0  0
  -24.0640  -10.6520   20.8430 C   0  0  0  0  0  0  0  0  0  0  0  0
  -24.5130   -9.6810   21.7650 C   0  0  0  0  0  3  0  0  0  0  0  0
  -23.7510   -8.5170   22.0020 C   0  0  0  0  0  3  0  0  0  0  0  0
  -22.5290   -8.3160   21.3180 C   0  0  0  0  0  0  0  0  0  0  0  0
  -22.1010   -9.2740   20.3830 C   0  0  0  0  0  3  0  0  0  0  0  0
  -22.8620  -10.4290   20.1440 C   0  0  0  0  0  3  0  0  0  0  0  0
  -21.7390   -7.2040   21.4660 O   0  0  0  0  0  0  0  0  0  0  0  0
  -21.7400   -6.4700   22.6250 C   0  0  0  0  0  0  0  0  0  0  0  0
  -21.4180   -7.0510   23.8700 C   0  0  0  0  0  3  0  0  0  0  0  0
  -21.3520   -6.2490   25.0260 C   0  0  0  0  0  3  0  0  0  0  0  0
  -21.6050   -4.8670   24.9370 C   0  0  0  0  0  0  0  0  0  0  0  0
  -21.9310   -4.2870   23.6990 C   0  0  0  0  0  3  0  0  0  0  0  0
  -21.9920   -5.0860   22.5440 C   0  0  0  0  0  0  0  0  0  0  0  0
  -22.2780   -4.5200   21.3460 F   0  0  0  0  0  0  0  0  0  0  0  0
  -21.5450   -4.0930   26.0450 F   0  0  0  0  0  0  0  0  0  0  0  0
  -23.0350  -13.7800   20.9320 C   0  0  0  0  0  0  0  0  0  0  0  0
  -22.3370  -13.1380   21.8650 N   0  0  0  0  0  0  0  0  0  0  0  0
  -22.6040  -14.7930   20.3890 O   0  0  0  0  0  0  0  0  0  0  0  0
  -22.7170  -12.3150   22.3050 H   0  0  0  0  0  0  0  0  0  0  0  0
  -21.4180  -13.4670   22.1290 H   0  0  0  0  0  0  0  0  0  0  0  0
  -25.6910  -15.3430   20.0270 N   0  0  0  0  0  0  0  0  0  0  0  0
  -24.9970  -16.0290   20.2910 H   0  0  0  0  0  0  0  0  0  0  0  0
  -26.5840  -15.7600   19.7980 H   0  0  0  0  0  0  0  0  0  0  0  0
  -31.2890  -17.0440   22.0890 C   0  0  0  0  0  1  0  0  0  0  0  0
  -31.6440  -17.3580   20.6170 C   0  0  0  0  0  2  0  0  0  0  0  0
  -30.0150  -19.5090   21.3150 N   0  0  0  0  0  4  0  0  0  0  0  0
  -30.5630  -18.6620   21.3400 H   0  0  0  0  0  0  0  0  0  0  0  0
  -29.1630  -19.3230   21.8160 H   0  0  0  0  0  0  0  0  0  0  0  0
  -30.7320  -20.5620   22.0840 C   0  0  0  0  0  3  0  0  0  0  0  0
  -32.6030  -22.3870   21.7450 C   0  0  0  0  0  1  0  0  0  0  0  0
  -32.0230  -21.0190   21.3480 C   0  0  0  0  0  2  0  0  0  0  0  0
  -30.8740  -21.0700   24.6580 C   0  0  0  0  0  1  0  0  0  0  0  0
  -31.0280  -20.0380   23.5180 C   0  0  0  0  0  2  0  0  0  0  0  0
  -28.5420  -21.0980   19.7650 C   0  0  0  0  0  2  0  0  0  0  0  0
  -28.8610  -22.8280   19.9500 C   0  0  0  0  0  3  0  0  0  0  0  0
  -27.8670  -24.2470   19.7460 C   0  0  0  0  0  3  0  0  0  0  0  0
  -28.1840  -25.8160   19.9360 O   0  0  0  0  0  0  0  0  0  0  0  0
  -24.6990  -31.6800   22.9750 C   0  0  0  0  0  0  0  0  0  0  0  0
  -27.1790  -26.8840   19.8810 C   0  0  0  0  0  0  0  0  0  0  0  0
  -23.4800  -30.3000   21.3510 C   0  0  0  0  0  3  0  0  0  0  0  0
  -24.8940  -28.7280   19.8780 C   0  0  0  0  0  0  0  0  0  0  0  0
  -26.0370  -30.5240   21.1570 C   0  0  0  0  0  2  0  0  0  0  0  0
  -26.0870  -29.1320   20.4860 C   0  0  0  0  0  0  0  0  0  0  0  0
  -27.2300  -28.2280   20.4700 C   0  0  0  0  0  3  0  0  0  0  0  0
  -25.9600  -26.6110   19.2200 C   0  0  0  0  0  3  0  0  0  0  0  0
  -24.8500  -27.4870   19.2240 C   0  0  0  0  0  3  0  0  0  0  0  0
  -23.6760  -29.6410   19.9610 C   0  0  0  0  0  2  0  0  0  0  0  0
  -24.7620  -30.8610   21.8790 N   0  0  0  0  0  0  0  0  0  0  0  0
  -23.6190  -31.9660   23.5170 O   0  0  0  0  0  0  0  0  0  0  0  0
  -22.8130  -29.2850   22.3100 C   0  0  0  0  0  0  0  0  0  0  0  0
  -21.4790  -29.1400   22.2190 N   0  0  0  0  0  0  0  0  0  0  0  0
  -23.4950  -28.6320   23.1030 O   0  0  0  0  0  0  0  0  0  0  0  0
  -20.9870  -29.7090   21.5480 H   0  0  0  0  0  0  0  0  0  0  0  0
  -18.0860  -28.0210   22.8400 C   0  0  0  0  0  0  0  0  0  0  0  0
  -20.6620  -28.2020   22.9930 C   0  0  0  0  0  3  0  0  0  0  0  0
  -20.6950  -26.7910   22.3620 C   0  0  0  0  0  2  0  0  0  0  0  0
  -19.5360  -26.5380   21.3910 C   0  0  0  0  0  2  0  0  0  0  0  0
  -18.1910  -26.6960   22.1040 C   0  0  0  0  0  2  0  0  0  0  0  0
  -19.2470  -28.7380   23.2410 C   0  0  0  0  0  0  0  0  0  0  0  0
  -19.0910  -29.9820   23.8890 C   0  0  0  0  0  3  0  0  0  0  0  0
  -17.8110  -30.5070   24.1470 C   0  0  0  0  0  3  0  0  0  0  0  0
  -16.6670  -29.7880   23.7590 C   0  0  0  0  0  3  0  0  0  0  0  0
  -16.8060  -28.5470   23.1120 C   0  0  0  0  0  3  0  0  0  0  0  0
  -25.9800  -32.3150   23.5940 C   0  0  0  0  0  3  0  0  0  0  0  0
  -26.5460  -31.4960   24.8200 C   0  0  1  0  0  0  0  0  0  0  0  0
  -25.4870  -31.1770   25.9000 C   0  0  0  0  0  1  0  0  0  0  0  0
  -27.1530  -30.1550   24.3480 C   0  0  0  0  0  1  0  0  0  0  0  0
  -27.6950  -32.2870   25.4890 C   0  0  0  0  0  1  0  0  0  0  0  0
  -25.6450  -33.6880   24.0130 N   0  0  0  0  0  0  0  0  0  0  0  0
  -25.9400  -34.7960   23.3220 C   0  0  0  0  0  0  0  0  0  0  0  0
  -26.5890  -34.7730   22.2720 O   0  0  0  0  0  0  0  0  0  0  0  0
  -25.0620  -33.7780   24.8330 H   0  0  0  0  0  0  0  0  0  0  0  0
  -24.1720  -36.5780   23.1170 C   0  0  0  0  0  1  0  0  0  0  0  0
  -25.4340  -36.1430   23.8790 C   0  0  0  0  0  3  0  0  0  0  0  0
  -27.5650  -37.0140   24.7360 C   0  0  0  0  0  1  0  0  0  0  0  0
  -26.4450  -37.2230   23.8220 N   0  0  0  0  0  0  0  0  0  0  0  0
  -26.0240  -38.1220   24.0380 H   0  0  0  0  0  0  0  0  0  0  0  0
  1 56  1  0
  1 48  1  0
  2  4  1  0
  3  5  1  0
  3  2  2  0
  5  7  1  0
  6  4  1  0
  7  9  1  0
  7  1  1  1
  7  6  1  0
  9  8  1  6
  9 10  1  0
  9 47  1  0
 10 16  1  0
 11 16  1  0
 12 13  1  0
 12 11  1  0
 14 13  1  0
 14 21  1  0
 14 15  1  0
 16 15  1  0
 17 10  2  0
 18 19  2  0
 19 38  1  0
 20 19  1  0
 20 23  1  0
 21 18  1  0
 21 22  1  0
 22 20  2  0
 23 24  1  0
 24 25  2  0
 26 29  1  0
 26 25  1  0
 27 26  2  0
 28 27  1  0
 28 23  2  0
 29 30  1  0
 30 31  1  0
 31 32  2  0
 33 32  1  0
 33 37  1  0
 34 33  2  0
 35 30  2  0
 35 34  1  0
 36 35  1  0
 38 39  1  0
 39 42  1  0
 39 41  1  0
 40 38  2  0
 43 18  1  0
 43 44  1  0
 45 43  1  0
 47 46  1  0
 48 49  1  0
 48 50  1  0
 48 51  1  0
 51 55  1  0
 53 52  1  0
 53 51  1  0
 55 54  1  0
 56 57  1  0
 58 59  1  0
 58 57  2  0
 60 71  2  0
 61 59  1  0
 61 66  1  0
 62 70  1  0
 62 72  1  0
 63 69  1  0
 63 65  1  0
 64 70  1  0
 65 64  1  0
 66 65  2  0
 67 68  1  0
 67 61  2  0
 68 63  2  0
 69 62  1  0
 70 60  1  0
 72 74  2  0
 73 72  1  0
 75 73  1  0
 76 85  2  0
 76 81  1  0
 77 73  1  0
 77 81  1  0
 78 77  1  0
 79 80  1  0
 79 78  1  0
 80 76  1  0
 81 82  2  0
 82 83  1  0
 84 83  2  0
 85 84  1  0
 86 60  1  0
 86 91  1  0
 86 87  1  0
 87 90  1  1
 87 88  1  0
 89 87  1  0
 91 94  1  0
 92 96  1  0
 92 91  1  0
 93 92  2  0
 96 95  1  0
 98 96  1  0
 98 99  1  0
 98 97  1  0
M  ISO  4   9 100  10 100  58 101  59 101
M  END
>  <TORSDO>  (80) 
F 26

>  <SCORE>  (80) 
-13.074

>  <name>  (80) 
81

>  <ligand_id>  (80) 
81

>  <original_smiles>  (80) 
[H]c1c([H])c([H])c2c(c1[H])C([H])([H])C([H])([H])C([H])([H])C2([H])N([H])C(=O)C1([H])N(C(=O)C([H])(N([H])C(=O)C([H])(N([H])C([H])([H])[H])C([H])([H])[H])C(C([H])([H])[H])(C([H])([H])[H])C([H])([H])[H])C([H])([H])c2c([H])c(OC([H])([H])C([H])([H])C([H])([H])C([H])(C3(C(C(=O)N4C([H])([H])C([H])([H])C([H])([H])C([H])(n5nc(-c6c([H])c([H])c(Oc7c([H])c([H])c(F)c([H])c7F)c([H])c6[H])c(C(=O)N([H])[H])c5N([H])[H])C4([H])[H])(C([H])([H])[H])C([H])([H])C([H])([H])[H])C([H])([H])C([H])([H])C([H])([H])C([H])([H])C3([H])[H])[N+]([H])([H])C([H])(C([H])([H])C([H])([H])[H])C([H])([H])C([H])([H])[H])c([H])c([H])c2C1([H])[H]

>  <smiles>  (80) 
[H]c1c([H])c([H])c2c(c1[H])C([H])([H])C([H])([H])C([H])([H])C2([H])N([H])C(=O)C1([H])N(C(=O)C([H])(N([H])C(=O)C([H])(N([H])C([H])([H])[H])C([H])([H])[H])C(C([H])([H])[H])(C([H])([H])[H])C([H])([H])[H])C([H])([H])c2c([H])c(OC([H])([H])C([H])([H])C([H])([H])C([H])(C3(C(C(=O)N4C([H])([H])C([H])([H])C([H])([H])C([H])(n5nc(-c6c([H])c([H])c(Oc7c([H])c([H])c(F)c([H])c7F)c([H])c6[H])c(C(=O)N([H])[H])c5N([H])[H])C4([H])[H])(C([H])([H])[H])C([H])([H])C([H])([H])[H])C([H])([H])C([H])([H])C([H])([H])C([H])([H])C3([H])[H])[N+]([H])([H])C([H])(C([H])([H])C([H])([H])[H])C([H])([H])C([H])([H])[H])c([H])c([H])c2C1([H])[H]

$$$$
82:0:0
     RDKit          3D

 90 99  0  0  1  0  0  0  0  0999 V2000
  -28.2080  -22.7480   17.7770 C   0  0  0  0  0  1  0  0  0  0  0  0
  -28.8710  -22.4490   19.1560 C   0  0  0  0  0  3  0  0  0  0  0  0
  -29.2180  -17.3950   18.8940 C   0  0  0  0  0  2  0  0  0  0  0  0
  -29.0480  -20.0270   18.3570 C   0  0  0  0  0  2  0  0  0  0  0  0
  -29.2080  -20.2440   20.7390 C   0  0  0  0  0  2  0  0  0  0  0  0
  -29.8270  -18.8090   18.8680 C   0  0  0  0  0  3  0  0  0  0  0  0
  -29.8990  -18.8490   20.3710 C   0  0  0  0  0  3  0  0  0  0  0  0
  -29.3210  -17.3400   20.4240 C   0  0  0  0  0  3  0  0  0  0  0  0
  -28.6700  -20.9360   19.4950 N   0  0  1  0  0  4  0  0  0  0  0  0
  -27.6700  -20.8280   19.5840 H   0  0  0  0  0  0  0  0  0  0  0  0
  -29.9920  -16.0570   21.1650 C   0  0  0  0  0  2  0  0  0  0  0  0
  -30.6180  -14.7590   20.4470 C   0  0  0  0  0  0  0  0  0  0  0  0
  -30.4210  -12.5060   19.3610 C   0  0  0  0  0  2  0  0  0  0  0  0
  -29.4960  -12.6260   18.1300 C   0  0  0  0  0  2  0  0  0  0  0  0
  -28.0200  -12.4590   18.5360 C   0  0  0  0  0  2  0  0  0  0  0  0
  -27.6470  -13.3120   19.7770 C   0  0  0  0  0  3  0  0  0  0  0  0
  -28.6900  -13.1610   20.9040 C   0  0  0  0  0  2  0  0  0  0  0  0
  -29.9970  -13.5310   20.3480 N   0  0  0  0  0  0  0  0  0  0  0  0
  -31.7480  -14.8850   19.9640 O   0  0  0  0  0  0  0  0  0  0  0  0
  -25.2450  -13.9060   20.4570 C   0  0  0  0  0  0  0  0  0  0  0  0
  -24.1750  -13.1320   20.8170 C   0  0  0  0  0  0  0  0  0  0  0  0
  -24.6410  -11.7820   20.8080 C   0  0  0  0  0  0  0  0  0  0  0  0
  -26.2940  -13.0250   20.2450 N   0  0  0  0  0  0  0  0  0  0  0  0
  -25.9360  -11.7430   20.5160 N   0  0  0  0  0  0  0  0  0  0  0  0
  -23.9140  -10.5200   21.0030 C   0  0  0  0  0  0  0  0  0  0  0  0
  -24.3370   -9.5600   21.9490 C   0  0  0  0  0  3  0  0  0  0  0  0
  -23.6080   -8.3650   22.1310 C   0  0  0  0  0  3  0  0  0  0  0  0
  -22.4440   -8.1200   21.3650 C   0  0  0  0  0  0  0  0  0  0  0  0
  -22.0420   -9.0680   20.4080 C   0  0  0  0  0  3  0  0  0  0  0  0
  -22.7690  -10.2550   20.2250 C   0  0  0  0  0  3  0  0  0  0  0  0
  -21.6890   -6.9760   21.4540 O   0  0  0  0  0  0  0  0  0  0  0  0
  -21.6300   -6.2400   22.6100 C   0  0  0  0  0  0  0  0  0  0  0  0
  -21.1940   -6.8040   23.8300 C   0  0  0  0  0  3  0  0  0  0  0  0
  -21.0830   -5.9950   24.9790 C   0  0  0  0  0  3  0  0  0  0  0  0
  -21.3960   -4.6250   24.9090 C   0  0  0  0  0  0  0  0  0  0  0  0
  -21.8220   -4.0600   23.6940 C   0  0  0  0  0  3  0  0  0  0  0  0
  -21.9360   -4.8660   22.5480 C   0  0  0  0  0  0  0  0  0  0  0  0
  -22.3280   -4.3130   21.3750 F   0  0  0  0  0  0  0  0  0  0  0  0
  -21.2820   -3.8460   26.0110 F   0  0  0  0  0  0  0  0  0  0  0  0
  -22.7730  -13.6100   21.0630 C   0  0  0  0  0  0  0  0  0  0  0  0
  -22.0330  -12.9220   21.9250 N   0  0  0  0  0  0  0  0  0  0  0  0
  -22.3410  -14.6290   20.5250 O   0  0  0  0  0  0  0  0  0  0  0  0
  -22.3960  -12.0970   22.3800 H   0  0  0  0  0  0  0  0  0  0  0  0
  -21.0940  -13.2260   22.1340 H   0  0  0  0  0  0  0  0  0  0  0  0
  -25.4130  -15.2730   20.2690 N   0  0  0  0  0  0  0  0  0  0  0  0
  -24.6510  -15.9360   20.3590 H   0  0  0  0  0  0  0  0  0  0  0  0
  -26.2790  -15.7040   19.9670 H   0  0  0  0  0  0  0  0  0  0  0  0
  -28.3990  -23.6740   20.1200 C   0  0  0  0  0  3  0  0  0  0  0  0
  -28.4620  -25.1770   19.4830 C   0  0  0  0  0  3  0  0  0  0  0  0
  -28.3320  -26.4670   20.2230 O   0  0  0  0  0  0  0  0  0  0  0  0
  -24.6010  -31.8850   23.2200 C   0  0  0  0  0  0  0  0  0  0  0  0
  -27.2020  -27.3080   20.1460 C   0  0  0  0  0  0  0  0  0  0  0  0
  -23.3950  -30.4900   21.5800 C   0  0  0  0  0  3  0  0  0  0  0  0
  -24.8400  -28.9370   20.1490 C   0  0  0  0  0  0  0  0  0  0  0  0
  -25.9360  -30.8030   21.3900 C   0  0  0  0  0  2  0  0  0  0  0  0
  -26.0140  -29.4240   20.7370 C   0  0  0  0  0  0  0  0  0  0  0  0
  -27.1960  -28.6230   20.7200 C   0  0  0  0  0  3  0  0  0  0  0  0
  -25.9940  -26.8680   19.5590 C   0  0  0  0  0  3  0  0  0  0  0  0
  -24.8330  -27.6660   19.5540 C   0  0  0  0  0  3  0  0  0  0  0  0
  -23.6080  -29.8180   20.1970 C   0  0  0  0  0  2  0  0  0  0  0  0
  -24.6650  -31.0770   22.1200 N   0  0  0  0  0  0  0  0  0  0  0  0
  -23.5180  -32.1600   23.7570 O   0  0  0  0  0  0  0  0  0  0  0  0
  -22.7330  -29.4740   22.5400 C   0  0  0  0  0  0  0  0  0  0  0  0
  -21.4060  -29.3000   22.4210 N   0  0  0  0  0  0  0  0  0  0  0  0
  -23.4130  -28.8410   23.3530 O   0  0  0  0  0  0  0  0  0  0  0  0
  -20.9140  -29.8640   21.7400 H   0  0  0  0  0  0  0  0  0  0  0  0
  -18.0270  -28.1090   22.9410 C   0  0  0  0  0  0  0  0  0  0  0  0
  -20.5890  -28.3600   23.1920 C   0  0  0  0  0  3  0  0  0  0  0  0
  -20.6810  -26.9310   22.6110 C   0  0  0  0  0  2  0  0  0  0  0  0
  -19.5720  -26.6150   21.6030 C   0  0  0  0  0  2  0  0  0  0  0  0
  -18.1940  -26.7630   22.2560 C   0  0  0  0  0  2  0  0  0  0  0  0
  -19.1510  -28.8660   23.3650 C   0  0  0  0  0  0  0  0  0  0  0  0
  -18.9390  -30.1270   23.9650 C   0  0  0  0  0  3  0  0  0  0  0  0
  -17.6370  -30.6310   24.1420 C   0  0  0  0  0  3  0  0  0  0  0  0
  -16.5280  -29.8710   23.7320 C   0  0  0  0  0  3  0  0  0  0  0  0
  -16.7230  -28.6110   23.1370 C   0  0  0  0  0  3  0  0  0  0  0  0
  -25.8830  -32.5210   23.8400 C   0  0  0  0  0  3  0  0  0  0  0  0
  -26.4020  -31.7490   25.1170 C   0  0  1  0  0  0  0  0  0  0  0  0
  -25.3130  -31.5090   26.1880 C   0  0  0  0  0  1  0  0  0  0  0  0
  -26.9860  -30.3730   24.7240 C   0  0  0  0  0  1  0  0  0  0  0  0
  -27.5520  -32.5450   25.7760 C   0  0  0  0  0  1  0  0  0  0  0  0
  -25.5700  -33.9180   24.1760 N   0  0  0  0  0  0  0  0  0  0  0  0
  -25.8950  -34.9760   23.4200 C   0  0  0  0  0  0  0  0  0  0  0  0
  -26.5590  -34.8770   22.3850 O   0  0  0  0  0  0  0  0  0  0  0  0
  -24.9820  -34.0680   24.9830 H   0  0  0  0  0  0  0  0  0  0  0  0
  -24.1660  -36.7710   23.0770 C   0  0  0  0  0  1  0  0  0  0  0  0
  -25.4080  -36.3630   23.8850 C   0  0  0  0  0  3  0  0  0  0  0  0
  -27.5440  -37.2470   24.7150 C   0  0  0  0  0  1  0  0  0  0  0  0
  -26.4400  -37.4170   23.7740 N   0  0  0  0  0  0  0  0  0  0  0  0
  -26.0350  -38.3370   23.9250 H   0  0  0  0  0  0  0  0  0  0  0  0
  2  1  1  0
  2  9  1  0
  2 48  1  0
  3  8  1  0
  4  9  1  0
  6  4  1  0
  6  3  1  0
  6  7  1  0
  7  8  1  0
  7  5  1  0
  8 11  1  0
  9 10  1  1
  9  5  1  0
 12 11  1  0
 13 18  1  0
 14 15  1  0
 14 13  1  0
 16 15  1  0
 16 23  1  0
 16 17  1  0
 18 12  1  0
 18 17  1  0
 19 12  2  0
 20 21  2  0
 21 40  1  0
 22 21  1  0
 22 25  1  0
 23 20  1  0
 23 24  1  0
 24 22  2  0
 25 26  1  0
 26 27  2  0
 28 31  1  0
 28 27  1  0
 29 28  2  0
 30 29  1  0
 30 25  2  0
 31 32  1  0
 32 33  1  0
 33 34  2  0
 35 34  1  0
 35 39  1  0
 36 35  2  0
 37 32  2  0
 37 36  1  0
 38 37  1  0
 40 41  1  0
 41 44  1  0
 41 43  1  0
 42 40  2  0
 45 46  1  0
 45 20  1  0
 47 45  1  0
 49 48  2  0
 49 50  1  0
 51 62  2  0
 52 50  1  0
 52 57  1  0
 53 61  1  0
 53 63  1  0
 54 60  1  0
 54 56  1  0
 55 61  1  0
 56 55  1  0
 57 56  2  0
 58 52  2  0
 59 58  1  0
 59 54  2  0
 60 53  1  0
 61 51  1  0
 63 65  2  0
 64 63  1  0
 66 64  1  0
 67 76  2  0
 67 72  1  0
 68 64  1  0
 68 72  1  0
 69 68  1  0
 70 71  1  0
 70 69  1  0
 71 67  1  0
 72 73  2  0
 73 74  1  0
 75 74  2  0
 76 75  1  0
 77 51  1  0
 77 82  1  0
 77 78  1  0
 78 81  1  1
 78 79  1  0
 80 78  1  0
 82 85  1  0
 83 87  1  0
 83 82  1  0
 84 83  2  0
 87 86  1  0
 89 87  1  0
 89 90  1  0
 89 88  1  0
M  ISO  4  11 100  12 100  49 101  50 101
M  END
>  <TORSDO>  (81) 
F 20

>  <SCORE>  (81) 
-13.919

>  <name>  (81) 
82

>  <ligand_id>  (81) 
82

>  <original_smiles>  (81) 
[H]c1c([H])c([H])c2c(c1[H])C([H])([H])C([H])([H])C([H])([H])C2([H])N([H])C(=O)C1([H])N(C(=O)C([H])(N([H])C(=O)C([H])(N([H])C([H])([H])[H])C([H])([H])[H])C(C([H])([H])[H])(C([H])([H])[H])C([H])([H])[H])C([H])([H])c2c([H])c(OC([H])([H])C([H])([H])C([H])(C([H])([H])[H])[N+]3([H])C([H])([H])C4([H])C([H])([H])C([H])(C([H])([H])C(=O)N5C([H])([H])C([H])([H])C([H])([H])C([H])(n6nc(-c7c([H])c([H])c(Oc8c([H])c([H])c(F)c([H])c8F)c([H])c7[H])c(C(=O)N([H])[H])c6N([H])[H])C5([H])[H])C4([H])C3([H])[H])c([H])c([H])c2C1([H])[H]

>  <smiles>  (81) 
[H]c1c([H])c([H])c2c(c1[H])C([H])([H])C([H])([H])C([H])([H])C2([H])N([H])C(=O)C1([H])N(C(=O)C([H])(N([H])C(=O)C([H])(N([H])C([H])([H])[H])C([H])([H])[H])C(C([H])([H])[H])(C([H])([H])[H])C([H])([H])[H])C([H])([H])c2c([H])c(OC([H])([H])C([H])([H])C([H])(C([H])([H])[H])[N+]3([H])C([H])([H])C4([H])C([H])([H])C([H])(C([H])([H])C(=O)N5C([H])([H])C([H])([H])C([H])([H])C([H])(n6nc(-c7c([H])c([H])c(Oc8c([H])c([H])c(F)c([H])c8F)c([H])c7[H])c(C(=O)N([H])[H])c6N([H])[H])C5([H])[H])C4([H])C3([H])[H])c([H])c([H])c2C1([H])[H]

$$$$
83:0:0
     RDKit          3D

 96103  0  0  1  0  0  0  0  0999 V2000
  -30.6110  -19.9360   21.4490 C   0  0  0  0  0  3  0  0  0  0  0  0
  -30.2270  -19.2840   20.1710 N   0  0  0  0  0  4  0  0  0  0  0  0
  -29.7700  -18.4140   20.3900 H   0  0  0  0  0  0  0  0  0  0  0  0
  -29.5350  -19.8840   19.7440 H   0  0  0  0  0  0  0  0  0  0  0  0
  -31.3190  -19.0440   19.1870 C   0  0  0  0  0  3  0  0  0  0  0  0
  -31.7240  -17.5450   19.1610 C   0  0  0  0  0  2  0  0  0  0  0  0
  -31.6640  -16.7790   20.5150 C   0  0  0  0  0  2  0  0  0  0  0  0
  -32.4120  -15.4270   20.4590 C   0  0  0  0  0  0  0  0  0  0  0  0
  -32.4300  -12.9630   20.6470 C   0  0  0  0  0  2  0  0  0  0  0  0
  -31.7080  -12.3320   19.4430 C   0  0  0  0  0  2  0  0  0  0  0  0
  -30.1970  -12.2210   19.7190 C   0  0  0  0  0  2  0  0  0  0  0  0
  -29.5860  -13.5510   20.2360 C   0  0  0  0  0  3  0  0  0  0  0  0
  -30.4400  -14.1570   21.3740 C   0  0  0  0  0  2  0  0  0  0  0  0
  -31.8250  -14.2810   20.8960 N   0  0  0  0  0  0  0  0  0  0  0  0
  -33.5440  -15.4210   19.9660 O   0  0  0  0  0  0  0  0  0  0  0  0
  -27.2330  -14.3290   20.9300 C   0  0  0  0  0  0  0  0  0  0  0  0
  -26.0760  -13.6400   21.1800 C   0  0  0  0  0  0  0  0  0  0  0  0
  -26.3970  -12.2580   21.0130 C   0  0  0  0  0  0  0  0  0  0  0  0
  -28.1920  -13.3720   20.6380 N   0  0  0  0  0  0  0  0  0  0  0  0
  -27.6890  -12.1150   20.7420 N   0  0  0  0  0  0  0  0  0  0  0  0
  -25.5380  -11.0660   21.0410 C   0  0  0  0  0  0  0  0  0  0  0  0
  -25.6490  -10.1000   22.0630 C   0  0  0  0  0  3  0  0  0  0  0  0
  -24.8000   -8.9720   22.0790 C   0  0  0  0  0  3  0  0  0  0  0  0
  -23.8250   -8.8050   21.0680 C   0  0  0  0  0  0  0  0  0  0  0  0
  -23.7350   -9.7580   20.0370 C   0  0  0  0  0  3  0  0  0  0  0  0
  -24.5840  -10.8760   20.0210 C   0  0  0  0  0  3  0  0  0  0  0  0
  -22.9750   -7.7280   20.9870 O   0  0  0  0  0  0  0  0  0  0  0  0
  -22.2950   -7.2640   22.0840 C   0  0  0  0  0  0  0  0  0  0  0  0
  -21.3990   -8.0820   22.8070 C   0  0  0  0  0  3  0  0  0  0  0  0
  -20.6690   -7.5450   23.8860 C   0  0  0  0  0  3  0  0  0  0  0  0
  -20.8260   -6.1910   24.2370 C   0  0  0  0  0  0  0  0  0  0  0  0
  -21.7120   -5.3730   23.5150 C   0  0  0  0  0  3  0  0  0  0  0  0
  -22.4420   -5.9080   22.4390 C   0  0  0  0  0  0  0  0  0  0  0  0
  -23.2800   -5.1110   21.7340 F   0  0  0  0  0  0  0  0  0  0  0  0
  -20.1180   -5.6720   25.2690 F   0  0  0  0  0  0  0  0  0  0  0  0
  -24.7250  -14.2310   21.4620 C   0  0  0  0  0  0  0  0  0  0  0  0
  -23.9060  -13.5410   22.2490 N   0  0  0  0  0  0  0  0  0  0  0  0
  -24.4040  -15.3340   21.0230 O   0  0  0  0  0  0  0  0  0  0  0  0
  -24.1760  -12.6440   22.6260 H   0  0  0  0  0  0  0  0  0  0  0  0
  -22.9960  -13.9130   22.4780 H   0  0  0  0  0  0  0  0  0  0  0  0
  -27.5450  -15.6850   20.9090 N   0  0  0  0  0  0  0  0  0  0  0  0
  -26.8450  -16.4040   21.0630 H   0  0  0  0  0  0  0  0  0  0  0  0
  -28.4460  -16.0590   20.6420 H   0  0  0  0  0  0  0  0  0  0  0  0
  -30.8880  -19.5250   17.7750 C   0  0  0  0  0  2  0  0  0  0  0  0
  -31.5110  -19.6890   15.2950 C   0  0  0  0  0  1  0  0  0  0  0  0
  -32.0200  -19.4900   16.7280 C   0  0  0  0  0  2  0  0  0  0  0  0
  -30.8810  -19.4570   23.9660 C   0  0  0  0  0  1  0  0  0  0  0  0
  -28.5860  -19.2140   22.9210 C   0  0  0  0  0  1  0  0  0  0  0  0
  -30.1060  -19.1180   22.6800 C   0  0  0  0  0  3  0  0  0  0  0  0
  -30.1000  -21.4090   21.4740 C   0  0  0  0  0  2  0  0  0  0  0  0
  -31.8170  -22.9890   20.8350 C   0  0  0  0  0  1  0  0  0  0  0  0
  -30.5850  -22.3150   20.4110 N   0  0  0  0  0  0  0  0  0  0  0  0
  -29.5110  -23.3130   20.2260 C   0  0  0  0  0  2  0  0  0  0  0  0
  -29.7160  -24.4510   19.1870 C   0  0  0  0  0  2  0  0  0  0  0  0
  -28.3730  -25.1740   18.9450 C   0  0  0  0  0  2  0  0  0  0  0  0
  -28.4660  -26.5840   18.6520 O   0  0  0  0  0  0  0  0  0  0  0  0
  -25.3050  -30.4590   23.7230 C   0  0  0  0  0  0  0  0  0  0  0  0
  -27.3550  -27.3330   19.0010 C   0  0  0  0  0  0  0  0  0  0  0  0
  -23.8550  -29.7300   21.8600 C   0  0  0  0  0  3  0  0  0  0  0  0
  -25.0610  -28.7820   19.8240 C   0  0  0  0  0  0  0  0  0  0  0  0
  -26.3620  -30.1030   21.4940 C   0  0  0  0  0  2  0  0  0  0  0  0
  -26.3040  -29.0460   20.4120 C   0  0  0  0  0  0  0  0  0  0  0  0
  -27.4540  -28.3280   20.0040 C   0  0  0  0  0  3  0  0  0  0  0  0
  -26.0920  -27.1160   18.3950 C   0  0  0  0  0  3  0  0  0  0  0  0
  -24.9500  -27.8180   18.8130 C   0  0  0  0  0  3  0  0  0  0  0  0
  -23.8750  -29.5780   20.3170 C   0  0  0  0  0  2  0  0  0  0  0  0
  -25.2000  -30.0900   22.4150 N   0  0  0  0  0  0  0  0  0  0  0  0
  -24.3060  -30.5380   24.4500 O   0  0  0  0  0  0  0  0  0  0  0  0
  -23.2620  -28.4430   22.4770 C   0  0  0  0  0  0  0  0  0  0  0  0
  -22.0230  -28.1070   22.0820 N   0  0  0  0  0  0  0  0  0  0  0  0
  -23.9170  -27.7600   23.2680 O   0  0  0  0  0  0  0  0  0  0  0  0
  -21.5480  -28.7240   21.4370 H   0  0  0  0  0  0  0  0  0  0  0  0
  -19.0610  -26.1450   21.4240 C   0  0  0  0  0  0  0  0  0  0  0  0
  -21.2780  -26.9220   22.5030 C   0  0  0  0  0  3  0  0  0  0  0  0
  -21.8980  -25.6350   21.9120 C   0  0  0  0  0  2  0  0  0  0  0  0
  -21.2580  -25.2100   20.5850 C   0  0  0  0  0  2  0  0  0  0  0  0
  -19.7570  -24.9650   20.7660 C   0  0  0  0  0  2  0  0  0  0  0  0
  -19.7770  -27.0730   22.2250 C   0  0  0  0  0  0  0  0  0  0  0  0
  -19.0890  -28.1710   22.7830 C   0  0  0  0  0  3  0  0  0  0  0  0
  -17.7120  -28.3490   22.5560 C   0  0  0  0  0  3  0  0  0  0  0  0
  -17.0030  -27.4200   21.7750 C   0  0  0  0  0  3  0  0  0  0  0  0
  -17.6770  -26.3190   21.2150 C   0  0  0  0  0  3  0  0  0  0  0  0
  -26.6830  -30.8200   24.3610 C   0  0  0  0  0  3  0  0  0  0  0  0
  -26.4970  -32.0450   25.1480 N   0  0  0  0  0  0  0  0  0  0  0  0
  -26.9300  -33.2590   24.7810 C   0  0  0  0  0  0  0  0  0  0  0  0
  -27.5990  -33.4510   23.7610 O   0  0  0  0  0  0  0  0  0  0  0  0
  -25.9110  -31.9730   25.9670 H   0  0  0  0  0  0  0  0  0  0  0  0
  -25.4040  -35.2380   25.0550 C   0  0  0  0  0  1  0  0  0  0  0  0
  -26.5610  -34.4470   25.6870 C   0  0  0  0  0  3  0  0  0  0  0  0
  -28.7280  -34.7540   26.7980 C   0  0  0  0  0  1  0  0  0  0  0  0
  -27.6960  -35.3560   25.9590 N   0  0  0  0  0  0  0  0  0  0  0  0
  -27.3750  -36.2070   26.4140 H   0  0  0  0  0  0  0  0  0  0  0  0
  -27.2770  -29.6640   25.2570 C   0  0  1  0  0  0  0  0  0  0  0  0
  -26.2620  -29.0800   26.2680 C   0  0  0  0  0  1  0  0  0  0  0  0
  -27.7900  -28.5010   24.3770 C   0  0  0  0  0  1  0  0  0  0  0  0
  -28.4970  -30.1900   26.0490 C   0  0  0  0  0  1  0  0  0  0  0  0
  1 50  1  0
  1 49  1  0
  2  3  1  0
  2  1  1  0
  4  2  1  0
  5 44  1  0
  5  2  1  0
  6  5  1  0
  6  7  1  0
  8  7  1  0
  8 14  1  0
  9 14  1  0
 10 11  1  0
 10  9  1  0
 12 11  1  0
 12 19  1  0
 12 13  1  0
 14 13  1  0
 15  8  2  0
 16 17  2  0
 17 36  1  0
 18 21  1  0
 18 17  1  0
 19 20  1  0
 19 16  1  0
 20 18  2  0
 21 22  1  0
 22 23  2  0
 24 23  1  0
 25 24  2  0
 26 25  1  0
 26 21  2  0
 27 24  1  0
 27 28  1  0
 28 33  2  0
 28 29  1  0
 29 30  2  0
 30 31  1  0
 31 35  1  0
 32 31  2  0
 33 32  1  0
 34 33  1  0
 36 37  1  0
 37 40  1  0
 37 39  1  0
 38 36  2  0
 41 16  1  0
 41 42  1  0
 43 41  1  0
 45 46  1  0
 46 44  1  0
 49 48  1  0
 49 47  1  0
 52 51  1  0
 52 50  1  0
 53 52  1  0
 54 53  1  0
 55 54  1  0
 56 55  1  0
 56 58  1  0
 57 68  2  0
 58 63  1  0
 59 67  1  0
 59 69  1  0
 60 66  1  0
 60 62  1  0
 61 67  1  0
 62 61  1  0
 63 62  2  0
 64 65  1  0
 64 58  2  0
 65 60  2  0
 66 59  1  0
 67 57  1  0
 69 71  2  0
 70 69  1  0
 72 70  1  0
 73 78  1  0
 74 70  1  0
 75 74  1  0
 76 77  1  0
 76 75  1  0
 77 73  1  0
 78 74  1  0
 78 79  2  0
 80 79  1  0
 81 80  2  0
 82 73  2  0
 82 81  1  0
 83 57  1  0
 83 84  1  0
 83 93  1  0
 84 87  1  0
 85 84  1  0
 85 89  1  0
 86 85  2  0
 89 88  1  0
 89 91  1  0
 91 92  1  0
 91 90  1  0
 93 96  1  1
 93 94  1  0
 95 93  1  0
M  ISO  4   7 100   8 100  55 101  56 101
M  END
>  <TORSDO>  (82) 
F 28

>  <SCORE>  (82) 
-1.197

>  <name>  (82) 
83

>  <ligand_id>  (82) 
83

>  <original_smiles>  (82) 
[H]c1c([H])c([H])c2c(c1[H])C([H])([H])C([H])([H])C([H])([H])C2([H])N([H])C(=O)C1([H])N(C(=O)C([H])(N([H])C(=O)C([H])(N([H])C([H])([H])[H])C([H])([H])[H])C(C([H])([H])[H])(C([H])([H])[H])C([H])([H])[H])C([H])([H])c2c([H])c(OC([H])([H])C([H])([H])C([H])([H])N(C([H])([H])[H])C([H])([H])C([H])(C([H])(C([H])([H])[H])C([H])([H])[H])[N+]([H])([H])C([H])(C([H])([H])C([H])([H])C(=O)N3C([H])([H])C([H])([H])C([H])([H])C([H])(n4nc(-c5c([H])c([H])c(Oc6c([H])c([H])c(F)c([H])c6F)c([H])c5[H])c(C(=O)N([H])[H])c4N([H])[H])C3([H])[H])C([H])([H])C([H])([H])C([H])([H])[H])c([H])c([H])c2C1([H])[H]

>  <smiles>  (82) 
[H]c1c([H])c([H])c2c(c1[H])C([H])([H])C([H])([H])C([H])([H])C2([H])N([H])C(=O)C1([H])N(C(=O)C([H])(N([H])C(=O)C([H])(N([H])C([H])([H])[H])C([H])([H])[H])C(C([H])([H])[H])(C([H])([H])[H])C([H])([H])[H])C([H])([H])c2c([H])c(OC([H])([H])C([H])([H])C([H])([H])N(C([H])([H])[H])C([H])([H])C([H])(C([H])(C([H])([H])[H])C([H])([H])[H])[N+]([H])([H])C([H])(C([H])([H])C([H])([H])C(=O)N3C([H])([H])C([H])([H])C([H])([H])C([H])(n4nc(-c5c([H])c([H])c(Oc6c([H])c([H])c(F)c([H])c6F)c([H])c5[H])c(C(=O)N([H])[H])c4N([H])[H])C3([H])[H])C([H])([H])C([H])([H])C([H])([H])[H])c([H])c([H])c2C1([H])[H]

$$$$
84:0:0
     RDKit          3D

 91100  0  0  1  0  0  0  0  0999 V2000
  -29.8480  -17.9310   20.7460 C   0  0  0  0  0  0  0  0  0  0  0  0
  -27.8430  -18.8690   16.8600 C   0  0  0  0  0  2  0  0  0  0  0  0
  -29.2800  -19.2280   16.4620 C   0  0  0  0  0  2  0  0  0  0  0  0
  -27.7840  -18.8960   18.3980 C   0  0  0  0  0  2  0  0  0  0  0  0
  -30.0790  -19.3470   17.7690 C   0  0  0  0  0  2  0  0  0  0  0  0
  -28.8140  -21.2400   18.8650 C   0  0  0  0  0  2  0  0  0  0  0  0
  -29.5410  -20.5860   20.9730 C   0  0  0  0  0  2  0  0  0  0  0  0
  -28.6570  -21.7730   20.2960 C   0  0  0  0  0  3  0  0  0  0  0  0
  -29.0430  -19.6580   18.8720 C   0  0  1  0  0  0  0  0  0  0  0  0
  -29.4920  -19.2320   20.2330 N   0  0  0  0  0  0  0  0  0  0  0  0
  -30.2720  -17.8940   21.9030 O   0  0  0  0  0  0  0  0  0  0  0  0
  -29.6190  -16.4470   20.0300 C   0  0  0  0  0  2  0  0  0  0  0  0
  -30.5380  -15.0640   20.2630 C   0  0  0  0  0  0  0  0  0  0  0  0
  -30.4800  -12.6780   19.3970 C   0  0  0  0  0  2  0  0  0  0  0  0
  -29.5590  -12.6180   18.1510 C   0  0  0  0  0  2  0  0  0  0  0  0
  -28.0870  -12.4160   18.5570 C   0  0  0  0  0  2  0  0  0  0  0  0
  -27.6640  -13.3390   19.7240 C   0  0  0  0  0  3  0  0  0  0  0  0
  -28.7070  -13.3760   20.8600 C   0  0  0  0  0  2  0  0  0  0  0  0
  -29.9930  -13.7780   20.2760 N   0  0  0  0  0  0  0  0  0  0  0  0
  -31.7610  -15.1280   20.0800 O   0  0  0  0  0  0  0  0  0  0  0  0
  -25.2780  -13.9020   20.4520 C   0  0  0  0  0  0  0  0  0  0  0  0
  -24.2150  -13.1260   20.8150 C   0  0  0  0  0  0  0  0  0  0  0  0
  -24.6880  -11.7750   20.8000 C   0  0  0  0  0  0  0  0  0  0  0  0
  -26.3280  -13.0320   20.2220 N   0  0  0  0  0  0  0  0  0  0  0  0
  -25.9820  -11.7460   20.4990 N   0  0  0  0  0  0  0  0  0  0  0  0
  -23.9650  -10.5130   21.0000 C   0  0  0  0  0  0  0  0  0  0  0  0
  -24.3990   -9.5570   21.9430 C   0  0  0  0  0  3  0  0  0  0  0  0
  -23.6770   -8.3570   22.1310 C   0  0  0  0  0  3  0  0  0  0  0  0
  -22.5110   -8.1030   21.3710 C   0  0  0  0  0  0  0  0  0  0  0  0
  -22.0990   -9.0500   20.4170 C   0  0  0  0  0  3  0  0  0  0  0  0
  -22.8190  -10.2400   20.2290 C   0  0  0  0  0  3  0  0  0  0  0  0
  -21.7620   -6.9570   21.4620 O   0  0  0  0  0  0  0  0  0  0  0  0
  -21.7120   -6.2210   22.6190 C   0  0  0  0  0  0  0  0  0  0  0  0
  -21.2720   -6.7820   23.8360 C   0  0  0  0  0  3  0  0  0  0  0  0
  -21.1690   -5.9740   24.9870 C   0  0  0  0  0  3  0  0  0  0  0  0
  -21.4970   -4.6060   24.9190 C   0  0  0  0  0  0  0  0  0  0  0  0
  -21.9290   -4.0450   23.7060 C   0  0  0  0  0  3  0  0  0  0  0  0
  -22.0350   -4.8520   22.5570 C   0  0  0  0  0  0  0  0  0  0  0  0
  -22.4340   -4.3040   21.3850 F   0  0  0  0  0  0  0  0  0  0  0  0
  -21.3930   -3.8270   26.0220 F   0  0  0  0  0  0  0  0  0  0  0  0
  -22.8110  -13.5930   21.0690 C   0  0  0  0  0  0  0  0  0  0  0  0
  -22.0890  -12.9030   21.9400 N   0  0  0  0  0  0  0  0  0  0  0  0
  -22.3700  -14.6100   20.5320 O   0  0  0  0  0  0  0  0  0  0  0  0
  -22.4670  -12.0800   22.3870 H   0  0  0  0  0  0  0  0  0  0  0  0
  -21.1480  -13.1950   22.1600 H   0  0  0  0  0  0  0  0  0  0  0  0
  -25.4250  -15.2740   20.2670 N   0  0  0  0  0  0  0  0  0  0  0  0
  -24.6410  -15.9070   20.3760 H   0  0  0  0  0  0  0  0  0  0  0  0
  -26.2610  -15.7270   19.9270 H   0  0  0  0  0  0  0  0  0  0  0  0
  -28.9380  -23.4240   20.5650 C   0  0  0  0  0  3  0  0  0  0  0  0
  -27.8970  -24.7130   20.2820 C   0  0  0  0  0  3  0  0  0  0  0  0
  -28.2250  -26.2260   20.4290 O   0  0  0  0  0  0  0  0  0  0  0  0
  -24.6260  -31.9660   23.2940 C   0  0  0  0  0  0  0  0  0  0  0  0
  -27.1900  -27.2190   20.3330 C   0  0  0  0  0  0  0  0  0  0  0  0
  -23.4350  -30.5670   21.6520 C   0  0  0  0  0  3  0  0  0  0  0  0
  -24.8880  -28.9850   20.2460 C   0  0  0  0  0  0  0  0  0  0  0  0
  -25.9900  -30.8130   21.5210 C   0  0  0  0  0  2  0  0  0  0  0  0
  -26.0590  -29.4180   20.8830 C   0  0  0  0  0  0  0  0  0  0  0  0
  -27.2110  -28.5490   20.9160 C   0  0  0  0  0  3  0  0  0  0  0  0
  -26.0060  -26.8990   19.6360 C   0  0  0  0  0  3  0  0  0  0  0  0
  -24.8770  -27.7430   19.6010 C   0  0  0  0  0  3  0  0  0  0  0  0
  -23.6710  -29.8930   20.2760 C   0  0  0  0  0  2  0  0  0  0  0  0
  -24.7020  -31.1360   22.2100 N   0  0  0  0  0  0  0  0  0  0  0  0
  -23.5350  -32.2630   23.8060 O   0  0  0  0  0  0  0  0  0  0  0  0
  -22.7420  -29.5650   22.6080 C   0  0  0  0  0  0  0  0  0  0  0  0
  -21.4120  -29.4090   22.4730 N   0  0  0  0  0  0  0  0  0  0  0  0
  -23.3990  -28.9340   23.4390 O   0  0  0  0  0  0  0  0  0  0  0  0
  -20.9360  -29.9750   21.7830 H   0  0  0  0  0  0  0  0  0  0  0  0
  -18.0090  -28.2740   22.9620 C   0  0  0  0  0  0  0  0  0  0  0  0
  -20.5700  -28.4910   23.2430 C   0  0  0  0  0  3  0  0  0  0  0  0
  -20.6510  -27.0570   22.6700 C   0  0  0  0  0  2  0  0  0  0  0  0
  -19.5460  -26.7500   21.6520 C   0  0  0  0  0  2  0  0  0  0  0  0
  -18.1630  -26.9210   22.2880 C   0  0  0  0  0  2  0  0  0  0  0  0
  -19.1380  -29.0180   23.3960 C   0  0  0  0  0  0  0  0  0  0  0  0
  -18.9380  -30.2840   23.9880 C   0  0  0  0  0  3  0  0  0  0  0  0
  -17.6420  -30.8090   24.1460 C   0  0  0  0  0  3  0  0  0  0  0  0
  -16.5260  -30.0610   23.7300 C   0  0  0  0  0  3  0  0  0  0  0  0
  -16.7110  -28.7960   23.1460 C   0  0  0  0  0  3  0  0  0  0  0  0
  -25.9010  -32.5960   23.9310 C   0  0  0  0  0  3  0  0  0  0  0  0
  -26.3950  -31.8300   25.2210 C   0  0  1  0  0  0  0  0  0  0  0  0
  -25.2870  -31.6000   26.2750 C   0  0  0  0  0  1  0  0  0  0  0  0
  -26.9780  -30.4470   24.8490 C   0  0  0  0  0  1  0  0  0  0  0  0
  -27.5430  -32.6200   25.8930 C   0  0  0  0  0  1  0  0  0  0  0  0
  -25.6010  -34.0000   24.2470 N   0  0  0  0  0  0  0  0  0  0  0  0
  -25.9270  -35.0440   23.4740 C   0  0  0  0  0  0  0  0  0  0  0  0
  -26.5830  -34.9270   22.4350 O   0  0  0  0  0  0  0  0  0  0  0  0
  -25.0270  -34.1680   25.0620 H   0  0  0  0  0  0  0  0  0  0  0  0
  -24.1910  -36.8370   23.1340 C   0  0  0  0  0  1  0  0  0  0  0  0
  -25.4510  -36.4410   23.9220 C   0  0  0  0  0  3  0  0  0  0  0  0
  -27.6030  -37.3390   24.6930 C   0  0  0  0  0  1  0  0  0  0  0  0
  -26.4820  -37.4910   23.7700 N   0  0  0  0  0  0  0  0  0  0  0  0
  -26.0760  -38.4130   23.9120 H   0  0  0  0  0  0  0  0  0  0  0  0
  1 11  2  0
  2  4  1  0
  3  2  1  0
  3  5  1  0
  9  4  1  6
  5  9  1  0
  6  9  1  0
  6  8  1  0
  8 49  1  0
  8  7  1  0
  9 10  1  0
 10  1  1  0
 10  7  1  0
 12 13  1  0
 12  1  1  0
 13 19  1  0
 14 19  1  0
 15 16  1  0
 15 14  1  0
 17 16  1  0
 17 24  1  0
 17 18  1  0
 19 18  1  0
 20 13  2  0
 21 22  2  0
 22 41  1  0
 23 22  1  0
 23 26  1  0
 24 21  1  0
 24 25  1  0
 25 23  2  0
 26 27  1  0
 27 28  2  0
 29 32  1  0
 29 28  1  0
 30 29  2  0
 31 30  1  0
 31 26  2  0
 32 33  1  0
 33 34  1  0
 34 35  2  0
 36 35  1  0
 36 40  1  0
 37 36  2  0
 38 33  2  0
 38 37  1  0
 39 38  1  0
 41 42  1  0
 42 45  1  0
 42 44  1  0
 43 41  2  0
 46 47  1  0
 46 21  1  0
 48 46  1  0
 50 51  1  0
 50 49  2  0
 52 63  2  0
 53 51  1  0
 53 58  1  0
 54 62  1  0
 54 64  1  0
 55 61  1  0
 55 57  1  0
 56 62  1  0
 57 58  2  0
 57 56  1  0
 59 53  2  0
 60 59  1  0
 60 55  2  0
 61 54  1  0
 62 52  1  0
 64 66  2  0
 65 64  1  0
 67 65  1  0
 68 77  2  0
 68 73  1  0
 69 65  1  0
 69 73  1  0
 70 69  1  0
 71 72  1  0
 71 70  1  0
 72 68  1  0
 73 74  2  0
 74 75  1  0
 76 75  2  0
 77 76  1  0
 78 52  1  0
 78 83  1  0
 78 79  1  0
 79 82  1  1
 79 80  1  0
 81 79  1  0
 83 86  1  0
 84 88  1  0
 84 83  1  0
 85 84  2  0
 88 87  1  0
 90 91  1  0
 90 88  1  0
 90 89  1  0
M  ISO  4  12 100  13 100  50 101  51 101
M  END
>  <TORSDO>  (83) 
F 19

>  <SCORE>  (83) 
-15.099

>  <name>  (83) 
84

>  <ligand_id>  (83) 
84

>  <original_smiles>  (83) 
[H]c1c([H])c([H])c2c(c1[H])C([H])([H])C([H])([H])C([H])([H])C2([H])N([H])C(=O)C1([H])N(C(=O)C([H])(N([H])C(=O)C([H])(N([H])C([H])([H])[H])C([H])([H])[H])C(C([H])([H])[H])(C([H])([H])[H])C([H])([H])[H])C([H])([H])c2c([H])c(OC([H])([H])C([H])([H])C3([H])C([H])([H])N(C(=O)C([H])([H])C(=O)N4C([H])([H])C([H])([H])C([H])([H])C([H])(n5nc(-c6c([H])c([H])c(Oc7c([H])c([H])c(F)c([H])c7F)c([H])c6[H])c(C(=O)N([H])[H])c5N([H])[H])C4([H])[H])C4(C([H])([H])C([H])([H])C([H])([H])C4([H])[H])C3([H])[H])c([H])c([H])c2C1([H])[H]

>  <smiles>  (83) 
[H]c1c([H])c([H])c2c(c1[H])C([H])([H])C([H])([H])C([H])([H])C2([H])N([H])C(=O)C1([H])N(C(=O)C([H])(N([H])C(=O)C([H])(N([H])C([H])([H])[H])C([H])([H])[H])C(C([H])([H])[H])(C([H])([H])[H])C([H])([H])[H])C([H])([H])c2c([H])c(OC([H])([H])C([H])([H])C3([H])C([H])([H])N(C(=O)C([H])([H])C(=O)N4C([H])([H])C([H])([H])C([H])([H])C([H])(n5nc(-c6c([H])c([H])c(Oc7c([H])c([H])c(F)c([H])c7F)c([H])c6[H])c(C(=O)N([H])[H])c5N([H])[H])C4([H])[H])C4(C([H])([H])C([H])([H])C([H])([H])C4([H])[H])C3([H])[H])c([H])c([H])c2C1([H])[H]

$$$$
86:0:0
     RDKit          3D

 97105  0  0  1  0  0  0  0  0999 V2000
  -29.1740  -22.0880   19.2790 C   0  0  0  0  0  0  0  0  0  0  0  0
  -29.0710  -23.6270   19.3570 C   0  0  0  0  0  2  0  0  0  0  0  0
  -29.5600  -21.8950   21.7000 C   0  0  0  0  0  2  0  0  0  0  0  0
  -30.1130  -21.4570   20.3190 C   0  0  0  0  0  3  0  0  0  0  0  0
  -28.6820  -24.1590   20.7730 C   0  0  0  0  0  3  0  0  0  0  0  0
  -28.8920  -23.7000   23.2300 C   0  0  0  0  0  1  0  0  0  0  0  0
  -29.4120  -23.3940   21.8700 N   0  0  1  0  0  4  0  0  0  0  0  0
  -28.5310  -21.4240   18.4660 O   0  0  0  0  0  0  0  0  0  0  0  0
  -30.3610  -23.7480   21.8820 H   0  0  0  0  0  0  0  0  0  0  0  0
  -28.8470  -25.7400   20.9420 C   0  0  0  0  0  2  0  0  0  0  0  0
  -28.5310  -26.6520   19.8520 O   0  0  0  0  0  0  0  0  0  0  0  0
  -24.7020  -31.8440   23.0930 C   0  0  0  0  0  0  0  0  0  0  0  0
  -27.3800  -27.4230   19.9510 C   0  0  0  0  0  0  0  0  0  0  0  0
  -23.5060  -30.4420   21.4450 C   0  0  0  0  0  3  0  0  0  0  0  0
  -24.9750  -28.9350   19.9930 C   0  0  0  0  0  0  0  0  0  0  0  0
  -26.0290  -30.8280   21.2340 C   0  0  0  0  0  2  0  0  0  0  0  0
  -26.1330  -29.4580   20.5830 C   0  0  0  0  0  0  0  0  0  0  0  0
  -27.3430  -28.7110   20.5570 C   0  0  0  0  0  3  0  0  0  0  0  0
  -26.2050  -26.9320   19.3510 C   0  0  0  0  0  3  0  0  0  0  0  0
  -25.0070  -27.6740   19.3730 C   0  0  0  0  0  3  0  0  0  0  0  0
  -23.7190  -29.7810   20.0570 C   0  0  0  0  0  2  0  0  0  0  0  0
  -24.7640  -31.0540   21.9820 N   0  0  0  0  0  0  0  0  0  0  0  0
  -23.6200  -32.0920   23.6440 O   0  0  0  0  0  0  0  0  0  0  0  0
  -22.8760  -29.4000   22.3980 C   0  0  0  0  0  0  0  0  0  0  0  0
  -21.5500  -29.2130   22.2950 N   0  0  0  0  0  0  0  0  0  0  0  0
  -23.5790  -28.7630   23.1880 O   0  0  0  0  0  0  0  0  0  0  0  0
  -21.0420  -29.7810   21.6320 H   0  0  0  0  0  0  0  0  0  0  0  0
  -18.1920  -27.9900   22.8470 C   0  0  0  0  0  0  0  0  0  0  0  0
  -20.7550  -28.2550   23.0630 C   0  0  0  0  0  3  0  0  0  0  0  0
  -20.8510  -26.8380   22.4530 C   0  0  0  0  0  2  0  0  0  0  0  0
  -19.7260  -26.5330   21.4570 C   0  0  0  0  0  2  0  0  0  0  0  0
  -18.3590  -26.6570   22.1370 C   0  0  0  0  0  2  0  0  0  0  0  0
  -19.3190  -28.7470   23.2680 C   0  0  0  0  0  0  0  0  0  0  0  0
  -19.1080  -29.9960   23.8940 C   0  0  0  0  0  3  0  0  0  0  0  0
  -17.8070  -30.4880   24.1010 C   0  0  0  0  0  3  0  0  0  0  0  0
  -16.6960  -29.7270   23.6960 C   0  0  0  0  0  3  0  0  0  0  0  0
  -16.8890  -28.4800   23.0760 C   0  0  0  0  0  3  0  0  0  0  0  0
  -25.9800  -32.4890   23.7100 C   0  0  0  0  0  3  0  0  0  0  0  0
  -25.6410  -33.8670   24.0900 N   0  0  0  0  0  0  0  0  0  0  0  0
  -25.9380  -34.9530   23.3620 C   0  0  0  0  0  0  0  0  0  0  0  0
  -26.5970  -34.9000   22.3200 O   0  0  0  0  0  0  0  0  0  0  0  0
  -25.0510  -33.9800   24.9020 H   0  0  0  0  0  0  0  0  0  0  0  0
  -24.1710  -36.7210   23.0780 C   0  0  0  0  0  1  0  0  0  0  0  0
  -25.4230  -36.3120   23.8710 C   0  0  0  0  0  3  0  0  0  0  0  0
  -27.5380  -37.2130   24.7350 C   0  0  0  0  0  1  0  0  0  0  0  0
  -26.4330  -37.3900   23.7960 N   0  0  0  0  0  0  0  0  0  0  0  0
  -26.0070  -38.2950   23.9770 H   0  0  0  0  0  0  0  0  0  0  0  0
  -26.5440  -31.6920   24.9500 C   0  0  1  0  0  0  0  0  0  0  0  0
  -25.4800  -31.3920   26.0320 C   0  0  0  0  0  1  0  0  0  0  0  0
  -27.1540  -30.3430   24.5020 C   0  0  0  0  0  1  0  0  0  0  0  0
  -27.6880  -32.4950   25.6140 C   0  0  0  0  0  1  0  0  0  0  0  0
  -30.7450  -19.9890   20.0830 C   0  0  0  0  0  3  0  0  0  0  0  0
  -29.9550  -18.7300   20.4350 N   0  0  0  0  0  4  0  0  0  0  0  0
  -29.6890  -18.7860   21.4060 H   0  0  0  0  0  0  0  0  0  0  0  0
  -29.1050  -18.7070   19.8940 H   0  0  0  0  0  0  0  0  0  0  0  0
  -30.6920  -17.4070   20.2400 C   0  0  0  0  0  3  0  0  0  0  0  0
  -30.0730  -16.0590   20.8070 C   0  0  0  0  0  3  0  0  0  0  0  0
  -30.8320  -14.7410   20.3740 C   0  0  0  0  0  0  0  0  0  0  0  0
  -30.5860  -12.5250   19.2830 C   0  0  0  0  0  2  0  0  0  0  0  0
  -29.6550  -12.6840   18.0600 C   0  0  0  0  0  2  0  0  0  0  0  0
  -28.1800  -12.5300   18.4770 C   0  0  0  0  0  2  0  0  0  0  0  0
  -27.8180  -13.3890   19.7170 C   0  0  0  0  0  3  0  0  0  0  0  0
  -28.8670  -13.2340   20.8410 C   0  0  0  0  0  2  0  0  0  0  0  0
  -30.1880  -13.5380   20.2790 N   0  0  0  0  0  0  0  0  0  0  0  0
  -31.9950  -14.8570   19.9780 O   0  0  0  0  0  0  0  0  0  0  0  0
  -25.4190  -13.9960   20.4110 C   0  0  0  0  0  0  0  0  0  0  0  0
  -24.3500  -13.2260   20.7790 C   0  0  0  0  0  0  0  0  0  0  0  0
  -24.8140  -11.8740   20.7670 C   0  0  0  0  0  0  0  0  0  0  0  0
  -26.4670  -13.1130   20.1940 N   0  0  0  0  0  0  0  0  0  0  0  0
  -26.1070  -11.8330   20.4710 N   0  0  0  0  0  0  0  0  0  0  0  0
  -24.0880  -10.6130   20.9630 C   0  0  0  0  0  0  0  0  0  0  0  0
  -24.5080   -9.6580   21.9140 C   0  0  0  0  0  3  0  0  0  0  0  0
  -23.7820   -8.4620   22.0960 C   0  0  0  0  0  3  0  0  0  0  0  0
  -22.6220   -8.2120   21.3260 C   0  0  0  0  0  0  0  0  0  0  0  0
  -22.2210   -9.1550   20.3640 C   0  0  0  0  0  3  0  0  0  0  0  0
  -22.9470  -10.3440   20.1810 C   0  0  0  0  0  3  0  0  0  0  0  0
  -21.8680   -7.0670   21.4160 O   0  0  0  0  0  0  0  0  0  0  0  0
  -21.8010   -6.3390   22.5770 C   0  0  0  0  0  0  0  0  0  0  0  0
  -21.3400   -6.9060   23.7850 C   0  0  0  0  0  3  0  0  0  0  0  0
  -21.2210   -6.1050   24.9390 C   0  0  0  0  0  3  0  0  0  0  0  0
  -21.5510   -4.7380   24.8840 C   0  0  0  0  0  0  0  0  0  0  0  0
  -22.0050   -4.1700   23.6800 C   0  0  0  0  0  3  0  0  0  0  0  0
  -22.1260   -4.9680   22.5290 C   0  0  0  0  0  0  0  0  0  0  0  0
  -22.5430   -4.4120   21.3670 F   0  0  0  0  0  0  0  0  0  0  0  0
  -21.4290   -3.9650   25.9890 F   0  0  0  0  0  0  0  0  0  0  0  0
  -22.9500  -13.7040   21.0310 C   0  0  0  0  0  0  0  0  0  0  0  0
  -22.2120  -13.0150   21.8960 N   0  0  0  0  0  0  0  0  0  0  0  0
  -22.5160  -14.7240   20.4960 O   0  0  0  0  0  0  0  0  0  0  0  0
  -22.5750  -12.1900   22.3500 H   0  0  0  0  0  0  0  0  0  0  0  0
  -21.2720  -13.3180   22.1070 H   0  0  0  0  0  0  0  0  0  0  0  0
  -25.5840  -15.3650   20.2210 N   0  0  0  0  0  0  0  0  0  0  0  0
  -24.8140  -16.0170   20.3100 H   0  0  0  0  0  0  0  0  0  0  0  0
  -26.4330  -15.7970   19.8800 H   0  0  0  0  0  0  0  0  0  0  0  0
  -31.4060  -19.8600   18.6680 C   0  0  0  0  0  2  0  0  0  0  0  0
  -32.8270  -20.7400   16.7660 C   0  0  0  0  0  1  0  0  0  0  0  0
  -33.6640  -20.9990   19.1300 C   0  0  0  0  0  1  0  0  0  0  0  0
  -32.4150  -20.9550   18.2320 C   0  0  0  0  0  3  0  0  0  0  0  0
  1  2  1  0
  1  4  1  0
  2  5  1  0
  3  7  1  0
  4 52  1  0
  4  3  1  0
  5 10  1  0
  5  7  1  0
  7  9  1  1
  7  6  1  0
  8  1  2  0
 11 13  1  0
 11 10  1  0
 12 23  2  0
 13 18  1  0
 14 22  1  0
 14 24  1  0
 15 21  1  0
 15 17  1  0
 16 22  1  0
 17 16  1  0
 18 17  2  0
 19 20  1  0
 19 13  2  0
 20 15  2  0
 21 14  1  0
 22 12  1  0
 24 26  2  0
 25 24  1  0
 27 25  1  0
 28 37  2  0
 28 33  1  0
 29 25  1  0
 29 33  1  0
 30 29  1  0
 31 32  1  0
 31 30  1  0
 32 28  1  0
 33 34  2  0
 34 35  1  0
 36 35  2  0
 37 36  1  0
 38 12  1  0
 38 39  1  0
 38 48  1  0
 39 42  1  0
 40 44  1  0
 40 39  1  0
 41 40  2  0
 44 43  1  0
 46 44  1  0
 46 47  1  0
 46 45  1  0
 48 51  1  1
 48 49  1  0
 50 48  1  0
 52 94  1  0
 52 53  1  0
 53 54  1  0
 55 53  1  0
 56 53  1  0
 56 57  2  0
 58 57  1  0
 59 64  1  0
 60 61  1  0
 60 59  1  0
 62 61  1  0
 62 69  1  0
 62 63  1  0
 64 58  1  0
 64 63  1  0
 65 58  2  0
 66 67  2  0
 67 86  1  0
 68 67  1  0
 68 71  1  0
 69 66  1  0
 69 70  1  0
 70 68  2  0
 71 72  1  0
 72 73  2  0
 74 77  1  0
 74 73  1  0
 75 74  2  0
 76 75  1  0
 76 71  2  0
 77 78  1  0
 78 79  1  0
 79 80  2  0
 81 80  1  0
 81 85  1  0
 82 81  2  0
 83 78  2  0
 83 82  1  0
 84 83  1  0
 86 87  1  0
 87 90  1  0
 87 89  1  0
 88 86  2  0
 91 92  1  0
 91 66  1  0
 93 91  1  0
 95 97  1  0
 97 94  1  0
 97 96  1  0
M  ISO  4  10 101  11 101  57 100  58 100
M  END
>  <TORSDO>  (84) 
F 23

>  <SCORE>  (84) 
-12.393

>  <name>  (84) 
86

>  <ligand_id>  (84) 
86

>  <original_smiles>  (84) 
[H]c1c([H])c([H])c2c(c1[H])C([H])([H])C([H])([H])C([H])([H])C2([H])N([H])C(=O)C1([H])N(C(=O)C([H])(N([H])C(=O)C([H])(N([H])C([H])([H])[H])C([H])([H])[H])C(C([H])([H])[H])(C([H])([H])[H])C([H])([H])[H])C([H])([H])c2c([H])c(OC([H])([H])C3([H])C([H])([H])C(=O)C([H])(C([H])(C([H])([H])C([H])(C([H])([H])[H])C([H])([H])[H])[N+]([H])([H])C([H])([H])C([H])([H])C(=O)N4C([H])([H])C([H])([H])C([H])([H])C([H])(n5nc(-c6c([H])c([H])c(Oc7c([H])c([H])c(F)c([H])c7F)c([H])c6[H])c(C(=O)N([H])[H])c5N([H])[H])C4([H])[H])C([H])([H])[N+]3([H])C([H])([H])[H])c([H])c([H])c2C1([H])[H]

>  <smiles>  (84) 
[H]c1c([H])c([H])c2c(c1[H])C([H])([H])C([H])([H])C([H])([H])C2([H])N([H])C(=O)C1([H])N(C(=O)C([H])(N([H])C(=O)C([H])(N([H])C([H])([H])[H])C([H])([H])[H])C(C([H])([H])[H])(C([H])([H])[H])C([H])([H])[H])C([H])([H])c2c([H])c(OC([H])([H])C3([H])C([H])([H])C(=O)C([H])(C([H])(C([H])([H])C([H])(C([H])([H])[H])C([H])([H])[H])[N+]([H])([H])C([H])([H])C([H])([H])C(=O)N4C([H])([H])C([H])([H])C([H])([H])C([H])(n5nc(-c6c([H])c([H])c(Oc7c([H])c([H])c(F)c([H])c7F)c([H])c6[H])c(C(=O)N([H])[H])c5N([H])[H])C4([H])[H])C([H])([H])[N+]3([H])C([H])([H])[H])c([H])c([H])c2C1([H])[H]

$$$$
87:0:0
     RDKit          3D

 98105  0  0  1  0  0  0  0  0999 V2000
  -29.6790  -21.0660   20.6030 C   0  0  0  0  0  3  0  0  0  0  0  0
  -29.3720  -22.3060   19.8260 N   0  0  0  0  0  4  0  0  0  0  0  0
  -30.1130  -22.4340   19.1520 H   0  0  0  0  0  0  0  0  0  0  0  0
  -28.5340  -22.0940   19.3070 H   0  0  0  0  0  0  0  0  0  0  0  0
  -29.1620  -23.5900   20.5460 C   0  0  0  0  0  2  0  0  0  0  0  0
  -28.8960  -24.7790   19.5990 C   0  0  0  0  0  2  0  0  0  0  0  0
  -28.7920  -26.1050   20.3730 C   0  0  0  0  0  2  0  0  0  0  0  0
  -28.5480  -27.1970   19.4910 O   0  0  0  0  0  0  0  0  0  0  0  0
  -24.5760  -31.8250   23.1540 C   0  0  0  0  0  0  0  0  0  0  0  0
  -27.3270  -27.8060   19.6470 C   0  0  0  0  0  0  0  0  0  0  0  0
  -23.3700  -30.4730   21.4640 C   0  0  0  0  0  3  0  0  0  0  0  0
  -24.8400  -29.1190   19.8830 C   0  0  0  0  0  0  0  0  0  0  0  0
  -25.8510  -31.0060   21.1810 C   0  0  0  0  0  2  0  0  0  0  0  0
  -25.9890  -29.6870   20.4490 C   0  0  0  0  0  0  0  0  0  0  0  0
  -27.2340  -29.0350   20.3310 C   0  0  0  0  0  3  0  0  0  0  0  0
  -26.1620  -27.2330   19.0910 C   0  0  0  0  0  3  0  0  0  0  0  0
  -24.9190  -27.8870   19.2080 C   0  0  0  0  0  3  0  0  0  0  0  0
  -23.5520  -29.8980   20.0340 C   0  0  0  0  0  2  0  0  0  0  0  0
  -24.6180  -31.1150   21.9910 N   0  0  0  0  0  0  0  0  0  0  0  0
  -23.5120  -31.9970   23.7610 O   0  0  0  0  0  0  0  0  0  0  0  0
  -22.8220  -29.3550   22.3790 C   0  0  0  0  0  0  0  0  0  0  0  0
  -21.5170  -29.0660   22.2520 N   0  0  0  0  0  0  0  0  0  0  0  0
  -23.5670  -28.7510   23.1560 O   0  0  0  0  0  0  0  0  0  0  0  0
  -20.9750  -29.6100   21.5970 H   0  0  0  0  0  0  0  0  0  0  0  0
  -18.2720  -27.5410   22.6840 C   0  0  0  0  0  0  0  0  0  0  0  0
  -20.7930  -28.0250   22.9800 C   0  0  0  0  0  3  0  0  0  0  0  0
  -21.0320  -26.6370   22.3450 C   0  0  0  0  0  2  0  0  0  0  0  0
  -19.9670  -26.2560   21.3120 C   0  0  0  0  0  2  0  0  0  0  0  0
  -18.5770  -26.2420   21.9530 C   0  0  0  0  0  2  0  0  0  0  0  0
  -19.3140  -28.3850   23.1510 C   0  0  0  0  0  0  0  0  0  0  0  0
  -18.9780  -29.5960   23.7940 C   0  0  0  0  0  3  0  0  0  0  0  0
  -17.6310  -29.9670   23.9740 C   0  0  0  0  0  3  0  0  0  0  0  0
  -16.6050  -29.1200   23.5250 C   0  0  0  0  0  3  0  0  0  0  0  0
  -16.9240  -27.9080   22.8860 C   0  0  0  0  0  3  0  0  0  0  0  0
  -25.8570  -32.4810   23.7610 C   0  0  0  0  0  3  0  0  0  0  0  0
  -25.5190  -33.8670   24.1120 N   0  0  0  0  0  0  0  0  0  0  0  0
  -25.8290  -34.9370   23.3650 C   0  0  0  0  0  0  0  0  0  0  0  0
  -26.5030  -34.8610   22.3350 O   0  0  0  0  0  0  0  0  0  0  0  0
  -24.9190  -33.9970   24.9140 H   0  0  0  0  0  0  0  0  0  0  0  0
  -24.0640  -36.6950   23.0320 C   0  0  0  0  0  1  0  0  0  0  0  0
  -25.3100  -36.3070   23.8420 C   0  0  0  0  0  3  0  0  0  0  0  0
  -27.4200  -37.2260   24.6950 C   0  0  0  0  0  1  0  0  0  0  0  0
  -26.3200  -37.3830   23.7490 N   0  0  0  0  0  0  0  0  0  0  0  0
  -25.8940  -38.2920   23.9060 H   0  0  0  0  0  0  0  0  0  0  0  0
  -26.4200  -31.7080   25.0160 C   0  0  1  0  0  0  0  0  0  0  0  0
  -25.3500  -31.4080   26.0910 C   0  0  0  0  0  1  0  0  0  0  0  0
  -27.0490  -30.3620   24.5890 C   0  0  0  0  0  1  0  0  0  0  0  0
  -27.5520  -32.5310   25.6750 C   0  0  0  0  0  1  0  0  0  0  0  0
  -30.3750  -20.8870   23.1470 C   0  0  0  0  0  1  0  0  0  0  0  0
  -29.2580  -21.1470   22.1150 C   0  0  0  0  0  2  0  0  0  0  0  0
  -29.1720  -19.8310   19.7530 C   0  0  0  0  0  3  0  0  0  0  0  0
  -28.0960  -17.8850   20.7860 C   0  0  0  0  0  1  0  0  0  0  0  0
  -29.3760  -18.5420   20.4890 N   0  0  0  0  0  0  0  0  0  0  0  0
  -30.4760  -17.5800   20.1160 C   0  0  0  0  0  3  0  0  0  0  0  0
  -30.8320  -18.0630   17.5680 C   0  0  0  0  0  1  0  0  0  0  0  0
  -30.3510  -17.0830   18.6430 C   0  0  0  0  0  2  0  0  0  0  0  0
  -31.1690  -16.8100   22.5010 C   0  0  0  0  0  1  0  0  0  0  0  0
  -30.5830  -16.3620   21.1490 C   0  0  0  0  0  3  0  0  0  0  0  0
  -31.3570  -15.0710   20.7080 C   0  0  0  0  0  0  0  0  0  0  0  0
  -31.2090  -12.7640   19.8040 C   0  0  0  0  0  2  0  0  0  0  0  0
  -30.3960  -12.8320   18.4970 C   0  0  0  0  0  2  0  0  0  0  0  0
  -28.8910  -12.7050   18.8080 C   0  0  0  0  0  2  0  0  0  0  0  0
  -28.4220  -13.6600   19.9390 C   0  0  0  0  0  3  0  0  0  0  0  0
  -29.3770  -13.5500   21.1520 C   0  0  0  0  0  2  0  0  0  0  0  0
  -30.7370  -13.8520   20.6740 N   0  0  0  0  0  0  0  0  0  0  0  0
  -32.5190  -15.2090   20.3180 O   0  0  0  0  0  0  0  0  0  0  0  0
  -25.9780  -14.3050   20.4470 C   0  0  0  0  0  0  0  0  0  0  0  0
  -24.8800  -13.5480   20.7500 C   0  0  0  0  0  0  0  0  0  0  0  0
  -25.3280  -12.1950   20.7680 C   0  0  0  0  0  0  0  0  0  0  0  0
  -27.0330  -13.4110   20.3180 N   0  0  0  0  0  0  0  0  0  0  0  0
  -26.6380  -12.1370   20.5640 N   0  0  0  0  0  0  0  0  0  0  0  0
  -24.5730  -10.9460   20.9120 C   0  0  0  0  0  0  0  0  0  0  0  0
  -24.8580  -10.0330   21.9490 C   0  0  0  0  0  3  0  0  0  0  0  0
  -24.1090   -8.8430   22.0860 C   0  0  0  0  0  3  0  0  0  0  0  0
  -23.0630   -8.5620   21.1740 C   0  0  0  0  0  0  0  0  0  0  0  0
  -22.7940   -9.4650   20.1310 C   0  0  0  0  0  3  0  0  0  0  0  0
  -23.5440  -10.6450   19.9970 C   0  0  0  0  0  3  0  0  0  0  0  0
  -22.2980   -7.4210   21.2090 O   0  0  0  0  0  0  0  0  0  0  0  0
  -21.9720   -6.8090   22.3920 C   0  0  0  0  0  0  0  0  0  0  0  0
  -21.2470   -7.4790   23.4030 C   0  0  0  0  0  3  0  0  0  0  0  0
  -20.8740   -6.7880   24.5730 C   0  0  0  0  0  3  0  0  0  0  0  0
  -21.2120   -5.4330   24.7340 C   0  0  0  0  0  0  0  0  0  0  0  0
  -21.9290   -4.7650   23.7270 C   0  0  0  0  0  3  0  0  0  0  0  0
  -22.3050   -5.4490   22.5570 C   0  0  0  0  0  0  0  0  0  0  0  0
  -22.9770   -4.7920   21.5800 F   0  0  0  0  0  0  0  0  0  0  0  0
  -20.8490   -4.7720   25.8580 F   0  0  0  0  0  0  0  0  0  0  0  0
  -23.4710  -14.0510   20.9090 C   0  0  0  0  0  0  0  0  0  0  0  0
  -22.6790  -13.3780   21.7360 N   0  0  0  0  0  0  0  0  0  0  0  0
  -23.0830  -15.0720   20.3480 O   0  0  0  0  0  0  0  0  0  0  0  0
  -23.0110  -12.5600   22.2240 H   0  0  0  0  0  0  0  0  0  0  0  0
  -21.7360  -13.7050   21.9000 H   0  0  0  0  0  0  0  0  0  0  0  0
  -26.1430  -15.6650   20.2440 N   0  0  0  0  0  0  0  0  0  0  0  0
  -25.3400  -16.2860   20.2720 H   0  0  0  0  0  0  0  0  0  0  0  0
  -26.9490  -16.0860   19.8040 H   0  0  0  0  0  0  0  0  0  0  0  0
  -27.6930  -19.9960   19.2000 C   0  0  0  0  0  2  0  0  0  0  0  0
  -25.7950  -20.9770   17.8630 C   0  0  0  0  0  1  0  0  0  0  0  0
  -27.8480  -20.4620   16.5950 C   0  0  0  0  0  1  0  0  0  0  0  0
  -27.3270  -20.9020   17.9770 C   0  0  0  0  0  3  0  0  0  0  0  0
  1 50  1  0
  2  5  1  0
  2  1  1  0
  3  2  1  0
  4  2  1  0
  6  7  1  0
  6  5  1  0
  8 10  1  0
  8  7  1  0
  9 20  2  0
 10 15  1  0
 11 19  1  0
 11 21  1  0
 12 18  1  0
 12 14  1  0
 13 19  1  0
 14 13  1  0
 15 14  2  0
 16 17  1  0
 16 10  2  0
 17 12  2  0
 18 11  1  0
 19  9  1  0
 21 23  2  0
 22 21  1  0
 24 22  1  0
 25 34  2  0
 25 30  1  0
 26 22  1  0
 26 30  1  0
 27 26  1  0
 28 29  1  0
 28 27  1  0
 29 25  1  0
 30 31  2  0
 31 32  1  0
 33 32  2  0
 34 33  1  0
 35  9  1  0
 35 36  1  0
 35 45  1  0
 36 39  1  0
 37 41  1  0
 37 36  1  0
 38 37  2  0
 41 40  1  0
 43 41  1  0
 43 44  1  0
 43 42  1  0
 45 48  1  1
 45 46  1  0
 47 45  1  0
 50 49  1  0
 51 95  1  0
 51 53  1  0
 51  1  1  0
 53 52  1  0
 54 56  1  0
 54 53  1  0
 54 58  1  0
 55 56  1  0
 58 57  1  0
 59 58  1  0
 60 65  1  0
 61 62  1  0
 61 60  1  0
 63 62  1  0
 63 70  1  0
 63 64  1  0
 65 59  1  0
 65 64  1  0
 66 59  2  0
 67 68  2  0
 68 69  1  0
 68 87  1  0
 69 72  1  0
 70 67  1  0
 70 71  1  0
 71 69  2  0
 72 73  1  0
 73 74  2  0
 75 78  1  0
 75 74  1  0
 76 75  2  0
 77 76  1  0
 77 72  2  0
 78 79  1  0
 79 84  2  0
 79 80  1  0
 80 81  2  0
 81 82  1  0
 82 86  1  0
 83 82  2  0
 84 83  1  0
 85 84  1  0
 87 88  1  0
 88 91  1  0
 88 90  1  0
 89 87  2  0
 92 93  1  0
 92 67  1  0
 94 92  1  0
 96 98  1  0
 97 98  1  0
 98 95  1  0
M  ISO  4   7 101   8 101  58 100  59 100
M  END
>  <TORSDO>  (85) 
F 28

>  <SCORE>  (85) 
-9.673

>  <name>  (85) 
87

>  <ligand_id>  (85) 
87

>  <original_smiles>  (85) 
[H]c1c([H])c([H])c2c(c1[H])C([H])([H])C([H])([H])C([H])([H])C2([H])N([H])C(=O)C1([H])N(C(=O)C([H])(N([H])C(=O)C([H])(N([H])C([H])([H])[H])C([H])([H])[H])C(C([H])([H])[H])(C([H])([H])[H])C([H])([H])[H])C([H])([H])c2c([H])c(OC([H])([H])C([H])([H])C([H])([H])[N+]([H])([H])C([H])(C([H])([H])C([H])([H])[H])C([H])(N(C([H])([H])[H])C([H])(C([H])([H])C([H])([H])[H])C([H])(C(=O)N3C([H])([H])C([H])([H])C([H])([H])C([H])(n4nc(-c5c([H])c([H])c(Oc6c([H])c([H])c(F)c([H])c6F)c([H])c5[H])c(C(=O)N([H])[H])c4N([H])[H])C3([H])[H])C([H])([H])[H])C([H])([H])C([H])(C([H])([H])[H])C([H])([H])[H])c([H])c([H])c2C1([H])[H]

>  <smiles>  (85) 
[H]c1c([H])c([H])c2c(c1[H])C([H])([H])C([H])([H])C([H])([H])C2([H])N([H])C(=O)C1([H])N(C(=O)C([H])(N([H])C(=O)C([H])(N([H])C([H])([H])[H])C([H])([H])[H])C(C([H])([H])[H])(C([H])([H])[H])C([H])([H])[H])C([H])([H])c2c([H])c(OC([H])([H])C([H])([H])C([H])([H])[N+]([H])([H])C([H])(C([H])([H])C([H])([H])[H])C([H])(N(C([H])([H])[H])C([H])(C([H])([H])C([H])([H])[H])C([H])(C(=O)N3C([H])([H])C([H])([H])C([H])([H])C([H])(n4nc(-c5c([H])c([H])c(Oc6c([H])c([H])c(F)c([H])c6F)c([H])c5[H])c(C(=O)N([H])[H])c4N([H])[H])C3([H])[H])C([H])([H])[H])C([H])([H])C([H])(C([H])([H])[H])C([H])([H])[H])c([H])c([H])c2C1([H])[H]

$$$$
88:0:0
     RDKit          3D

 94103  0  0  1  0  0  0  0  0999 V2000
  -29.3590  -20.2930   20.3140 C   0  0  0  0  0  0  0  0  0  0  0  0
  -29.6620  -21.6120   20.2120 N   0  0  0  0  0  0  0  0  0  0  0  0
  -28.2220  -19.9290   20.6250 O   0  0  0  0  0  0  0  0  0  0  0  0
  -30.6120  -21.8520   19.9610 H   0  0  0  0  0  0  0  0  0  0  0  0
  -30.7890  -17.0230   21.4180 C   0  0  0  0  0  0  0  0  0  0  0  0
  -29.5580  -18.1220   17.8310 C   0  0  0  0  0  2  0  0  0  0  0  0
  -29.4680  -16.7330   18.5040 C   0  0  0  0  0  2  0  0  0  0  0  0
  -29.8290  -15.8490   21.0730 C   0  0  0  0  0  3  0  0  0  0  0  0
  -30.4550  -19.2230   19.9940 C   0  0  0  0  0  3  0  0  0  0  0  0
  -30.6820  -18.9860   18.4650 C   0  0  0  0  0  3  0  0  0  0  0  0
  -29.2490  -16.8390   20.0250 C   0  0  0  0  0  3  0  0  0  0  0  0
  -30.9590  -20.2520   17.6350 C   0  0  0  0  0  1  0  0  0  0  0  0
  -30.1600  -17.8780   20.5380 N   0  0  0  0  0  0  0  0  0  0  0  0
  -31.7350  -17.2170   22.1570 O   0  0  0  0  0  0  0  0  0  0  0  0
  -30.6070  -14.5930   20.5400 C   0  0  0  0  0  0  0  0  0  0  0  0
  -30.3580  -12.4060   19.4050 C   0  0  0  0  0  2  0  0  0  0  0  0
  -29.4420  -12.6070   18.1770 C   0  0  0  0  0  2  0  0  0  0  0  0
  -27.9560  -12.4720   18.5690 C   0  0  0  0  0  2  0  0  0  0  0  0
  -27.5910  -13.3040   19.8270 C   0  0  0  0  0  3  0  0  0  0  0  0
  -28.6240  -13.0800   20.9540 C   0  0  0  0  0  2  0  0  0  0  0  0
  -29.9600  -13.3960   20.4220 N   0  0  0  0  0  0  0  0  0  0  0  0
  -31.7570  -14.7240   20.1030 O   0  0  0  0  0  0  0  0  0  0  0  0
  -25.1740  -13.9110   20.4670 C   0  0  0  0  0  0  0  0  0  0  0  0
  -24.0990  -13.1420   20.8220 C   0  0  0  0  0  0  0  0  0  0  0  0
  -24.5640  -11.7910   20.8240 C   0  0  0  0  0  0  0  0  0  0  0  0
  -26.2270  -13.0300   20.2760 N   0  0  0  0  0  0  0  0  0  0  0  0
  -25.8620  -11.7510   20.5480 N   0  0  0  0  0  0  0  0  0  0  0  0
  -23.8360  -10.5310   21.0170 C   0  0  0  0  0  0  0  0  0  0  0  0
  -24.2540   -9.5740   21.9680 C   0  0  0  0  0  3  0  0  0  0  0  0
  -23.5280   -8.3780   22.1470 C   0  0  0  0  0  3  0  0  0  0  0  0
  -22.3680   -8.1290   21.3750 C   0  0  0  0  0  0  0  0  0  0  0  0
  -21.9690   -9.0730   20.4130 C   0  0  0  0  0  3  0  0  0  0  0  0
  -22.6970  -10.2620   20.2330 C   0  0  0  0  0  3  0  0  0  0  0  0
  -21.6150   -6.9830   21.4630 O   0  0  0  0  0  0  0  0  0  0  0  0
  -21.5520   -6.2490   22.6200 C   0  0  0  0  0  0  0  0  0  0  0  0
  -21.1100   -6.8130   23.8360 C   0  0  0  0  0  3  0  0  0  0  0  0
  -20.9950   -6.0060   24.9870 C   0  0  0  0  0  3  0  0  0  0  0  0
  -21.3110   -4.6360   24.9200 C   0  0  0  0  0  0  0  0  0  0  0  0
  -21.7470   -4.0720   23.7080 C   0  0  0  0  0  3  0  0  0  0  0  0
  -21.8630   -4.8760   22.5610 C   0  0  0  0  0  0  0  0  0  0  0  0
  -22.2630   -4.3220   21.3900 F   0  0  0  0  0  0  0  0  0  0  0  0
  -21.1920   -3.8580   26.0210 F   0  0  0  0  0  0  0  0  0  0  0  0
  -22.6950  -13.6200   21.0530 C   0  0  0  0  0  0  0  0  0  0  0  0
  -21.9470  -12.9350   21.9120 N   0  0  0  0  0  0  0  0  0  0  0  0
  -22.2660  -14.6340   20.5050 O   0  0  0  0  0  0  0  0  0  0  0  0
  -22.3040  -12.1140   22.3770 H   0  0  0  0  0  0  0  0  0  0  0  0
  -21.0040  -13.2390   22.1090 H   0  0  0  0  0  0  0  0  0  0  0  0
  -25.3400  -15.2800   20.2730 N   0  0  0  0  0  0  0  0  0  0  0  0
  -24.5680  -15.9310   20.3540 H   0  0  0  0  0  0  0  0  0  0  0  0
  -26.1960  -15.7180   19.9580 H   0  0  0  0  0  0  0  0  0  0  0  0
  -28.6660  -22.7070   20.2630 C   0  0  0  0  0  2  0  0  0  0  0  0
  -29.2090  -24.1790   20.2760 C   0  0  0  0  0  2  0  0  0  0  0  0
  -28.0680  -25.2060   19.9930 C   0  0  0  0  0  2  0  0  0  0  0  0
  -28.3000  -26.6320   20.1930 O   0  0  0  0  0  0  0  0  0  0  0  0
  -24.5790  -31.9370   23.2840 C   0  0  0  0  0  0  0  0  0  0  0  0
  -27.1610  -27.4410   20.1660 C   0  0  0  0  0  0  0  0  0  0  0  0
  -23.3550  -30.5520   21.6480 C   0  0  0  0  0  3  0  0  0  0  0  0
  -24.7880  -29.0160   20.2040 C   0  0  0  0  0  0  0  0  0  0  0  0
  -25.8910  -30.8780   21.4400 C   0  0  0  0  0  2  0  0  0  0  0  0
  -25.9620  -29.5090   20.7860 C   0  0  0  0  0  0  0  0  0  0  0  0
  -27.1530  -28.7320   20.7610 C   0  0  0  0  0  3  0  0  0  0  0  0
  -25.9580  -26.9890   19.5670 C   0  0  0  0  0  3  0  0  0  0  0  0
  -24.7840  -27.7570   19.5890 C   0  0  0  0  0  3  0  0  0  0  0  0
  -23.5530  -29.8850   20.2630 C   0  0  0  0  0  2  0  0  0  0  0  0
  -24.6280  -31.1370   22.1810 N   0  0  0  0  0  0  0  0  0  0  0  0
  -23.5020  -32.2150   23.8290 O   0  0  0  0  0  0  0  0  0  0  0  0
  -22.7020  -29.5280   22.6060 C   0  0  0  0  0  0  0  0  0  0  0  0
  -21.3770  -29.3440   22.4780 N   0  0  0  0  0  0  0  0  0  0  0  0
  -23.3860  -28.9030   23.4220 O   0  0  0  0  0  0  0  0  0  0  0  0
  -20.8870  -29.8990   21.7920 H   0  0  0  0  0  0  0  0  0  0  0  0
  -18.0050  -28.1380   22.9690 C   0  0  0  0  0  0  0  0  0  0  0  0
  -20.5610  -28.4070   23.2500 C   0  0  0  0  0  3  0  0  0  0  0  0
  -20.6710  -26.9730   22.6810 C   0  0  0  0  0  2  0  0  0  0  0  0
  -19.5740  -26.6420   21.6640 C   0  0  0  0  0  2  0  0  0  0  0  0
  -18.1890  -26.7850   22.3020 C   0  0  0  0  0  2  0  0  0  0  0  0
  -19.1190  -28.9060   23.4000 C   0  0  0  0  0  0  0  0  0  0  0  0
  -18.8930  -30.1720   23.9830 C   0  0  0  0  0  3  0  0  0  0  0  0
  -17.5860  -30.6690   24.1420 C   0  0  0  0  0  3  0  0  0  0  0  0
  -16.4860  -29.8980   23.7270 C   0  0  0  0  0  3  0  0  0  0  0  0
  -16.6970  -28.6340   23.1460 C   0  0  0  0  0  3  0  0  0  0  0  0
  -25.8720  -32.5600   23.8970 C   0  0  0  0  0  3  0  0  0  0  0  0
  -26.3930  -31.7830   25.1680 C   0  0  1  0  0  0  0  0  0  0  0  0
  -25.3060  -31.5480   26.2430 C   0  0  0  0  0  1  0  0  0  0  0  0
  -26.9670  -30.4030   24.7690 C   0  0  0  0  0  1  0  0  0  0  0  0
  -27.5520  -32.5710   25.8230 C   0  0  0  0  0  1  0  0  0  0  0  0
  -25.5710  -33.9590   24.2300 N   0  0  0  0  0  0  0  0  0  0  0  0
  -25.8860  -35.0090   23.4590 C   0  0  0  0  0  0  0  0  0  0  0  0
  -26.5320  -34.9010   22.4120 O   0  0  0  0  0  0  0  0  0  0  0  0
  -24.9950  -34.1170   25.0420 H   0  0  0  0  0  0  0  0  0  0  0  0
  -24.1430  -36.7950   23.1510 C   0  0  0  0  0  1  0  0  0  0  0  0
  -25.4110  -36.3980   23.9250 C   0  0  0  0  0  3  0  0  0  0  0  0
  -27.5690  -37.2930   24.6810 C   0  0  0  0  0  1  0  0  0  0  0  0
  -26.4370  -37.4530   23.7720 N   0  0  0  0  0  0  0  0  0  0  0  0
  -26.0330  -38.3730   23.9260 H   0  0  0  0  0  0  0  0  0  0  0  0
  1  3  2  0
  2 51  1  0
  2  1  1  0
  4  2  1  0
  5 14  2  0
  6 10  1  0
  6  7  1  0
  8 15  1  0
  8  5  1  0
  9  1  1  0
  9 13  1  0
 10 12  1  0
 10  9  1  0
 11  7  1  0
 11 13  1  0
 11  8  1  0
 13  5  1  0
 16 21  1  0
 17 18  1  0
 17 16  1  0
 19 18  1  0
 19 26  1  0
 19 20  1  0
 21 15  1  0
 21 20  1  0
 22 15  2  0
 23 24  2  0
 24 25  1  0
 24 43  1  0
 25 28  1  0
 26 23  1  0
 26 27  1  0
 27 25  2  0
 28 29  1  0
 29 30  2  0
 31 34  1  0
 31 30  1  0
 32 31  2  0
 33 32  1  0
 33 28  2  0
 34 35  1  0
 35 36  1  0
 36 37  2  0
 38 37  1  0
 38 42  1  0
 39 38  2  0
 40 35  2  0
 40 39  1  0
 41 40  1  0
 43 44  1  0
 44 47  1  0
 44 46  1  0
 45 43  2  0
 48 49  1  0
 48 23  1  0
 50 48  1  0
 51 52  1  0
 53 54  1  0
 53 52  1  0
 55 66  2  0
 56 54  1  0
 56 61  1  0
 57 65  1  0
 57 67  1  0
 58 64  1  0
 58 60  1  0
 59 65  1  0
 60 59  1  0
 61 60  2  0
 62 63  1  0
 62 56  2  0
 63 58  2  0
 64 57  1  0
 65 55  1  0
 67 69  2  0
 68 67  1  0
 70 68  1  0
 71 80  2  0
 71 76  1  0
 72 68  1  0
 72 76  1  0
 73 72  1  0
 74 75  1  0
 74 73  1  0
 75 71  1  0
 76 77  2  0
 77 78  1  0
 79 78  2  0
 80 79  1  0
 81 55  1  0
 81 86  1  0
 81 82  1  0
 82 85  1  1
 82 83  1  0
 84 82  1  0
 86 89  1  0
 87 91  1  0
 87 86  1  0
 88 87  2  0
 91 90  1  0
 93 91  1  0
 93 94  1  0
 93 92  1  0
M  ISO  4   8 100  15 100  53 101  54 101
M  END
>  <TORSDO>  (86) 
F 20

>  <SCORE>  (86) 
-13.565

>  <name>  (86) 
88

>  <ligand_id>  (86) 
88

>  <original_smiles>  (86) 
[H]c1c([H])c([H])c2c(c1[H])C([H])([H])C([H])([H])C([H])([H])C2([H])N([H])C(=O)C1([H])N(C(=O)C([H])(N([H])C(=O)C([H])(N([H])C([H])([H])[H])C([H])([H])[H])C(C([H])([H])[H])(C([H])([H])[H])C([H])([H])[H])C([H])([H])c2c([H])c(OC([H])([H])C([H])([H])C([H])([H])N([H])C(=O)C3([H])N4C(=O)C([H])(C(=O)N5C([H])([H])C([H])([H])C([H])([H])C([H])(n6nc(-c7c([H])c([H])c(Oc8c([H])c([H])c(F)c([H])c8F)c([H])c7[H])c(C(=O)N([H])[H])c6N([H])[H])C5([H])[H])C4([H])C([H])([H])C([H])([H])C3([H])C([H])([H])[H])c([H])c([H])c2C1([H])[H]

>  <smiles>  (86) 
[H]c1c([H])c([H])c2c(c1[H])C([H])([H])C([H])([H])C([H])([H])C2([H])N([H])C(=O)C1([H])N(C(=O)C([H])(N([H])C(=O)C([H])(N([H])C([H])([H])[H])C([H])([H])[H])C(C([H])([H])[H])(C([H])([H])[H])C([H])([H])[H])C([H])([H])c2c([H])c(OC([H])([H])C([H])([H])C([H])([H])N([H])C(=O)C3([H])N4C(=O)C([H])(C(=O)N5C([H])([H])C([H])([H])C([H])([H])C([H])(n6nc(-c7c([H])c([H])c(Oc8c([H])c([H])c(F)c([H])c8F)c([H])c7[H])c(C(=O)N([H])[H])c6N([H])[H])C5([H])[H])C4([H])C([H])([H])C([H])([H])C3([H])C([H])([H])[H])c([H])c([H])c2C1([H])[H]

$$$$
89:0:0
     RDKit          3D

 92 99  0  0  1  0  0  0  0  0999 V2000
  -26.0570  -22.0460   18.5070 C   0  0  0  0  0  1  0  0  0  0  0  0
  -27.4180  -22.4990   18.8990 N   0  0  1  0  0  4  0  0  0  0  0  0
  -27.6860  -21.9090   19.6700 H   0  0  0  0  0  0  0  0  0  0  0  0
  -28.4210  -22.3110   17.8160 C   0  0  0  0  0  2  0  0  0  0  0  0
  -28.7370  -20.8410   17.5530 C   0  0  0  0  0  0  0  0  0  0  0  0
  -29.1850  -20.1090   18.5810 N   0  0  0  0  0  0  0  0  0  0  0  0
  -28.5330  -20.3600   16.4360 O   0  0  0  0  0  0  0  0  0  0  0  0
  -29.4320  -20.5640   19.4490 H   0  0  0  0  0  0  0  0  0  0  0  0
  -29.4520  -18.6830   18.4900 C   0  0  0  0  0  2  0  0  0  0  0  0
  -29.4730  -18.0250   19.8780 C   0  0  0  0  0  2  0  0  0  0  0  0
  -29.7920  -16.5350   19.7260 C   0  0  0  0  0  2  0  0  0  0  0  0
  -29.9560  -15.7410   21.0390 C   0  0  0  0  0  2  0  0  0  0  0  0
  -30.6910  -14.4340   20.7160 C   0  0  0  0  0  0  0  0  0  0  0  0
  -30.4060  -12.2790   19.5940 C   0  0  0  0  0  2  0  0  0  0  0  0
  -29.5200  -12.5170   18.3540 C   0  0  0  0  0  2  0  0  0  0  0  0
  -28.0260  -12.4030   18.7180 C   0  0  0  0  0  2  0  0  0  0  0  0
  -27.6490  -13.2380   19.9720 C   0  0  0  0  0  3  0  0  0  0  0  0
  -28.6580  -13.0000   21.1170 C   0  0  0  0  0  2  0  0  0  0  0  0
  -30.0110  -13.2650   20.6080 N   0  0  0  0  0  0  0  0  0  0  0  0
  -31.8630  -14.5530   20.3500 O   0  0  0  0  0  0  0  0  0  0  0  0
  -25.2230  -13.8660   20.5670 C   0  0  0  0  0  0  0  0  0  0  0  0
  -24.1380  -13.1030   20.9030 C   0  0  0  0  0  0  0  0  0  0  0  0
  -24.5960  -11.7500   20.9150 C   0  0  0  0  0  0  0  0  0  0  0  0
  -26.2740  -12.9780   20.3970 N   0  0  0  0  0  0  0  0  0  0  0  0
  -25.8970  -11.7010   20.6620 N   0  0  0  0  0  0  0  0  0  0  0  0
  -23.8590  -10.4930   21.0980 C   0  0  0  0  0  0  0  0  0  0  0  0
  -24.2730   -9.5240   22.0380 C   0  0  0  0  0  3  0  0  0  0  0  0
  -23.5380   -8.3320   22.2090 C   0  0  0  0  0  3  0  0  0  0  0  0
  -22.3760   -8.0980   21.4350 C   0  0  0  0  0  0  0  0  0  0  0  0
  -21.9820   -9.0550   20.4830 C   0  0  0  0  0  3  0  0  0  0  0  0
  -22.7170  -10.2400   20.3120 C   0  0  0  0  0  3  0  0  0  0  0  0
  -21.6130   -6.9580   21.5130 O   0  0  0  0  0  0  0  0  0  0  0  0
  -21.5650   -6.2030   22.6570 C   0  0  0  0  0  0  0  0  0  0  0  0
  -21.1710   -6.7520   23.8970 C   0  0  0  0  0  3  0  0  0  0  0  0
  -21.0690   -5.9240   25.0320 C   0  0  0  0  0  3  0  0  0  0  0  0
  -21.3480   -4.5480   24.9290 C   0  0  0  0  0  0  0  0  0  0  0  0
  -21.7350   -3.9980   23.6940 C   0  0  0  0  0  3  0  0  0  0  0  0
  -21.8390   -4.8240   22.5610 C   0  0  0  0  0  0  0  0  0  0  0  0
  -22.1920   -4.2860   21.3680 F   0  0  0  0  0  0  0  0  0  0  0  0
  -21.2420   -3.7500   26.0170 F   0  0  0  0  0  0  0  0  0  0  0  0
  -22.7320  -13.5880   21.1120 C   0  0  0  0  0  0  0  0  0  0  0  0
  -21.9690  -12.9100   21.9610 N   0  0  0  0  0  0  0  0  0  0  0  0
  -22.3170  -14.6050   20.5570 O   0  0  0  0  0  0  0  0  0  0  0  0
  -22.3190  -12.0890   22.4320 H   0  0  0  0  0  0  0  0  0  0  0  0
  -21.0240  -13.2160   22.1430 H   0  0  0  0  0  0  0  0  0  0  0  0
  -25.4000  -15.2330   20.3750 N   0  0  0  0  0  0  0  0  0  0  0  0
  -24.6320  -15.8920   20.4440 H   0  0  0  0  0  0  0  0  0  0  0  0
  -26.2710  -15.6660   20.0950 H   0  0  0  0  0  0  0  0  0  0  0  0
  -27.3910  -23.8930   19.4060 C   0  0  0  0  0  2  0  0  0  0  0  0
  -28.5670  -24.2760   20.3260 C   0  0  0  0  0  2  0  0  0  0  0  0
  -28.3630  -25.6300   21.0350 C   0  0  0  0  0  2  0  0  0  0  0  0
  -28.3330  -26.7260   20.1180 O   0  0  0  0  0  0  0  0  0  0  0  0
  -24.5770  -31.9030   23.2550 C   0  0  0  0  0  0  0  0  0  0  0  0
  -27.1730  -27.4620   20.1550 C   0  0  0  0  0  0  0  0  0  0  0  0
  -23.3520  -30.5060   21.6270 C   0  0  0  0  0  3  0  0  0  0  0  0
  -24.7870  -28.9660   20.1960 C   0  0  0  0  0  0  0  0  0  0  0  0
  -25.8770  -30.8540   21.4110 C   0  0  0  0  0  2  0  0  0  0  0  0
  -25.9520  -29.4850   20.7750 C   0  0  0  0  0  0  0  0  0  0  0  0
  -27.1520  -28.7390   20.7580 C   0  0  0  0  0  3  0  0  0  0  0  0
  -25.9910  -26.9620   19.5680 C   0  0  0  0  0  3  0  0  0  0  0  0
  -24.7990  -27.7010   19.5940 C   0  0  0  0  0  3  0  0  0  0  0  0
  -23.5470  -29.8270   20.2470 C   0  0  0  0  0  2  0  0  0  0  0  0
  -24.6200  -31.1020   22.1550 N   0  0  0  0  0  0  0  0  0  0  0  0
  -23.5020  -32.1830   23.8020 O   0  0  0  0  0  0  0  0  0  0  0  0
  -22.7060  -29.4840   22.5910 C   0  0  0  0  0  0  0  0  0  0  0  0
  -21.3800  -29.3040   22.4690 N   0  0  0  0  0  0  0  0  0  0  0  0
  -23.3930  -28.8560   23.4020 O   0  0  0  0  0  0  0  0  0  0  0  0
  -20.8890  -29.8620   21.7840 H   0  0  0  0  0  0  0  0  0  0  0  0
  -18.0070  -28.1190   22.9730 C   0  0  0  0  0  0  0  0  0  0  0  0
  -20.5640  -28.3730   23.2450 C   0  0  0  0  0  3  0  0  0  0  0  0
  -20.6650  -26.9390   22.6770 C   0  0  0  0  0  2  0  0  0  0  0  0
  -19.5620  -26.6110   21.6650 C   0  0  0  0  0  2  0  0  0  0  0  0
  -18.1800  -26.7650   22.3070 C   0  0  0  0  0  2  0  0  0  0  0  0
  -19.1260  -28.8820   23.3990 C   0  0  0  0  0  0  0  0  0  0  0  0
  -18.9120  -30.1510   23.9800 C   0  0  0  0  0  3  0  0  0  0  0  0
  -17.6090  -30.6580   24.1390 C   0  0  0  0  0  3  0  0  0  0  0  0
  -16.5020  -29.8920   23.7320 C   0  0  0  0  0  3  0  0  0  0  0  0
  -16.7010  -28.6250   23.1550 C   0  0  0  0  0  3  0  0  0  0  0  0
  -25.8720  -32.5260   23.8640 C   0  0  0  0  0  3  0  0  0  0  0  0
  -26.4030  -31.7450   25.1290 C   0  0  1  0  0  0  0  0  0  0  0  0
  -25.3230  -31.5060   26.2090 C   0  0  0  0  0  1  0  0  0  0  0  0
  -26.9750  -30.3670   24.7210 C   0  0  0  0  0  1  0  0  0  0  0  0
  -27.5670  -32.5310   25.7790 C   0  0  0  0  0  1  0  0  0  0  0  0
  -25.5730  -33.9230   24.1990 N   0  0  0  0  0  0  0  0  0  0  0  0
  -25.9040  -34.9730   23.4360 C   0  0  0  0  0  0  0  0  0  0  0  0
  -26.5640  -34.8680   22.3980 O   0  0  0  0  0  0  0  0  0  0  0  0
  -24.9870  -34.0800   25.0060 H   0  0  0  0  0  0  0  0  0  0  0  0
  -24.1760  -36.7680   23.0950 C   0  0  0  0  0  1  0  0  0  0  0  0
  -25.4240  -36.3630   23.8970 C   0  0  0  0  0  3  0  0  0  0  0  0
  -27.5720  -37.2370   24.7030 C   0  0  0  0  0  1  0  0  0  0  0  0
  -26.4580  -37.4120   23.7730 N   0  0  0  0  0  0  0  0  0  0  0  0
  -26.0580  -38.3340   23.9290 H   0  0  0  0  0  0  0  0  0  0  0  0
  1  2  1  0
  2 49  1  0
  2  3  1  1
  4  2  1  0
  5  4  1  0
  5  6  1  0
  6  8  1  0
  7  5  2  0
  9  6  1  0
  9 10  1  0
 11 10  1  0
 11 12  1  0
 13 12  1  0
 14 19  1  0
 15 16  1  0
 15 14  1  0
 17 16  1  0
 17 24  1  0
 17 18  1  0
 19 13  1  0
 19 18  1  0
 20 13  2  0
 21 22  2  0
 22 23  1  0
 22 41  1  0
 23 26  1  0
 24 21  1  0
 24 25  1  0
 25 23  2  0
 26 27  1  0
 27 28  2  0
 29 32  1  0
 29 28  1  0
 30 29  2  0
 31 30  1  0
 31 26  2  0
 32 33  1  0
 33 34  1  0
 34 35  2  0
 36 35  1  0
 36 40  1  0
 37 36  2  0
 38 33  2  0
 38 37  1  0
 39 38  1  0
 41 42  1  0
 42 45  1  0
 42 44  1  0
 43 41  2  0
 46 47  1  0
 46 21  1  0
 48 46  1  0
 49 50  1  0
 50 51  1  0
 52 54  1  0
 52 51  1  0
 53 64  2  0
 54 59  1  0
 55 63  1  0
 55 65  1  0
 56 62  1  0
 56 58  1  0
 57 63  1  0
 58 57  1  0
 59 58  2  0
 60 61  1  0
 60 54  2  0
 61 56  2  0
 62 55  1  0
 63 53  1  0
 65 67  2  0
 66 65  1  0
 68 66  1  0
 69 78  2  0
 69 74  1  0
 70 66  1  0
 70 74  1  0
 71 70  1  0
 72 73  1  0
 72 71  1  0
 73 69  1  0
 74 75  2  0
 75 76  1  0
 77 76  2  0
 78 77  1  0
 79 53  1  0
 79 84  1  0
 79 80  1  0
 80 83  1  1
 80 81  1  0
 82 80  1  0
 84 87  1  0
 85 89  1  0
 85 84  1  0
 86 85  2  0
 89 88  1  0
 91 89  1  0
 91 92  1  0
 91 90  1  0
M  ISO  4  12 100  13 100  51 101  52 101
M  END
>  <TORSDO>  (87) 
F 25

>  <SCORE>  (87) 
-12.227

>  <name>  (87) 
89

>  <ligand_id>  (87) 
89

>  <original_smiles>  (87) 
[H]c1c([H])c([H])c2c(c1[H])C([H])([H])C([H])([H])C([H])([H])C2([H])N([H])C(=O)C1([H])N(C(=O)C([H])(N([H])C(=O)C([H])(N([H])C([H])([H])[H])C([H])([H])[H])C(C([H])([H])[H])(C([H])([H])[H])C([H])([H])[H])C([H])([H])c2c([H])c(OC([H])([H])C([H])([H])C([H])([H])[N+]([H])(C([H])([H])[H])C([H])([H])C(=O)N([H])C([H])([H])C([H])([H])C([H])([H])C([H])([H])C(=O)N3C([H])([H])C([H])([H])C([H])([H])C([H])(n4nc(-c5c([H])c([H])c(Oc6c([H])c([H])c(F)c([H])c6F)c([H])c5[H])c(C(=O)N([H])[H])c4N([H])[H])C3([H])[H])c([H])c([H])c2C1([H])[H]

>  <smiles>  (87) 
[H]c1c([H])c([H])c2c(c1[H])C([H])([H])C([H])([H])C([H])([H])C2([H])N([H])C(=O)C1([H])N(C(=O)C([H])(N([H])C(=O)C([H])(N([H])C([H])([H])[H])C([H])([H])[H])C(C([H])([H])[H])(C([H])([H])[H])C([H])([H])[H])C([H])([H])c2c([H])c(OC([H])([H])C([H])([H])C([H])([H])[N+]([H])(C([H])([H])[H])C([H])([H])C(=O)N([H])C([H])([H])C([H])([H])C([H])([H])C([H])([H])C(=O)N3C([H])([H])C([H])([H])C([H])([H])C([H])(n4nc(-c5c([H])c([H])c(Oc6c([H])c([H])c(F)c([H])c6F)c([H])c5[H])c(C(=O)N([H])[H])c4N([H])[H])C3([H])[H])c([H])c([H])c2C1([H])[H]

$$$$
90:0:0
     RDKit          3D

 89 97  0  0  1  0  0  0  0  0999 V2000
  -29.9180  -23.1820   19.7350 C   0  0  0  0  0  3  0  0  0  0  0  0
  -27.5240  -23.0850   19.8070 C   0  0  0  0  0  3  0  0  0  0  0  0
  -29.9920  -21.7620   19.8650 C   0  0  0  0  0  3  0  0  0  0  0  0
  -27.6000  -21.6650   19.9380 C   0  0  0  0  0  3  0  0  0  0  0  0
  -28.6840  -23.8860   19.6760 C   0  0  0  0  0  0  0  0  0  0  0  0
  -28.8330  -20.9410   19.9450 C   0  0  0  0  0  0  0  0  0  0  0  0
  -27.6250  -18.8230   20.3720 C   0  0  0  0  0  1  0  0  0  0  0  0
  -28.8730  -19.4920   20.0040 N   0  0  0  0  0  0  0  0  0  0  0  0
  -30.1130  -18.6680   20.1390 C   0  0  0  0  0  2  0  0  0  0  0  0
  -30.0900  -17.1770   19.5660 C   0  0  0  0  0  2  0  0  0  0  0  0
  -30.1310  -15.9200   20.5480 C   0  0  0  0  0  2  0  0  0  0  0  0
  -30.7890  -14.5830   20.0050 C   0  0  0  0  0  0  0  0  0  0  0  0
  -30.4840  -12.3200   19.0130 C   0  0  0  0  0  2  0  0  0  0  0  0
  -29.4920  -12.4320   17.8340 C   0  0  0  0  0  2  0  0  0  0  0  0
  -28.0350  -12.3240   18.3270 C   0  0  0  0  0  2  0  0  0  0  0  0
  -27.7510  -13.2300   19.5550 C   0  0  0  0  0  3  0  0  0  0  0  0
  -28.8510  -13.0740   20.6270 C   0  0  0  0  0  2  0  0  0  0  0  0
  -30.1380  -13.3750   19.9890 N   0  0  0  0  0  0  0  0  0  0  0  0
  -31.9140  -14.6800   19.5050 O   0  0  0  0  0  0  0  0  0  0  0  0
  -25.4170  -13.9030   20.3960 C   0  0  0  0  0  0  0  0  0  0  0  0
  -24.3450  -13.1630   20.8150 C   0  0  0  0  0  0  0  0  0  0  0  0
  -24.7580  -11.7970   20.7520 C   0  0  0  0  0  0  0  0  0  0  0  0
  -26.4180  -12.9900   20.1050 N   0  0  0  0  0  0  0  0  0  0  0  0
  -26.0290  -11.7180   20.3780 N   0  0  0  0  0  0  0  0  0  0  0  0
  -24.0000  -10.5580   20.9700 C   0  0  0  0  0  0  0  0  0  0  0  0
  -24.4490   -9.5670   21.8710 C   0  0  0  0  0  3  0  0  0  0  0  0
  -23.6930   -8.3930   22.0790 C   0  0  0  0  0  3  0  0  0  0  0  0
  -22.4740   -8.2030   21.3870 C   0  0  0  0  0  0  0  0  0  0  0  0
  -22.0430   -9.1810   20.4750 C   0  0  0  0  0  3  0  0  0  0  0  0
  -22.7990  -10.3470   20.2640 C   0  0  0  0  0  3  0  0  0  0  0  0
  -21.6850   -7.0840   21.5060 O   0  0  0  0  0  0  0  0  0  0  0  0
  -21.6770   -6.3270   22.6500 C   0  0  0  0  0  0  0  0  0  0  0  0
  -21.3490   -6.8810   23.9070 C   0  0  0  0  0  3  0  0  0  0  0  0
  -21.2860   -6.0530   25.0460 C   0  0  0  0  0  3  0  0  0  0  0  0
  -21.5390   -4.6730   24.9300 C   0  0  0  0  0  0  0  0  0  0  0  0
  -21.8610   -4.1190   23.6780 C   0  0  0  0  0  3  0  0  0  0  0  0
  -21.9260   -4.9440   22.5420 C   0  0  0  0  0  0  0  0  0  0  0  0
  -22.2160   -4.4020   21.3330 F   0  0  0  0  0  0  0  0  0  0  0  0
  -21.4720   -3.8760   26.0210 F   0  0  0  0  0  0  0  0  0  0  0  0
  -22.9800  -13.6830   21.1610 C   0  0  0  0  0  0  0  0  0  0  0  0
  -22.2770  -13.0080   22.0650 N   0  0  0  0  0  0  0  0  0  0  0  0
  -22.5470  -14.7240   20.6680 O   0  0  0  0  0  0  0  0  0  0  0  0
  -22.6410  -12.1660   22.4850 H   0  0  0  0  0  0  0  0  0  0  0  0
  -21.3620  -13.3360   22.3390 H   0  0  0  0  0  0  0  0  0  0  0  0
  -25.6180  -15.2680   20.2180 N   0  0  0  0  0  0  0  0  0  0  0  0
  -24.8800  -15.9470   20.3660 H   0  0  0  0  0  0  0  0  0  0  0  0
  -26.4680  -15.6780   19.8520 H   0  0  0  0  0  0  0  0  0  0  0  0
  -28.6300  -25.4000   19.2560 C   0  0  0  0  0  2  0  0  0  0  0  0
  -28.3620  -26.4670   20.2320 O   0  0  0  0  0  0  0  0  0  0  0  0
  -24.5660  -31.7720   23.2550 C   0  0  0  0  0  0  0  0  0  0  0  0
  -27.2190  -27.2740   20.1600 C   0  0  0  0  0  0  0  0  0  0  0  0
  -23.3800  -30.3950   21.5830 C   0  0  0  0  0  3  0  0  0  0  0  0
  -24.8450  -28.8640   20.1510 C   0  0  0  0  0  0  0  0  0  0  0  0
  -25.9180  -30.7220   21.4280 C   0  0  0  0  0  2  0  0  0  0  0  0
  -26.0040  -29.3530   20.7630 C   0  0  0  0  0  0  0  0  0  0  0  0
  -27.1910  -28.5670   20.7630 C   0  0  0  0  0  3  0  0  0  0  0  0
  -26.0270  -26.8190   19.5490 C   0  0  0  0  0  3  0  0  0  0  0  0
  -24.8570  -27.6010   19.5390 C   0  0  0  0  0  3  0  0  0  0  0  0
  -23.6070  -29.7360   20.1960 C   0  0  0  0  0  2  0  0  0  0  0  0
  -24.6400  -30.9800   22.1460 N   0  0  0  0  0  0  0  0  0  0  0  0
  -23.4780  -32.0410   23.7830 O   0  0  0  0  0  0  0  0  0  0  0  0
  -22.7100  -29.3640   22.5240 C   0  0  0  0  0  0  0  0  0  0  0  0
  -21.3860  -29.1880   22.3800 N   0  0  0  0  0  0  0  0  0  0  0  0
  -23.3800  -28.7280   23.3400 O   0  0  0  0  0  0  0  0  0  0  0  0
  -20.9070  -29.7540   21.6940 H   0  0  0  0  0  0  0  0  0  0  0  0
  -18.0020  -27.9870   22.8240 C   0  0  0  0  0  0  0  0  0  0  0  0
  -20.5570  -28.2410   23.1270 C   0  0  0  0  0  3  0  0  0  0  0  0
  -20.6660  -26.8160   22.5360 C   0  0  0  0  0  2  0  0  0  0  0  0
  -19.5770  -26.5060   21.5050 C   0  0  0  0  0  2  0  0  0  0  0  0
  -18.1870  -26.6470   22.1320 C   0  0  0  0  0  2  0  0  0  0  0  0
  -19.1170  -28.7440   23.2760 C   0  0  0  0  0  0  0  0  0  0  0  0
  -18.8910  -30.0010   23.8780 C   0  0  0  0  0  3  0  0  0  0  0  0
  -17.5850  -30.5000   24.0350 C   0  0  0  0  0  3  0  0  0  0  0  0
  -16.4850  -29.7420   23.5990 C   0  0  0  0  0  3  0  0  0  0  0  0
  -16.6950  -28.4870   22.9990 C   0  0  0  0  0  3  0  0  0  0  0  0
  -25.8420  -32.3960   23.9000 C   0  0  0  0  0  3  0  0  0  0  0  0
  -25.5430  -33.8000   24.2120 N   0  0  0  0  0  0  0  0  0  0  0  0
  -25.8960  -34.8430   23.4490 C   0  0  0  0  0  0  0  0  0  0  0  0
  -26.5800  -34.7240   22.4270 O   0  0  0  0  0  0  0  0  0  0  0  0
  -24.9460  -33.9670   25.0080 H   0  0  0  0  0  0  0  0  0  0  0  0
  -24.1790  -36.6390   23.0590 C   0  0  0  0  0  1  0  0  0  0  0  0
  -25.4130  -36.2390   23.8860 C   0  0  0  0  0  3  0  0  0  0  0  0
  -27.5450  -37.1180   24.7230 C   0  0  0  0  0  1  0  0  0  0  0  0
  -26.4520  -37.2850   23.7700 N   0  0  0  0  0  0  0  0  0  0  0  0
  -26.0500  -38.2090   23.9060 H   0  0  0  0  0  0  0  0  0  0  0  0
  -26.3230  -31.6320   25.1950 C   0  0  1  0  0  0  0  0  0  0  0  0
  -25.2050  -31.4140   26.2410 C   0  0  0  0  0  1  0  0  0  0  0  0
  -26.9050  -30.2480   24.8290 C   0  0  0  0  0  1  0  0  0  0  0  0
  -27.4650  -32.4220   25.8760 C   0  0  0  0  0  1  0  0  0  0  0  0
  1  3  1  0
  2  4  2  0
  3  6  2  0
  4  6  1  0
  5  1  2  0
  5  2  1  0
  6  8  1  0
  8  9  1  0
  8  7  1  0
 10  9  1  0
 10 11  1  0
 12 11  1  0
 13 18  1  0
 14 15  1  0
 14 13  1  0
 16 15  1  0
 16 23  1  0
 16 17  1  0
 18 12  1  0
 18 17  1  0
 19 12  2  0
 20 21  2  0
 21 40  1  0
 22 21  1  0
 22 25  1  0
 23 24  1  0
 23 20  1  0
 24 22  2  0
 25 26  1  0
 26 27  2  0
 28 31  1  0
 28 27  1  0
 29 28  2  0
 30 29  1  0
 30 25  2  0
 31 32  1  0
 32 33  1  0
 33 34  2  0
 35 34  1  0
 35 39  1  0
 36 35  2  0
 37 32  2  0
 37 36  1  0
 38 37  1  0
 40 41  1  0
 41 44  1  0
 41 43  1  0
 42 40  2  0
 45 46  1  0
 45 20  1  0
 47 45  1  0
 48  5  1  0
 48 49  1  0
 50 61  2  0
 51 49  1  0
 51 56  1  0
 52 60  1  0
 52 62  1  0
 53 59  1  0
 53 55  1  0
 54 60  1  0
 55 54  1  0
 56 55  2  0
 57 51  2  0
 58 57  1  0
 58 53  2  0
 59 52  1  0
 60 50  1  0
 62 64  2  0
 63 62  1  0
 65 63  1  0
 66 75  2  0
 66 71  1  0
 67 63  1  0
 67 71  1  0
 68 67  1  0
 69 70  1  0
 69 68  1  0
 70 66  1  0
 71 72  2  0
 72 73  1  0
 74 73  2  0
 75 74  1  0
 76 50  1  0
 76 77  1  0
 76 86  1  0
 77 80  1  0
 78 82  1  0
 78 77  1  0
 79 78  2  0
 82 81  1  0
 84 82  1  0
 84 85  1  0
 84 83  1  0
 86 89  1  1
 86 87  1  0
 88 86  1  0
M  ISO  4  11 100  12 100  48 101  49 101
M  END
>  <TORSDO>  (88) 
F 21

>  <SCORE>  (88) 
-13.132

>  <name>  (88) 
90

>  <ligand_id>  (88) 
90

>  <original_smiles>  (88) 
[H]c1c([H])c([H])c2c(c1[H])C([H])([H])C([H])([H])C([H])([H])C2([H])N([H])C(=O)C1([H])N(C(=O)C([H])(N([H])C(=O)C([H])(N([H])C([H])([H])[H])C([H])([H])[H])C(C([H])([H])[H])(C([H])([H])[H])C([H])([H])[H])C([H])([H])c2c([H])c(OC([H])([H])c3c([H])c([H])c(N(C([H])([H])[H])C([H])([H])C([H])([H])C([H])([H])C(=O)N4C([H])([H])C([H])([H])C([H])([H])C([H])(n5nc(-c6c([H])c([H])c(Oc7c([H])c([H])c(F)c([H])c7F)c([H])c6[H])c(C(=O)N([H])[H])c5N([H])[H])C4([H])[H])c([H])c3[H])c([H])c([H])c2C1([H])[H]

>  <smiles>  (88) 
[H]c1c([H])c([H])c2c(c1[H])C([H])([H])C([H])([H])C([H])([H])C2([H])N([H])C(=O)C1([H])N(C(=O)C([H])(N([H])C(=O)C([H])(N([H])C([H])([H])[H])C([H])([H])[H])C(C([H])([H])[H])(C([H])([H])[H])C([H])([H])[H])C([H])([H])c2c([H])c(OC([H])([H])c3c([H])c([H])c(N(C([H])([H])[H])C([H])([H])C([H])([H])C([H])([H])C(=O)N4C([H])([H])C([H])([H])C([H])([H])C([H])(n5nc(-c6c([H])c([H])c(Oc7c([H])c([H])c(F)c([H])c7F)c([H])c6[H])c(C(=O)N([H])[H])c5N([H])[H])C4([H])[H])c([H])c3[H])c([H])c([H])c2C1([H])[H]

$$$$
91:0:0
     RDKit          3D

 89 97  0  0  1  0  0  0  0  0999 V2000
  -29.4340  -19.1950   20.6160 C   0  0  0  0  0  0  0  0  0  0  0  0
  -30.3240  -18.4630   18.6090 C   0  0  0  0  0  2  0  0  0  0  0  0
  -29.7240  -20.6070   19.9150 C   0  0  0  0  0  3  0  0  0  0  0  0
  -30.1180  -20.0340   18.5230 C   0  0  0  0  0  3  0  0  0  0  0  0
  -30.3250  -17.9700   20.0840 C   0  0  1  0  0  0  0  0  0  0  0  0
  -31.3490  -20.7460   17.9420 C   0  0  0  0  0  1  0  0  0  0  0  0
  -31.7390  -18.1590   20.6780 C   0  0  0  0  0  1  0  0  0  0  0  0
  -28.5930  -19.0590   21.5070 O   0  0  0  0  0  0  0  0  0  0  0  0
  -29.8680  -16.3740   20.3470 C   0  0  0  0  0  2  0  0  0  0  0  0
  -30.6870  -15.0020   19.9370 C   0  0  0  0  0  0  0  0  0  0  0  0
  -30.5210  -12.6780   18.9500 C   0  0  0  0  0  2  0  0  0  0  0  0
  -29.5170  -12.7030   17.7740 C   0  0  0  0  0  2  0  0  0  0  0  0
  -28.0780  -12.4870   18.2810 C   0  0  0  0  0  2  0  0  0  0  0  0
  -27.7450  -13.3760   19.5080 C   0  0  0  0  0  3  0  0  0  0  0  0
  -28.8640  -13.3360   20.5710 C   0  0  0  0  0  2  0  0  0  0  0  0
  -30.1170  -13.7340   19.9170 N   0  0  0  0  0  0  0  0  0  0  0  0
  -31.8440  -15.0950   19.5160 O   0  0  0  0  0  0  0  0  0  0  0  0
  -25.4130  -13.9340   20.4090 C   0  0  0  0  0  0  0  0  0  0  0  0
  -24.3710  -13.1480   20.8180 C   0  0  0  0  0  0  0  0  0  0  0  0
  -24.8300  -11.7980   20.7130 C   0  0  0  0  0  0  0  0  0  0  0  0
  -26.4380  -13.0650   20.0750 N   0  0  0  0  0  0  0  0  0  0  0  0
  -26.0990  -11.7730   20.3220 N   0  0  0  0  0  0  0  0  0  0  0  0
  -24.1130  -10.5300   20.9050 C   0  0  0  0  0  0  0  0  0  0  0  0
  -24.5370   -9.5780   21.8570 C   0  0  0  0  0  3  0  0  0  0  0  0
  -23.8180   -8.3760   22.0360 C   0  0  0  0  0  3  0  0  0  0  0  0
  -22.6610   -8.1190   21.2610 C   0  0  0  0  0  0  0  0  0  0  0  0
  -22.2560   -9.0610   20.3000 C   0  0  0  0  0  3  0  0  0  0  0  0
  -22.9760  -10.2540   20.1190 C   0  0  0  0  0  3  0  0  0  0  0  0
  -21.9150   -6.9680   21.3490 O   0  0  0  0  0  0  0  0  0  0  0  0
  -21.7730   -6.2900   22.5340 C   0  0  0  0  0  0  0  0  0  0  0  0
  -21.1360   -6.8710   23.6530 C   0  0  0  0  0  3  0  0  0  0  0  0
  -20.9490   -6.1140   24.8270 C   0  0  0  0  0  3  0  0  0  0  0  0
  -21.3890   -4.7790   24.8830 C   0  0  0  0  0  0  0  0  0  0  0  0
  -22.0200   -4.1970   23.7680 C   0  0  0  0  0  3  0  0  0  0  0  0
  -22.2080   -4.9510   22.5960 C   0  0  0  0  0  0  0  0  0  0  0  0
  -22.7970   -4.3790   21.5170 F   0  0  0  0  0  0  0  0  0  0  0  0
  -21.2040   -4.0490   26.0080 F   0  0  0  0  0  0  0  0  0  0  0  0
  -22.9940  -13.6160   21.1900 C   0  0  0  0  0  0  0  0  0  0  0  0
  -22.3200  -12.8940   22.0780 N   0  0  0  0  0  0  0  0  0  0  0  0
  -22.5270  -14.6570   20.7280 O   0  0  0  0  0  0  0  0  0  0  0  0
  -22.7110  -12.0510   22.4700 H   0  0  0  0  0  0  0  0  0  0  0  0
  -21.4000  -13.1900   22.3700 H   0  0  0  0  0  0  0  0  0  0  0  0
  -25.5680  -15.3100   20.2690 N   0  0  0  0  0  0  0  0  0  0  0  0
  -24.8130  -15.9600   20.4560 H   0  0  0  0  0  0  0  0  0  0  0  0
  -26.4010  -15.7640   19.9190 H   0  0  0  0  0  0  0  0  0  0  0  0
  -28.6910  -21.9250   19.9350 C   0  0  0  0  0  2  0  0  0  0  0  0
  -29.1350  -23.5350   19.9470 C   0  0  0  0  0  3  0  0  0  0  0  0
  -28.0590  -24.7990   19.8170 C   0  0  0  0  0  3  0  0  0  0  0  0
  -28.3360  -26.3060   20.0050 O   0  0  0  0  0  0  0  0  0  0  0  0
  -24.6000  -31.7610   23.2080 C   0  0  0  0  0  0  0  0  0  0  0  0
  -27.2590  -27.2550   19.9790 C   0  0  0  0  0  0  0  0  0  0  0  0
  -23.4300  -30.4330   21.4920 C   0  0  0  0  0  3  0  0  0  0  0  0
  -24.9080  -28.9530   20.0070 C   0  0  0  0  0  0  0  0  0  0  0  0
  -25.9810  -30.7410   21.3650 C   0  0  0  0  0  2  0  0  0  0  0  0
  -26.0760  -29.3870   20.6470 C   0  0  0  0  0  0  0  0  0  0  0  0
  -27.2530  -28.5550   20.6160 C   0  0  0  0  0  3  0  0  0  0  0  0
  -26.0610  -26.9140   19.3100 C   0  0  0  0  0  3  0  0  0  0  0  0
  -24.9110  -27.7290   19.3250 C   0  0  0  0  0  3  0  0  0  0  0  0
  -23.6710  -29.8300   20.0830 C   0  0  0  0  0  2  0  0  0  0  0  0
  -24.6890  -30.9980   22.0780 N   0  0  0  0  0  0  0  0  0  0  0  0
  -23.5050  -32.0080   23.7370 O   0  0  0  0  0  0  0  0  0  0  0  0
  -22.7550  -29.3710   22.3940 C   0  0  0  0  0  0  0  0  0  0  0  0
  -21.4250  -29.2180   22.2660 N   0  0  0  0  0  0  0  0  0  0  0  0
  -23.4280  -28.6910   23.1720 O   0  0  0  0  0  0  0  0  0  0  0  0
  -20.9420  -29.8180   21.6130 H   0  0  0  0  0  0  0  0  0  0  0  0
  -18.0280  -28.0710   22.7780 C   0  0  0  0  0  0  0  0  0  0  0  0
  -20.6000  -28.2440   22.9840 C   0  0  0  0  0  3  0  0  0  0  0  0
  -20.6440  -26.8610   22.2950 C   0  0  0  0  0  2  0  0  0  0  0  0
  -19.5030  -26.6480   21.2940 C   0  0  0  0  0  2  0  0  0  0  0  0
  -18.1460  -26.7760   21.9900 C   0  0  0  0  0  2  0  0  0  0  0  0
  -19.1790  -28.7670   23.2300 C   0  0  0  0  0  0  0  0  0  0  0  0
  -19.0140  -29.9820   23.9300 C   0  0  0  0  0  3  0  0  0  0  0  0
  -17.7290  -30.5020   24.1780 C   0  0  0  0  0  3  0  0  0  0  0  0
  -16.5920  -29.8010   23.7410 C   0  0  0  0  0  3  0  0  0  0  0  0
  -16.7410  -28.5860   23.0480 C   0  0  0  0  0  3  0  0  0  0  0  0
  -25.8660  -32.3760   23.8780 C   0  0  0  0  0  3  0  0  0  0  0  0
  -26.3660  -31.5540   25.1290 C   0  0  1  0  0  0  0  0  0  0  0  0
  -25.2550  -31.2520   26.1610 C   0  0  0  0  0  1  0  0  0  0  0  0
  -26.9790  -30.2040   24.6910 C   0  0  0  0  0  1  0  0  0  0  0  0
  -27.4910  -32.3350   25.8500 C   0  0  0  0  0  1  0  0  0  0  0  0
  -25.5370  -33.7560   24.2680 N   0  0  0  0  0  0  0  0  0  0  0  0
  -25.8320  -34.8460   23.5460 C   0  0  0  0  0  0  0  0  0  0  0  0
  -26.4770  -34.7960   22.4960 O   0  0  0  0  0  0  0  0  0  0  0  0
  -24.9580  -33.8670   25.0880 H   0  0  0  0  0  0  0  0  0  0  0  0
  -24.0680  -36.6250   23.3070 C   0  0  0  0  0  1  0  0  0  0  0  0
  -25.3340  -36.2070   24.0720 C   0  0  0  0  0  3  0  0  0  0  0  0
  -27.4580  -37.1100   24.9090 C   0  0  0  0  0  1  0  0  0  0  0  0
  -26.3460  -37.2810   23.9780 N   0  0  0  0  0  0  0  0  0  0  0  0
  -25.9260  -38.1880   24.1490 H   0  0  0  0  0  0  0  0  0  0  0  0
  1  8  2  0
  2  5  1  0
  3 46  1  0
  3  1  1  0
  4  6  1  0
  4  2  1  0
  4  3  1  0
  5  9  1  0
  5  1  1  0
  5  7  1  1
 10  9  1  0
 11 16  1  0
 12 13  1  0
 12 11  1  0
 14 13  1  0
 14 21  1  0
 14 15  1  0
 16 10  1  0
 16 15  1  0
 17 10  2  0
 18 19  2  0
 19 38  1  0
 20 19  1  0
 20 23  1  0
 21 22  1  0
 21 18  1  0
 22 20  2  0
 23 24  1  0
 24 25  2  0
 26 29  1  0
 26 25  1  0
 27 26  2  0
 28 27  1  0
 28 23  2  0
 29 30  1  0
 30 35  2  0
 30 31  1  0
 31 32  2  0
 32 33  1  0
 33 37  1  0
 34 33  2  0
 35 34  1  0
 36 35  1  0
 38 39  1  0
 39 42  1  0
 39 41  1  0
 40 38  2  0
 43 18  1  0
 43 44  1  0
 45 43  1  0
 46 47  1  0
 48 47  2  0
 48 49  1  0
 50 61  2  0
 51 49  1  0
 51 56  1  0
 52 60  1  0
 52 62  1  0
 53 59  1  0
 53 55  1  0
 54 60  1  0
 55 54  1  0
 56 55  2  0
 57 58  1  0
 57 51  2  0
 58 53  2  0
 59 52  1  0
 60 50  1  0
 62 64  2  0
 63 62  1  0
 65 63  1  0
 66 75  2  0
 66 71  1  0
 67 63  1  0
 67 71  1  0
 68 67  1  0
 69 70  1  0
 69 68  1  0
 70 66  1  0
 71 72  2  0
 72 73  1  0
 74 73  2  0
 75 74  1  0
 76 50  1  0
 76 81  1  0
 76 77  1  0
 77 80  1  1
 77 78  1  0
 79 77  1  0
 81 84  1  0
 82 86  1  0
 82 81  1  0
 83 82  2  0
 86 85  1  0
 88 86  1  0
 88 89  1  0
 88 87  1  0
M  ISO  4   9 100  10 100  48 101  49 101
M  END
>  <TORSDO>  (89) 
F 20

>  <SCORE>  (89) 
-12.825

>  <name>  (89) 
91

>  <ligand_id>  (89) 
91

>  <original_smiles>  (89) 
[H]c1c([H])c([H])c2c(c1[H])C([H])([H])C([H])([H])C([H])([H])C2([H])N([H])C(=O)C1([H])N(C(=O)C([H])(N([H])C(=O)C([H])(N([H])C([H])([H])[H])C([H])([H])[H])C(C([H])([H])[H])(C([H])([H])[H])C([H])([H])[H])C([H])([H])c2c([H])c(OC([H])([H])C([H])([H])C([H])([H])C3([H])C(=O)C(C([H])([H])[H])(C([H])([H])C(=O)N4C([H])([H])C([H])([H])C([H])([H])C([H])(n5nc(-c6c([H])c([H])c(Oc7c([H])c([H])c(F)c([H])c7F)c([H])c6[H])c(C(=O)N([H])[H])c5N([H])[H])C4([H])[H])C([H])([H])C3([H])C([H])([H])[H])c([H])c([H])c2C1([H])[H]

>  <smiles>  (89) 
[H]c1c([H])c([H])c2c(c1[H])C([H])([H])C([H])([H])C([H])([H])C2([H])N([H])C(=O)C1([H])N(C(=O)C([H])(N([H])C(=O)C([H])(N([H])C([H])([H])[H])C([H])([H])[H])C(C([H])([H])[H])(C([H])([H])[H])C([H])([H])[H])C([H])([H])c2c([H])c(OC([H])([H])C([H])([H])C([H])([H])C3([H])C(=O)C(C([H])([H])[H])(C([H])([H])C(=O)N4C([H])([H])C([H])([H])C([H])([H])C([H])(n5nc(-c6c([H])c([H])c(Oc7c([H])c([H])c(F)c([H])c7F)c([H])c6[H])c(C(=O)N([H])[H])c5N([H])[H])C4([H])[H])C([H])([H])C3([H])C([H])([H])[H])c([H])c([H])c2C1([H])[H]

$$$$
92:0:0
     RDKit          3D

 94103  0  0  1  0  0  0  0  0999 V2000
  -30.6080  -15.7070   19.9510 C   0  0  0  0  0  0  0  0  0  0  0  0
  -31.2320  -15.7240   21.1640 C   0  0  0  0  0  0  0  0  0  0  0  0
  -31.3630  -16.9890   21.9950 C   0  0  0  0  0  2  0  0  0  0  0  0
  -30.3800  -18.0910   21.6290 C   0  0  0  0  0  2  0  0  0  0  0  0
  -28.4350  -17.0020   19.2200 C   0  0  0  0  0  2  0  0  0  0  0  0
  -29.9720  -17.0210   19.3570 C   0  0  0  0  0  3  0  0  0  0  0  0
  -30.2410  -18.3730   20.1120 C   0  0  0  0  0  3  0  0  0  0  0  0
  -27.8840  -18.3350   19.7840 C   0  0  0  0  0  3  0  0  0  0  0  0
  -29.0410  -19.3730   19.8030 C   0  0  1  0  0  0  0  0  0  0  0  0
  -32.0510  -14.5860   21.7640 C   0  0  0  0  0  1  0  0  0  0  0  0
  -26.5310  -18.7750   19.2020 C   0  0  0  0  0  1  0  0  0  0  0  0
  -28.8280  -20.4130   20.9440 C   0  0  0  0  0  1  0  0  0  0  0  0
  -30.9290  -14.5600   19.0550 C   0  0  0  0  0  0  0  0  0  0  0  0
  -30.6170  -12.1840   18.3650 C   0  0  0  0  0  2  0  0  0  0  0  0
  -29.5000  -12.0410   17.3140 C   0  0  0  0  0  2  0  0  0  0  0  0
  -28.1320  -11.8850   18.0000 C   0  0  0  0  0  2  0  0  0  0  0  0
  -27.8990  -12.9490   19.1070 C   0  0  0  0  0  3  0  0  0  0  0  0
  -29.1190  -13.0760   20.0510 C   0  0  0  0  0  2  0  0  0  0  0  0
  -30.3060  -13.3470   19.2260 N   0  0  0  0  0  0  0  0  0  0  0  0
  -31.8140  -14.6800   18.2020 O   0  0  0  0  0  0  0  0  0  0  0  0
  -25.7530  -13.5790   20.3690 C   0  0  0  0  0  0  0  0  0  0  0  0
  -24.7420  -12.8230   20.8920 C   0  0  0  0  0  0  0  0  0  0  0  0
  -25.0940  -11.4620   20.6470 C   0  0  0  0  0  0  0  0  0  0  0  0
  -26.6670  -12.6790   19.8450 N   0  0  0  0  0  0  0  0  0  0  0  0
  -26.2870  -11.3920   20.0650 N   0  0  0  0  0  0  0  0  0  0  0  0
  -24.3400  -10.2250   20.8810 C   0  0  0  0  0  0  0  0  0  0  0  0
  -24.8180   -9.2190   21.7490 C   0  0  0  0  0  3  0  0  0  0  0  0
  -24.0650   -8.0460   21.9730 C   0  0  0  0  0  3  0  0  0  0  0  0
  -22.8140   -7.8740   21.3340 C   0  0  0  0  0  0  0  0  0  0  0  0
  -22.3520   -8.8700   20.4530 C   0  0  0  0  0  3  0  0  0  0  0  0
  -23.1070  -10.0330   20.2280 C   0  0  0  0  0  3  0  0  0  0  0  0
  -22.0200   -6.7620   21.4770 O   0  0  0  0  0  0  0  0  0  0  0  0
  -21.9190   -6.1000   22.6720 C   0  0  0  0  0  0  0  0  0  0  0  0
  -21.4100   -6.7240   23.8340 C   0  0  0  0  0  3  0  0  0  0  0  0
  -21.2640   -5.9850   25.0220 C   0  0  0  0  0  3  0  0  0  0  0  0
  -21.6070   -4.6190   25.0510 C   0  0  0  0  0  0  0  0  0  0  0  0
  -22.1060   -3.9950   23.8950 C   0  0  0  0  0  3  0  0  0  0  0  0
  -22.2570   -4.7320   22.7080 C   0  0  0  0  0  0  0  0  0  0  0  0
  -22.7190   -4.1190   21.5910 F   0  0  0  0  0  0  0  0  0  0  0  0
  -21.4570   -3.9060   26.1910 F   0  0  0  0  0  0  0  0  0  0  0  0
  -23.4730  -13.3410   21.5010 C   0  0  0  0  0  0  0  0  0  0  0  0
  -22.9420  -12.6390   22.4940 N   0  0  0  0  0  0  0  0  0  0  0  0
  -22.9710  -14.4020   21.1320 O   0  0  0  0  0  0  0  0  0  0  0  0
  -23.3690  -11.7840   22.8140 H   0  0  0  0  0  0  0  0  0  0  0  0
  -22.0910  -12.9610   22.9330 H   0  0  0  0  0  0  0  0  0  0  0  0
  -25.9630  -14.9510   20.2800 N   0  0  0  0  0  0  0  0  0  0  0  0
  -25.2850  -15.6180   20.6310 H   0  0  0  0  0  0  0  0  0  0  0  0
  -26.7700  -15.3910   19.8620 H   0  0  0  0  0  0  0  0  0  0  0  0
  -29.2190  -20.2100   18.4600 C   0  0  0  0  0  2  0  0  0  0  0  0
  -28.4200  -21.5450   18.3480 C   0  0  0  0  0  3  0  0  0  0  0  0
  -28.8660  -22.8190   18.5190 C   0  0  0  0  0  3  0  0  0  0  0  0
  -27.9900  -24.1030   18.5120 C   0  0  0  0  0  2  0  0  0  0  0  0
  -28.4410  -25.2970   17.6040 C   0  0  0  0  0  2  0  0  0  0  0  0
  -28.3900  -26.6130   18.2290 O   0  0  0  0  0  0  0  0  0  0  0  0
  -24.9090  -30.4460   23.1430 C   0  0  0  0  0  0  0  0  0  0  0  0
  -27.2070  -27.2850   18.5270 C   0  0  0  0  0  0  0  0  0  0  0  0
  -23.5550  -29.7100   21.2100 C   0  0  0  0  0  3  0  0  0  0  0  0
  -24.8600  -28.7390   19.2380 C   0  0  0  0  0  0  0  0  0  0  0  0
  -26.0740  -30.0880   20.9580 C   0  0  0  0  0  2  0  0  0  0  0  0
  -26.0720  -29.0160   19.8800 C   0  0  0  0  0  0  0  0  0  0  0  0
  -27.2410  -28.3010   19.5200 C   0  0  0  0  0  3  0  0  0  0  0  0
  -25.9700  -27.0210   17.8950 C   0  0  0  0  0  3  0  0  0  0  0  0
  -24.8070  -27.7420   18.2470 C   0  0  0  0  0  3  0  0  0  0  0  0
  -23.6520  -29.5460   19.6700 C   0  0  0  0  0  2  0  0  0  0  0  0
  -24.8710  -30.0760   21.8290 N   0  0  0  0  0  0  0  0  0  0  0  0
  -23.8790  -30.5220   23.8230 O   0  0  0  0  0  0  0  0  0  0  0  0
  -22.9300  -28.4290   21.8070 C   0  0  0  0  0  0  0  0  0  0  0  0
  -21.6120  -28.2530   21.6130 N   0  0  0  0  0  0  0  0  0  0  0  0
  -23.6280  -27.6060   22.4050 O   0  0  0  0  0  0  0  0  0  0  0  0
  -21.1060  -28.9710   21.1170 H   0  0  0  0  0  0  0  0  0  0  0  0
  -18.3320  -26.7460   21.4770 C   0  0  0  0  0  0  0  0  0  0  0  0
  -20.8270  -27.1010   22.0520 C   0  0  0  0  0  3  0  0  0  0  0  0
  -21.1030  -25.8690   21.1580 C   0  0  0  0  0  2  0  0  0  0  0  0
  -20.1170  -25.7370   19.9940 C   0  0  0  0  0  2  0  0  0  0  0  0
  -18.6810  -25.6240   20.5140 C   0  0  0  0  0  2  0  0  0  0  0  0
  -19.3400  -27.4490   22.1880 C   0  0  0  0  0  0  0  0  0  0  0  0
  -18.9660  -28.5080   23.0440 C   0  0  0  0  0  3  0  0  0  0  0  0
  -17.6130  -28.8590   23.2050 C   0  0  0  0  0  3  0  0  0  0  0  0
  -16.6170  -28.1490   22.5140 C   0  0  0  0  0  3  0  0  0  0  0  0
  -16.9760  -27.0960   21.6520 C   0  0  0  0  0  3  0  0  0  0  0  0
  -26.2540  -30.8140   23.8460 C   0  0  0  0  0  3  0  0  0  0  0  0
  -26.6330  -29.8290   25.0190 C   0  0  1  0  0  0  0  0  0  0  0  0
  -25.5010  -29.6210   26.0530 C   0  0  0  0  0  1  0  0  0  0  0  0
  -27.0190  -28.4390   24.4620 C   0  0  0  0  0  1  0  0  0  0  0  0
  -27.8770  -30.3600   25.7720 C   0  0  0  0  0  1  0  0  0  0  0  0
  -26.1330  -32.1900   24.3480 N   0  0  0  0  0  0  0  0  0  0  0  0
  -26.8060  -33.2420   23.8570 C   0  0  0  0  0  0  0  0  0  0  0  0
  -27.6580  -33.1350   22.9710 O   0  0  0  0  0  0  0  0  0  0  0  0
  -25.4160  -32.3590   25.0360 H   0  0  0  0  0  0  0  0  0  0  0  0
  -25.6780  -35.4460   23.4160 C   0  0  0  0  0  1  0  0  0  0  0  0
  -26.4810  -34.6310   24.4420 C   0  0  0  0  0  3  0  0  0  0  0  0
  -28.3720  -34.8110   25.9990 C   0  0  0  0  0  1  0  0  0  0  0  0
  -27.6820  -35.3920   24.8510 N   0  0  0  0  0  0  0  0  0  0  0  0
  -27.4410  -36.3520   25.0810 H   0  0  0  0  0  0  0  0  0  0  0  0
  1  2  2  0
  2 10  1  0
  2  3  1  0
  4  3  1  0
  5  8  1  0
  6  5  1  0
  6  1  1  0
  6  7  1  0
  7  4  1  0
  8 11  1  0
  8  9  1  0
  9  7  1  0
  9 12  1  1
 13 19  1  0
 13  1  1  0
 14 19  1  0
 15 16  1  0
 15 14  1  0
 17 16  1  0
 17 24  1  0
 17 18  1  0
 19 18  1  0
 20 13  2  0
 21 22  2  0
 22 41  1  0
 23 26  1  0
 23 22  1  0
 24 25  1  0
 24 21  1  0
 25 23  2  0
 26 27  1  0
 27 28  2  0
 29 32  1  0
 29 28  1  0
 30 29  2  0
 31 30  1  0
 31 26  2  0
 32 33  1  0
 33 38  2  0
 33 34  1  0
 34 35  2  0
 35 36  1  0
 36 40  1  0
 37 36  2  0
 38 37  1  0
 39 38  1  0
 41 42  1  0
 42 44  1  0
 42 45  1  0
 43 41  2  0
 46 21  1  0
 46 47  1  0
 48 46  1  0
 49  9  1  0
 50 49  1  0
 50 51  2  0
 52 51  1  0
 53 54  1  0
 53 52  1  0
 54 56  1  0
 55 66  2  0
 56 61  1  0
 57 67  1  0
 57 65  1  0
 58 64  1  0
 58 60  1  0
 59 65  1  0
 60 59  1  0
 61 60  2  0
 62 63  1  0
 62 56  2  0
 63 58  2  0
 64 57  1  0
 65 55  1  0
 67 69  2  0
 68 67  1  0
 70 68  1  0
 71 80  2  0
 71 76  1  0
 72 68  1  0
 72 76  1  0
 73 72  1  0
 74 75  1  0
 74 73  1  0
 75 71  1  0
 76 77  2  0
 77 78  1  0
 79 78  2  0
 80 79  1  0
 81 55  1  0
 81 86  1  0
 81 82  1  0
 82 85  1  1
 82 83  1  0
 84 82  1  0
 86 89  1  0
 87 86  1  0
 87 91  1  0
 88 87  2  0
 91 90  1  0
 91 93  1  0
 93 94  1  0
 93 92  1  0
M  ISO  4   1 100  13 100  53 101  54 101
M  END
>  <TORSDO>  (90) 
F 20

>  <SCORE>  (90) 
-9.569

>  <name>  (90) 
92

>  <ligand_id>  (90) 
92

>  <original_smiles>  (90) 
[H]C(=C([H])C([H])([H])C1(C([H])([H])[H])C([H])(C([H])([H])[H])C([H])([H])C2([H])C(C(=O)N3C([H])([H])C([H])([H])C([H])([H])C([H])(n4nc(-c5c([H])c([H])c(Oc6c([H])c([H])c(F)c([H])c6F)c([H])c5[H])c(C(=O)N([H])[H])c4N([H])[H])C3([H])[H])=C(C([H])([H])[H])C([H])([H])C([H])([H])C21[H])C([H])([H])C([H])([H])Oc1c([H])c([H])c2c(c1[H])C([H])([H])N(C(=O)C([H])(N([H])C(=O)C([H])(N([H])C([H])([H])[H])C([H])([H])[H])C(C([H])([H])[H])(C([H])([H])[H])C([H])([H])[H])C([H])(C(=O)N([H])C1([H])c3c([H])c([H])c([H])c([H])c3C([H])([H])C([H])([H])C1([H])[H])C2([H])[H]

>  <smiles>  (90) 
[H]C(=C([H])C([H])([H])C1(C([H])([H])[H])C([H])(C([H])([H])[H])C([H])([H])C2([H])C(C(=O)N3C([H])([H])C([H])([H])C([H])([H])C([H])(n4nc(-c5c([H])c([H])c(Oc6c([H])c([H])c(F)c([H])c6F)c([H])c5[H])c(C(=O)N([H])[H])c4N([H])[H])C3([H])[H])=C(C([H])([H])[H])C([H])([H])C([H])([H])C21[H])C([H])([H])C([H])([H])Oc1c([H])c([H])c2c(c1[H])C([H])([H])N(C(=O)C([H])(N([H])C(=O)C([H])(N([H])C([H])([H])[H])C([H])([H])[H])C(C([H])([H])[H])(C([H])([H])[H])C([H])([H])[H])C([H])(C(=O)N([H])C1([H])c3c([H])c([H])c([H])c([H])c3C([H])([H])C([H])([H])C1([H])[H])C2([H])[H]

$$$$
93:0:0
     RDKit          3D

 92101  0  0  1  0  0  0  0  0999 V2000
  -30.3780  -17.4590   19.7010 C   0  0  0  0  0  2  0  0  0  0  0  0
  -30.6150  -17.0380   22.0160 C   0  0  0  0  0  2  0  0  0  0  0  0
  -30.0480  -20.2120   19.7830 C   0  0  0  0  0  2  0  0  0  0  0  0
  -30.4310  -21.1200   22.0640 C   0  0  0  0  0  2  0  0  0  0  0  0
  -30.2350  -16.2570   20.7200 C   0  0  0  0  0  3  0  0  0  0  0  0
  -29.7680  -18.7470   20.3750 C   0  0  0  0  0  3  0  0  0  0  0  0
  -30.1590  -18.5510   21.8490 C   0  0  0  0  0  3  0  0  0  0  0  0
  -31.1050  -19.6990   22.3200 C   0  0  1  0  0  0  0  0  0  0  0  0
  -32.5220  -19.5970   21.6770 C   0  0  0  0  0  1  0  0  0  0  0  0
  -31.3410  -19.5600   23.8370 C   0  0  0  0  0  1  0  0  0  0  0  0
  -29.7450  -21.3480   20.7400 N   0  0  1  0  0  4  0  0  0  0  0  0
  -28.7620  -21.2270   20.9360 H   0  0  0  0  0  0  0  0  0  0  0  0
  -30.9870  -14.8710   20.3700 C   0  0  0  0  0  0  0  0  0  0  0  0
  -30.7040  -12.6650   19.2070 C   0  0  0  0  0  2  0  0  0  0  0  0
  -29.7670  -12.8290   17.9910 C   0  0  0  0  0  2  0  0  0  0  0  0
  -28.2930  -12.6760   18.4160 C   0  0  0  0  0  2  0  0  0  0  0  0
  -27.9460  -13.5160   19.6720 C   0  0  0  0  0  3  0  0  0  0  0  0
  -29.0020  -13.3500   20.7850 C   0  0  0  0  0  2  0  0  0  0  0  0
  -30.3190  -13.6710   20.2250 N   0  0  0  0  0  0  0  0  0  0  0  0
  -32.1690  -14.9360   20.0170 O   0  0  0  0  0  0  0  0  0  0  0  0
  -25.5630  -14.1370   20.3890 C   0  0  0  0  0  0  0  0  0  0  0  0
  -24.4890  -13.3790   20.7620 C   0  0  0  0  0  0  0  0  0  0  0  0
  -24.9350  -12.0210   20.7450 C   0  0  0  0  0  0  0  0  0  0  0  0
  -26.5950  -13.2430   20.1600 N   0  0  0  0  0  0  0  0  0  0  0  0
  -26.2280  -11.9680   20.4420 N   0  0  0  0  0  0  0  0  0  0  0  0
  -24.1920  -10.7700   20.9410 C   0  0  0  0  0  0  0  0  0  0  0  0
  -24.5940   -9.8150   21.9020 C   0  0  0  0  0  3  0  0  0  0  0  0
  -23.8520   -8.6270   22.0880 C   0  0  0  0  0  3  0  0  0  0  0  0
  -22.6940   -8.3860   21.3130 C   0  0  0  0  0  0  0  0  0  0  0  0
  -22.3100   -9.3290   20.3430 C   0  0  0  0  0  3  0  0  0  0  0  0
  -23.0500  -10.5070   20.1560 C   0  0  0  0  0  3  0  0  0  0  0  0
  -21.9260   -7.2510   21.4040 O   0  0  0  0  0  0  0  0  0  0  0  0
  -21.8170   -6.5480   22.5760 C   0  0  0  0  0  0  0  0  0  0  0  0
  -21.3450   -7.1470   23.7640 C   0  0  0  0  0  3  0  0  0  0  0  0
  -21.1890   -6.3700   24.9300 C   0  0  0  0  0  3  0  0  0  0  0  0
  -21.4910   -4.9960   24.9080 C   0  0  0  0  0  0  0  0  0  0  0  0
  -21.9510   -4.3950   23.7220 C   0  0  0  0  0  3  0  0  0  0  0  0
  -22.1130   -5.1680   22.5600 C   0  0  0  0  0  0  0  0  0  0  0  0
  -22.5400   -4.5820   21.4140 F   0  0  0  0  0  0  0  0  0  0  0  0
  -21.3310   -4.2470   26.0250 F   0  0  0  0  0  0  0  0  0  0  0  0
  -23.0950  -13.8710   21.0260 C   0  0  0  0  0  0  0  0  0  0  0  0
  -22.3600  -13.1990   21.9040 N   0  0  0  0  0  0  0  0  0  0  0  0
  -22.6660  -14.8890   20.4810 O   0  0  0  0  0  0  0  0  0  0  0  0
  -22.7200  -12.3790   22.3740 H   0  0  0  0  0  0  0  0  0  0  0  0
  -21.4210  -13.5090   22.1150 H   0  0  0  0  0  0  0  0  0  0  0  0
  -25.7460  -15.5050   20.1980 N   0  0  0  0  0  0  0  0  0  0  0  0
  -24.9890  -16.1750   20.2910 H   0  0  0  0  0  0  0  0  0  0  0  0
  -26.6030  -15.9260   19.8620 H   0  0  0  0  0  0  0  0  0  0  0  0
  -29.8930  -22.7880   20.1930 C   0  0  0  0  0  2  0  0  0  0  0  0
  -28.6480  -23.8190   20.2780 C   0  0  0  0  0  2  0  0  0  0  0  0
  -28.8310  -25.3720   20.7070 C   0  0  0  0  0  2  0  0  0  0  0  0
  -28.5920  -26.5420   19.8170 O   0  0  0  0  0  0  0  0  0  0  0  0
  -24.6270  -31.6830   23.0840 C   0  0  0  0  0  0  0  0  0  0  0  0
  -27.4190  -27.3130   19.9130 C   0  0  0  0  0  0  0  0  0  0  0  0
  -23.4740  -30.2900   21.3980 C   0  0  0  0  0  3  0  0  0  0  0  0
  -24.9860  -28.8280   19.9370 C   0  0  0  0  0  0  0  0  0  0  0  0
  -25.9980  -30.7110   21.2220 C   0  0  0  0  0  2  0  0  0  0  0  0
  -26.1330  -29.3510   20.5460 C   0  0  0  0  0  0  0  0  0  0  0  0
  -27.3550  -28.6070   20.5210 C   0  0  0  0  0  3  0  0  0  0  0  0
  -26.2490  -26.8360   19.2880 C   0  0  0  0  0  3  0  0  0  0  0  0
  -25.0460  -27.5770   19.3000 C   0  0  0  0  0  3  0  0  0  0  0  0
  -23.7150  -29.6570   20.0040 C   0  0  0  0  0  2  0  0  0  0  0  0
  -24.7180  -30.9120   21.9600 N   0  0  0  0  0  0  0  0  0  0  0  0
  -23.5350  -31.9040   23.6270 O   0  0  0  0  0  0  0  0  0  0  0  0
  -22.8450  -29.2240   22.3260 C   0  0  0  0  0  0  0  0  0  0  0  0
  -21.5240  -29.0190   22.2020 N   0  0  0  0  0  0  0  0  0  0  0  0
  -23.5460  -28.5850   23.1160 O   0  0  0  0  0  0  0  0  0  0  0  0
  -21.0150  -29.5830   21.5360 H   0  0  0  0  0  0  0  0  0  0  0  0
  -18.1840  -27.7150   22.6820 C   0  0  0  0  0  0  0  0  0  0  0  0
  -20.7380  -28.0330   22.9460 C   0  0  0  0  0  3  0  0  0  0  0  0
  -20.8740  -26.6260   22.3160 C   0  0  0  0  0  2  0  0  0  0  0  0
  -19.7720  -26.3120   21.2970 C   0  0  0  0  0  2  0  0  0  0  0  0
  -18.3910  -26.3970   21.9550 C   0  0  0  0  0  2  0  0  0  0  0  0
  -19.2860  -28.4910   23.1320 C   0  0  0  0  0  0  0  0  0  0  0  0
  -19.0380  -29.7250   23.7690 C   0  0  0  0  0  3  0  0  0  0  0  0
  -17.7220  -30.1860   23.9620 C   0  0  0  0  0  3  0  0  0  0  0  0
  -16.6350  -29.4070   23.5280 C   0  0  0  0  0  3  0  0  0  0  0  0
  -16.8670  -28.1720   22.8970 C   0  0  0  0  0  3  0  0  0  0  0  0
  -25.8870  -32.3400   23.7300 C   0  0  0  0  0  3  0  0  0  0  0  0
  -26.4280  -31.5510   24.9850 C   0  0  1  0  0  0  0  0  0  0  0  0
  -25.3410  -31.2490   26.0430 C   0  0  0  0  0  1  0  0  0  0  0  0
  -27.0470  -30.2040   24.5520 C   0  0  0  0  0  1  0  0  0  0  0  0
  -27.5600  -32.3570   25.6650 C   0  0  0  0  0  1  0  0  0  0  0  0
  -25.5330  -33.7200   24.0960 N   0  0  0  0  0  0  0  0  0  0  0  0
  -25.8260  -34.8030   23.3630 C   0  0  0  0  0  0  0  0  0  0  0  0
  -26.4930  -34.7490   22.3260 O   0  0  0  0  0  0  0  0  0  0  0  0
  -24.9370  -33.8370   24.9030 H   0  0  0  0  0  0  0  0  0  0  0  0
  -24.0260  -36.5380   23.0770 C   0  0  0  0  0  1  0  0  0  0  0  0
  -25.2950  -36.1630   23.8590 C   0  0  0  0  0  3  0  0  0  0  0  0
  -27.4060  -37.1040   24.6820 C   0  0  0  0  0  1  0  0  0  0  0  0
  -26.2860  -37.2580   23.7580 N   0  0  0  0  0  0  0  0  0  0  0  0
  -25.8480  -38.1550   23.9440 H   0  0  0  0  0  0  0  0  0  0  0  0
  1  5  1  0
  3  6  1  0
  3 11  1  0
  4  8  1  0
  5 13  1  0
  5  2  1  0
  6  1  1  0
  6  7  1  0
  7  2  1  0
  7  8  1  0
  8 10  1  1
  9  8  1  0
 11 12  1  1
 11  4  1  0
 14 19  1  0
 15 16  1  0
 15 14  1  0
 17 16  1  0
 17 24  1  0
 17 18  1  0
 19 13  1  0
 19 18  1  0
 20 13  2  0
 21 22  2  0
 22 41  1  0
 23 22  1  0
 23 26  1  0
 24 21  1  0
 24 25  1  0
 25 23  2  0
 26 27  1  0
 27 28  2  0
 29 32  1  0
 29 28  1  0
 30 29  2  0
 31 30  1  0
 31 26  2  0
 32 33  1  0
 33 34  1  0
 34 35  2  0
 36 35  1  0
 36 40  1  0
 37 36  2  0
 38 33  2  0
 38 37  1  0
 39 38  1  0
 41 42  1  0
 42 45  1  0
 42 44  1  0
 43 41  2  0
 46 47  1  0
 46 21  1  0
 48 46  1  0
 49 50  1  0
 49 11  1  0
 50 51  1  0
 52 54  1  0
 52 51  1  0
 53 64  2  0
 54 59  1  0
 55 63  1  0
 55 65  1  0
 56 62  1  0
 56 58  1  0
 57 63  1  0
 58 57  1  0
 59 58  2  0
 60 61  1  0
 60 54  2  0
 61 56  2  0
 62 55  1  0
 63 53  1  0
 65 67  2  0
 66 65  1  0
 68 66  1  0
 69 78  2  0
 69 74  1  0
 70 66  1  0
 70 74  1  0
 71 70  1  0
 72 73  1  0
 72 71  1  0
 73 69  1  0
 74 75  2  0
 75 76  1  0
 77 76  2  0
 78 77  1  0
 79 53  1  0
 79 84  1  0
 79 80  1  0
 80 83  1  1
 80 81  1  0
 82 80  1  0
 84 87  1  0
 85 89  1  0
 85 84  1  0
 86 85  2  0
 89 88  1  0
 91 89  1  0
 91 92  1  0
 91 90  1  0
M  ISO  4   5 100  13 100  51 101  52 101
M  END
>  <TORSDO>  (91) 
F 19

>  <SCORE>  (91) 
-13.703

>  <name>  (91) 
93

>  <ligand_id>  (91) 
93

>  <original_smiles>  (91) 
[H]c1c([H])c([H])c2c(c1[H])C([H])([H])C([H])([H])C([H])([H])C2([H])N([H])C(=O)C1([H])N(C(=O)C([H])(N([H])C(=O)C([H])(N([H])C([H])([H])[H])C([H])([H])[H])C(C([H])([H])[H])(C([H])([H])[H])C([H])([H])[H])C([H])([H])c2c([H])c(OC([H])([H])C([H])([H])C([H])([H])[N+]3([H])C([H])([H])C4([H])C([H])([H])C([H])(C(=O)N5C([H])([H])C([H])([H])C([H])([H])C([H])(n6nc(-c7c([H])c([H])c(Oc8c([H])c([H])c(F)c([H])c8F)c([H])c7[H])c(C(=O)N([H])[H])c6N([H])[H])C5([H])[H])C([H])([H])C4([H])C(C([H])([H])[H])(C([H])([H])[H])C3([H])[H])c([H])c([H])c2C1([H])[H]

>  <smiles>  (91) 
[H]c1c([H])c([H])c2c(c1[H])C([H])([H])C([H])([H])C([H])([H])C2([H])N([H])C(=O)C1([H])N(C(=O)C([H])(N([H])C(=O)C([H])(N([H])C([H])([H])[H])C([H])([H])[H])C(C([H])([H])[H])(C([H])([H])[H])C([H])([H])[H])C([H])([H])c2c([H])c(OC([H])([H])C([H])([H])C([H])([H])[N+]3([H])C([H])([H])C4([H])C([H])([H])C([H])(C(=O)N5C([H])([H])C([H])([H])C([H])([H])C([H])(n6nc(-c7c([H])c([H])c(Oc8c([H])c([H])c(F)c([H])c8F)c([H])c7[H])c(C(=O)N([H])[H])c6N([H])[H])C5([H])[H])C([H])([H])C4([H])C(C([H])([H])[H])(C([H])([H])[H])C3([H])[H])c([H])c([H])c2C1([H])[H]

$$$$
94:0:0
     RDKit          3D

 92100  0  0  1  0  0  0  0  0999 V2000
  -29.9750  -20.7550   20.6200 N   0  0  0  0  0  4  0  0  0  0  0  0
  -30.8750  -20.8170   21.0710 H   0  0  0  0  0  0  0  0  0  0  0  0
  -30.1250  -20.8540   19.6340 H   0  0  0  0  0  0  0  0  0  0  0  0
  -29.2010  -22.0860   21.0590 C   0  0  0  0  0  2  0  0  0  0  0  0
  -29.4460  -23.6070   20.3440 C   0  0  0  0  0  2  0  0  0  0  0  0
  -28.2680  -24.8000   20.1070 C   0  0  0  0  0  2  0  0  0  0  0  0
  -28.4510  -26.3350   19.8750 O   0  0  0  0  0  0  0  0  0  0  0  0
  -24.5870  -31.7270   23.0000 C   0  0  0  0  0  0  0  0  0  0  0  0
  -27.3440  -27.2600   19.8070 C   0  0  0  0  0  0  0  0  0  0  0  0
  -23.4480  -30.4110   21.2520 C   0  0  0  0  0  3  0  0  0  0  0  0
  -24.9650  -28.9500   19.7720 C   0  0  0  0  0  0  0  0  0  0  0  0
  -25.9950  -30.7510   21.1450 C   0  0  0  0  0  2  0  0  0  0  0  0
  -26.1190  -29.3950   20.4330 C   0  0  0  0  0  0  0  0  0  0  0  0
  -27.3050  -28.5760   20.4250 C   0  0  0  0  0  3  0  0  0  0  0  0
  -26.1640  -26.9100   19.1060 C   0  0  0  0  0  3  0  0  0  0  0  0
  -25.0050  -27.7240   19.0870 C   0  0  0  0  0  3  0  0  0  0  0  0
  -23.7150  -29.8200   19.8400 C   0  0  0  0  0  2  0  0  0  0  0  0
  -24.6960  -30.9760   21.8580 N   0  0  0  0  0  0  0  0  0  0  0  0
  -23.4850  -31.9510   23.5230 O   0  0  0  0  0  0  0  0  0  0  0  0
  -22.7790  -29.3280   22.1360 C   0  0  0  0  0  0  0  0  0  0  0  0
  -21.4600  -29.1370   21.9700 N   0  0  0  0  0  0  0  0  0  0  0  0
  -23.4510  -28.6690   22.9310 O   0  0  0  0  0  0  0  0  0  0  0  0
  -20.9780  -29.7200   21.3010 H   0  0  0  0  0  0  0  0  0  0  0  0
  -18.0880  -27.8880   22.3930 C   0  0  0  0  0  0  0  0  0  0  0  0
  -20.6460  -28.1320   22.6640 C   0  0  0  0  0  3  0  0  0  0  0  0
  -20.7490  -26.7550   21.9690 C   0  0  0  0  0  2  0  0  0  0  0  0
  -19.6400  -26.5160   20.9420 C   0  0  0  0  0  2  0  0  0  0  0  0
  -18.2610  -26.6020   21.6040 C   0  0  0  0  0  2  0  0  0  0  0  0
  -19.2060  -28.6140   22.8800 C   0  0  0  0  0  0  0  0  0  0  0  0
  -18.9870  -29.8180   23.5830 C   0  0  0  0  0  3  0  0  0  0  0  0
  -17.6810  -30.2960   23.8000 C   0  0  0  0  0  3  0  0  0  0  0  0
  -16.5770  -29.5640   23.3290 C   0  0  0  0  0  3  0  0  0  0  0  0
  -16.7800  -28.3630   22.6300 C   0  0  0  0  0  3  0  0  0  0  0  0
  -25.8340  -32.3530   23.6960 C   0  0  0  0  0  3  0  0  0  0  0  0
  -25.4950  -33.7330   24.0670 N   0  0  0  0  0  0  0  0  0  0  0  0
  -25.8130  -34.8190   23.3500 C   0  0  0  0  0  0  0  0  0  0  0  0
  -26.4880  -34.7580   22.3180 O   0  0  0  0  0  0  0  0  0  0  0  0
  -24.8910  -33.8490   24.8680 H   0  0  0  0  0  0  0  0  0  0  0  0
  -24.0480  -36.5910   23.0550 C   0  0  0  0  0  1  0  0  0  0  0  0
  -25.3000  -36.1850   23.8470 C   0  0  0  0  0  3  0  0  0  0  0  0
  -27.4170  -37.0940   24.7030 C   0  0  0  0  0  1  0  0  0  0  0  0
  -26.3150  -37.2600   23.7630 N   0  0  0  0  0  0  0  0  0  0  0  0
  -25.8920  -38.1700   23.9260 H   0  0  0  0  0  0  0  0  0  0  0  0
  -26.3040  -31.5400   24.9640 C   0  0  1  0  0  0  0  0  0  0  0  0
  -25.1700  -31.2500   25.9760 C   0  0  0  0  0  1  0  0  0  0  0  0
  -26.9200  -30.1870   24.5450 C   0  0  0  0  0  1  0  0  0  0  0  0
  -27.4170  -32.3220   25.7040 C   0  0  0  0  0  1  0  0  0  0  0  0
  -29.4610  -19.2460   20.7930 C   0  0  0  0  0  3  0  0  0  0  0  0
  -30.8520  -15.1260   20.6910 C   0  0  0  0  0  0  0  0  0  0  0  0
  -30.9020  -12.6000   20.2990 C   0  0  0  0  0  2  0  0  0  0  0  0
  -30.1530  -12.1030   19.0430 C   0  0  0  0  0  2  0  0  0  0  0  0
  -28.6480  -11.9420   19.3290 C   0  0  0  0  0  2  0  0  0  0  0  0
  -28.0360  -13.0790   20.1830 C   0  0  0  0  0  3  0  0  0  0  0  0
  -28.9470  -13.4980   21.3650 C   0  0  0  0  0  2  0  0  0  0  0  0
  -30.2550  -13.8570   20.7960 N   0  0  0  0  0  0  0  0  0  0  0  0
  -32.0840  -15.1150   20.6660 O   0  0  0  0  0  0  0  0  0  0  0  0
  -31.1740  -17.6180   18.4790 C   0  0  0  0  0  2  0  0  0  0  0  0
  -31.6940  -18.1600   19.8050 C   0  0  0  0  0  2  0  0  0  0  0  0
  -30.0230  -16.6550   18.8650 C   0  0  0  0  0  3  0  0  0  0  0  0
  -30.5020  -17.8520   20.7130 C   0  0  0  0  0  3  0  0  0  0  0  0
  -29.8620  -15.5160   17.8400 C   0  0  0  0  0  1  0  0  0  0  0  0
  -30.1520  -16.3440   20.3270 N   0  0  0  0  0  0  0  0  0  0  0  0
  -25.6090  -13.6720   20.7190 C   0  0  0  0  0  0  0  0  0  0  0  0
  -24.5070  -12.9130   21.0040 C   0  0  0  0  0  0  0  0  0  0  0  0
  -24.9610  -11.5600   21.0200 C   0  0  0  0  0  0  0  0  0  0  0  0
  -26.6620  -12.7860   20.5790 N   0  0  0  0  0  0  0  0  0  0  0  0
  -26.2730  -11.5060   20.8160 N   0  0  0  0  0  0  0  0  0  0  0  0
  -24.2080  -10.3120   21.1640 C   0  0  0  0  0  0  0  0  0  0  0  0
  -24.5220   -9.3830   22.1820 C   0  0  0  0  0  3  0  0  0  0  0  0
  -23.7710   -8.1910   22.3190 C   0  0  0  0  0  3  0  0  0  0  0  0
  -22.7000   -7.9140   21.4420 C   0  0  0  0  0  0  0  0  0  0  0  0
  -22.4110   -8.8290   20.4120 C   0  0  0  0  0  3  0  0  0  0  0  0
  -23.1630  -10.0110   20.2730 C   0  0  0  0  0  3  0  0  0  0  0  0
  -21.9530   -6.7610   21.4700 O   0  0  0  0  0  0  0  0  0  0  0  0
  -21.6180   -6.1480   22.6520 C   0  0  0  0  0  0  0  0  0  0  0  0
  -20.9010   -6.8240   23.6610 C   0  0  0  0  0  3  0  0  0  0  0  0
  -20.5150   -6.1360   24.8300 C   0  0  0  0  0  3  0  0  0  0  0  0
  -20.8420   -4.7770   24.9890 C   0  0  0  0  0  0  0  0  0  0  0  0
  -21.5510   -4.1040   23.9790 C   0  0  0  0  0  3  0  0  0  0  0  0
  -21.9330   -4.7830   22.8140 C   0  0  0  0  0  0  0  0  0  0  0  0
  -22.5940   -4.1220   21.8320 F   0  0  0  0  0  0  0  0  0  0  0  0
  -20.4680   -4.1180   26.1090 F   0  0  0  0  0  0  0  0  0  0  0  0
  -23.0980  -13.3980   21.1620 C   0  0  0  0  0  0  0  0  0  0  0  0
  -22.3120  -12.7170   21.9950 N   0  0  0  0  0  0  0  0  0  0  0  0
  -22.7020  -14.4090   20.5870 O   0  0  0  0  0  0  0  0  0  0  0  0
  -22.6440  -11.8860   22.4560 H   0  0  0  0  0  0  0  0  0  0  0  0
  -21.3610  -13.0080   22.1500 H   0  0  0  0  0  0  0  0  0  0  0  0
  -25.8160  -15.0330   20.5340 N   0  0  0  0  0  0  0  0  0  0  0  0
  -25.0950  -15.7490   20.6010 H   0  0  0  0  0  0  0  0  0  0  0  0
  -26.7210  -15.4140   20.2860 H   0  0  0  0  0  0  0  0  0  0  0  0
  -27.5260  -18.0990   19.3300 C   0  0  0  0  0  1  0  0  0  0  0  0
  -27.9450  -19.1230   20.4040 C   0  0  0  0  0  2  0  0  0  0  0  0
  1 48  1  0
  1  4  1  0
  1  2  1  0
  3  1  1  0
  5  4  1  0
  6  5  1  0
  7  6  1  0
  8 19  2  0
  9  7  1  0
  9 14  1  0
 10 18  1  0
 10 20  1  0
 11 17  1  0
 11 13  1  0
 12 18  1  0
 13 12  1  0
 14 13  2  0
 15  9  2  0
 16 15  1  0
 16 11  2  0
 17 10  1  0
 18  8  1  0
 20 22  2  0
 21 20  1  0
 23 21  1  0
 24 33  2  0
 24 29  1  0
 25 21  1  0
 25 29  1  0
 26 25  1  0
 27 28  1  0
 27 26  1  0
 28 24  1  0
 29 30  2  0
 30 31  1  0
 32 31  2  0
 33 32  1  0
 34  8  1  0
 34 35  1  0
 34 44  1  0
 35 38  1  0
 36 40  1  0
 36 35  1  0
 37 36  2  0
 40 39  1  0
 42 40  1  0
 42 43  1  0
 42 41  1  0
 44 47  1  1
 44 45  1  0
 46 44  1  0
 48 92  1  0
 49 55  1  0
 50 55  1  0
 51 52  1  0
 51 50  1  0
 53 52  1  0
 53 66  1  0
 53 54  1  0
 55 54  1  0
 56 49  2  0
 57 59  1  0
 57 58  1  0
 58 60  1  0
 59 61  1  0
 59 62  1  0
 60 48  1  0
 62 49  1  0
 62 60  1  0
 63 64  2  0
 64 65  1  0
 64 83  1  0
 65 68  1  0
 66 63  1  0
 66 67  1  0
 67 65  2  0
 68 69  1  0
 69 70  2  0
 71 74  1  0
 71 70  1  0
 72 71  2  0
 73 72  1  0
 73 68  2  0
 74 75  1  0
 75 80  2  0
 75 76  1  0
 76 77  2  0
 77 78  1  0
 78 82  1  0
 79 78  2  0
 80 79  1  0
 81 80  1  0
 83 84  1  0
 84 87  1  0
 84 86  1  0
 85 83  2  0
 88 89  1  0
 88 63  1  0
 90 88  1  0
 91 92  1  0
M  ISO  4   6 101   7 101  49 100  62 100
M  END
>  <TORSDO>  (92) 
F 21

>  <SCORE>  (92) 
-11.657

>  <name>  (92) 
94

>  <ligand_id>  (92) 
94

>  <original_smiles>  (92) 
[H]c1c([H])c([H])c2c(c1[H])C([H])([H])C([H])([H])C([H])([H])C2([H])N([H])C(=O)C1([H])N(C(=O)C([H])(N([H])C(=O)C([H])(N([H])C([H])([H])[H])C([H])([H])[H])C(C([H])([H])[H])(C([H])([H])[H])C([H])([H])[H])C([H])([H])c2c([H])c(OC([H])([H])C([H])([H])C([H])([H])[N+]([H])([H])C([H])(C([H])([H])C([H])([H])[H])C3([H])N(C(=O)N4C([H])([H])C([H])([H])C([H])([H])C([H])(n5nc(-c6c([H])c([H])c(Oc7c([H])c([H])c(F)c([H])c7F)c([H])c6[H])c(C(=O)N([H])[H])c5N([H])[H])C4([H])[H])C([H])(C([H])([H])[H])C([H])([H])C3([H])[H])c([H])c([H])c2C1([H])[H]

>  <smiles>  (92) 
[H]c1c([H])c([H])c2c(c1[H])C([H])([H])C([H])([H])C([H])([H])C2([H])N([H])C(=O)C1([H])N(C(=O)C([H])(N([H])C(=O)C([H])(N([H])C([H])([H])[H])C([H])([H])[H])C(C([H])([H])[H])(C([H])([H])[H])C([H])([H])[H])C([H])([H])c2c([H])c(OC([H])([H])C([H])([H])C([H])([H])[N+]([H])([H])C([H])(C([H])([H])C([H])([H])[H])C3([H])N(C(=O)N4C([H])([H])C([H])([H])C([H])([H])C([H])(n5nc(-c6c([H])c([H])c(Oc7c([H])c([H])c(F)c([H])c7F)c([H])c6[H])c(C(=O)N([H])[H])c5N([H])[H])C4([H])[H])C([H])(C([H])([H])[H])C([H])([H])C3([H])[H])c([H])c([H])c2C1([H])[H]

$$$$
95:0:0
     RDKit          3D

 94101  0  0  1  0  0  0  0  0999 V2000
  -31.8560  -20.0920   19.2600 C   0  0  0  0  0  1  0  0  0  0  0  0
  -30.9970  -20.6190   20.4230 C   0  0  0  0  0  3  0  0  0  0  0  0
  -29.9920  -21.6060   19.8720 N   0  0  0  0  0  4  0  0  0  0  0  0
  -29.2740  -21.1530   19.3230 H   0  0  0  0  0  0  0  0  0  0  0  0
  -30.5340  -22.1340   19.2080 H   0  0  0  0  0  0  0  0  0  0  0  0
  -29.3910  -22.6800   20.7300 C   0  0  0  0  0  2  0  0  0  0  0  0
  -29.4120  -24.1150   20.0620 C   0  0  0  0  0  3  0  0  0  0  0  0
  -28.3100  -25.1250   20.5510 C   0  0  0  0  0  3  0  0  0  0  0  0
  -28.3880  -26.5120   20.0690 O   0  0  0  0  0  0  0  0  0  0  0  0
  -24.6280  -31.7990   23.1970 C   0  0  0  0  0  0  0  0  0  0  0  0
  -27.2280  -27.2910   20.1090 C   0  0  0  0  0  0  0  0  0  0  0  0
  -23.4060  -30.4210   21.5480 C   0  0  0  0  0  3  0  0  0  0  0  0
  -24.8450  -28.8610   20.1260 C   0  0  0  0  0  0  0  0  0  0  0  0
  -25.9370  -30.7520   21.3370 C   0  0  0  0  0  2  0  0  0  0  0  0
  -26.0140  -29.3670   20.7090 C   0  0  0  0  0  0  0  0  0  0  0  0
  -27.2060  -28.5900   20.6990 C   0  0  0  0  0  3  0  0  0  0  0  0
  -26.0350  -26.8230   19.5180 C   0  0  0  0  0  3  0  0  0  0  0  0
  -24.8480  -27.5900   19.5310 C   0  0  0  0  0  3  0  0  0  0  0  0
  -23.6160  -29.7440   20.1620 C   0  0  0  0  0  2  0  0  0  0  0  0
  -24.6770  -31.0060   22.0860 N   0  0  0  0  0  0  0  0  0  0  0  0
  -23.5490  -32.0710   23.7440 O   0  0  0  0  0  0  0  0  0  0  0  0
  -22.7470  -29.4020   22.5080 C   0  0  0  0  0  0  0  0  0  0  0  0
  -21.4190  -29.2320   22.3940 N   0  0  0  0  0  0  0  0  0  0  0  0
  -23.4320  -28.7660   23.3140 O   0  0  0  0  0  0  0  0  0  0  0  0
  -20.9320  -29.7960   21.7120 H   0  0  0  0  0  0  0  0  0  0  0  0
  -18.0440  -28.0570   22.9390 C   0  0  0  0  0  0  0  0  0  0  0  0
  -20.6080  -28.2970   23.1740 C   0  0  0  0  0  3  0  0  0  0  0  0
  -20.6880  -26.8650   22.5920 C   0  0  0  0  0  2  0  0  0  0  0  0
  -19.5690  -26.5590   21.5900 C   0  0  0  0  0  2  0  0  0  0  0  0
  -18.1980  -26.7110   22.2540 C   0  0  0  0  0  2  0  0  0  0  0  0
  -19.1740  -28.8070   23.3610 C   0  0  0  0  0  0  0  0  0  0  0  0
  -18.9690  -30.0680   23.9650 C   0  0  0  0  0  3  0  0  0  0  0  0
  -17.6690  -30.5730   24.1500 C   0  0  0  0  0  3  0  0  0  0  0  0
  -16.5560  -29.8210   23.7380 C   0  0  0  0  0  3  0  0  0  0  0  0
  -16.7440  -28.5650   23.1390 C   0  0  0  0  0  3  0  0  0  0  0  0
  -25.9150  -32.4270   23.8130 C   0  0  0  0  0  3  0  0  0  0  0  0
  -26.4420  -31.6490   25.0820 C   0  0  1  0  0  0  0  0  0  0  0  0
  -25.3670  -31.4000   26.1670 C   0  0  0  0  0  1  0  0  0  0  0  0
  -27.0150  -30.2770   24.6680 C   0  0  0  0  0  1  0  0  0  0  0  0
  -27.6060  -32.4330   25.7310 C   0  0  0  0  0  1  0  0  0  0  0  0
  -25.6100  -33.8220   24.1610 N   0  0  0  0  0  0  0  0  0  0  0  0
  -25.9390  -34.8830   23.4140 C   0  0  0  0  0  0  0  0  0  0  0  0
  -26.5980  -34.7890   22.3750 O   0  0  0  0  0  0  0  0  0  0  0  0
  -25.0180  -33.9650   24.9690 H   0  0  0  0  0  0  0  0  0  0  0  0
  -24.2030  -36.6710   23.1000 C   0  0  0  0  0  1  0  0  0  0  0  0
  -25.4610  -36.2690   23.8910 C   0  0  0  0  0  3  0  0  0  0  0  0
  -27.6150  -37.1360   24.6870 C   0  0  0  0  0  1  0  0  0  0  0  0
  -26.4930  -37.3220   23.7700 N   0  0  0  0  0  0  0  0  0  0  0  0
  -26.0920  -38.2430   23.9450 H   0  0  0  0  0  0  0  0  0  0  0  0
  -30.4850  -19.4650   21.3830 C   0  0  0  0  0  2  0  0  0  0  0  0
  -30.9350  -17.9440   21.1590 C   0  0  0  0  0  2  0  0  0  0  0  0
  -30.3570  -17.2110   19.9030 C   0  0  0  0  0  3  0  0  0  0  0  0
  -31.1380  -14.6980   20.4180 C   0  0  0  0  0  0  0  0  0  0  0  0
  -30.9650  -12.2880   19.8650 C   0  0  0  0  0  2  0  0  0  0  0  0
  -30.1440  -12.0840   18.5770 C   0  0  0  0  0  2  0  0  0  0  0  0
  -28.6200  -12.0820   18.8540 C   0  0  0  0  0  2  0  0  0  0  0  0
  -28.1490  -13.1690   19.8660 C   0  0  0  0  0  3  0  0  0  0  0  0
  -29.1190  -13.2890   21.0580 C   0  0  0  0  0  2  0  0  0  0  0  0
  -30.4640  -13.5050   20.5150 N   0  0  0  0  0  0  0  0  0  0  0  0
  -32.3680  -14.7320   20.5030 O   0  0  0  0  0  0  0  0  0  0  0  0
  -30.5090  -15.4450   18.2210 C   0  0  0  0  0  1  0  0  0  0  0  0
  -30.5040  -15.7000   19.6890 N   0  0  0  0  0  0  0  0  0  0  0  0
  -25.7280  -13.8920   20.3690 C   0  0  0  0  0  0  0  0  0  0  0  0
  -24.6010  -13.1840   20.6930 C   0  0  0  0  0  0  0  0  0  0  0  0
  -25.0140  -11.8280   20.7920 C   0  0  0  0  0  0  0  0  0  0  0  0
  -26.7580  -12.9670   20.2890 N   0  0  0  0  0  0  0  0  0  0  0  0
  -26.3280  -11.7200   20.6160 N   0  0  0  0  0  0  0  0  0  0  0  0
  -24.2130  -10.6110   20.9870 C   0  0  0  0  0  0  0  0  0  0  0  0
  -24.5530   -9.6570   21.9720 C   0  0  0  0  0  3  0  0  0  0  0  0
  -23.7540   -8.5090   22.1550 C   0  0  0  0  0  3  0  0  0  0  0  0
  -22.6050   -8.3090   21.3550 C   0  0  0  0  0  0  0  0  0  0  0  0
  -22.2830   -9.2530   20.3640 C   0  0  0  0  0  3  0  0  0  0  0  0
  -23.0810  -10.3930   20.1770 C   0  0  0  0  0  3  0  0  0  0  0  0
  -21.7920   -7.2070   21.4410 O   0  0  0  0  0  0  0  0  0  0  0  0
  -21.6880   -6.4770   22.5990 C   0  0  0  0  0  0  0  0  0  0  0  0
  -21.2900   -7.0710   23.8160 C   0  0  0  0  0  3  0  0  0  0  0  0
  -21.1210   -6.2750   24.9660 C   0  0  0  0  0  3  0  0  0  0  0  0
  -21.3490   -4.8870   24.9020 C   0  0  0  0  0  0  0  0  0  0  0  0
  -21.7490   -4.2930   23.6910 C   0  0  0  0  0  3  0  0  0  0  0  0
  -21.9140   -5.0860   22.5410 C   0  0  0  0  0  0  0  0  0  0  0  0
  -22.2740   -4.5060   21.3710 F   0  0  0  0  0  0  0  0  0  0  0  0
  -21.1850   -4.1220   26.0060 F   0  0  0  0  0  0  0  0  0  0  0  0
  -23.2130  -13.7420   20.8170 C   0  0  0  0  0  0  0  0  0  0  0  0
  -22.3850  -13.1530   21.6780 N   0  0  0  0  0  0  0  0  0  0  0  0
  -22.8630  -14.7410   20.1920 O   0  0  0  0  0  0  0  0  0  0  0  0
  -22.6680  -12.3600   22.2360 H   0  0  0  0  0  0  0  0  0  0  0  0
  -21.4540  -13.5230   21.7890 H   0  0  0  0  0  0  0  0  0  0  0  0
  -25.9280  -15.2390   20.1220 N   0  0  0  0  0  0  0  0  0  0  0  0
  -25.1360  -15.8700   20.1640 H   0  0  0  0  0  0  0  0  0  0  0  0
  -26.8080  -15.7270   20.1990 H   0  0  0  0  0  0  0  0  0  0  0  0
  -28.6130  -17.8380   18.0910 C   0  0  0  0  0  1  0  0  0  0  0  0
  -28.9150  -17.7080   19.5910 C   0  0  0  0  0  3  0  0  0  0  0  0
  -27.8680  -16.9710   20.4090 C   0  0  0  0  0  2  0  0  0  0  0  0
  -26.6670  -17.4960   20.1390 F   0  0  0  0  0  0  0  0  0  0  0  0
  2  1  1  0
  2 50  1  0
  3  2  1  0
  3  6  1  0
  4  3  1  0
  5  3  1  0
  7  8  2  0
  7  6  1  0
  9 11  1  0
  9  8  1  0
 10 21  2  0
 11 16  1  0
 12 20  1  0
 12 22  1  0
 13 19  1  0
 13 15  1  0
 14 20  1  0
 15 14  1  0
 16 15  2  0
 17 18  1  0
 17 11  2  0
 18 13  2  0
 19 12  1  0
 20 10  1  0
 22 24  2  0
 23 22  1  0
 25 23  1  0
 26 35  2  0
 26 31  1  0
 27 23  1  0
 27 31  1  0
 28 27  1  0
 29 30  1  0
 29 28  1  0
 30 26  1  0
 31 32  2  0
 32 33  1  0
 34 33  2  0
 35 34  1  0
 36 10  1  0
 36 41  1  0
 36 37  1  0
 37 40  1  1
 37 38  1  0
 39 37  1  0
 41 44  1  0
 42 46  1  0
 42 41  1  0
 43 42  2  0
 46 45  1  0
 48 46  1  0
 48 49  1  0
 48 47  1  0
 51 50  1  0
 52 51  1  0
 53 60  2  0
 53 59  1  0
 54 59  1  0
 55 56  1  0
 55 54  1  0
 57 56  1  0
 57 66  1  0
 57 58  1  0
 59 58  1  0
 61 62  1  0
 62 52  1  0
 62 53  1  0
 63 64  2  0
 64 65  1  0
 64 83  1  0
 65 68  1  0
 66 63  1  0
 66 67  1  0
 67 65  2  0
 68 69  1  0
 69 70  2  0
 71 74  1  0
 71 70  1  0
 72 71  2  0
 73 72  1  0
 73 68  2  0
 74 75  1  0
 75 76  1  0
 76 77  2  0
 78 77  1  0
 78 82  1  0
 79 78  2  0
 80 75  2  0
 80 79  1  0
 81 80  1  0
 83 84  1  0
 84 87  1  0
 84 86  1  0
 85 83  2  0
 88 89  1  0
 88 90  1  0
 88 63  1  0
 92 91  1  0
 92 52  1  0
 92 93  1  0
 94 93  1  0
M  ISO  4   8 101   9 101  53 100  62 100
M  END
>  <TORSDO>  (93) 
F 25

>  <SCORE>  (93) 
-11.637

>  <name>  (93) 
95

>  <ligand_id>  (93) 
95

>  <original_smiles>  (93) 
[H]c1c([H])c([H])c2c(c1[H])C([H])([H])C([H])([H])C([H])([H])C2([H])N([H])C(=O)C1([H])N(C(=O)C([H])(N([H])C(=O)C([H])(N([H])C([H])([H])[H])C([H])([H])[H])C(C([H])([H])[H])(C([H])([H])[H])C([H])([H])[H])C([H])([H])c2c([H])c(OC([H])([H])C([H])([H])C([H])([H])[N+]([H])([H])C([H])(C([H])([H])[H])C([H])([H])C([H])([H])C([H])(N(C(=O)N3C([H])([H])C([H])([H])C([H])([H])C([H])(n4nc(-c5c([H])c([H])c(Oc6c([H])c([H])c(F)c([H])c6F)c([H])c5[H])c(C(=O)N([H])[H])c4N([H])[H])C3([H])[H])C([H])([H])[H])C([H])(C([H])([H])[H])C([H])([H])F)c([H])c([H])c2C1([H])[H]

>  <smiles>  (93) 
[H]c1c([H])c([H])c2c(c1[H])C([H])([H])C([H])([H])C([H])([H])C2([H])N([H])C(=O)C1([H])N(C(=O)C([H])(N([H])C(=O)C([H])(N([H])C([H])([H])[H])C([H])([H])[H])C(C([H])([H])[H])(C([H])([H])[H])C([H])([H])[H])C([H])([H])c2c([H])c(OC([H])([H])C([H])([H])C([H])([H])[N+]([H])([H])C([H])(C([H])([H])[H])C([H])([H])C([H])([H])C([H])(N(C(=O)N3C([H])([H])C([H])([H])C([H])([H])C([H])(n4nc(-c5c([H])c([H])c(Oc6c([H])c([H])c(F)c([H])c6F)c([H])c5[H])c(C(=O)N([H])[H])c4N([H])[H])C3([H])[H])C([H])([H])[H])C([H])(C([H])([H])[H])C([H])([H])F)c([H])c([H])c2C1([H])[H]

$$$$
96:0:0
     RDKit          3D

 93101  0  0  1  0  0  0  0  0999 V2000
  -29.7260  -21.0150   20.5800 C   0  0  0  0  0  3  0  0  0  0  0  0
  -27.5580  -18.6090   19.8900 C   0  0  0  0  0  2  0  0  0  0  0  0
  -28.4860  -19.3550   18.9550 C   0  0  0  0  0  2  0  0  0  0  0  0
  -28.4860  -17.9380   20.9200 C   0  0  0  0  0  3  0  0  0  0  0  0
  -29.7490  -19.6020   19.7860 C   0  0  0  0  0  3  0  0  0  0  0  0
  -28.1200  -16.4680   21.1940 C   0  0  0  0  0  1  0  0  0  0  0  0
  -29.8890  -18.3020   20.5640 N   0  0  0  0  0  0  0  0  0  0  0  0
  -30.6750  -17.2260   19.8320 C   0  0  0  0  0  3  0  0  0  0  0  0
  -31.2160  -15.9320   20.6270 C   0  0  0  0  0  3  0  0  0  0  0  0
  -31.6480  -14.6100   19.8530 C   0  0  0  0  0  0  0  0  0  0  0  0
  -31.2510  -12.3120   18.9410 C   0  0  0  0  0  2  0  0  0  0  0  0
  -30.2730  -12.3640   17.7450 C   0  0  0  0  0  2  0  0  0  0  0  0
  -28.8110  -12.3400   18.2140 C   0  0  0  0  0  2  0  0  0  0  0  0
  -28.5430  -13.3100   19.3930 C   0  0  0  0  0  3  0  0  0  0  0  0
  -29.6220  -13.2190   20.4890 C   0  0  0  0  0  2  0  0  0  0  0  0
  -30.9330  -13.4310   19.8610 N   0  0  0  0  0  0  0  0  0  0  0  0
  -32.7140  -14.6640   19.2330 O   0  0  0  0  0  0  0  0  0  0  0  0
  -26.2490  -14.1040   20.2190 C   0  0  0  0  0  0  0  0  0  0  0  0
  -25.1370  -13.4250   20.6340 C   0  0  0  0  0  0  0  0  0  0  0  0
  -25.4740  -12.0350   20.5610 C   0  0  0  0  0  0  0  0  0  0  0  0
  -27.2030  -13.1350   19.9440 N   0  0  0  0  0  0  0  0  0  0  0  0
  -26.7390  -11.8850   20.1920 N   0  0  0  0  0  0  0  0  0  0  0  0
  -24.6420  -10.8440   20.7730 C   0  0  0  0  0  0  0  0  0  0  0  0
  -24.9950   -9.8570   21.7250 C   0  0  0  0  0  3  0  0  0  0  0  0
  -24.1700   -8.7320   21.9260 C   0  0  0  0  0  3  0  0  0  0  0  0
  -22.9790   -8.5740   21.1790 C   0  0  0  0  0  0  0  0  0  0  0  0
  -22.6460   -9.5450   20.2150 C   0  0  0  0  0  3  0  0  0  0  0  0
  -23.4700  -10.6660   20.0140 C   0  0  0  0  0  3  0  0  0  0  0  0
  -22.1350   -7.4950   21.2830 O   0  0  0  0  0  0  0  0  0  0  0  0
  -21.9420   -6.8410   22.4730 C   0  0  0  0  0  0  0  0  0  0  0  0
  -21.4960   -7.5140   23.6290 C   0  0  0  0  0  3  0  0  0  0  0  0
  -21.2420   -6.7900   24.8130 C   0  0  0  0  0  3  0  0  0  0  0  0
  -21.4190   -5.3940   24.8350 C   0  0  0  0  0  0  0  0  0  0  0  0
  -21.8560   -4.7210   23.6820 C   0  0  0  0  0  3  0  0  0  0  0  0
  -22.1080   -5.4400   22.5020 C   0  0  0  0  0  0  0  0  0  0  0  0
  -22.4960   -4.7790   21.3840 F   0  0  0  0  0  0  0  0  0  0  0  0
  -21.1750   -4.6980   25.9720 F   0  0  0  0  0  0  0  0  0  0  0  0
  -23.8010  -14.0150   20.9870 C   0  0  0  0  0  0  0  0  0  0  0  0
  -23.0750  -13.3850   21.9010 N   0  0  0  0  0  0  0  0  0  0  0  0
  -23.4150  -15.0670   20.4800 O   0  0  0  0  0  0  0  0  0  0  0  0
  -23.4020  -12.5330   22.3260 H   0  0  0  0  0  0  0  0  0  0  0  0
  -22.1710  -13.7460   22.1710 H   0  0  0  0  0  0  0  0  0  0  0  0
  -26.5270  -15.4570   20.0370 N   0  0  0  0  0  0  0  0  0  0  0  0
  -25.8080  -16.1720   20.0620 H   0  0  0  0  0  0  0  0  0  0  0  0
  -27.4320  -15.8040   19.7390 H   0  0  0  0  0  0  0  0  0  0  0  0
  -29.9450  -20.7000   23.0350 C   0  0  0  0  0  1  0  0  0  0  0  0
  -29.0430  -20.8600   21.8760 N   0  0  0  0  0  4  0  0  0  0  0  0
  -28.4680  -21.6700   22.0390 H   0  0  0  0  0  0  0  0  0  0  0  0
  -28.4470  -20.0520   21.7950 H   0  0  0  0  0  0  0  0  0  0  0  0
  -29.0820  -22.2830   19.8370 C   0  0  0  0  0  2  0  0  0  0  0  0
  -29.3200  -23.7800   20.3570 C   0  0  0  0  0  3  0  0  0  0  0  0
  -28.4460  -24.8990   19.6300 C   0  0  0  0  0  3  0  0  0  0  0  0
  -28.6010  -26.3450   19.9220 O   0  0  0  0  0  0  0  0  0  0  0  0
  -24.7410  -31.6070   22.9990 C   0  0  0  0  0  0  0  0  0  0  0  0
  -27.4600  -27.1710   19.8520 C   0  0  0  0  0  0  0  0  0  0  0  0
  -23.5620  -30.1970   21.3480 C   0  0  0  0  0  3  0  0  0  0  0  0
  -25.0420  -28.7140   19.8800 C   0  0  0  0  0  0  0  0  0  0  0  0
  -26.0860  -30.5900   21.1470 C   0  0  0  0  0  2  0  0  0  0  0  0
  -26.1990  -29.2230   20.4840 C   0  0  0  0  0  0  0  0  0  0  0  0
  -27.4060  -28.4600   20.4680 C   0  0  0  0  0  3  0  0  0  0  0  0
  -26.2830  -26.7330   19.2000 C   0  0  0  0  0  3  0  0  0  0  0  0
  -25.0850  -27.4730   19.2310 C   0  0  0  0  0  3  0  0  0  0  0  0
  -23.7810  -29.5510   19.9550 C   0  0  0  0  0  2  0  0  0  0  0  0
  -24.8150  -30.8170   21.8880 N   0  0  0  0  0  0  0  0  0  0  0  0
  -23.6550  -31.8420   23.5520 O   0  0  0  0  0  0  0  0  0  0  0  0
  -22.9380  -29.1470   22.2990 C   0  0  0  0  0  0  0  0  0  0  0  0
  -21.6150  -28.9370   22.1850 N   0  0  0  0  0  0  0  0  0  0  0  0
  -23.6420  -28.5240   23.0970 O   0  0  0  0  0  0  0  0  0  0  0  0
  -21.1030  -29.4930   21.5160 H   0  0  0  0  0  0  0  0  0  0  0  0
  -18.2760  -27.6480   22.7150 C   0  0  0  0  0  0  0  0  0  0  0  0
  -20.8320  -27.9670   22.9500 C   0  0  0  0  0  3  0  0  0  0  0  0
  -20.9580  -26.5480   22.3480 C   0  0  0  0  0  2  0  0  0  0  0  0
  -19.8490  -26.2160   21.3460 C   0  0  0  0  0  2  0  0  0  0  0  0
  -18.4750  -26.3150   22.0120 C   0  0  0  0  0  2  0  0  0  0  0  0
  -19.3830  -28.4300   23.1410 C   0  0  0  0  0  0  0  0  0  0  0  0
  -19.1420  -29.6750   23.7610 C   0  0  0  0  0  3  0  0  0  0  0  0
  -17.8270  -30.1400   23.9560 C   0  0  0  0  0  3  0  0  0  0  0  0
  -16.7350  -29.3570   23.5420 C   0  0  0  0  0  3  0  0  0  0  0  0
  -16.9600  -28.1120   22.9280 C   0  0  0  0  0  3  0  0  0  0  0  0
  -26.0120  -32.2640   23.6190 C   0  0  0  0  0  3  0  0  0  0  0  0
  -25.6480  -33.6220   24.0430 N   0  0  0  0  0  0  0  0  0  0  0  0
  -25.9260  -34.7360   23.3520 C   0  0  0  0  0  0  0  0  0  0  0  0
  -26.5870  -34.7280   22.3100 O   0  0  0  0  0  0  0  0  0  0  0  0
  -25.0620  -33.7020   24.8610 H   0  0  0  0  0  0  0  0  0  0  0  0
  -24.1230  -36.4740   23.1250 C   0  0  0  0  0  1  0  0  0  0  0  0
  -25.3860  -36.0700   23.9030 C   0  0  0  0  0  3  0  0  0  0  0  0
  -27.4920  -36.9830   24.7740 C   0  0  0  0  0  1  0  0  0  0  0  0
  -26.3730  -37.1700   23.8540 N   0  0  0  0  0  0  0  0  0  0  0  0
  -25.9340  -38.0620   24.0660 H   0  0  0  0  0  0  0  0  0  0  0  0
  -26.6100  -31.4460   24.8280 C   0  0  1  0  0  0  0  0  0  0  0  0
  -25.5640  -31.0740   25.9060 C   0  0  0  0  0  1  0  0  0  0  0  0
  -27.2640  -30.1350   24.3350 C   0  0  0  0  0  1  0  0  0  0  0  0
  -27.7340  -32.2620   25.5090 C   0  0  0  0  0  1  0  0  0  0  0  0
  1 50  1  0
  1 47  1  0
  2  4  1  0
  3  5  1  0
  3  2  1  0
  4  6  1  0
  5  7  1  0
  5  1  1  0
  7  4  1  0
  8  7  1  0
  8  9  2  0
 10 16  1  0
 10  9  1  0
 11 16  1  0
 12 13  1  0
 12 11  1  0
 14 13  1  0
 14 21  1  0
 14 15  1  0
 16 15  1  0
 17 10  2  0
 18 19  2  0
 19 38  1  0
 20 19  1  0
 20 23  1  0
 21 22  1  0
 21 18  1  0
 22 20  2  0
 23 24  1  0
 24 25  2  0
 26 29  1  0
 26 25  1  0
 27 26  2  0
 28 27  1  0
 28 23  2  0
 29 30  1  0
 30 35  2  0
 30 31  1  0
 31 32  2  0
 32 33  1  0
 33 37  1  0
 34 33  2  0
 35 34  1  0
 36 35  1  0
 38 39  1  0
 39 42  1  0
 39 41  1  0
 40 38  2  0
 43 44  1  0
 43 18  1  0
 45 43  1  0
 47 48  1  0
 47 46  1  0
 49 47  1  0
 50 51  1  0
 52 53  1  0
 52 51  2  0
 54 65  2  0
 55 53  1  0
 55 60  1  0
 56 64  1  0
 56 66  1  0
 57 63  1  0
 57 59  1  0
 58 64  1  0
 59 58  1  0
 60 59  2  0
 61 62  1  0
 61 55  2  0
 62 57  2  0
 63 56  1  0
 64 54  1  0
 66 68  2  0
 67 66  1  0
 69 67  1  0
 70 79  2  0
 70 75  1  0
 71 67  1  0
 71 75  1  0
 72 71  1  0
 73 74  1  0
 73 72  1  0
 74 70  1  0
 75 76  2  0
 76 77  1  0
 78 77  2  0
 79 78  1  0
 80 54  1  0
 80 81  1  0
 80 90  1  0
 81 84  1  0
 82 86  1  0
 82 81  1  0
 83 82  2  0
 86 85  1  0
 88 86  1  0
 88 89  1  0
 88 87  1  0
 90 93  1  1
 90 91  1  0
 92 90  1  0
M  ISO  4   9 100  10 100  52 101  53 101
M  END
>  <TORSDO>  (94) 
F 23

>  <SCORE>  (94) 
-10.646

>  <name>  (94) 
96

>  <ligand_id>  (94) 
96

>  <original_smiles>  (94) 
[H]c1c([H])c([H])c2c(c1[H])C([H])([H])C([H])([H])C([H])([H])C2([H])N([H])C(=O)C1([H])N(C(=O)C([H])(N([H])C(=O)C([H])(N([H])C([H])([H])[H])C([H])([H])[H])C(C([H])([H])[H])(C([H])([H])[H])C([H])([H])[H])C([H])([H])c2c([H])c(OC([H])([H])C([H])([H])C([H])([H])C([H])(C3([H])N(C([H])([H])C([H])([H])C(=O)N4C([H])([H])C([H])([H])C([H])([H])C([H])(n5nc(-c6c([H])c([H])c(Oc7c([H])c([H])c(F)c([H])c7F)c([H])c6[H])c(C(=O)N([H])[H])c5N([H])[H])C4([H])[H])C([H])(C([H])([H])[H])C([H])([H])C3([H])[H])[N+]([H])([H])C([H])([H])[H])c([H])c([H])c2C1([H])[H]

>  <smiles>  (94) 
[H]c1c([H])c([H])c2c(c1[H])C([H])([H])C([H])([H])C([H])([H])C2([H])N([H])C(=O)C1([H])N(C(=O)C([H])(N([H])C(=O)C([H])(N([H])C([H])([H])[H])C([H])([H])[H])C(C([H])([H])[H])(C([H])([H])[H])C([H])([H])[H])C([H])([H])c2c([H])c(OC([H])([H])C([H])([H])C([H])([H])C([H])(C3([H])N(C([H])([H])C([H])([H])C(=O)N4C([H])([H])C([H])([H])C([H])([H])C([H])(n5nc(-c6c([H])c([H])c(Oc7c([H])c([H])c(F)c([H])c7F)c([H])c6[H])c(C(=O)N([H])[H])c5N([H])[H])C4([H])[H])C([H])(C([H])([H])[H])C([H])([H])C3([H])[H])[N+]([H])([H])C([H])([H])[H])c([H])c([H])c2C1([H])[H]

$$$$
97:0:0
     RDKit          3D

 88 96  0  0  1  0  0  0  0  0999 V2000
  -28.9360  -20.5700   19.4760 C   0  0  0  0  0  0  0  0  0  0  0  0
  -29.0640  -19.4290   20.5420 C   0  0  0  0  0  3  0  0  0  0  0  0
  -28.6170  -21.6760   20.5280 C   0  0  0  0  0  3  0  0  0  0  0  0
  -29.4830  -20.6830   21.3150 N   0  0  0  0  0  4  0  0  0  0  0  0
  -29.2230  -20.6290   17.8330 S   0  0  0  0  0  0  0  0  0  0  0  0
  -30.4620  -20.8760   21.1840 H   0  0  0  0  0  0  0  0  0  0  0  0
  -29.2630  -20.6430   22.2980 H   0  0  0  0  0  0  0  0  0  0  0  0
  -30.0710  -18.0570   20.3640 C   0  0  0  0  0  3  0  0  0  0  0  0
  -29.6050  -16.4380   20.6240 C   0  0  0  0  0  3  0  0  0  0  0  0
  -30.4640  -15.0330   20.3150 C   0  0  0  0  0  0  0  0  0  0  0  0
  -30.3650  -12.6860   19.3320 C   0  0  0  0  0  2  0  0  0  0  0  0
  -29.4070  -12.6770   18.1140 C   0  0  0  0  0  2  0  0  0  0  0  0
  -27.9500  -12.4550   18.5620 C   0  0  0  0  0  2  0  0  0  0  0  0
  -27.5650  -13.3500   19.7680 C   0  0  0  0  0  3  0  0  0  0  0  0
  -28.6380  -13.3300   20.8750 C   0  0  0  0  0  2  0  0  0  0  0  0
  -29.9080  -13.7520   20.2700 N   0  0  0  0  0  0  0  0  0  0  0  0
  -31.6520  -15.1190   19.9780 O   0  0  0  0  0  0  0  0  0  0  0  0
  -25.1960  -13.9160   20.5530 C   0  0  0  0  0  0  0  0  0  0  0  0
  -24.1380  -13.1350   20.9310 C   0  0  0  0  0  0  0  0  0  0  0  0
  -24.6040  -11.7860   20.8770 C   0  0  0  0  0  0  0  0  0  0  0  0
  -26.2350  -13.0420   20.2840 N   0  0  0  0  0  0  0  0  0  0  0  0
  -25.8890  -11.7540   20.5450 N   0  0  0  0  0  0  0  0  0  0  0  0
  -23.8810  -10.5200   21.0640 C   0  0  0  0  0  0  0  0  0  0  0  0
  -24.3280   -9.5420   21.9780 C   0  0  0  0  0  3  0  0  0  0  0  0
  -23.6040   -8.3430   22.1540 C   0  0  0  0  0  3  0  0  0  0  0  0
  -22.4190   -8.1140   21.4150 C   0  0  0  0  0  0  0  0  0  0  0  0
  -21.9910   -9.0820   20.4900 C   0  0  0  0  0  3  0  0  0  0  0  0
  -22.7150  -10.2720   20.3120 C   0  0  0  0  0  3  0  0  0  0  0  0
  -21.6650   -6.9680   21.5020 O   0  0  0  0  0  0  0  0  0  0  0  0
  -21.6320   -6.2130   22.6470 C   0  0  0  0  0  0  0  0  0  0  0  0
  -21.2120   -6.7510   23.8820 C   0  0  0  0  0  3  0  0  0  0  0  0
  -21.1260   -5.9220   25.0190 C   0  0  0  0  0  3  0  0  0  0  0  0
  -21.4510   -4.5560   24.9200 C   0  0  0  0  0  0  0  0  0  0  0  0
  -21.8640   -4.0170   23.6890 C   0  0  0  0  0  3  0  0  0  0  0  0
  -21.9510   -4.8440   22.5550 C   0  0  0  0  0  0  0  0  0  0  0  0
  -22.3290   -4.3140   21.3660 F   0  0  0  0  0  0  0  0  0  0  0  0
  -21.3610   -3.7570   26.0100 F   0  0  0  0  0  0  0  0  0  0  0  0
  -22.7450  -13.6080   21.2290 C   0  0  0  0  0  0  0  0  0  0  0  0
  -22.0300  -12.9020   22.0970 N   0  0  0  0  0  0  0  0  0  0  0  0
  -22.2990  -14.6390   20.7260 O   0  0  0  0  0  0  0  0  0  0  0  0
  -22.4040  -12.0680   22.5260 H   0  0  0  0  0  0  0  0  0  0  0  0
  -21.0960  -13.2000   22.3380 H   0  0  0  0  0  0  0  0  0  0  0  0
  -25.3550  -15.2900   20.3920 N   0  0  0  0  0  0  0  0  0  0  0  0
  -24.5900  -15.9420   20.5270 H   0  0  0  0  0  0  0  0  0  0  0  0
  -26.2010  -15.7330   20.0580 H   0  0  0  0  0  0  0  0  0  0  0  0
  -29.0330  -23.3260   20.3870 C   0  0  0  0  0  3  0  0  0  0  0  0
  -27.9610  -24.6270   20.1540 C   0  0  0  0  0  3  0  0  0  0  0  0
  -28.2320  -26.1710   20.2600 O   0  0  0  0  0  0  0  0  0  0  0  0
  -24.6230  -31.8970   23.2400 C   0  0  0  0  0  0  0  0  0  0  0  0
  -27.1770  -27.1620   20.2020 C   0  0  0  0  0  0  0  0  0  0  0  0
  -23.4120  -30.5020   21.6080 C   0  0  0  0  0  3  0  0  0  0  0  0
  -24.8500  -28.9210   20.1780 C   0  0  0  0  0  0  0  0  0  0  0  0
  -25.9660  -30.7590   21.4290 C   0  0  0  0  0  2  0  0  0  0  0  0
  -26.0350  -29.3650   20.7790 C   0  0  0  0  0  0  0  0  0  0  0  0
  -27.1990  -28.5030   20.7700 C   0  0  0  0  0  3  0  0  0  0  0  0
  -25.9620  -26.8230   19.5640 C   0  0  0  0  0  3  0  0  0  0  0  0
  -24.8270  -27.6650   19.5540 C   0  0  0  0  0  3  0  0  0  0  0  0
  -23.6240  -29.8220   20.2300 C   0  0  0  0  0  2  0  0  0  0  0  0
  -24.6880  -31.0750   22.1470 N   0  0  0  0  0  0  0  0  0  0  0  0
  -23.5390  -32.1840   23.7730 O   0  0  0  0  0  0  0  0  0  0  0  0
  -22.7360  -29.4990   22.5760 C   0  0  0  0  0  0  0  0  0  0  0  0
  -21.4070  -29.3270   22.4540 N   0  0  0  0  0  0  0  0  0  0  0  0
  -23.4090  -28.8750   23.4010 O   0  0  0  0  0  0  0  0  0  0  0  0
  -20.9190  -29.8800   21.7640 H   0  0  0  0  0  0  0  0  0  0  0  0
  -18.0280  -28.1230   22.9660 C   0  0  0  0  0  0  0  0  0  0  0  0
  -20.5870  -28.3930   23.2300 C   0  0  0  0  0  3  0  0  0  0  0  0
  -20.6910  -26.9580   22.6630 C   0  0  0  0  0  2  0  0  0  0  0  0
  -19.5890  -26.6260   21.6510 C   0  0  0  0  0  2  0  0  0  0  0  0
  -18.2080  -26.7700   22.2950 C   0  0  0  0  0  2  0  0  0  0  0  0
  -19.1450  -28.8900   23.3910 C   0  0  0  0  0  0  0  0  0  0  0  0
  -18.9220  -30.1530   23.9800 C   0  0  0  0  0  3  0  0  0  0  0  0
  -17.6150  -30.6500   24.1470 C   0  0  0  0  0  3  0  0  0  0  0  0
  -16.5130  -29.8790   23.7380 C   0  0  0  0  0  3  0  0  0  0  0  0
  -16.7200  -28.6170   23.1530 C   0  0  0  0  0  3  0  0  0  0  0  0
  -25.9040  -32.5320   23.8600 C   0  0  0  0  0  3  0  0  0  0  0  0
  -26.4230  -31.7600   25.1350 C   0  0  1  0  0  0  0  0  0  0  0  0
  -25.3320  -31.5240   26.2070 C   0  0  0  0  0  1  0  0  0  0  0  0
  -27.0040  -30.3810   24.7460 C   0  0  0  0  0  1  0  0  0  0  0  0
  -27.5760  -32.5540   25.7940 C   0  0  0  0  0  1  0  0  0  0  0  0
  -25.5920  -33.9300   24.1990 N   0  0  0  0  0  0  0  0  0  0  0  0
  -25.9030  -34.9890   23.4410 C   0  0  0  0  0  0  0  0  0  0  0  0
  -26.5480  -34.8930   22.3930 O   0  0  0  0  0  0  0  0  0  0  0  0
  -25.0160  -34.0780   25.0150 H   0  0  0  0  0  0  0  0  0  0  0  0
  -24.1530  -36.7760   23.1510 C   0  0  0  0  0  1  0  0  0  0  0  0
  -25.4250  -36.3760   23.9170 C   0  0  0  0  0  3  0  0  0  0  0  0
  -27.5800  -37.2760   24.6790 C   0  0  0  0  0  1  0  0  0  0  0  0
  -26.4470  -37.4350   23.7700 N   0  0  0  0  0  0  0  0  0  0  0  0
  -26.0390  -38.3530   23.9280 H   0  0  0  0  0  0  0  0  0  0  0  0
  1  3  1  0
  1  2  1  0
  2  8  1  0
  2  4  1  0
  3 46  1  0
  3  4  1  0
  4  7  1  0
  5  1  2  0
  6  4  1  0
  8  9  2  0
 10  9  1  0
 11 16  1  0
 12 13  1  0
 12 11  1  0
 14 13  1  0
 14 21  1  0
 14 15  1  0
 16 10  1  0
 16 15  1  0
 17 10  2  0
 18 19  2  0
 19 38  1  0
 20 19  1  0
 20 23  1  0
 21 22  1  0
 21 18  1  0
 22 20  2  0
 23 24  1  0
 24 25  2  0
 26 29  1  0
 26 25  1  0
 27 26  2  0
 28 27  1  0
 28 23  2  0
 29 30  1  0
 30 31  1  0
 31 32  2  0
 33 32  1  0
 33 37  1  0
 34 33  2  0
 35 30  2  0
 35 34  1  0
 36 35  1  0
 38 39  1  0
 39 42  1  0
 39 41  1  0
 40 38  2  0
 43 44  1  0
 43 18  1  0
 45 43  1  0
 47 48  1  0
 47 46  2  0
 49 60  2  0
 50 48  1  0
 50 55  1  0
 51 59  1  0
 51 61  1  0
 52 58  1  0
 52 54  1  0
 53 59  1  0
 54 53  1  0
 55 54  2  0
 56 50  2  0
 57 56  1  0
 57 52  2  0
 58 51  1  0
 59 49  1  0
 61 63  2  0
 62 61  1  0
 64 62  1  0
 65 74  2  0
 65 70  1  0
 66 62  1  0
 66 70  1  0
 67 66  1  0
 68 69  1  0
 68 67  1  0
 69 65  1  0
 70 71  2  0
 71 72  1  0
 73 72  2  0
 74 73  1  0
 75 49  1  0
 75 80  1  0
 75 76  1  0
 76 79  1  1
 76 77  1  0
 78 76  1  0
 80 83  1  0
 81 85  1  0
 81 80  1  0
 82 81  2  0
 85 84  1  0
 87 85  1  0
 87 88  1  0
 87 86  1  0
M  ISO  4   9 100  10 100  47 101  48 101
M  END
>  <TORSDO>  (95) 
F 20

>  <SCORE>  (95) 
-16.015

>  <name>  (95) 
97

>  <ligand_id>  (95) 
97

>  <original_smiles>  (95) 
[H]c1c([H])c([H])c2c(c1[H])C([H])([H])C([H])([H])C([H])([H])C2([H])N([H])C(=O)C1([H])N(C(=O)C([H])(N([H])C(=O)C([H])(N([H])C([H])([H])[H])C([H])([H])[H])C(C([H])([H])[H])(C([H])([H])[H])C([H])([H])[H])C([H])([H])c2c([H])c(OC([H])([H])C([H])([H])C3([H])C(=S)C([H])(C([H])([H])C([H])([H])C(=O)N4C([H])([H])C([H])([H])C([H])([H])C([H])(n5nc(-c6c([H])c([H])c(Oc7c([H])c([H])c(F)c([H])c7F)c([H])c6[H])c(C(=O)N([H])[H])c5N([H])[H])C4([H])[H])[N+]3([H])[H])c([H])c([H])c2C1([H])[H]

>  <smiles>  (95) 
[H]c1c([H])c([H])c2c(c1[H])C([H])([H])C([H])([H])C([H])([H])C2([H])N([H])C(=O)C1([H])N(C(=O)C([H])(N([H])C(=O)C([H])(N([H])C([H])([H])[H])C([H])([H])[H])C(C([H])([H])[H])(C([H])([H])[H])C([H])([H])[H])C([H])([H])c2c([H])c(OC([H])([H])C([H])([H])C3([H])C(=S)C([H])(C([H])([H])C([H])([H])C(=O)N4C([H])([H])C([H])([H])C([H])([H])C([H])(n5nc(-c6c([H])c([H])c(Oc7c([H])c([H])c(F)c([H])c7F)c([H])c6[H])c(C(=O)N([H])[H])c5N([H])[H])C4([H])[H])[N+]3([H])[H])c([H])c([H])c2C1([H])[H]

$$$$
98:0:0
     RDKit          3D

 96103  0  0  1  0  0  0  0  0999 V2000
  -29.6630  -21.1890   20.7950 C   0  0  0  0  0  3  0  0  0  0  0  0
  -29.9570  -22.2250   21.8370 N   0  0  0  0  0  4  0  0  0  0  0  0
  -29.8950  -21.7640   22.7310 H   0  0  0  0  0  0  0  0  0  0  0  0
  -30.9200  -22.5020   21.7390 H   0  0  0  0  0  0  0  0  0  0  0  0
  -29.1290  -23.4570   21.9840 C   0  0  0  0  0  2  0  0  0  0  0  0
  -29.3290  -24.5550   20.9020 C   0  0  0  0  0  2  0  0  0  0  0  0
  -28.6600  -25.8860   21.3300 C   0  0  0  0  0  2  0  0  0  0  0  0
  -28.6790  -26.9010   20.3160 O   0  0  0  0  0  0  0  0  0  0  0  0
  -24.5890  -31.9460   23.2680 C   0  0  0  0  0  0  0  0  0  0  0  0
  -27.5150  -27.6330   20.2690 C   0  0  0  0  0  0  0  0  0  0  0  0
  -23.5070  -30.5290   21.5520 C   0  0  0  0  0  3  0  0  0  0  0  0
  -25.0770  -29.0540   20.1830 C   0  0  0  0  0  0  0  0  0  0  0  0
  -26.0250  -30.9700   21.4820 C   0  0  0  0  0  2  0  0  0  0  0  0
  -26.1870  -29.6070   20.8340 C   0  0  0  0  0  0  0  0  0  0  0  0
  -27.4110  -28.9020   20.8810 C   0  0  0  0  0  3  0  0  0  0  0  0
  -26.3950  -27.0890   19.6130 C   0  0  0  0  0  3  0  0  0  0  0  0
  -25.1730  -27.7900   19.5730 C   0  0  0  0  0  3  0  0  0  0  0  0
  -23.8050  -29.8710   20.1760 C   0  0  0  0  0  2  0  0  0  0  0  0
  -24.7210  -31.1620   22.1610 N   0  0  0  0  0  0  0  0  0  0  0  0
  -23.4760  -32.1780   23.7570 O   0  0  0  0  0  0  0  0  0  0  0  0
  -22.8400  -29.4770   22.4680 C   0  0  0  0  0  0  0  0  0  0  0  0
  -21.5190  -29.2970   22.3100 N   0  0  0  0  0  0  0  0  0  0  0  0
  -23.5100  -28.8260   23.2750 O   0  0  0  0  0  0  0  0  0  0  0  0
  -21.0400  -29.8780   21.6350 H   0  0  0  0  0  0  0  0  0  0  0  0
  -18.1230  -28.1600   22.7870 C   0  0  0  0  0  0  0  0  0  0  0  0
  -20.6900  -28.3340   23.0340 C   0  0  0  0  0  3  0  0  0  0  0  0
  -20.7480  -26.9400   22.3690 C   0  0  0  0  0  2  0  0  0  0  0  0
  -19.6230  -26.7090   21.3540 C   0  0  0  0  0  2  0  0  0  0  0  0
  -18.2540  -26.8500   22.0280 C   0  0  0  0  0  2  0  0  0  0  0  0
  -19.2680  -28.8640   23.2470 C   0  0  0  0  0  0  0  0  0  0  0  0
  -19.0910  -30.0920   23.9190 C   0  0  0  0  0  3  0  0  0  0  0  0
  -17.8030  -30.6180   24.1340 C   0  0  0  0  0  3  0  0  0  0  0  0
  -16.6740  -29.9080   23.6930 C   0  0  0  0  0  3  0  0  0  0  0  0
  -16.8340  -28.6800   23.0250 C   0  0  0  0  0  3  0  0  0  0  0  0
  -25.8260  -32.6050   23.9570 C   0  0  0  0  0  3  0  0  0  0  0  0
  -25.4750  -34.0000   24.2540 N   0  0  0  0  0  0  0  0  0  0  0  0
  -25.8360  -35.0500   23.5030 C   0  0  0  0  0  0  0  0  0  0  0  0
  -26.5680  -34.9460   22.5170 O   0  0  0  0  0  0  0  0  0  0  0  0
  -24.8310  -34.1550   25.0150 H   0  0  0  0  0  0  0  0  0  0  0  0
  -24.1140  -36.8150   23.0160 C   0  0  0  0  0  1  0  0  0  0  0  0
  -25.3010  -36.4340   23.9140 C   0  0  0  0  0  3  0  0  0  0  0  0
  -27.3530  -37.3620   24.8950 C   0  0  0  0  0  1  0  0  0  0  0  0
  -26.3260  -37.5000   23.8650 N   0  0  0  0  0  0  0  0  0  0  0  0
  -25.8950  -38.4140   23.9690 H   0  0  0  0  0  0  0  0  0  0  0  0
  -26.2840  -31.8530   25.2670 C   0  0  1  0  0  0  0  0  0  0  0  0
  -25.1320  -31.5940   26.2650 C   0  0  0  0  0  1  0  0  0  0  0  0
  -26.9250  -30.4900   24.9170 C   0  0  0  0  0  1  0  0  0  0  0  0
  -27.3700  -32.6790   25.9950 C   0  0  0  0  0  1  0  0  0  0  0  0
  -27.4310  -21.7830   19.5720 C   0  0  0  0  0  1  0  0  0  0  0  0
  -28.1320  -20.9230   20.6400 C   0  0  0  0  0  2  0  0  0  0  0  0
  -30.5510  -19.9050   21.1010 C   0  0  0  0  0  3  0  0  0  0  0  0
  -32.8680  -21.1470   21.1430 C   0  0  0  0  0  1  0  0  0  0  0  0
  -31.9760  -20.0730   20.4930 C   0  0  0  0  0  2  0  0  0  0  0  0
  -29.9240  -18.5190   20.6910 C   0  0  0  0  0  2  0  0  0  0  0  0
  -30.7530  -17.1980   20.8660 C   0  0  0  0  0  3  0  0  0  0  0  0
  -31.3980  -17.1510   22.1990 N   0  0  0  0  0  4  0  0  0  0  0  0
  -30.7180  -17.2360   22.9360 H   0  0  0  0  0  0  0  0  0  0  0  0
  -32.0680  -17.8920   22.3050 H   0  0  0  0  0  0  0  0  0  0  0  0
  -31.8950  -16.2860   22.3260 H   0  0  0  0  0  0  0  0  0  0  0  0
  -29.8760  -15.9170   20.6210 C   0  0  0  0  0  2  0  0  0  0  0  0
  -30.5770  -14.6800   19.9920 C   0  0  0  0  0  0  0  0  0  0  0  0
  -30.2680  -12.4700   18.9220 C   0  0  0  0  0  2  0  0  0  0  0  0
  -29.2560  -12.6000   17.7650 C   0  0  0  0  0  2  0  0  0  0  0  0
  -27.8100  -12.4500   18.2770 C   0  0  0  0  0  2  0  0  0  0  0  0
  -27.5200  -13.3370   19.5160 C   0  0  0  0  0  3  0  0  0  0  0  0
  -28.6350  -13.1890   20.5750 C   0  0  0  0  0  2  0  0  0  0  0  0
  -29.9260  -13.4840   19.9330 N   0  0  0  0  0  0  0  0  0  0  0  0
  -31.6730  -14.8460   19.4490 O   0  0  0  0  0  0  0  0  0  0  0  0
  -25.1840  -13.9470   20.4120 C   0  0  0  0  0  0  0  0  0  0  0  0
  -24.1340  -13.1740   20.8310 C   0  0  0  0  0  0  0  0  0  0  0  0
  -24.5750  -11.8200   20.7250 C   0  0  0  0  0  0  0  0  0  0  0  0
  -26.1990  -13.0630   20.0800 N   0  0  0  0  0  0  0  0  0  0  0  0
  -25.8400  -11.7760   20.3260 N   0  0  0  0  0  0  0  0  0  0  0  0
  -23.8500  -10.5590   20.9250 C   0  0  0  0  0  0  0  0  0  0  0  0
  -24.2860   -9.5930   21.8580 C   0  0  0  0  0  3  0  0  0  0  0  0
  -23.5590   -8.3970   22.0450 C   0  0  0  0  0  3  0  0  0  0  0  0
  -22.3820   -8.1600   21.2960 C   0  0  0  0  0  0  0  0  0  0  0  0
  -21.9640   -9.1130   20.3520 C   0  0  0  0  0  3  0  0  0  0  0  0
  -22.6930  -10.3010   20.1640 C   0  0  0  0  0  3  0  0  0  0  0  0
  -21.6260   -7.0150   21.3940 O   0  0  0  0  0  0  0  0  0  0  0  0
  -21.5510   -6.2980   22.5590 C   0  0  0  0  0  0  0  0  0  0  0  0
  -21.0360   -6.8580   23.7490 C   0  0  0  0  0  3  0  0  0  0  0  0
  -20.9140   -6.0630   24.9070 C   0  0  0  0  0  3  0  0  0  0  0  0
  -21.2950   -4.7090   24.8760 C   0  0  0  0  0  0  0  0  0  0  0  0
  -21.8030   -4.1480   23.6910 C   0  0  0  0  0  3  0  0  0  0  0  0
  -21.9270   -4.9390   22.5360 C   0  0  0  0  0  0  0  0  0  0  0  0
  -22.3980   -4.3860   21.3910 F   0  0  0  0  0  0  0  0  0  0  0  0
  -21.1700   -3.9440   25.9850 F   0  0  0  0  0  0  0  0  0  0  0  0
  -22.7640  -13.6560   21.2160 C   0  0  0  0  0  0  0  0  0  0  0  0
  -22.0820  -12.9310   22.0950 N   0  0  0  0  0  0  0  0  0  0  0  0
  -22.3100  -14.7090   20.7710 O   0  0  0  0  0  0  0  0  0  0  0  0
  -22.4620  -12.0770   22.4770 H   0  0  0  0  0  0  0  0  0  0  0  0
  -21.1660  -13.2330   22.3930 H   0  0  0  0  0  0  0  0  0  0  0  0
  -25.3520  -15.3210   20.2660 N   0  0  0  0  0  0  0  0  0  0  0  0
  -24.6030  -15.9790   20.4500 H   0  0  0  0  0  0  0  0  0  0  0  0
  -26.1840  -15.7630   19.8950 H   0  0  0  0  0  0  0  0  0  0  0  0
  1 50  1  0
  1 51  1  0
  1  2  1  0
  2  5  1  0
  2  3  1  0
  4  2  1  0
  6  7  1  0
  6  5  1  0
  8  7  1  0
  9 20  2  0
 10  8  1  0
 10 15  1  0
 11 19  1  0
 11 21  1  0
 12 14  1  0
 13 19  1  0
 14 15  2  0
 14 13  1  0
 16 10  2  0
 17 16  1  0
 17 12  2  0
 18 12  1  0
 18 11  1  0
 19  9  1  0
 21 23  2  0
 22 21  1  0
 24 22  1  0
 25 34  2  0
 25 30  1  0
 26 22  1  0
 26 30  1  0
 27 26  1  0
 28 29  1  0
 28 27  1  0
 29 25  1  0
 30 31  2  0
 31 32  1  0
 33 32  2  0
 34 33  1  0
 35  9  1  0
 35 36  1  0
 35 45  1  0
 36 39  1  0
 37 41  1  0
 37 36  1  0
 38 37  2  0
 41 40  1  0
 43 41  1  0
 43 44  1  0
 43 42  1  0
 45 48  1  1
 45 46  1  0
 47 45  1  0
 49 50  1  0
 51 53  1  0
 53 52  1  0
 54 55  1  0
 54 51  1  0
 55 60  1  0
 55 56  1  0
 56 58  1  0
 56 59  1  0
 56 57  1  0
 61 60  1  0
 62 67  1  0
 63 64  1  0
 63 62  1  0
 65 64  1  0
 65 72  1  0
 65 66  1  0
 67 61  1  0
 67 66  1  0
 68 61  2  0
 69 70  2  0
 70 89  1  0
 71 70  1  0
 71 74  1  0
 72 73  1  0
 72 69  1  0
 73 71  2  0
 74 75  1  0
 75 76  2  0
 77 80  1  0
 77 76  1  0
 78 77  2  0
 79 78  1  0
 79 74  2  0
 80 81  1  0
 81 82  1  0
 82 83  2  0
 84 83  1  0
 84 88  1  0
 85 84  2  0
 86 81  2  0
 86 85  1  0
 87 86  1  0
 89 90  1  0
 90 93  1  0
 90 92  1  0
 91 89  2  0
 94 69  1  0
 94 95  1  0
 96 94  1  0
M  ISO  4   7 101   8 101  60 100  61 100
M  END
>  <TORSDO>  (96) 
F 27

>  <SCORE>  (96) 
-11.606

>  <name>  (96) 
98

>  <ligand_id>  (96) 
98

>  <original_smiles>  (96) 
[H]c1c([H])c([H])c2c(c1[H])C([H])([H])C([H])([H])C([H])([H])C2([H])N([H])C(=O)C1([H])N(C(=O)C([H])(N([H])C(=O)C([H])(N([H])C([H])([H])[H])C([H])([H])[H])C(C([H])([H])[H])(C([H])([H])[H])C([H])([H])[H])C([H])([H])c2c([H])c(OC([H])([H])C([H])([H])C([H])([H])[N+]([H])([H])C([H])(C([H])([H])C([H])([H])[H])C([H])(C([H])([H])C([H])([H])[H])C([H])([H])C([H])(C([H])([H])C(=O)N3C([H])([H])C([H])([H])C([H])([H])C([H])(n4nc(-c5c([H])c([H])c(Oc6c([H])c([H])c(F)c([H])c6F)c([H])c5[H])c(C(=O)N([H])[H])c4N([H])[H])C3([H])[H])[N+]([H])([H])[H])c([H])c([H])c2C1([H])[H]

>  <smiles>  (96) 
[H]c1c([H])c([H])c2c(c1[H])C([H])([H])C([H])([H])C([H])([H])C2([H])N([H])C(=O)C1([H])N(C(=O)C([H])(N([H])C(=O)C([H])(N([H])C([H])([H])[H])C([H])([H])[H])C(C([H])([H])[H])(C([H])([H])[H])C([H])([H])[H])C([H])([H])c2c([H])c(OC([H])([H])C([H])([H])C([H])([H])[N+]([H])([H])C([H])(C([H])([H])C([H])([H])[H])C([H])(C([H])([H])C([H])([H])[H])C([H])([H])C([H])(C([H])([H])C(=O)N3C([H])([H])C([H])([H])C([H])([H])C([H])(n4nc(-c5c([H])c([H])c(Oc6c([H])c([H])c(F)c([H])c6F)c([H])c5[H])c(C(=O)N([H])[H])c4N([H])[H])C3([H])[H])[N+]([H])([H])[H])c([H])c([H])c2C1([H])[H]

$$$$
99:0:0
     RDKit          3D

 93101  0  0  1  0  0  0  0  0999 V2000
  -27.8500  -20.7710   18.8010 C   0  0  0  0  0  1  0  0  0  0  0  0
  -29.2220  -21.1860   19.1810 N   0  0  1  0  0  4  0  0  0  0  0  0
  -29.7870  -20.7700   18.4550 H   0  0  0  0  0  0  0  0  0  0  0  0
  -29.5050  -22.6870   18.9240 C   0  0  0  0  0  2  0  0  0  0  0  0
  -28.6190  -23.9040   19.5220 C   0  0  0  0  0  2  0  0  0  0  0  0
  -28.5910  -25.3010   18.7000 C   0  0  0  0  0  2  0  0  0  0  0  0
  -28.5020  -26.6630   19.3150 O   0  0  0  0  0  0  0  0  0  0  0  0
  -24.7540  -31.6230   22.9670 C   0  0  0  0  0  0  0  0  0  0  0  0
  -27.3440  -27.4620   19.3560 C   0  0  0  0  0  0  0  0  0  0  0  0
  -23.5150  -30.3650   21.2400 C   0  0  0  0  0  3  0  0  0  0  0  0
  -24.9410  -29.0100   19.5980 C   0  0  0  0  0  0  0  0  0  0  0  0
  -26.0340  -30.7760   20.9870 C   0  0  0  0  0  2  0  0  0  0  0  0
  -26.1210  -29.4710   20.1960 C   0  0  0  0  0  0  0  0  0  0  0  0
  -27.3200  -28.7100   20.0620 C   0  0  0  0  0  3  0  0  0  0  0  0
  -26.1380  -27.0540   18.7490 C   0  0  0  0  0  3  0  0  0  0  0  0
  -24.9540  -27.8110   18.8660 C   0  0  0  0  0  3  0  0  0  0  0  0
  -23.6820  -29.8350   19.7890 C   0  0  0  0  0  2  0  0  0  0  0  0
  -24.7880  -30.9340   21.7880 N   0  0  0  0  0  0  0  0  0  0  0  0
  -23.6890  -31.8110   23.5730 O   0  0  0  0  0  0  0  0  0  0  0  0
  -22.9220  -29.2370   22.1190 C   0  0  0  0  0  0  0  0  0  0  0  0
  -21.5950  -29.0470   22.0430 N   0  0  0  0  0  0  0  0  0  0  0  0
  -23.6540  -28.5410   22.8280 O   0  0  0  0  0  0  0  0  0  0  0  0
  -21.0610  -29.6670   21.4500 H   0  0  0  0  0  0  0  0  0  0  0  0
  -18.2670  -27.7360   22.5780 C   0  0  0  0  0  0  0  0  0  0  0  0
  -20.8330  -28.0130   22.7450 C   0  0  0  0  0  3  0  0  0  0  0  0
  -20.9250  -26.6570   22.0080 C   0  0  0  0  0  2  0  0  0  0  0  0
  -19.7740  -26.4280   21.0220 C   0  0  0  0  0  2  0  0  0  0  0  0
  -18.4270  -26.4720   21.7480 C   0  0  0  0  0  2  0  0  0  0  0  0
  -19.3970  -28.4680   23.0310 C   0  0  0  0  0  0  0  0  0  0  0  0
  -19.1910  -29.6560   23.7660 C   0  0  0  0  0  3  0  0  0  0  0  0
  -17.8890  -30.1090   24.0540 C   0  0  0  0  0  3  0  0  0  0  0  0
  -16.7760  -29.3700   23.6180 C   0  0  0  0  0  3  0  0  0  0  0  0
  -16.9660  -28.1850   22.8840 C   0  0  0  0  0  3  0  0  0  0  0  0
  -26.0460  -32.2280   23.6000 C   0  0  0  0  0  3  0  0  0  0  0  0
  -25.7150  -33.5730   24.0930 N   0  0  0  0  0  0  0  0  0  0  0  0
  -25.9950  -34.7120   23.4470 C   0  0  0  0  0  0  0  0  0  0  0  0
  -26.6320  -34.7430   22.3920 O   0  0  0  0  0  0  0  0  0  0  0  0
  -25.1460  -33.6230   24.9260 H   0  0  0  0  0  0  0  0  0  0  0  0
  -24.2150  -36.4880   23.3520 C   0  0  0  0  0  1  0  0  0  0  0  0
  -25.4890  -36.0260   24.0750 C   0  0  0  0  0  3  0  0  0  0  0  0
  -27.6230  -36.8710   24.9490 C   0  0  0  0  0  1  0  0  0  0  0  0
  -26.4920  -37.1120   24.0570 N   0  0  0  0  0  0  0  0  0  0  0  0
  -26.0650  -37.9960   24.3230 H   0  0  0  0  0  0  0  0  0  0  0  0
  -26.6390  -31.3430   24.7650 C   0  0  1  0  0  0  0  0  0  0  0  0
  -25.6090  -30.9690   25.8530 C   0  0  0  0  0  1  0  0  0  0  0  0
  -27.2290  -30.0270   24.2050 C   0  0  0  0  0  1  0  0  0  0  0  0
  -27.8020  -32.0940   25.4570 C   0  0  0  0  0  1  0  0  0  0  0  0
  -29.7730  -20.4600   20.4120 C   0  0  0  0  0  3  0  0  0  0  0  0
  -31.9340  -19.0950   19.6720 C   0  0  0  0  0  2  0  0  0  0  0  0
  -30.0670  -17.5160   19.9730 C   0  0  0  0  0  2  0  0  0  0  0  0
  -30.5480  -19.0210   20.3100 C   0  0  0  0  0  3  0  0  0  0  0  0
  -32.2550  -17.6770   19.1340 C   0  0  0  0  0  3  0  0  0  0  0  0
  -31.4080  -16.6170   19.9700 C   0  0  1  0  0  0  0  0  0  0  0  0
  -31.9900  -17.7460   17.5970 C   0  0  0  0  0  1  0  0  0  0  0  0
  -31.9710  -16.5460   21.4180 C   0  0  0  0  0  1  0  0  0  0  0  0
  -31.6290  -15.1130   19.3610 C   0  0  0  0  0  0  0  0  0  0  0  0
  -31.1120  -12.8000   18.5530 C   0  0  0  0  0  2  0  0  0  0  0  0
  -30.0930  -12.8350   17.4010 C   0  0  0  0  0  2  0  0  0  0  0  0
  -28.6730  -12.7460   17.9760 C   0  0  0  0  0  2  0  0  0  0  0  0
  -28.4410  -13.7340   19.1520 C   0  0  0  0  0  3  0  0  0  0  0  0
  -29.6030  -13.7530   20.1730 C   0  0  0  0  0  2  0  0  0  0  0  0
  -30.8480  -13.9720   19.4340 N   0  0  0  0  0  0  0  0  0  0  0  0
  -32.7150  -14.9580   18.8040 O   0  0  0  0  0  0  0  0  0  0  0  0
  -26.2310  -14.4470   20.2290 C   0  0  0  0  0  0  0  0  0  0  0  0
  -25.1540  -13.7370   20.6790 C   0  0  0  0  0  0  0  0  0  0  0  0
  -25.4810  -12.3570   20.4940 C   0  0  0  0  0  0  0  0  0  0  0  0
  -27.1520  -13.5090   19.7970 N   0  0  0  0  0  0  0  0  0  0  0  0
  -26.7180  -12.2400   20.0220 N   0  0  0  0  0  0  0  0  0  0  0  0
  -24.6690  -11.1500   20.6880 C   0  0  0  0  0  0  0  0  0  0  0  0
  -25.0510  -10.1400   21.6000 C   0  0  0  0  0  3  0  0  0  0  0  0
  -24.2440   -8.9980   21.7860 C   0  0  0  0  0  3  0  0  0  0  0  0
  -23.0370   -8.8560   21.0620 C   0  0  0  0  0  0  0  0  0  0  0  0
  -22.6690   -9.8540   20.1430 C   0  0  0  0  0  3  0  0  0  0  0  0
  -23.4750  -10.9880   19.9540 C   0  0  0  0  0  3  0  0  0  0  0  0
  -22.2010   -7.7700   21.1590 O   0  0  0  0  0  0  0  0  0  0  0  0
  -22.0350   -7.0930   22.3390 C   0  0  0  0  0  0  0  0  0  0  0  0
  -21.5690   -7.7330   23.5080 C   0  0  0  0  0  3  0  0  0  0  0  0
  -21.3430   -6.9840   24.6800 C   0  0  0  0  0  3  0  0  0  0  0  0
  -21.5770   -5.5970   24.6860 C   0  0  0  0  0  0  0  0  0  0  0  0
  -22.0340   -4.9560   23.5210 C   0  0  0  0  0  3  0  0  0  0  0  0
  -22.2610   -5.7030   22.3510 C   0  0  0  0  0  0  0  0  0  0  0  0
  -22.6820   -5.0730   21.2280 F   0  0  0  0  0  0  0  0  0  0  0  0
  -21.3540   -4.8770   25.8100 F   0  0  0  0  0  0  0  0  0  0  0  0
  -23.8480  -14.3070   21.1540 C   0  0  0  0  0  0  0  0  0  0  0  0
  -23.1760  -13.6290   22.0770 N   0  0  0  0  0  0  0  0  0  0  0  0
  -23.4390  -15.3900   20.7420 O   0  0  0  0  0  0  0  0  0  0  0  0
  -23.5140  -12.7490   22.4390 H   0  0  0  0  0  0  0  0  0  0  0  0
  -22.3060  -14.0040   22.4270 H   0  0  0  0  0  0  0  0  0  0  0  0
  -26.4980  -15.8110   20.1230 N   0  0  0  0  0  0  0  0  0  0  0  0
  -25.8200  -16.5160   20.3910 H   0  0  0  0  0  0  0  0  0  0  0  0
  -27.3430  -16.2040   19.7300 H   0  0  0  0  0  0  0  0  0  0  0  0
  -27.7550  -19.5510   21.8440 C   0  0  0  0  0  1  0  0  0  0  0  0
  -28.8750  -20.5920   21.6740 C   0  0  0  0  0  2  0  0  0  0  0  0
  1  2  1  0
  2 48  1  0
  2  3  1  6
  4  2  1  0
  4  5  1  0
  6  7  1  0
  6  5  1  0
  7  9  1  0
  8 19  2  0
  9 14  1  0
 10 18  1  0
 10 20  1  0
 11 17  1  0
 11 13  1  0
 12 18  1  0
 13 12  1  0
 14 13  2  0
 15 16  1  0
 15  9  2  0
 16 11  2  0
 17 10  1  0
 18  8  1  0
 20 22  2  0
 21 20  1  0
 23 21  1  0
 24 33  2  0
 24 29  1  0
 25 21  1  0
 25 29  1  0
 26 25  1  0
 27 28  1  0
 27 26  1  0
 28 24  1  0
 29 30  2  0
 30 31  1  0
 32 31  2  0
 33 32  1  0
 34  8  1  0
 34 35  1  0
 34 44  1  0
 35 38  1  0
 36 40  1  0
 36 35  1  0
 37 36  2  0
 40 39  1  0
 42 40  1  0
 42 43  1  0
 42 41  1  0
 44 47  1  1
 44 45  1  0
 46 44  1  0
 48 93  1  0
 49 51  1  0
 50 51  1  0
 51 48  1  0
 52 54  1  0
 52 49  1  0
 52 53  1  0
 53 50  1  0
 53 55  1  1
 56 62  1  0
 56 53  1  0
 57 62  1  0
 58 59  1  0
 58 57  1  0
 60 59  1  0
 60 67  1  0
 60 61  1  0
 62 61  1  0
 63 56  2  0
 64 65  2  0
 65 84  1  0
 66 65  1  0
 66 69  1  0
 67 68  1  0
 67 64  1  0
 68 66  2  0
 69 70  1  0
 70 71  2  0
 72 75  1  0
 72 71  1  0
 73 72  2  0
 74 73  1  0
 74 69  2  0
 75 76  1  0
 76 81  2  0
 76 77  1  0
 77 78  2  0
 78 79  1  0
 79 83  1  0
 80 79  2  0
 81 80  1  0
 82 81  1  0
 84 85  1  0
 85 88  1  0
 85 87  1  0
 86 84  2  0
 89 64  1  0
 89 90  1  0
 91 89  1  0
 93 92  1  0
M  ISO  4   6 101   7 101  53 100  56 100
M  END
>  <TORSDO>  (97) 
F 22

>  <SCORE>  (97) 
-6.839

>  <name>  (97) 
99

>  <ligand_id>  (97) 
99

>  <original_smiles>  (97) 
[H]c1c([H])c([H])c2c(c1[H])C([H])([H])C([H])([H])C([H])([H])C2([H])N([H])C(=O)C1([H])N(C(=O)C([H])(N([H])C(=O)C([H])(N([H])C([H])([H])[H])C([H])([H])[H])C(C([H])([H])[H])(C([H])([H])[H])C([H])([H])[H])C([H])([H])c2c([H])c(OC([H])([H])C([H])([H])C([H])([H])[N+]([H])(C([H])([H])[H])C([H])(C([H])([H])C([H])([H])[H])C3([H])C([H])([H])C([H])(C([H])([H])[H])C(C(=O)N4C([H])([H])C([H])([H])C([H])([H])C([H])(n5nc(-c6c([H])c([H])c(Oc7c([H])c([H])c(F)c([H])c7F)c([H])c6[H])c(C(=O)N([H])[H])c5N([H])[H])C4([H])[H])(C([H])([H])[H])C3([H])[H])c([H])c([H])c2C1([H])[H]

>  <smiles>  (97) 
[H]c1c([H])c([H])c2c(c1[H])C([H])([H])C([H])([H])C([H])([H])C2([H])N([H])C(=O)C1([H])N(C(=O)C([H])(N([H])C(=O)C([H])(N([H])C([H])([H])[H])C([H])([H])[H])C(C([H])([H])[H])(C([H])([H])[H])C([H])([H])[H])C([H])([H])c2c([H])c(OC([H])([H])C([H])([H])C([H])([H])[N+]([H])(C([H])([H])[H])C([H])(C([H])([H])C([H])([H])[H])C3([H])C([H])([H])C([H])(C([H])([H])[H])C(C(=O)N4C([H])([H])C([H])([H])C([H])([H])C([H])(n5nc(-c6c([H])c([H])c(Oc7c([H])c([H])c(F)c([H])c7F)c([H])c6[H])c(C(=O)N([H])[H])c5N([H])[H])C4([H])[H])(C([H])([H])[H])C3([H])[H])c([H])c([H])c2C1([H])[H]

$$$$
