0:0:0
     RDKit          3D

 91100  0  0  1  0  0  0  0  0999 V2000
  -29.7630  -19.5620   20.1750 C   0  0  0  0  0  3  0  0  0  0  0  0
  -30.2130  -19.5620   18.7210 C   0  0  0  0  0  2  0  0  0  0  0  0
  -31.3630  -18.5980   18.6460 C   0  0  0  0  0  2  0  0  0  0  0  0
  -30.1960  -18.0980   20.9260 C   0  0  0  0  0  3  0  0  0  0  0  0
  -29.9580  -16.5850   19.3380 C   0  0  0  0  0  3  0  0  0  0  0  0
  -29.7730  -16.4210   20.8500 C   0  0  0  0  0  3  0  0  0  0  0  0
  -31.0400  -17.5920   19.7060 C   0  0  0  0  0  3  0  0  0  0  0  0
  -29.2360  -20.7030   20.6480 N   0  0  0  0  0  2  0  0  0  0  0  0
  -30.5860  -15.0910   21.4540 C   0  0  0  0  0  0  0  0  0  0  0  0
  -30.6930  -12.6260   20.9310 C   0  0  0  0  0  2  0  0  0  0  0  0
  -30.0240  -12.3180   19.5710 C   0  0  0  0  0  2  0  0  0  0  0  0
  -28.4930  -12.1860   19.6860 C   0  0  0  0  0  2  0  0  0  0  0  0
  -27.8470  -13.2540   20.6070 C   0  0  0  0  0  3  0  0  0  0  0  0
  -28.6550  -13.4890   21.8970 C   0  0  0  0  0  2  0  0  0  0  0  0
  -30.0330  -13.8190   21.5210 N   0  0  0  0  0  0  0  0  0  0  0  0
  -31.8060  -15.1690   21.6210 O   0  0  0  0  0  0  0  0  0  0  0  0
  -25.3800  -13.8460   20.9630 C   0  0  0  0  0  0  0  0  0  0  0  0
  -24.2660  -13.0710   21.1400 C   0  0  0  0  0  0  0  0  0  0  0  0
  -24.7240  -11.7200   21.1760 C   0  0  0  0  0  0  0  0  0  0  0  0
  -26.4450  -12.9640   20.8890 N   0  0  0  0  0  0  0  0  0  0  0  0
  -26.0480  -11.6820   21.0950 N   0  0  0  0  0  0  0  0  0  0  0  0
  -23.9720  -10.4580   21.2270 C   0  0  0  0  0  0  0  0  0  0  0  0
  -24.2460   -9.4740   22.2020 C   0  0  0  0  0  3  0  0  0  0  0  0
  -23.4960   -8.2790   22.2450 C   0  0  0  0  0  3  0  0  0  0  0  0
  -22.4580   -8.0600   21.3070 C   0  0  0  0  0  0  0  0  0  0  0  0
  -22.2030   -9.0340   20.3250 C   0  0  0  0  0  3  0  0  0  0  0  0
  -22.9540  -10.2200   20.2810 C   0  0  0  0  0  3  0  0  0  0  0  0
  -21.6960   -6.9180   21.2530 O   0  0  0  0  0  0  0  0  0  0  0  0
  -21.4670   -6.1530   22.3680 C   0  0  0  0  0  0  0  0  0  0  0  0
  -20.8850   -6.6930   23.5360 C   0  0  0  0  0  3  0  0  0  0  0  0
  -20.6010   -5.8560   24.6320 C   0  0  0  0  0  3  0  0  0  0  0  0
  -20.8910   -4.4800   24.5620 C   0  0  0  0  0  0  0  0  0  0  0  0
  -21.4650   -3.9400   23.3990 C   0  0  0  0  0  3  0  0  0  0  0  0
  -21.7490   -4.7730   22.3030 C   0  0  0  0  0  0  0  0  0  0  0  0
  -22.2810   -4.2430   21.1750 F   0  0  0  0  0  0  0  0  0  0  0  0
  -20.6120   -3.6740   25.6140 F   0  0  0  0  0  0  0  0  0  0  0  0
  -22.8430  -13.5500   21.1630 C   0  0  0  0  0  0  0  0  0  0  0  0
  -21.9770  -12.8610   21.8980 N   0  0  0  0  0  0  0  0  0  0  0  0
  -22.5030  -14.5700   20.5670 O   0  0  0  0  0  0  0  0  0  0  0  0
  -22.2650  -12.0380   22.4060 H   0  0  0  0  0  0  0  0  0  0  0  0
  -21.0120  -13.1570   21.9510 H   0  0  0  0  0  0  0  0  0  0  0  0
  -25.5680  -15.2180   20.8260 N   0  0  0  0  0  0  0  0  0  0  0  0
  -24.7800  -15.8580   20.8110 H   0  0  0  0  0  0  0  0  0  0  0  0
  -26.4510  -15.6780   20.6530 H   0  0  0  0  0  0  0  0  0  0  0  0
  -31.6710  -15.1000   18.1760 C   0  0  0  0  0  2  0  0  0  0  0  0
  -30.3930  -15.4540   18.4040 C   0  0  0  0  0  0  0  0  0  0  0  0
  -29.2520  -14.7870   17.6570 C   0  0  0  0  0  1  0  0  0  0  0  0
  -28.6850  -21.8910   19.7800 C   0  0  0  0  0  2  0  0  0  0  0  0
  -29.0980  -23.4880   19.9750 C   0  0  0  0  0  3  0  0  0  0  0  0
  -28.1280  -24.7020   19.3810 C   0  0  0  0  0  3  0  0  0  0  0  0
  -28.3570  -26.2230   19.4440 O   0  0  0  0  0  0  0  0  0  0  0  0
  -24.7010  -31.5790   22.8480 C   0  0  0  0  0  0  0  0  0  0  0  0
  -27.2530  -27.1380   19.4610 C   0  0  0  0  0  0  0  0  0  0  0  0
  -23.4510  -30.2150   21.2190 C   0  0  0  0  0  3  0  0  0  0  0  0
  -24.8620  -28.7620   19.6430 C   0  0  0  0  0  0  0  0  0  0  0  0
  -25.9750  -30.5920   20.9110 C   0  0  0  0  0  2  0  0  0  0  0  0
  -26.0570  -29.2350   20.2010 C   0  0  0  0  0  0  0  0  0  0  0  0
  -27.2500  -28.4350   20.1020 C   0  0  0  0  0  3  0  0  0  0  0  0
  -26.0320  -26.7670   18.8530 C   0  0  0  0  0  3  0  0  0  0  0  0
  -24.8560  -27.5380   18.9590 C   0  0  0  0  0  3  0  0  0  0  0  0
  -23.6080  -29.6060   19.8010 C   0  0  0  0  0  2  0  0  0  0  0  0
  -24.7330  -30.8140   21.7160 N   0  0  0  0  0  0  0  0  0  0  0  0
  -23.6400  -31.8020   23.4490 O   0  0  0  0  0  0  0  0  0  0  0  0
  -22.8680  -29.1430   22.1720 C   0  0  0  0  0  0  0  0  0  0  0  0
  -21.5430  -28.9250   22.1110 N   0  0  0  0  0  0  0  0  0  0  0  0
  -23.6070  -28.5070   22.9300 O   0  0  0  0  0  0  0  0  0  0  0  0
  -21.0000  -29.4980   21.4800 H   0  0  0  0  0  0  0  0  0  0  0  0
  -18.2440  -27.5590   22.7180 C   0  0  0  0  0  0  0  0  0  0  0  0
  -20.7990  -27.9280   22.8820 C   0  0  0  0  0  3  0  0  0  0  0  0
  -20.9360  -26.5210   22.2560 C   0  0  0  0  0  2  0  0  0  0  0  0
  -19.8030  -26.1820   21.2790 C   0  0  0  0  0  2  0  0  0  0  0  0
  -18.4480  -26.2420   21.9890 C   0  0  0  0  0  2  0  0  0  0  0  0
  -19.3470  -28.3570   23.1240 C   0  0  0  0  0  0  0  0  0  0  0  0
  -19.1000  -29.5870   23.7700 C   0  0  0  0  0  3  0  0  0  0  0  0
  -17.7840  -30.0220   24.0130 C   0  0  0  0  0  3  0  0  0  0  0  0
  -16.6960  -29.2240   23.6180 C   0  0  0  0  0  3  0  0  0  0  0  0
  -16.9280  -27.9930   22.9770 C   0  0  0  0  0  3  0  0  0  0  0  0
  -25.9940  -32.2300   23.4290 C   0  0  0  0  0  3  0  0  0  0  0  0
  -26.6670  -31.3600   24.5620 C   0  0  1  0  0  0  0  0  0  0  0  0
  -25.6940  -30.9430   25.6900 C   0  0  0  0  0  1  0  0  0  0  0  0
  -27.2820  -30.0690   23.9720 C   0  0  0  0  0  1  0  0  0  0  0  0
  -27.8320  -32.1500   25.2000 C   0  0  0  0  0  1  0  0  0  0  0  0
  -25.6290  -33.5590   23.9460 N   0  0  0  0  0  0  0  0  0  0  0  0
  -25.8830  -34.7160   23.3230 C   0  0  0  0  0  0  0  0  0  0  0  0
  -26.5150  -34.7800   22.2650 O   0  0  0  0  0  0  0  0  0  0  0  0
  -25.0570  -33.5780   24.7770 H   0  0  0  0  0  0  0  0  0  0  0  0
  -24.0690  -36.4610   23.2610 C   0  0  0  0  0  1  0  0  0  0  0  0
  -25.3530  -36.0100   23.9750 C   0  0  0  0  0  3  0  0  0  0  0  0
  -27.4820  -36.8760   24.8430 C   0  0  0  0  0  1  0  0  0  0  0  0
  -26.3360  -37.1160   23.9690 N   0  0  0  0  0  0  0  0  0  0  0  0
  -25.8980  -37.9890   24.2480 H   0  0  0  0  0  0  0  0  0  0  0  0
  1  8  1  0
  1  4  1  0
  2  1  1  0
  3  2  1  0
  3  7  1  0
  5  7  1  0
  5  6  1  0
  6  4  1  0
  6  9  1  0
  7  4  1  0
  9 15  1  0
  9 16  2  0
 10 15  1  0
 11 12  1  0
 11 10  1  0
 12 13  1  0
 13 20  1  0
 13 14  1  0
 15 14  1  0
 17 18  2  0
 18 37  1  0
 18 19  1  0
 19 22  1  0
 20 17  1  0
 20 21  1  0
 21 19  2  0
 22 23  1  0
 23 24  2  0
 25 24  1  0
 26 25  2  0
 27 26  1  0
 27 22  2  0
 28 25  1  0
 28 29  1  0
 29 30  1  0
 30 31  2  0
 32 31  1  0
 32 36  1  0
 33 32  2  0
 34 29  2  0
 34 33  1  0
 35 34  1  0
 37 38  1  0
 38 41  1  0
 38 40  1  0
 39 37  2  0
 42 17  1  0
 43 42  1  0
 44 42  1  0
 45 46  2  0
 46  5  1  0
 47 46  1  0
 48 49  1  0
 48  8  1  0
 50 51  1  0
 50 49  2  0
 51 53  1  0
 52 78  1  0
 52 63  2  0
 53 58  1  0
 54 62  1  0
 54 64  1  0
 55 61  1  0
 55 57  1  0
 56 62  1  0
 57 56  1  0
 58 57  2  0
 59 60  1  0
 59 53  2  0
 60 55  2  0
 61 54  1  0
 62 52  1  0
 64 66  2  0
 65 64  1  0
 65 69  1  0
 67 65  1  0
 68 77  2  0
 68 73  1  0
 69 73  1  0
 70 69  1  0
 71 72  1  0
 71 70  1  0
 72 68  1  0
 73 74  2  0
 74 75  1  0
 76 75  2  0
 77 76  1  0
 78 83  1  0
 78 79  1  0
 79 82  1  1
 79 80  1  0
 81 79  1  0
 83 86  1  0
 84 83  1  0
 84 88  1  0
 85 84  2  0
 87 88  1  0
 90 88  1  0
 90 91  1  0
 90 89  1  0
M  ISO  4   6 100   9 100  50 101  51 101
M  END
>  <TORSDO>  (1) 
F 20

>  <SCORE>  (1) 
-9.357

>  <name>  (1) 
0

>  <ligand_id>  (1) 
0

>  <original_smiles>  (1) 
[H]C([H])=C(C([H])([H])[H])C1([H])C([H])(C(=O)N2C([H])([H])C([H])([H])C([H])([H])C([H])(n3nc(-c4c([H])c([H])c(Oc5c([H])c([H])c(F)c([H])c5F)c([H])c4[H])c(C(=O)N([H])[H])c3N([H])[H])C2([H])[H])C2([H])C(=NC([H])([H])C([H])([H])C([H])([H])Oc3c([H])c([H])c4c(c3[H])C([H])([H])N(C(=O)C([H])(N([H])C(=O)C([H])(N([H])C([H])([H])[H])C([H])([H])[H])C(C([H])([H])[H])(C([H])([H])[H])C([H])([H])[H])C([H])(C(=O)N([H])C3([H])c5c([H])c([H])c([H])c([H])c5C([H])([H])C([H])([H])C3([H])[H])C4([H])[H])C([H])([H])C([H])([H])C21[H]

>  <smiles>  (1) 
[H]C([H])=C(C([H])([H])[H])C1([H])C([H])(C(=O)N2C([H])([H])C([H])([H])C([H])([H])C([H])(n3nc(-c4c([H])c([H])c(Oc5c([H])c([H])c(F)c([H])c5F)c([H])c4[H])c(C(=O)N([H])[H])c3N([H])[H])C2([H])[H])C2([H])C(=NC([H])([H])C([H])([H])C([H])([H])Oc3c([H])c([H])c4c(c3[H])C([H])([H])N(C(=O)C([H])(N([H])C(=O)C([H])(N([H])C([H])([H])[H])C([H])([H])[H])C(C([H])([H])[H])(C([H])([H])[H])C([H])([H])[H])C([H])(C(=O)N([H])C3([H])c5c([H])c([H])c([H])c([H])c5C([H])([H])C([H])([H])C3([H])[H])C4([H])[H])C([H])([H])C([H])([H])C21[H]

$$$$
1:0:0
     RDKit          3D

 91 97  0  0  1  0  0  0  0  0999 V2000
  -27.8460  -19.8780   20.9150 C   0  0  0  0  0  2  0  0  0  0  0  0
  -27.5460  -19.9090   19.4050 C   0  0  0  0  0  2  0  0  0  0  0  0
  -32.4880  -18.9090   16.3160 C   0  0  0  0  0  2  0  0  0  0  0  0
  -33.1830  -18.0290   17.3650 C   0  0  0  0  0  2  0  0  0  0  0  0
  -29.0120  -20.8160   21.2790 C   0  0  0  0  0  2  0  0  0  0  0  0
  -28.8250  -20.0020   18.5530 C   0  0  0  0  0  2  0  0  0  0  0  0
  -31.3160  -19.6710   16.9690 C   0  0  0  0  0  2  0  0  0  0  0  0
  -31.3120  -21.5720   20.3260 C   0  0  0  0  0  2  0  0  0  0  0  0
  -32.1400  -17.7080   18.4440 C   0  0  0  0  0  1  0  0  0  0  0  0
  -30.3340  -20.3920   20.5940 C   0  0  0  0  0  3  0  0  0  0  0  0
  -30.1050  -19.5480   19.3080 C   0  0  0  0  0  3  0  0  0  0  0  0
  -31.6500  -21.6420   18.8270 C   0  0  0  0  0  1  0  0  0  0  0  0
  -31.4300  -19.6430   18.5220 C   0  0  0  0  0  2  0  0  0  0  0  0
  -32.5850  -15.8840   19.0520 C   0  0  0  0  0  2  0  0  0  0  0  0
  -32.3740  -13.1960   18.6220 C   0  0  0  0  0  2  0  0  0  0  0  0
  -31.4110  -12.6660   17.5140 C   0  0  0  0  0  2  0  0  0  0  0  0
  -29.9520  -12.5630   17.9920 C   0  0  0  0  0  2  0  0  0  0  0  0
  -29.5930  -13.7370   18.9290 C   0  0  0  0  0  3  0  0  0  0  0  0
  -30.6960  -14.1260   19.9400 C   0  0  0  0  0  2  0  0  0  0  0  0
  -31.9010  -14.5630   19.1760 N   0  0  0  0  0  0  0  0  0  0  0  0
  -33.7950  -15.5570   19.0320 O   0  0  0  0  0  1  0  0  0  0  0  0
  -27.4190  -14.6540   19.8520 C   0  0  0  0  0  0  0  0  0  0  0  0
  -26.2540  -14.0750   20.2640 C   0  0  0  0  0  0  0  0  0  0  0  0
  -26.4660  -12.6640   20.1900 C   0  0  0  0  0  0  0  0  0  0  0  0
  -28.2710  -13.6170   19.5310 N   0  0  0  0  0  0  0  0  0  0  0  0
  -27.7130  -12.4050   19.8010 N   0  0  0  0  0  0  0  0  0  0  0  0
  -25.5200  -11.5560   20.4040 C   0  0  0  0  0  0  0  0  0  0  0  0
  -25.8300  -10.4660   21.2470 C   0  0  0  0  0  3  0  0  0  0  0  0
  -24.8920   -9.4320   21.4490 C   0  0  0  0  0  3  0  0  0  0  0  0
  -23.6280   -9.4780   20.8130 C   0  0  0  0  0  0  0  0  0  0  0  0
  -23.3340  -10.5530   19.9570 C   0  0  0  0  0  3  0  0  0  0  0  0
  -24.2710  -11.5800   19.7510 C   0  0  0  0  0  3  0  0  0  0  0  0
  -22.6670   -8.5020   20.9290 O   0  0  0  0  0  0  0  0  0  0  0  0
  -22.2690   -8.0270   22.1540 C   0  0  0  0  0  0  0  0  0  0  0  0
  -21.7970   -8.8880   23.1690 C   0  0  0  0  0  3  0  0  0  0  0  0
  -21.3280   -8.3510   24.3850 C   0  0  0  0  0  3  0  0  0  0  0  0
  -21.3250   -6.9600   24.5870 C   0  0  0  0  0  0  0  0  0  0  0  0
  -21.7920   -6.1000   23.5780 C   0  0  0  0  0  3  0  0  0  0  0  0
  -22.2610   -6.6320   22.3640 C   0  0  0  0  0  0  0  0  0  0  0  0
  -22.6850   -5.7990   21.3830 F   0  0  0  0  0  0  0  0  0  0  0  0
  -20.8730   -6.4450   25.7550 F   0  0  0  0  0  0  0  0  0  0  0  0
  -24.9830  -14.7980   20.6020 C   0  0  0  0  0  0  0  0  0  0  0  0
  -24.2200  -14.2890   21.5570 N   0  0  0  0  0  0  0  0  0  0  0  0
  -24.6900  -15.8560   20.0440 O   0  0  0  0  0  0  0  0  0  0  0  0
  -24.4780  -13.4330   22.0280 H   0  0  0  0  0  0  0  0  0  0  0  0
  -23.3650  -14.7570   21.8220 H   0  0  0  0  0  0  0  0  0  0  0  0
  -27.8180  -15.9800   19.6880 N   0  0  0  0  0  0  0  0  0  0  0  0
  -27.2000  -16.7570   19.8890 H   0  0  0  0  0  0  0  0  0  0  0  0
  -28.7150  -16.2680   19.3220 H   0  0  0  0  0  0  0  0  0  0  0  0
  -30.9650  -23.5070   18.3020 C   0  0  0  0  0  1  0  0  0  0  0  0
  -30.6370  -25.2510   18.8370 O   0  0  0  0  0  0  0  0  0  0  0  0
  -25.5520  -29.4610   23.2470 C   0  0  0  0  0  0  0  0  0  0  0  0
  -29.4030  -26.2450   19.0790 C   0  0  0  0  0  0  0  0  0  0  0  0
  -24.8280  -28.4790   21.1110 C   0  0  0  0  0  3  0  0  0  0  0  0
  -26.7040  -27.7360   19.4360 C   0  0  0  0  0  0  0  0  0  0  0  0
  -27.3150  -29.1530   21.3730 C   0  0  0  0  0  2  0  0  0  0  0  0
  -27.7580  -28.0640   20.2970 C   0  0  0  0  0  0  0  0  0  0  0  0
  -29.0760  -27.3570   20.0910 C   0  0  0  0  0  3  0  0  0  0  0  0
  -28.2580  -26.1590   18.2390 C   0  0  0  0  0  3  0  0  0  0  0  0
  -26.9970  -26.8310   18.4000 C   0  0  0  0  0  3  0  0  0  0  0  0
  -25.3030  -28.3520   19.6320 C   0  0  0  0  0  2  0  0  0  0  0  0
  -25.9110  -29.0590   21.9740 N   0  0  0  0  0  0  0  0  0  0  0  0
  -24.3920  -29.3320   23.6800 O   0  0  0  0  0  0  0  0  0  0  0  0
  -24.3100  -27.1080   21.6280 C   0  0  0  0  0  0  0  0  0  0  0  0
  -23.1360  -26.6450   21.1580 N   0  0  0  0  0  0  0  0  0  0  0  0
  -24.9900  -26.4640   22.4310 O   0  0  0  0  0  0  0  0  0  0  0  0
  -22.6180  -27.2260   20.5140 H   0  0  0  0  0  0  0  0  0  0  0  0
  -20.3680  -24.3920   20.4470 C   0  0  0  0  0  0  0  0  0  0  0  0
  -22.5510  -25.3330   21.4740 C   0  0  0  0  0  3  0  0  0  0  0  0
  -23.2730  -24.2030   20.7030 C   0  0  0  0  0  2  0  0  0  0  0  0
  -22.5990  -23.8560   19.3720 C   0  0  0  0  0  2  0  0  0  0  0  0
  -21.1560  -23.4010   19.6050 C   0  0  0  0  0  2  0  0  0  0  0  0
  -21.0240  -25.3100   21.3130 C   0  0  0  0  0  0  0  0  0  0  0  0
  -20.2460  -26.2260   22.0530 C   0  0  0  0  0  3  0  0  0  0  0  0
  -18.8440  -26.2410   21.9370 C   0  0  0  0  0  3  0  0  0  0  0  0
  -18.2000  -25.3240   21.0850 C   0  0  0  0  0  3  0  0  0  0  0  0
  -18.9610  -24.3990   20.3500 C   0  0  0  0  0  3  0  0  0  0  0  0
  -26.5800  -30.1180   24.2210 C   0  0  0  0  0  3  0  0  0  0  0  0
  -26.1690  -31.5160   24.4610 N   0  0  0  0  0  0  0  0  0  0  0  0
  -26.7750  -32.5980   23.9530 C   0  0  0  0  0  0  0  0  0  0  0  0
  -27.7880  -32.5220   23.2540 O   0  0  0  0  0  0  0  0  0  0  0  0
  -25.3230  -31.6490   24.9940 H   0  0  0  0  0  0  0  0  0  0  0  0
  -25.3850  -34.4970   23.0450 C   0  0  0  0  0  1  0  0  0  0  0  0
  -26.1680  -33.9840   24.2660 C   0  0  0  0  0  3  0  0  0  0  0  0
  -27.8010  -34.7090   25.9540 C   0  0  0  0  0  1  0  0  0  0  0  0
  -27.1680  -34.9970   24.6690 N   0  0  0  0  0  0  0  0  0  0  0  0
  -26.7430  -35.9190   24.7240 H   0  0  0  0  0  0  0  0  0  0  0  0
  -26.6980  -29.3560   25.6010 C   0  0  1  0  0  0  0  0  0  0  0  0
  -25.3430  -29.1500   26.3210 C   0  0  0  0  0  1  0  0  0  0  0  0
  -27.3370  -27.9630   25.4180 C   0  0  0  0  0  1  0  0  0  0  0  0
  -27.6350  -30.1380   26.5570 C   0  0  0  0  0  1  0  0  0  0  0  0
  1  5  1  0
  2  1  1  0
  3  7  1  0
  3  4  1  0
  4  9  1  0
  6 11  1  0
  6  2  1  0
  7 13  1  0
 10  8  1  0
 10  5  1  0
 11 13  1  0
 11 10  1  0
 12  8  1  0
 14 20  1  0
 15 20  1  0
 16 17  1  0
 16 15  1  0
 18 17  1  0
 18 25  1  0
 18 19  1  0
 20 19  1  0
 21 14  1  0
 22 23  2  0
 23 42  1  0
 24 23  1  0
 24 27  1  0
 25 26  1  0
 25 22  1  0
 26 24  2  0
 27 28  1  0
 28 29  2  0
 30 33  1  0
 30 29  1  0
 31 30  2  0
 32 31  1  0
 32 27  2  0
 33 34  1  0
 34 39  2  0
 34 35  1  0
 35 36  2  0
 36 37  1  0
 37 41  1  0
 38 37  2  0
 39 38  1  0
 40 39  1  0
 42 43  1  0
 43 46  1  0
 43 45  1  0
 44 42  2  0
 47 22  1  0
 47 48  1  0
 49 47  1  0
 50 51  1  0
 51 53  1  0
 52 63  2  0
 53 58  1  0
 54 64  1  0
 54 62  1  0
 55 61  1  0
 55 57  1  0
 56 62  1  0
 57 56  1  0
 58 57  2  0
 59 60  1  0
 59 53  2  0
 60 55  2  0
 61 54  1  0
 62 52  1  0
 64 66  2  0
 65 64  1  0
 67 65  1  0
 68 73  1  0
 69 65  1  0
 70 69  1  0
 71 72  1  0
 71 70  1  0
 72 68  1  0
 73 69  1  0
 73 74  2  0
 75 74  1  0
 76 75  2  0
 77 68  2  0
 77 76  1  0
 78 52  1  0
 78 79  1  0
 78 88  1  0
 79 82  1  0
 80 84  1  0
 80 79  1  0
 81 80  2  0
 84 83  1  0
 84 86  1  0
 86 87  1  0
 86 85  1  0
 88 89  1  1
 88 91  1  0
 90 88  1  0
M  ISO  4   9 100  14 100  50 101  51 101
M  END
>  <TORSDO>  (2) 
F 17

>  <SCORE>  (2) 
-9.428

>  <name>  (2) 
1

>  <ligand_id>  (2) 
1

>  <original_smiles>  (2) 
[H]c1c([H])c([H])c2c(c1[H])C([H])([H])C([H])([H])C([H])([H])C2([H])N([H])C(=O)C1([H])N(C(=O)C([H])(N([H])C(=O)C([H])(N([H])C([H])([H])[H])C([H])([H])[H])C(C([H])([H])[H])(C([H])([H])[H])C([H])([H])[H])C([H])([H])c2c([H])c(OC([H])([H])C3([H])C([H])([H])C4([H])C([H])([H])C([H])([H])C([H])([H])C([H])([H])C4([H])C34C([H])([H])C([H])([H])C([H])([H])C4([H])C(=O)N3C([H])([H])C([H])([H])C([H])([H])C([H])(n4nc(-c5c([H])c([H])c(Oc6c([H])c([H])c(F)c([H])c6F)c([H])c5[H])c(C(=O)N([H])[H])c4N([H])[H])C3([H])[H])c([H])c([H])c2C1([H])[H]

>  <smiles>  (2) 
[H]c1c([H])c([H])c2c(c1[H])C([H])([H])C([H])([H])C([H])([H])C2([H])N([H])C(=O)C1([H])N(C(=O)C([H])(N([H])C(=O)C([H])(N([H])C([H])([H])[H])C([H])([H])[H])C(C([H])([H])[H])(C([H])([H])[H])C([H])([H])[H])C([H])([H])c2c([H])c(OC([H])([H])C3([H])C([H])([H])C4([H])C([H])([H])C([H])([H])C([H])([H])C([H])([H])C4([H])C34C([H])([H])C([H])([H])C([H])([H])C4([H])C(=O)N3C([H])([H])C([H])([H])C([H])([H])C([H])(n4nc(-c5c([H])c([H])c(Oc6c([H])c([H])c(F)c([H])c6F)c([H])c5[H])c(C(=O)N([H])[H])c4N([H])[H])C3([H])[H])c([H])c([H])c2C1([H])[H]

$$$$
2:0:0
     RDKit          3D

 90 99  0  0  1  0  0  0  0  0999 V2000
  -31.0400  -22.9180   20.0240 C   0  0  0  0  0  2  0  0  0  0  0  0
  -27.1780  -20.2030   18.8390 C   0  0  0  0  0  2  0  0  0  0  0  0
  -30.0150  -23.2330   21.1060 C   0  0  0  0  0  2  0  0  0  0  0  0
  -30.6820  -21.5220   19.5020 C   0  0  0  0  0  2  0  0  0  0  0  0
  -28.3630  -21.1070   18.4540 C   0  0  0  0  0  2  0  0  0  0  0  0
  -27.5580  -19.5160   20.1670 C   0  0  0  0  0  2  0  0  0  0  0  0
  -28.6920  -22.8410   20.4570 C   0  0  0  0  0  3  0  0  0  0  0  0
  -29.1700  -21.2710   19.7470 C   0  0  2  0  0  0  0  0  0  0  0  0
  -29.0020  -19.7490   20.3690 N   0  0  2  0  0  4  0  0  0  0  0  0
  -29.1490  -19.8280   21.3650 H   0  0  0  0  0  0  0  0  0  0  0  0
  -28.1300  -24.3650   19.7310 C   0  0  0  0  0  2  0  0  0  0  0  0
  -28.2300  -25.9330   20.1640 O   0  0  0  0  0  0  0  0  0  0  0  0
  -24.6160  -31.7980   23.0850 C   0  0  0  0  0  0  0  0  0  0  0  0
  -27.2120  -26.9970   20.0490 C   0  0  0  0  0  0  0  0  0  0  0  0
  -23.4380  -30.4060   21.4280 C   0  0  0  0  0  3  0  0  0  0  0  0
  -24.9020  -28.8300   19.9990 C   0  0  0  0  0  0  0  0  0  0  0  0
  -26.0000  -30.6440   21.2980 C   0  0  0  0  0  2  0  0  0  0  0  0
  -26.0790  -29.2450   20.6320 C   0  0  0  0  0  0  0  0  0  0  0  0
  -27.2270  -28.3450   20.6410 C   0  0  0  0  0  3  0  0  0  0  0  0
  -26.0140  -26.7260   19.3510 C   0  0  0  0  0  3  0  0  0  0  0  0
  -24.8920  -27.5900   19.3400 C   0  0  0  0  0  3  0  0  0  0  0  0
  -23.6770  -29.7390   20.0470 C   0  0  0  0  0  2  0  0  0  0  0  0
  -24.7040  -30.9760   21.9910 N   0  0  0  0  0  0  0  0  0  0  0  0
  -23.5230  -32.0780   23.6010 O   0  0  0  0  0  0  0  0  0  0  0  0
  -22.7470  -29.3970   22.3790 C   0  0  0  0  0  0  0  0  0  0  0  0
  -21.4140  -29.2470   22.2630 N   0  0  0  0  0  0  0  0  0  0  0  0
  -23.4150  -28.7500   23.1900 O   0  0  0  0  0  0  0  0  0  0  0  0
  -20.9290  -29.8200   21.5870 H   0  0  0  0  0  0  0  0  0  0  0  0
  -18.0220  -28.0790   22.7950 C   0  0  0  0  0  0  0  0  0  0  0  0
  -20.5890  -28.3030   23.0250 C   0  0  0  0  0  3  0  0  0  0  0  0
  -20.6630  -26.8830   22.4180 C   0  0  0  0  0  2  0  0  0  0  0  0
  -19.5420  -26.5980   21.4140 C   0  0  0  0  0  2  0  0  0  0  0  0
  -18.1720  -26.7450   22.0820 C   0  0  0  0  0  2  0  0  0  0  0  0
  -19.1570  -28.8180   23.2220 C   0  0  0  0  0  0  0  0  0  0  0  0
  -18.9630  -30.0660   23.8530 C   0  0  0  0  0  3  0  0  0  0  0  0
  -17.6670  -30.5760   24.0560 C   0  0  0  0  0  3  0  0  0  0  0  0
  -16.5460  -29.8360   23.6410 C   0  0  0  0  0  3  0  0  0  0  0  0
  -16.7250  -28.5880   23.0170 C   0  0  0  0  0  3  0  0  0  0  0  0
  -25.8810  -32.4420   23.7280 C   0  0  0  0  0  3  0  0  0  0  0  0
  -26.3970  -31.6530   24.9960 C   0  0  1  0  0  0  0  0  0  0  0  0
  -25.3020  -31.3890   26.0550 C   0  0  0  0  0  1  0  0  0  0  0  0
  -26.9930  -30.2860   24.5920 C   0  0  0  0  0  1  0  0  0  0  0  0
  -27.5380  -32.4460   25.6760 C   0  0  0  0  0  1  0  0  0  0  0  0
  -25.5470  -33.8300   24.0960 N   0  0  0  0  0  0  0  0  0  0  0  0
  -25.8600  -34.9110   23.3680 C   0  0  0  0  0  0  0  0  0  0  0  0
  -26.5230  -34.8440   22.3310 O   0  0  0  0  0  0  0  0  0  0  0  0
  -24.9590  -33.9560   24.9060 H   0  0  0  0  0  0  0  0  0  0  0  0
  -24.1000  -36.6880   23.0870 C   0  0  0  0  0  1  0  0  0  0  0  0
  -25.3600  -36.2810   23.8680 C   0  0  0  0  0  3  0  0  0  0  0  0
  -27.4950  -37.1770   24.6910 C   0  0  0  0  0  1  0  0  0  0  0  0
  -26.3760  -37.3530   23.7680 N   0  0  0  0  0  0  0  0  0  0  0  0
  -25.9590  -38.2640   23.9470 H   0  0  0  0  0  0  0  0  0  0  0  0
  -29.8390  -18.3800   19.9400 C   0  0  0  0  0  3  0  0  0  0  0  0
  -29.6020  -16.6920   20.4570 C   0  0  0  0  0  3  0  0  0  0  0  0
  -30.4130  -15.2010   20.0850 C   0  0  0  0  0  0  0  0  0  0  0  0
  -30.3660  -12.7710   19.1890 C   0  0  0  0  0  2  0  0  0  0  0  0
  -29.4070  -12.6450   17.9770 C   0  0  0  0  0  2  0  0  0  0  0  0
  -27.9600  -12.4010   18.4410 C   0  0  0  0  0  2  0  0  0  0  0  0
  -27.5620  -13.3350   19.6100 C   0  0  0  0  0  3  0  0  0  0  0  0
  -28.6410  -13.4140   20.7090 C   0  0  0  0  0  2  0  0  0  0  0  0
  -29.8780  -13.8870   20.0710 N   0  0  0  0  0  0  0  0  0  0  0  0
  -31.5990  -15.2350   19.7280 O   0  0  0  0  0  0  0  0  0  0  0  0
  -25.2130  -13.9060   20.4250 C   0  0  0  0  0  0  0  0  0  0  0  0
  -24.1590  -13.1340   20.8240 C   0  0  0  0  0  0  0  0  0  0  0  0
  -24.6170  -11.7810   20.7730 C   0  0  0  0  0  0  0  0  0  0  0  0
  -26.2430  -13.0260   20.1470 N   0  0  0  0  0  0  0  0  0  0  0  0
  -25.8990  -11.7410   20.4270 N   0  0  0  0  0  0  0  0  0  0  0  0
  -23.8880  -10.5230   20.9800 C   0  0  0  0  0  0  0  0  0  0  0  0
  -24.3380   -9.5490   21.8990 C   0  0  0  0  0  3  0  0  0  0  0  0
  -23.6060   -8.3580   22.0950 C   0  0  0  0  0  3  0  0  0  0  0  0
  -22.4100   -8.1320   21.3730 C   0  0  0  0  0  0  0  0  0  0  0  0
  -21.9800   -9.0940   20.4430 C   0  0  0  0  0  3  0  0  0  0  0  0
  -22.7120  -10.2770   20.2460 C   0  0  0  0  0  3  0  0  0  0  0  0
  -21.6490   -6.9930   21.4770 O   0  0  0  0  0  0  0  0  0  0  0  0
  -21.6240   -6.2460   22.6280 C   0  0  0  0  0  0  0  0  0  0  0  0
  -21.2430   -6.8030   23.8680 C   0  0  0  0  0  3  0  0  0  0  0  0
  -21.1630   -5.9850   25.0120 C   0  0  0  0  0  3  0  0  0  0  0  0
  -21.4570   -4.6100   24.9180 C   0  0  0  0  0  0  0  0  0  0  0  0
  -21.8290   -4.0530   23.6820 C   0  0  0  0  0  3  0  0  0  0  0  0
  -21.9110   -4.8680   22.5400 C   0  0  0  0  0  0  0  0  0  0  0  0
  -22.2510   -4.3220   21.3470 F   0  0  0  0  0  0  0  0  0  0  0  0
  -21.3730   -3.8220   26.0160 F   0  0  0  0  0  0  0  0  0  0  0  0
  -22.7740  -13.6190   21.1340 C   0  0  0  0  0  0  0  0  0  0  0  0
  -22.0660  -12.9270   22.0210 N   0  0  0  0  0  0  0  0  0  0  0  0
  -22.3270  -14.6440   20.6240 O   0  0  0  0  0  0  0  0  0  0  0  0
  -22.4430  -12.0960   22.4530 H   0  0  0  0  0  0  0  0  0  0  0  0
  -21.1370  -13.2320   22.2690 H   0  0  0  0  0  0  0  0  0  0  0  0
  -25.3790  -15.2770   20.2450 N   0  0  0  0  0  0  0  0  0  0  0  0
  -24.6180  -15.9350   20.3700 H   0  0  0  0  0  0  0  0  0  0  0  0
  -26.2110  -15.7010   19.8540 H   0  0  0  0  0  0  0  0  0  0  0  0
  1  3  1  0
  2  6  1  0
  8  4  1  6
  4  1  1  0
  5  2  1  0
  6  9  1  0
  7 11  1  0
  7  3  1  0
  8  5  1  0
  8  9  1  0
  8  7  1  0
  9 10  1  1
 11 12  1  0
 13 24  2  0
 14 12  1  0
 14 19  1  0
 15 23  1  0
 15 25  1  0
 16 22  1  0
 16 18  1  0
 17 23  1  0
 18 19  2  0
 18 17  1  0
 20 14  2  0
 21 20  1  0
 21 16  2  0
 22 15  1  0
 23 13  1  0
 25 27  2  0
 26 25  1  0
 28 26  1  0
 29 38  2  0
 29 34  1  0
 30 26  1  0
 30 34  1  0
 31 30  1  0
 32 33  1  0
 32 31  1  0
 33 29  1  0
 34 35  2  0
 35 36  1  0
 37 36  2  0
 38 37  1  0
 39 13  1  0
 39 44  1  0
 39 40  1  0
 40 43  1  1
 40 41  1  0
 42 40  1  0
 44 47  1  0
 45 49  1  0
 45 44  1  0
 46 45  2  0
 49 48  1  0
 51 49  1  0
 51 52  1  0
 51 50  1  0
 53  9  1  0
 53 54  2  0
 55 54  1  0
 56 61  1  0
 57 58  1  0
 57 56  1  0
 59 58  1  0
 59 66  1  0
 59 60  1  0
 61 55  1  0
 61 60  1  0
 62 55  2  0
 63 64  2  0
 64 83  1  0
 65 64  1  0
 65 68  1  0
 66 63  1  0
 66 67  1  0
 67 65  2  0
 68 69  1  0
 69 70  2  0
 71 74  1  0
 71 70  1  0
 72 71  2  0
 73 72  1  0
 73 68  2  0
 74 75  1  0
 75 76  1  0
 76 77  2  0
 78 77  1  0
 78 82  1  0
 79 78  2  0
 80 75  2  0
 80 79  1  0
 81 80  1  0
 83 84  1  0
 84 87  1  0
 84 86  1  0
 85 83  2  0
 88 89  1  0
 88 63  1  0
 90 88  1  0
M  ISO  4  11 101  12 101  54 100  55 100
M  END
>  <TORSDO>  (3) 
F 19

>  <SCORE>  (3) 
-15.820

>  <name>  (3) 
2

>  <ligand_id>  (3) 
2

>  <original_smiles>  (3) 
[H]c1c([H])c([H])c2c(c1[H])C([H])([H])C([H])([H])C([H])([H])C2([H])N([H])C(=O)C1([H])N(C(=O)C([H])(N([H])C(=O)C([H])(N([H])C([H])([H])[H])C([H])([H])[H])C(C([H])([H])[H])(C([H])([H])[H])C([H])([H])[H])C([H])([H])c2c([H])c(OC([H])([H])C3([H])C([H])([H])C([H])([H])C([H])([H])C34C([H])([H])C([H])([H])C([H])([H])[N+]4([H])C([H])([H])C([H])([H])C(=O)N3C([H])([H])C([H])([H])C([H])([H])C([H])(n4nc(-c5c([H])c([H])c(Oc6c([H])c([H])c(F)c([H])c6F)c([H])c5[H])c(C(=O)N([H])[H])c4N([H])[H])C3([H])[H])c([H])c([H])c2C1([H])[H]

>  <smiles>  (3) 
[H]c1c([H])c([H])c2c(c1[H])C([H])([H])C([H])([H])C([H])([H])C2([H])N([H])C(=O)C1([H])N(C(=O)C([H])(N([H])C(=O)C([H])(N([H])C([H])([H])[H])C([H])([H])[H])C(C([H])([H])[H])(C([H])([H])[H])C([H])([H])[H])C([H])([H])c2c([H])c(OC([H])([H])C3([H])C([H])([H])C([H])([H])C([H])([H])C34C([H])([H])C([H])([H])C([H])([H])[N+]4([H])C([H])([H])C([H])([H])C(=O)N3C([H])([H])C([H])([H])C([H])([H])C([H])(n4nc(-c5c([H])c([H])c(Oc6c([H])c([H])c(F)c([H])c6F)c([H])c5[H])c(C(=O)N([H])[H])c4N([H])[H])C3([H])[H])c([H])c([H])c2C1([H])[H]

$$$$
3:0:0
     RDKit          3D

 93101  0  0  1  0  0  0  0  0999 V2000
  -32.1030  -22.9490   21.2600 C   0  0  0  0  0  1  0  0  0  0  0  0
  -31.3280  -22.9310   19.9260 C   0  0  0  0  0  3  0  0  0  0  0  0
  -29.9450  -23.3970   20.0700 N   0  0  0  0  0  0  0  0  0  0  0  0
  -29.4710  -23.2590   19.1810 H   0  0  0  0  0  0  0  0  0  0  0  0
  -29.8560  -24.8300   20.3500 C   0  0  0  0  0  2  0  0  0  0  0  0
  -28.4450  -25.3620   19.9970 C   0  0  0  0  0  2  0  0  0  0  0  0
  -28.4310  -26.7790   20.1450 O   0  0  0  0  0  0  0  0  0  0  0  0
  -24.5910  -31.8770   23.2190 C   0  0  0  0  0  0  0  0  0  0  0  0
  -27.2220  -27.4430   20.1280 C   0  0  0  0  0  0  0  0  0  0  0  0
  -23.3640  -30.4680   21.5910 C   0  0  0  0  0  3  0  0  0  0  0  0
  -24.8060  -28.9190   20.1580 C   0  0  0  0  0  0  0  0  0  0  0  0
  -25.8840  -30.8300   21.3650 C   0  0  0  0  0  2  0  0  0  0  0  0
  -25.9640  -29.4570   20.7290 C   0  0  0  0  0  0  0  0  0  0  0  0
  -27.1700  -28.7280   20.7070 C   0  0  0  0  0  3  0  0  0  0  0  0
  -26.0460  -26.9130   19.5460 C   0  0  0  0  0  3  0  0  0  0  0  0
  -24.8420  -27.6470   19.5590 C   0  0  0  0  0  3  0  0  0  0  0  0
  -23.5570  -29.7690   20.2170 C   0  0  0  0  0  2  0  0  0  0  0  0
  -24.6310  -31.0740   22.1160 N   0  0  0  0  0  0  0  0  0  0  0  0
  -23.5170  -32.1540   23.7700 O   0  0  0  0  0  0  0  0  0  0  0  0
  -22.7190  -29.4580   22.5660 C   0  0  0  0  0  0  0  0  0  0  0  0
  -21.3930  -29.2820   22.4520 N   0  0  0  0  0  0  0  0  0  0  0  0
  -23.4080  -28.8340   23.3780 O   0  0  0  0  0  0  0  0  0  0  0  0
  -20.9010  -29.8350   21.7650 H   0  0  0  0  0  0  0  0  0  0  0  0
  -18.0190  -28.1000   22.9740 C   0  0  0  0  0  0  0  0  0  0  0  0
  -20.5780  -28.3510   23.2330 C   0  0  0  0  0  3  0  0  0  0  0  0
  -20.6740  -26.9170   22.6650 C   0  0  0  0  0  2  0  0  0  0  0  0
  -19.5660  -26.5910   21.6580 C   0  0  0  0  0  2  0  0  0  0  0  0
  -18.1880  -26.7440   22.3080 C   0  0  0  0  0  2  0  0  0  0  0  0
  -19.1420  -28.8610   23.3950 C   0  0  0  0  0  0  0  0  0  0  0  0
  -18.9290  -30.1300   23.9760 C   0  0  0  0  0  3  0  0  0  0  0  0
  -17.6270  -30.6360   24.1430 C   0  0  0  0  0  3  0  0  0  0  0  0
  -16.5180  -29.8700   23.7430 C   0  0  0  0  0  3  0  0  0  0  0  0
  -16.7160  -28.6040   23.1630 C   0  0  0  0  0  3  0  0  0  0  0  0
  -25.8870  -32.5030   23.8250 C   0  0  0  0  0  3  0  0  0  0  0  0
  -25.5840  -33.8960   24.1760 N   0  0  0  0  0  0  0  0  0  0  0  0
  -25.9040  -34.9580   23.4230 C   0  0  0  0  0  0  0  0  0  0  0  0
  -26.5550  -34.8660   22.3800 O   0  0  0  0  0  0  0  0  0  0  0  0
  -25.0010  -34.0430   24.9870 H   0  0  0  0  0  0  0  0  0  0  0  0
  -24.1620  -36.7460   23.1190 C   0  0  0  0  0  1  0  0  0  0  0  0
  -25.4210  -36.3400   23.9020 C   0  0  0  0  0  3  0  0  0  0  0  0
  -27.5730  -37.2190   24.6930 C   0  0  0  0  0  1  0  0  0  0  0  0
  -26.4480  -37.3970   23.7780 N   0  0  0  0  0  0  0  0  0  0  0  0
  -26.0450  -38.3140   23.9460 H   0  0  0  0  0  0  0  0  0  0  0  0
  -26.4310  -31.7160   25.0790 C   0  0  1  0  0  0  0  0  0  0  0  0
  -25.3630  -31.4630   26.1680 C   0  0  0  0  0  1  0  0  0  0  0  0
  -27.0090  -30.3450   24.6560 C   0  0  0  0  0  1  0  0  0  0  0  0
  -27.5940  -32.5040   25.7280 C   0  0  0  0  0  1  0  0  0  0  0  0
  -31.3190  -21.5240   19.2960 C   0  0  0  0  0  2  0  0  0  0  0  0
  -30.7060  -20.5530   20.2210 N   0  0  0  0  0  4  0  0  0  0  0  0
  -29.7070  -20.6400   20.1110 H   0  0  0  0  0  0  0  0  0  0  0  0
  -30.9160  -20.8490   21.1610 H   0  0  0  0  0  0  0  0  0  0  0  0
  -32.5450  -18.8760   20.5140 C   0  0  0  0  0  1  0  0  0  0  0  0
  -31.1050  -19.1420   20.0230 C   0  0  0  0  0  3  0  0  0  0  0  0
  -28.7840  -17.8650   20.2270 C   0  0  0  0  0  2  0  0  0  0  0  0
  -29.8970  -16.8330   20.2190 C   0  0  0  0  0  3  0  0  0  0  0  0
  -30.1450  -18.2260   20.7590 C   0  0  0  0  0  3  0  0  0  0  0  0
  -29.9240  -15.6420   21.1740 C   0  0  0  0  0  2  0  0  0  0  0  0
  -30.6260  -14.4210   20.5400 C   0  0  0  0  0  0  0  0  0  0  0  0
  -30.3350  -12.2930   19.3390 C   0  0  0  0  0  2  0  0  0  0  0  0
  -29.3810  -12.5370   18.1510 C   0  0  0  0  0  2  0  0  0  0  0  0
  -27.9060  -12.4180   18.5810 C   0  0  0  0  0  2  0  0  0  0  0  0
  -27.5900  -13.2200   19.8720 C   0  0  0  0  0  3  0  0  0  0  0  0
  -28.6450  -12.9280   20.9590 C   0  0  0  0  0  2  0  0  0  0  0  0
  -29.9680  -13.2420   20.4010 N   0  0  0  0  0  0  0  0  0  0  0  0
  -31.7450  -14.6090   20.0550 O   0  0  0  0  0  0  0  0  0  0  0  0
  -25.1900  -13.8390   20.5700 C   0  0  0  0  0  0  0  0  0  0  0  0
  -24.1180  -13.0690   20.9390 C   0  0  0  0  0  0  0  0  0  0  0  0
  -24.5740  -11.7170   20.9130 C   0  0  0  0  0  0  0  0  0  0  0  0
  -26.2330  -12.9530   20.3470 N   0  0  0  0  0  0  0  0  0  0  0  0
  -25.8640  -11.6730   20.6060 N   0  0  0  0  0  0  0  0  0  0  0  0
  -23.8450  -10.4580   21.1110 C   0  0  0  0  0  0  0  0  0  0  0  0
  -24.2980   -9.4740   22.0180 C   0  0  0  0  0  3  0  0  0  0  0  0
  -23.5710   -8.2770   22.2010 C   0  0  0  0  0  3  0  0  0  0  0  0
  -22.3750   -8.0570   21.4750 C   0  0  0  0  0  0  0  0  0  0  0  0
  -21.9420   -9.0270   20.5530 C   0  0  0  0  0  3  0  0  0  0  0  0
  -22.6700  -10.2150   20.3690 C   0  0  0  0  0  3  0  0  0  0  0  0
  -21.6150   -6.9160   21.5700 O   0  0  0  0  0  0  0  0  0  0  0  0
  -21.6190   -6.1400   22.7020 C   0  0  0  0  0  0  0  0  0  0  0  0
  -21.2860   -6.6690   23.9690 C   0  0  0  0  0  3  0  0  0  0  0  0
  -21.2360   -5.8230   25.0930 C   0  0  0  0  0  3  0  0  0  0  0  0
  -21.5070   -4.4480   24.9530 C   0  0  0  0  0  0  0  0  0  0  0  0
  -21.8320   -3.9180   23.6920 C   0  0  0  0  0  3  0  0  0  0  0  0
  -21.8850   -4.7620   22.5680 C   0  0  0  0  0  0  0  0  0  0  0  0
  -22.1810   -4.2430   21.3520 F   0  0  0  0  0  0  0  0  0  0  0  0
  -21.4470   -3.6320   26.0310 F   0  0  0  0  0  0  0  0  0  0  0  0
  -22.7220  -13.5500   21.2110 C   0  0  0  0  0  0  0  0  0  0  0  0
  -21.9930  -12.8580   22.0810 N   0  0  0  0  0  0  0  0  0  0  0  0
  -22.2850  -14.5720   20.6860 O   0  0  0  0  0  0  0  0  0  0  0  0
  -22.3670  -12.0320   22.5250 H   0  0  0  0  0  0  0  0  0  0  0  0
  -21.0540  -13.1550   22.3010 H   0  0  0  0  0  0  0  0  0  0  0  0
  -25.3610  -15.2060   20.3910 N   0  0  0  0  0  0  0  0  0  0  0  0
  -24.5920  -15.8630   20.4720 H   0  0  0  0  0  0  0  0  0  0  0  0
  -26.2210  -15.6410   20.0810 H   0  0  0  0  0  0  0  0  0  0  0  0
  2  3  1  0
  2  1  1  0
  3  5  1  0
  4  3  1  0
  6  7  1  0
  6  5  1  0
  8 19  2  0
  9  7  1  0
  9 14  1  0
 10 18  1  0
 10 20  1  0
 11 17  1  0
 11 13  1  0
 12 18  1  0
 13 12  1  0
 14 13  2  0
 15 16  1  0
 15  9  2  0
 16 11  2  0
 17 10  1  0
 18  8  1  0
 20 22  2  0
 21 20  1  0
 23 21  1  0
 24 33  2  0
 24 29  1  0
 25 21  1  0
 25 29  1  0
 26 25  1  0
 27 28  1  0
 27 26  1  0
 28 24  1  0
 29 30  2  0
 30 31  1  0
 32 31  2  0
 33 32  1  0
 34  8  1  0
 34 35  1  0
 34 44  1  0
 35 38  1  0
 36 40  1  0
 36 35  1  0
 37 36  2  0
 40 39  1  0
 42 40  1  0
 42 43  1  0
 42 41  1  0
 44 47  1  1
 44 45  1  0
 46 44  1  0
 48  2  1  0
 48 49  1  0
 49 51  1  0
 50 49  1  0
 53 49  1  0
 53 52  1  0
 54 56  1  0
 55 54  1  0
 55 56  1  0
 55 57  1  0
 56 53  1  0
 58 57  1  0
 59 64  1  0
 60 61  1  0
 60 59  1  0
 62 61  1  0
 62 69  1  0
 62 63  1  0
 64 58  1  0
 64 63  1  0
 65 58  2  0
 66 67  2  0
 67 86  1  0
 68 67  1  0
 68 71  1  0
 69 66  1  0
 69 70  1  0
 70 68  2  0
 71 72  1  0
 72 73  2  0
 74 77  1  0
 74 73  1  0
 75 74  2  0
 76 75  1  0
 76 71  2  0
 77 78  1  0
 78 79  1  0
 79 80  2  0
 81 80  1  0
 81 85  1  0
 82 81  2  0
 83 78  2  0
 83 82  1  0
 84 83  1  0
 86 87  1  0
 87 90  1  0
 87 89  1  0
 88 86  2  0
 91 92  1  0
 91 66  1  0
 93 91  1  0
M  ISO  4   6 101   7 101  57 100  58 100
M  END
>  <TORSDO>  (4) 
F 24

>  <SCORE>  (4) 
-12.035

>  <name>  (4) 
3

>  <ligand_id>  (4) 
3

>  <original_smiles>  (4) 
[H]c1c([H])c([H])c2c(c1[H])C([H])([H])C([H])([H])C([H])([H])C2([H])N([H])C(=O)C1([H])N(C(=O)C([H])(N([H])C(=O)C([H])(N([H])C([H])([H])[H])C([H])([H])[H])C(C([H])([H])[H])(C([H])([H])[H])C([H])([H])[H])C([H])([H])c2c([H])c(OC([H])([H])C([H])([H])N([H])C([H])(C([H])([H])[H])C([H])([H])[N+]([H])([H])C([H])(C([H])([H])[H])C3([H])C([H])([H])C3([H])C([H])([H])C(=O)N3C([H])([H])C([H])([H])C([H])([H])C([H])(n4nc(-c5c([H])c([H])c(Oc6c([H])c([H])c(F)c([H])c6F)c([H])c5[H])c(C(=O)N([H])[H])c4N([H])[H])C3([H])[H])c([H])c([H])c2C1([H])[H]

>  <smiles>  (4) 
[H]c1c([H])c([H])c2c(c1[H])C([H])([H])C([H])([H])C([H])([H])C2([H])N([H])C(=O)C1([H])N(C(=O)C([H])(N([H])C(=O)C([H])(N([H])C([H])([H])[H])C([H])([H])[H])C(C([H])([H])[H])(C([H])([H])[H])C([H])([H])[H])C([H])([H])c2c([H])c(OC([H])([H])C([H])([H])N([H])C([H])(C([H])([H])[H])C([H])([H])[N+]([H])([H])C([H])(C([H])([H])[H])C3([H])C([H])([H])C3([H])C([H])([H])C(=O)N3C([H])([H])C([H])([H])C([H])([H])C([H])(n4nc(-c5c([H])c([H])c(Oc6c([H])c([H])c(F)c([H])c6F)c([H])c5[H])c(C(=O)N([H])[H])c4N([H])[H])C3([H])[H])c([H])c([H])c2C1([H])[H]

$$$$
4:0:0
     RDKit          3D

 94102  0  0  1  0  0  0  0  0999 V2000
  -28.2810  -21.9870   18.3580 C   0  0  0  0  0  0  0  0  0  0  0  0
  -29.0370  -23.2590   17.8960 C   0  0  0  0  0  2  0  0  0  0  0  0
  -29.1700  -21.8490   19.6080 C   0  0  0  0  0  3  0  0  0  0  0  0
  -29.4690  -23.4850   19.3680 C   0  0  0  0  0  3  0  0  0  0  0  0
  -27.3630  -21.3120   17.8830 O   0  0  0  0  0  0  0  0  0  0  0  0
  -30.1510  -20.6580   19.2920 N   0  0  0  0  0  4  0  0  0  0  0  0
  -30.8380  -20.6540   20.0250 H   0  0  0  0  0  0  0  0  0  0  0  0
  -30.6350  -20.9120   18.4460 H   0  0  0  0  0  0  0  0  0  0  0  0
  -29.6790  -19.1580   19.1320 C   0  0  0  0  0  3  0  0  0  0  0  0
  -31.7400  -18.2690   20.4510 C   0  0  0  0  0  1  0  0  0  0  0  0
  -31.5560  -17.8080   18.0030 C   0  0  0  0  0  1  0  0  0  0  0  0
  -30.7570  -17.8830   19.3240 C   0  0  2  0  0  0  0  0  0  0  0  0
  -30.2000  -16.3310   19.6550 C   0  0  0  0  0  2  0  0  0  0  0  0
  -31.0760  -14.9320   19.6570 C   0  0  0  0  0  0  0  0  0  0  0  0
  -30.9860  -12.4640   19.1490 C   0  0  0  0  0  2  0  0  0  0  0  0
  -30.0520  -12.2510   17.9340 C   0  0  0  0  0  2  0  0  0  0  0  0
  -28.5820  -12.1230   18.3770 C   0  0  0  0  0  2  0  0  0  0  0  0
  -28.1800  -13.2180   19.3950 C   0  0  0  0  0  3  0  0  0  0  0  0
  -29.2310  -13.4000   20.5090 C   0  0  0  0  0  2  0  0  0  0  0  0
  -30.5190  -13.6780   19.8660 N   0  0  0  0  0  0  0  0  0  0  0  0
  -32.2640  -14.9640   19.3210 O   0  0  0  0  0  0  0  0  0  0  0  0
  -25.8630  -13.9520   20.1910 C   0  0  0  0  0  0  0  0  0  0  0  0
  -24.7620  -13.2490   20.5930 C   0  0  0  0  0  0  0  0  0  0  0  0
  -25.1420  -11.8700   20.5630 C   0  0  0  0  0  0  0  0  0  0  0  0
  -26.8410  -13.0060   19.9300 N   0  0  0  0  0  0  0  0  0  0  0  0
  -26.4180  -11.7510   20.2220 N   0  0  0  0  0  0  0  0  0  0  0  0
  -24.3440  -10.6570   20.7920 C   0  0  0  0  0  0  0  0  0  0  0  0
  -24.6950   -9.7280   21.7960 C   0  0  0  0  0  3  0  0  0  0  0  0
  -23.9100   -8.5730   22.0110 C   0  0  0  0  0  3  0  0  0  0  0  0
  -22.7600   -8.3430   21.2170 C   0  0  0  0  0  0  0  0  0  0  0  0
  -22.4280   -9.2580   20.2040 C   0  0  0  0  0  3  0  0  0  0  0  0
  -23.2130  -10.4050   19.9910 C   0  0  0  0  0  3  0  0  0  0  0  0
  -21.9550   -7.2360   21.3330 O   0  0  0  0  0  0  0  0  0  0  0  0
  -21.7310   -6.6270   22.5400 C   0  0  0  0  0  0  0  0  0  0  0  0
  -21.1820   -7.3290   23.6360 C   0  0  0  0  0  3  0  0  0  0  0  0
  -20.9050   -6.6490   24.8390 C   0  0  0  0  0  3  0  0  0  0  0  0
  -21.1700   -5.2710   24.9460 C   0  0  0  0  0  0  0  0  0  0  0  0
  -21.7120   -4.5690   23.8550 C   0  0  0  0  0  3  0  0  0  0  0  0
  -21.9890   -5.2460   22.6540 C   0  0  0  0  0  0  0  0  0  0  0  0
  -22.4910   -4.5630   21.5970 F   0  0  0  0  0  0  0  0  0  0  0  0
  -20.8970   -4.6160   26.0980 F   0  0  0  0  0  0  0  0  0  0  0  0
  -23.4050  -13.8080   20.9030 C   0  0  0  0  0  0  0  0  0  0  0  0
  -22.6810  -13.1600   21.8100 N   0  0  0  0  0  0  0  0  0  0  0  0
  -23.0040  -14.8450   20.3790 O   0  0  0  0  0  0  0  0  0  0  0  0
  -23.0330  -12.3190   22.2380 H   0  0  0  0  0  0  0  0  0  0  0  0
  -21.7690  -13.5030   22.0750 H   0  0  0  0  0  0  0  0  0  0  0  0
  -26.1150  -15.3060   19.9980 N   0  0  0  0  0  0  0  0  0  0  0  0
  -25.4090  -16.0220   20.1260 H   0  0  0  0  0  0  0  0  0  0  0  0
  -26.9900  -15.6680   19.6400 H   0  0  0  0  0  0  0  0  0  0  0  0
  -28.4360  -18.9500   20.0390 C   0  0  0  0  0  2  0  0  0  0  0  0
  -25.9630  -19.6390   20.1540 C   0  0  0  0  0  1  0  0  0  0  0  0
  -27.0910  -19.0520   19.2860 C   0  0  0  0  0  2  0  0  0  0  0  0
  -28.6880  -24.7460   20.1260 C   0  0  0  0  0  2  0  0  0  0  0  0
  -28.7950  -26.2480   19.8000 O   0  0  0  0  0  0  0  0  0  0  0  0
  -24.6410  -31.3400   23.0970 C   0  0  0  0  0  0  0  0  0  0  0  0
  -27.6360  -27.0890   19.8230 C   0  0  0  0  0  0  0  0  0  0  0  0
  -23.5650  -29.9180   21.3940 C   0  0  0  0  0  3  0  0  0  0  0  0
  -25.1450  -28.5620   19.8910 C   0  0  0  0  0  0  0  0  0  0  0  0
  -26.0780  -30.4380   21.2390 C   0  0  0  0  0  2  0  0  0  0  0  0
  -26.2770  -29.0980   20.5190 C   0  0  0  0  0  0  0  0  0  0  0  0
  -27.5230  -28.3770   20.4700 C   0  0  0  0  0  3  0  0  0  0  0  0
  -26.4770  -26.6500   19.1480 C   0  0  0  0  0  3  0  0  0  0  0  0
  -25.2520  -27.3490   19.1940 C   0  0  0  0  0  3  0  0  0  0  0  0
  -23.8360  -29.3260   19.9850 C   0  0  0  0  0  2  0  0  0  0  0  0
  -24.7780  -30.5850   21.9660 N   0  0  0  0  0  0  0  0  0  0  0  0
  -23.5360  -31.4960   23.6410 O   0  0  0  0  0  0  0  0  0  0  0  0
  -22.9910  -28.8040   22.3040 C   0  0  0  0  0  0  0  0  0  0  0  0
  -21.6990  -28.4770   22.1280 N   0  0  0  0  0  0  0  0  0  0  0  0
  -23.7110  -28.2380   23.1310 O   0  0  0  0  0  0  0  0  0  0  0  0
  -21.1690  -28.9960   21.4430 H   0  0  0  0  0  0  0  0  0  0  0  0
  -18.4890  -26.8270   22.4380 C   0  0  0  0  0  0  0  0  0  0  0  0
  -20.9720  -27.4240   22.8430 C   0  0  0  0  0  3  0  0  0  0  0  0
  -21.2920  -26.0300   22.2560 C   0  0  0  0  0  2  0  0  0  0  0  0
  -20.2970  -25.5820   21.1800 C   0  0  0  0  0  2  0  0  0  0  0  0
  -18.8790  -25.5260   21.7540 C   0  0  0  0  0  2  0  0  0  0  0  0
  -19.4720  -27.7250   22.9320 C   0  0  0  0  0  0  0  0  0  0  0  0
  -19.0540  -28.9350   23.5270 C   0  0  0  0  0  3  0  0  0  0  0  0
  -17.6890  -29.2540   23.6300 C   0  0  0  0  0  3  0  0  0  0  0  0
  -16.7190  -28.3520   23.1550 C   0  0  0  0  0  3  0  0  0  0  0  0
  -17.1190  -27.1400   22.5660 C   0  0  0  0  0  3  0  0  0  0  0  0
  -25.8590  -32.0560   23.7540 C   0  0  0  0  0  3  0  0  0  0  0  0
  -25.4390  -33.4210   24.1100 N   0  0  0  0  0  0  0  0  0  0  0  0
  -25.6820  -34.5120   23.3720 C   0  0  0  0  0  0  0  0  0  0  0  0
  -26.3510  -34.4810   22.3360 O   0  0  0  0  0  0  0  0  0  0  0  0
  -24.8320  -33.5130   24.9120 H   0  0  0  0  0  0  0  0  0  0  0  0
  -23.7960  -36.1510   23.0860 C   0  0  0  0  0  1  0  0  0  0  0  0
  -25.0900  -35.8510   23.8590 C   0  0  0  0  0  3  0  0  0  0  0  0
  -27.1630  -36.9050   24.6450 C   0  0  0  0  0  1  0  0  0  0  0  0
  -26.0260  -36.9900   23.7320 N   0  0  0  0  0  0  0  0  0  0  0  0
  -25.5470  -37.8710   23.9020 H   0  0  0  0  0  0  0  0  0  0  0  0
  -26.4120  -31.3020   25.0270 C   0  0  1  0  0  0  0  0  0  0  0  0
  -25.3250  -30.9650   26.0740 C   0  0  0  0  0  1  0  0  0  0  0  0
  -27.1010  -29.9790   24.6250 C   0  0  0  0  0  1  0  0  0  0  0  0
  -27.4950  -32.1630   25.7160 C   0  0  0  0  0  1  0  0  0  0  0  0
  1  3  1  0
  2  1  1  0
  2  4  1  0
  3  6  1  0
  4  3  1  0
  4 53  1  0
  5  1  2  0
  6  7  1  0
  8  6  1  0
  9  6  1  0
  9 12  1  0
  9 50  1  0
 12 11  1  6
 12 13  1  0
 12 10  1  0
 13 14  1  0
 14 20  1  0
 15 20  1  0
 16 17  1  0
 16 15  1  0
 18 17  1  0
 18 25  1  0
 18 19  1  0
 20 19  1  0
 21 14  2  0
 22 23  2  0
 23 42  1  0
 24 23  1  0
 24 27  1  0
 25 22  1  0
 25 26  1  0
 26 24  2  0
 27 28  1  0
 28 29  2  0
 30 33  1  0
 30 29  1  0
 31 30  2  0
 32 31  1  0
 32 27  2  0
 33 34  1  0
 34 39  2  0
 34 35  1  0
 35 36  2  0
 36 37  1  0
 37 41  1  0
 38 37  2  0
 39 38  1  0
 40 39  1  0
 42 43  1  0
 43 46  1  0
 43 45  1  0
 44 42  2  0
 47 48  1  0
 47 22  1  0
 49 47  1  0
 52 50  1  0
 52 51  1  0
 54 56  1  0
 54 53  1  0
 55 66  2  0
 56 61  1  0
 57 65  1  0
 57 67  1  0
 58 64  1  0
 58 60  1  0
 59 65  1  0
 60 59  1  0
 61 60  2  0
 62 63  1  0
 62 56  2  0
 63 58  2  0
 64 57  1  0
 65 55  1  0
 67 69  2  0
 68 67  1  0
 70 68  1  0
 71 80  2  0
 71 76  1  0
 72 68  1  0
 72 76  1  0
 73 72  1  0
 74 75  1  0
 74 73  1  0
 75 71  1  0
 76 77  2  0
 77 78  1  0
 79 78  2  0
 80 79  1  0
 81 55  1  0
 81 82  1  0
 81 91  1  0
 82 85  1  0
 83 87  1  0
 83 82  1  0
 84 83  2  0
 87 86  1  0
 89 87  1  0
 89 90  1  0
 89 88  1  0
 91 94  1  1
 91 92  1  0
 93 91  1  0
M  ISO  4  13 100  14 100  53 101  54 101
M  END
>  <TORSDO>  (5) 
F 23

>  <SCORE>  (5) 
-9.488

>  <name>  (5) 
4

>  <ligand_id>  (5) 
4

>  <original_smiles>  (5) 
[H]c1c([H])c([H])c2c(c1[H])C([H])([H])C([H])([H])C([H])([H])C2([H])N([H])C(=O)C1([H])N(C(=O)C([H])(N([H])C(=O)C([H])(N([H])C([H])([H])[H])C([H])([H])[H])C(C([H])([H])[H])(C([H])([H])[H])C([H])([H])[H])C([H])([H])c2c([H])c(OC([H])([H])C3([H])C([H])([H])C(=O)C3([H])[N+]([H])([H])C([H])(C([H])([H])C([H])([H])C([H])([H])[H])C(C([H])([H])[H])(C([H])([H])[H])C([H])([H])C(=O)N3C([H])([H])C([H])([H])C([H])([H])C([H])(n4nc(-c5c([H])c([H])c(Oc6c([H])c([H])c(F)c([H])c6F)c([H])c5[H])c(C(=O)N([H])[H])c4N([H])[H])C3([H])[H])c([H])c([H])c2C1([H])[H]

>  <smiles>  (5) 
[H]c1c([H])c([H])c2c(c1[H])C([H])([H])C([H])([H])C([H])([H])C2([H])N([H])C(=O)C1([H])N(C(=O)C([H])(N([H])C(=O)C([H])(N([H])C([H])([H])[H])C([H])([H])[H])C(C([H])([H])[H])(C([H])([H])[H])C([H])([H])[H])C([H])([H])c2c([H])c(OC([H])([H])C3([H])C([H])([H])C(=O)C3([H])[N+]([H])([H])C([H])(C([H])([H])C([H])([H])C([H])([H])[H])C(C([H])([H])[H])(C([H])([H])[H])C([H])([H])C(=O)N3C([H])([H])C([H])([H])C([H])([H])C([H])(n4nc(-c5c([H])c([H])c(Oc6c([H])c([H])c(F)c([H])c6F)c([H])c5[H])c(C(=O)N([H])[H])c4N([H])[H])C3([H])[H])c([H])c([H])c2C1([H])[H]

$$$$
5:0:0
     RDKit          3D

 95103  0  0  1  0  0  0  0  0999 V2000
  -29.6640  -20.9620   19.6400 C   0  0  0  0  0  0  0  0  0  0  0  0
  -28.8410  -20.7340   20.6820 N   0  0  0  0  0  4  0  0  0  0  0  0
  -29.9120  -22.2430   19.2550 N   0  0  0  0  0  0  0  0  0  0  0  0
  -28.5540  -19.7840   20.9020 H   0  0  0  0  0  0  0  0  0  0  0  0
  -28.4280  -21.4690   21.2330 H   0  0  0  0  0  0  0  0  0  0  0  0
  -30.3150  -22.3900   18.3350 H   0  0  0  0  0  0  0  0  0  0  0  0
  -30.9660  -18.6810   19.7580 C   0  0  0  0  0  0  0  0  0  0  0  0
  -31.4420  -20.2450   17.9890 C   0  0  0  0  0  2  0  0  0  0  0  0
  -32.6840  -20.1240   18.8740 C   0  0  0  0  0  2  0  0  0  0  0  0
  -30.2880  -19.7720   18.8990 C   0  0  0  0  0  3  0  0  0  0  0  0
  -32.4840  -18.7780   19.5740 C   0  0  0  0  0  3  0  0  0  0  0  0
  -33.0610  -17.6440   18.6950 C   0  0  0  0  0  1  0  0  0  0  0  0
  -30.3090  -17.8650   20.5010 N   0  0  0  0  0  0  0  0  0  0  0  0
  -30.9630  -16.9130   21.4010 C   0  0  0  0  0  2  0  0  0  0  0  0
  -30.1870  -15.5630   21.4640 C   0  0  0  0  0  2  0  0  0  0  0  0
  -30.7100  -14.4430   20.5390 C   0  0  0  0  0  0  0  0  0  0  0  0
  -30.3390  -12.3490   19.2830 C   0  0  0  0  0  2  0  0  0  0  0  0
  -29.3870  -12.6280   18.1060 C   0  0  0  0  0  2  0  0  0  0  0  0
  -27.9220  -12.4610   18.5480 C   0  0  0  0  0  2  0  0  0  0  0  0
  -27.6080  -13.2660   19.8390 C   0  0  0  0  0  3  0  0  0  0  0  0
  -28.6720  -13.0190   20.9340 C   0  0  0  0  0  2  0  0  0  0  0  0
  -29.9970  -13.2980   20.3540 N   0  0  0  0  0  0  0  0  0  0  0  0
  -31.7800  -14.6260   19.9520 O   0  0  0  0  0  0  0  0  0  0  0  0
  -25.2150  -13.8730   20.5520 C   0  0  0  0  0  0  0  0  0  0  0  0
  -24.1450  -13.0990   20.9180 C   0  0  0  0  0  0  0  0  0  0  0  0
  -24.6030  -11.7460   20.8800 C   0  0  0  0  0  0  0  0  0  0  0  0
  -26.2570  -12.9900   20.3200 N   0  0  0  0  0  0  0  0  0  0  0  0
  -25.8930  -11.7060   20.5710 N   0  0  0  0  0  0  0  0  0  0  0  0
  -23.8730  -10.4850   21.0730 C   0  0  0  0  0  0  0  0  0  0  0  0
  -24.3190   -9.5090   21.9920 C   0  0  0  0  0  3  0  0  0  0  0  0
  -23.5910   -8.3120   22.1720 C   0  0  0  0  0  3  0  0  0  0  0  0
  -22.4040   -8.0860   21.4320 C   0  0  0  0  0  0  0  0  0  0  0  0
  -21.9760   -9.0560   20.5070 C   0  0  0  0  0  3  0  0  0  0  0  0
  -22.7040  -10.2440   20.3250 C   0  0  0  0  0  3  0  0  0  0  0  0
  -21.6430   -6.9470   21.5220 O   0  0  0  0  0  0  0  0  0  0  0  0
  -21.6230   -6.1830   22.6620 C   0  0  0  0  0  0  0  0  0  0  0  0
  -21.2460   -6.7210   23.9120 C   0  0  0  0  0  3  0  0  0  0  0  0
  -21.1700   -5.8860   25.0440 C   0  0  0  0  0  3  0  0  0  0  0  0
  -21.4570   -4.5130   24.9280 C   0  0  0  0  0  0  0  0  0  0  0  0
  -21.8260   -3.9740   23.6840 C   0  0  0  0  0  3  0  0  0  0  0  0
  -21.9070   -4.8070   22.5530 C   0  0  0  0  0  0  0  0  0  0  0  0
  -22.2420   -4.2800   21.3490 F   0  0  0  0  0  0  0  0  0  0  0  0
  -21.3790   -3.7050   26.0120 F   0  0  0  0  0  0  0  0  0  0  0  0
  -22.7500  -13.5790   21.1940 C   0  0  0  0  0  0  0  0  0  0  0  0
  -22.0250  -12.8830   22.0670 N   0  0  0  0  0  0  0  0  0  0  0  0
  -22.3090  -14.6030   20.6780 O   0  0  0  0  0  0  0  0  0  0  0  0
  -22.3960  -12.0590   22.5140 H   0  0  0  0  0  0  0  0  0  0  0  0
  -21.0880  -13.1880   22.2850 H   0  0  0  0  0  0  0  0  0  0  0  0
  -25.3740  -15.2440   20.3730 N   0  0  0  0  0  0  0  0  0  0  0  0
  -24.5990  -15.8880   20.4840 H   0  0  0  0  0  0  0  0  0  0  0  0
  -26.2290  -15.7010   20.0750 H   0  0  0  0  0  0  0  0  0  0  0  0
  -29.6960  -23.4740   20.0390 C   0  0  0  0  0  2  0  0  0  0  0  0
  -28.3390  -24.1780   19.8270 C   0  0  0  0  0  2  0  0  0  0  0  0
  -28.1960  -25.3830   20.7930 C   0  0  0  0  0  2  0  0  0  0  0  0
  -28.3550  -26.6730   20.1790 O   0  0  0  0  0  0  0  0  0  0  0  0
  -24.5950  -31.8820   23.2420 C   0  0  0  0  0  0  0  0  0  0  0  0
  -27.2120  -27.4310   20.1610 C   0  0  0  0  0  0  0  0  0  0  0  0
  -23.3820  -30.4780   21.6060 C   0  0  0  0  0  3  0  0  0  0  0  0
  -24.8270  -28.9350   20.1830 C   0  0  0  0  0  0  0  0  0  0  0  0
  -25.9070  -30.8370   21.3990 C   0  0  0  0  0  2  0  0  0  0  0  0
  -25.9880  -29.4650   20.7600 C   0  0  0  0  0  0  0  0  0  0  0  0
  -27.1900  -28.7190   20.7440 C   0  0  0  0  0  3  0  0  0  0  0  0
  -26.0330  -26.9140   19.5810 C   0  0  0  0  0  3  0  0  0  0  0  0
  -24.8410  -27.6580   19.5960 C   0  0  0  0  0  3  0  0  0  0  0  0
  -23.5860  -29.7950   20.2290 C   0  0  0  0  0  2  0  0  0  0  0  0
  -24.6450  -31.0800   22.1410 N   0  0  0  0  0  0  0  0  0  0  0  0
  -23.5160  -32.1550   23.7870 O   0  0  0  0  0  0  0  0  0  0  0  0
  -22.7320  -29.4600   22.5700 C   0  0  0  0  0  0  0  0  0  0  0  0
  -21.4080  -29.2770   22.4500 N   0  0  0  0  0  0  0  0  0  0  0  0
  -23.4190  -28.8350   23.3850 O   0  0  0  0  0  0  0  0  0  0  0  0
  -20.9140  -29.8320   21.7650 H   0  0  0  0  0  0  0  0  0  0  0  0
  -18.0390  -28.0730   22.9490 C   0  0  0  0  0  0  0  0  0  0  0  0
  -20.5950  -28.3400   23.2250 C   0  0  0  0  0  3  0  0  0  0  0  0
  -20.7030  -26.9050   22.6610 C   0  0  0  0  0  2  0  0  0  0  0  0
  -19.6070  -26.5720   21.6450 C   0  0  0  0  0  2  0  0  0  0  0  0
  -18.2210  -26.7200   22.2830 C   0  0  0  0  0  2  0  0  0  0  0  0
  -19.1540  -28.8420   23.3780 C   0  0  0  0  0  0  0  0  0  0  0  0
  -18.9340  -30.1070   23.9610 C   0  0  0  0  0  3  0  0  0  0  0  0
  -17.6280  -30.6080   24.1200 C   0  0  0  0  0  3  0  0  0  0  0  0
  -16.5260  -29.8380   23.7100 C   0  0  0  0  0  3  0  0  0  0  0  0
  -16.7320  -28.5730   23.1320 C   0  0  0  0  0  3  0  0  0  0  0  0
  -25.8840  -32.5140   23.8540 C   0  0  0  0  0  3  0  0  0  0  0  0
  -25.5770  -33.9110   24.1860 N   0  0  0  0  0  0  0  0  0  0  0  0
  -25.9090  -34.9640   23.4260 C   0  0  0  0  0  0  0  0  0  0  0  0
  -26.5730  -34.8610   22.3920 O   0  0  0  0  0  0  0  0  0  0  0  0
  -24.9870  -34.0680   24.9900 H   0  0  0  0  0  0  0  0  0  0  0  0
  -24.1760  -36.7530   23.0810 C   0  0  0  0  0  1  0  0  0  0  0  0
  -25.4220  -36.3510   23.8860 C   0  0  0  0  0  3  0  0  0  0  0  0
  -27.5630  -37.2340   24.7010 C   0  0  0  0  0  1  0  0  0  0  0  0
  -26.4530  -37.4050   23.7700 N   0  0  0  0  0  0  0  0  0  0  0  0
  -26.0450  -38.3220   23.9290 H   0  0  0  0  0  0  0  0  0  0  0  0
  -26.4140  -31.7430   25.1240 C   0  0  1  0  0  0  0  0  0  0  0  0
  -25.3320  -31.5090   26.2030 C   0  0  0  0  0  1  0  0  0  0  0  0
  -26.9960  -30.3670   24.7260 C   0  0  0  0  0  1  0  0  0  0  0  0
  -27.5690  -32.5400   25.7770 C   0  0  0  0  0  1  0  0  0  0  0  0
  1  2  2  0
  2  4  1  0
  2  5  1  0
  3  1  1  0
  3 52  1  0
  6  3  1  0
  7 13  2  0
  8  9  1  0
  8 10  1  0
  9 11  1  0
 10  1  1  0
 10  7  1  0
 11 12  1  0
 11  7  1  0
 13 14  1  0
 14 15  1  0
 16 15  1  0
 17 22  1  0
 18 19  1  0
 18 17  1  0
 20 19  1  0
 20 27  1  0
 20 21  1  0
 22 16  1  0
 22 21  1  0
 23 16  2  0
 24 25  2  0
 25 44  1  0
 26 25  1  0
 26 29  1  0
 27 24  1  0
 27 28  1  0
 28 26  2  0
 29 30  1  0
 30 31  2  0
 32 35  1  0
 32 31  1  0
 33 32  2  0
 34 33  1  0
 34 29  2  0
 35 36  1  0
 36 37  1  0
 37 38  2  0
 39 38  1  0
 39 43  1  0
 40 39  2  0
 41 36  2  0
 41 40  1  0
 42 41  1  0
 44 45  1  0
 45 48  1  0
 45 47  1  0
 46 44  2  0
 49 50  1  0
 49 24  1  0
 51 49  1  0
 53 52  1  0
 53 54  1  0
 55 54  1  0
 56 67  2  0
 57 55  1  0
 57 62  1  0
 58 66  1  0
 58 68  1  0
 59 65  1  0
 59 61  1  0
 60 66  1  0
 61 60  1  0
 62 61  2  0
 63 64  1  0
 63 57  2  0
 64 59  2  0
 65 58  1  0
 66 56  1  0
 68 70  2  0
 69 68  1  0
 71 69  1  0
 72 81  2  0
 72 77  1  0
 73 69  1  0
 73 77  1  0
 74 73  1  0
 75 76  1  0
 75 74  1  0
 76 72  1  0
 77 78  2  0
 78 79  1  0
 80 79  2  0
 81 80  1  0
 82 56  1  0
 82 83  1  0
 82 92  1  0
 83 86  1  0
 84 88  1  0
 84 83  1  0
 85 84  2  0
 88 87  1  0
 90 88  1  0
 90 91  1  0
 90 89  1  0
 92 95  1  1
 92 93  1  0
 94 92  1  0
M  ISO  4  15 100  16 100  54 101  55 101
M  END
>  <TORSDO>  (6) 
F 22

>  <SCORE>  (6) 
-13.243

>  <name>  (6) 
5

>  <ligand_id>  (6) 
5

>  <original_smiles>  (6) 
[H]c1c([H])c([H])c2c(c1[H])C([H])([H])C([H])([H])C([H])([H])C2([H])N([H])C(=O)C1([H])N(C(=O)C([H])(N([H])C(=O)C([H])(N([H])C([H])([H])[H])C([H])([H])[H])C(C([H])([H])[H])(C([H])([H])[H])C([H])([H])[H])C([H])([H])c2c([H])c(OC([H])([H])C([H])([H])C([H])([H])[N+]([H])=C(N([H])[H])C3([H])C(=NC([H])([H])C([H])([H])C(=O)N4C([H])([H])C([H])([H])C([H])([H])C([H])(n5nc(-c6c([H])c([H])c(Oc7c([H])c([H])c(F)c([H])c7F)c([H])c6[H])c(C(=O)N([H])[H])c5N([H])[H])C4([H])[H])C([H])(C([H])([H])[H])C([H])([H])C3([H])[H])c([H])c([H])c2C1([H])[H]

>  <smiles>  (6) 
[H]c1c([H])c([H])c2c(c1[H])C([H])([H])C([H])([H])C([H])([H])C2([H])N([H])C(=O)C1([H])N(C(=O)C([H])(N([H])C(=O)C([H])(N([H])C([H])([H])[H])C([H])([H])[H])C(C([H])([H])[H])(C([H])([H])[H])C([H])([H])[H])C([H])([H])c2c([H])c(OC([H])([H])C([H])([H])C([H])([H])[N+]([H])=C(N([H])[H])C3([H])C(=NC([H])([H])C([H])([H])C(=O)N4C([H])([H])C([H])([H])C([H])([H])C([H])(n5nc(-c6c([H])c([H])c(Oc7c([H])c([H])c(F)c([H])c7F)c([H])c6[H])c(C(=O)N([H])[H])c5N([H])[H])C4([H])[H])C([H])(C([H])([H])[H])C([H])([H])C3([H])[H])c([H])c([H])c2C1([H])[H]

$$$$
6:0:0
     RDKit          3D

 89 98  0  0  1  0  0  0  0  0999 V2000
  -30.2400  -19.2070   18.3050 C   0  0  0  0  0  2  0  0  0  0  0  0
  -30.3950  -20.5480   17.5960 C   0  0  0  0  0  2  0  0  0  0  0  0
  -31.7730  -21.8370   19.4300 C   0  0  0  0  0  2  0  0  0  0  0  0
  -31.0770  -21.3910   20.7070 C   0  0  0  0  0  2  0  0  0  0  0  0
  -29.5050  -19.4300   19.6420 C   0  0  0  0  0  3  0  0  0  0  0  0
  -30.4700  -21.6170   18.6670 C   0  0  0  0  0  3  0  0  0  0  0  0
  -29.7400  -21.1950   19.9640 C   0  0  2  0  0  0  0  0  0  0  0  0
  -30.1500  -16.5400   20.4100 C   0  0  0  0  0  0  0  0  0  0  0  0
  -29.7520  -17.9690   20.5300 C   0  0  0  0  0  0  0  0  0  0  0  0
  -29.3530  -18.3320   21.9490 C   0  0  0  0  0  1  0  0  0  0  0  0
  -30.7660  -15.1590   19.8280 C   0  0  0  0  0  0  0  0  0  0  0  0
  -30.5570  -12.7540   18.8830 C   0  0  0  0  0  2  0  0  0  0  0  0
  -29.5450  -12.6830   17.7110 C   0  0  0  0  0  2  0  0  0  0  0  0
  -28.1230  -12.4470   18.2450 C   0  0  0  0  0  2  0  0  0  0  0  0
  -27.8040  -13.3570   19.4570 C   0  0  0  0  0  3  0  0  0  0  0  0
  -28.9390  -13.4020   20.5040 C   0  0  0  0  0  2  0  0  0  0  0  0
  -30.1530  -13.8710   19.8200 N   0  0  0  0  0  0  0  0  0  0  0  0
  -31.9140  -15.1120   19.3570 O   0  0  0  0  0  0  0  0  0  0  0  0
  -25.5150  -13.9440   20.4130 C   0  0  0  0  0  0  0  0  0  0  0  0
  -24.4620  -13.1810   20.8340 C   0  0  0  0  0  0  0  0  0  0  0  0
  -24.8870  -11.8210   20.7190 C   0  0  0  0  0  0  0  0  0  0  0  0
  -26.5100  -13.0530   20.0550 N   0  0  0  0  0  0  0  0  0  0  0  0
  -26.1500  -11.7670   20.3060 N   0  0  0  0  0  0  0  0  0  0  0  0
  -24.1420  -10.5710   20.9220 C   0  0  0  0  0  0  0  0  0  0  0  0
  -24.5910   -9.5780   21.8210 C   0  0  0  0  0  3  0  0  0  0  0  0
  -23.8420   -8.3960   22.0170 C   0  0  0  0  0  3  0  0  0  0  0  0
  -22.6310   -8.2000   21.3130 C   0  0  0  0  0  0  0  0  0  0  0  0
  -22.2000   -9.1800   20.4020 C   0  0  0  0  0  3  0  0  0  0  0  0
  -22.9480  -10.3520   20.2050 C   0  0  0  0  0  3  0  0  0  0  0  0
  -21.8550   -7.0700   21.4160 O   0  0  0  0  0  0  0  0  0  0  0  0
  -21.8180   -6.3250   22.5670 C   0  0  0  0  0  0  0  0  0  0  0  0
  -21.4040   -6.8770   23.7980 C   0  0  0  0  0  3  0  0  0  0  0  0
  -21.3140   -6.0590   24.9430 C   0  0  0  0  0  3  0  0  0  0  0  0
  -21.6270   -4.6890   24.8560 C   0  0  0  0  0  0  0  0  0  0  0  0
  -22.0330   -4.1360   23.6290 C   0  0  0  0  0  3  0  0  0  0  0  0
  -22.1260   -4.9520   22.4860 C   0  0  0  0  0  0  0  0  0  0  0  0
  -22.4960   -4.4090   21.3020 F   0  0  0  0  0  0  0  0  0  0  0  0
  -21.5330   -3.9010   25.9530 F   0  0  0  0  0  0  0  0  0  0  0  0
  -23.1040  -13.6830   21.2270 C   0  0  0  0  0  0  0  0  0  0  0  0
  -22.4260  -12.9800   22.1270 N   0  0  0  0  0  0  0  0  0  0  0  0
  -22.6550  -14.7350   20.7730 O   0  0  0  0  0  0  0  0  0  0  0  0
  -22.8030  -12.1290   22.5180 H   0  0  0  0  0  0  0  0  0  0  0  0
  -21.5180  -13.3000   22.4320 H   0  0  0  0  0  0  0  0  0  0  0  0
  -25.7020  -15.3170   20.2750 N   0  0  0  0  0  0  0  0  0  0  0  0
  -24.9730  -15.9880   20.4890 H   0  0  0  0  0  0  0  0  0  0  0  0
  -26.5500  -15.7500   19.9300 H   0  0  0  0  0  0  0  0  0  0  0  0
  -28.6360  -22.5500   20.3860 C   0  0  0  0  0  2  0  0  0  0  0  0
  -28.5530  -24.2610   19.8180 C   0  0  0  0  0  2  0  0  0  0  0  0
  -28.3500  -25.7820   20.4060 O   0  0  0  0  0  0  0  0  0  0  0  0
  -24.6000  -31.6610   23.1640 C   0  0  0  0  0  0  0  0  0  0  0  0
  -27.3230  -26.8390   20.2280 C   0  0  0  0  0  0  0  0  0  0  0  0
  -23.4840  -30.2600   21.4720 C   0  0  0  0  0  3  0  0  0  0  0  0
  -25.0030  -28.6760   20.0980 C   0  0  0  0  0  0  0  0  0  0  0  0
  -26.0480  -30.5000   21.4290 C   0  0  0  0  0  2  0  0  0  0  0  0
  -26.1560  -29.0970   20.7700 C   0  0  0  0  0  0  0  0  0  0  0  0
  -27.3060  -28.1940   20.8170 C   0  0  0  0  0  3  0  0  0  0  0  0
  -26.1450  -26.5620   19.4990 C   0  0  0  0  0  3  0  0  0  0  0  0
  -25.0210  -27.4300   19.4450 C   0  0  0  0  0  3  0  0  0  0  0  0
  -23.7720  -29.5820   20.1030 C   0  0  0  0  0  2  0  0  0  0  0  0
  -24.7300  -30.8340   22.0760 N   0  0  0  0  0  0  0  0  0  0  0  0
  -23.4880  -31.9410   23.6420 O   0  0  0  0  0  0  0  0  0  0  0  0
  -22.7620  -29.2570   22.4080 C   0  0  0  0  0  0  0  0  0  0  0  0
  -21.4320  -29.1100   22.2560 N   0  0  0  0  0  0  0  0  0  0  0  0
  -23.4040  -28.6090   23.2390 O   0  0  0  0  0  0  0  0  0  0  0  0
  -20.9690  -29.6840   21.5650 H   0  0  0  0  0  0  0  0  0  0  0  0
  -18.0210  -27.9640   22.7090 C   0  0  0  0  0  0  0  0  0  0  0  0
  -20.5840  -28.1700   22.9950 C   0  0  0  0  0  3  0  0  0  0  0  0
  -20.6580  -26.7530   22.3810 C   0  0  0  0  0  2  0  0  0  0  0  0
  -19.5570  -26.4820   21.3510 C   0  0  0  0  0  2  0  0  0  0  0  0
  -18.1740  -26.6350   21.9910 C   0  0  0  0  0  2  0  0  0  0  0  0
  -19.1520  -28.6920   23.1670 C   0  0  0  0  0  0  0  0  0  0  0  0
  -18.9510  -29.9370   23.8010 C   0  0  0  0  0  3  0  0  0  0  0  0
  -17.6550  -30.4560   23.9800 C   0  0  0  0  0  3  0  0  0  0  0  0
  -16.5390  -29.7240   23.5370 C   0  0  0  0  0  3  0  0  0  0  0  0
  -16.7220  -28.4800   22.9080 C   0  0  0  0  0  3  0  0  0  0  0  0
  -25.8400  -32.3130   23.8490 C   0  0  0  0  0  3  0  0  0  0  0  0
  -26.2870  -31.5600   25.1640 C   0  0  1  0  0  0  0  0  0  0  0  0
  -25.1360  -31.3300   26.1730 C   0  0  0  0  0  1  0  0  0  0  0  0
  -26.8980  -30.1800   24.8320 C   0  0  0  0  0  1  0  0  0  0  0  0
  -27.3950  -32.3700   25.8790 C   0  0  0  0  0  1  0  0  0  0  0  0
  -25.5040  -33.7150   24.1580 N   0  0  0  0  0  0  0  0  0  0  0  0
  -25.8660  -34.7710   23.4180 C   0  0  0  0  0  0  0  0  0  0  0  0
  -26.5810  -34.6700   22.4170 O   0  0  0  0  0  0  0  0  0  0  0  0
  -24.8730  -33.8660   24.9310 H   0  0  0  0  0  0  0  0  0  0  0  0
  -24.1490  -36.5650   23.0010 C   0  0  0  0  0  1  0  0  0  0  0  0
  -25.3600  -36.1610   23.8560 C   0  0  0  0  0  3  0  0  0  0  0  0
  -27.4550  -37.0630   24.7700 C   0  0  0  0  0  1  0  0  0  0  0  0
  -26.3940  -37.2170   23.7790 N   0  0  0  0  0  0  0  0  0  0  0  0
  -25.9790  -38.1370   23.9000 H   0  0  0  0  0  0  0  0  0  0  0  0
  1  5  1  0
  2  1  1  0
  3  4  1  0
  5  7  1  0
  5  9  1  0
  6  2  1  0
  6  3  1  0
  6  7  1  0
  7 47  1  1
  7  4  1  0
  8  9  2  0
  9 10  1  0
 11  8  2  0
 12 17  1  0
 13 14  1  0
 13 12  1  0
 15 14  1  0
 15 22  1  0
 15 16  1  0
 17 11  1  0
 17 16  1  0
 18 11  2  0
 19 20  2  0
 20 39  1  0
 21 20  1  0
 21 24  1  0
 22 23  1  0
 22 19  1  0
 23 21  2  0
 24 25  1  0
 25 26  2  0
 27 30  1  0
 27 26  1  0
 28 27  2  0
 29 28  1  0
 29 24  2  0
 30 31  1  0
 31 32  1  0
 32 33  2  0
 34 33  1  0
 34 38  1  0
 35 34  2  0
 36 31  2  0
 36 35  1  0
 37 36  1  0
 39 40  1  0
 40 43  1  0
 40 42  1  0
 41 39  2  0
 44 19  1  0
 44 45  1  0
 46 44  1  0
 48 47  1  0
 48 49  1  0
 50 61  2  0
 51 49  1  0
 51 56  1  0
 52 60  1  0
 52 62  1  0
 53 59  1  0
 53 55  1  0
 54 60  1  0
 55 56  2  0
 55 54  1  0
 57 51  2  0
 58 57  1  0
 58 53  2  0
 59 52  1  0
 60 50  1  0
 62 64  2  0
 63 62  1  0
 65 63  1  0
 66 75  2  0
 66 71  1  0
 67 63  1  0
 67 71  1  0
 68 67  1  0
 69 70  1  0
 69 68  1  0
 70 66  1  0
 71 72  2  0
 72 73  1  0
 74 73  2  0
 75 74  1  0
 76 50  1  0
 76 81  1  0
 76 77  1  0
 77 80  1  1
 77 78  1  0
 79 77  1  0
 81 84  1  0
 82 86  1  0
 82 81  1  0
 83 82  2  0
 86 85  1  0
 88 86  1  0
 88 89  1  0
 88 87  1  0
M  ISO  4   8 100  11 100  48 101  49 101
M  END
>  <TORSDO>  (7) 
F 19

>  <SCORE>  (7) 
-14.024

>  <name>  (7) 
6

>  <ligand_id>  (7) 
6

>  <original_smiles>  (7) 
[H]C(C(=O)N1C([H])([H])C([H])([H])C([H])([H])C([H])(n2nc(-c3c([H])c([H])c(Oc4c([H])c([H])c(F)c([H])c4F)c([H])c3[H])c(C(=O)N([H])[H])c2N([H])[H])C1([H])[H])=C(C([H])([H])[H])C1([H])C([H])([H])C([H])([H])C2([H])C([H])([H])C([H])([H])C12C([H])([H])C([H])([H])Oc1c([H])c([H])c2c(c1[H])C([H])([H])N(C(=O)C([H])(N([H])C(=O)C([H])(N([H])C([H])([H])[H])C([H])([H])[H])C(C([H])([H])[H])(C([H])([H])[H])C([H])([H])[H])C([H])(C(=O)N([H])C1([H])c3c([H])c([H])c([H])c([H])c3C([H])([H])C([H])([H])C1([H])[H])C2([H])[H]

>  <smiles>  (7) 
[H]C(C(=O)N1C([H])([H])C([H])([H])C([H])([H])C([H])(n2nc(-c3c([H])c([H])c(Oc4c([H])c([H])c(F)c([H])c4F)c([H])c3[H])c(C(=O)N([H])[H])c2N([H])[H])C1([H])[H])=C(C([H])([H])[H])C1([H])C([H])([H])C([H])([H])C2([H])C([H])([H])C([H])([H])C12C([H])([H])C([H])([H])Oc1c([H])c([H])c2c(c1[H])C([H])([H])N(C(=O)C([H])(N([H])C(=O)C([H])(N([H])C([H])([H])[H])C([H])([H])[H])C(C([H])([H])[H])(C([H])([H])[H])C([H])([H])[H])C([H])(C(=O)N([H])C1([H])c3c([H])c([H])c([H])c([H])c3C([H])([H])C([H])([H])C1([H])[H])C2([H])[H]

$$$$
7:0:0
     RDKit          3D

 96105  0  0  1  0  0  0  0  0999 V2000
  -30.8850  -20.0150   18.7910 C   0  0  0  0  0  2  0  0  0  0  0  0
  -32.0490  -18.9820   18.9250 C   0  0  0  0  0  2  0  0  0  0  0  0
  -32.9860  -20.1840   21.1180 C   0  0  0  0  0  2  0  0  0  0  0  0
  -31.7680  -22.6520   20.8110 C   0  0  0  0  0  2  0  0  0  0  0  0
  -32.3740  -21.3280   20.3380 C   0  0  0  0  0  3  0  0  0  0  0  0
  -30.9560  -21.0350   19.9140 C   0  0  0  0  0  3  0  0  0  0  0  0
  -32.7920  -18.8520   20.3110 C   0  0  0  0  0  3  0  0  0  0  0  0
  -30.8320  -22.4790   19.6730 N   0  0  1  0  0  4  0  0  0  0  0  0
  -31.2760  -22.7510   18.8080 H   0  0  0  0  0  0  0  0  0  0  0  0
  -32.3090  -17.7170   21.1400 N   0  0  0  0  0  4  0  0  0  0  0  0
  -32.9470  -17.6050   21.9100 H   0  0  0  0  0  0  0  0  0  0  0  0
  -32.3860  -16.8740   20.5890 H   0  0  0  0  0  0  0  0  0  0  0  0
  -30.9180  -17.8750   23.2230 C   0  0  0  0  0  1  0  0  0  0  0  0
  -30.9320  -17.8050   21.6830 C   0  0  0  0  0  3  0  0  0  0  0  0
  -30.0190  -16.6920   21.1380 C   0  0  0  0  0  2  0  0  0  0  0  0
  -30.4200  -15.2560   21.5450 C   0  0  0  0  0  2  0  0  0  0  0  0
  -30.7000  -14.3760   20.3210 C   0  0  0  0  0  0  0  0  0  0  0  0
  -30.2480  -12.4050   18.9100 C   0  0  0  0  0  2  0  0  0  0  0  0
  -29.2440  -12.7090   17.7860 C   0  0  0  0  0  2  0  0  0  0  0  0
  -27.7960  -12.5380   18.2820 C   0  0  0  0  0  2  0  0  0  0  0  0
  -27.5370  -13.2900   19.6140 C   0  0  0  0  0  3  0  0  0  0  0  0
  -28.6350  -12.9540   20.6430 C   0  0  0  0  0  2  0  0  0  0  0  0
  -29.9460  -13.2790   20.0530 N   0  0  0  0  0  0  0  0  0  0  0  0
  -31.6600  -14.7170   19.6220 O   0  0  0  0  0  0  0  0  0  0  0  0
  -25.1640  -13.8760   20.4240 C   0  0  0  0  0  0  0  0  0  0  0  0
  -24.1140  -13.0880   20.8270 C   0  0  0  0  0  0  0  0  0  0  0  0
  -24.5840  -11.7420   20.7580 C   0  0  0  0  0  0  0  0  0  0  0  0
  -26.2040  -13.0040   20.1400 N   0  0  0  0  0  0  0  0  0  0  0  0
  -25.8600  -11.7150   20.3950 N   0  0  0  0  0  0  0  0  0  0  0  0
  -23.8780  -10.4700   20.9640 C   0  0  0  0  0  0  0  0  0  0  0  0
  -24.3430   -9.5090   21.8870 C   0  0  0  0  0  3  0  0  0  0  0  0
  -23.6370   -8.3000   22.0780 C   0  0  0  0  0  3  0  0  0  0  0  0
  -22.4540   -8.0470   21.3460 C   0  0  0  0  0  0  0  0  0  0  0  0
  -22.0090   -8.9990   20.4110 C   0  0  0  0  0  3  0  0  0  0  0  0
  -22.7150  -10.1970   20.2190 C   0  0  0  0  0  3  0  0  0  0  0  0
  -21.7180   -6.8920   21.4450 O   0  0  0  0  0  0  0  0  0  0  0  0
  -21.6870   -6.1560   22.6030 C   0  0  0  0  0  0  0  0  0  0  0  0
  -21.2400   -6.7080   23.8240 C   0  0  0  0  0  3  0  0  0  0  0  0
  -21.1580   -5.8970   24.9750 C   0  0  0  0  0  3  0  0  0  0  0  0
  -21.5110   -4.5370   24.9040 C   0  0  0  0  0  0  0  0  0  0  0  0
  -21.9500   -3.9840   23.6880 C   0  0  0  0  0  3  0  0  0  0  0  0
  -22.0340   -4.7920   22.5400 C   0  0  0  0  0  0  0  0  0  0  0  0
  -22.4370   -4.2500   21.3660 F   0  0  0  0  0  0  0  0  0  0  0  0
  -21.4260   -3.7560   26.0070 F   0  0  0  0  0  0  0  0  0  0  0  0
  -22.7270  -13.5500   21.1640 C   0  0  0  0  0  0  0  0  0  0  0  0
  -22.0420  -12.8340   22.0520 N   0  0  0  0  0  0  0  0  0  0  0  0
  -22.2580  -14.5780   20.6800 O   0  0  0  0  0  0  0  0  0  0  0  0
  -22.4340  -12.0010   22.4660 H   0  0  0  0  0  0  0  0  0  0  0  0
  -21.1120  -13.1230   22.3200 H   0  0  0  0  0  0  0  0  0  0  0  0
  -25.3100  -15.2480   20.2580 N   0  0  0  0  0  0  0  0  0  0  0  0
  -24.5470  -15.8990   20.4090 H   0  0  0  0  0  0  0  0  0  0  0  0
  -26.1520  -15.6960   19.9180 H   0  0  0  0  0  0  0  0  0  0  0  0
  -29.4790  -23.0760   19.8110 C   0  0  0  0  0  2  0  0  0  0  0  0
  -29.5440  -24.6140   19.9430 C   0  0  0  0  0  2  0  0  0  0  0  0
  -28.1790  -25.3080   19.8210 C   0  0  0  0  0  2  0  0  0  0  0  0
  -28.2920  -26.7180   20.0890 O   0  0  0  0  0  0  0  0  0  0  0  0
  -24.5130  -31.8920   23.2320 C   0  0  0  0  0  0  0  0  0  0  0  0
  -27.1220  -27.4550   20.0970 C   0  0  0  0  0  0  0  0  0  0  0  0
  -23.3010  -30.5130   21.5800 C   0  0  0  0  0  3  0  0  0  0  0  0
  -24.7420  -28.9860   20.1380 C   0  0  0  0  0  0  0  0  0  0  0  0
  -25.8300  -30.8580   21.3840 C   0  0  0  0  0  2  0  0  0  0  0  0
  -25.9070  -29.4920   20.7280 C   0  0  0  0  0  0  0  0  0  0  0  0
  -27.1010  -28.7340   20.7030 C   0  0  0  0  0  3  0  0  0  0  0  0
  -25.9300  -26.9650   19.5130 C   0  0  0  0  0  3  0  0  0  0  0  0
  -24.7500  -27.7230   19.5310 C   0  0  0  0  0  3  0  0  0  0  0  0
  -23.5050  -29.8520   20.1930 C   0  0  0  0  0  2  0  0  0  0  0  0
  -24.5660  -31.1010   22.1230 N   0  0  0  0  0  0  0  0  0  0  0  0
  -23.4320  -32.1630   23.7740 O   0  0  0  0  0  0  0  0  0  0  0  0
  -22.6460  -29.4830   22.5280 C   0  0  0  0  0  0  0  0  0  0  0  0
  -21.3200  -29.3030   22.3950 N   0  0  0  0  0  0  0  0  0  0  0  0
  -23.3250  -28.8470   23.3390 O   0  0  0  0  0  0  0  0  0  0  0  0
  -20.8350  -29.8670   21.7110 H   0  0  0  0  0  0  0  0  0  0  0  0
  -17.9400  -28.1190   22.8720 C   0  0  0  0  0  0  0  0  0  0  0  0
  -20.4980  -28.3610   23.1520 C   0  0  0  0  0  3  0  0  0  0  0  0
  -20.5950  -26.9350   22.5620 C   0  0  0  0  0  2  0  0  0  0  0  0
  -19.4940  -26.6290   21.5420 C   0  0  0  0  0  2  0  0  0  0  0  0
  -18.1130  -26.7740   22.1860 C   0  0  0  0  0  2  0  0  0  0  0  0
  -19.0610  -28.8710   23.3120 C   0  0  0  0  0  0  0  0  0  0  0  0
  -18.8480  -30.1310   23.9130 C   0  0  0  0  0  3  0  0  0  0  0  0
  -17.5470  -30.6380   24.0790 C   0  0  0  0  0  3  0  0  0  0  0  0
  -16.4380  -29.8840   23.6560 C   0  0  0  0  0  3  0  0  0  0  0  0
  -16.6370  -28.6260   23.0590 C   0  0  0  0  0  3  0  0  0  0  0  0
  -25.8000  -32.5110   23.8600 C   0  0  0  0  0  3  0  0  0  0  0  0
  -25.5020  -33.9090   24.1940 N   0  0  0  0  0  0  0  0  0  0  0  0
  -25.8510  -34.9620   23.4400 C   0  0  0  0  0  0  0  0  0  0  0  0
  -26.5290  -34.8570   22.4140 O   0  0  0  0  0  0  0  0  0  0  0  0
  -24.9000  -34.0670   24.9890 H   0  0  0  0  0  0  0  0  0  0  0  0
  -24.1490  -36.7740   23.0600 C   0  0  0  0  0  1  0  0  0  0  0  0
  -25.3680  -36.3500   23.8960 C   0  0  0  0  0  3  0  0  0  0  0  0
  -27.4940  -37.2060   24.7810 C   0  0  0  0  0  1  0  0  0  0  0  0
  -26.4160  -37.3910   23.8120 N   0  0  0  0  0  0  0  0  0  0  0  0
  -26.0180  -38.3150   23.9550 H   0  0  0  0  0  0  0  0  0  0  0  0
  -26.3090  -31.7280   25.1320 C   0  0  1  0  0  0  0  0  0  0  0  0
  -25.2130  -31.4910   26.1960 C   0  0  0  0  0  1  0  0  0  0  0  0
  -26.8860  -30.3510   24.7320 C   0  0  0  0  0  1  0  0  0  0  0  0
  -27.4630  -32.5130   25.8010 C   0  0  0  0  0  1  0  0  0  0  0  0
  1  2  1  0
  2  7  1  0
  5  4  1  0
  5  3  1  0
  6  1  1  0
  6  5  1  0
  7  3  1  0
  7 10  1  0
  8 53  1  0
  8  6  1  0
  8  4  1  0
  8  9  1  6
 10 14  1  0
 10 11  1  0
 12 10  1  0
 14 13  1  0
 15 16  1  0
 15 14  1  0
 17 16  1  0
 18 23  1  0
 19 20  1  0
 19 18  1  0
 21 20  1  0
 21 28  1  0
 21 22  1  0
 23 17  1  0
 23 22  1  0
 24 17  2  0
 25 26  2  0
 26 45  1  0
 27 26  1  0
 27 30  1  0
 28 29  1  0
 28 25  1  0
 29 27  2  0
 30 31  1  0
 31 32  2  0
 33 36  1  0
 33 32  1  0
 34 33  2  0
 35 34  1  0
 35 30  2  0
 36 37  1  0
 37 38  1  0
 38 39  2  0
 40 39  1  0
 40 44  1  0
 41 40  2  0
 42 37  2  0
 42 41  1  0
 43 42  1  0
 45 46  1  0
 46 49  1  0
 46 48  1  0
 47 45  2  0
 50 51  1  0
 50 25  1  0
 52 50  1  0
 53 54  1  0
 55 54  1  0
 55 56  1  0
 56 58  1  0
 57 68  2  0
 58 63  1  0
 59 67  1  0
 59 69  1  0
 60 66  1  0
 60 62  1  0
 61 67  1  0
 62 61  1  0
 63 62  2  0
 64 65  1  0
 64 58  2  0
 65 60  2  0
 66 59  1  0
 67 57  1  0
 69 71  2  0
 70 69  1  0
 72 70  1  0
 73 82  2  0
 73 78  1  0
 74 70  1  0
 74 78  1  0
 75 74  1  0
 76 77  1  0
 76 75  1  0
 77 73  1  0
 78 79  2  0
 79 80  1  0
 81 80  2  0
 82 81  1  0
 83 57  1  0
 83 84  1  0
 83 93  1  0
 84 87  1  0
 85 89  1  0
 85 84  1  0
 86 85  2  0
 89 88  1  0
 91 89  1  0
 91 92  1  0
 91 90  1  0
 93 96  1  1
 93 94  1  0
 95 93  1  0
M  ISO  4  16 100  17 100  55 101  56 101
M  END
>  <TORSDO>  (8) 
F 23

>  <SCORE>  (8) 
-12.390

>  <name>  (8) 
7

>  <ligand_id>  (8) 
7

>  <original_smiles>  (8) 
[H]c1c([H])c([H])c2c(c1[H])C([H])([H])C([H])([H])C([H])([H])C2([H])N([H])C(=O)C1([H])N(C(=O)C([H])(N([H])C(=O)C([H])(N([H])C([H])([H])[H])C([H])([H])[H])C(C([H])([H])[H])(C([H])([H])[H])C([H])([H])[H])C([H])([H])c2c([H])c(OC([H])([H])C([H])([H])C([H])([H])[N+]3([H])C([H])([H])C4([H])C([H])([H])C([H])([N+]([H])([H])C([H])(C([H])([H])[H])C([H])([H])C([H])([H])C(=O)N5C([H])([H])C([H])([H])C([H])([H])C([H])(n6nc(-c7c([H])c([H])c(Oc8c([H])c([H])c(F)c([H])c8F)c([H])c7[H])c(C(=O)N([H])[H])c6N([H])[H])C5([H])[H])C([H])([H])C([H])([H])C43[H])c([H])c([H])c2C1([H])[H]

>  <smiles>  (8) 
[H]c1c([H])c([H])c2c(c1[H])C([H])([H])C([H])([H])C([H])([H])C2([H])N([H])C(=O)C1([H])N(C(=O)C([H])(N([H])C(=O)C([H])(N([H])C([H])([H])[H])C([H])([H])[H])C(C([H])([H])[H])(C([H])([H])[H])C([H])([H])[H])C([H])([H])c2c([H])c(OC([H])([H])C([H])([H])C([H])([H])[N+]3([H])C([H])([H])C4([H])C([H])([H])C([H])([N+]([H])([H])C([H])(C([H])([H])[H])C([H])([H])C([H])([H])C(=O)N5C([H])([H])C([H])([H])C([H])([H])C([H])(n6nc(-c7c([H])c([H])c(Oc8c([H])c([H])c(F)c([H])c8F)c([H])c7[H])c(C(=O)N([H])[H])c6N([H])[H])C5([H])[H])C([H])([H])C([H])([H])C43[H])c([H])c([H])c2C1([H])[H]

$$$$
8:0:0
     RDKit          3D

 93102  0  0  1  0  0  0  0  0999 V2000
  -27.3880  -22.8690   22.4350 C   0  0  0  0  0  2  0  0  0  0  0  0
  -27.7050  -24.3860   22.4710 C   0  0  0  0  0  2  0  0  0  0  0  0
  -29.2150  -24.5620   19.0350 C   0  0  0  0  0  2  0  0  0  0  0  0
  -27.7130  -22.2240   21.0690 C   0  0  0  0  0  2  0  0  0  0  0  0
  -29.2420  -22.9900   19.1490 C   0  0  0  0  0  2  0  0  0  0  0  0
  -29.8500  -23.5370   21.4780 C   0  0  0  0  0  2  0  0  0  0  0  0
  -28.9020  -24.7720   21.5660 C   0  0  0  0  0  3  0  0  0  0  0  0
  -28.4300  -25.2850   20.1620 C   0  0  0  0  0  3  0  0  0  0  0  0
  -29.2070  -22.4100   20.6060 C   0  0  1  0  0  0  0  0  0  0  0  0
  -30.0520  -21.0720   20.7470 C   0  0  0  0  0  0  0  0  0  0  0  0
  -29.4820  -19.8480   20.5870 N   0  0  0  0  0  0  0  0  0  0  0  0
  -31.2400  -21.1520   21.0650 O   0  0  0  0  0  0  0  0  0  0  0  0
  -28.5210  -19.8550   20.2690 H   0  0  0  0  0  0  0  0  0  0  0  0
  -29.9540  -18.5610   21.1800 C   0  0  0  0  0  2  0  0  0  0  0  0
  -30.1870  -17.3350   20.2250 C   0  0  0  0  0  2  0  0  0  0  0  0
  -30.1770  -15.9410   20.9670 C   0  0  0  0  0  2  0  0  0  0  0  0
  -30.8190  -14.7110   20.2370 C   0  0  0  0  0  0  0  0  0  0  0  0
  -30.5510  -12.5150   19.1060 C   0  0  0  0  0  2  0  0  0  0  0  0
  -29.5910  -12.6860   17.9080 C   0  0  0  0  0  2  0  0  0  0  0  0
  -28.1220  -12.5420   18.3540 C   0  0  0  0  0  2  0  0  0  0  0  0
  -27.7960  -13.3830   19.6170 C   0  0  0  0  0  3  0  0  0  0  0  0
  -28.8670  -13.1690   20.7100 C   0  0  0  0  0  2  0  0  0  0  0  0
  -30.1720  -13.5090   20.1270 N   0  0  0  0  0  0  0  0  0  0  0  0
  -31.9230  -14.8820   19.7120 O   0  0  0  0  0  0  0  0  0  0  0  0
  -25.4010  -13.9860   20.3410 C   0  0  0  0  0  0  0  0  0  0  0  0
  -24.3420  -13.2140   20.7320 C   0  0  0  0  0  0  0  0  0  0  0  0
  -24.8090  -11.8640   20.7170 C   0  0  0  0  0  0  0  0  0  0  0  0
  -26.4490  -13.1070   20.1130 N   0  0  0  0  0  0  0  0  0  0  0  0
  -26.0970  -11.8270   20.3970 N   0  0  0  0  0  0  0  0  0  0  0  0
  -24.0910  -10.6010   20.9330 C   0  0  0  0  0  0  0  0  0  0  0  0
  -24.5160   -9.6660   21.9020 C   0  0  0  0  0  3  0  0  0  0  0  0
  -23.7970   -8.4680   22.1040 C   0  0  0  0  0  3  0  0  0  0  0  0
  -22.6390   -8.1970   21.3380 C   0  0  0  0  0  0  0  0  0  0  0  0
  -22.2330   -9.1200   20.3580 C   0  0  0  0  0  3  0  0  0  0  0  0
  -22.9520  -10.3100   20.1550 C   0  0  0  0  0  3  0  0  0  0  0  0
  -21.8940   -7.0480   21.4470 O   0  0  0  0  0  0  0  0  0  0  0  0
  -21.8030   -6.3590   22.6300 C   0  0  0  0  0  0  0  0  0  0  0  0
  -21.3030   -6.9580   23.8070 C   0  0  0  0  0  3  0  0  0  0  0  0
  -21.1620   -6.1940   24.9810 C   0  0  0  0  0  3  0  0  0  0  0  0
  -21.5110   -4.8300   24.9810 C   0  0  0  0  0  0  0  0  0  0  0  0
  -22.0060   -4.2300   23.8090 C   0  0  0  0  0  3  0  0  0  0  0  0
  -22.1480   -4.9920   22.6370 C   0  0  0  0  0  0  0  0  0  0  0  0
  -22.6050   -4.4030   21.5040 F   0  0  0  0  0  0  0  0  0  0  0  0
  -21.3690   -4.0920   26.1070 F   0  0  0  0  0  0  0  0  0  0  0  0
  -22.9440  -13.6890   21.0110 C   0  0  0  0  0  0  0  0  0  0  0  0
  -22.2290  -13.0040   21.8970 N   0  0  0  0  0  0  0  0  0  0  0  0
  -22.4950  -14.7030   20.4780 O   0  0  0  0  0  0  0  0  0  0  0  0
  -22.6050  -12.1820   22.3480 H   0  0  0  0  0  0  0  0  0  0  0  0
  -21.2920  -13.3040   22.1260 H   0  0  0  0  0  0  0  0  0  0  0  0
  -25.5580  -15.3540   20.1400 N   0  0  0  0  0  0  0  0  0  0  0  0
  -24.7900  -16.0090   20.2460 H   0  0  0  0  0  0  0  0  0  0  0  0
  -26.4070  -15.7920   19.8060 H   0  0  0  0  0  0  0  0  0  0  0  0
  -28.5210  -26.7470   20.0660 O   0  0  0  0  0  0  0  0  0  0  0  0
  -24.6860  -31.9230   23.2290 C   0  0  0  0  0  0  0  0  0  0  0  0
  -27.3580  -27.5180   20.0550 C   0  0  0  0  0  0  0  0  0  0  0  0
  -23.5000  -30.5670   21.5390 C   0  0  0  0  0  3  0  0  0  0  0  0
  -24.9700  -29.0710   20.0780 C   0  0  0  0  0  0  0  0  0  0  0  0
  -26.0320  -30.9190   21.3810 C   0  0  0  0  0  2  0  0  0  0  0  0
  -26.1260  -29.5630   20.6980 C   0  0  0  0  0  0  0  0  0  0  0  0
  -27.3210  -28.7960   20.6790 C   0  0  0  0  0  3  0  0  0  0  0  0
  -26.1850  -27.0710   19.4050 C   0  0  0  0  0  3  0  0  0  0  0  0
  -24.9980  -27.8290   19.4260 C   0  0  0  0  0  3  0  0  0  0  0  0
  -23.7240  -29.9300   20.1420 C   0  0  0  0  0  2  0  0  0  0  0  0
  -24.7570  -31.1510   22.1070 N   0  0  0  0  0  0  0  0  0  0  0  0
  -23.5990  -32.1780   23.7660 O   0  0  0  0  0  0  0  0  0  0  0  0
  -22.8390  -29.5180   22.4630 C   0  0  0  0  0  0  0  0  0  0  0  0
  -21.5170  -29.3330   22.3150 N   0  0  0  0  0  0  0  0  0  0  0  0
  -23.5160  -28.8760   23.2710 O   0  0  0  0  0  0  0  0  0  0  0  0
  -21.0320  -29.9040   21.6370 H   0  0  0  0  0  0  0  0  0  0  0  0
  -18.1440  -28.1040   22.7420 C   0  0  0  0  0  0  0  0  0  0  0  0
  -20.6970  -28.3690   23.0490 C   0  0  0  0  0  3  0  0  0  0  0  0
  -20.8140  -26.9550   22.4320 C   0  0  0  0  0  2  0  0  0  0  0  0
  -19.7250  -26.6550   21.3980 C   0  0  0  0  0  2  0  0  0  0  0  0
  -18.3360  -26.7750   22.0300 C   0  0  0  0  0  2  0  0  0  0  0  0
  -19.2530  -28.8590   23.2060 C   0  0  0  0  0  0  0  0  0  0  0  0
  -19.0210  -30.1040   23.8300 C   0  0  0  0  0  3  0  0  0  0  0  0
  -17.7120  -30.5950   23.9950 C   0  0  0  0  0  3  0  0  0  0  0  0
  -16.6170  -29.8360   23.5480 C   0  0  0  0  0  3  0  0  0  0  0  0
  -16.8320  -28.5920   22.9280 C   0  0  0  0  0  3  0  0  0  0  0  0
  -25.9640  -32.5410   23.8790 C   0  0  0  0  0  3  0  0  0  0  0  0
  -26.4660  -31.7440   25.1450 C   0  0  1  0  0  0  0  0  0  0  0  0
  -25.3590  -31.4830   26.1930 C   0  0  0  0  0  1  0  0  0  0  0  0
  -27.0570  -30.3750   24.7310 C   0  0  0  0  0  1  0  0  0  0  0  0
  -27.6060  -32.5260   25.8370 C   0  0  0  0  0  1  0  0  0  0  0  0
  -25.6510  -33.9320   24.2330 N   0  0  0  0  0  0  0  0  0  0  0  0
  -25.9980  -35.0000   23.5020 C   0  0  0  0  0  0  0  0  0  0  0  0
  -26.6830  -34.9170   22.4790 O   0  0  0  0  0  0  0  0  0  0  0  0
  -25.0430  -34.0700   25.0270 H   0  0  0  0  0  0  0  0  0  0  0  0
  -24.2830  -36.8070   23.1560 C   0  0  0  0  0  1  0  0  0  0  0  0
  -25.5060  -36.3780   23.9820 C   0  0  0  0  0  3  0  0  0  0  0  0
  -27.6210  -37.2380   24.8830 C   0  0  0  0  0  1  0  0  0  0  0  0
  -26.5430  -37.4300   23.9160 N   0  0  0  0  0  0  0  0  0  0  0  0
  -26.1350  -38.3470   24.0740 H   0  0  0  0  0  0  0  0  0  0  0  0
  1  2  1  0
  3  5  1  0
  3  8  1  0
  4  1  1  0
  5  9  1  0
  7  6  1  0
  7  2  1  0
  8 53  1  0
  8  7  1  0
  9 10  1  6
  9  4  1  0
  9  6  1  0
 10 12  2  0
 11 10  1  0
 11 14  1  0
 13 11  1  0
 15 16  1  0
 15 14  1  0
 17 16  1  0
 18 23  1  0
 19 20  1  0
 19 18  1  0
 21 20  1  0
 21 28  1  0
 21 22  1  0
 23 17  1  0
 23 22  1  0
 24 17  2  0
 25 26  2  0
 26 45  1  0
 27 26  1  0
 27 30  1  0
 28 25  1  0
 28 29  1  0
 29 27  2  0
 30 31  1  0
 31 32  2  0
 33 36  1  0
 33 32  1  0
 34 33  2  0
 35 34  1  0
 35 30  2  0
 36 37  1  0
 37 42  2  0
 37 38  1  0
 38 39  2  0
 39 40  1  0
 40 44  1  0
 41 40  2  0
 42 41  1  0
 43 42  1  0
 45 46  1  0
 46 49  1  0
 46 48  1  0
 47 45  2  0
 50 51  1  0
 50 25  1  0
 52 50  1  0
 54 65  2  0
 55 53  1  0
 55 60  1  0
 56 64  1  0
 56 66  1  0
 57 63  1  0
 57 59  1  0
 58 64  1  0
 59 58  1  0
 60 59  2  0
 61 62  1  0
 61 55  2  0
 62 57  2  0
 63 56  1  0
 64 54  1  0
 66 68  2  0
 67 66  1  0
 69 67  1  0
 70 79  2  0
 70 75  1  0
 71 67  1  0
 71 75  1  0
 72 71  1  0
 73 74  1  0
 73 72  1  0
 74 70  1  0
 75 76  2  0
 76 77  1  0
 78 77  2  0
 79 78  1  0
 80 54  1  0
 80 85  1  0
 80 81  1  0
 81 84  1  1
 81 82  1  0
 83 81  1  0
 85 88  1  0
 86 90  1  0
 86 85  1  0
 87 86  2  0
 90 89  1  0
 92 90  1  0
 92 93  1  0
 92 91  1  0
M  ISO  4   8 101  16 100  17 100  53 101
M  END
>  <TORSDO>  (9) 
F 20

>  <SCORE>  (9) 
-12.852

>  <name>  (9) 
8

>  <ligand_id>  (9) 
8

>  <original_smiles>  (9) 
[H]c1c([H])c([H])c2c(c1[H])C([H])([H])C([H])([H])C([H])([H])C2([H])N([H])C(=O)C1([H])N(C(=O)C([H])(N([H])C(=O)C([H])(N([H])C([H])([H])[H])C([H])([H])[H])C(C([H])([H])[H])(C([H])([H])[H])C([H])([H])[H])C([H])([H])c2c([H])c(OC3([H])C([H])([H])C([H])([H])C4(C(=O)N([H])C([H])([H])C([H])([H])C([H])([H])C(=O)N5C([H])([H])C([H])([H])C([H])([H])C([H])(n6nc(-c7c([H])c([H])c(Oc8c([H])c([H])c(F)c([H])c8F)c([H])c7[H])c(C(=O)N([H])[H])c6N([H])[H])C5([H])[H])C([H])([H])C([H])([H])C([H])([H])C3([H])C4([H])[H])c([H])c([H])c2C1([H])[H]

>  <smiles>  (9) 
[H]c1c([H])c([H])c2c(c1[H])C([H])([H])C([H])([H])C([H])([H])C2([H])N([H])C(=O)C1([H])N(C(=O)C([H])(N([H])C(=O)C([H])(N([H])C([H])([H])[H])C([H])([H])[H])C(C([H])([H])[H])(C([H])([H])[H])C([H])([H])[H])C([H])([H])c2c([H])c(OC3([H])C([H])([H])C([H])([H])C4(C(=O)N([H])C([H])([H])C([H])([H])C([H])([H])C(=O)N5C([H])([H])C([H])([H])C([H])([H])C([H])(n6nc(-c7c([H])c([H])c(Oc8c([H])c([H])c(F)c([H])c8F)c([H])c7[H])c(C(=O)N([H])[H])c6N([H])[H])C5([H])[H])C([H])([H])C([H])([H])C([H])([H])C3([H])C4([H])[H])c([H])c([H])c2C1([H])[H]

$$$$
9:0:0
     RDKit          3D

 90 97  0  0  1  0  0  0  0  0999 V2000
  -29.3920  -20.5190   19.9840 C   0  0  0  0  0  3  0  0  0  0  0  0
  -29.4390  -19.1260   20.7240 N   0  0  0  0  0  4  0  0  0  0  0  0
  -28.5060  -18.9540   21.0620 H   0  0  0  0  0  0  0  0  0  0  0  0
  -30.0050  -19.2580   21.5470 H   0  0  0  0  0  0  0  0  0  0  0  0
  -29.9210  -17.7820   20.0400 C   0  0  0  0  0  3  0  0  0  0  0  0
  -29.8670  -16.3130   20.8580 C   0  0  0  0  0  2  0  0  0  0  0  0
  -30.5670  -14.8890   20.3990 C   0  0  0  0  0  0  0  0  0  0  0  0
  -30.4090  -12.5630   19.4230 C   0  0  0  0  0  2  0  0  0  0  0  0
  -29.4950  -12.5800   18.1760 C   0  0  0  0  0  2  0  0  0  0  0  0
  -28.0190  -12.3950   18.5800 C   0  0  0  0  0  2  0  0  0  0  0  0
  -27.6140  -13.3060   19.7670 C   0  0  0  0  0  3  0  0  0  0  0  0
  -28.6510  -13.2650   20.9090 C   0  0  0  0  0  2  0  0  0  0  0  0
  -29.9510  -13.6430   20.3420 N   0  0  0  0  0  0  0  0  0  0  0  0
  -31.7450  -14.9250   20.0340 O   0  0  0  0  0  0  0  0  0  0  0  0
  -25.2140  -13.8960   20.4470 C   0  0  0  0  0  0  0  0  0  0  0  0
  -24.1430  -13.1250   20.8050 C   0  0  0  0  0  0  0  0  0  0  0  0
  -24.6090  -11.7750   20.8040 C   0  0  0  0  0  0  0  0  0  0  0  0
  -26.2630  -13.0170   20.2390 N   0  0  0  0  0  0  0  0  0  0  0  0
  -25.9050  -11.7370   20.5210 N   0  0  0  0  0  0  0  0  0  0  0  0
  -23.8800  -10.5140   20.9980 C   0  0  0  0  0  0  0  0  0  0  0  0
  -24.2980   -9.5590   21.9520 C   0  0  0  0  0  3  0  0  0  0  0  0
  -23.5700   -8.3630   22.1330 C   0  0  0  0  0  3  0  0  0  0  0  0
  -22.4100   -8.1130   21.3620 C   0  0  0  0  0  0  0  0  0  0  0  0
  -22.0110   -9.0560   20.3990 C   0  0  0  0  0  3  0  0  0  0  0  0
  -22.7390  -10.2440   20.2150 C   0  0  0  0  0  3  0  0  0  0  0  0
  -21.6560   -6.9670   21.4530 O   0  0  0  0  0  0  0  0  0  0  0  0
  -21.5930   -6.2350   22.6110 C   0  0  0  0  0  0  0  0  0  0  0  0
  -21.1600   -6.8020   23.8290 C   0  0  0  0  0  3  0  0  0  0  0  0
  -21.0470   -5.9970   24.9790 C   0  0  0  0  0  3  0  0  0  0  0  0
  -21.3550   -4.6240   24.9120 C   0  0  0  0  0  0  0  0  0  0  0  0
  -21.7800   -4.0570   23.6980 C   0  0  0  0  0  3  0  0  0  0  0  0
  -21.8980   -4.8600   22.5510 C   0  0  0  0  0  0  0  0  0  0  0  0
  -22.2880   -4.3030   21.3790 F   0  0  0  0  0  0  0  0  0  0  0  0
  -21.2370   -3.8500   26.0150 F   0  0  0  0  0  0  0  0  0  0  0  0
  -22.7390  -13.6010   21.0390 C   0  0  0  0  0  0  0  0  0  0  0  0
  -21.9940  -12.9190   21.9000 N   0  0  0  0  0  0  0  0  0  0  0  0
  -22.3110  -14.6160   20.4880 O   0  0  0  0  0  0  0  0  0  0  0  0
  -22.3550  -12.1010   22.3680 H   0  0  0  0  0  0  0  0  0  0  0  0
  -21.0480  -13.2160   22.0940 H   0  0  0  0  0  0  0  0  0  0  0  0
  -25.3840  -15.2650   20.2560 N   0  0  0  0  0  0  0  0  0  0  0  0
  -24.6150  -15.9210   20.3430 H   0  0  0  0  0  0  0  0  0  0  0  0
  -26.2360  -15.6950   19.9230 H   0  0  0  0  0  0  0  0  0  0  0  0
  -31.2330  -17.9870   19.2300 C   0  0  0  0  0  2  0  0  0  0  0  0
  -33.7500  -17.7440   19.0620 C   0  0  0  0  0  1  0  0  0  0  0  0
  -32.8200  -19.4420   20.6570 C   0  0  0  0  0  1  0  0  0  0  0  0
  -32.5740  -18.0740   20.0020 C   0  0  0  0  0  3  0  0  0  0  0  0
  -28.7160  -21.8900   20.6560 C   0  0  0  0  0  3  0  0  0  0  0  0
  -28.8810  -23.4420   20.0510 C   0  0  0  0  0  3  0  0  0  0  0  0
  -28.0260  -24.7660   20.5970 C   0  0  0  0  0  3  0  0  0  0  0  0
  -28.2660  -26.2490   20.2470 O   0  0  0  0  0  0  0  0  0  0  0  0
  -24.5940  -31.8720   23.2430 C   0  0  0  0  0  0  0  0  0  0  0  0
  -27.1870  -27.1930   20.2260 C   0  0  0  0  0  0  0  0  0  0  0  0
  -23.3970  -30.4700   21.6070 C   0  0  0  0  0  3  0  0  0  0  0  0
  -24.8470  -28.8980   20.1890 C   0  0  0  0  0  0  0  0  0  0  0  0
  -25.9480  -30.7520   21.4380 C   0  0  0  0  0  2  0  0  0  0  0  0
  -26.0240  -29.3620   20.7920 C   0  0  0  0  0  0  0  0  0  0  0  0
  -27.1990  -28.5260   20.7900 C   0  0  0  0  0  3  0  0  0  0  0  0
  -25.9880  -26.8200   19.5840 C   0  0  0  0  0  3  0  0  0  0  0  0
  -24.8390  -27.6400   19.5690 C   0  0  0  0  0  3  0  0  0  0  0  0
  -23.6170  -29.7880   20.2300 C   0  0  0  0  0  2  0  0  0  0  0  0
  -24.6660  -31.0530   22.1510 N   0  0  0  0  0  0  0  0  0  0  0  0
  -23.5080  -32.1540   23.7710 O   0  0  0  0  0  0  0  0  0  0  0  0
  -22.7220  -29.4620   22.5710 C   0  0  0  0  0  0  0  0  0  0  0  0
  -21.3960  -29.2840   22.4400 N   0  0  0  0  0  0  0  0  0  0  0  0
  -23.3950  -28.8410   23.3990 O   0  0  0  0  0  0  0  0  0  0  0  0
  -20.9110  -29.8370   21.7470 H   0  0  0  0  0  0  0  0  0  0  0  0
  -18.0190  -28.0720   22.9310 C   0  0  0  0  0  0  0  0  0  0  0  0
  -20.5750  -28.3490   23.2130 C   0  0  0  0  0  3  0  0  0  0  0  0
  -20.6870  -26.9120   22.6500 C   0  0  0  0  0  2  0  0  0  0  0  0
  -19.5930  -26.5760   21.6320 C   0  0  0  0  0  2  0  0  0  0  0  0
  -18.2060  -26.7200   22.2650 C   0  0  0  0  0  2  0  0  0  0  0  0
  -19.1300  -28.8440   23.3620 C   0  0  0  0  0  0  0  0  0  0  0  0
  -18.9000  -30.1090   23.9450 C   0  0  0  0  0  3  0  0  0  0  0  0
  -17.5920  -30.6020   24.1020 C   0  0  0  0  0  3  0  0  0  0  0  0
  -16.4940  -29.8280   23.6860 C   0  0  0  0  0  3  0  0  0  0  0  0
  -16.7080  -28.5660   23.1060 C   0  0  0  0  0  3  0  0  0  0  0  0
  -25.8740  -32.5090   23.8680 C   0  0  0  0  0  3  0  0  0  0  0  0
  -25.5620  -33.9110   24.1890 N   0  0  0  0  0  0  0  0  0  0  0  0
  -25.9000  -34.9610   23.4290 C   0  0  0  0  0  0  0  0  0  0  0  0
  -26.5760  -34.8530   22.4020 O   0  0  0  0  0  0  0  0  0  0  0  0
  -24.9650  -34.0690   24.9870 H   0  0  0  0  0  0  0  0  0  0  0  0
  -24.1800  -36.7620   23.0640 C   0  0  0  0  0  1  0  0  0  0  0  0
  -25.4150  -36.3540   23.8830 C   0  0  0  0  0  3  0  0  0  0  0  0
  -27.5490  -37.2340   24.7200 C   0  0  0  0  0  1  0  0  0  0  0  0
  -26.4510  -37.4030   23.7720 N   0  0  0  0  0  0  0  0  0  0  0  0
  -26.0480  -38.3250   23.9140 H   0  0  0  0  0  0  0  0  0  0  0  0
  -26.3790  -31.7500   25.1560 C   0  0  1  0  0  0  0  0  0  0  0  0
  -25.2770  -31.5310   26.2210 C   0  0  0  0  0  1  0  0  0  0  0  0
  -26.9570  -30.3650   24.7870 C   0  0  0  0  0  1  0  0  0  0  0  0
  -27.5280  -32.5480   25.8170 C   0  0  0  0  0  1  0  0  0  0  0  0
  1 47  2  0
  1  2  1  0
  2  3  1  0
  2  4  1  0
  5 43  1  0
  5  2  1  0
  5  6  1  0
  7  6  1  0
  8 13  1  0
  9 10  1  0
  9  8  1  0
 11 10  1  0
 11 18  1  0
 11 12  1  0
 13  7  1  0
 13 12  1  0
 14  7  2  0
 15 16  2  0
 16 35  1  0
 17 16  1  0
 17 20  1  0
 18 15  1  0
 18 19  1  0
 19 17  2  0
 20 21  1  0
 21 22  2  0
 23 26  1  0
 23 22  1  0
 24 23  2  0
 25 24  1  0
 25 20  2  0
 26 27  1  0
 27 28  1  0
 28 29  2  0
 30 29  1  0
 30 34  1  0
 31 30  2  0
 32 27  2  0
 32 31  1  0
 33 32  1  0
 35 36  1  0
 36 39  1  0
 36 38  1  0
 37 35  2  0
 40 41  1  0
 40 15  1  0
 42 40  1  0
 43 46  1  0
 44 46  1  0
 46 45  1  0
 48 49  2  0
 48 47  1  0
 50 49  1  0
 51 62  2  0
 52 50  1  0
 52 57  1  0
 53 61  1  0
 53 63  1  0
 54 60  1  0
 54 56  1  0
 55 61  1  0
 56 55  1  0
 57 56  2  0
 58 52  2  0
 59 58  1  0
 59 54  2  0
 60 53  1  0
 61 51  1  0
 63 65  2  0
 64 63  1  0
 66 64  1  0
 67 76  2  0
 67 72  1  0
 68 64  1  0
 68 72  1  0
 69 68  1  0
 70 71  1  0
 70 69  1  0
 71 67  1  0
 72 73  2  0
 73 74  1  0
 75 74  2  0
 76 75  1  0
 77 51  1  0
 77 78  1  0
 77 87  1  0
 78 81  1  0
 79 83  1  0
 79 78  1  0
 80 79  2  0
 83 82  1  0
 85 83  1  0
 85 86  1  0
 85 84  1  0
 87 90  1  1
 87 88  1  0
 89 87  1  0
M  ISO  4   6 100   7 100  49 101  50 101
M  END
>  <TORSDO>  (10) 
F 24

>  <SCORE>  (10) 
-12.514

>  <name>  (10) 
9

>  <ligand_id>  (10) 
9

>  <original_smiles>  (10) 
[H]c1c([H])c([H])c2c(c1[H])C([H])([H])C([H])([H])C([H])([H])C2([H])N([H])C(=O)C1([H])N(C(=O)C([H])(N([H])C(=O)C([H])(N([H])C([H])([H])[H])C([H])([H])[H])C(C([H])([H])[H])(C([H])([H])[H])C([H])([H])[H])C([H])([H])c2c([H])c(OC([H])([H])C([H])([H])C([H])([H])C([H])([H])[N+]([H])([H])C([H])(C([H])([H])C(=O)N3C([H])([H])C([H])([H])C([H])([H])C([H])(n4nc(-c5c([H])c([H])c(Oc6c([H])c([H])c(F)c([H])c6F)c([H])c5[H])c(C(=O)N([H])[H])c4N([H])[H])C3([H])[H])C([H])([H])C([H])(C([H])([H])[H])C([H])([H])[H])c([H])c([H])c2C1([H])[H]

>  <smiles>  (10) 
[H]c1c([H])c([H])c2c(c1[H])C([H])([H])C([H])([H])C([H])([H])C2([H])N([H])C(=O)C1([H])N(C(=O)C([H])(N([H])C(=O)C([H])(N([H])C([H])([H])[H])C([H])([H])[H])C(C([H])([H])[H])(C([H])([H])[H])C([H])([H])[H])C([H])([H])c2c([H])c(OC([H])([H])C([H])([H])C([H])([H])C([H])([H])[N+]([H])([H])C([H])(C([H])([H])C(=O)N3C([H])([H])C([H])([H])C([H])([H])C([H])(n4nc(-c5c([H])c([H])c(Oc6c([H])c([H])c(F)c([H])c6F)c([H])c5[H])c(C(=O)N([H])[H])c4N([H])[H])C3([H])[H])C([H])([H])C([H])(C([H])([H])[H])C([H])([H])[H])c([H])c([H])c2C1([H])[H]

$$$$
10:0:0
     RDKit          3D

 97104  0  0  1  0  0  0  0  0999 V2000
  -28.9520  -22.0510   20.3990 C   0  0  0  0  0  3  0  0  0  0  0  0
  -30.2000  -22.3070   21.1750 N   0  0  0  0  0  4  0  0  0  0  0  0
  -30.1450  -21.7190   21.9950 H   0  0  0  0  0  0  0  0  0  0  0  0
  -30.8910  -21.8420   20.6090 H   0  0  0  0  0  0  0  0  0  0  0  0
  -30.0480  -24.5370   22.5150 C   0  0  0  0  0  1  0  0  0  0  0  0
  -31.4210  -24.4470   20.3490 C   0  0  0  0  0  1  0  0  0  0  0  0
  -30.8030  -23.6390   21.5160 C   0  0  0  0  0  3  0  0  0  0  0  0
  -28.4560  -23.3710   19.4970 C   0  0  0  0  0  2  0  0  0  0  0  0
  -27.6100  -24.6770   20.0920 C   0  0  0  0  0  2  0  0  0  0  0  0
  -27.8490  -26.1640   19.7600 O   0  0  0  0  0  0  0  0  0  0  0  0
  -24.5040  -31.7750   23.1540 C   0  0  0  0  0  0  0  0  0  0  0  0
  -26.7920  -27.1280   19.8370 C   0  0  0  0  0  0  0  0  0  0  0  0
  -23.1810  -30.4840   21.5230 C   0  0  0  0  0  3  0  0  0  0  0  0
  -24.5080  -28.9160   19.9810 C   0  0  0  0  0  0  0  0  0  0  0  0
  -25.7290  -30.6750   21.2510 C   0  0  0  0  0  2  0  0  0  0  0  0
  -25.7290  -29.3100   20.5480 C   0  0  0  0  0  0  0  0  0  0  0  0
  -26.8720  -28.4370   20.4540 C   0  0  0  0  0  3  0  0  0  0  0  0
  -25.5460  -26.8270   19.2400 C   0  0  0  0  0  3  0  0  0  0  0  0
  -24.4260  -27.6840   19.3150 C   0  0  0  0  0  3  0  0  0  0  0  0
  -23.3200  -29.8550   20.1100 C   0  0  0  0  0  2  0  0  0  0  0  0
  -24.4930  -30.9960   22.0330 N   0  0  0  0  0  0  0  0  0  0  0  0
  -23.4520  -32.0750   23.7400 O   0  0  0  0  0  0  0  0  0  0  0  0
  -22.5150  -29.4610   22.4760 C   0  0  0  0  0  0  0  0  0  0  0  0
  -21.1880  -29.2910   22.3640 N   0  0  0  0  0  0  0  0  0  0  0  0
  -23.2000  -28.8230   23.2800 O   0  0  0  0  0  0  0  0  0  0  0  0
  -20.6930  -29.8620   21.6910 H   0  0  0  0  0  0  0  0  0  0  0  0
  -17.8190  -28.0650   22.8830 C   0  0  0  0  0  0  0  0  0  0  0  0
  -20.3780  -28.3460   23.1380 C   0  0  0  0  0  3  0  0  0  0  0  0
  -20.4840  -26.9110   22.5700 C   0  0  0  0  0  2  0  0  0  0  0  0
  -19.3810  -26.5780   21.5590 C   0  0  0  0  0  2  0  0  0  0  0  0
  -18.0010  -26.7180   22.2050 C   0  0  0  0  0  2  0  0  0  0  0  0
  -18.9360  -28.8360   23.3090 C   0  0  0  0  0  0  0  0  0  0  0  0
  -18.7100  -30.0950   23.9080 C   0  0  0  0  0  3  0  0  0  0  0  0
  -17.4020  -30.5850   24.0840 C   0  0  0  0  0  3  0  0  0  0  0  0
  -16.3030  -29.8150   23.6670 C   0  0  0  0  0  3  0  0  0  0  0  0
  -16.5120  -28.5570   23.0760 C   0  0  0  0  0  3  0  0  0  0  0  0
  -25.8340  -32.3410   23.7430 C   0  0  0  0  0  3  0  0  0  0  0  0
  -25.5950  -33.7480   24.1050 N   0  0  0  0  0  0  0  0  0  0  0  0
  -25.9580  -34.8000   23.3600 C   0  0  0  0  0  0  0  0  0  0  0  0
  -26.6020  -34.6870   22.3140 O   0  0  0  0  0  0  0  0  0  0  0  0
  -25.0530  -33.9130   24.9410 H   0  0  0  0  0  0  0  0  0  0  0  0
  -24.3460  -36.7030   23.0340 C   0  0  0  0  0  1  0  0  0  0  0  0
  -25.5450  -36.2000   23.8550 C   0  0  0  0  0  3  0  0  0  0  0  0
  -27.7120  -36.9460   24.7400 C   0  0  0  0  0  1  0  0  0  0  0  0
  -26.6380  -37.1920   23.7800 N   0  0  0  0  0  0  0  0  0  0  0  0
  -26.2840  -38.1320   23.9370 H   0  0  0  0  0  0  0  0  0  0  0  0
  -26.3600  -31.5310   24.9910 C   0  0  1  0  0  0  0  0  0  0  0  0
  -25.3050  -31.3310   26.1020 C   0  0  0  0  0  1  0  0  0  0  0  0
  -26.8710  -30.1330   24.5740 C   0  0  0  0  0  1  0  0  0  0  0  0
  -27.5620  -32.2710   25.6220 C   0  0  0  0  0  1  0  0  0  0  0  0
  -29.3210  -20.5530   19.7340 C   0  0  0  0  0  3  0  0  0  0  0  0
  -29.5640  -19.2940   20.6280 N   0  0  0  0  0  4  0  0  0  0  0  0
  -28.7780  -19.1320   21.2530 H   0  0  0  0  0  0  0  0  0  0  0  0
  -31.1730  -18.1160   19.0700 C   0  0  0  0  0  1  0  0  0  0  0  0
  -30.3420  -17.9590   20.3410 C   0  0  0  0  0  0  0  0  0  0  0  0
  -29.6840  -16.4210   20.4390 C   0  0  0  0  0  2  0  0  0  0  0  0
  -30.5090  -14.9840   20.3340 C   0  0  0  0  0  0  0  0  0  0  0  0
  -30.3980  -12.6360   19.4140 C   0  0  0  0  0  2  0  0  0  0  0  0
  -29.4790  -12.6100   18.1700 C   0  0  0  0  0  2  0  0  0  0  0  0
  -28.0230  -12.3480   18.5900 C   0  0  0  0  0  2  0  0  0  0  0  0
  -27.5750  -13.2780   19.7460 C   0  0  0  0  0  3  0  0  0  0  0  0
  -28.6200  -13.3460   20.8830 C   0  0  0  0  0  2  0  0  0  0  0  0
  -29.9160  -13.7260   20.3040 N   0  0  0  0  0  0  0  0  0  0  0  0
  -31.7200  -15.0220   20.0950 O   0  0  0  0  0  0  0  0  0  0  0  0
  -25.1700  -13.7940   20.4640 C   0  0  0  0  0  0  0  0  0  0  0  0
  -24.1220  -13.0000   20.8210 C   0  0  0  0  0  0  0  0  0  0  0  0
  -24.6170  -11.6570   20.8050 C   0  0  0  0  0  0  0  0  0  0  0  0
  -26.2410  -12.9450   20.2380 N   0  0  0  0  0  0  0  0  0  0  0  0
  -25.9150  -11.6540   20.5090 N   0  0  0  0  0  0  0  0  0  0  0  0
  -23.9160  -10.3820   20.9940 C   0  0  0  0  0  0  0  0  0  0  0  0
  -24.3350   -9.4390   21.9590 C   0  0  0  0  0  3  0  0  0  0  0  0
  -23.6310   -8.2270   22.1330 C   0  0  0  0  0  3  0  0  0  0  0  0
  -22.4950   -7.9450   21.3340 C   0  0  0  0  0  0  0  0  0  0  0  0
  -22.0970   -8.8740   20.3570 C   0  0  0  0  0  3  0  0  0  0  0  0
  -22.8030  -10.0760   20.1840 C   0  0  0  0  0  3  0  0  0  0  0  0
  -21.7690   -6.7830   21.4140 O   0  0  0  0  0  0  0  0  0  0  0  0
  -21.6760   -6.0710   22.5830 C   0  0  0  0  0  0  0  0  0  0  0  0
  -21.1170   -6.6320   23.7530 C   0  0  0  0  0  3  0  0  0  0  0  0
  -20.9740   -5.8430   24.9130 C   0  0  0  0  0  3  0  0  0  0  0  0
  -21.3790   -4.4950   24.9010 C   0  0  0  0  0  0  0  0  0  0  0  0
  -21.9260   -3.9320   23.7350 C   0  0  0  0  0  3  0  0  0  0  0  0
  -22.0700   -4.7180   22.5790 C   0  0  0  0  0  0  0  0  0  0  0  0
  -22.5830   -4.1680   21.4530 F   0  0  0  0  0  0  0  0  0  0  0  0
  -21.2340   -3.7330   26.0100 F   0  0  0  0  0  0  0  0  0  0  0  0
  -22.7070  -13.4450   21.0700 C   0  0  0  0  0  0  0  0  0  0  0  0
  -21.9740  -12.7410   21.9240 N   0  0  0  0  0  0  0  0  0  0  0  0
  -22.2560  -14.4630   20.5390 O   0  0  0  0  0  0  0  0  0  0  0  0
  -22.3540  -11.9240   22.3840 H   0  0  0  0  0  0  0  0  0  0  0  0
  -21.0290  -13.0300   22.1330 H   0  0  0  0  0  0  0  0  0  0  0  0
  -25.3010  -15.1710   20.2950 N   0  0  0  0  0  0  0  0  0  0  0  0
  -24.5090  -15.7980   20.3950 H   0  0  0  0  0  0  0  0  0  0  0  0
  -26.1480  -15.6380   19.9970 H   0  0  0  0  0  0  0  0  0  0  0  0
  -28.2500  -20.1460   18.7010 C   0  0  0  0  0  2  0  0  0  0  0  0
  -28.6200  -20.2660   17.2000 C   0  0  0  0  0  2  0  0  0  0  0  0
  -29.6090  -21.3630   16.6770 C   0  0  0  0  0  2  0  0  0  0  0  0
  -31.9140  -21.5710   15.4020 C   0  0  0  0  0  1  0  0  0  0  0  0
  -31.0660  -20.8690   16.4800 C   0  0  0  0  0  2  0  0  0  0  0  0
  1  8  1  0
  1  2  1  0
  2  7  1  0
  2  3  1  0
  4  2  1  0
  6  7  1  0
  7  5  1  0
  8  9  1  0
 10 12  1  0
 10  9  1  0
 11 22  2  0
 12 17  1  0
 13 21  1  0
 13 23  1  0
 14 20  1  0
 14 16  1  0
 15 21  1  0
 16 15  1  0
 17 16  2  0
 18 19  1  0
 18 12  2  0
 19 14  2  0
 20 13  1  0
 21 11  1  0
 23 25  2  0
 24 23  1  0
 26 24  1  0
 27 36  2  0
 27 32  1  0
 28 24  1  0
 28 32  1  0
 29 28  1  0
 30 31  1  0
 30 29  1  0
 31 27  1  0
 32 33  2  0
 33 34  1  0
 35 34  2  0
 36 35  1  0
 37 11  1  0
 37 38  1  0
 37 47  1  0
 38 41  1  0
 39 43  1  0
 39 38  1  0
 40 39  2  0
 43 42  1  0
 45 43  1  0
 45 46  1  0
 45 44  1  0
 47 50  1  1
 47 48  1  0
 49 47  1  0
 51 93  1  0
 51  1  1  0
 51 52  1  0
 52 53  1  0
 54 55  1  0
 55 56  1  0
 55 52  2  0
 57 56  1  0
 58 63  1  0
 59 60  1  0
 59 58  1  0
 61 60  1  0
 61 68  1  0
 61 62  1  0
 63 57  1  0
 63 62  1  0
 64 57  2  0
 65 66  2  0
 66 85  1  0
 67 66  1  0
 67 70  1  0
 68 65  1  0
 68 69  1  0
 69 67  2  0
 70 71  1  0
 71 72  2  0
 73 76  1  0
 73 72  1  0
 74 73  2  0
 75 74  1  0
 75 70  2  0
 76 77  1  0
 77 78  1  0
 78 79  2  0
 80 79  1  0
 80 84  1  0
 81 80  2  0
 82 77  2  0
 82 81  1  0
 83 82  1  0
 85 86  1  0
 86 89  1  0
 86 88  1  0
 87 85  2  0
 90 91  1  0
 90 65  1  0
 92 90  1  0
 94 93  1  0
 95 94  1  0
 96 97  1  0
 97 95  1  0
M  ISO  4   9 101  10 101  56 100  57 100
M  END
>  <TORSDO>  (11) 
F 28

>  <SCORE>  (11) 
-11.138

>  <name>  (11) 
10

>  <ligand_id>  (11) 
10

>  <original_smiles>  (11) 
[H]c1c([H])c([H])c2c(c1[H])C([H])([H])C([H])([H])C([H])([H])C2([H])N([H])C(=O)C1([H])N(C(=O)C([H])(N([H])C(=O)C([H])(N([H])C([H])([H])[H])C([H])([H])[H])C(C([H])([H])[H])(C([H])([H])[H])C([H])([H])[H])C([H])([H])c2c([H])c(OC([H])([H])C([H])([H])C([H])(C([H])(N([H])C([H])(C([H])([H])[H])C([H])([H])C(=O)N3C([H])([H])C([H])([H])C([H])([H])C([H])(n4nc(-c5c([H])c([H])c(Oc6c([H])c([H])c(F)c([H])c6F)c([H])c5[H])c(C(=O)N([H])[H])c4N([H])[H])C3([H])[H])C([H])([H])C([H])([H])C([H])([H])C([H])([H])C([H])([H])[H])[N+]([H])([H])C([H])(C([H])([H])[H])C([H])([H])[H])c([H])c([H])c2C1([H])[H]

>  <smiles>  (11) 
[H]c1c([H])c([H])c2c(c1[H])C([H])([H])C([H])([H])C([H])([H])C2([H])N([H])C(=O)C1([H])N(C(=O)C([H])(N([H])C(=O)C([H])(N([H])C([H])([H])[H])C([H])([H])[H])C(C([H])([H])[H])(C([H])([H])[H])C([H])([H])[H])C([H])([H])c2c([H])c(OC([H])([H])C([H])([H])C([H])(C([H])(N([H])C([H])(C([H])([H])[H])C([H])([H])C(=O)N3C([H])([H])C([H])([H])C([H])([H])C([H])(n4nc(-c5c([H])c([H])c(Oc6c([H])c([H])c(F)c([H])c6F)c([H])c5[H])c(C(=O)N([H])[H])c4N([H])[H])C3([H])[H])C([H])([H])C([H])([H])C([H])([H])C([H])([H])C([H])([H])[H])[N+]([H])([H])C([H])(C([H])([H])[H])C([H])([H])[H])c([H])c([H])c2C1([H])[H]

$$$$
11:0:0
     RDKit          3D

 96105  0  0  1  0  0  0  0  0999 V2000
  -29.8690  -18.6960   16.9700 C   0  0  0  0  0  1  0  0  0  0  0  0
  -28.8650  -18.3160   18.0790 C   0  0  0  0  0  3  0  0  0  0  0  0
  -32.1950  -20.2600   23.4790 C   0  0  0  0  0  2  0  0  0  0  0  0
  -33.2670  -19.9870   22.4150 C   0  0  0  0  0  2  0  0  0  0  0  0
  -31.1340  -19.1450   23.4900 C   0  0  0  0  0  2  0  0  0  0  0  0
  -32.6390  -19.8240   21.0230 C   0  0  0  0  0  2  0  0  0  0  0  0
  -29.4200  -17.8740   22.0440 C   0  0  0  0  0  2  0  0  0  0  0  0
  -28.7100  -17.8690   20.6660 C   0  0  0  0  0  2  0  0  0  0  0  0
  -30.8040  -18.7570   19.6380 C   0  0  0  0  0  2  0  0  0  0  0  0
  -30.4760  -18.9940   22.1050 C   0  0  0  0  0  3  0  0  0  0  0  0
  -31.5240  -18.7560   21.0040 C   0  0  0  0  0  3  0  0  0  0  0  0
  -29.6570  -17.6930   19.4400 C   0  0  2  0  0  0  0  0  0  0  0  0
  -30.4480  -16.2000   19.4560 C   0  0  0  0  0  0  0  0  0  0  0  0
  -30.8260  -13.6920   19.4750 C   0  0  0  0  0  2  0  0  0  0  0  0
  -30.0480  -13.0150   18.3230 C   0  0  0  0  0  2  0  0  0  0  0  0
  -28.6180  -12.6590   18.7740 C   0  0  0  0  0  2  0  0  0  0  0  0
  -27.9330  -13.8220   19.5410 C   0  0  0  0  0  3  0  0  0  0  0  0
  -28.8690  -14.4510   20.5970 C   0  0  0  0  0  2  0  0  0  0  0  0
  -30.0790  -14.9210   19.9040 N   0  0  0  0  0  0  0  0  0  0  0  0
  -31.5930  -16.2380   18.9950 O   0  0  0  0  0  0  0  0  0  0  0  0
  -25.5870  -14.2140   20.4950 C   0  0  0  0  0  0  0  0  0  0  0  0
  -24.5920  -13.3570   20.8860 C   0  0  0  0  0  0  0  0  0  0  0  0
  -25.1180  -12.0400   20.7180 C   0  0  0  0  0  0  0  0  0  0  0  0
  -26.6500  -13.4130   20.1120 N   0  0  0  0  0  0  0  0  0  0  0  0
  -26.3820  -12.0950   20.3070 N   0  0  0  0  0  0  0  0  0  0  0  0
  -24.4660  -10.7300   20.8680 C   0  0  0  0  0  0  0  0  0  0  0  0
  -24.7900   -9.8590   21.9340 C   0  0  0  0  0  3  0  0  0  0  0  0
  -24.1350   -8.6160   22.0690 C   0  0  0  0  0  3  0  0  0  0  0  0
  -23.1420   -8.2330   21.1370 C   0  0  0  0  0  0  0  0  0  0  0  0
  -22.8390   -9.0920   20.0650 C   0  0  0  0  0  3  0  0  0  0  0  0
  -23.4970  -10.3260   19.9290 C   0  0  0  0  0  3  0  0  0  0  0  0
  -22.4730   -7.0320   21.1730 O   0  0  0  0  0  0  0  0  0  0  0  0
  -22.0300   -6.4910   22.3540 C   0  0  0  0  0  0  0  0  0  0  0  0
  -21.0970   -7.1590   23.1770 C   0  0  0  0  0  3  0  0  0  0  0  0
  -20.6150   -6.5360   24.3470 C   0  0  0  0  0  3  0  0  0  0  0  0
  -21.0560   -5.2460   24.6900 C   0  0  0  0  0  0  0  0  0  0  0  0
  -21.9810   -4.5760   23.8700 C   0  0  0  0  0  3  0  0  0  0  0  0
  -22.4650   -5.1950   22.7040 C   0  0  0  0  0  0  0  0  0  0  0  0
  -23.3400   -4.5380   21.9060 F   0  0  0  0  0  0  0  0  0  0  0  0
  -20.5880   -4.6430   25.8080 F   0  0  0  0  0  0  0  0  0  0  0  0
  -23.2000  -13.7400   21.2940 C   0  0  0  0  0  0  0  0  0  0  0  0
  -22.5740  -12.9560   22.1640 N   0  0  0  0  0  0  0  0  0  0  0  0
  -22.6720  -14.7700   20.8760 O   0  0  0  0  0  0  0  0  0  0  0  0
  -23.0140  -12.1270   22.5330 H   0  0  0  0  0  0  0  0  0  0  0  0
  -21.6400  -13.1920   22.4690 H   0  0  0  0  0  0  0  0  0  0  0  0
  -25.6680  -15.6000   20.4100 N   0  0  0  0  0  0  0  0  0  0  0  0
  -24.8760  -16.1940   20.6280 H   0  0  0  0  0  0  0  0  0  0  0  0
  -26.4580  -16.1070   20.0310 H   0  0  0  0  0  0  0  0  0  0  0  0
  -27.7840  -19.4700   18.2520 N   0  0  0  0  0  4  0  0  0  0  0  0
  -26.8850  -19.0220   18.1740 H   0  0  0  0  0  0  0  0  0  0  0  0
  -27.8540  -19.7860   19.2050 H   0  0  0  0  0  0  0  0  0  0  0  0
  -27.6890  -20.7870   17.3870 C   0  0  0  0  0  2  0  0  0  0  0  0
  -26.7650  -22.1030   17.8560 C   0  0  0  0  0  2  0  0  0  0  0  0
  -26.9960  -23.6900   17.3760 C   0  0  0  0  0  3  0  0  0  0  0  0
  -26.3720  -25.0190   18.1620 C   0  0  0  0  0  3  0  0  0  0  0  0
  -26.7510  -26.4990   17.9550 O   0  0  0  0  0  0  0  0  0  0  0  0
  -25.6570  -30.7340   23.8610 C   0  0  0  0  0  0  0  0  0  0  0  0
  -26.0520  -27.5490   18.6290 C   0  0  0  0  0  0  0  0  0  0  0  0
  -23.8100  -30.5370   22.2400 C   0  0  0  0  0  3  0  0  0  0  0  0
  -24.4160  -29.5320   19.9570 C   0  0  0  0  0  0  0  0  0  0  0  0
  -26.2480  -30.3150   21.4510 C   0  0  0  0  0  2  0  0  0  0  0  0
  -25.7640  -29.4020   20.3150 C   0  0  0  0  0  0  0  0  0  0  0  0
  -26.5900  -28.4340   19.6390 C   0  0  0  0  0  3  0  0  0  0  0  0
  -24.7050  -27.7730   18.2800 C   0  0  0  0  0  3  0  0  0  0  0  0
  -23.8970  -28.7300   18.9270 C   0  0  0  0  0  3  0  0  0  0  0  0
  -23.5610  -30.5410   20.7090 C   0  0  0  0  0  2  0  0  0  0  0  0
  -25.2730  -30.5170   22.5660 N   0  0  0  0  0  0  0  0  0  0  0  0
  -24.8250  -30.9690   24.7520 O   0  0  0  0  0  0  0  0  0  0  0  0
  -23.0250  -29.3650   22.8790 C   0  0  0  0  0  0  0  0  0  0  0  0
  -21.6900  -29.3720   22.7270 N   0  0  0  0  0  0  0  0  0  0  0  0
  -23.6200  -28.4630   23.4730 O   0  0  0  0  0  0  0  0  0  0  0  0
  -21.2740  -30.1510   22.2370 H   0  0  0  0  0  0  0  0  0  0  0  0
  -18.2650  -28.2080   22.5580 C   0  0  0  0  0  0  0  0  0  0  0  0
  -20.7660  -28.3420   23.2050 C   0  0  0  0  0  3  0  0  0  0  0  0
  -20.9350  -27.0280   22.4080 C   0  0  0  0  0  2  0  0  0  0  0  0
  -19.9790  -26.9180   21.2150 C   0  0  0  0  0  2  0  0  0  0  0  0
  -18.5220  -26.9920   21.6840 C   0  0  0  0  0  2  0  0  0  0  0  0
  -19.3210  -28.8520   23.2590 C   0  0  0  0  0  0  0  0  0  0  0  0
  -19.0320  -29.9990   24.0310 C   0  0  0  0  0  3  0  0  0  0  0  0
  -17.7210  -30.5030   24.1060 C   0  0  0  0  0  3  0  0  0  0  0  0
  -16.6770  -29.8530   23.4230 C   0  0  0  0  0  3  0  0  0  0  0  0
  -16.9490  -28.7060   22.6550 C   0  0  0  0  0  3  0  0  0  0  0  0
  -27.1580  -30.7210   24.2820 C   0  0  0  0  0  3  0  0  0  0  0  0
  -27.3600  -31.8110   25.2490 N   0  0  0  0  0  0  0  0  0  0  0  0
  -27.9240  -32.9910   24.9650 C   0  0  0  0  0  0  0  0  0  0  0  0
  -28.3950  -33.2560   23.8560 O   0  0  0  0  0  0  0  0  0  0  0  0
  -26.9520  -31.6870   26.1640 H   0  0  0  0  0  0  0  0  0  0  0  0
  -26.8710  -35.0900   25.8700 C   0  0  0  0  0  1  0  0  0  0  0  0
  -27.9760  -34.0440   26.0900 C   0  0  0  0  0  3  0  0  0  0  0  0
  -30.3480  -33.8520   26.6950 C   0  0  0  0  0  1  0  0  0  0  0  0
  -29.2870  -34.7240   26.2010 N   0  0  0  0  0  0  0  0  0  0  0  0
  -29.2240  -35.5310   26.8150 H   0  0  0  0  0  0  0  0  0  0  0  0
  -27.6180  -29.3430   24.8980 C   0  0  1  0  0  0  0  0  0  0  0  0
  -26.7170  -28.8470   26.0540 C   0  0  0  0  0  1  0  0  0  0  0  0
  -27.6480  -28.2380   23.8170 C   0  0  0  0  0  1  0  0  0  0  0  0
  -29.0620  -29.4710   25.4380 C   0  0  0  0  0  1  0  0  0  0  0  0
  2  1  1  0
  2 49  1  0
 12  2  1  6
  3  5  1  0
  4  3  1  0
  6  4  1  0
  8  7  1  0
 10  7  1  0
 10  5  1  0
 11  9  1  0
 11  6  1  0
 11 10  1  0
 12 13  1  0
 12  9  1  0
 12  8  1  0
 13 19  1  0
 14 19  1  0
 15 16  1  0
 15 14  1  0
 17 16  1  0
 17 24  1  0
 17 18  1  0
 19 18  1  0
 20 13  2  0
 21 22  2  0
 22 41  1  0
 23 26  1  0
 23 22  1  0
 24 25  1  0
 24 21  1  0
 25 23  2  0
 26 27  1  0
 27 28  2  0
 29 32  1  0
 29 28  1  0
 30 29  2  0
 31 30  1  0
 31 26  2  0
 32 33  1  0
 33 38  2  0
 33 34  1  0
 34 35  2  0
 35 36  1  0
 36 40  1  0
 37 36  2  0
 38 37  1  0
 39 38  1  0
 41 42  1  0
 42 45  1  0
 42 44  1  0
 43 41  2  0
 46 21  1  0
 46 47  1  0
 48 46  1  0
 49 51  1  0
 50 49  1  0
 52 53  1  0
 52 49  1  0
 54 53  1  0
 54 55  2  0
 56 55  1  0
 56 58  1  0
 57 68  2  0
 58 63  1  0
 59 67  1  0
 59 69  1  0
 60 62  1  0
 60 66  1  0
 61 67  1  0
 62 61  1  0
 63 62  2  0
 64 58  2  0
 64 65  1  0
 65 60  2  0
 66 59  1  0
 67 57  1  0
 69 71  2  0
 70 69  1  0
 72 70  1  0
 73 82  2  0
 73 78  1  0
 74 70  1  0
 74 78  1  0
 75 74  1  0
 76 77  1  0
 76 75  1  0
 77 73  1  0
 78 79  2  0
 79 80  1  0
 81 80  2  0
 82 81  1  0
 83 57  1  0
 83 93  1  0
 83 84  1  0
 84 87  1  0
 85 84  1  0
 85 89  1  0
 86 85  2  0
 89 88  1  0
 89 91  1  0
 91 90  1  0
 91 92  1  0
 93 96  1  1
 93 94  1  0
 95 93  1  0
M  ISO  4  12 100  13 100  55 101  56 101
M  END
>  <TORSDO>  (12) 
F 22

>  <SCORE>  (12) 
-9.399

>  <name>  (12) 
11

>  <ligand_id>  (12) 
11

>  <original_smiles>  (12) 
[H]c1c([H])c([H])c2c(c1[H])C([H])([H])C([H])([H])C([H])([H])C2([H])N([H])C(=O)C1([H])N(C(=O)C([H])(N([H])C(=O)C([H])(N([H])C([H])([H])[H])C([H])([H])[H])C(C([H])([H])[H])(C([H])([H])[H])C([H])([H])[H])C([H])([H])c2c([H])c(OC([H])([H])C([H])([H])C([H])([H])C([H])([H])[N+]([H])([H])C([H])(C([H])([H])[H])C3(C(=O)N4C([H])([H])C([H])([H])C([H])([H])C([H])(n5nc(-c6c([H])c([H])c(Oc7c([H])c([H])c(F)c([H])c7F)c([H])c6[H])c(C(=O)N([H])[H])c5N([H])[H])C4([H])[H])C([H])([H])C([H])([H])C4([H])C([H])([H])C([H])([H])C([H])([H])C([H])([H])C4([H])C3([H])[H])c([H])c([H])c2C1([H])[H]

>  <smiles>  (12) 
[H]c1c([H])c([H])c2c(c1[H])C([H])([H])C([H])([H])C([H])([H])C2([H])N([H])C(=O)C1([H])N(C(=O)C([H])(N([H])C(=O)C([H])(N([H])C([H])([H])[H])C([H])([H])[H])C(C([H])([H])[H])(C([H])([H])[H])C([H])([H])[H])C([H])([H])c2c([H])c(OC([H])([H])C([H])([H])C([H])([H])C([H])([H])[N+]([H])([H])C([H])(C([H])([H])[H])C3(C(=O)N4C([H])([H])C([H])([H])C([H])([H])C([H])(n5nc(-c6c([H])c([H])c(Oc7c([H])c([H])c(F)c([H])c7F)c([H])c6[H])c(C(=O)N([H])[H])c5N([H])[H])C4([H])[H])C([H])([H])C([H])([H])C4([H])C([H])([H])C([H])([H])C([H])([H])C([H])([H])C4([H])C3([H])[H])c([H])c([H])c2C1([H])[H]

$$$$
12:0:0
     RDKit          3D

 89 98  0  0  1  0  0  0  0  0999 V2000
  -29.6120  -20.5820   18.6460 C   0  0  0  0  0  2  0  0  0  0  0  0
  -29.6760  -18.9960   18.7760 C   0  0  0  0  0  2  0  0  0  0  0  0
  -29.7780  -21.0000   21.7940 C   0  0  0  0  0  2  0  0  0  0  0  0
  -28.7000  -21.1970   19.7510 C   0  0  0  0  0  3  0  0  0  0  0  0
  -29.0400  -20.0030   20.8290 C   0  0  0  0  0  3  0  0  0  0  0  0
  -29.8250  -18.5570   20.2630 C   0  0  0  0  0  3  0  0  0  0  0  0
  -28.9410  -22.8220   20.2790 C   0  0  0  0  0  3  0  0  0  0  0  0
  -29.2150  -22.4150   21.6930 N   0  0  0  0  0  4  0  0  0  0  0  0
  -29.8410  -23.0700   22.1350 H   0  0  0  0  0  0  0  0  0  0  0  0
  -28.3490  -22.4360   22.2070 H   0  0  0  0  0  0  0  0  0  0  0  0
  -29.5720  -16.8140   20.6310 C   0  0  0  0  0  2  0  0  0  0  0  0
  -30.4090  -15.3120   20.3010 C   0  0  0  0  0  0  0  0  0  0  0  0
  -30.3860  -12.8800   19.3850 C   0  0  0  0  0  2  0  0  0  0  0  0
  -29.4560  -12.7460   18.1520 C   0  0  0  0  0  2  0  0  0  0  0  0
  -28.0000  -12.4930   18.5830 C   0  0  0  0  0  2  0  0  0  0  0  0
  -27.5720  -13.4260   19.7440 C   0  0  0  0  0  3  0  0  0  0  0  0
  -28.6260  -13.5060   20.8670 C   0  0  0  0  0  2  0  0  0  0  0  0
  -29.8750  -13.9940   20.2620 N   0  0  0  0  0  0  0  0  0  0  0  0
  -31.6090  -15.3410   19.9890 O   0  0  0  0  0  0  0  0  0  0  0  0
  -25.2020  -13.9910   20.5040 C   0  0  0  0  0  0  0  0  0  0  0  0
  -24.1390  -13.2160   20.8740 C   0  0  0  0  0  0  0  0  0  0  0  0
  -24.6010  -11.8650   20.8380 C   0  0  0  0  0  0  0  0  0  0  0  0
  -26.2420  -13.1130   20.2530 N   0  0  0  0  0  0  0  0  0  0  0  0
  -25.8920  -11.8270   20.5220 N   0  0  0  0  0  0  0  0  0  0  0  0
  -23.8700  -10.6040   21.0270 C   0  0  0  0  0  0  0  0  0  0  0  0
  -24.2990   -9.6320   21.9580 C   0  0  0  0  0  3  0  0  0  0  0  0
  -23.5650   -8.4390   22.1370 C   0  0  0  0  0  3  0  0  0  0  0  0
  -22.3890   -8.2090   21.3860 C   0  0  0  0  0  0  0  0  0  0  0  0
  -21.9790   -9.1680   20.4430 C   0  0  0  0  0  3  0  0  0  0  0  0
  -22.7140  -10.3530   20.2630 C   0  0  0  0  0  3  0  0  0  0  0  0
  -21.6280   -7.0690   21.4740 O   0  0  0  0  0  0  0  0  0  0  0  0
  -21.5740   -6.3260   22.6250 C   0  0  0  0  0  0  0  0  0  0  0  0
  -21.1350   -6.8780   23.8490 C   0  0  0  0  0  3  0  0  0  0  0  0
  -21.0290   -6.0610   24.9920 C   0  0  0  0  0  3  0  0  0  0  0  0
  -21.3520   -4.6940   24.9140 C   0  0  0  0  0  0  0  0  0  0  0  0
  -21.7830   -4.1410   23.6960 C   0  0  0  0  0  3  0  0  0  0  0  0
  -21.8910   -4.9540   22.5550 C   0  0  0  0  0  0  0  0  0  0  0  0
  -22.2870   -4.4110   21.3770 F   0  0  0  0  0  0  0  0  0  0  0  0
  -21.2420   -3.9070   26.0100 F   0  0  0  0  0  0  0  0  0  0  0  0
  -22.7440  -13.6970   21.1460 C   0  0  0  0  0  0  0  0  0  0  0  0
  -22.0150  -13.0050   22.0140 N   0  0  0  0  0  0  0  0  0  0  0  0
  -22.3100  -14.7220   20.6240 O   0  0  0  0  0  0  0  0  0  0  0  0
  -22.3800  -12.1760   22.4600 H   0  0  0  0  0  0  0  0  0  0  0  0
  -21.0780  -13.3090   22.2380 H   0  0  0  0  0  0  0  0  0  0  0  0
  -25.3690  -15.3620   20.3330 N   0  0  0  0  0  0  0  0  0  0  0  0
  -24.6040  -16.0170   20.4570 H   0  0  0  0  0  0  0  0  0  0  0  0
  -26.2190  -15.8030   20.0080 H   0  0  0  0  0  0  0  0  0  0  0  0
  -27.9740  -24.3310   20.0720 C   0  0  0  0  0  2  0  0  0  0  0  0
  -28.2230  -25.9490   20.2360 O   0  0  0  0  0  0  0  0  0  0  0  0
  -24.6640  -31.8770   23.2330 C   0  0  0  0  0  0  0  0  0  0  0  0
  -27.2040  -27.0320   20.1770 C   0  0  0  0  0  0  0  0  0  0  0  0
  -23.4590  -30.4880   21.5960 C   0  0  0  0  0  3  0  0  0  0  0  0
  -24.8980  -28.8960   20.1550 C   0  0  0  0  0  0  0  0  0  0  0  0
  -26.0230  -30.7080   21.4320 C   0  0  0  0  0  2  0  0  0  0  0  0
  -26.0890  -29.3040   20.7680 C   0  0  0  0  0  0  0  0  0  0  0  0
  -27.2370  -28.3930   20.7520 C   0  0  0  0  0  3  0  0  0  0  0  0
  -25.9810  -26.7710   19.5170 C   0  0  0  0  0  3  0  0  0  0  0  0
  -24.8680  -27.6490   19.5100 C   0  0  0  0  0  3  0  0  0  0  0  0
  -23.6780  -29.8130   20.2150 C   0  0  0  0  0  2  0  0  0  0  0  0
  -24.7360  -31.0510   22.1410 N   0  0  0  0  0  0  0  0  0  0  0  0
  -23.5780  -32.1640   23.7640 O   0  0  0  0  0  0  0  0  0  0  0  0
  -22.7720  -29.4870   22.5610 C   0  0  0  0  0  0  0  0  0  0  0  0
  -21.4430  -29.3140   22.4370 N   0  0  0  0  0  0  0  0  0  0  0  0
  -23.4430  -28.8650   23.3900 O   0  0  0  0  0  0  0  0  0  0  0  0
  -20.9560  -29.8670   21.7450 H   0  0  0  0  0  0  0  0  0  0  0  0
  -18.0700  -28.0730   22.9360 C   0  0  0  0  0  0  0  0  0  0  0  0
  -20.6260  -28.3710   23.2080 C   0  0  0  0  0  3  0  0  0  0  0  0
  -20.7470  -26.9370   22.6410 C   0  0  0  0  0  2  0  0  0  0  0  0
  -19.6520  -26.5970   21.6240 C   0  0  0  0  0  2  0  0  0  0  0  0
  -18.2660  -26.7250   22.2620 C   0  0  0  0  0  2  0  0  0  0  0  0
  -19.1780  -28.8520   23.3650 C   0  0  0  0  0  0  0  0  0  0  0  0
  -18.9380  -30.1100   23.9590 C   0  0  0  0  0  3  0  0  0  0  0  0
  -17.6260  -30.5910   24.1250 C   0  0  0  0  0  3  0  0  0  0  0  0
  -16.5340  -29.8100   23.7100 C   0  0  0  0  0  3  0  0  0  0  0  0
  -16.7560  -28.5530   23.1220 C   0  0  0  0  0  3  0  0  0  0  0  0
  -25.9400  -32.5170   23.8600 C   0  0  0  0  0  3  0  0  0  0  0  0
  -25.6290  -33.9190   24.1910 N   0  0  0  0  0  0  0  0  0  0  0  0
  -25.9510  -34.9750   23.4340 C   0  0  0  0  0  0  0  0  0  0  0  0
  -26.6060  -34.8740   22.3930 O   0  0  0  0  0  0  0  0  0  0  0  0
  -25.0470  -34.0710   25.0020 H   0  0  0  0  0  0  0  0  0  0  0  0
  -24.2190  -36.7770   23.1210 C   0  0  0  0  0  1  0  0  0  0  0  0
  -25.4760  -36.3660   23.9040 C   0  0  0  0  0  3  0  0  0  0  0  0
  -27.6260  -37.2550   24.6940 C   0  0  0  0  0  1  0  0  0  0  0  0
  -26.5080  -37.4190   23.7690 N   0  0  0  0  0  0  0  0  0  0  0  0
  -26.1050  -38.3400   23.9200 H   0  0  0  0  0  0  0  0  0  0  0  0
  -26.4440  -31.7550   25.1480 C   0  0  1  0  0  0  0  0  0  0  0  0
  -25.3450  -31.5330   26.2150 C   0  0  0  0  0  1  0  0  0  0  0  0
  -27.0230  -30.3700   24.7800 C   0  0  0  0  0  1  0  0  0  0  0  0
  -27.5970  -32.5500   25.8080 C   0  0  0  0  0  1  0  0  0  0  0  0
  1  2  1  0
  2  6  1  0
  4  1  1  0
  4  7  1  0
  4  5  1  0
  5  3  1  0
  6 11  1  0
  6  5  1  0
  7 48  1  0
  7  8  1  0
  8  3  1  0
  8  9  1  0
  8 10  1  0
 12 11  1  0
 13 18  1  0
 14 15  1  0
 14 13  1  0
 16 15  1  0
 16 23  1  0
 16 17  1  0
 18 12  1  0
 18 17  1  0
 19 12  2  0
 20 21  2  0
 21 40  1  0
 22 21  1  0
 22 25  1  0
 23 20  1  0
 23 24  1  0
 24 22  2  0
 25 26  1  0
 26 27  2  0
 28 31  1  0
 28 27  1  0
 29 28  2  0
 30 29  1  0
 30 25  2  0
 31 32  1  0
 32 33  1  0
 33 34  2  0
 35 34  1  0
 35 39  1  0
 36 35  2  0
 37 32  2  0
 37 36  1  0
 38 37  1  0
 40 41  1  0
 41 44  1  0
 41 43  1  0
 42 40  2  0
 45 46  1  0
 45 20  1  0
 47 45  1  0
 48 49  1  0
 50 61  2  0
 51 49  1  0
 51 56  1  0
 52 60  1  0
 52 62  1  0
 53 59  1  0
 53 55  1  0
 54 60  1  0
 55 54  1  0
 56 55  2  0
 57 51  2  0
 58 57  1  0
 58 53  2  0
 59 52  1  0
 60 50  1  0
 62 64  2  0
 63 62  1  0
 65 63  1  0
 66 75  2  0
 66 71  1  0
 67 63  1  0
 67 71  1  0
 68 67  1  0
 69 70  1  0
 69 68  1  0
 70 66  1  0
 71 72  2  0
 72 73  1  0
 74 73  2  0
 75 74  1  0
 76 50  1  0
 76 77  1  0
 76 86  1  0
 77 80  1  0
 78 82  1  0
 78 77  1  0
 79 78  2  0
 82 81  1  0
 84 82  1  0
 84 85  1  0
 84 83  1  0
 86 89  1  1
 86 87  1  0
 88 86  1  0
M  ISO  4  11 100  12 100  48 101  49 101
M  END
>  <TORSDO>  (13) 
F 18

>  <SCORE>  (13) 
-16.179

>  <name>  (13) 
12

>  <ligand_id>  (13) 
12

>  <original_smiles>  (13) 
[H]c1c([H])c([H])c2c(c1[H])C([H])([H])C([H])([H])C([H])([H])C2([H])N([H])C(=O)C1([H])N(C(=O)C([H])(N([H])C(=O)C([H])(N([H])C([H])([H])[H])C([H])([H])[H])C(C([H])([H])[H])(C([H])([H])[H])C([H])([H])[H])C([H])([H])c2c([H])c(OC([H])([H])C3([H])C4([H])C([H])([H])C([H])([H])C([H])(C([H])([H])C(=O)N5C([H])([H])C([H])([H])C([H])([H])C([H])(n6nc(-c7c([H])c([H])c(Oc8c([H])c([H])c(F)c([H])c8F)c([H])c7[H])c(C(=O)N([H])[H])c6N([H])[H])C5([H])[H])C4([H])C([H])([H])[N+]3([H])[H])c([H])c([H])c2C1([H])[H]

>  <smiles>  (13) 
[H]c1c([H])c([H])c2c(c1[H])C([H])([H])C([H])([H])C([H])([H])C2([H])N([H])C(=O)C1([H])N(C(=O)C([H])(N([H])C(=O)C([H])(N([H])C([H])([H])[H])C([H])([H])[H])C(C([H])([H])[H])(C([H])([H])[H])C([H])([H])[H])C([H])([H])c2c([H])c(OC([H])([H])C3([H])C4([H])C([H])([H])C([H])([H])C([H])(C([H])([H])C(=O)N5C([H])([H])C([H])([H])C([H])([H])C([H])(n6nc(-c7c([H])c([H])c(Oc8c([H])c([H])c(F)c([H])c8F)c([H])c7[H])c(C(=O)N([H])[H])c6N([H])[H])C5([H])[H])C4([H])C([H])([H])[N+]3([H])[H])c([H])c([H])c2C1([H])[H]

$$$$
13:0:0
     RDKit          3D

 89 97  0  0  1  0  0  0  0  0999 V2000
  -29.5220  -20.6300   20.0520 C   0  0  0  0  0  0  0  0  0  0  0  0
  -30.3980  -21.0390   18.8900 C   0  0  0  0  0  1  0  0  0  0  0  0
  -29.3550  -19.3260   20.4020 N   0  0  0  0  0  0  0  0  0  0  0  0
  -29.0550  -22.0310   20.8280 C   0  0  0  0  0  2  0  0  0  0  0  0
  -28.1000  -23.2940   20.2480 C   0  0  0  0  0  2  0  0  0  0  0  0
  -28.4580  -24.8930   19.8150 C   0  0  0  0  0  2  0  0  0  0  0  0
  -28.2890  -26.2940   20.4780 O   0  0  0  0  0  0  0  0  0  0  0  0
  -24.6360  -32.0030   23.3010 C   0  0  0  0  0  0  0  0  0  0  0  0
  -27.2180  -27.2470   20.3300 C   0  0  0  0  0  0  0  0  0  0  0  0
  -23.4420  -30.5930   21.6700 C   0  0  0  0  0  3  0  0  0  0  0  0
  -24.8900  -28.9980   20.2610 C   0  0  0  0  0  0  0  0  0  0  0  0
  -25.9950  -30.8510   21.5140 C   0  0  0  0  0  2  0  0  0  0  0  0
  -26.0630  -29.4480   20.8790 C   0  0  0  0  0  0  0  0  0  0  0  0
  -27.2200  -28.5850   20.9000 C   0  0  0  0  0  3  0  0  0  0  0  0
  -26.0210  -26.8910   19.6740 C   0  0  0  0  0  3  0  0  0  0  0  0
  -24.8830  -27.7320   19.6460 C   0  0  0  0  0  3  0  0  0  0  0  0
  -23.6680  -29.9020   20.2960 C   0  0  0  0  0  2  0  0  0  0  0  0
  -24.7110  -31.1730   22.2160 N   0  0  0  0  0  0  0  0  0  0  0  0
  -23.5470  -32.2940   23.8200 O   0  0  0  0  0  0  0  0  0  0  0  0
  -22.7570  -29.5980   22.6410 C   0  0  0  0  0  0  0  0  0  0  0  0
  -21.4350  -29.4130   22.4940 N   0  0  0  0  0  0  0  0  0  0  0  0
  -23.4200  -28.9940   23.4890 O   0  0  0  0  0  0  0  0  0  0  0  0
  -20.9540  -29.9550   21.7890 H   0  0  0  0  0  0  0  0  0  0  0  0
  -18.0560  -28.1850   22.9500 C   0  0  0  0  0  0  0  0  0  0  0  0
  -20.6060  -28.4840   23.2670 C   0  0  0  0  0  3  0  0  0  0  0  0
  -20.7360  -27.0390   22.7290 C   0  0  0  0  0  2  0  0  0  0  0  0
  -19.6620  -26.6810   21.6980 C   0  0  0  0  0  2  0  0  0  0  0  0
  -18.2640  -26.8230   22.3050 C   0  0  0  0  0  2  0  0  0  0  0  0
  -19.1560  -28.9690   23.3860 C   0  0  0  0  0  0  0  0  0  0  0  0
  -18.9070  -30.2420   23.9460 C   0  0  0  0  0  3  0  0  0  0  0  0
  -17.5910  -30.7270   24.0770 C   0  0  0  0  0  3  0  0  0  0  0  0
  -16.5070  -29.9370   23.6560 C   0  0  0  0  0  3  0  0  0  0  0  0
  -16.7400  -28.6690   23.0960 C   0  0  0  0  0  3  0  0  0  0  0  0
  -25.9110  -32.6460   23.9310 C   0  0  0  0  0  3  0  0  0  0  0  0
  -25.5940  -34.0420   24.2660 N   0  0  0  0  0  0  0  0  0  0  0  0
  -25.9180  -35.1020   23.5120 C   0  0  0  0  0  0  0  0  0  0  0  0
  -26.5860  -35.0060   22.4790 O   0  0  0  0  0  0  0  0  0  0  0  0
  -25.0090  -34.1930   25.0750 H   0  0  0  0  0  0  0  0  0  0  0  0
  -24.1770  -36.8870   23.1840 C   0  0  0  0  0  1  0  0  0  0  0  0
  -25.4300  -36.4870   23.9800 C   0  0  0  0  0  3  0  0  0  0  0  0
  -27.5690  -37.3820   24.7890 C   0  0  0  0  0  1  0  0  0  0  0  0
  -26.4540  -37.5470   23.8590 N   0  0  0  0  0  0  0  0  0  0  0  0
  -26.0420  -38.4630   24.0190 H   0  0  0  0  0  0  0  0  0  0  0  0
  -26.4230  -31.8820   25.2130 C   0  0  1  0  0  0  0  0  0  0  0  0
  -25.3260  -31.6290   26.2750 C   0  0  0  0  0  1  0  0  0  0  0  0
  -27.0320  -30.5140   24.8270 C   0  0  0  0  0  1  0  0  0  0  0  0
  -27.5570  -32.6920   25.8870 C   0  0  0  0  0  1  0  0  0  0  0  0
  -29.9410  -17.9950   19.7430 C   0  0  0  0  0  3  0  0  0  0  0  0
  -29.8480  -16.5150   20.5570 C   0  0  0  0  0  2  0  0  0  0  0  0
  -30.5440  -15.0720   20.0880 C   0  0  0  0  0  0  0  0  0  0  0  0
  -30.3830  -12.7270   19.1250 C   0  0  0  0  0  2  0  0  0  0  0  0
  -29.4170  -12.7150   17.9190 C   0  0  0  0  0  2  0  0  0  0  0  0
  -27.9700  -12.4880   18.3900 C   0  0  0  0  0  2  0  0  0  0  0  0
  -27.6000  -13.3880   19.5970 C   0  0  0  0  0  3  0  0  0  0  0  0
  -28.6910  -13.3850   20.6880 C   0  0  0  0  0  2  0  0  0  0  0  0
  -29.9500  -13.8030   20.0590 N   0  0  0  0  0  0  0  0  0  0  0  0
  -31.7060  -15.1210   19.6710 O   0  0  0  0  0  0  0  0  0  0  0  0
  -25.2400  -13.9240   20.4310 C   0  0  0  0  0  0  0  0  0  0  0  0
  -24.2000  -13.1310   20.8240 C   0  0  0  0  0  0  0  0  0  0  0  0
  -24.6770  -11.7870   20.7570 C   0  0  0  0  0  0  0  0  0  0  0  0
  -26.2850  -13.0640   20.1370 N   0  0  0  0  0  0  0  0  0  0  0  0
  -25.9570  -11.7730   20.4040 N   0  0  0  0  0  0  0  0  0  0  0  0
  -23.9720  -10.5130   20.9540 C   0  0  0  0  0  0  0  0  0  0  0  0
  -24.4220   -9.5580   21.8910 C   0  0  0  0  0  3  0  0  0  0  0  0
  -23.7170   -8.3500   22.0750 C   0  0  0  0  0  3  0  0  0  0  0  0
  -22.5480   -8.0870   21.3240 C   0  0  0  0  0  0  0  0  0  0  0  0
  -22.1200   -9.0290   20.3740 C   0  0  0  0  0  3  0  0  0  0  0  0
  -22.8240  -10.2300   20.1870 C   0  0  0  0  0  3  0  0  0  0  0  0
  -21.8130   -6.9290   21.4160 O   0  0  0  0  0  0  0  0  0  0  0  0
  -21.7430   -6.2140   22.5850 C   0  0  0  0  0  0  0  0  0  0  0  0
  -21.2660   -6.7880   23.7840 C   0  0  0  0  0  3  0  0  0  0  0  0
  -21.1430   -5.9980   24.9430 C   0  0  0  0  0  3  0  0  0  0  0  0
  -21.4890   -4.6330   24.9060 C   0  0  0  0  0  0  0  0  0  0  0  0
  -21.9590   -4.0590   23.7120 C   0  0  0  0  0  3  0  0  0  0  0  0
  -22.0840   -4.8470   22.5550 C   0  0  0  0  0  0  0  0  0  0  0  0
  -22.5180   -4.2840   21.4020 F   0  0  0  0  0  0  0  0  0  0  0  0
  -21.3650   -3.8710   26.0180 F   0  0  0  0  0  0  0  0  0  0  0  0
  -22.8080  -13.5860   21.1490 C   0  0  0  0  0  0  0  0  0  0  0  0
  -22.1180  -12.8700   22.0280 N   0  0  0  0  0  0  0  0  0  0  0  0
  -22.3430  -14.6150   20.6570 O   0  0  0  0  0  0  0  0  0  0  0  0
  -22.5080  -12.0410   22.4520 H   0  0  0  0  0  0  0  0  0  0  0  0
  -21.1840  -13.1580   22.2840 H   0  0  0  0  0  0  0  0  0  0  0  0
  -25.3850  -15.3000   20.2710 N   0  0  0  0  0  0  0  0  0  0  0  0
  -24.6210  -15.9460   20.4370 H   0  0  0  0  0  0  0  0  0  0  0  0
  -26.2270  -15.7540   19.9430 H   0  0  0  0  0  0  0  0  0  0  0  0
  -29.2680  -17.7290   18.3670 C   0  0  0  0  0  2  0  0  0  0  0  0
  -28.9990  -18.3500   15.8710 C   0  0  0  0  0  2  0  0  0  0  0  0
  -29.0600  -19.6900   16.5540 C   0  0  0  0  0  2  0  0  0  0  0  0
  -29.7770  -18.4980   17.1580 C   0  0  0  0  0  3  0  0  0  0  0  0
  1  3  2  0
  1  4  1  0
  2  1  1  0
  5  4  1  0
  6  5  1  0
  6  7  1  0
  8 19  2  0
  9  7  1  0
  9 14  1  0
 10 18  1  0
 10 20  1  0
 11 17  1  0
 11 13  1  0
 12 18  1  0
 13 14  2  0
 13 12  1  0
 15  9  2  0
 16 15  1  0
 16 11  2  0
 17 10  1  0
 18  8  1  0
 20 22  2  0
 21 20  1  0
 23 21  1  0
 24 33  2  0
 24 29  1  0
 25 21  1  0
 25 29  1  0
 26 25  1  0
 27 28  1  0
 27 26  1  0
 28 24  1  0
 29 30  2  0
 30 31  1  0
 32 31  2  0
 33 32  1  0
 34  8  1  0
 34 35  1  0
 34 44  1  0
 35 38  1  0
 36 40  1  0
 36 35  1  0
 37 36  2  0
 40 39  1  0
 42 40  1  0
 42 43  1  0
 42 41  1  0
 44 47  1  1
 44 45  1  0
 46 44  1  0
 48 86  1  0
 48  3  1  0
 48 49  1  0
 50 49  1  0
 51 56  1  0
 52 53  1  0
 52 51  1  0
 54 53  1  0
 54 61  1  0
 54 55  1  0
 56 50  1  0
 56 55  1  0
 57 50  2  0
 58 59  2  0
 59 78  1  0
 60 59  1  0
 60 63  1  0
 61 62  1  0
 61 58  1  0
 62 60  2  0
 63 64  1  0
 64 65  2  0
 66 69  1  0
 66 65  1  0
 67 66  2  0
 68 67  1  0
 68 63  2  0
 69 70  1  0
 70 71  1  0
 71 72  2  0
 73 72  1  0
 73 77  1  0
 74 73  2  0
 75 70  2  0
 75 74  1  0
 76 75  1  0
 78 79  1  0
 79 82  1  0
 79 81  1  0
 80 78  2  0
 83 58  1  0
 83 84  1  0
 85 83  1  0
 87 88  1  0
 87 89  1  0
 88 89  1  0
 89 86  1  0
M  ISO  4   6 101   7 101  49 100  50 100
M  END
>  <TORSDO>  (14) 
F 23

>  <SCORE>  (14) 
-13.205

>  <name>  (14) 
13

>  <ligand_id>  (14) 
13

>  <original_smiles>  (14) 
[H]c1c([H])c([H])c2c(c1[H])C([H])([H])C([H])([H])C([H])([H])C2([H])N([H])C(=O)C1([H])N(C(=O)C([H])(N([H])C(=O)C([H])(N([H])C([H])([H])[H])C([H])([H])[H])C(C([H])([H])[H])(C([H])([H])[H])C([H])([H])[H])C([H])([H])c2c([H])c(OC([H])([H])C([H])([H])C([H])([H])C(=NC([H])(C([H])([H])C(=O)N3C([H])([H])C([H])([H])C([H])([H])C([H])(n4nc(-c5c([H])c([H])c(Oc6c([H])c([H])c(F)c([H])c6F)c([H])c5[H])c(C(=O)N([H])[H])c4N([H])[H])C3([H])[H])C([H])([H])C3([H])C([H])([H])C3([H])[H])C([H])([H])[H])c([H])c([H])c2C1([H])[H]

>  <smiles>  (14) 
[H]c1c([H])c([H])c2c(c1[H])C([H])([H])C([H])([H])C([H])([H])C2([H])N([H])C(=O)C1([H])N(C(=O)C([H])(N([H])C(=O)C([H])(N([H])C([H])([H])[H])C([H])([H])[H])C(C([H])([H])[H])(C([H])([H])[H])C([H])([H])[H])C([H])([H])c2c([H])c(OC([H])([H])C([H])([H])C([H])([H])C(=NC([H])(C([H])([H])C(=O)N3C([H])([H])C([H])([H])C([H])([H])C([H])(n4nc(-c5c([H])c([H])c(Oc6c([H])c([H])c(F)c([H])c6F)c([H])c5[H])c(C(=O)N([H])[H])c4N([H])[H])C3([H])[H])C([H])([H])C3([H])C([H])([H])C3([H])[H])C([H])([H])[H])c([H])c([H])c2C1([H])[H]

$$$$
14:0:0
     RDKit          3D

 92100  0  0  1  0  0  0  0  0999 V2000
  -29.9950  -19.9090   20.9200 C   0  0  0  0  0  0  0  0  0  0  0  0
  -29.5500  -21.2220   20.9870 N   0  0  0  0  0  0  0  0  0  0  0  0
  -30.3110  -19.3740   21.9810 O   0  0  0  0  0  0  0  0  0  0  0  0
  -29.5960  -21.5550   21.9410 H   0  0  0  0  0  0  0  0  0  0  0  0
  -31.2120  -19.8460   18.7410 C   0  0  0  0  0  2  0  0  0  0  0  0
  -31.3010  -19.3480   17.2980 C   0  0  0  0  0  2  0  0  0  0  0  0
  -30.8330  -17.0360   18.1460 C   0  0  0  0  0  2  0  0  0  0  0  0
  -30.1970  -19.0450   19.6110 C   0  0  0  0  0  3  0  0  0  0  0  0
  -31.7620  -17.8930   17.2730 C   0  0  0  0  0  3  0  0  0  0  0  0
  -30.7640  -17.4970   19.6360 C   0  0  0  0  0  3  0  0  0  0  0  0
  -31.8440  -17.3570   15.8370 C   0  0  0  0  0  1  0  0  0  0  0  0
  -30.1760  -16.2400   20.4740 C   0  0  0  0  0  2  0  0  0  0  0  0
  -30.9160  -14.8270   20.2650 C   0  0  0  0  0  0  0  0  0  0  0  0
  -30.6660  -12.5650   19.2570 C   0  0  0  0  0  2  0  0  0  0  0  0
  -29.7360  -12.6740   18.0270 C   0  0  0  0  0  2  0  0  0  0  0  0
  -28.2620  -12.5230   18.4490 C   0  0  0  0  0  2  0  0  0  0  0  0
  -27.8970  -13.4110   19.6660 C   0  0  0  0  0  3  0  0  0  0  0  0
  -28.9500  -13.3130   20.7910 C   0  0  0  0  0  2  0  0  0  0  0  0
  -30.2640  -13.6180   20.2140 N   0  0  0  0  0  0  0  0  0  0  0  0
  -32.1090  -14.8740   19.9540 O   0  0  0  0  0  0  0  0  0  0  0  0
  -25.5070  -14.0180   20.3800 C   0  0  0  0  0  0  0  0  0  0  0  0
  -24.4370  -13.2520   20.7520 C   0  0  0  0  0  0  0  0  0  0  0  0
  -24.8960  -11.8980   20.7390 C   0  0  0  0  0  0  0  0  0  0  0  0
  -26.5490  -13.1330   20.1560 N   0  0  0  0  0  0  0  0  0  0  0  0
  -26.1880  -11.8540   20.4380 N   0  0  0  0  0  0  0  0  0  0  0  0
  -24.1650  -10.6400   20.9370 C   0  0  0  0  0  0  0  0  0  0  0  0
  -24.5690   -9.6950   21.9060 C   0  0  0  0  0  3  0  0  0  0  0  0
  -23.8370   -8.5020   22.0910 C   0  0  0  0  0  3  0  0  0  0  0  0
  -22.6870   -8.2460   21.3070 C   0  0  0  0  0  0  0  0  0  0  0  0
  -22.3020   -9.1800   20.3300 C   0  0  0  0  0  3  0  0  0  0  0  0
  -23.0340  -10.3640   20.1420 C   0  0  0  0  0  3  0  0  0  0  0  0
  -21.9290   -7.1040   21.4000 O   0  0  0  0  0  0  0  0  0  0  0  0
  -21.8190   -6.4060   22.5770 C   0  0  0  0  0  0  0  0  0  0  0  0
  -21.3320   -7.0080   23.7580 C   0  0  0  0  0  3  0  0  0  0  0  0
  -21.1700   -6.2370   24.9260 C   0  0  0  0  0  3  0  0  0  0  0  0
  -21.4850   -4.8640   24.9130 C   0  0  0  0  0  0  0  0  0  0  0  0
  -21.9660   -4.2630   23.7370 C   0  0  0  0  0  3  0  0  0  0  0  0
  -22.1290   -5.0310   22.5710 C   0  0  0  0  0  0  0  0  0  0  0  0
  -22.5720   -4.4410   21.4350 F   0  0  0  0  0  0  0  0  0  0  0  0
  -21.3230   -4.1210   26.0320 F   0  0  0  0  0  0  0  0  0  0  0  0
  -23.0390  -13.7360   21.0090 C   0  0  0  0  0  0  0  0  0  0  0  0
  -22.3090  -13.0600   21.8880 N   0  0  0  0  0  0  0  0  0  0  0  0
  -22.6040  -14.7480   20.4630 O   0  0  0  0  0  0  0  0  0  0  0  0
  -22.6740  -12.2400   22.3510 H   0  0  0  0  0  0  0  0  0  0  0  0
  -21.3710  -13.3660   22.1030 H   0  0  0  0  0  0  0  0  0  0  0  0
  -25.6780  -15.3860   20.1890 N   0  0  0  0  0  0  0  0  0  0  0  0
  -24.9160  -16.0470   20.2910 H   0  0  0  0  0  0  0  0  0  0  0  0
  -26.5360  -15.8180   19.8670 H   0  0  0  0  0  0  0  0  0  0  0  0
  -28.9020  -22.2510   20.0780 C   0  0  0  0  0  2  0  0  0  0  0  0
  -29.0630  -23.8270   20.4790 C   0  0  0  0  0  2  0  0  0  0  0  0
  -28.0060  -25.0560   20.6270 C   0  0  0  0  0  2  0  0  0  0  0  0
  -28.2950  -26.4540   20.1790 O   0  0  0  0  0  0  0  0  0  0  0  0
  -24.6230  -31.9180   23.2150 C   0  0  0  0  0  0  0  0  0  0  0  0
  -27.2010  -27.3410   20.1450 C   0  0  0  0  0  0  0  0  0  0  0  0
  -23.4040  -30.5110   21.5960 C   0  0  0  0  0  3  0  0  0  0  0  0
  -24.8400  -28.9630   20.1520 C   0  0  0  0  0  0  0  0  0  0  0  0
  -25.9410  -30.8320   21.3800 C   0  0  0  0  0  2  0  0  0  0  0  0
  -26.0170  -29.4500   20.7360 C   0  0  0  0  0  0  0  0  0  0  0  0
  -27.2020  -28.6510   20.7240 C   0  0  0  0  0  3  0  0  0  0  0  0
  -26.0090  -26.9240   19.5140 C   0  0  0  0  0  3  0  0  0  0  0  0
  -24.8400  -27.7060   19.5290 C   0  0  0  0  0  3  0  0  0  0  0  0
  -23.6010  -29.8350   20.2150 C   0  0  0  0  0  2  0  0  0  0  0  0
  -24.6770  -31.1050   22.1200 N   0  0  0  0  0  0  0  0  0  0  0  0
  -23.5470  -32.1940   23.7630 O   0  0  0  0  0  0  0  0  0  0  0  0
  -22.7580  -29.4950   22.5680 C   0  0  0  0  0  0  0  0  0  0  0  0
  -21.4330  -29.3000   22.4490 N   0  0  0  0  0  0  0  0  0  0  0  0
  -23.4470  -28.8840   23.3900 O   0  0  0  0  0  0  0  0  0  0  0  0
  -20.9360  -29.8470   21.7590 H   0  0  0  0  0  0  0  0  0  0  0  0
  -18.0720  -28.0660   22.9720 C   0  0  0  0  0  0  0  0  0  0  0  0
  -20.6270  -28.3600   23.2310 C   0  0  0  0  0  3  0  0  0  0  0  0
  -20.7450  -26.9240   22.6700 C   0  0  0  0  0  2  0  0  0  0  0  0
  -19.6450  -26.5770   21.6640 C   0  0  0  0  0  2  0  0  0  0  0  0
  -18.2620  -26.7110   22.3100 C   0  0  0  0  0  2  0  0  0  0  0  0
  -19.1820  -28.8460   23.3890 C   0  0  0  0  0  0  0  0  0  0  0  0
  -18.9500  -30.1120   23.9690 C   0  0  0  0  0  3  0  0  0  0  0  0
  -17.6390  -30.5990   24.1360 C   0  0  0  0  0  3  0  0  0  0  0  0
  -16.5430  -29.8160   23.7340 C   0  0  0  0  0  3  0  0  0  0  0  0
  -16.7590  -28.5520   23.1570 C   0  0  0  0  0  3  0  0  0  0  0  0
  -25.9130  -32.5570   23.8170 C   0  0  0  0  0  3  0  0  0  0  0  0
  -25.5980  -33.9500   24.1640 N   0  0  0  0  0  0  0  0  0  0  0  0
  -25.9190  -35.0130   23.4140 C   0  0  0  0  0  0  0  0  0  0  0  0
  -26.5810  -34.9250   22.3770 O   0  0  0  0  0  0  0  0  0  0  0  0
  -25.0070  -34.0920   24.9690 H   0  0  0  0  0  0  0  0  0  0  0  0
  -24.1850  -36.8080   23.0840 C   0  0  0  0  0  1  0  0  0  0  0  0
  -25.4270  -36.3950   23.8900 C   0  0  0  0  0  3  0  0  0  0  0  0
  -27.5590  -37.2720   24.7340 C   0  0  0  0  0  1  0  0  0  0  0  0
  -26.4560  -37.4530   23.7930 N   0  0  0  0  0  0  0  0  0  0  0  0
  -26.0470  -38.3680   23.9570 H   0  0  0  0  0  0  0  0  0  0  0  0
  -26.4600  -31.7820   25.0800 C   0  0  1  0  0  0  0  0  0  0  0  0
  -25.3840  -31.5210   26.1610 C   0  0  0  0  0  1  0  0  0  0  0  0
  -27.0540  -30.4150   24.6680 C   0  0  0  0  0  1  0  0  0  0  0  0
  -27.6090  -32.5870   25.7310 C   0  0  0  0  0  1  0  0  0  0  0  0
  1  2  1  0
  1  3  2  0
  2  4  1  0
  5  8  1  0
  6  5  1  0
  7 10  1  0
  8 10  1  0
  8  1  1  0
  9 11  1  0
  9  6  1  0
  9  7  1  0
 10 12  1  0
 13 12  1  0
 14 19  1  0
 15 16  1  0
 15 14  1  0
 17 16  1  0
 17 24  1  0
 17 18  1  0
 19 13  1  0
 19 18  1  0
 20 13  2  0
 21 22  2  0
 22 41  1  0
 23 22  1  0
 23 26  1  0
 24 21  1  0
 24 25  1  0
 25 23  2  0
 26 27  1  0
 27 28  2  0
 29 32  1  0
 29 28  1  0
 30 29  2  0
 31 30  1  0
 31 26  2  0
 32 33  1  0
 33 34  1  0
 34 35  2  0
 36 35  1  0
 36 40  1  0
 37 36  2  0
 38 33  2  0
 38 37  1  0
 39 38  1  0
 41 42  1  0
 42 45  1  0
 42 44  1  0
 43 41  2  0
 46 47  1  0
 46 21  1  0
 48 46  1  0
 49 50  1  0
 49  2  1  0
 50 51  1  0
 52 51  1  0
 53 64  2  0
 54 52  1  0
 54 59  1  0
 55 63  1  0
 55 65  1  0
 56 62  1  0
 56 58  1  0
 57 63  1  0
 58 57  1  0
 59 58  2  0
 60 61  1  0
 60 54  2  0
 61 56  2  0
 62 55  1  0
 63 53  1  0
 65 67  2  0
 66 65  1  0
 68 66  1  0
 69 78  2  0
 69 74  1  0
 70 66  1  0
 70 74  1  0
 71 70  1  0
 72 73  1  0
 72 71  1  0
 73 69  1  0
 74 75  2  0
 75 76  1  0
 77 76  2  0
 78 77  1  0
 79 53  1  0
 79 80  1  0
 79 89  1  0
 80 83  1  0
 81 85  1  0
 81 80  1  0
 82 81  2  0
 85 84  1  0
 87 85  1  0
 87 88  1  0
 87 86  1  0
 89 92  1  1
 89 90  1  0
 91 89  1  0
M  ISO  4  12 100  13 100  51 101  52 101
M  END
>  <TORSDO>  (15) 
F 21

>  <SCORE>  (15) 
-13.164

>  <name>  (15) 
14

>  <ligand_id>  (15) 
14

>  <original_smiles>  (15) 
[H]c1c([H])c([H])c2c(c1[H])C([H])([H])C([H])([H])C([H])([H])C2([H])N([H])C(=O)C1([H])N(C(=O)C([H])(N([H])C(=O)C([H])(N([H])C([H])([H])[H])C([H])([H])[H])C(C([H])([H])[H])(C([H])([H])[H])C([H])([H])[H])C([H])([H])c2c([H])c(OC([H])([H])C([H])([H])C([H])([H])N([H])C(=O)C3([H])C([H])([H])C([H])([H])C([H])(C([H])([H])[H])C([H])([H])C3([H])C([H])([H])C(=O)N3C([H])([H])C([H])([H])C([H])([H])C([H])(n4nc(-c5c([H])c([H])c(Oc6c([H])c([H])c(F)c([H])c6F)c([H])c5[H])c(C(=O)N([H])[H])c4N([H])[H])C3([H])[H])c([H])c([H])c2C1([H])[H]

>  <smiles>  (15) 
[H]c1c([H])c([H])c2c(c1[H])C([H])([H])C([H])([H])C([H])([H])C2([H])N([H])C(=O)C1([H])N(C(=O)C([H])(N([H])C(=O)C([H])(N([H])C([H])([H])[H])C([H])([H])[H])C(C([H])([H])[H])(C([H])([H])[H])C([H])([H])[H])C([H])([H])c2c([H])c(OC([H])([H])C([H])([H])C([H])([H])N([H])C(=O)C3([H])C([H])([H])C([H])([H])C([H])(C([H])([H])[H])C([H])([H])C3([H])C([H])([H])C(=O)N3C([H])([H])C([H])([H])C([H])([H])C([H])(n4nc(-c5c([H])c([H])c(Oc6c([H])c([H])c(F)c([H])c6F)c([H])c5[H])c(C(=O)N([H])[H])c4N([H])[H])C3([H])[H])c([H])c([H])c2C1([H])[H]

$$$$
15:0:0
     RDKit          3D

 91 99  0  0  1  0  0  0  0  0999 V2000
  -26.6820  -21.2200   21.2690 C   0  0  0  0  0  2  0  0  0  0  0  0
  -27.8380  -20.2560   21.0830 C   0  0  0  0  0  2  0  0  0  0  0  0
  -27.2450  -22.5470   20.7960 C   0  0  0  0  0  2  0  0  0  0  0  0
  -28.9950  -21.0720   20.4660 C   0  0  0  0  0  3  0  0  0  0  0  0
  -28.2670  -22.1910   19.8060 N   0  0  0  0  0  0  0  0  0  0  0  0
  -29.9120  -20.1270   19.6130 C   0  0  0  0  0  2  0  0  0  0  0  0
  -30.3840  -18.9630   20.4320 N   0  0  0  0  0  4  0  0  0  0  0  0
  -29.5790  -18.6460   20.9470 H   0  0  0  0  0  0  0  0  0  0  0  0
  -31.0510  -19.3070   21.1050 H   0  0  0  0  0  0  0  0  0  0  0  0
  -30.9740  -17.7770   19.7350 C   0  0  0  0  0  2  0  0  0  0  0  0
  -30.9800  -16.4890   20.6310 C   0  0  0  0  0  2  0  0  0  0  0  0
  -31.6770  -15.2340   20.0190 C   0  0  0  0  0  0  0  0  0  0  0  0
  -31.4280  -12.9860   19.0090 C   0  0  0  0  0  2  0  0  0  0  0  0
  -30.4670  -13.0930   17.8050 C   0  0  0  0  0  2  0  0  0  0  0  0
  -28.9970  -12.9700   18.2550 C   0  0  0  0  0  2  0  0  0  0  0  0
  -28.6650  -13.8790   19.4690 C   0  0  0  0  0  3  0  0  0  0  0  0
  -29.7350  -13.7180   20.5730 C   0  0  0  0  0  2  0  0  0  0  0  0
  -31.0450  -14.0260   19.9780 N   0  0  0  0  0  0  0  0  0  0  0  0
  -32.7880  -15.3920   19.5020 O   0  0  0  0  0  0  0  0  0  0  0  0
  -26.2980  -14.5360   20.2390 C   0  0  0  0  0  0  0  0  0  0  0  0
  -25.2220  -13.7850   20.6270 C   0  0  0  0  0  0  0  0  0  0  0  0
  -25.6510  -12.4230   20.5730 C   0  0  0  0  0  0  0  0  0  0  0  0
  -27.3170  -13.6320   19.9750 N   0  0  0  0  0  0  0  0  0  0  0  0
  -26.9310  -12.3570   20.2320 N   0  0  0  0  0  0  0  0  0  0  0  0
  -24.9000  -11.1770   20.7690 C   0  0  0  0  0  0  0  0  0  0  0  0
  -25.2230  -10.2770   21.8090 C   0  0  0  0  0  3  0  0  0  0  0  0
  -24.4760   -9.0940   21.9880 C   0  0  0  0  0  3  0  0  0  0  0  0
  -23.3910   -8.8010   21.1260 C   0  0  0  0  0  0  0  0  0  0  0  0
  -23.0890   -9.6880   20.0790 C   0  0  0  0  0  3  0  0  0  0  0  0
  -23.8370  -10.8650   19.8990 C   0  0  0  0  0  3  0  0  0  0  0  0
  -22.6260   -7.6630   21.2100 O   0  0  0  0  0  0  0  0  0  0  0  0
  -22.2990   -7.1020   22.4180 C   0  0  0  0  0  0  0  0  0  0  0  0
  -21.5810   -7.8170   23.4020 C   0  0  0  0  0  3  0  0  0  0  0  0
  -21.2050   -7.1800   24.6020 C   0  0  0  0  0  3  0  0  0  0  0  0
  -21.5370   -5.8290   24.8160 C   0  0  0  0  0  0  0  0  0  0  0  0
  -22.2470   -5.1140   23.8350 C   0  0  0  0  0  3  0  0  0  0  0  0
  -22.6240   -5.7480   22.6390 C   0  0  0  0  0  0  0  0  0  0  0  0
  -23.2890   -5.0490   21.6880 F   0  0  0  0  0  0  0  0  0  0  0  0
  -21.1700   -5.2140   25.9640 F   0  0  0  0  0  0  0  0  0  0  0  0
  -23.8420  -14.2920   20.9360 C   0  0  0  0  0  0  0  0  0  0  0  0
  -23.1220  -13.6110   21.8200 N   0  0  0  0  0  0  0  0  0  0  0  0
  -23.4140  -15.3290   20.4290 O   0  0  0  0  0  0  0  0  0  0  0  0
  -23.4810  -12.7730   22.2520 H   0  0  0  0  0  0  0  0  0  0  0  0
  -22.1960  -13.9330   22.0670 H   0  0  0  0  0  0  0  0  0  0  0  0
  -26.4910  -15.9030   20.0660 N   0  0  0  0  0  0  0  0  0  0  0  0
  -25.7320  -16.5670   20.1750 H   0  0  0  0  0  0  0  0  0  0  0  0
  -27.3180  -16.3120   19.6530 H   0  0  0  0  0  0  0  0  0  0  0  0
  -29.0600  -23.3870   19.4220 C   0  0  0  0  0  2  0  0  0  0  0  0
  -28.2230  -24.7190   19.3230 C   0  0  0  0  0  2  0  0  0  0  0  0
  -28.8860  -25.9410   18.6160 C   0  0  0  0  0  2  0  0  0  0  0  0
  -28.7340  -27.2310   19.2590 O   0  0  0  0  0  0  0  0  0  0  0  0
  -24.7560  -31.6540   23.1850 C   0  0  0  0  0  0  0  0  0  0  0  0
  -27.5070  -27.8680   19.3680 C   0  0  0  0  0  0  0  0  0  0  0  0
  -23.5560  -30.4280   21.4040 C   0  0  0  0  0  3  0  0  0  0  0  0
  -25.0270  -29.2130   19.7050 C   0  0  0  0  0  0  0  0  0  0  0  0
  -26.0460  -30.9710   21.1610 C   0  0  0  0  0  2  0  0  0  0  0  0
  -26.1800  -29.7140   20.3200 C   0  0  0  0  0  0  0  0  0  0  0  0
  -27.4180  -29.0460   20.1530 C   0  0  0  0  0  3  0  0  0  0  0  0
  -26.3320  -27.3910   18.7430 C   0  0  0  0  0  3  0  0  0  0  0  0
  -25.1000  -28.0510   18.9170 C   0  0  0  0  0  3  0  0  0  0  0  0
  -23.7380  -29.9710   19.9300 C   0  0  0  0  0  2  0  0  0  0  0  0
  -24.8060  -31.0260   21.9760 N   0  0  0  0  0  0  0  0  0  0  0  0
  -23.6880  -31.7730   23.8030 O   0  0  0  0  0  0  0  0  0  0  0  0
  -23.0170  -29.2370   22.2280 C   0  0  0  0  0  0  0  0  0  0  0  0
  -21.7160  -28.9400   22.0730 N   0  0  0  0  0  0  0  0  0  0  0  0
  -23.7650  -28.5900   22.9670 O   0  0  0  0  0  0  0  0  0  0  0  0
  -21.1690  -29.5250   21.4580 H   0  0  0  0  0  0  0  0  0  0  0  0
  -18.5020  -27.3150   22.3470 C   0  0  0  0  0  0  0  0  0  0  0  0
  -21.0060  -27.8350   22.7170 C   0  0  0  0  0  3  0  0  0  0  0  0
  -21.2870  -26.4970   21.9940 C   0  0  0  0  0  2  0  0  0  0  0  0
  -20.2460  -26.1570   20.9240 C   0  0  0  0  0  2  0  0  0  0  0  0
  -18.8470  -26.0730   21.5410 C   0  0  0  0  0  2  0  0  0  0  0  0
  -19.5150  -28.1490   22.8860 C   0  0  0  0  0  0  0  0  0  0  0  0
  -19.1410  -29.3090   23.5990 C   0  0  0  0  0  3  0  0  0  0  0  0
  -17.7850  -29.6350   23.7810 C   0  0  0  0  0  3  0  0  0  0  0  0
  -16.7840  -28.7980   23.2570 C   0  0  0  0  0  3  0  0  0  0  0  0
  -17.1440  -27.6390   22.5460 C   0  0  0  0  0  3  0  0  0  0  0  0
  -26.0300  -32.2750   23.8380 C   0  0  0  0  0  3  0  0  0  0  0  0
  -25.6780  -33.6260   24.2970 N   0  0  0  0  0  0  0  0  0  0  0  0
  -25.9780  -34.7540   23.6390 C   0  0  0  0  0  0  0  0  0  0  0  0
  -26.6490  -34.7690   22.6050 O   0  0  0  0  0  0  0  0  0  0  0  0
  -25.0800  -33.6860   25.1070 H   0  0  0  0  0  0  0  0  0  0  0  0
  -24.1980  -36.5210   23.4470 C   0  0  0  0  0  1  0  0  0  0  0  0
  -25.4480  -36.0780   24.2230 C   0  0  0  0  0  3  0  0  0  0  0  0
  -27.5500  -36.9460   25.1510 C   0  0  0  0  0  1  0  0  0  0  0  0
  -26.4500  -37.1680   24.2160 N   0  0  0  0  0  0  0  0  0  0  0  0
  -26.0130  -38.0570   24.4450 H   0  0  0  0  0  0  0  0  0  0  0  0
  -26.6020  -31.4130   25.0290 C   0  0  1  0  0  0  0  0  0  0  0  0
  -25.5420  -31.0430   26.0920 C   0  0  0  0  0  1  0  0  0  0  0  0
  -27.2230  -30.0970   24.5040 C   0  0  0  0  0  1  0  0  0  0  0  0
  -27.7390  -32.1860   25.7360 C   0  0  0  0  0  1  0  0  0  0  0  0
  2  1  1  0
  3  1  1  0
  4  6  1  0
  4  2  1  0
  5  4  1  0
  5  3  1  0
  6  7  1  0
  7  8  1  0
  7  9  1  0
 10  7  1  0
 10 11  1  0
 12 11  1  0
 13 18  1  0
 14 15  1  0
 14 13  1  0
 16 15  1  0
 16 23  1  0
 16 17  1  0
 18 12  1  0
 18 17  1  0
 19 12  2  0
 20 21  2  0
 21 40  1  0
 22 21  1  0
 22 25  1  0
 23 24  1  0
 23 20  1  0
 24 22  2  0
 25 26  1  0
 26 27  2  0
 28 31  1  0
 28 27  1  0
 29 28  2  0
 30 29  1  0
 30 25  2  0
 31 32  1  0
 32 37  2  0
 32 33  1  0
 33 34  2  0
 34 35  1  0
 35 39  1  0
 36 35  2  0
 37 36  1  0
 38 37  1  0
 40 41  1  0
 41 44  1  0
 41 43  1  0
 42 40  2  0
 45 46  1  0
 45 20  1  0
 47 45  1  0
 48  5  1  0
 49 48  1  0
 50 51  1  0
 50 49  1  0
 51 53  1  0
 52 63  2  0
 53 58  1  0
 54 62  1  0
 54 64  1  0
 55 61  1  0
 55 57  1  0
 56 62  1  0
 57 56  1  0
 58 57  2  0
 59 60  1  0
 59 53  2  0
 60 55  2  0
 61 54  1  0
 62 52  1  0
 64 66  2  0
 65 64  1  0
 67 65  1  0
 68 77  2  0
 68 73  1  0
 69 65  1  0
 69 73  1  0
 70 69  1  0
 71 72  1  0
 71 70  1  0
 72 68  1  0
 73 74  2  0
 74 75  1  0
 76 75  2  0
 77 76  1  0
 78 52  1  0
 78 79  1  0
 78 88  1  0
 79 82  1  0
 80 84  1  0
 80 79  1  0
 81 80  2  0
 84 83  1  0
 86 84  1  0
 86 87  1  0
 86 85  1  0
 88 91  1  1
 88 89  1  0
 90 88  1  0
M  ISO  4  11 100  12 100  50 101  51 101
M  END
>  <TORSDO>  (16) 
F 23

>  <SCORE>  (16) 
-7.174

>  <name>  (16) 
15

>  <ligand_id>  (16) 
15

>  <original_smiles>  (16) 
[H]c1c([H])c([H])c2c(c1[H])C([H])([H])C([H])([H])C([H])([H])C2([H])N([H])C(=O)C1([H])N(C(=O)C([H])(N([H])C(=O)C([H])(N([H])C([H])([H])[H])C([H])([H])[H])C(C([H])([H])[H])(C([H])([H])[H])C([H])([H])[H])C([H])([H])c2c([H])c(OC([H])([H])C([H])([H])C([H])([H])N3C([H])([H])C([H])([H])C([H])([H])C3([H])C([H])([H])[N+]([H])([H])C([H])([H])C([H])([H])C(=O)N3C([H])([H])C([H])([H])C([H])([H])C([H])(n4nc(-c5c([H])c([H])c(Oc6c([H])c([H])c(F)c([H])c6F)c([H])c5[H])c(C(=O)N([H])[H])c4N([H])[H])C3([H])[H])c([H])c([H])c2C1([H])[H]

>  <smiles>  (16) 
[H]c1c([H])c([H])c2c(c1[H])C([H])([H])C([H])([H])C([H])([H])C2([H])N([H])C(=O)C1([H])N(C(=O)C([H])(N([H])C(=O)C([H])(N([H])C([H])([H])[H])C([H])([H])[H])C(C([H])([H])[H])(C([H])([H])[H])C([H])([H])[H])C([H])([H])c2c([H])c(OC([H])([H])C([H])([H])C([H])([H])N3C([H])([H])C([H])([H])C([H])([H])C3([H])C([H])([H])[N+]([H])([H])C([H])([H])C([H])([H])C(=O)N3C([H])([H])C([H])([H])C([H])([H])C([H])(n4nc(-c5c([H])c([H])c(Oc6c([H])c([H])c(F)c([H])c6F)c([H])c5[H])c(C(=O)N([H])[H])c4N([H])[H])C3([H])[H])c([H])c([H])c2C1([H])[H]

$$$$
16:0:0
     RDKit          3D

 90 99  0  0  1  0  0  0  0  0999 V2000
  -30.3420  -23.5560   19.9530 C   0  0  0  0  0  2  0  0  0  0  0  0
  -29.0900  -23.8490   20.3270 C   0  0  0  0  0  3  0  0  0  0  0  0
  -30.8040  -20.9900   20.4600 C   0  0  0  0  0  2  0  0  0  0  0  0
  -28.3500  -21.2290   20.5450 C   0  0  0  0  0  2  0  0  0  0  0  0
  -30.4540  -22.4040   20.9830 C   0  0  0  0  0  3  0  0  0  0  0  0
  -28.9410  -22.5390   21.1700 C   0  0  1  0  0  0  0  0  0  0  0  0
  -29.4960  -20.2090   20.1020 C   0  0  1  0  0  0  0  0  0  0  0  0
  -28.3850  -22.8330   22.5630 C   0  0  0  0  0  1  0  0  0  0  0  0
  -29.4120  -20.0520   18.5710 C   0  0  0  0  0  1  0  0  0  0  0  0
  -28.0500  -24.9560   19.9170 C   0  0  0  0  0  2  0  0  0  0  0  0
  -28.3190  -26.4040   20.1700 O   0  0  0  0  0  0  0  0  0  0  0  0
  -24.6460  -31.8630   23.2090 C   0  0  0  0  0  0  0  0  0  0  0  0
  -27.2180  -27.2890   20.1160 C   0  0  0  0  0  0  0  0  0  0  0  0
  -23.4240  -30.4710   21.5780 C   0  0  0  0  0  3  0  0  0  0  0  0
  -24.8590  -28.9260   20.1320 C   0  0  0  0  0  0  0  0  0  0  0  0
  -25.9660  -30.7800   21.3730 C   0  0  0  0  0  2  0  0  0  0  0  0
  -26.0370  -29.4020   20.7200 C   0  0  0  0  0  0  0  0  0  0  0  0
  -27.2180  -28.5960   20.7040 C   0  0  0  0  0  3  0  0  0  0  0  0
  -26.0140  -26.8830   19.4920 C   0  0  0  0  0  3  0  0  0  0  0  0
  -24.8520  -27.6720   19.5070 C   0  0  0  0  0  3  0  0  0  0  0  0
  -23.6240  -29.8020   20.1940 C   0  0  0  0  0  2  0  0  0  0  0  0
  -24.6980  -31.0560   22.1090 N   0  0  0  0  0  0  0  0  0  0  0  0
  -23.5670  -32.1410   23.7540 O   0  0  0  0  0  0  0  0  0  0  0  0
  -22.7690  -29.4510   22.5430 C   0  0  0  0  0  0  0  0  0  0  0  0
  -21.4420  -29.2750   22.4280 N   0  0  0  0  0  0  0  0  0  0  0  0
  -23.4560  -28.8230   23.3540 O   0  0  0  0  0  0  0  0  0  0  0  0
  -20.9470  -29.8340   21.7470 H   0  0  0  0  0  0  0  0  0  0  0  0
  -18.0700  -28.0760   22.9550 C   0  0  0  0  0  0  0  0  0  0  0  0
  -20.6300  -28.3380   23.2060 C   0  0  0  0  0  3  0  0  0  0  0  0
  -20.7280  -26.9050   22.6330 C   0  0  0  0  0  2  0  0  0  0  0  0
  -19.6200  -26.5810   21.6260 C   0  0  0  0  0  2  0  0  0  0  0  0
  -18.2420  -26.7260   22.2790 C   0  0  0  0  0  2  0  0  0  0  0  0
  -19.1900  -28.8400   23.3760 C   0  0  0  0  0  0  0  0  0  0  0  0
  -18.9740  -30.1030   23.9670 C   0  0  0  0  0  3  0  0  0  0  0  0
  -17.6700  -30.6030   24.1410 C   0  0  0  0  0  3  0  0  0  0  0  0
  -16.5640  -29.8370   23.7360 C   0  0  0  0  0  3  0  0  0  0  0  0
  -16.7640  -28.5760   23.1490 C   0  0  0  0  0  3  0  0  0  0  0  0
  -25.9350  -32.4940   23.8180 C   0  0  0  0  0  3  0  0  0  0  0  0
  -26.4740  -31.7080   25.0770 C   0  0  1  0  0  0  0  0  0  0  0  0
  -25.3980  -31.4550   26.1600 C   0  0  0  0  0  1  0  0  0  0  0  0
  -27.0530  -30.3360   24.6600 C   0  0  0  0  0  1  0  0  0  0  0  0
  -27.6330  -32.4970   25.7290 C   0  0  0  0  0  1  0  0  0  0  0  0
  -25.6230  -33.8860   24.1720 N   0  0  0  0  0  0  0  0  0  0  0  0
  -25.9310  -34.9510   23.4200 C   0  0  0  0  0  0  0  0  0  0  0  0
  -26.5770  -34.8650   22.3720 O   0  0  0  0  0  0  0  0  0  0  0  0
  -25.0470  -34.0260   24.9890 H   0  0  0  0  0  0  0  0  0  0  0  0
  -24.1790  -36.7320   23.1370 C   0  0  0  0  0  1  0  0  0  0  0  0
  -25.4460  -36.3290   23.9070 C   0  0  0  0  0  3  0  0  0  0  0  0
  -27.5990  -37.2230   24.6830 C   0  0  0  0  0  1  0  0  0  0  0  0
  -26.4670  -37.3920   23.7750 N   0  0  0  0  0  0  0  0  0  0  0  0
  -26.0590  -38.3080   23.9450 H   0  0  0  0  0  0  0  0  0  0  0  0
  -29.3790  -18.7310   20.7620 C   0  0  0  0  0  2  0  0  0  0  0  0
  -30.2110  -17.4500   20.2390 C   0  0  0  0  0  3  0  0  0  0  0  0
  -29.8730  -15.9970   20.8550 C   0  0  0  0  0  3  0  0  0  0  0  0
  -30.6140  -14.6900   20.3130 C   0  0  0  0  0  0  0  0  0  0  0  0
  -30.3770  -12.4500   19.2270 C   0  0  0  0  0  2  0  0  0  0  0  0
  -29.4170  -12.5840   18.0220 C   0  0  0  0  0  2  0  0  0  0  0  0
  -27.9500  -12.4250   18.4680 C   0  0  0  0  0  2  0  0  0  0  0  0
  -27.6130  -13.2850   19.7150 C   0  0  0  0  0  3  0  0  0  0  0  0
  -28.6860  -13.1300   20.8150 C   0  0  0  0  0  2  0  0  0  0  0  0
  -29.9880  -13.4690   20.2260 N   0  0  0  0  0  0  0  0  0  0  0  0
  -31.7610  -14.8170   19.8720 O   0  0  0  0  0  0  0  0  0  0  0  0
  -25.2320  -13.8960   20.4590 C   0  0  0  0  0  0  0  0  0  0  0  0
  -24.1650  -13.1300   20.8420 C   0  0  0  0  0  0  0  0  0  0  0  0
  -24.6200  -11.7760   20.8130 C   0  0  0  0  0  0  0  0  0  0  0  0
  -26.2690  -13.0100   20.2170 N   0  0  0  0  0  0  0  0  0  0  0  0
  -25.9070  -11.7300   20.4910 N   0  0  0  0  0  0  0  0  0  0  0  0
  -23.8890  -10.5180   21.0150 C   0  0  0  0  0  0  0  0  0  0  0  0
  -24.3330   -9.5460   21.9390 C   0  0  0  0  0  3  0  0  0  0  0  0
  -23.6030   -8.3530   22.1300 C   0  0  0  0  0  3  0  0  0  0  0  0
  -22.4140   -8.1240   21.3970 C   0  0  0  0  0  0  0  0  0  0  0  0
  -21.9880   -9.0850   20.4620 C   0  0  0  0  0  3  0  0  0  0  0  0
  -22.7190  -10.2690   20.2700 C   0  0  0  0  0  3  0  0  0  0  0  0
  -21.6540   -6.9840   21.4980 O   0  0  0  0  0  0  0  0  0  0  0  0
  -21.6300   -6.2340   22.6460 C   0  0  0  0  0  0  0  0  0  0  0  0
  -21.2530   -6.7850   23.8900 C   0  0  0  0  0  3  0  0  0  0  0  0
  -21.1760   -5.9620   25.0320 C   0  0  0  0  0  3  0  0  0  0  0  0
  -21.4670   -4.5890   24.9310 C   0  0  0  0  0  0  0  0  0  0  0  0
  -21.8370   -4.0360   23.6920 C   0  0  0  0  0  3  0  0  0  0  0  0
  -21.9150   -4.8570   22.5520 C   0  0  0  0  0  0  0  0  0  0  0  0
  -22.2520   -4.3150   21.3570 F   0  0  0  0  0  0  0  0  0  0  0  0
  -21.3850   -3.7960   26.0240 F   0  0  0  0  0  0  0  0  0  0  0  0
  -22.7720  -13.6150   21.1260 C   0  0  0  0  0  0  0  0  0  0  0  0
  -22.0500  -12.9270   22.0050 N   0  0  0  0  0  0  0  0  0  0  0  0
  -22.3330  -14.6390   20.6050 O   0  0  0  0  0  0  0  0  0  0  0  0
  -22.4180  -12.0990   22.4490 H   0  0  0  0  0  0  0  0  0  0  0  0
  -21.1170  -13.2350   22.2370 H   0  0  0  0  0  0  0  0  0  0  0  0
  -25.4010  -15.2650   20.2740 N   0  0  0  0  0  0  0  0  0  0  0  0
  -24.6420  -15.9260   20.3930 H   0  0  0  0  0  0  0  0  0  0  0  0
  -26.2550  -15.6990   19.9450 H   0  0  0  0  0  0  0  0  0  0  0  0
  1  2  1  0
  2 10  1  0
  2  6  1  0
  3  5  1  0
  4  6  1  0
  5  1  1  0
  5  6  1  0
  6  8  1  1
  7  9  1  6
  7  3  1  0
  7  4  1  0
  7 52  1  0
 10 11  1  0
 12 23  2  0
 13 11  1  0
 13 18  1  0
 14 22  1  0
 14 24  1  0
 15 21  1  0
 15 17  1  0
 16 22  1  0
 17 16  1  0
 18 17  2  0
 19 20  1  0
 19 13  2  0
 20 15  2  0
 21 14  1  0
 22 12  1  0
 24 26  2  0
 25 24  1  0
 27 25  1  0
 28 37  2  0
 28 33  1  0
 29 25  1  0
 29 33  1  0
 30 29  1  0
 31 32  1  0
 31 30  1  0
 32 28  1  0
 33 34  2  0
 34 35  1  0
 36 35  2  0
 37 36  1  0
 38 12  1  0
 38 43  1  0
 38 39  1  0
 39 42  1  1
 39 40  1  0
 41 39  1  0
 43 46  1  0
 44 48  1  0
 44 43  1  0
 45 44  2  0
 48 47  1  0
 50 48  1  0
 50 51  1  0
 50 49  1  0
 53 52  1  0
 53 54  2  0
 55 54  1  0
 56 61  1  0
 57 58  1  0
 57 56  1  0
 59 58  1  0
 59 66  1  0
 59 60  1  0
 61 55  1  0
 61 60  1  0
 62 55  2  0
 63 64  2  0
 64 83  1  0
 65 64  1  0
 65 68  1  0
 66 63  1  0
 66 67  1  0
 67 65  2  0
 68 69  1  0
 69 70  2  0
 71 74  1  0
 71 70  1  0
 72 71  2  0
 73 72  1  0
 73 68  2  0
 74 75  1  0
 75 76  1  0
 76 77  2  0
 78 77  1  0
 78 82  1  0
 79 78  2  0
 80 75  2  0
 80 79  1  0
 81 80  1  0
 83 84  1  0
 84 87  1  0
 84 86  1  0
 85 83  2  0
 88 89  1  0
 88 63  1  0
 90 88  1  0
M  ISO  4  10 101  11 101  54 100  55 100
M  END
>  <TORSDO>  (17) 
F 20

>  <SCORE>  (17) 
-13.576

>  <name>  (17) 
16

>  <ligand_id>  (17) 
16

>  <original_smiles>  (17) 
[H]C1=C(C([H])([H])Oc2c([H])c([H])c3c(c2[H])C([H])([H])N(C(=O)C([H])(N([H])C(=O)C([H])(N([H])C([H])([H])[H])C([H])([H])[H])C(C([H])([H])[H])(C([H])([H])[H])C([H])([H])[H])C([H])(C(=O)N([H])C2([H])c4c([H])c([H])c([H])c([H])c4C([H])([H])C([H])([H])C2([H])[H])C3([H])[H])C2(C([H])([H])[H])C([H])([H])C(C([H])([H])[H])(C([H])([H])C([H])([H])C([H])([H])C(=O)N3C([H])([H])C([H])([H])C([H])([H])C([H])(n4nc(-c5c([H])c([H])c(Oc6c([H])c([H])c(F)c([H])c6F)c([H])c5[H])c(C(=O)N([H])[H])c4N([H])[H])C3([H])[H])C([H])([H])C12[H]

>  <smiles>  (17) 
[H]C1=C(C([H])([H])Oc2c([H])c([H])c3c(c2[H])C([H])([H])N(C(=O)C([H])(N([H])C(=O)C([H])(N([H])C([H])([H])[H])C([H])([H])[H])C(C([H])([H])[H])(C([H])([H])[H])C([H])([H])[H])C([H])(C(=O)N([H])C2([H])c4c([H])c([H])c([H])c([H])c4C([H])([H])C([H])([H])C2([H])[H])C3([H])[H])C2(C([H])([H])[H])C([H])([H])C(C([H])([H])[H])(C([H])([H])C([H])([H])C([H])([H])C(=O)N3C([H])([H])C([H])([H])C([H])([H])C([H])(n4nc(-c5c([H])c([H])c(Oc6c([H])c([H])c(F)c([H])c6F)c([H])c5[H])c(C(=O)N([H])[H])c4N([H])[H])C3([H])[H])C([H])([H])C12[H]

$$$$
17:0:0
     RDKit          3D

 89 96  0  0  1  0  0  0  0  0999 V2000
  -29.3760  -19.7000   20.7210 C   0  0  0  0  0  3  0  0  0  0  0  0
  -30.5590  -20.2230   21.4440 N   0  0  0  0  0  4  0  0  0  0  0  0
  -31.3110  -20.3460   20.7850 H   0  0  0  0  0  0  0  0  0  0  0  0
  -30.3090  -21.1370   21.7840 H   0  0  0  0  0  0  0  0  0  0  0  0
  -32.2160  -20.1850   23.2940 C   0  0  0  0  0  1  0  0  0  0  0  0
  -31.0570  -19.4510   22.6060 C   0  0  0  0  0  2  0  0  0  0  0  0
  -29.7370  -16.7590   20.5630 C   0  0  0  0  0  3  0  0  0  0  0  0
  -29.8810  -18.1510   20.1030 C   0  0  0  0  0  0  0  0  0  0  0  0
  -30.7410  -18.3920   18.8740 C   0  0  0  0  0  1  0  0  0  0  0  0
  -30.4680  -15.3620   20.1830 C   0  0  0  0  0  0  0  0  0  0  0  0
  -30.4190  -12.9220   19.3250 C   0  0  0  0  0  2  0  0  0  0  0  0
  -29.4940  -12.7520   18.0930 C   0  0  0  0  0  2  0  0  0  0  0  0
  -28.0480  -12.4790   18.5360 C   0  0  0  0  0  2  0  0  0  0  0  0
  -27.6060  -13.4260   19.6790 C   0  0  0  0  0  3  0  0  0  0  0  0
  -28.6600  -13.5650   20.7970 C   0  0  0  0  0  2  0  0  0  0  0  0
  -29.9020  -14.0560   20.1800 N   0  0  0  0  0  0  0  0  0  0  0  0
  -31.6560  -15.3380   19.8330 O   0  0  0  0  0  0  0  0  0  0  0  0
  -25.2330  -13.9450   20.4550 C   0  0  0  0  0  0  0  0  0  0  0  0
  -24.1870  -13.1500   20.8320 C   0  0  0  0  0  0  0  0  0  0  0  0
  -24.6740  -11.8070   20.7930 C   0  0  0  0  0  0  0  0  0  0  0  0
  -26.2870  -13.0860   20.1980 N   0  0  0  0  0  0  0  0  0  0  0  0
  -25.9640  -11.7940   20.4720 N   0  0  0  0  0  0  0  0  0  0  0  0
  -23.9670  -10.5320   20.9880 C   0  0  0  0  0  0  0  0  0  0  0  0
  -24.4100   -9.5780   21.9290 C   0  0  0  0  0  3  0  0  0  0  0  0
  -23.7010   -8.3710   22.1120 C   0  0  0  0  0  3  0  0  0  0  0  0
  -22.5340   -8.1100   21.3530 C   0  0  0  0  0  0  0  0  0  0  0  0
  -22.1120   -9.0550   20.4000 C   0  0  0  0  0  3  0  0  0  0  0  0
  -22.8220  -10.2530   20.2170 C   0  0  0  0  0  3  0  0  0  0  0  0
  -21.7960   -6.9550   21.4450 O   0  0  0  0  0  0  0  0  0  0  0  0
  -21.7400   -6.2270   22.6070 C   0  0  0  0  0  0  0  0  0  0  0  0
  -21.2620   -6.7840   23.8130 C   0  0  0  0  0  3  0  0  0  0  0  0
  -21.1560   -5.9810   24.9670 C   0  0  0  0  0  3  0  0  0  0  0  0
  -21.5170   -4.6210   24.9160 C   0  0  0  0  0  0  0  0  0  0  0  0
  -21.9870   -4.0630   23.7140 C   0  0  0  0  0  3  0  0  0  0  0  0
  -22.0950   -4.8640   22.5620 C   0  0  0  0  0  0  0  0  0  0  0  0
  -22.5290   -4.3150   21.4030 F   0  0  0  0  0  0  0  0  0  0  0  0
  -21.4090   -3.8470   26.0220 F   0  0  0  0  0  0  0  0  0  0  0  0
  -22.7840  -13.6040   21.1120 C   0  0  0  0  0  0  0  0  0  0  0  0
  -22.0710  -12.8930   21.9780 N   0  0  0  0  0  0  0  0  0  0  0  0
  -22.3300  -14.6260   20.5980 O   0  0  0  0  0  0  0  0  0  0  0  0
  -22.4500  -12.0660   22.4140 H   0  0  0  0  0  0  0  0  0  0  0  0
  -21.1290  -13.1780   22.2070 H   0  0  0  0  0  0  0  0  0  0  0  0
  -25.3770  -15.3190   20.2790 N   0  0  0  0  0  0  0  0  0  0  0  0
  -24.6070  -15.9680   20.4000 H   0  0  0  0  0  0  0  0  0  0  0  0
  -26.2210  -15.7640   19.9390 H   0  0  0  0  0  0  0  0  0  0  0  0
  -28.7310  -21.1800   19.9520 C   0  0  0  0  0  2  0  0  0  0  0  0
  -28.6990  -22.8930   20.4930 C   0  0  0  0  0  3  0  0  0  0  0  0
  -27.8980  -24.3870   19.9170 C   0  0  0  0  0  3  0  0  0  0  0  0
  -28.0840  -25.9870   20.2120 O   0  0  0  0  0  0  0  0  0  0  0  0
  -24.5770  -31.9330   23.1710 C   0  0  0  0  0  0  0  0  0  0  0  0
  -27.0720  -27.0700   20.1230 C   0  0  0  0  0  0  0  0  0  0  0  0
  -23.3520  -30.5390   21.5520 C   0  0  0  0  0  3  0  0  0  0  0  0
  -24.7740  -28.9340   20.1060 C   0  0  0  0  0  0  0  0  0  0  0  0
  -25.9150  -30.7490   21.3660 C   0  0  0  0  0  2  0  0  0  0  0  0
  -25.9700  -29.3420   20.7100 C   0  0  0  0  0  0  0  0  0  0  0  0
  -27.1110  -28.4290   20.6980 C   0  0  0  0  0  3  0  0  0  0  0  0
  -25.8520  -26.8090   19.4600 C   0  0  0  0  0  3  0  0  0  0  0  0
  -24.7390  -27.6870   19.4600 C   0  0  0  0  0  3  0  0  0  0  0  0
  -23.5580  -29.8540   20.1730 C   0  0  0  0  0  2  0  0  0  0  0  0
  -24.6370  -31.1000   22.0830 N   0  0  0  0  0  0  0  0  0  0  0  0
  -23.4970  -32.2280   23.7090 O   0  0  0  0  0  0  0  0  0  0  0  0
  -22.6730  -29.5460   22.5300 C   0  0  0  0  0  0  0  0  0  0  0  0
  -21.3420  -29.3800   22.4200 N   0  0  0  0  0  0  0  0  0  0  0  0
  -23.3490  -28.9260   23.3540 O   0  0  0  0  0  0  0  0  0  0  0  0
  -20.8490  -29.9320   21.7320 H   0  0  0  0  0  0  0  0  0  0  0  0
  -17.9680  -28.1620   22.9630 C   0  0  0  0  0  0  0  0  0  0  0  0
  -20.5290  -28.4450   23.2040 C   0  0  0  0  0  3  0  0  0  0  0  0
  -20.6320  -27.0070   22.6430 C   0  0  0  0  0  2  0  0  0  0  0  0
  -19.5240  -26.6700   21.6390 C   0  0  0  0  0  2  0  0  0  0  0  0
  -18.1470  -26.8100   22.2930 C   0  0  0  0  0  2  0  0  0  0  0  0
  -19.0850  -28.9360   23.3770 C   0  0  0  0  0  0  0  0  0  0  0  0
  -18.8620  -30.1980   23.9670 C   0  0  0  0  0  3  0  0  0  0  0  0
  -17.5540  -30.6890   24.1460 C   0  0  0  0  0  3  0  0  0  0  0  0
  -16.4520  -29.9140   23.7450 C   0  0  0  0  0  3  0  0  0  0  0  0
  -16.6590  -28.6520   23.1600 C   0  0  0  0  0  3  0  0  0  0  0  0
  -25.8620  -32.5710   23.7830 C   0  0  0  0  0  3  0  0  0  0  0  0
  -25.5530  -33.9730   24.1220 N   0  0  0  0  0  0  0  0  0  0  0  0
  -25.8890  -35.0340   23.3770 C   0  0  0  0  0  0  0  0  0  0  0  0
  -26.5530  -34.9370   22.3420 O   0  0  0  0  0  0  0  0  0  0  0  0
  -24.9630  -34.1210   24.9270 H   0  0  0  0  0  0  0  0  0  0  0  0
  -24.1830  -36.8560   23.0430 C   0  0  0  0  0  1  0  0  0  0  0  0
  -25.4150  -36.4220   23.8530 C   0  0  0  0  0  3  0  0  0  0  0  0
  -27.5500  -37.2800   24.7140 C   0  0  0  0  0  1  0  0  0  0  0  0
  -26.4590  -37.4670   23.7620 N   0  0  0  0  0  0  0  0  0  0  0  0
  -26.0600  -38.3900   23.9130 H   0  0  0  0  0  0  0  0  0  0  0  0
  -26.3840  -31.8050   25.0600 C   0  0  1  0  0  0  0  0  0  0  0  0
  -25.2990  -31.5810   26.1400 C   0  0  0  0  0  1  0  0  0  0  0  0
  -26.9580  -30.4210   24.6820 C   0  0  0  0  0  1  0  0  0  0  0  0
  -27.5430  -32.5990   25.7070 C   0  0  0  0  0  1  0  0  0  0  0  0
  1 46  1  0
  1  2  1  0
  2  4  1  0
  2  6  1  0
  3  2  1  0
  6  5  1  0
  8  7  2  0
  8  1  1  0
  9  8  1  0
 10  7  1  0
 11 16  1  0
 12 13  1  0
 12 11  1  0
 14 13  1  0
 14 21  1  0
 14 15  1  0
 16 10  1  0
 16 15  1  0
 17 10  2  0
 18 19  2  0
 19 38  1  0
 20 19  1  0
 20 23  1  0
 21 18  1  0
 21 22  1  0
 22 20  2  0
 23 24  1  0
 24 25  2  0
 26 29  1  0
 26 25  1  0
 27 26  2  0
 28 27  1  0
 28 23  2  0
 29 30  1  0
 30 31  1  0
 31 32  2  0
 33 32  1  0
 33 37  1  0
 34 33  2  0
 35 30  2  0
 35 34  1  0
 36 35  1  0
 38 39  1  0
 39 42  1  0
 39 41  1  0
 40 38  2  0
 43 44  1  0
 43 18  1  0
 45 43  1  0
 46 47  1  0
 48 49  1  0
 48 47  2  0
 50 61  2  0
 51 49  1  0
 51 56  1  0
 52 60  1  0
 52 62  1  0
 53 59  1  0
 53 55  1  0
 54 60  1  0
 55 54  1  0
 56 55  2  0
 57 51  2  0
 58 57  1  0
 58 53  2  0
 59 52  1  0
 60 50  1  0
 62 64  2  0
 63 62  1  0
 65 63  1  0
 66 75  2  0
 66 71  1  0
 67 63  1  0
 67 71  1  0
 68 67  1  0
 69 70  1  0
 69 68  1  0
 70 66  1  0
 71 72  2  0
 72 73  1  0
 74 73  2  0
 75 74  1  0
 76 50  1  0
 76 77  1  0
 76 86  1  0
 77 80  1  0
 78 82  1  0
 78 77  1  0
 79 78  2  0
 82 81  1  0
 84 82  1  0
 84 85  1  0
 84 83  1  0
 86 89  1  1
 86 87  1  0
 88 86  1  0
M  ISO  4   7 100  10 100  48 101  49 101
M  END
>  <TORSDO>  (18) 
F 22

>  <SCORE>  (18) 
-15.030

>  <name>  (18) 
17

>  <ligand_id>  (18) 
17

>  <original_smiles>  (18) 
[H]C(C(=O)N1C([H])([H])C([H])([H])C([H])([H])C([H])(n2nc(-c3c([H])c([H])c(Oc4c([H])c([H])c(F)c([H])c4F)c([H])c3[H])c(C(=O)N([H])[H])c2N([H])[H])C1([H])[H])=C(C([H])([H])[H])C([H])(C([H])([H])C([H])([H])C([H])([H])Oc1c([H])c([H])c2c(c1[H])C([H])([H])N(C(=O)C([H])(N([H])C(=O)C([H])(N([H])C([H])([H])[H])C([H])([H])[H])C(C([H])([H])[H])(C([H])([H])[H])C([H])([H])[H])C([H])(C(=O)N([H])C1([H])c3c([H])c([H])c([H])c([H])c3C([H])([H])C([H])([H])C1([H])[H])C2([H])[H])[N+]([H])([H])C([H])([H])C([H])([H])[H]

>  <smiles>  (18) 
[H]C(C(=O)N1C([H])([H])C([H])([H])C([H])([H])C([H])(n2nc(-c3c([H])c([H])c(Oc4c([H])c([H])c(F)c([H])c4F)c([H])c3[H])c(C(=O)N([H])[H])c2N([H])[H])C1([H])[H])=C(C([H])([H])[H])C([H])(C([H])([H])C([H])([H])C([H])([H])Oc1c([H])c([H])c2c(c1[H])C([H])([H])N(C(=O)C([H])(N([H])C(=O)C([H])(N([H])C([H])([H])[H])C([H])([H])[H])C(C([H])([H])[H])(C([H])([H])[H])C([H])([H])[H])C([H])(C(=O)N([H])C1([H])c3c([H])c([H])c([H])c([H])c3C([H])([H])C([H])([H])C1([H])[H])C2([H])[H])[N+]([H])([H])C([H])([H])C([H])([H])[H]

$$$$
18:0:0
     RDKit          3D

 92100  0  0  1  0  0  0  0  0999 V2000
  -29.5770  -19.5870   21.1410 C   0  0  0  0  0  0  0  0  0  0  0  0
  -30.2110  -20.7580   20.9230 N   0  0  0  0  0  0  0  0  0  0  0  0
  -28.9510  -19.3320   22.1700 O   0  0  0  0  0  0  0  0  0  0  0  0
  -30.7400  -20.8080   20.0610 H   0  0  0  0  0  0  0  0  0  0  0  0
  -28.4660  -18.5550   17.5860 C   0  0  0  0  0  2  0  0  0  0  0  0
  -28.2350  -17.0610   17.7620 C   0  0  0  0  0  2  0  0  0  0  0  0
  -28.4790  -19.2260   18.9620 C   0  0  0  0  0  2  0  0  0  0  0  0
  -29.3290  -16.4900   18.6650 C   0  0  0  0  0  2  0  0  0  0  0  0
  -29.5570  -18.6280   19.9240 C   0  0  0  0  0  3  0  0  0  0  0  0
  -29.3000  -17.0680   20.1040 C   0  0  0  0  0  3  0  0  0  0  0  0
  -30.1640  -16.1990   21.1210 C   0  0  0  0  0  2  0  0  0  0  0  0
  -30.8700  -14.9020   20.5750 C   0  0  0  0  0  0  0  0  0  0  0  0
  -30.6260  -12.7470   19.3650 C   0  0  0  0  0  2  0  0  0  0  0  0
  -29.6760  -12.8650   18.1490 C   0  0  0  0  0  2  0  0  0  0  0  0
  -28.1920  -12.7740   18.5640 C   0  0  0  0  0  2  0  0  0  0  0  0
  -27.8430  -13.5690   19.8500 C   0  0  0  0  0  3  0  0  0  0  0  0
  -28.8960  -13.3610   20.9550 C   0  0  0  0  0  2  0  0  0  0  0  0
  -30.2140  -13.7120   20.4050 N   0  0  0  0  0  0  0  0  0  0  0  0
  -32.0230  -15.0500   20.1610 O   0  0  0  0  0  0  0  0  0  0  0  0
  -25.4210  -14.1160   20.4980 C   0  0  0  0  0  0  0  0  0  0  0  0
  -24.3630  -13.3160   20.8430 C   0  0  0  0  0  0  0  0  0  0  0  0
  -24.8610  -11.9780   20.8330 C   0  0  0  0  0  0  0  0  0  0  0  0
  -26.4930  -13.2600   20.3060 N   0  0  0  0  0  0  0  0  0  0  0  0
  -26.1590  -11.9690   20.5600 N   0  0  0  0  0  0  0  0  0  0  0  0
  -24.1650  -10.6960   21.0120 C   0  0  0  0  0  0  0  0  0  0  0  0
  -24.5750   -9.7690   21.9950 C   0  0  0  0  0  3  0  0  0  0  0  0
  -23.8830   -8.5480   22.1580 C   0  0  0  0  0  3  0  0  0  0  0  0
  -22.7700   -8.2480   21.3360 C   0  0  0  0  0  0  0  0  0  0  0  0
  -22.3840   -9.1650   20.3420 C   0  0  0  0  0  3  0  0  0  0  0  0
  -23.0770  -10.3770   20.1770 C   0  0  0  0  0  3  0  0  0  0  0  0
  -22.0510   -7.0780   21.4030 O   0  0  0  0  0  0  0  0  0  0  0  0
  -21.9140   -6.3870   22.5800 C   0  0  0  0  0  0  0  0  0  0  0  0
  -21.3060   -6.9640   23.7170 C   0  0  0  0  0  3  0  0  0  0  0  0
  -21.1270   -6.1960   24.8840 C   0  0  0  0  0  3  0  0  0  0  0  0
  -21.5440   -4.8520   24.9150 C   0  0  0  0  0  0  0  0  0  0  0  0
  -22.1440   -4.2740   23.7810 C   0  0  0  0  0  3  0  0  0  0  0  0
  -22.3280   -5.0400   22.6180 C   0  0  0  0  0  0  0  0  0  0  0  0
  -22.8900   -4.4740   21.5240 F   0  0  0  0  0  0  0  0  0  0  0  0
  -21.3630   -4.1130   26.0340 F   0  0  0  0  0  0  0  0  0  0  0  0
  -22.9470  -13.7570   21.0790 C   0  0  0  0  0  0  0  0  0  0  0  0
  -22.2200  -13.0430   21.9360 N   0  0  0  0  0  0  0  0  0  0  0  0
  -22.4900  -14.7630   20.5400 O   0  0  0  0  0  0  0  0  0  0  0  0
  -22.6030  -12.2310   22.3910 H   0  0  0  0  0  0  0  0  0  0  0  0
  -21.2660  -13.3100   22.1360 H   0  0  0  0  0  0  0  0  0  0  0  0
  -25.5590  -15.4890   20.3120 N   0  0  0  0  0  0  0  0  0  0  0  0
  -24.7730  -16.1260   20.3640 H   0  0  0  0  0  0  0  0  0  0  0  0
  -26.4160  -15.9440   20.0220 H   0  0  0  0  0  0  0  0  0  0  0  0
  -30.0590  -22.0490   21.6180 C   0  0  0  0  0  2  0  0  0  0  0  0
  -29.3530  -23.0890   20.6950 C   0  0  0  0  0  2  0  0  0  0  0  0
  -29.3790  -24.5880   21.1260 C   0  0  0  0  0  2  0  0  0  0  0  0
  -28.5090  -25.4850   20.1960 C   0  0  0  0  0  2  0  0  0  0  0  0
  -28.6120  -26.9170   20.4240 O   0  0  0  0  0  0  0  0  0  0  0  0
  -24.7510  -32.1060   23.4180 C   0  0  0  0  0  0  0  0  0  0  0  0
  -27.4550  -27.6850   20.3310 C   0  0  0  0  0  0  0  0  0  0  0  0
  -23.5780  -30.7020   21.7590 C   0  0  0  0  0  3  0  0  0  0  0  0
  -25.0580  -29.2090   20.3150 C   0  0  0  0  0  0  0  0  0  0  0  0
  -26.1030  -31.0900   21.5810 C   0  0  0  0  0  2  0  0  0  0  0  0
  -26.2080  -29.7240   20.9260 C   0  0  0  0  0  0  0  0  0  0  0  0
  -27.4090  -28.9710   20.9280 C   0  0  0  0  0  3  0  0  0  0  0  0
  -26.2920  -27.2170   19.6740 C   0  0  0  0  0  3  0  0  0  0  0  0
  -25.1000  -27.9620   19.6770 C   0  0  0  0  0  3  0  0  0  0  0  0
  -23.8060  -30.0540   20.3690 C   0  0  0  0  0  2  0  0  0  0  0  0
  -24.8290  -31.3130   22.3120 N   0  0  0  0  0  0  0  0  0  0  0  0
  -23.6620  -32.3570   23.9530 O   0  0  0  0  0  0  0  0  0  0  0  0
  -22.9370  -29.6560   22.7030 C   0  0  0  0  0  0  0  0  0  0  0  0
  -21.6290  -29.4050   22.5220 N   0  0  0  0  0  0  0  0  0  0  0  0
  -23.6130  -29.0790   23.5590 O   0  0  0  0  0  0  0  0  0  0  0  0
  -21.1430  -29.9300   21.8080 H   0  0  0  0  0  0  0  0  0  0  0  0
  -18.3140  -28.0000   22.8440 C   0  0  0  0  0  0  0  0  0  0  0  0
  -20.8260  -28.4380   23.2690 C   0  0  0  0  0  3  0  0  0  0  0  0
  -21.0600  -27.0000   22.7470 C   0  0  0  0  0  2  0  0  0  0  0  0
  -20.0490  -26.5740   21.6780 C   0  0  0  0  0  2  0  0  0  0  0  0
  -18.6210  -26.6460   22.2280 C   0  0  0  0  0  2  0  0  0  0  0  0
  -19.3500  -28.8480   23.3190 C   0  0  0  0  0  0  0  0  0  0  0  0
  -19.0110  -30.1100   23.8530 C   0  0  0  0  0  3  0  0  0  0  0  0
  -17.6680  -30.5280   23.9190 C   0  0  0  0  0  3  0  0  0  0  0  0
  -16.6450  -29.6780   23.4610 C   0  0  0  0  0  3  0  0  0  0  0  0
  -16.9690  -28.4180   22.9290 C   0  0  0  0  0  3  0  0  0  0  0  0
  -26.0220  -32.7530   24.0510 C   0  0  0  0  0  3  0  0  0  0  0  0
  -25.7210  -34.1680   24.3060 N   0  0  0  0  0  0  0  0  0  0  0  0
  -26.0780  -35.1780   23.5000 C   0  0  0  0  0  0  0  0  0  0  0  0
  -26.7700  -35.0170   22.4900 O   0  0  0  0  0  0  0  0  0  0  0  0
  -25.1160  -34.3690   25.0880 H   0  0  0  0  0  0  0  0  0  0  0  0
  -24.3800  -36.9690   23.0140 C   0  0  0  0  0  1  0  0  0  0  0  0
  -25.5950  -36.5920   23.8770 C   0  0  0  0  0  3  0  0  0  0  0  0
  -27.7110  -37.5040   24.7270 C   0  0  0  0  0  1  0  0  0  0  0  0
  -26.6420  -37.6280   23.7390 N   0  0  0  0  0  0  0  0  0  0  0  0
  -26.2410  -38.5590   23.8220 H   0  0  0  0  0  0  0  0  0  0  0  0
  -26.4910  -32.0350   25.3750 C   0  0  1  0  0  0  0  0  0  0  0  0
  -25.3590  -31.8340   26.4100 C   0  0  0  0  0  1  0  0  0  0  0  0
  -27.0910  -30.6460   25.0550 C   0  0  0  0  0  1  0  0  0  0  0  0
  -27.6160  -32.8570   26.0460 C   0  0  0  0  0  1  0  0  0  0  0  0
  1  3  2  0
  2  1  1  0
  2 48  1  0
  4  2  1  0
  5  6  1  0
  5  7  1  0
  6  8  1  0
  7  9  1  0
  8 10  1  0
  9 10  1  0
  9  1  1  0
 10 11  1  0
 12 11  1  0
 13 18  1  0
 14 15  1  0
 14 13  1  0
 16 15  1  0
 16 23  1  0
 16 17  1  0
 18 12  1  0
 18 17  1  0
 19 12  2  0
 20 21  2  0
 21 40  1  0
 22 21  1  0
 22 25  1  0
 23 20  1  0
 23 24  1  0
 24 22  2  0
 25 26  1  0
 26 27  2  0
 28 31  1  0
 28 27  1  0
 29 28  2  0
 30 29  1  0
 30 25  2  0
 31 32  1  0
 32 37  2  0
 32 33  1  0
 33 34  2  0
 34 35  1  0
 35 39  1  0
 36 35  2  0
 37 36  1  0
 38 37  1  0
 40 41  1  0
 41 44  1  0
 41 43  1  0
 42 40  2  0
 45 46  1  0
 45 20  1  0
 47 45  1  0
 49 50  1  0
 49 48  1  0
 51 52  1  0
 51 50  1  0
 53 64  2  0
 54 52  1  0
 54 59  1  0
 55 63  1  0
 55 65  1  0
 56 62  1  0
 56 58  1  0
 57 63  1  0
 58 59  2  0
 58 57  1  0
 60 61  1  0
 60 54  2  0
 61 56  2  0
 62 55  1  0
 63 53  1  0
 65 67  2  0
 66 65  1  0
 68 66  1  0
 69 78  2  0
 69 74  1  0
 70 66  1  0
 70 74  1  0
 71 70  1  0
 72 73  1  0
 72 71  1  0
 73 69  1  0
 74 75  2  0
 75 76  1  0
 77 76  2  0
 78 77  1  0
 79 53  1  0
 79 80  1  0
 79 89  1  0
 80 83  1  0
 81 85  1  0
 81 80  1  0
 82 81  2  0
 85 84  1  0
 87 88  1  0
 87 85  1  0
 87 86  1  0
 89 92  1  1
 89 90  1  0
 91 89  1  0
M  ISO  4  11 100  12 100  51 101  52 101
M  END
>  <TORSDO>  (19) 
F 22

>  <SCORE>  (19) 
-10.572

>  <name>  (19) 
18

>  <ligand_id>  (19) 
18

>  <original_smiles>  (19) 
[H]c1c([H])c([H])c2c(c1[H])C([H])([H])C([H])([H])C([H])([H])C2([H])N([H])C(=O)C1([H])N(C(=O)C([H])(N([H])C(=O)C([H])(N([H])C([H])([H])[H])C([H])([H])[H])C(C([H])([H])[H])(C([H])([H])[H])C([H])([H])[H])C([H])([H])c2c([H])c(OC([H])([H])C([H])([H])C([H])([H])C([H])([H])N([H])C(=O)C3([H])C([H])([H])C([H])([H])C([H])([H])C([H])([H])C3([H])C([H])([H])C(=O)N3C([H])([H])C([H])([H])C([H])([H])C([H])(n4nc(-c5c([H])c([H])c(Oc6c([H])c([H])c(F)c([H])c6F)c([H])c5[H])c(C(=O)N([H])[H])c4N([H])[H])C3([H])[H])c([H])c([H])c2C1([H])[H]

>  <smiles>  (19) 
[H]c1c([H])c([H])c2c(c1[H])C([H])([H])C([H])([H])C([H])([H])C2([H])N([H])C(=O)C1([H])N(C(=O)C([H])(N([H])C(=O)C([H])(N([H])C([H])([H])[H])C([H])([H])[H])C(C([H])([H])[H])(C([H])([H])[H])C([H])([H])[H])C([H])([H])c2c([H])c(OC([H])([H])C([H])([H])C([H])([H])C([H])([H])N([H])C(=O)C3([H])C([H])([H])C([H])([H])C([H])([H])C([H])([H])C3([H])C([H])([H])C(=O)N3C([H])([H])C([H])([H])C([H])([H])C([H])(n4nc(-c5c([H])c([H])c(Oc6c([H])c([H])c(F)c([H])c6F)c([H])c5[H])c(C(=O)N([H])[H])c4N([H])[H])C3([H])[H])c([H])c([H])c2C1([H])[H]

$$$$
19:0:0
     RDKit          3D

 87 92  0  0  1  0  0  0  0  0999 V2000
  -30.7320  -20.2620   20.0900 C   0  0  0  0  0  2  0  0  0  0  0  0
  -29.3400  -19.7380   20.4690 C   0  0  0  0  0  1  0  0  0  0  0  0
  -28.9310  -21.6970   20.0300 C   0  0  0  0  0  1  0  0  0  0  0  0
  -30.4280  -21.7530   20.4030 C   0  0  0  0  0  3  0  0  0  0  0  0
  -31.2310  -22.7020   19.6000 N   0  0  0  0  0  4  0  0  0  0  0  0
  -31.1410  -22.5350   18.6140 H   0  0  0  0  0  0  0  0  0  0  0  0
  -32.2040  -22.6310   19.8370 H   0  0  0  0  0  0  0  0  0  0  0  0
  -30.9540  -23.6500   19.7800 H   0  0  0  0  0  0  0  0  0  0  0  0
  -29.2440  -17.7290   20.0370 C   0  0  0  0  0  1  0  0  0  0  0  0
  -30.1030  -15.9590   20.0780 C   0  0  0  0  0  0  0  0  0  0  0  0
  -30.2890  -13.3460   19.2860 C   0  0  0  0  0  2  0  0  0  0  0  0
  -29.4020  -12.8580   18.0950 C   0  0  0  0  0  2  0  0  0  0  0  0
  -27.9970  -12.4560   18.5650 C   0  0  0  0  0  2  0  0  0  0  0  0
  -27.4690  -13.4590   19.6100 C   0  0  0  0  0  3  0  0  0  0  0  0
  -28.4990  -13.8470   20.7000 C   0  0  0  0  0  2  0  0  0  0  0  0
  -29.6420  -14.5360   20.0380 N   0  0  0  0  0  0  0  0  0  0  0  0
  -31.3420  -15.8570   19.9300 O   0  0  0  0  0  0  0  0  0  0  0  0
  -25.1180  -13.9540   20.4150 C   0  0  0  0  0  0  0  0  0  0  0  0
  -24.0720  -13.1650   20.7950 C   0  0  0  0  0  0  0  0  0  0  0  0
  -24.5550  -11.8200   20.7620 C   0  0  0  0  0  0  0  0  0  0  0  0
  -26.1680  -13.0950   20.1560 N   0  0  0  0  0  0  0  0  0  0  0  0
  -25.8460  -11.8020   20.4320 N   0  0  0  0  0  0  0  0  0  0  0  0
  -23.8390  -10.5520   20.9640 C   0  0  0  0  0  0  0  0  0  0  0  0
  -24.2770   -9.5940   21.9040 C   0  0  0  0  0  3  0  0  0  0  0  0
  -23.5560   -8.3950   22.0960 C   0  0  0  0  0  3  0  0  0  0  0  0
  -22.3800   -8.1470   21.3500 C   0  0  0  0  0  0  0  0  0  0  0  0
  -21.9590   -9.0930   20.4000 C   0  0  0  0  0  3  0  0  0  0  0  0
  -22.6800  -10.2830   20.2060 C   0  0  0  0  0  3  0  0  0  0  0  0
  -21.6290   -6.9990   21.4520 O   0  0  0  0  0  0  0  0  0  0  0  0
  -21.5820   -6.2680   22.6110 C   0  0  0  0  0  0  0  0  0  0  0  0
  -21.1300   -6.8270   23.8260 C   0  0  0  0  0  3  0  0  0  0  0  0
  -21.0320   -6.0220   24.9790 C   0  0  0  0  0  3  0  0  0  0  0  0
  -21.3790   -4.6590   24.9170 C   0  0  0  0  0  0  0  0  0  0  0  0
  -21.8240   -4.0990   23.7070 C   0  0  0  0  0  3  0  0  0  0  0  0
  -21.9220   -4.9010   22.5570 C   0  0  0  0  0  0  0  0  0  0  0  0
  -22.3320   -4.3510   21.3880 F   0  0  0  0  0  0  0  0  0  0  0  0
  -21.2790   -3.8830   26.0230 F   0  0  0  0  0  0  0  0  0  0  0  0
  -22.6730  -13.6300   21.0720 C   0  0  0  0  0  0  0  0  0  0  0  0
  -21.9590  -12.9380   21.9520 N   0  0  0  0  0  0  0  0  0  0  0  0
  -22.2230  -14.6450   20.5430 O   0  0  0  0  0  0  0  0  0  0  0  0
  -22.3380  -12.1180   22.4020 H   0  0  0  0  0  0  0  0  0  0  0  0
  -21.0210  -13.2330   22.1820 H   0  0  0  0  0  0  0  0  0  0  0  0
  -25.2630  -15.3270   20.2320 N   0  0  0  0  0  0  0  0  0  0  0  0
  -24.4890  -15.9740   20.3550 H   0  0  0  0  0  0  0  0  0  0  0  0
  -26.1040  -15.7760   19.8940 H   0  0  0  0  0  0  0  0  0  0  0  0
  -28.0840  -23.5170   20.4780 C   0  0  0  0  0  1  0  0  0  0  0  0
  -28.1760  -25.3570   20.3240 O   0  0  0  0  0  0  0  0  0  0  0  0
  -24.6320  -31.8600   23.2060 C   0  0  0  0  0  0  0  0  0  0  0  0
  -27.2010  -26.6270   20.3140 C   0  0  0  0  0  0  0  0  0  0  0  0
  -23.4710  -30.4380   21.5750 C   0  0  0  0  0  3  0  0  0  0  0  0
  -24.9380  -28.7490   20.2070 C   0  0  0  0  0  0  0  0  0  0  0  0
  -26.0580  -30.5450   21.4930 C   0  0  0  0  0  2  0  0  0  0  0  0
  -26.1320  -29.0890   20.8540 C   0  0  0  0  0  0  0  0  0  0  0  0
  -27.2410  -28.0630   20.8630 C   0  0  0  0  0  3  0  0  0  0  0  0
  -25.9640  -26.5360   19.6110 C   0  0  0  0  0  3  0  0  0  0  0  0
  -24.9030  -27.5010   19.5600 C   0  0  0  0  0  3  0  0  0  0  0  0
  -23.7340  -29.7160   20.2200 C   0  0  0  0  0  2  0  0  0  0  0  0
  -24.7450  -30.9850   22.1440 N   0  0  0  0  0  0  0  0  0  0  0  0
  -23.5290  -32.1660   23.6950 O   0  0  0  0  0  0  0  0  0  0  0  0
  -22.7340  -29.4810   22.5520 C   0  0  0  0  0  0  0  0  0  0  0  0
  -21.4000  -29.3360   22.4220 N   0  0  0  0  0  0  0  0  0  0  0  0
  -23.3770  -28.8640   23.4030 O   0  0  0  0  0  0  0  0  0  0  0  0
  -20.9270  -29.8840   21.7150 H   0  0  0  0  0  0  0  0  0  0  0  0
  -18.0020  -28.1430   22.9410 C   0  0  0  0  0  0  0  0  0  0  0  0
  -20.5640  -28.4080   23.1960 C   0  0  0  0  0  3  0  0  0  0  0  0
  -20.6580  -26.9710   22.6290 C   0  0  0  0  0  2  0  0  0  0  0  0
  -19.5550  -26.6500   21.6150 C   0  0  0  0  0  2  0  0  0  0  0  0
  -18.1750  -26.7950   22.2600 C   0  0  0  0  0  2  0  0  0  0  0  0
  -19.1230  -28.9070   23.3650 C   0  0  0  0  0  0  0  0  0  0  0  0
  -18.9020  -30.1640   23.9680 C   0  0  0  0  0  3  0  0  0  0  0  0
  -17.5960  -30.6600   24.1460 C   0  0  0  0  0  3  0  0  0  0  0  0
  -16.4920  -29.8950   23.7330 C   0  0  0  0  0  3  0  0  0  0  0  0
  -16.6960  -28.6380   23.1370 C   0  0  0  0  0  3  0  0  0  0  0  0
  -25.8790  -32.5280   23.8600 C   0  0  0  0  0  3  0  0  0  0  0  0
  -26.3460  -31.8020   25.1830 C   0  0  1  0  0  0  0  0  0  0  0  0
  -25.2160  -31.6070   26.2220 C   0  0  0  0  0  1  0  0  0  0  0  0
  -26.9360  -30.4080   24.8750 C   0  0  0  0  0  1  0  0  0  0  0  0
  -27.4770  -32.6140   25.8560 C   0  0  0  0  0  1  0  0  0  0  0  0
  -25.5490  -33.9380   24.1610 N   0  0  0  0  0  0  0  0  0  0  0  0
  -25.8900  -34.9920   23.4080 C   0  0  0  0  0  0  0  0  0  0  0  0
  -26.5710  -34.8820   22.3850 O   0  0  0  0  0  0  0  0  0  0  0  0
  -24.9430  -34.0960   24.9530 H   0  0  0  0  0  0  0  0  0  0  0  0
  -24.1670  -36.7980   23.0440 C   0  0  0  0  0  1  0  0  0  0  0  0
  -25.4070  -36.3900   23.8560 C   0  0  0  0  0  3  0  0  0  0  0  0
  -27.5390  -37.2900   24.6860 C   0  0  0  0  0  1  0  0  0  0  0  0
  -26.4420  -37.4420   23.7340 N   0  0  0  0  0  0  0  0  0  0  0  0
  -26.0350  -38.3640   23.8660 H   0  0  0  0  0  0  0  0  0  0  0  0
  1  4  1  0
  1  2  1  0
  4  3  1  0
  5  8  1  0
  5  7  1  0
  5  4  1  0
  6  5  1  0
  9 10  1  0
 11 16  1  0
 12 13  1  0
 12 11  1  0
 14 13  1  0
 14 21  1  0
 14 15  1  0
 16 10  1  0
 16 15  1  0
 17 10  2  0
 18 19  2  0
 19 38  1  0
 20 19  1  0
 20 23  1  0
 21 18  1  0
 21 22  1  0
 22 20  2  0
 23 24  1  0
 24 25  2  0
 26 29  1  0
 26 25  1  0
 27 26  2  0
 28 27  1  0
 28 23  2  0
 29 30  1  0
 30 31  1  0
 31 32  2  0
 33 32  1  0
 33 37  1  0
 34 33  2  0
 35 30  2  0
 35 34  1  0
 36 35  1  0
 38 39  1  0
 39 42  1  0
 39 41  1  0
 40 38  2  0
 43 44  1  0
 43 18  1  0
 45 43  1  0
 47 46  1  0
 48 59  2  0
 49 47  1  0
 49 54  1  0
 50 58  1  0
 50 60  1  0
 51 57  1  0
 51 53  1  0
 52 58  1  0
 53 54  2  0
 53 52  1  0
 55 49  2  0
 56 55  1  0
 56 51  2  0
 57 50  1  0
 58 48  1  0
 60 62  2  0
 61 60  1  0
 63 61  1  0
 64 73  2  0
 64 69  1  0
 65 61  1  0
 65 69  1  0
 66 65  1  0
 67 68  1  0
 67 66  1  0
 68 64  1  0
 69 70  2  0
 70 71  1  0
 72 71  2  0
 73 72  1  0
 74 48  1  0
 74 79  1  0
 74 75  1  0
 75 78  1  1
 75 76  1  0
 77 75  1  0
 79 82  1  0
 80 84  1  0
 80 79  1  0
 81 80  2  0
 84 83  1  0
 86 84  1  0
 86 87  1  0
 86 85  1  0
M  ISO  4   9 100  10 100  46 101  47 101
M  END
>  <TORSDO>  (20) 
F 19

>  <SCORE>  (20) 
-16.007

>  <name>  (20) 
19

>  <ligand_id>  (20) 
19

>  <original_smiles>  (20) 
[H]c1c([H])c([H])c2c(c1[H])C([H])([H])C([H])([H])C([H])([H])C2([H])N([H])C(=O)C1([H])N(C(=O)C([H])(N([H])C(=O)C([H])(N([H])C([H])([H])[H])C([H])([H])[H])C(C([H])([H])[H])(C([H])([H])[H])C([H])([H])[H])C([H])([H])c2c([H])c(OC([H])([H])C3([H])C([H])(C([H])([H])C(=O)N4C([H])([H])C([H])([H])C([H])([H])C([H])(n5nc(-c6c([H])c([H])c(Oc7c([H])c([H])c(F)c([H])c7F)c([H])c6[H])c(C(=O)N([H])[H])c5N([H])[H])C4([H])[H])C([H])([H])C3([H])[N+]([H])([H])[H])c([H])c([H])c2C1([H])[H]

>  <smiles>  (20) 
[H]c1c([H])c([H])c2c(c1[H])C([H])([H])C([H])([H])C([H])([H])C2([H])N([H])C(=O)C1([H])N(C(=O)C([H])(N([H])C(=O)C([H])(N([H])C([H])([H])[H])C([H])([H])[H])C(C([H])([H])[H])(C([H])([H])[H])C([H])([H])[H])C([H])([H])c2c([H])c(OC([H])([H])C3([H])C([H])(C([H])([H])C(=O)N4C([H])([H])C([H])([H])C([H])([H])C([H])(n5nc(-c6c([H])c([H])c(Oc7c([H])c([H])c(F)c([H])c7F)c([H])c6[H])c(C(=O)N([H])[H])c5N([H])[H])C4([H])[H])C([H])([H])C3([H])[N+]([H])([H])[H])c([H])c([H])c2C1([H])[H]

$$$$
20:0:0
     RDKit          3D

 90 99  0  0  1  0  0  0  0  0999 V2000
  -31.6610  -19.6610   24.1610 C   0  0  0  0  0  2  0  0  0  0  0  0
  -30.2340  -20.1960   24.3370 C   0  0  0  0  0  2  0  0  0  0  0  0
  -32.5120  -20.6650   23.3720 C   0  0  0  0  0  2  0  0  0  0  0  0
  -29.5610  -20.3990   22.9730 C   0  0  0  0  0  2  0  0  0  0  0  0
  -32.1520  -20.0150   20.8730 C   0  0  0  0  0  2  0  0  0  0  0  0
  -31.8960  -21.0300   22.0050 C   0  0  0  0  0  3  0  0  0  0  0  0
  -30.3770  -21.3300   22.0450 C   0  0  0  0  0  3  0  0  0  0  0  0
  -30.8010  -19.7480   20.1910 C   0  0  0  0  0  3  0  0  0  0  0  0
  -29.9460  -21.2170   20.6340 N   0  0  2  0  0  4  0  0  0  0  0  0
  -28.9670  -20.9700   20.6260 H   0  0  0  0  0  0  0  0  0  0  0  0
  -30.5620  -17.8670   20.4880 C   0  0  0  0  0  2  0  0  0  0  0  0
  -31.4940  -16.2660   20.4160 C   0  0  0  0  0  0  0  0  0  0  0  0
  -31.7290  -13.6980   19.7470 C   0  0  0  0  0  2  0  0  0  0  0  0
  -30.8850  -13.2720   18.5120 C   0  0  0  0  0  2  0  0  0  0  0  0
  -29.4530  -12.8960   18.9240 C   0  0  0  0  0  2  0  0  0  0  0  0
  -28.8790  -13.9110   19.9390 C   0  0  0  0  0  3  0  0  0  0  0  0
  -29.8630  -14.2720   21.0740 C   0  0  0  0  0  2  0  0  0  0  0  0
  -31.0630  -14.8750   20.4570 N   0  0  0  0  0  0  0  0  0  0  0  0
  -32.7230  -16.2740   20.2140 O   0  0  0  0  0  0  0  0  0  0  0  0
  -26.5080  -14.3930   20.7180 C   0  0  0  0  0  0  0  0  0  0  0  0
  -25.4520  -13.5910   21.0470 C   0  0  0  0  0  0  0  0  0  0  0  0
  -25.9340  -12.2470   20.9610 C   0  0  0  0  0  0  0  0  0  0  0  0
  -27.5590  -13.5410   20.4360 N   0  0  0  0  0  0  0  0  0  0  0  0
  -27.2280  -12.2400   20.6510 N   0  0  0  0  0  0  0  0  0  0  0  0
  -25.2160  -10.9710   21.0970 C   0  0  0  0  0  0  0  0  0  0  0  0
  -25.3980  -10.1340   22.2190 C   0  0  0  0  0  3  0  0  0  0  0  0
  -24.6780   -8.9240   22.3360 C   0  0  0  0  0  3  0  0  0  0  0  0
  -23.7620   -8.5430   21.3260 C   0  0  0  0  0  0  0  0  0  0  0  0
  -23.6030   -9.3700   20.1990 C   0  0  0  0  0  3  0  0  0  0  0  0
  -24.3230  -10.5700   20.0830 C   0  0  0  0  0  3  0  0  0  0  0  0
  -23.0400   -7.3760   21.3410 O   0  0  0  0  0  0  0  0  0  0  0  0
  -22.3020   -6.9970   22.4340 C   0  0  0  0  0  0  0  0  0  0  0  0
  -21.2640   -7.8050   22.9470 C   0  0  0  0  0  3  0  0  0  0  0  0
  -20.4860   -7.3490   24.0310 C   0  0  0  0  0  3  0  0  0  0  0  0
  -20.7370   -6.0830   24.5940 C   0  0  0  0  0  0  0  0  0  0  0  0
  -21.7660   -5.2750   24.0810 C   0  0  0  0  0  3  0  0  0  0  0  0
  -22.5440   -5.7300   23.0020 C   0  0  0  0  0  0  0  0  0  0  0  0
  -23.5210   -4.9370   22.4980 F   0  0  0  0  0  0  0  0  0  0  0  0
  -19.9850   -5.6410   25.6290 F   0  0  0  0  0  0  0  0  0  0  0  0
  -24.0480  -14.0430   21.3230 C   0  0  0  0  0  0  0  0  0  0  0  0
  -23.3390  -13.3460   22.2020 N   0  0  0  0  0  0  0  0  0  0  0  0
  -23.5900  -15.0530   20.7920 O   0  0  0  0  0  0  0  0  0  0  0  0
  -23.7240  -12.5330   22.6590 H   0  0  0  0  0  0  0  0  0  0  0  0
  -22.3960  -13.6320   22.4210 H   0  0  0  0  0  0  0  0  0  0  0  0
  -26.6590  -15.7730   20.6020 N   0  0  0  0  0  0  0  0  0  0  0  0
  -25.8910  -16.4190   20.7430 H   0  0  0  0  0  0  0  0  0  0  0  0
  -27.5090  -16.2280   20.2960 H   0  0  0  0  0  0  0  0  0  0  0  0
  -29.9620  -22.8680   20.0410 C   0  0  0  0  0  3  0  0  0  0  0  0
  -28.7270  -24.3350   19.9830 C   0  0  0  0  0  3  0  0  0  0  0  0
  -28.5950  -25.9940   19.4540 O   0  0  0  0  0  0  0  0  0  0  0  0
  -24.6440  -31.5590   23.1040 C   0  0  0  0  0  0  0  0  0  0  0  0
  -27.5010  -27.0730   19.5790 C   0  0  0  0  0  0  0  0  0  0  0  0
  -23.5260  -30.2260   21.3670 C   0  0  0  0  0  3  0  0  0  0  0  0
  -25.0590  -28.8590   19.7710 C   0  0  0  0  0  0  0  0  0  0  0  0
  -26.0730  -30.6210   21.1930 C   0  0  0  0  0  2  0  0  0  0  0  0
  -26.2400  -29.2720   20.4010 C   0  0  0  0  0  0  0  0  0  0  0  0
  -27.4440  -28.4110   20.2730 C   0  0  0  0  0  3  0  0  0  0  0  0
  -26.2660  -26.8550   18.9170 C   0  0  0  0  0  3  0  0  0  0  0  0
  -25.1060  -27.6800   19.0050 C   0  0  0  0  0  3  0  0  0  0  0  0
  -23.7770  -29.6850   19.9310 C   0  0  0  0  0  2  0  0  0  0  0  0
  -24.7710  -30.8310   21.9430 N   0  0  0  0  0  0  0  0  0  0  0  0
  -23.5480  -31.7100   23.6690 O   0  0  0  0  0  0  0  0  0  0  0  0
  -22.9310  -29.0990   22.2550 C   0  0  0  0  0  0  0  0  0  0  0  0
  -21.6670  -28.7020   22.0080 N   0  0  0  0  0  0  0  0  0  0  0  0
  -23.6200  -28.5810   23.1370 O   0  0  0  0  0  0  0  0  0  0  0  0
  -21.1520  -29.1800   21.2830 H   0  0  0  0  0  0  0  0  0  0  0  0
  -18.5140  -26.9150   22.2510 C   0  0  0  0  0  0  0  0  0  0  0  0
  -20.9700  -27.6030   22.6890 C   0  0  0  0  0  3  0  0  0  0  0  0
  -21.3490  -26.2370   22.0700 C   0  0  0  0  0  2  0  0  0  0  0  0
  -20.3800  -25.7800   20.9730 C   0  0  0  0  0  2  0  0  0  0  0  0
  -18.9590  -25.6540   21.5310 C   0  0  0  0  0  2  0  0  0  0  0  0
  -19.4560  -27.8370   22.7790 C   0  0  0  0  0  0  0  0  0  0  0  0
  -18.9840  -29.0080   23.4120 C   0  0  0  0  0  3  0  0  0  0  0  0
  -17.6040  -29.2620   23.5210 C   0  0  0  0  0  3  0  0  0  0  0  0
  -16.6760  -28.3400   23.0070 C   0  0  0  0  0  3  0  0  0  0  0  0
  -17.1310  -27.1670   22.3780 C   0  0  0  0  0  3  0  0  0  0  0  0
  -25.8690  -32.2530   23.7740 C   0  0  0  0  0  3  0  0  0  0  0  0
  -26.3740  -31.4990   25.0670 C   0  0  1  0  0  0  0  0  0  0  0  0
  -25.2480  -31.1500   26.0680 C   0  0  0  0  0  1  0  0  0  0  0  0
  -27.0900  -30.1800   24.6960 C   0  0  0  0  0  1  0  0  0  0  0  0
  -27.4190  -32.3690   25.8050 C   0  0  0  0  0  1  0  0  0  0  0  0
  -25.4820  -33.6340   24.1210 N   0  0  0  0  0  0  0  0  0  0  0  0
  -25.7320  -34.7160   23.3700 C   0  0  0  0  0  0  0  0  0  0  0  0
  -26.3720  -34.6600   22.3170 O   0  0  0  0  0  0  0  0  0  0  0  0
  -24.9060  -33.7460   24.9410 H   0  0  0  0  0  0  0  0  0  0  0  0
  -23.8900  -36.4190   23.1210 C   0  0  0  0  0  1  0  0  0  0  0  0
  -25.1920  -36.0760   23.8640 C   0  0  0  0  0  3  0  0  0  0  0  0
  -27.2980  -37.0980   24.6130 C   0  0  0  0  0  1  0  0  0  0  0  0
  -26.1570  -37.1880   23.7060 N   0  0  0  0  0  0  0  0  0  0  0  0
  -25.7020  -38.0830   23.8590 H   0  0  0  0  0  0  0  0  0  0  0  0
  1  2  1  0
  3  1  1  0
  4  2  1  0
  6  5  1  0
  6  7  1  0
  6  3  1  0
  7  4  1  0
  8 11  1  0
  8  9  1  0
  8  5  1  0
  9  7  1  0
  9 10  1  1
 12 18  1  0
 12 11  1  0
 13 18  1  0
 14 15  1  0
 14 13  1  0
 16 15  1  0
 16 23  1  0
 16 17  1  0
 18 17  1  0
 19 12  2  0
 20 21  2  0
 21 40  1  0
 22 21  1  0
 22 25  1  0
 23 24  1  0
 23 20  1  0
 24 22  2  0
 25 26  1  0
 26 27  2  0
 28 31  1  0
 28 27  1  0
 29 28  2  0
 30 29  1  0
 30 25  2  0
 31 32  1  0
 32 33  2  0
 32 37  1  0
 33 34  1  0
 34 35  2  0
 35 39  1  0
 36 35  1  0
 37 36  2  0
 38 37  1  0
 40 41  1  0
 41 44  1  0
 41 43  1  0
 42 40  2  0
 45 20  1  0
 45 46  1  0
 47 45  1  0
 48  9  1  0
 49 48  2  0
 50 52  1  0
 50 49  1  0
 51 62  2  0
 52 57  1  0
 53 61  1  0
 53 63  1  0
 54 60  1  0
 54 56  1  0
 55 61  1  0
 56 55  1  0
 57 56  2  0
 58 59  1  0
 58 52  2  0
 59 54  2  0
 60 53  1  0
 61 51  1  0
 63 65  2  0
 64 63  1  0
 66 64  1  0
 67 76  2  0
 67 72  1  0
 68 64  1  0
 68 72  1  0
 69 68  1  0
 70 71  1  0
 70 69  1  0
 71 67  1  0
 72 73  2  0
 73 74  1  0
 75 74  2  0
 76 75  1  0
 77 51  1  0
 77 82  1  0
 77 78  1  0
 78 81  1  1
 78 79  1  0
 80 78  1  0
 82 85  1  0
 83 87  1  0
 83 82  1  0
 84 83  2  0
 87 86  1  0
 89 90  1  0
 89 87  1  0
 89 88  1  0
M  ISO  4  11 100  12 100  49 101  50 101
M  END
>  <TORSDO>  (21) 
F 19

>  <SCORE>  (21) 
-10.454

>  <name>  (21) 
20

>  <ligand_id>  (21) 
20

>  <original_smiles>  (21) 
[H]c1c([H])c([H])c2c(c1[H])C([H])([H])C([H])([H])C([H])([H])C2([H])N([H])C(=O)C1([H])N(C(=O)C([H])(N([H])C(=O)C([H])(N([H])C([H])([H])[H])C([H])([H])[H])C(C([H])([H])[H])(C([H])([H])[H])C([H])([H])[H])C([H])([H])c2c([H])c(OC([H])([H])C([H])([H])[N+]3([H])C([H])(C([H])([H])C(=O)N4C([H])([H])C([H])([H])C([H])([H])C([H])(n5nc(-c6c([H])c([H])c(Oc7c([H])c([H])c(F)c([H])c7F)c([H])c6[H])c(C(=O)N([H])[H])c5N([H])[H])C4([H])[H])C([H])([H])C4([H])C([H])([H])C([H])([H])C([H])([H])C([H])([H])C43[H])c([H])c([H])c2C1([H])[H]

>  <smiles>  (21) 
[H]c1c([H])c([H])c2c(c1[H])C([H])([H])C([H])([H])C([H])([H])C2([H])N([H])C(=O)C1([H])N(C(=O)C([H])(N([H])C(=O)C([H])(N([H])C([H])([H])[H])C([H])([H])[H])C(C([H])([H])[H])(C([H])([H])[H])C([H])([H])[H])C([H])([H])c2c([H])c(OC([H])([H])C([H])([H])[N+]3([H])C([H])(C([H])([H])C(=O)N4C([H])([H])C([H])([H])C([H])([H])C([H])(n5nc(-c6c([H])c([H])c(Oc7c([H])c([H])c(F)c([H])c7F)c([H])c6[H])c(C(=O)N([H])[H])c5N([H])[H])C4([H])[H])C([H])([H])C4([H])C([H])([H])C([H])([H])C([H])([H])C([H])([H])C43[H])c([H])c([H])c2C1([H])[H]

$$$$
21:0:0
     RDKit          3D

 96105  0  0  1  0  0  0  0  0999 V2000
  -27.6060  -19.3820   21.1360 C   0  0  0  0  0  1  0  0  0  0  0  0
  -28.7250  -20.2810   20.5840 C   0  0  0  0  0  3  0  0  0  0  0  0
  -30.0560  -18.6330   17.2790 C   0  0  0  0  0  2  0  0  0  0  0  0
  -29.0290  -19.4750   18.0670 C   0  0  0  0  0  2  0  0  0  0  0  0
  -31.0370  -18.0580   18.3190 C   0  0  0  0  0  2  0  0  0  0  0  0
  -29.3990  -16.8380   19.7400 C   0  0  0  0  0  2  0  0  0  0  0  0
  -31.0350  -16.7390   21.5200 C   0  0  0  0  0  2  0  0  0  0  0  0
  -30.0950  -15.8280   20.7010 C   0  0  0  0  0  3  0  0  0  0  0  0
  -29.6150  -19.5690   19.4810 C   0  0  0  0  0  3  0  0  0  0  0  0
  -30.2840  -18.1290   19.6630 C   0  0  2  0  0  0  0  0  0  0  0  0
  -31.2310  -18.0210   20.7970 N   0  0  0  0  0  4  0  0  0  0  0  0
  -32.1760  -18.0640   20.4520 H   0  0  0  0  0  0  0  0  0  0  0  0
  -31.1180  -18.7750   21.4560 H   0  0  0  0  0  0  0  0  0  0  0  0
  -30.8070  -14.6040   20.0150 C   0  0  0  0  0  0  0  0  0  0  0  0
  -30.5360  -12.4110   18.8810 C   0  0  0  0  0  2  0  0  0  0  0  0
  -29.5320  -12.5940   17.7210 C   0  0  0  0  0  2  0  0  0  0  0  0
  -28.0770  -12.4480   18.2160 C   0  0  0  0  0  2  0  0  0  0  0  0
  -27.7980  -13.2790   19.4970 C   0  0  0  0  0  3  0  0  0  0  0  0
  -28.9030  -13.0260   20.5440 C   0  0  0  0  0  2  0  0  0  0  0  0
  -30.1890  -13.3860   19.9310 N   0  0  0  0  0  0  0  0  0  0  0  0
  -31.8980  -14.7980   19.4690 O   0  0  0  0  0  0  0  0  0  0  0  0
  -25.4430  -13.9030   20.3230 C   0  0  0  0  0  0  0  0  0  0  0  0
  -24.3870  -13.1410   20.7410 C   0  0  0  0  0  0  0  0  0  0  0  0
  -24.8330  -11.7840   20.6790 C   0  0  0  0  0  0  0  0  0  0  0  0
  -26.4670  -13.0120   20.0360 N   0  0  0  0  0  0  0  0  0  0  0  0
  -26.1050  -11.7330   20.3040 N   0  0  0  0  0  0  0  0  0  0  0  0
  -24.1040  -10.5290   20.9000 C   0  0  0  0  0  0  0  0  0  0  0  0
  -24.5250   -9.5910   21.8680 C   0  0  0  0  0  3  0  0  0  0  0  0
  -23.7980   -8.3980   22.0730 C   0  0  0  0  0  3  0  0  0  0  0  0
  -22.6360   -8.1370   21.3100 C   0  0  0  0  0  0  0  0  0  0  0  0
  -22.2340   -9.0640   20.3330 C   0  0  0  0  0  3  0  0  0  0  0  0
  -22.9600  -10.2470   20.1240 C   0  0  0  0  0  3  0  0  0  0  0  0
  -21.8800   -6.9950   21.4230 O   0  0  0  0  0  0  0  0  0  0  0  0
  -21.7630   -6.3230   22.6130 C   0  0  0  0  0  0  0  0  0  0  0  0
  -21.2130   -6.9350   23.7610 C   0  0  0  0  0  3  0  0  0  0  0  0
  -21.0460   -6.1890   24.9450 C   0  0  0  0  0  3  0  0  0  0  0  0
  -21.4170   -4.8320   24.9810 C   0  0  0  0  0  0  0  0  0  0  0  0
  -21.9570   -4.2190   23.8390 C   0  0  0  0  0  3  0  0  0  0  0  0
  -22.1280   -4.9630   22.6560 C   0  0  0  0  0  0  0  0  0  0  0  0
  -22.6300   -4.3610   21.5520 F   0  0  0  0  0  0  0  0  0  0  0  0
  -21.2490   -4.1140   26.1170 F   0  0  0  0  0  0  0  0  0  0  0  0
  -23.0120  -13.6310   21.0900 C   0  0  0  0  0  0  0  0  0  0  0  0
  -22.3180  -12.9320   21.9810 N   0  0  0  0  0  0  0  0  0  0  0  0
  -22.5620  -14.6690   20.6050 O   0  0  0  0  0  0  0  0  0  0  0  0
  -22.6960  -12.0930   22.3940 H   0  0  0  0  0  0  0  0  0  0  0  0
  -21.3980  -13.2430   22.2560 H   0  0  0  0  0  0  0  0  0  0  0  0
  -25.6120  -15.2730   20.1440 N   0  0  0  0  0  0  0  0  0  0  0  0
  -24.8530  -15.9310   20.2870 H   0  0  0  0  0  0  0  0  0  0  0  0
  -26.4360  -15.7020   19.7460 H   0  0  0  0  0  0  0  0  0  0  0  0
  -28.1190  -21.6220   20.2260 N   0  0  0  0  0  4  0  0  0  0  0  0
  -27.4490  -21.4930   19.4850 H   0  0  0  0  0  0  0  0  0  0  0  0
  -27.5850  -21.8870   21.0410 H   0  0  0  0  0  0  0  0  0  0  0  0
  -28.9600  -22.8200   19.8890 C   0  0  0  0  0  2  0  0  0  0  0  0
  -28.2210  -24.2030   20.1210 C   0  0  0  0  0  2  0  0  0  0  0  0
  -28.8020  -25.4600   19.3830 C   0  0  0  0  0  2  0  0  0  0  0  0
  -28.6230  -26.7600   20.0040 O   0  0  0  0  0  0  0  0  0  0  0  0
  -24.7200  -31.7670   23.2300 C   0  0  0  0  0  0  0  0  0  0  0  0
  -27.4270  -27.4650   19.9730 C   0  0  0  0  0  0  0  0  0  0  0  0
  -23.5310  -30.4160   21.5330 C   0  0  0  0  0  3  0  0  0  0  0  0
  -25.0040  -28.9560   20.0400 C   0  0  0  0  0  0  0  0  0  0  0  0
  -26.0510  -30.8170   21.3400 C   0  0  0  0  0  2  0  0  0  0  0  0
  -26.1560  -29.4710   20.6470 C   0  0  0  0  0  0  0  0  0  0  0  0
  -27.3640  -28.7330   20.6090 C   0  0  0  0  0  3  0  0  0  0  0  0
  -26.2550  -26.9740   19.3560 C   0  0  0  0  0  3  0  0  0  0  0  0
  -25.0520  -27.7090   19.3910 C   0  0  0  0  0  3  0  0  0  0  0  0
  -23.7480  -29.7940   20.1230 C   0  0  0  0  0  2  0  0  0  0  0  0
  -24.7860  -31.0150   22.0940 N   0  0  0  0  0  0  0  0  0  0  0  0
  -23.6370  -31.9960   23.7870 O   0  0  0  0  0  0  0  0  0  0  0  0
  -22.8980  -29.3470   22.4540 C   0  0  0  0  0  0  0  0  0  0  0  0
  -21.5810  -29.1290   22.3070 N   0  0  0  0  0  0  0  0  0  0  0  0
  -23.5910  -28.7160   23.2560 O   0  0  0  0  0  0  0  0  0  0  0  0
  -21.0780  -29.6960   21.6370 H   0  0  0  0  0  0  0  0  0  0  0  0
  -18.2430  -27.8100   22.7130 C   0  0  0  0  0  0  0  0  0  0  0  0
  -20.7860  -28.1430   23.0390 C   0  0  0  0  0  3  0  0  0  0  0  0
  -20.9450  -26.7310   22.4260 C   0  0  0  0  0  2  0  0  0  0  0  0
  -19.8740  -26.4040   21.3820 C   0  0  0  0  0  2  0  0  0  0  0  0
  -18.4760  -26.4870   22.0010 C   0  0  0  0  0  2  0  0  0  0  0  0
  -19.3290  -28.5950   23.1860 C   0  0  0  0  0  0  0  0  0  0  0  0
  -19.0590  -29.8340   23.8050 C   0  0  0  0  0  3  0  0  0  0  0  0
  -17.7370  -30.2880   23.9620 C   0  0  0  0  0  3  0  0  0  0  0  0
  -16.6640  -29.5000   23.5090 C   0  0  0  0  0  3  0  0  0  0  0  0
  -16.9190  -28.2630   22.8890 C   0  0  0  0  0  3  0  0  0  0  0  0
  -25.9970  -32.3930   23.8710 C   0  0  0  0  0  3  0  0  0  0  0  0
  -25.6840  -33.7910   24.2060 N   0  0  0  0  0  0  0  0  0  0  0  0
  -26.0270  -34.8480   23.4590 C   0  0  0  0  0  0  0  0  0  0  0  0
  -26.7100  -34.7510   22.4360 O   0  0  0  0  0  0  0  0  0  0  0  0
  -25.0870  -33.9420   25.0070 H   0  0  0  0  0  0  0  0  0  0  0  0
  -24.3120  -36.6460   23.0900 C   0  0  0  0  0  1  0  0  0  0  0  0
  -25.5350  -36.2340   23.9200 C   0  0  0  0  0  3  0  0  0  0  0  0
  -27.6510  -37.1120   24.8030 C   0  0  0  0  0  1  0  0  0  0  0  0
  -26.5720  -37.2850   23.8360 N   0  0  0  0  0  0  0  0  0  0  0  0
  -26.1650  -38.2050   23.9770 H   0  0  0  0  0  0  0  0  0  0  0  0
  -26.5010  -31.6150   25.1480 C   0  0  1  0  0  0  0  0  0  0  0  0
  -25.4010  -31.3700   26.2060 C   0  0  0  0  0  1  0  0  0  0  0  0
  -27.0890  -30.2410   24.7470 C   0  0  0  0  0  1  0  0  0  0  0  0
  -27.6430  -32.4050   25.8280 C   0  0  0  0  0  1  0  0  0  0  0  0
  2  1  1  0
  3  4  1  0
  3  5  1  0
  4  9  1  0
  6  8  1  0
  8 14  1  0
  8  7  1  0
  9 10  1  0
  9  2  1  0
 10  5  1  6
 10  6  1  0
 10 11  1  0
 11 13  1  0
 11  7  1  0
 12 11  1  0
 15 20  1  0
 16 17  1  0
 16 15  1  0
 18 17  1  0
 18 25  1  0
 18 19  1  0
 20 14  1  0
 20 19  1  0
 21 14  2  0
 22 23  2  0
 23 42  1  0
 24 23  1  0
 24 27  1  0
 25 26  1  0
 25 22  1  0
 26 24  2  0
 27 28  1  0
 28 29  2  0
 30 33  1  0
 30 29  1  0
 31 30  2  0
 32 31  1  0
 32 27  2  0
 33 34  1  0
 34 39  2  0
 34 35  1  0
 35 36  2  0
 36 37  1  0
 37 41  1  0
 38 37  2  0
 39 38  1  0
 40 39  1  0
 42 43  1  0
 43 46  1  0
 43 45  1  0
 44 42  2  0
 47 48  1  0
 47 22  1  0
 49 47  1  0
 50  2  1  0
 50 52  1  0
 51 50  1  0
 53 54  1  0
 53 50  1  0
 55 56  1  0
 55 54  1  0
 57 68  2  0
 58 56  1  0
 58 63  1  0
 59 67  1  0
 59 69  1  0
 60 66  1  0
 60 62  1  0
 61 67  1  0
 62 61  1  0
 63 62  2  0
 64 65  1  0
 64 58  2  0
 65 60  2  0
 66 59  1  0
 67 57  1  0
 69 71  2  0
 70 69  1  0
 72 70  1  0
 73 82  2  0
 73 78  1  0
 74 70  1  0
 74 78  1  0
 75 74  1  0
 76 77  1  0
 76 75  1  0
 77 73  1  0
 78 79  2  0
 79 80  1  0
 81 80  2  0
 82 81  1  0
 83 57  1  0
 83 84  1  0
 83 93  1  0
 84 87  1  0
 85 89  1  0
 85 84  1  0
 86 85  2  0
 89 88  1  0
 91 89  1  0
 91 92  1  0
 91 90  1  0
 93 96  1  1
 93 94  1  0
 95 93  1  0
M  ISO  4   8 100  14 100  55 101  56 101
M  END
>  <TORSDO>  (22) 
F 21

>  <SCORE>  (22) 
-12.118

>  <name>  (22) 
21

>  <ligand_id>  (22) 
21

>  <original_smiles>  (22) 
[H]c1c([H])c([H])c2c(c1[H])C([H])([H])C([H])([H])C([H])([H])C2([H])N([H])C(=O)C1([H])N(C(=O)C([H])(N([H])C(=O)C([H])(N([H])C([H])([H])[H])C([H])([H])[H])C(C([H])([H])[H])(C([H])([H])[H])C([H])([H])[H])C([H])([H])c2c([H])c(OC([H])([H])C([H])([H])C([H])([H])[N+]([H])([H])C([H])(C([H])([H])[H])C3([H])C([H])([H])C([H])([H])C([H])([H])C34C([H])([H])C([H])(C(=O)N3C([H])([H])C([H])([H])C([H])([H])C([H])(n5nc(-c6c([H])c([H])c(Oc7c([H])c([H])c(F)c([H])c7F)c([H])c6[H])c(C(=O)N([H])[H])c5N([H])[H])C3([H])[H])C([H])([H])[N+]4([H])[H])c([H])c([H])c2C1([H])[H]

>  <smiles>  (22) 
[H]c1c([H])c([H])c2c(c1[H])C([H])([H])C([H])([H])C([H])([H])C2([H])N([H])C(=O)C1([H])N(C(=O)C([H])(N([H])C(=O)C([H])(N([H])C([H])([H])[H])C([H])([H])[H])C(C([H])([H])[H])(C([H])([H])[H])C([H])([H])[H])C([H])([H])c2c([H])c(OC([H])([H])C([H])([H])C([H])([H])[N+]([H])([H])C([H])(C([H])([H])[H])C3([H])C([H])([H])C([H])([H])C([H])([H])C34C([H])([H])C([H])(C(=O)N3C([H])([H])C([H])([H])C([H])([H])C([H])(n5nc(-c6c([H])c([H])c(Oc7c([H])c([H])c(F)c([H])c7F)c([H])c6[H])c(C(=O)N([H])[H])c5N([H])[H])C3([H])[H])C([H])([H])[N+]4([H])[H])c([H])c([H])c2C1([H])[H]

$$$$
22:0:0
     RDKit          3D

 89 99  0  0  1  0  0  0  0  0999 V2000
  -29.2090  -21.3790   20.3800 N   0  0  0  0  0  4  0  0  0  0  0  0
  -30.1190  -21.4780   20.7990 H   0  0  0  0  0  0  0  0  0  0  0  0
  -28.5770  -21.2590   21.1570 H   0  0  0  0  0  0  0  0  0  0  0  0
  -29.2280  -19.9000   19.6440 C   0  0  0  0  0  2  0  0  0  0  0  0
  -31.7150  -17.5450   21.8290 C   0  0  0  0  0  2  0  0  0  0  0  0
  -29.8240  -18.0250   22.3730 C   0  0  0  0  0  2  0  0  0  0  0  0
  -30.0050  -16.7460   20.1510 C   0  0  0  0  0  3  0  0  0  0  0  0
  -30.3860  -16.7930   21.6390 C   0  0  2  0  0  0  0  0  0  0  0  0
  -30.7930  -18.6890   21.3850 C   0  0  1  0  0  0  0  0  0  0  0  0
  -30.2790  -18.5010   19.9630 C   0  0  0  0  0  3  0  0  0  0  0  0
  -30.7640  -15.2770   19.5890 C   0  0  0  0  0  0  0  0  0  0  0  0
  -30.5340  -12.9410   18.4830 C   0  0  0  0  0  2  0  0  0  0  0  0
  -29.4250  -12.9210   17.3970 C   0  0  0  0  0  2  0  0  0  0  0  0
  -28.0380  -12.6630   18.0180 C   0  0  0  0  0  2  0  0  0  0  0  0
  -27.8140  -13.5120   19.2910 C   0  0  0  0  0  3  0  0  0  0  0  0
  -29.0180  -13.4600   20.2460 C   0  0  0  0  0  2  0  0  0  0  0  0
  -30.1870  -13.9800   19.5150 N   0  0  0  0  0  0  0  0  0  0  0  0
  -31.9050  -15.3200   19.1030 O   0  0  0  0  0  0  0  0  0  0  0  0
  -25.6030  -14.0730   20.4410 C   0  0  0  0  0  0  0  0  0  0  0  0
  -24.5790  -13.2950   20.9060 C   0  0  0  0  0  0  0  0  0  0  0  0
  -24.9840  -11.9410   20.6960 C   0  0  0  0  0  0  0  0  0  0  0  0
  -26.5620  -13.1950   19.9670 N   0  0  0  0  0  0  0  0  0  0  0  0
  -26.2110  -11.9010   20.1870 N   0  0  0  0  0  0  0  0  0  0  0  0
  -24.2470  -10.6860   20.8940 C   0  0  0  0  0  0  0  0  0  0  0  0
  -24.7420   -9.6590   21.7260 C   0  0  0  0  0  3  0  0  0  0  0  0
  -24.0030   -8.4720   21.9160 C   0  0  0  0  0  3  0  0  0  0  0  0
  -22.7540   -8.3020   21.2720 C   0  0  0  0  0  0  0  0  0  0  0  0
  -22.2750   -9.3190   20.4280 C   0  0  0  0  0  3  0  0  0  0  0  0
  -23.0150  -10.4980   20.2360 C   0  0  0  0  0  3  0  0  0  0  0  0
  -21.9790   -7.1720   21.3770 O   0  0  0  0  0  0  0  0  0  0  0  0
  -21.9800   -6.4020   22.5130 C   0  0  0  0  0  0  0  0  0  0  0  0
  -21.6520   -6.9380   23.7770 C   0  0  0  0  0  3  0  0  0  0  0  0
  -21.5970   -6.0960   24.9050 C   0  0  0  0  0  3  0  0  0  0  0  0
  -21.8590   -4.7200   24.7710 C   0  0  0  0  0  0  0  0  0  0  0  0
  -22.1800   -4.1830   23.5120 C   0  0  0  0  0  3  0  0  0  0  0  0
  -22.2360   -5.0220   22.3850 C   0  0  0  0  0  0  0  0  0  0  0  0
  -22.5250   -4.4960   21.1710 F   0  0  0  0  0  0  0  0  0  0  0  0
  -21.7990   -3.9090   25.8530 F   0  0  0  0  0  0  0  0  0  0  0  0
  -23.2570  -13.7840   21.4210 C   0  0  0  0  0  0  0  0  0  0  0  0
  -22.6520  -13.0490   22.3470 N   0  0  0  0  0  0  0  0  0  0  0  0
  -22.7770  -14.8500   21.0390 O   0  0  0  0  0  0  0  0  0  0  0  0
  -23.0560  -12.1830   22.6740 H   0  0  0  0  0  0  0  0  0  0  0  0
  -21.7700  -13.3550   22.7350 H   0  0  0  0  0  0  0  0  0  0  0  0
  -25.7900  -15.4490   20.3540 N   0  0  0  0  0  0  0  0  0  0  0  0
  -25.0770  -16.1110   20.6410 H   0  0  0  0  0  0  0  0  0  0  0  0
  -26.5990  -15.8950   19.9390 H   0  0  0  0  0  0  0  0  0  0  0  0
  -28.8660  -22.8750   19.7620 C   0  0  0  0  0  2  0  0  0  0  0  0
  -28.2740  -24.3340   20.5850 C   0  0  0  0  0  2  0  0  0  0  0  0
  -28.3840  -25.9420   20.3310 O   0  0  0  0  0  0  0  0  0  0  0  0
  -24.4450  -31.7190   23.1250 C   0  0  0  0  0  0  0  0  0  0  0  0
  -27.2950  -26.9390   20.2940 C   0  0  0  0  0  0  0  0  0  0  0  0
  -23.3600  -30.2490   21.4750 C   0  0  0  0  0  3  0  0  0  0  0  0
  -24.9150  -28.6810   20.1370 C   0  0  0  0  0  0  0  0  0  0  0  0
  -25.9150  -30.5750   21.4010 C   0  0  0  0  0  2  0  0  0  0  0  0
  -26.0640  -29.1610   20.7800 C   0  0  0  0  0  0  0  0  0  0  0  0
  -27.2520  -28.3110   20.8280 C   0  0  0  0  0  3  0  0  0  0  0  0
  -26.1100  -26.5890   19.6110 C   0  0  0  0  0  3  0  0  0  0  0  0
  -24.9600  -27.4140   19.5330 C   0  0  0  0  0  3  0  0  0  0  0  0
  -23.6600  -29.5480   20.1210 C   0  0  0  0  0  2  0  0  0  0  0  0
  -24.5920  -30.8750   22.0540 N   0  0  0  0  0  0  0  0  0  0  0  0
  -23.3290  -31.9730   23.6060 O   0  0  0  0  0  0  0  0  0  0  0  0
  -22.6770  -29.2410   22.4350 C   0  0  0  0  0  0  0  0  0  0  0  0
  -21.3570  -29.0340   22.2810 N   0  0  0  0  0  0  0  0  0  0  0  0
  -23.3420  -28.6450   23.2860 O   0  0  0  0  0  0  0  0  0  0  0  0
  -20.8720  -29.5660   21.5720 H   0  0  0  0  0  0  0  0  0  0  0  0
  -17.9990  -27.7370   22.7280 C   0  0  0  0  0  0  0  0  0  0  0  0
  -20.5440  -28.0800   23.0440 C   0  0  0  0  0  3  0  0  0  0  0  0
  -20.6990  -26.6460   22.4870 C   0  0  0  0  0  2  0  0  0  0  0  0
  -19.6290  -26.2810   21.4530 C   0  0  0  0  0  2  0  0  0  0  0  0
  -18.2300  -26.3880   22.0650 C   0  0  0  0  0  2  0  0  0  0  0  0
  -19.0850  -28.5380   23.1730 C   0  0  0  0  0  0  0  0  0  0  0  0
  -18.8130  -29.7950   23.7540 C   0  0  0  0  0  3  0  0  0  0  0  0
  -17.4890  -30.2540   23.8930 C   0  0  0  0  0  3  0  0  0  0  0  0
  -16.4190  -29.4520   23.4620 C   0  0  0  0  0  3  0  0  0  0  0  0
  -16.6740  -28.1950   22.8860 C   0  0  0  0  0  3  0  0  0  0  0  0
  -25.6690  -32.4200   23.7870 C   0  0  0  0  0  3  0  0  0  0  0  0
  -26.1630  -31.6950   25.1000 C   0  0  1  0  0  0  0  0  0  0  0  0
  -25.0360  -31.4260   26.1250 C   0  0  0  0  0  1  0  0  0  0  0  0
  -26.8250  -30.3390   24.7660 C   0  0  0  0  0  1  0  0  0  0  0  0
  -27.2480  -32.5530   25.7940 C   0  0  0  0  0  1  0  0  0  0  0  0
  -25.2860  -33.8100   24.0880 N   0  0  0  0  0  0  0  0  0  0  0  0
  -25.5920  -34.8730   23.3310 C   0  0  0  0  0  0  0  0  0  0  0  0
  -26.2900  -34.7880   22.3170 O   0  0  0  0  0  0  0  0  0  0  0  0
  -24.6670  -33.9470   24.8750 H   0  0  0  0  0  0  0  0  0  0  0  0
  -23.8000  -36.5950   22.9260 C   0  0  0  0  0  1  0  0  0  0  0  0
  -25.0400  -36.2450   23.7660 C   0  0  0  0  0  3  0  0  0  0  0  0
  -27.1180  -37.2280   24.6310 C   0  0  0  0  0  1  0  0  0  0  0  0
  -26.0310  -37.3400   23.6620 N   0  0  0  0  0  0  0  0  0  0  0  0
  -25.5840  -38.2440   23.7900 H   0  0  0  0  0  0  0  0  0  0  0  0
  1  2  1  0
  1  3  1  0
  4  1  1  0
  7 11  1  0
  7  8  1  0
  8  5  1  6
  8  6  1  0
  9  8  1  0
  9  5  1  1
  9  6  1  0
 10  4  1  0
 10  7  1  0
 10  9  1  0
 12 17  1  0
 13 14  1  0
 13 12  1  0
 15 14  1  0
 15 22  1  0
 15 16  1  0
 17 11  1  0
 17 16  1  0
 18 11  2  0
 19 20  2  0
 20 39  1  0
 21 24  1  0
 21 20  1  0
 22 23  1  0
 22 19  1  0
 23 21  2  0
 24 25  1  0
 25 26  2  0
 27 30  1  0
 27 26  1  0
 28 27  2  0
 29 28  1  0
 29 24  2  0
 30 31  1  0
 31 32  1  0
 32 33  2  0
 34 33  1  0
 34 38  1  0
 35 34  2  0
 36 31  2  0
 36 35  1  0
 37 36  1  0
 39 40  1  0
 40 42  1  0
 40 43  1  0
 41 39  2  0
 44 19  1  0
 44 45  1  0
 46 44  1  0
 47  1  1  0
 47 48  1  0
 49 48  1  0
 50 61  2  0
 51 49  1  0
 51 56  1  0
 52 60  1  0
 52 62  1  0
 53 55  1  0
 54 60  1  0
 55 56  2  0
 55 54  1  0
 57 51  2  0
 58 57  1  0
 58 53  2  0
 59 53  1  0
 59 52  1  0
 60 50  1  0
 62 64  2  0
 63 62  1  0
 65 63  1  0
 66 75  2  0
 66 71  1  0
 67 63  1  0
 67 71  1  0
 68 67  1  0
 69 70  1  0
 69 68  1  0
 70 66  1  0
 71 72  2  0
 72 73  1  0
 74 73  2  0
 75 74  1  0
 76 50  1  0
 76 81  1  0
 76 77  1  0
 77 80  1  1
 77 78  1  0
 79 77  1  0
 81 84  1  0
 82 86  1  0
 82 81  1  0
 83 82  2  0
 86 85  1  0
 88 86  1  0
 88 89  1  0
 88 87  1  0
M  ISO  4   7 100  11 100  48 101  49 101
M  END
>  <TORSDO>  (23) 
F 20

>  <SCORE>  (23) 
-12.660

>  <name>  (23) 
22

>  <ligand_id>  (23) 
22

>  <original_smiles>  (23) 
[H]c1c([H])c([H])c2c(c1[H])C([H])([H])C([H])([H])C([H])([H])C2([H])N([H])C(=O)C1([H])N(C(=O)C([H])(N([H])C(=O)C([H])(N([H])C([H])([H])[H])C([H])([H])[H])C(C([H])([H])[H])(C([H])([H])[H])C([H])([H])[H])C([H])([H])c2c([H])c(OC([H])([H])C([H])([H])[N+]([H])([H])C([H])([H])C3([H])C([H])(C(=O)N4C([H])([H])C([H])([H])C([H])([H])C([H])(n5nc(-c6c([H])c([H])c(Oc7c([H])c([H])c(F)c([H])c7F)c([H])c6[H])c(C(=O)N([H])[H])c5N([H])[H])C4([H])[H])C4([H])C([H])([H])C3([H])C4([H])[H])c([H])c([H])c2C1([H])[H]

>  <smiles>  (23) 
[H]c1c([H])c([H])c2c(c1[H])C([H])([H])C([H])([H])C([H])([H])C2([H])N([H])C(=O)C1([H])N(C(=O)C([H])(N([H])C(=O)C([H])(N([H])C([H])([H])[H])C([H])([H])[H])C(C([H])([H])[H])(C([H])([H])[H])C([H])([H])[H])C([H])([H])c2c([H])c(OC([H])([H])C([H])([H])[N+]([H])([H])C([H])([H])C3([H])C([H])(C(=O)N4C([H])([H])C([H])([H])C([H])([H])C([H])(n5nc(-c6c([H])c([H])c(Oc7c([H])c([H])c(F)c([H])c7F)c([H])c6[H])c(C(=O)N([H])[H])c5N([H])[H])C4([H])[H])C4([H])C([H])([H])C3([H])C4([H])[H])c([H])c([H])c2C1([H])[H]

$$$$
23:0:0
     RDKit          3D

 96104  0  0  1  0  0  0  0  0999 V2000
  -31.9130  -19.8650   17.8940 C   0  0  0  0  0  2  0  0  0  0  0  0
  -32.4910  -19.3400   19.2140 C   0  0  0  0  0  2  0  0  0  0  0  0
  -30.3910  -19.9080   18.0760 C   0  0  0  0  0  2  0  0  0  0  0  0
  -31.3040  -18.7880   20.0150 C   0  0  0  0  0  3  0  0  0  0  0  0
  -30.1210  -19.7260   19.5820 C   0  0  0  0  0  3  0  0  0  0  0  0
  -30.1520  -21.0420   20.3160 N   0  0  0  0  0  4  0  0  0  0  0  0
  -31.0740  -21.4300   20.2120 H   0  0  0  0  0  0  0  0  0  0  0  0
  -30.0220  -20.8420   21.2940 H   0  0  0  0  0  0  0  0  0  0  0  0
  -29.1480  -22.0950   19.9380 C   0  0  0  0  0  2  0  0  0  0  0  0
  -29.4130  -23.5330   20.5240 C   0  0  0  0  0  2  0  0  0  0  0  0
  -28.3410  -24.5820   20.0840 C   0  0  0  0  0  2  0  0  0  0  0  0
  -28.5300  -25.9780   20.4640 O   0  0  0  0  0  0  0  0  0  0  0  0
  -24.8300  -31.4380   23.2940 C   0  0  0  0  0  0  0  0  0  0  0  0
  -27.4180  -26.8170   20.3660 C   0  0  0  0  0  0  0  0  0  0  0  0
  -23.6450  -30.0660   21.6180 C   0  0  0  0  0  3  0  0  0  0  0  0
  -25.0960  -28.4660   20.2650 C   0  0  0  0  0  0  0  0  0  0  0  0
  -26.1960  -30.3120   21.5320 C   0  0  0  0  0  2  0  0  0  0  0  0
  -26.2550  -28.9330   20.8980 C   0  0  0  0  0  0  0  0  0  0  0  0
  -27.4200  -28.1160   20.9440 C   0  0  0  0  0  3  0  0  0  0  0  0
  -26.2340  -26.3950   19.7110 C   0  0  0  0  0  3  0  0  0  0  0  0
  -25.0840  -27.1990   19.6670 C   0  0  0  0  0  3  0  0  0  0  0  0
  -23.8890  -29.3740   20.2530 C   0  0  0  0  0  2  0  0  0  0  0  0
  -24.9080  -30.6210   22.2070 N   0  0  0  0  0  0  0  0  0  0  0  0
  -23.7370  -31.7570   23.7810 O   0  0  0  0  0  0  0  0  0  0  0  0
  -22.9140  -29.0760   22.5560 C   0  0  0  0  0  0  0  0  0  0  0  0
  -21.5820  -28.9720   22.4010 N   0  0  0  0  0  0  0  0  0  0  0  0
  -23.5420  -28.4060   23.3810 O   0  0  0  0  0  0  0  0  0  0  0  0
  -21.1400  -29.5640   21.7120 H   0  0  0  0  0  0  0  0  0  0  0  0
  -18.1280  -28.0080   22.8650 C   0  0  0  0  0  0  0  0  0  0  0  0
  -20.6960  -28.0790   23.1480 C   0  0  0  0  0  3  0  0  0  0  0  0
  -20.6990  -26.6560   22.5410 C   0  0  0  0  0  2  0  0  0  0  0  0
  -19.5800  -26.4340   21.5180 C   0  0  0  0  0  2  0  0  0  0  0  0
  -18.2100  -26.6640   22.1610 C   0  0  0  0  0  2  0  0  0  0  0  0
  -19.2960  -28.6800   23.3140 C   0  0  0  0  0  0  0  0  0  0  0  0
  -19.1660  -29.9430   23.9300 C   0  0  0  0  0  3  0  0  0  0  0  0
  -17.8990  -30.5340   24.1000 C   0  0  0  0  0  3  0  0  0  0  0  0
  -16.7450  -29.8590   23.6680 C   0  0  0  0  0  3  0  0  0  0  0  0
  -16.8600  -28.5960   23.0580 C   0  0  0  0  0  3  0  0  0  0  0  0
  -26.1090  -32.0300   23.9640 C   0  0  0  0  0  3  0  0  0  0  0  0
  -26.5630  -31.2330   25.2480 C   0  0  1  0  0  0  0  0  0  0  0  0
  -25.4300  -31.0130   26.2780 C   0  0  0  0  0  1  0  0  0  0  0  0
  -27.1230  -29.8450   24.8610 C   0  0  0  0  0  1  0  0  0  0  0  0
  -27.7130  -31.9910   25.9530 C   0  0  0  0  0  1  0  0  0  0  0  0
  -25.8220  -33.4320   24.2970 N   0  0  0  0  0  0  0  0  0  0  0  0
  -26.2040  -34.4830   23.5590 C   0  0  0  0  0  0  0  0  0  0  0  0
  -26.9050  -34.3720   22.5490 O   0  0  0  0  0  0  0  0  0  0  0  0
  -25.1990  -33.5930   25.0760 H   0  0  0  0  0  0  0  0  0  0  0  0
  -24.5270  -36.3180   23.1750 C   0  0  0  0  0  1  0  0  0  0  0  0
  -25.7380  -35.8780   24.0140 C   0  0  0  0  0  3  0  0  0  0  0  0
  -27.8700  -36.7060   24.9070 C   0  0  0  0  0  1  0  0  0  0  0  0
  -26.7960  -36.9080   23.9370 N   0  0  0  0  0  0  0  0  0  0  0  0
  -26.4080  -37.8350   24.0820 H   0  0  0  0  0  0  0  0  0  0  0  0
  -31.2280  -17.3490   19.6400 N   0  0  0  0  0  0  0  0  0  0  0  0
  -32.1710  -16.9750   19.5990 H   0  0  0  0  0  0  0  0  0  0  0  0
  -30.3590  -16.3420   20.2970 C   0  0  0  0  0  3  0  0  0  0  0  0
  -30.4530  -16.8890   22.8290 C   0  0  0  0  0  1  0  0  0  0  0  0
  -29.6000  -16.9140   21.5430 C   0  0  0  0  0  3  0  0  0  0  0  0
  -27.3130  -16.0910   20.6500 C   0  0  0  0  0  1  0  0  0  0  0  0
  -28.2520  -16.2240   21.8510 C   0  0  0  0  0  2  0  0  0  0  0  0
  -31.0980  -14.9780   20.6490 C   0  0  0  0  0  2  0  0  0  0  0  0
  -31.3190  -13.8520   19.5890 C   0  0  0  0  0  0  0  0  0  0  0  0
  -30.7950  -11.6610   18.5330 C   0  0  0  0  0  2  0  0  0  0  0  0
  -29.8000  -11.8160   17.3670 C   0  0  0  0  0  2  0  0  0  0  0  0
  -28.3490  -11.7820   17.8830 C   0  0  0  0  0  2  0  0  0  0  0  0
  -28.1300  -12.7310   19.0910 C   0  0  0  0  0  3  0  0  0  0  0  0
  -29.2270  -12.5380   20.1610 C   0  0  0  0  0  2  0  0  0  0  0  0
  -30.5360  -12.7320   19.5170 N   0  0  0  0  0  0  0  0  0  0  0  0
  -32.3160  -13.9690   18.8670 O   0  0  0  0  0  0  0  0  0  0  0  0
  -25.8040  -13.5350   19.8430 C   0  0  0  0  0  0  0  0  0  0  0  0
  -24.7210  -12.8670   20.3410 C   0  0  0  0  0  0  0  0  0  0  0  0
  -25.1010  -11.4920   20.4070 C   0  0  0  0  0  0  0  0  0  0  0  0
  -26.7890  -12.5780   19.6520 N   0  0  0  0  0  0  0  0  0  0  0  0
  -26.3690  -11.3470   20.0430 N   0  0  0  0  0  0  0  0  0  0  0  0
  -24.3100  -10.2990   20.7370 C   0  0  0  0  0  0  0  0  0  0  0  0
  -24.7090   -9.4090   21.7570 C   0  0  0  0  0  3  0  0  0  0  0  0
  -23.9240   -8.2780   22.0670 C   0  0  0  0  0  3  0  0  0  0  0  0
  -22.7230   -8.0310   21.3580 C   0  0  0  0  0  0  0  0  0  0  0  0
  -22.3440   -8.9080   20.3270 C   0  0  0  0  0  3  0  0  0  0  0  0
  -23.1300  -10.0300   20.0160 C   0  0  0  0  0  3  0  0  0  0  0  0
  -21.9100   -6.9450   21.5740 O   0  0  0  0  0  0  0  0  0  0  0  0
  -21.8100   -6.3560   22.8090 C   0  0  0  0  0  0  0  0  0  0  0  0
  -21.4020   -7.0810   23.9500 C   0  0  0  0  0  3  0  0  0  0  0  0
  -21.2450   -6.4200   25.1860 C   0  0  0  0  0  3  0  0  0  0  0  0
  -21.4870   -5.0370   25.2800 C   0  0  0  0  0  0  0  0  0  0  0  0
  -21.8880   -4.3120   24.1440 C   0  0  0  0  0  3  0  0  0  0  0  0
  -22.0460   -4.9700   22.9110 C   0  0  0  0  0  0  0  0  0  0  0  0
  -22.4130   -4.2630   21.8150 F   0  0  0  0  0  0  0  0  0  0  0  0
  -21.3290   -4.4000   26.4640 F   0  0  0  0  0  0  0  0  0  0  0  0
  -23.3710  -13.4550   20.6400 C   0  0  0  0  0  0  0  0  0  0  0  0
  -22.6600  -12.8940   21.6130 N   0  0  0  0  0  0  0  0  0  0  0  0
  -22.9590  -14.4500   20.0450 O   0  0  0  0  0  0  0  0  0  0  0  0
  -23.0050  -12.0900   22.1160 H   0  0  0  0  0  0  0  0  0  0  0  0
  -21.7570  -13.2750   21.8560 H   0  0  0  0  0  0  0  0  0  0  0  0
  -26.0240  -14.8660   19.5080 N   0  0  0  0  0  0  0  0  0  0  0  0
  -25.2980  -15.5680   19.5860 H   0  0  0  0  0  0  0  0  0  0  0  0
  -26.8710  -15.2150   19.0820 H   0  0  0  0  0  0  0  0  0  0  0  0
  1  3  1  0
  1  2  1  0
  2  4  1  0
  3  5  1  0
  4 53  1  0
  5  4  1  0
  5  6  1  0
  6  8  1  0
  7  6  1  0
  9  6  1  0
  9 10  1  0
 11 12  1  0
 11 10  1  0
 13 24  2  0
 14 12  1  0
 14 19  1  0
 15 23  1  0
 15 25  1  0
 16 18  1  0
 17 23  1  0
 18 19  2  0
 18 17  1  0
 20 14  2  0
 21 20  1  0
 21 16  2  0
 22 16  1  0
 22 15  1  0
 23 13  1  0
 25 27  2  0
 26 25  1  0
 28 26  1  0
 29 38  2  0
 29 34  1  0
 30 26  1  0
 30 34  1  0
 31 30  1  0
 32 33  1  0
 32 31  1  0
 33 29  1  0
 34 35  2  0
 35 36  1  0
 37 36  2  0
 38 37  1  0
 39 13  1  0
 39 44  1  0
 39 40  1  0
 40 43  1  1
 40 41  1  0
 42 40  1  0
 44 47  1  0
 45 49  1  0
 45 44  1  0
 46 45  2  0
 49 48  1  0
 51 49  1  0
 51 52  1  0
 51 50  1  0
 53 55  1  0
 54 53  1  0
 55 60  1  0
 55 57  1  0
 57 59  1  0
 57 56  1  0
 58 59  1  0
 61 60  1  0
 62 67  1  0
 63 64  1  0
 63 62  1  0
 65 64  1  0
 65 72  1  0
 65 66  1  0
 67 61  1  0
 67 66  1  0
 68 61  2  0
 69 70  2  0
 70 71  1  0
 70 89  1  0
 71 74  1  0
 72 69  1  0
 72 73  1  0
 73 71  2  0
 74 75  1  0
 75 76  2  0
 77 80  1  0
 77 76  1  0
 78 77  2  0
 79 78  1  0
 79 74  2  0
 80 81  1  0
 81 86  2  0
 81 82  1  0
 82 83  2  0
 83 84  1  0
 84 88  1  0
 85 84  2  0
 86 85  1  0
 87 86  1  0
 89 90  1  0
 90 93  1  0
 90 92  1  0
 91 89  2  0
 94 95  1  0
 94 69  1  0
 96 94  1  0
M  ISO  4  11 101  12 101  60 100  61 100
M  END
>  <TORSDO>  (24) 
F 25

>  <SCORE>  (24) 
-7.803

>  <name>  (24) 
23

>  <ligand_id>  (24) 
23

>  <original_smiles>  (24) 
[H]c1c([H])c([H])c2c(c1[H])C([H])([H])C([H])([H])C([H])([H])C2([H])N([H])C(=O)C1([H])N(C(=O)C([H])(N([H])C(=O)C([H])(N([H])C([H])([H])[H])C([H])([H])[H])C(C([H])([H])[H])(C([H])([H])[H])C([H])([H])[H])C([H])([H])c2c([H])c(OC([H])([H])C([H])([H])C([H])([H])[N+]([H])([H])C3([H])C([H])([H])C([H])([H])C([H])([H])C3([H])N([H])C([H])(C([H])([H])C(=O)N3C([H])([H])C([H])([H])C([H])([H])C([H])(n4nc(-c5c([H])c([H])c(Oc6c([H])c([H])c(F)c([H])c6F)c([H])c5[H])c(C(=O)N([H])[H])c4N([H])[H])C3([H])[H])C([H])(C([H])([H])[H])C([H])([H])C([H])([H])[H])c([H])c([H])c2C1([H])[H]

>  <smiles>  (24) 
[H]c1c([H])c([H])c2c(c1[H])C([H])([H])C([H])([H])C([H])([H])C2([H])N([H])C(=O)C1([H])N(C(=O)C([H])(N([H])C(=O)C([H])(N([H])C([H])([H])[H])C([H])([H])[H])C(C([H])([H])[H])(C([H])([H])[H])C([H])([H])[H])C([H])([H])c2c([H])c(OC([H])([H])C([H])([H])C([H])([H])[N+]([H])([H])C3([H])C([H])([H])C([H])([H])C([H])([H])C3([H])N([H])C([H])(C([H])([H])C(=O)N3C([H])([H])C([H])([H])C([H])([H])C([H])(n4nc(-c5c([H])c([H])c(Oc6c([H])c([H])c(F)c([H])c6F)c([H])c5[H])c(C(=O)N([H])[H])c4N([H])[H])C3([H])[H])C([H])(C([H])([H])[H])C([H])([H])C([H])([H])[H])c([H])c([H])c2C1([H])[H]

$$$$
24:0:0
     RDKit          3D

 87 95  0  0  1  0  0  0  0  0999 V2000
  -28.8920  -20.7400   20.6200 C   0  0  0  0  0  0  0  0  0  0  0  0
  -29.0820  -22.1410   20.4280 N   0  0  0  0  0  0  0  0  0  0  0  0
  -27.8620  -20.3630   21.1730 O   0  0  0  0  0  0  0  0  0  0  0  0
  -29.9900  -22.3690   20.0390 H   0  0  0  0  0  0  0  0  0  0  0  0
  -29.7330  -18.7000   19.0200 C   0  0  0  0  0  2  0  0  0  0  0  0
  -29.9940  -19.6300   20.1680 C   0  0  0  0  0  3  0  0  0  0  0  0
  -30.2410  -17.9440   20.2600 C   0  0  0  0  0  3  0  0  0  0  0  0
  -29.6400  -16.3900   20.3490 C   0  0  0  0  0  2  0  0  0  0  0  0
  -30.5470  -15.0010   20.2090 C   0  0  0  0  0  0  0  0  0  0  0  0
  -30.4540  -12.6620   19.2130 C   0  0  0  0  0  2  0  0  0  0  0  0
  -29.5000  -12.6940   17.9940 C   0  0  0  0  0  2  0  0  0  0  0  0
  -28.0280  -12.5150   18.4250 C   0  0  0  0  0  2  0  0  0  0  0  0
  -27.6680  -13.3750   19.6600 C   0  0  0  0  0  3  0  0  0  0  0  0
  -28.7410  -13.3130   20.7650 C   0  0  0  0  0  2  0  0  0  0  0  0
  -30.0100  -13.7220   20.1630 N   0  0  0  0  0  0  0  0  0  0  0  0
  -31.7510  -15.1040   19.9320 O   0  0  0  0  0  0  0  0  0  0  0  0
  -25.2930  -13.9410   20.4160 C   0  0  0  0  0  0  0  0  0  0  0  0
  -24.2350  -13.1520   20.8040 C   0  0  0  0  0  0  0  0  0  0  0  0
  -24.7150  -11.8100   20.7780 C   0  0  0  0  0  0  0  0  0  0  0  0
  -26.3370  -13.0670   20.1740 N   0  0  0  0  0  0  0  0  0  0  0  0
  -26.0040  -11.7830   20.4580 N   0  0  0  0  0  0  0  0  0  0  0  0
  -24.0040  -10.5360   20.9760 C   0  0  0  0  0  0  0  0  0  0  0  0
  -24.4410   -9.5790   21.9170 C   0  0  0  0  0  3  0  0  0  0  0  0
  -23.7250   -8.3790   22.0980 C   0  0  0  0  0  3  0  0  0  0  0  0
  -22.5590   -8.1220   21.3370 C   0  0  0  0  0  0  0  0  0  0  0  0
  -22.1440   -9.0690   20.3840 C   0  0  0  0  0  3  0  0  0  0  0  0
  -22.8630  -10.2640   20.2010 C   0  0  0  0  0  3  0  0  0  0  0  0
  -21.8140   -6.9700   21.4350 O   0  0  0  0  0  0  0  0  0  0  0  0
  -21.7530   -6.2430   22.5950 C   0  0  0  0  0  0  0  0  0  0  0  0
  -21.2710   -6.8010   23.8000 C   0  0  0  0  0  3  0  0  0  0  0  0
  -21.1540   -5.9970   24.9540 C   0  0  0  0  0  3  0  0  0  0  0  0
  -21.5110   -4.6380   24.9050 C   0  0  0  0  0  0  0  0  0  0  0  0
  -21.9840   -4.0780   23.7070 C   0  0  0  0  0  3  0  0  0  0  0  0
  -22.1010   -4.8770   22.5540 C   0  0  0  0  0  0  0  0  0  0  0  0
  -22.5370   -4.3240   21.3980 F   0  0  0  0  0  0  0  0  0  0  0  0
  -21.3910   -3.8660   26.0110 F   0  0  0  0  0  0  0  0  0  0  0  0
  -22.8340  -13.6260   21.0610 C   0  0  0  0  0  0  0  0  0  0  0  0
  -22.0890  -12.9420   21.9280 N   0  0  0  0  0  0  0  0  0  0  0  0
  -22.3980  -14.6420   20.5290 O   0  0  0  0  0  0  0  0  0  0  0  0
  -22.4290  -12.1280   22.4100 H   0  0  0  0  0  0  0  0  0  0  0  0
  -21.1540  -13.2740   22.1160 H   0  0  0  0  0  0  0  0  0  0  0  0
  -25.4400  -15.3080   20.2190 N   0  0  0  0  0  0  0  0  0  0  0  0
  -24.6640  -15.9610   20.3010 H   0  0  0  0  0  0  0  0  0  0  0  0
  -26.2610  -15.7380   19.8080 H   0  0  0  0  0  0  0  0  0  0  0  0
  -28.1110  -23.4020   20.3970 C   0  0  0  0  0  2  0  0  0  0  0  0
  -28.4430  -24.9590   20.9490 C   0  0  0  0  0  2  0  0  0  0  0  0
  -28.3710  -26.3380   20.2520 O   0  0  0  0  0  0  0  0  0  0  0  0
  -24.6000  -31.9030   23.2410 C   0  0  0  0  0  0  0  0  0  0  0  0
  -27.2690  -27.2500   20.2690 C   0  0  0  0  0  0  0  0  0  0  0  0
  -23.4380  -30.5010   21.5840 C   0  0  0  0  0  3  0  0  0  0  0  0
  -24.9250  -28.9570   20.1720 C   0  0  0  0  0  0  0  0  0  0  0  0
  -25.9930  -30.7990   21.4600 C   0  0  0  0  0  2  0  0  0  0  0  0
  -26.0820  -29.4150   20.8020 C   0  0  0  0  0  0  0  0  0  0  0  0
  -27.2650  -28.5850   20.8250 C   0  0  0  0  0  3  0  0  0  0  0  0
  -26.0900  -26.8770   19.5910 C   0  0  0  0  0  3  0  0  0  0  0  0
  -24.9430  -27.6980   19.5380 C   0  0  0  0  0  3  0  0  0  0  0  0
  -23.6900  -29.8520   20.2000 C   0  0  0  0  0  2  0  0  0  0  0  0
  -24.6920  -31.0890   22.1520 N   0  0  0  0  0  0  0  0  0  0  0  0
  -23.4990  -32.1700   23.7630 O   0  0  0  0  0  0  0  0  0  0  0  0
  -22.7590  -29.4690   22.5240 C   0  0  0  0  0  0  0  0  0  0  0  0
  -21.4310  -29.3060   22.4010 N   0  0  0  0  0  0  0  0  0  0  0  0
  -23.4320  -28.8280   23.3340 O   0  0  0  0  0  0  0  0  0  0  0  0
  -20.9380  -29.8860   21.7390 H   0  0  0  0  0  0  0  0  0  0  0  0
  -18.0420  -28.1410   22.8970 C   0  0  0  0  0  0  0  0  0  0  0  0
  -20.6060  -28.3580   23.1540 C   0  0  0  0  0  3  0  0  0  0  0  0
  -20.6840  -26.9380   22.5410 C   0  0  0  0  0  2  0  0  0  0  0  0
  -19.5640  -26.6470   21.5360 C   0  0  0  0  0  2  0  0  0  0  0  0
  -18.1900  -26.8050   22.1930 C   0  0  0  0  0  2  0  0  0  0  0  0
  -19.1730  -28.8760   23.3330 C   0  0  0  0  0  0  0  0  0  0  0  0
  -18.9740  -30.1350   23.9460 C   0  0  0  0  0  3  0  0  0  0  0  0
  -17.6740  -30.6450   24.1330 C   0  0  0  0  0  3  0  0  0  0  0  0
  -16.5580  -29.9000   23.7230 C   0  0  0  0  0  3  0  0  0  0  0  0
  -16.7420  -28.6500   23.1040 C   0  0  0  0  0  3  0  0  0  0  0  0
  -25.8620  -32.5410   23.8830 C   0  0  0  0  0  3  0  0  0  0  0  0
  -26.3420  -31.7910   25.1830 C   0  0  1  0  0  0  0  0  0  0  0  0
  -25.2220  -31.5690   26.2260 C   0  0  0  0  0  1  0  0  0  0  0  0
  -26.9260  -30.4030   24.8340 C   0  0  0  0  0  1  0  0  0  0  0  0
  -27.4710  -32.6030   25.8580 C   0  0  0  0  0  1  0  0  0  0  0  0
  -25.5410  -33.9430   24.1880 N   0  0  0  0  0  0  0  0  0  0  0  0
  -25.8920  -34.9950   23.4270 C   0  0  0  0  0  0  0  0  0  0  0  0
  -26.5840  -34.8820   22.4170 O   0  0  0  0  0  0  0  0  0  0  0  0
  -24.9200  -34.1030   24.9690 H   0  0  0  0  0  0  0  0  0  0  0  0
  -24.1690  -36.7880   23.0310 C   0  0  0  0  0  1  0  0  0  0  0  0
  -25.3940  -36.3870   23.8680 C   0  0  0  0  0  3  0  0  0  0  0  0
  -27.5070  -37.2870   24.7370 C   0  0  0  0  0  1  0  0  0  0  0  0
  -26.4250  -37.4410   23.7670 N   0  0  0  0  0  0  0  0  0  0  0  0
  -26.0110  -38.3570   23.9020 H   0  0  0  0  0  0  0  0  0  0  0  0
  1  3  2  0
  2  1  1  0
  4  2  1  0
  5  6  1  0
  5  7  1  0
  6  7  1  0
  6  1  1  0
  7  8  1  0
  9  8  1  0
 10 15  1  0
 11 12  1  0
 11 10  1  0
 13 12  1  0
 13 20  1  0
 13 14  1  0
 15  9  1  0
 15 14  1  0
 16  9  2  0
 17 18  2  0
 18 37  1  0
 19 18  1  0
 19 22  1  0
 20 17  1  0
 20 21  1  0
 21 19  2  0
 22 23  1  0
 23 24  2  0
 25 28  1  0
 25 24  1  0
 26 25  2  0
 27 26  1  0
 27 22  2  0
 28 29  1  0
 29 30  1  0
 30 31  2  0
 32 31  1  0
 32 36  1  0
 33 32  2  0
 34 29  2  0
 34 33  1  0
 35 34  1  0
 37 38  1  0
 38 41  1  0
 38 40  1  0
 39 37  2  0
 42 43  1  0
 42 17  1  0
 44 42  1  0
 45  2  1  0
 45 46  1  0
 47 49  1  0
 47 46  1  0
 48 59  2  0
 49 54  1  0
 50 58  1  0
 50 60  1  0
 51 57  1  0
 51 53  1  0
 52 58  1  0
 53 54  2  0
 53 52  1  0
 55 49  2  0
 56 55  1  0
 56 51  2  0
 57 50  1  0
 58 48  1  0
 60 62  2  0
 61 60  1  0
 63 61  1  0
 64 73  2  0
 64 69  1  0
 65 61  1  0
 65 69  1  0
 66 65  1  0
 67 68  1  0
 67 66  1  0
 68 64  1  0
 69 70  2  0
 70 71  1  0
 72 71  2  0
 73 72  1  0
 74 48  1  0
 74 79  1  0
 74 75  1  0
 75 78  1  1
 75 76  1  0
 77 75  1  0
 79 82  1  0
 80 84  1  0
 80 79  1  0
 81 80  2  0
 84 83  1  0
 86 84  1  0
 86 87  1  0
 86 85  1  0
M  ISO  4   8 100   9 100  46 101  47 101
M  END
>  <TORSDO>  (25) 
F 20

>  <SCORE>  (25) 
-13.396

>  <name>  (25) 
24

>  <ligand_id>  (25) 
24

>  <original_smiles>  (25) 
[H]c1c([H])c([H])c2c(c1[H])C([H])([H])C([H])([H])C([H])([H])C2([H])N([H])C(=O)C1([H])N(C(=O)C([H])(N([H])C(=O)C([H])(N([H])C([H])([H])[H])C([H])([H])[H])C(C([H])([H])[H])(C([H])([H])[H])C([H])([H])[H])C([H])([H])c2c([H])c(OC([H])([H])C([H])([H])N([H])C(=O)C3([H])C([H])([H])C3([H])C([H])([H])C(=O)N3C([H])([H])C([H])([H])C([H])([H])C([H])(n4nc(-c5c([H])c([H])c(Oc6c([H])c([H])c(F)c([H])c6F)c([H])c5[H])c(C(=O)N([H])[H])c4N([H])[H])C3([H])[H])c([H])c([H])c2C1([H])[H]

>  <smiles>  (25) 
[H]c1c([H])c([H])c2c(c1[H])C([H])([H])C([H])([H])C([H])([H])C2([H])N([H])C(=O)C1([H])N(C(=O)C([H])(N([H])C(=O)C([H])(N([H])C([H])([H])[H])C([H])([H])[H])C(C([H])([H])[H])(C([H])([H])[H])C([H])([H])[H])C([H])([H])c2c([H])c(OC([H])([H])C([H])([H])N([H])C(=O)C3([H])C([H])([H])C3([H])C([H])([H])C(=O)N3C([H])([H])C([H])([H])C([H])([H])C([H])(n4nc(-c5c([H])c([H])c(Oc6c([H])c([H])c(F)c([H])c6F)c([H])c5[H])c(C(=O)N([H])[H])c4N([H])[H])C3([H])[H])c([H])c([H])c2C1([H])[H]

$$$$
25:0:0
     RDKit          3D

 89 97  0  0  1  0  0  0  0  0999 V2000
  -29.7980  -20.7650   20.3110 C   0  0  0  0  0  0  0  0  0  0  0  0
  -28.9590  -21.8770   20.5410 N   0  0  0  0  0  0  0  0  0  0  0  0
  -30.8860  -20.9740   19.7730 O   0  0  0  0  0  0  0  0  0  0  0  0
  -28.0610  -21.6460   20.9430 H   0  0  0  0  0  0  0  0  0  0  0  0
  -31.1020  -18.3300   22.4030 C   0  0  0  0  0  2  0  0  0  0  0  0
  -29.7390  -19.0330   22.2330 C   0  0  0  0  0  2  0  0  0  0  0  0
  -31.5870  -17.9570   21.0000 C   0  0  0  0  0  2  0  0  0  0  0  0
  -29.4730  -19.1920   20.7220 C   0  0  0  0  0  3  0  0  0  0  0  0
  -30.3150  -17.8600   20.1520 C   0  0  0  0  0  3  0  0  0  0  0  0
  -29.7750  -16.2810   20.2710 C   0  0  0  0  0  2  0  0  0  0  0  0
  -30.6450  -14.9050   19.9930 C   0  0  0  0  0  0  0  0  0  0  0  0
  -30.5010  -12.5710   19.0190 C   0  0  0  0  0  2  0  0  0  0  0  0
  -29.5410  -12.6030   17.8030 C   0  0  0  0  0  2  0  0  0  0  0  0
  -28.0800  -12.4170   18.2570 C   0  0  0  0  0  2  0  0  0  0  0  0
  -27.7180  -13.3250   19.4600 C   0  0  0  0  0  3  0  0  0  0  0  0
  -28.7930  -13.2610   20.5660 C   0  0  0  0  0  2  0  0  0  0  0  0
  -30.0750  -13.6400   19.9640 N   0  0  0  0  0  0  0  0  0  0  0  0
  -31.8250  -14.9950   19.6400 O   0  0  0  0  0  0  0  0  0  0  0  0
  -25.3560  -13.9450   20.2330 C   0  0  0  0  0  0  0  0  0  0  0  0
  -24.2870  -13.1860   20.6290 C   0  0  0  0  0  0  0  0  0  0  0  0
  -24.7370  -11.8290   20.5990 C   0  0  0  0  0  0  0  0  0  0  0  0
  -26.3840  -13.0510   19.9850 N   0  0  0  0  0  0  0  0  0  0  0  0
  -26.0210  -11.7730   20.2650 N   0  0  0  0  0  0  0  0  0  0  0  0
  -23.9980  -10.5770   20.8090 C   0  0  0  0  0  0  0  0  0  0  0  0
  -24.3830   -9.6530   21.8060 C   0  0  0  0  0  3  0  0  0  0  0  0
  -23.6450   -8.4650   22.0000 C   0  0  0  0  0  3  0  0  0  0  0  0
  -22.5120   -8.1920   21.2000 C   0  0  0  0  0  0  0  0  0  0  0  0
  -22.1490   -9.1060   20.1940 C   0  0  0  0  0  3  0  0  0  0  0  0
  -22.8850  -10.2850   19.9970 C   0  0  0  0  0  3  0  0  0  0  0  0
  -21.7510   -7.0540   21.3000 O   0  0  0  0  0  0  0  0  0  0  0  0
  -21.5830   -6.4040   22.4970 C   0  0  0  0  0  0  0  0  0  0  0  0
  -21.0220   -7.0470   23.6220 C   0  0  0  0  0  3  0  0  0  0  0  0
  -20.8010   -6.3230   24.8110 C   0  0  0  0  0  3  0  0  0  0  0  0
  -21.1350   -4.9570   24.8750 C   0  0  0  0  0  0  0  0  0  0  0  0
  -21.6900   -4.3130   23.7550 C   0  0  0  0  0  3  0  0  0  0  0  0
  -21.9100   -5.0360   22.5670 C   0  0  0  0  0  0  0  0  0  0  0  0
  -22.4250   -4.4030   21.4860 F   0  0  0  0  0  0  0  0  0  0  0  0
  -20.9180   -4.2580   26.0150 F   0  0  0  0  0  0  0  0  0  0  0  0
  -22.9030  -13.6810   20.9190 C   0  0  0  0  0  0  0  0  0  0  0  0
  -22.1850  -13.0030   21.8080 N   0  0  0  0  0  0  0  0  0  0  0  0
  -22.4630  -14.7030   20.3930 O   0  0  0  0  0  0  0  0  0  0  0  0
  -22.5520  -12.1770   22.2560 H   0  0  0  0  0  0  0  0  0  0  0  0
  -21.2550  -13.3170   22.0490 H   0  0  0  0  0  0  0  0  0  0  0  0
  -25.5350  -15.3130   20.0500 N   0  0  0  0  0  0  0  0  0  0  0  0
  -24.7820  -15.9790   20.1830 H   0  0  0  0  0  0  0  0  0  0  0  0
  -26.3890  -15.7460   19.7240 H   0  0  0  0  0  0  0  0  0  0  0  0
  -29.2270  -23.4220   20.3830 C   0  0  0  0  0  3  0  0  0  0  0  0
  -28.0660  -24.6300   20.3330 C   0  0  0  0  0  3  0  0  0  0  0  0
  -28.3200  -26.1630   20.2300 O   0  0  0  0  0  0  0  0  0  0  0  0
  -24.5050  -31.7350   23.1150 C   0  0  0  0  0  0  0  0  0  0  0  0
  -27.2340  -27.1050   20.1360 C   0  0  0  0  0  0  0  0  0  0  0  0
  -23.3590  -30.3030   21.4690 C   0  0  0  0  0  3  0  0  0  0  0  0
  -24.8620  -28.7760   20.0580 C   0  0  0  0  0  0  0  0  0  0  0  0
  -25.9030  -30.6510   21.3170 C   0  0  0  0  0  2  0  0  0  0  0  0
  -26.0240  -29.2610   20.6740 C   0  0  0  0  0  0  0  0  0  0  0  0
  -27.2090  -28.4400   20.6990 C   0  0  0  0  0  3  0  0  0  0  0  0
  -26.0510  -26.7230   19.4600 C   0  0  0  0  0  3  0  0  0  0  0  0
  -24.8910  -27.5250   19.4290 C   0  0  0  0  0  3  0  0  0  0  0  0
  -23.6090  -29.6380   20.0910 C   0  0  0  0  0  2  0  0  0  0  0  0
  -24.6080  -30.9200   22.0220 N   0  0  0  0  0  0  0  0  0  0  0  0
  -23.4080  -31.9860   23.6360 O   0  0  0  0  0  0  0  0  0  0  0  0
  -22.7070  -29.2740   22.4270 C   0  0  0  0  0  0  0  0  0  0  0  0
  -21.3850  -29.0650   22.2950 N   0  0  0  0  0  0  0  0  0  0  0  0
  -23.3950  -28.6670   23.2510 O   0  0  0  0  0  0  0  0  0  0  0  0
  -20.8840  -29.6140   21.6100 H   0  0  0  0  0  0  0  0  0  0  0  0
  -18.0400  -27.7660   22.7820 C   0  0  0  0  0  0  0  0  0  0  0  0
  -20.5880  -28.1040   23.0640 C   0  0  0  0  0  3  0  0  0  0  0  0
  -20.7350  -26.6750   22.4950 C   0  0  0  0  0  2  0  0  0  0  0  0
  -19.6500  -26.3160   21.4740 C   0  0  0  0  0  2  0  0  0  0  0  0
  -18.2610  -26.4200   22.1080 C   0  0  0  0  0  2  0  0  0  0  0  0
  -19.1310  -28.5630   23.2170 C   0  0  0  0  0  0  0  0  0  0  0  0
  -18.8710  -29.8190   23.8080 C   0  0  0  0  0  3  0  0  0  0  0  0
  -17.5500  -30.2790   23.9670 C   0  0  0  0  0  3  0  0  0  0  0  0
  -16.4730  -29.4800   23.5450 C   0  0  0  0  0  3  0  0  0  0  0  0
  -16.7180  -28.2260   22.9600 C   0  0  0  0  0  3  0  0  0  0  0  0
  -25.7610  -32.4080   23.7490 C   0  0  0  0  0  3  0  0  0  0  0  0
  -26.2970  -31.6460   25.0230 C   0  0  1  0  0  0  0  0  0  0  0  0
  -25.2080  -31.3660   26.0850 C   0  0  0  0  0  1  0  0  0  0  0  0
  -26.9290  -30.2920   24.6290 C   0  0  0  0  0  1  0  0  0  0  0  0
  -27.4140  -32.4770   25.6980 C   0  0  0  0  0  1  0  0  0  0  0  0
  -25.4000  -33.7920   24.0930 N   0  0  0  0  0  0  0  0  0  0  0  0
  -25.7010  -34.8680   23.3510 C   0  0  0  0  0  0  0  0  0  0  0  0
  -26.3830  -34.8020   22.3250 O   0  0  0  0  0  0  0  0  0  0  0  0
  -24.7970  -33.9170   24.8930 H   0  0  0  0  0  0  0  0  0  0  0  0
  -23.9220  -36.6170   23.0080 C   0  0  0  0  0  1  0  0  0  0  0  0
  -25.1670  -36.2360   23.8270 C   0  0  0  0  0  3  0  0  0  0  0  0
  -27.2610  -37.1780   24.6960 C   0  0  0  0  0  1  0  0  0  0  0  0
  -26.1660  -37.3220   23.7390 N   0  0  0  0  0  0  0  0  0  0  0  0
  -25.7290  -38.2260   23.8930 H   0  0  0  0  0  0  0  0  0  0  0  0
  1  2  1  0
  2  4  1  0
  3  1  2  0
  6  5  1  0
  7  5  1  0
  8  1  1  0
  8  6  1  0
  9 10  1  0
  9  8  1  0
  9  7  1  0
 11 10  1  0
 12 17  1  0
 13 14  1  0
 13 12  1  0
 15 14  1  0
 15 22  1  0
 15 16  1  0
 17 11  1  0
 17 16  1  0
 18 11  2  0
 19 20  2  0
 20 39  1  0
 21 20  1  0
 21 24  1  0
 22 19  1  0
 22 23  1  0
 23 21  2  0
 24 25  1  0
 25 26  2  0
 27 30  1  0
 27 26  1  0
 28 27  2  0
 29 28  1  0
 29 24  2  0
 30 31  1  0
 31 36  2  0
 31 32  1  0
 32 33  2  0
 33 34  1  0
 34 38  1  0
 35 34  2  0
 36 35  1  0
 37 36  1  0
 39 40  1  0
 40 43  1  0
 40 42  1  0
 41 39  2  0
 44 45  1  0
 44 19  1  0
 46 44  1  0
 47  2  1  0
 48 47  2  0
 49 48  1  0
 50 61  2  0
 51 49  1  0
 51 56  1  0
 52 60  1  0
 52 62  1  0
 53 59  1  0
 53 55  1  0
 54 60  1  0
 55 56  2  0
 55 54  1  0
 57 51  2  0
 58 57  1  0
 58 53  2  0
 59 52  1  0
 60 50  1  0
 62 64  2  0
 63 62  1  0
 65 63  1  0
 66 75  2  0
 66 71  1  0
 67 63  1  0
 67 71  1  0
 68 67  1  0
 69 70  1  0
 69 68  1  0
 70 66  1  0
 71 72  2  0
 72 73  1  0
 74 73  2  0
 75 74  1  0
 76 50  1  0
 76 81  1  0
 76 77  1  0
 77 80  1  1
 77 78  1  0
 79 77  1  0
 81 84  1  0
 82 86  1  0
 82 81  1  0
 83 82  2  0
 86 85  1  0
 88 86  1  0
 88 89  1  0
 88 87  1  0
M  ISO  4  10 100  11 100  48 101  49 101
M  END
>  <TORSDO>  (26) 
F 20

>  <SCORE>  (26) 
-12.193

>  <name>  (26) 
25

>  <ligand_id>  (26) 
25

>  <original_smiles>  (26) 
[H]c1c([H])c([H])c2c(c1[H])C([H])([H])C([H])([H])C([H])([H])C2([H])N([H])C(=O)C1([H])N(C(=O)C([H])(N([H])C(=O)C([H])(N([H])C([H])([H])[H])C([H])([H])[H])C(C([H])([H])[H])(C([H])([H])[H])C([H])([H])[H])C([H])([H])c2c([H])c(OC([H])([H])C([H])([H])N([H])C(=O)C3([H])C([H])([H])C([H])([H])C([H])([H])C3([H])C([H])([H])C(=O)N3C([H])([H])C([H])([H])C([H])([H])C([H])(n4nc(-c5c([H])c([H])c(Oc6c([H])c([H])c(F)c([H])c6F)c([H])c5[H])c(C(=O)N([H])[H])c4N([H])[H])C3([H])[H])c([H])c([H])c2C1([H])[H]

>  <smiles>  (26) 
[H]c1c([H])c([H])c2c(c1[H])C([H])([H])C([H])([H])C([H])([H])C2([H])N([H])C(=O)C1([H])N(C(=O)C([H])(N([H])C(=O)C([H])(N([H])C([H])([H])[H])C([H])([H])[H])C(C([H])([H])[H])(C([H])([H])[H])C([H])([H])[H])C([H])([H])c2c([H])c(OC([H])([H])C([H])([H])N([H])C(=O)C3([H])C([H])([H])C([H])([H])C([H])([H])C3([H])C([H])([H])C(=O)N3C([H])([H])C([H])([H])C([H])([H])C([H])(n4nc(-c5c([H])c([H])c(Oc6c([H])c([H])c(F)c([H])c6F)c([H])c5[H])c(C(=O)N([H])[H])c4N([H])[H])C3([H])[H])c([H])c([H])c2C1([H])[H]

$$$$
26:0:0
     RDKit          3D

 88 96  0  0  1  0  0  0  0  0999 V2000
  -28.6710  -21.1590   20.9430 C   0  0  0  0  0  2  0  0  0  0  0  0
  -29.4500  -19.8240   20.2040 C   0  0  0  0  0  3  0  0  0  0  0  0
  -28.8830  -22.6960   20.2260 C   0  0  0  0  0  3  0  0  0  0  0  0
  -29.1710  -20.5390   18.8140 C   0  0  0  0  0  3  0  0  0  0  0  0
  -30.1200  -20.0370   17.7160 C   0  0  0  0  0  1  0  0  0  0  0  0
  -29.1390  -22.0870   18.8700 N   0  0  0  0  0  4  0  0  0  0  0  0
  -30.0210  -22.4440   18.5370 H   0  0  0  0  0  0  0  0  0  0  0  0
  -28.4410  -22.4060   18.2170 H   0  0  0  0  0  0  0  0  0  0  0  0
  -29.3140  -16.6590   20.3700 C   0  0  0  0  0  3  0  0  0  0  0  0
  -29.0360  -18.1300   20.3720 C   0  0  0  0  0  3  0  0  0  0  0  0
  -30.3040  -15.3790   20.1620 C   0  0  0  0  0  0  0  0  0  0  0  0
  -30.3520  -12.9290   19.2590 C   0  0  0  0  0  2  0  0  0  0  0  0
  -29.4020  -12.7380   18.0440 C   0  0  0  0  0  2  0  0  0  0  0  0
  -27.9610  -12.4440   18.5020 C   0  0  0  0  0  2  0  0  0  0  0  0
  -27.5260  -13.3770   19.6570 C   0  0  0  0  0  3  0  0  0  0  0  0
  -28.5980  -13.4880   20.7620 C   0  0  0  0  0  2  0  0  0  0  0  0
  -29.8160  -14.0350   20.1360 N   0  0  0  0  0  0  0  0  0  0  0  0
  -31.5130  -15.4360   19.8840 O   0  0  0  0  0  0  0  0  0  0  0  0
  -25.1650  -13.9060   20.4590 C   0  0  0  0  0  0  0  0  0  0  0  0
  -24.1180  -13.1160   20.8430 C   0  0  0  0  0  0  0  0  0  0  0  0
  -24.6000  -11.7710   20.7940 C   0  0  0  0  0  0  0  0  0  0  0  0
  -26.2120  -13.0440   20.1880 N   0  0  0  0  0  0  0  0  0  0  0  0
  -25.8850  -11.7530   20.4590 N   0  0  0  0  0  0  0  0  0  0  0  0
  -23.8890  -10.5000   20.9880 C   0  0  0  0  0  0  0  0  0  0  0  0
  -24.3320   -9.5400   21.9250 C   0  0  0  0  0  3  0  0  0  0  0  0
  -23.6190   -8.3360   22.1080 C   0  0  0  0  0  3  0  0  0  0  0  0
  -22.4480   -8.0830   21.3550 C   0  0  0  0  0  0  0  0  0  0  0  0
  -22.0240   -9.0310   20.4070 C   0  0  0  0  0  3  0  0  0  0  0  0
  -22.7370  -10.2270   20.2230 C   0  0  0  0  0  3  0  0  0  0  0  0
  -21.7050   -6.9300   21.4480 O   0  0  0  0  0  0  0  0  0  0  0  0
  -21.6480   -6.2030   22.6090 C   0  0  0  0  0  0  0  0  0  0  0  0
  -21.1790   -6.7620   23.8170 C   0  0  0  0  0  3  0  0  0  0  0  0
  -21.0720   -5.9600   24.9710 C   0  0  0  0  0  3  0  0  0  0  0  0
  -21.4220   -4.5970   24.9170 C   0  0  0  0  0  0  0  0  0  0  0  0
  -21.8830   -4.0370   23.7130 C   0  0  0  0  0  3  0  0  0  0  0  0
  -21.9930   -4.8370   22.5620 C   0  0  0  0  0  0  0  0  0  0  0  0
  -22.4180   -4.2870   21.4000 F   0  0  0  0  0  0  0  0  0  0  0  0
  -21.3120   -3.8240   26.0210 F   0  0  0  0  0  0  0  0  0  0  0  0
  -22.7220  -13.5770   21.1370 C   0  0  0  0  0  0  0  0  0  0  0  0
  -22.0170  -12.8730   22.0160 N   0  0  0  0  0  0  0  0  0  0  0  0
  -22.2630  -14.5960   20.6220 O   0  0  0  0  0  0  0  0  0  0  0  0
  -22.4040  -12.0480   22.4510 H   0  0  0  0  0  0  0  0  0  0  0  0
  -21.0810  -13.1620   22.2570 H   0  0  0  0  0  0  0  0  0  0  0  0
  -25.3090  -15.2810   20.2870 N   0  0  0  0  0  0  0  0  0  0  0  0
  -24.5330  -15.9210   20.4190 H   0  0  0  0  0  0  0  0  0  0  0  0
  -26.1300  -15.7270   19.9010 H   0  0  0  0  0  0  0  0  0  0  0  0
  -27.9160  -24.2460   20.2890 C   0  0  0  0  0  2  0  0  0  0  0  0
  -28.1790  -25.8900   20.2910 O   0  0  0  0  0  0  0  0  0  0  0  0
  -24.6330  -31.9080   23.2500 C   0  0  0  0  0  0  0  0  0  0  0  0
  -27.1660  -26.9940   20.2520 C   0  0  0  0  0  0  0  0  0  0  0  0
  -23.4320  -30.5110   21.6180 C   0  0  0  0  0  3  0  0  0  0  0  0
  -24.8720  -28.8910   20.2050 C   0  0  0  0  0  0  0  0  0  0  0  0
  -26.0000  -30.7070   21.4700 C   0  0  0  0  0  2  0  0  0  0  0  0
  -26.0640  -29.2910   20.8210 C   0  0  0  0  0  0  0  0  0  0  0  0
  -27.2060  -28.3660   20.8170 C   0  0  0  0  0  3  0  0  0  0  0  0
  -25.9400  -26.7490   19.5910 C   0  0  0  0  0  3  0  0  0  0  0  0
  -24.8360  -27.6400   19.5690 C   0  0  0  0  0  3  0  0  0  0  0  0
  -23.6590  -29.8210   20.2450 C   0  0  0  0  0  2  0  0  0  0  0  0
  -24.7100  -31.0690   22.1670 N   0  0  0  0  0  0  0  0  0  0  0  0
  -23.5440  -32.2050   23.7690 O   0  0  0  0  0  0  0  0  0  0  0  0
  -22.7300  -29.5250   22.5890 C   0  0  0  0  0  0  0  0  0  0  0  0
  -21.4000  -29.3650   22.4620 N   0  0  0  0  0  0  0  0  0  0  0  0
  -23.3910  -28.9030   23.4240 O   0  0  0  0  0  0  0  0  0  0  0  0
  -20.9190  -29.9190   21.7680 H   0  0  0  0  0  0  0  0  0  0  0  0
  -18.0140  -28.1590   22.9650 C   0  0  0  0  0  0  0  0  0  0  0  0
  -20.5730  -28.4330   23.2380 C   0  0  0  0  0  3  0  0  0  0  0  0
  -20.6780  -26.9950   22.6780 C   0  0  0  0  0  2  0  0  0  0  0  0
  -19.5830  -26.6600   21.6620 C   0  0  0  0  0  2  0  0  0  0  0  0
  -18.1980  -26.8050   22.2980 C   0  0  0  0  0  2  0  0  0  0  0  0
  -19.1280  -28.9290   23.3920 C   0  0  0  0  0  0  0  0  0  0  0  0
  -18.9000  -30.1930   23.9800 C   0  0  0  0  0  3  0  0  0  0  0  0
  -17.5910  -30.6870   24.1400 C   0  0  0  0  0  3  0  0  0  0  0  0
  -16.4920  -29.9140   23.7250 C   0  0  0  0  0  3  0  0  0  0  0  0
  -16.7040  -28.6510   23.1440 C   0  0  0  0  0  3  0  0  0  0  0  0
  -25.9050  -32.5480   23.8810 C   0  0  0  0  0  3  0  0  0  0  0  0
  -25.5940  -33.9510   24.2120 N   0  0  0  0  0  0  0  0  0  0  0  0
  -25.9120  -35.0080   23.4530 C   0  0  0  0  0  0  0  0  0  0  0  0
  -26.5590  -34.9050   22.4080 O   0  0  0  0  0  0  0  0  0  0  0  0
  -25.0130  -34.1020   25.0230 H   0  0  0  0  0  0  0  0  0  0  0  0
  -24.1680  -36.8030   23.1600 C   0  0  0  0  0  1  0  0  0  0  0  0
  -25.4400  -36.3990   23.9240 C   0  0  0  0  0  3  0  0  0  0  0  0
  -27.5980  -37.2990   24.6760 C   0  0  0  0  0  1  0  0  0  0  0  0
  -26.4650  -37.4540   23.7680 N   0  0  0  0  0  0  0  0  0  0  0  0
  -26.0610  -38.3750   23.9190 H   0  0  0  0  0  0  0  0  0  0  0  0
  -26.4060  -31.7860   25.1720 C   0  0  1  0  0  0  0  0  0  0  0  0
  -25.3030  -31.5680   26.2350 C   0  0  0  0  0  1  0  0  0  0  0  0
  -26.9810  -30.3990   24.8060 C   0  0  0  0  0  1  0  0  0  0  0  0
  -27.5570  -32.5790   25.8330 C   0  0  0  0  0  1  0  0  0  0  0  0
  2 10  1  0
  2  1  1  0
  3 47  1  0
  3  1  1  0
  4  5  1  0
  4  6  1  0
  4  2  1  0
  6  3  1  0
  7  6  1  0
  8  6  1  0
  9 10  2  0
 11  9  1  0
 12 17  1  0
 13 14  1  0
 13 12  1  0
 15 14  1  0
 15 22  1  0
 15 16  1  0
 17 11  1  0
 17 16  1  0
 18 11  2  0
 19 20  2  0
 20 39  1  0
 21 20  1  0
 21 24  1  0
 22 19  1  0
 22 23  1  0
 23 21  2  0
 24 25  1  0
 25 26  2  0
 27 30  1  0
 27 26  1  0
 28 27  2  0
 29 28  1  0
 29 24  2  0
 30 31  1  0
 31 32  1  0
 32 33  2  0
 34 33  1  0
 34 38  1  0
 35 34  2  0
 36 31  2  0
 36 35  1  0
 37 36  1  0
 39 40  1  0
 40 43  1  0
 40 42  1  0
 41 39  2  0
 44 45  1  0
 44 19  1  0
 46 44  1  0
 47 48  1  0
 49 60  2  0
 50 48  1  0
 50 55  1  0
 51 59  1  0
 51 61  1  0
 52 58  1  0
 52 54  1  0
 53 59  1  0
 54 53  1  0
 55 54  2  0
 56 50  2  0
 57 56  1  0
 57 52  2  0
 58 51  1  0
 59 49  1  0
 61 63  2  0
 62 61  1  0
 64 62  1  0
 65 74  2  0
 65 70  1  0
 66 62  1  0
 66 70  1  0
 67 66  1  0
 68 69  1  0
 68 67  1  0
 69 65  1  0
 70 71  2  0
 71 72  1  0
 73 72  2  0
 74 73  1  0
 75 49  1  0
 75 76  1  0
 75 85  1  0
 76 79  1  0
 77 81  1  0
 77 76  1  0
 78 77  2  0
 81 80  1  0
 83 84  1  0
 83 81  1  0
 83 82  1  0
 85 88  1  1
 85 86  1  0
 87 85  1  0
M  ISO  4   9 100  11 100  47 101  48 101
M  END
>  <TORSDO>  (27) 
F 18

>  <SCORE>  (27) 
-16.204

>  <name>  (27) 
26

>  <ligand_id>  (27) 
26

>  <original_smiles>  (27) 
[H]C(C(=O)N1C([H])([H])C([H])([H])C([H])([H])C([H])(n2nc(-c3c([H])c([H])c(Oc4c([H])c([H])c(F)c([H])c4F)c([H])c3[H])c(C(=O)N([H])[H])c2N([H])[H])C1([H])[H])=C([H])C1([H])C([H])([H])C([H])(C([H])([H])Oc2c([H])c([H])c3c(c2[H])C([H])([H])N(C(=O)C([H])(N([H])C(=O)C([H])(N([H])C([H])([H])[H])C([H])([H])[H])C(C([H])([H])[H])(C([H])([H])[H])C([H])([H])[H])C([H])(C(=O)N([H])C2([H])c4c([H])c([H])c([H])c([H])c4C([H])([H])C([H])([H])C2([H])[H])C3([H])[H])[N+]([H])([H])C1([H])C([H])([H])[H]

>  <smiles>  (27) 
[H]C(C(=O)N1C([H])([H])C([H])([H])C([H])([H])C([H])(n2nc(-c3c([H])c([H])c(Oc4c([H])c([H])c(F)c([H])c4F)c([H])c3[H])c(C(=O)N([H])[H])c2N([H])[H])C1([H])[H])=C([H])C1([H])C([H])([H])C([H])(C([H])([H])Oc2c([H])c([H])c3c(c2[H])C([H])([H])N(C(=O)C([H])(N([H])C(=O)C([H])(N([H])C([H])([H])[H])C([H])([H])[H])C(C([H])([H])[H])(C([H])([H])[H])C([H])([H])[H])C([H])(C(=O)N([H])C2([H])c4c([H])c([H])c([H])c([H])c4C([H])([H])C([H])([H])C2([H])[H])C3([H])[H])[N+]([H])([H])C1([H])C([H])([H])[H]

$$$$
27:0:0
     RDKit          3D

 88 96  0  0  1  0  0  0  0  0999 V2000
  -29.3520  -20.0680   19.5170 C   0  0  0  0  0  0  0  0  0  0  0  0
  -30.3290  -19.4350   21.5050 C   0  0  0  0  0  2  0  0  0  0  0  0
  -30.1710  -18.7250   20.1380 C   0  0  0  0  0  3  0  0  0  0  0  0
  -30.2220  -21.0290   21.3630 C   0  0  1  0  0  0  0  0  0  0  0  0
  -29.5250  -21.6000   22.6120 C   0  0  0  0  0  1  0  0  0  0  0  0
  -31.6450  -21.6110   21.2360 C   0  0  0  0  0  1  0  0  0  0  0  0
  -29.4230  -21.3700   20.1550 N   0  0  0  0  0  0  0  0  0  0  0  0
  -28.7480  -19.9280   18.4520 O   0  0  0  0  0  0  0  0  0  0  0  0
  -29.8140  -16.9560   20.1510 C   0  0  0  0  0  2  0  0  0  0  0  0
  -30.7160  -15.4480   20.1390 C   0  0  0  0  0  0  0  0  0  0  0  0
  -30.7210  -12.9870   19.3050 C   0  0  0  0  0  2  0  0  0  0  0  0
  -29.7910  -12.8010   18.0770 C   0  0  0  0  0  2  0  0  0  0  0  0
  -28.3360  -12.5490   18.5160 C   0  0  0  0  0  2  0  0  0  0  0  0
  -27.8990  -13.5170   19.6440 C   0  0  0  0  0  3  0  0  0  0  0  0
  -28.9510  -13.6410   20.7630 C   0  0  0  0  0  2  0  0  0  0  0  0
  -30.1960  -14.1230   20.1440 N   0  0  0  0  0  0  0  0  0  0  0  0
  -31.9360  -15.4670   19.9140 O   0  0  0  0  0  0  0  0  0  0  0  0
  -25.5410  -14.1010   20.4200 C   0  0  0  0  0  0  0  0  0  0  0  0
  -24.4720  -13.3340   20.7940 C   0  0  0  0  0  0  0  0  0  0  0  0
  -24.9240  -11.9780   20.7540 C   0  0  0  0  0  0  0  0  0  0  0  0
  -26.5710  -13.2140   20.1610 N   0  0  0  0  0  0  0  0  0  0  0  0
  -26.2120  -11.9310   20.4310 N   0  0  0  0  0  0  0  0  0  0  0  0
  -24.1830  -10.7240   20.9440 C   0  0  0  0  0  0  0  0  0  0  0  0
  -24.5800   -9.7680   21.9060 C   0  0  0  0  0  3  0  0  0  0  0  0
  -23.8380   -8.5810   22.0830 C   0  0  0  0  0  3  0  0  0  0  0  0
  -22.6840   -8.3400   21.3000 C   0  0  0  0  0  0  0  0  0  0  0  0
  -22.3070   -9.2830   20.3280 C   0  0  0  0  0  3  0  0  0  0  0  0
  -23.0500  -10.4620   20.1490 C   0  0  0  0  0  3  0  0  0  0  0  0
  -21.9170   -7.2030   21.3850 O   0  0  0  0  0  0  0  0  0  0  0  0
  -21.7850   -6.5100   22.5620 C   0  0  0  0  0  0  0  0  0  0  0  0
  -21.2630   -7.1120   23.7270 C   0  0  0  0  0  3  0  0  0  0  0  0
  -21.0800   -6.3440   24.8940 C   0  0  0  0  0  3  0  0  0  0  0  0
  -21.4080   -4.9760   24.8970 C   0  0  0  0  0  0  0  0  0  0  0  0
  -21.9240   -4.3730   23.7360 C   0  0  0  0  0  3  0  0  0  0  0  0
  -22.1080   -5.1380   22.5710 C   0  0  0  0  0  0  0  0  0  0  0  0
  -22.5840   -4.5460   21.4490 F   0  0  0  0  0  0  0  0  0  0  0  0
  -21.2260   -4.2370   26.0160 F   0  0  0  0  0  0  0  0  0  0  0  0
  -23.0820  -13.8250   21.0730 C   0  0  0  0  0  0  0  0  0  0  0  0
  -22.3530  -13.1400   21.9460 N   0  0  0  0  0  0  0  0  0  0  0  0
  -22.6530  -14.8550   20.5520 O   0  0  0  0  0  0  0  0  0  0  0  0
  -22.7150  -12.3080   22.3880 H   0  0  0  0  0  0  0  0  0  0  0  0
  -21.4210  -13.4520   22.1770 H   0  0  0  0  0  0  0  0  0  0  0  0
  -25.7180  -15.4700   20.2500 N   0  0  0  0  0  0  0  0  0  0  0  0
  -24.9600  -16.1330   20.3770 H   0  0  0  0  0  0  0  0  0  0  0  0
  -26.5700  -15.9030   19.9200 H   0  0  0  0  0  0  0  0  0  0  0  0
  -29.2570  -22.9600   19.6310 C   0  0  0  0  0  3  0  0  0  0  0  0
  -28.2810  -24.3960   20.1000 C   0  0  0  0  0  3  0  0  0  0  0  0
  -28.4110  -26.0210   19.8300 O   0  0  0  0  0  0  0  0  0  0  0  0
  -24.6560  -31.7450   23.0450 C   0  0  0  0  0  0  0  0  0  0  0  0
  -27.3410  -27.0580   19.8580 C   0  0  0  0  0  0  0  0  0  0  0  0
  -23.4860  -30.3490   21.3870 C   0  0  0  0  0  3  0  0  0  0  0  0
  -24.9680  -28.8400   19.9000 C   0  0  0  0  0  0  0  0  0  0  0  0
  -26.0390  -30.6660   21.2020 C   0  0  0  0  0  2  0  0  0  0  0  0
  -26.1510  -29.2780   20.5080 C   0  0  0  0  0  0  0  0  0  0  0  0
  -27.3320  -28.4110   20.4580 C   0  0  0  0  0  3  0  0  0  0  0  0
  -26.1190  -26.7670   19.2110 C   0  0  0  0  0  3  0  0  0  0  0  0
  -24.9750  -27.6050   19.2310 C   0  0  0  0  0  3  0  0  0  0  0  0
  -23.7160  -29.7110   19.9910 C   0  0  0  0  0  2  0  0  0  0  0  0
  -24.7490  -30.9460   21.9320 N   0  0  0  0  0  0  0  0  0  0  0  0
  -23.5660  -31.9780   23.5920 O   0  0  0  0  0  0  0  0  0  0  0  0
  -22.8480  -29.3020   22.3370 C   0  0  0  0  0  0  0  0  0  0  0  0
  -21.5260  -29.0770   22.2170 N   0  0  0  0  0  0  0  0  0  0  0  0
  -23.5480  -28.6920   23.1480 O   0  0  0  0  0  0  0  0  0  0  0  0
  -21.0120  -29.6230   21.5410 H   0  0  0  0  0  0  0  0  0  0  0  0
  -18.2110  -27.6870   22.7100 C   0  0  0  0  0  0  0  0  0  0  0  0
  -20.7530  -28.0860   22.9740 C   0  0  0  0  0  3  0  0  0  0  0  0
  -20.9300  -26.6690   22.3770 C   0  0  0  0  0  2  0  0  0  0  0  0
  -19.8440  -26.3050   21.3590 C   0  0  0  0  0  2  0  0  0  0  0  0
  -18.4580  -26.3620   22.0070 C   0  0  0  0  0  2  0  0  0  0  0  0
  -19.2870  -28.5030   23.1500 C   0  0  0  0  0  0  0  0  0  0  0  0
  -18.9990  -29.7380   23.7690 C   0  0  0  0  0  3  0  0  0  0  0  0
  -17.6700  -30.1610   23.9520 C   0  0  0  0  0  3  0  0  0  0  0  0
  -16.6080  -29.3440   23.5260 C   0  0  0  0  0  3  0  0  0  0  0  0
  -16.8790  -28.1080   22.9110 C   0  0  0  0  0  3  0  0  0  0  0  0
  -25.9140  -32.4170   23.6740 C   0  0  0  0  0  3  0  0  0  0  0  0
  -26.4790  -31.6280   24.9200 C   0  0  1  0  0  0  0  0  0  0  0  0
  -25.4140  -31.3160   25.9970 C   0  0  0  0  0  1  0  0  0  0  0  0
  -27.1090  -30.2860   24.4830 C   0  0  0  0  0  1  0  0  0  0  0  0
  -27.6100  -32.4460   25.5880 C   0  0  0  0  0  1  0  0  0  0  0  0
  -25.5440  -33.7880   24.0700 N   0  0  0  0  0  0  0  0  0  0  0  0
  -25.8030  -34.8900   23.3530 C   0  0  0  0  0  0  0  0  0  0  0  0
  -26.4410  -34.8630   22.2980 O   0  0  0  0  0  0  0  0  0  0  0  0
  -24.9690  -33.8790   24.8940 H   0  0  0  0  0  0  0  0  0  0  0  0
  -23.9760  -36.6130   23.1580 C   0  0  0  0  0  1  0  0  0  0  0  0
  -25.2740  -36.2360   23.8910 C   0  0  0  0  0  3  0  0  0  0  0  0
  -27.3990  -37.2000   24.6590 C   0  0  0  0  0  1  0  0  0  0  0  0
  -26.2480  -37.3440   23.7710 N   0  0  0  0  0  0  0  0  0  0  0  0
  -25.8050  -38.2360   23.9690 H   0  0  0  0  0  0  0  0  0  0  0  0
  1  3  1  0
  1  7  1  0
  3  9  1  0
  3  2  1  0
  4  2  1  0
  4  5  1  1
  6  4  1  0
  7  4  1  0
  8  1  2  0
 10 16  1  0
 10  9  1  0
 11 16  1  0
 12 13  1  0
 12 11  1  0
 14 13  1  0
 14 21  1  0
 14 15  1  0
 16 15  1  0
 17 10  2  0
 18 19  2  0
 19 38  1  0
 20 19  1  0
 20 23  1  0
 21 18  1  0
 21 22  1  0
 22 20  2  0
 23 24  1  0
 24 25  2  0
 26 29  1  0
 26 25  1  0
 27 26  2  0
 28 27  1  0
 28 23  2  0
 29 30  1  0
 30 35  2  0
 30 31  1  0
 31 32  2  0
 32 33  1  0
 33 37  1  0
 34 33  2  0
 35 34  1  0
 36 35  1  0
 38 39  1  0
 39 42  1  0
 39 41  1  0
 40 38  2  0
 43 44  1  0
 43 18  1  0
 45 43  1  0
 46 47  2  0
 46  7  1  0
 48 50  1  0
 48 47  1  0
 49 60  2  0
 50 55  1  0
 51 59  1  0
 51 61  1  0
 52 58  1  0
 52 54  1  0
 53 59  1  0
 54 53  1  0
 55 54  2  0
 56 57  1  0
 56 50  2  0
 57 52  2  0
 58 51  1  0
 59 49  1  0
 61 63  2  0
 62 61  1  0
 64 62  1  0
 65 74  2  0
 65 70  1  0
 66 62  1  0
 66 70  1  0
 67 66  1  0
 68 69  1  0
 68 67  1  0
 69 65  1  0
 70 71  2  0
 71 72  1  0
 73 72  2  0
 74 73  1  0
 75 49  1  0
 75 80  1  0
 75 76  1  0
 76 79  1  1
 76 77  1  0
 78 76  1  0
 80 83  1  0
 81 85  1  0
 81 80  1  0
 82 81  2  0
 85 84  1  0
 87 85  1  0
 87 88  1  0
 87 86  1  0
M  ISO  4   9 100  10 100  47 101  48 101
M  END
>  <TORSDO>  (28) 
F 19

>  <SCORE>  (28) 
-16.279

>  <name>  (28) 
27

>  <ligand_id>  (28) 
27

>  <original_smiles>  (28) 
[H]c1c([H])c([H])c2c(c1[H])C([H])([H])C([H])([H])C([H])([H])C2([H])N([H])C(=O)C1([H])N(C(=O)C([H])(N([H])C(=O)C([H])(N([H])C([H])([H])[H])C([H])([H])[H])C(C([H])([H])[H])(C([H])([H])[H])C([H])([H])[H])C([H])([H])c2c([H])c(OC([H])([H])C([H])([H])N3C(=O)C([H])(C([H])([H])C(=O)N4C([H])([H])C([H])([H])C([H])([H])C([H])(n5nc(-c6c([H])c([H])c(Oc7c([H])c([H])c(F)c([H])c7F)c([H])c6[H])c(C(=O)N([H])[H])c5N([H])[H])C4([H])[H])C([H])([H])C3(C([H])([H])[H])C([H])([H])[H])c([H])c([H])c2C1([H])[H]

>  <smiles>  (28) 
[H]c1c([H])c([H])c2c(c1[H])C([H])([H])C([H])([H])C([H])([H])C2([H])N([H])C(=O)C1([H])N(C(=O)C([H])(N([H])C(=O)C([H])(N([H])C([H])([H])[H])C([H])([H])[H])C(C([H])([H])[H])(C([H])([H])[H])C([H])([H])[H])C([H])([H])c2c([H])c(OC([H])([H])C([H])([H])N3C(=O)C([H])(C([H])([H])C(=O)N4C([H])([H])C([H])([H])C([H])([H])C([H])(n5nc(-c6c([H])c([H])c(Oc7c([H])c([H])c(F)c([H])c7F)c([H])c6[H])c(C(=O)N([H])[H])c5N([H])[H])C4([H])[H])C([H])([H])C3(C([H])([H])[H])C([H])([H])[H])c([H])c([H])c2C1([H])[H]

$$$$
28:0:0
     RDKit          3D

 92100  0  0  1  0  0  0  0  0999 V2000
  -28.7800  -20.5500   20.2710 N   0  0  0  0  0  4  0  0  0  0  0  0
  -27.9910  -20.5770   19.6450 H   0  0  0  0  0  0  0  0  0  0  0  0
  -28.3740  -20.3510   21.1720 H   0  0  0  0  0  0  0  0  0  0  0  0
  -29.2670  -22.0580   20.2960 C   0  0  0  0  0  2  0  0  0  0  0  0
  -28.2680  -23.3830   19.9840 C   0  0  0  0  0  2  0  0  0  0  0  0
  -28.3780  -24.9010   20.6940 C   0  0  0  0  0  2  0  0  0  0  0  0
  -28.3050  -26.3250   20.1000 O   0  0  0  0  0  0  0  0  0  0  0  0
  -24.5850  -31.8940   23.2010 C   0  0  0  0  0  0  0  0  0  0  0  0
  -27.1870  -27.2180   20.1760 C   0  0  0  0  0  0  0  0  0  0  0  0
  -23.3820  -30.4840   21.5740 C   0  0  0  0  0  3  0  0  0  0  0  0
  -24.8320  -28.9070   20.1540 C   0  0  0  0  0  0  0  0  0  0  0  0
  -25.9280  -30.7790   21.3840 C   0  0  0  0  0  2  0  0  0  0  0  0
  -26.0090  -29.3820   20.7450 C   0  0  0  0  0  0  0  0  0  0  0  0
  -27.1910  -28.5560   20.7310 C   0  0  0  0  0  3  0  0  0  0  0  0
  -25.9810  -26.8200   19.5670 C   0  0  0  0  0  3  0  0  0  0  0  0
  -24.8260  -27.6370   19.5520 C   0  0  0  0  0  3  0  0  0  0  0  0
  -23.5980  -29.7960   20.1990 C   0  0  0  0  0  2  0  0  0  0  0  0
  -24.6520  -31.0750   22.1080 N   0  0  0  0  0  0  0  0  0  0  0  0
  -23.5020  -32.1720   23.7370 O   0  0  0  0  0  0  0  0  0  0  0  0
  -22.7180  -29.4770   22.5450 C   0  0  0  0  0  0  0  0  0  0  0  0
  -21.3910  -29.2980   22.4280 N   0  0  0  0  0  0  0  0  0  0  0  0
  -23.3990  -28.8570   23.3650 O   0  0  0  0  0  0  0  0  0  0  0  0
  -20.8970  -29.8520   21.7420 H   0  0  0  0  0  0  0  0  0  0  0  0
  -18.0200  -28.0830   22.9580 C   0  0  0  0  0  0  0  0  0  0  0  0
  -20.5790  -28.3590   23.2070 C   0  0  0  0  0  3  0  0  0  0  0  0
  -20.6840  -26.9260   22.6360 C   0  0  0  0  0  2  0  0  0  0  0  0
  -19.5780  -26.5950   21.6300 C   0  0  0  0  0  2  0  0  0  0  0  0
  -18.2000  -26.7330   22.2830 C   0  0  0  0  0  2  0  0  0  0  0  0
  -19.1380  -28.8530   23.3770 C   0  0  0  0  0  0  0  0  0  0  0  0
  -18.9140  -30.1150   23.9700 C   0  0  0  0  0  3  0  0  0  0  0  0
  -17.6070  -30.6070   24.1460 C   0  0  0  0  0  3  0  0  0  0  0  0
  -16.5050  -29.8350   23.7400 C   0  0  0  0  0  3  0  0  0  0  0  0
  -16.7130  -28.5740   23.1540 C   0  0  0  0  0  3  0  0  0  0  0  0
  -25.8640  -32.5390   23.8180 C   0  0  0  0  0  3  0  0  0  0  0  0
  -25.5440  -33.9330   24.1620 N   0  0  0  0  0  0  0  0  0  0  0  0
  -25.8560  -34.9970   23.4090 C   0  0  0  0  0  0  0  0  0  0  0  0
  -26.5130  -34.9080   22.3680 O   0  0  0  0  0  0  0  0  0  0  0  0
  -24.9600  -34.0750   24.9740 H   0  0  0  0  0  0  0  0  0  0  0  0
  -24.1070  -36.7790   23.0960 C   0  0  0  0  0  1  0  0  0  0  0  0
  -25.3650  -36.3780   23.8850 C   0  0  0  0  0  3  0  0  0  0  0  0
  -27.5040  -37.2760   24.6890 C   0  0  0  0  0  1  0  0  0  0  0  0
  -26.3860  -37.4420   23.7640 N   0  0  0  0  0  0  0  0  0  0  0  0
  -25.9740  -38.3580   23.9260 H   0  0  0  0  0  0  0  0  0  0  0  0
  -26.3980  -31.7680   25.0880 C   0  0  1  0  0  0  0  0  0  0  0  0
  -25.3150  -31.5190   26.1660 C   0  0  0  0  0  1  0  0  0  0  0  0
  -26.9880  -30.3960   24.6920 C   0  0  0  0  0  1  0  0  0  0  0  0
  -27.5480  -32.5690   25.7430 C   0  0  0  0  0  1  0  0  0  0  0  0
  -29.5530  -19.2410   19.7860 C   0  0  0  0  0  3  0  0  0  0  0  0
  -29.9810  -16.0520   22.2690 C   0  0  0  0  0  2  0  0  0  0  0  0
  -31.2120  -18.0900   21.5970 C   0  0  0  0  0  2  0  0  0  0  0  0
  -29.7080  -16.2650   20.7550 C   0  0  0  0  0  3  0  0  0  0  0  0
  -29.9120  -17.9530   20.8020 C   0  0  0  0  0  3  0  0  0  0  0  0
  -31.1690  -16.9610   22.6350 C   0  0  0  0  0  3  0  0  0  0  0  0
  -30.9960  -17.4520   23.8630 F   0  0  0  0  0  0  0  0  0  0  0  0
  -30.5260  -14.9970   20.0620 C   0  0  0  0  0  0  0  0  0  0  0  0
  -30.3890  -12.7080   18.9470 C   0  0  0  0  0  2  0  0  0  0  0  0
  -29.3790  -12.7500   17.7750 C   0  0  0  0  0  2  0  0  0  0  0  0
  -27.9370  -12.5170   18.2700 C   0  0  0  0  0  2  0  0  0  0  0  0
  -27.6080  -13.3690   19.5220 C   0  0  0  0  0  3  0  0  0  0  0  0
  -28.7210  -13.2690   20.5820 C   0  0  0  0  0  2  0  0  0  0  0  0
  -29.9720  -13.7220   19.9530 N   0  0  0  0  0  0  0  0  0  0  0  0
  -31.6610  -15.1580   19.5970 O   0  0  0  0  0  0  0  0  0  0  0  0
  -25.2610  -13.9340   20.3840 C   0  0  0  0  0  0  0  0  0  0  0  0
  -24.2190  -13.1490   20.7960 C   0  0  0  0  0  0  0  0  0  0  0  0
  -24.6870  -11.8020   20.7220 C   0  0  0  0  0  0  0  0  0  0  0  0
  -26.2940  -13.0620   20.0760 N   0  0  0  0  0  0  0  0  0  0  0  0
  -25.9600  -11.7740   20.3450 N   0  0  0  0  0  0  0  0  0  0  0  0
  -23.9760  -10.5340   20.9330 C   0  0  0  0  0  0  0  0  0  0  0  0
  -24.4340   -9.5750   21.8630 C   0  0  0  0  0  3  0  0  0  0  0  0
  -23.7240   -8.3710   22.0600 C   0  0  0  0  0  3  0  0  0  0  0  0
  -22.5400   -8.1180   21.3260 C   0  0  0  0  0  0  0  0  0  0  0  0
  -22.1010   -9.0650   20.3840 C   0  0  0  0  0  3  0  0  0  0  0  0
  -22.8120  -10.2600   20.1860 C   0  0  0  0  0  3  0  0  0  0  0  0
  -21.7980   -6.9660   21.4320 O   0  0  0  0  0  0  0  0  0  0  0  0
  -21.7380   -6.2540   22.6030 C   0  0  0  0  0  0  0  0  0  0  0  0
  -21.2970   -6.8400   23.8090 C   0  0  0  0  0  3  0  0  0  0  0  0
  -21.1850   -6.0540   24.9750 C   0  0  0  0  0  3  0  0  0  0  0  0
  -21.5020   -4.6830   24.9330 C   0  0  0  0  0  0  0  0  0  0  0  0
  -21.9340   -4.0970   23.7300 C   0  0  0  0  0  3  0  0  0  0  0  0
  -22.0480   -4.8790   22.5680 C   0  0  0  0  0  0  0  0  0  0  0  0
  -22.4470   -4.3050   21.4080 F   0  0  0  0  0  0  0  0  0  0  0  0
  -21.3870   -3.9260   26.0490 F   0  0  0  0  0  0  0  0  0  0  0  0
  -22.8350  -13.6150   21.1440 C   0  0  0  0  0  0  0  0  0  0  0  0
  -22.1580  -12.9080   22.0420 N   0  0  0  0  0  0  0  0  0  0  0  0
  -22.3630  -14.6410   20.6540 O   0  0  0  0  0  0  0  0  0  0  0  0
  -22.5560  -12.0820   22.4630 H   0  0  0  0  0  0  0  0  0  0  0  0
  -21.2290  -13.1980   22.3130 H   0  0  0  0  0  0  0  0  0  0  0  0
  -25.4120  -15.3080   20.2200 N   0  0  0  0  0  0  0  0  0  0  0  0
  -24.6520  -15.9600   20.3870 H   0  0  0  0  0  0  0  0  0  0  0  0
  -26.2410  -15.7540   19.8480 H   0  0  0  0  0  0  0  0  0  0  0  0
  -31.9380  -20.2060   19.2520 C   0  0  0  0  0  1  0  0  0  0  0  0
  -30.6430  -19.5530   18.7320 C   0  0  0  0  0  2  0  0  0  0  0  0
  1  4  1  0
  1  3  1  0
  2  1  1  0
  5  4  1  0
  5  6  1  0
  7  9  1  0
  7  6  1  0
  8 19  2  0
  9 14  1  0
 10 18  1  0
 10 20  1  0
 11 17  1  0
 11 13  1  0
 12 18  1  0
 13 12  1  0
 14 13  2  0
 15  9  2  0
 16 15  1  0
 16 11  2  0
 17 10  1  0
 18  8  1  0
 20 22  2  0
 21 20  1  0
 23 21  1  0
 24 33  2  0
 24 29  1  0
 25 21  1  0
 25 29  1  0
 26 25  1  0
 27 28  1  0
 27 26  1  0
 28 24  1  0
 29 30  2  0
 30 31  1  0
 32 31  2  0
 33 32  1  0
 34  8  1  0
 34 35  1  0
 34 44  1  0
 35 38  1  0
 36 40  1  0
 36 35  1  0
 37 36  2  0
 40 39  1  0
 42 40  1  0
 42 43  1  0
 42 41  1  0
 44 47  1  1
 44 45  1  0
 46 44  1  0
 48 92  1  0
 48  1  1  0
 49 53  1  0
 50 53  1  0
 51 55  1  0
 51 52  1  0
 51 49  1  0
 52 48  1  0
 52 50  1  0
 53 54  1  0
 56 61  1  0
 57 58  1  0
 57 56  1  0
 59 58  1  0
 59 66  1  0
 59 60  1  0
 61 55  1  0
 61 60  1  0
 62 55  2  0
 63 64  2  0
 64 83  1  0
 65 64  1  0
 65 68  1  0
 66 67  1  0
 66 63  1  0
 67 65  2  0
 68 69  1  0
 69 70  2  0
 71 74  1  0
 71 70  1  0
 72 71  2  0
 73 72  1  0
 73 68  2  0
 74 75  1  0
 75 76  1  0
 76 77  2  0
 78 77  1  0
 78 82  1  0
 79 78  2  0
 80 75  2  0
 80 79  1  0
 81 80  1  0
 83 84  1  0
 84 87  1  0
 84 86  1  0
 85 83  2  0
 88 63  1  0
 88 89  1  0
 90 88  1  0
 92 91  1  0
M  ISO  4   6 101   7 101  51 100  55 100
M  END
>  <TORSDO>  (29) 
F 22

>  <SCORE>  (29) 
-12.214

>  <name>  (29) 
28

>  <ligand_id>  (29) 
28

>  <original_smiles>  (29) 
[H]c1c([H])c([H])c2c(c1[H])C([H])([H])C([H])([H])C([H])([H])C2([H])N([H])C(=O)C1([H])N(C(=O)C([H])(N([H])C(=O)C([H])(N([H])C([H])([H])[H])C([H])([H])[H])C(C([H])([H])[H])(C([H])([H])[H])C([H])([H])[H])C([H])([H])c2c([H])c(OC([H])([H])C([H])([H])C([H])([H])[N+]([H])([H])C([H])(C([H])([H])C([H])([H])[H])C3([H])C([H])([H])C([H])(F)C([H])([H])C3([H])C(=O)N3C([H])([H])C([H])([H])C([H])([H])C([H])(n4nc(-c5c([H])c([H])c(Oc6c([H])c([H])c(F)c([H])c6F)c([H])c5[H])c(C(=O)N([H])[H])c4N([H])[H])C3([H])[H])c([H])c([H])c2C1([H])[H]

>  <smiles>  (29) 
[H]c1c([H])c([H])c2c(c1[H])C([H])([H])C([H])([H])C([H])([H])C2([H])N([H])C(=O)C1([H])N(C(=O)C([H])(N([H])C(=O)C([H])(N([H])C([H])([H])[H])C([H])([H])[H])C(C([H])([H])[H])(C([H])([H])[H])C([H])([H])[H])C([H])([H])c2c([H])c(OC([H])([H])C([H])([H])C([H])([H])[N+]([H])([H])C([H])(C([H])([H])C([H])([H])[H])C3([H])C([H])([H])C([H])(F)C([H])([H])C3([H])C(=O)N3C([H])([H])C([H])([H])C([H])([H])C([H])(n4nc(-c5c([H])c([H])c(Oc6c([H])c([H])c(F)c([H])c6F)c([H])c5[H])c(C(=O)N([H])[H])c4N([H])[H])C3([H])[H])c([H])c([H])c2C1([H])[H]

$$$$
29:0:0
     RDKit          3D

 94101  0  0  1  0  0  0  0  0999 V2000
  -28.6960  -21.2130   19.9370 C   0  0  0  0  0  3  0  0  0  0  0  0
  -27.5190  -21.4410   19.2930 C   0  0  0  0  0  0  0  0  0  0  0  0
  -29.4550  -18.9410   19.6970 C   0  0  0  0  0  3  0  0  0  0  0  0
  -29.7180  -20.2550   19.5660 C   0  0  0  0  0  0  0  0  0  0  0  0
  -31.0370  -20.7840   19.0340 C   0  0  0  0  0  1  0  0  0  0  0  0
  -30.5110  -17.7020   17.7560 C   0  0  0  0  0  1  0  0  0  0  0  0
  -30.3200  -17.7590   19.2860 C   0  0  0  0  0  3  0  0  0  0  0  0
  -29.6420  -16.4580   19.7550 C   0  0  0  0  0  2  0  0  0  0  0  0
  -30.1270  -15.8700   21.1040 C   0  0  0  0  0  2  0  0  0  0  0  0
  -30.9310  -14.5830   20.8550 C   0  0  0  0  0  0  0  0  0  0  0  0
  -30.7170  -12.3680   19.8250 C   0  0  0  0  0  2  0  0  0  0  0  0
  -29.8710  -12.5320   18.5440 C   0  0  0  0  0  2  0  0  0  0  0  0
  -28.3630  -12.4230   18.8610 C   0  0  0  0  0  2  0  0  0  0  0  0
  -27.9340  -13.3050   20.0620 C   0  0  0  0  0  3  0  0  0  0  0  0
  -28.9080  -13.1350   21.2500 C   0  0  0  0  0  2  0  0  0  0  0  0
  -30.2790  -13.3940   20.7800 N   0  0  0  0  0  0  0  0  0  0  0  0
  -32.1090  -14.7220   20.5150 O   0  0  0  0  0  0  0  0  0  0  0  0
  -25.5110  -13.9690   20.6180 C   0  0  0  0  0  0  0  0  0  0  0  0
  -24.4060  -13.2190   20.9150 C   0  0  0  0  0  0  0  0  0  0  0  0
  -24.8430  -11.8580   20.9090 C   0  0  0  0  0  0  0  0  0  0  0  0
  -26.5500  -13.0650   20.4520 N   0  0  0  0  0  0  0  0  0  0  0  0
  -26.1480  -11.7910   20.6830 N   0  0  0  0  0  0  0  0  0  0  0  0
  -24.0860  -10.6100   21.0460 C   0  0  0  0  0  0  0  0  0  0  0  0
  -24.4540   -9.6240   21.9860 C   0  0  0  0  0  3  0  0  0  0  0  0
  -23.7010   -8.4370   22.1110 C   0  0  0  0  0  3  0  0  0  0  0  0
  -22.5640   -8.2310   21.2940 C   0  0  0  0  0  0  0  0  0  0  0  0
  -22.2150   -9.2060   20.3420 C   0  0  0  0  0  3  0  0  0  0  0  0
  -22.9700  -10.3830   20.2150 C   0  0  0  0  0  3  0  0  0  0  0  0
  -21.7860   -7.0980   21.3270 O   0  0  0  0  0  0  0  0  0  0  0  0
  -21.6810   -6.3320   22.4600 C   0  0  0  0  0  0  0  0  0  0  0  0
  -21.2150   -6.8660   23.6820 C   0  0  0  0  0  3  0  0  0  0  0  0
  -21.0580   -6.0260   24.8020 C   0  0  0  0  0  3  0  0  0  0  0  0
  -21.3570   -4.6550   24.7020 C   0  0  0  0  0  0  0  0  0  0  0  0
  -21.8170   -4.1210   23.4860 C   0  0  0  0  0  3  0  0  0  0  0  0
  -21.9770   -4.9570   22.3670 C   0  0  0  0  0  0  0  0  0  0  0  0
  -22.4000   -4.4340   21.1910 F   0  0  0  0  0  0  0  0  0  0  0  0
  -21.1970   -3.8460   25.7760 F   0  0  0  0  0  0  0  0  0  0  0  0
  -23.0040  -13.7220   21.0990 C   0  0  0  0  0  0  0  0  0  0  0  0
  -22.2130  -13.0410   21.9190 N   0  0  0  0  0  0  0  0  0  0  0  0
  -22.6170  -14.7530   20.5510 O   0  0  0  0  0  0  0  0  0  0  0  0
  -22.5360  -12.2050   22.3830 H   0  0  0  0  0  0  0  0  0  0  0  0
  -21.2690  -13.3590   22.0860 H   0  0  0  0  0  0  0  0  0  0  0  0
  -25.7120  -15.3370   20.4570 N   0  0  0  0  0  0  0  0  0  0  0  0
  -24.9500  -16.0040   20.5110 H   0  0  0  0  0  0  0  0  0  0  0  0
  -26.5880  -15.7570   20.1770 H   0  0  0  0  0  0  0  0  0  0  0  0
  -26.6240  -22.5410   19.7970 C   0  0  0  0  0  0  0  0  0  0  0  0
  -25.4240  -22.9710   18.9530 C   0  0  0  0  0  1  0  0  0  0  0  0
  -26.9320  -23.1170   20.8960 N   0  0  0  0  0  0  0  0  0  0  0  0
  -26.3750  -24.3890   21.3120 C   0  0  0  0  0  2  0  0  0  0  0  0
  -27.5500  -25.3350   21.6160 C   0  0  0  0  0  2  0  0  0  0  0  0
  -28.3920  -25.6920   20.3610 C   0  0  0  0  0  2  0  0  0  0  0  0
  -28.4650  -27.0960   20.1330 O   0  0  0  0  0  0  0  0  0  0  0  0
  -24.5150  -31.9790   23.3780 C   0  0  0  0  0  0  0  0  0  0  0  0
  -27.2680  -27.7670   20.1180 C   0  0  0  0  0  0  0  0  0  0  0  0
  -23.3480  -30.6450   21.6500 C   0  0  0  0  0  3  0  0  0  0  0  0
  -24.8410  -29.2010   20.1730 C   0  0  0  0  0  0  0  0  0  0  0  0
  -25.8660  -31.0600   21.5000 C   0  0  0  0  0  2  0  0  0  0  0  0
  -25.9800  -29.7270   20.7950 C   0  0  0  0  0  0  0  0  0  0  0  0
  -27.1970  -29.0180   20.7620 C   0  0  0  0  0  3  0  0  0  0  0  0
  -26.1130  -27.2430   19.4920 C   0  0  0  0  0  3  0  0  0  0  0  0
  -24.9010  -27.9560   19.5210 C   0  0  0  0  0  3  0  0  0  0  0  0
  -23.5830  -30.0340   20.2420 C   0  0  0  0  0  2  0  0  0  0  0  0
  -24.5940  -31.2390   22.2360 N   0  0  0  0  0  0  0  0  0  0  0  0
  -23.4240  -32.2080   23.9170 O   0  0  0  0  0  0  0  0  0  0  0  0
  -22.7010  -29.5680   22.5500 C   0  0  0  0  0  0  0  0  0  0  0  0
  -21.3810  -29.3750   22.3950 N   0  0  0  0  0  0  0  0  0  0  0  0
  -23.3830  -28.9090   23.3400 O   0  0  0  0  0  0  0  0  0  0  0  0
  -20.8930  -29.9640   21.7350 H   0  0  0  0  0  0  0  0  0  0  0  0
  -18.0090  -28.1500   22.8050 C   0  0  0  0  0  0  0  0  0  0  0  0
  -20.5650  -28.3910   23.1030 C   0  0  0  0  0  3  0  0  0  0  0  0
  -20.6720  -26.9970   22.4400 C   0  0  0  0  0  2  0  0  0  0  0  0
  -19.5730  -26.7340   21.4060 C   0  0  0  0  0  2  0  0  0  0  0  0
  -18.1890  -26.8420   22.0520 C   0  0  0  0  0  2  0  0  0  0  0  0
  -19.1260  -28.8840   23.2860 C   0  0  0  0  0  0  0  0  0  0  0  0
  -18.9050  -30.1080   23.9510 C   0  0  0  0  0  3  0  0  0  0  0  0
  -17.6000  -30.6000   24.1400 C   0  0  0  0  0  3  0  0  0  0  0  0
  -16.4970  -29.8620   23.6770 C   0  0  0  0  0  3  0  0  0  0  0  0
  -16.7030  -28.6380   23.0170 C   0  0  0  0  0  3  0  0  0  0  0  0
  -25.7850  -32.5910   24.0450 C   0  0  0  0  0  3  0  0  0  0  0  0
  -26.2360  -31.8250   25.3490 C   0  0  1  0  0  0  0  0  0  0  0  0
  -25.0950  -31.6120   26.3710 C   0  0  0  0  0  1  0  0  0  0  0  0
  -26.8140  -30.4360   24.9900 C   0  0  0  0  0  1  0  0  0  0  0  0
  -27.3720  -32.6040   26.0500 C   0  0  0  0  0  1  0  0  0  0  0  0
  -25.4930  -33.9990   24.3450 N   0  0  0  0  0  0  0  0  0  0  0  0
  -25.8750  -35.0330   23.5840 C   0  0  0  0  0  0  0  0  0  0  0  0
  -26.5830  -34.9020   22.5810 O   0  0  0  0  0  0  0  0  0  0  0  0
  -24.8720  -34.1760   25.1210 H   0  0  0  0  0  0  0  0  0  0  0  0
  -24.1900  -36.8450   23.1350 C   0  0  0  0  0  1  0  0  0  0  0  0
  -25.3930  -36.4360   24.0000 C   0  0  0  0  0  3  0  0  0  0  0  0
  -27.5090  -37.3000   24.8970 C   0  0  0  0  0  1  0  0  0  0  0  0
  -26.4480  -37.4700   23.9080 N   0  0  0  0  0  0  0  0  0  0  0  0
  -26.0530  -38.4000   24.0230 H   0  0  0  0  0  0  0  0  0  0  0  0
  -26.2140  -19.4650   18.2610 C   0  0  0  0  0  1  0  0  0  0  0  0
  -27.1090  -20.6960   18.0140 C   0  0  0  0  0  2  0  0  0  0  0  0
  2 46  1  0
  2  1  2  0
  4  3  2  0
  4  1  1  0
  5  4  1  0
  7  6  1  0
  7  3  1  0
  7  8  1  0
  8  9  1  0
 10  9  1  0
 11 16  1  0
 12 13  1  0
 12 11  1  0
 14 13  1  0
 14 21  1  0
 14 15  1  0
 16 10  1  0
 16 15  1  0
 17 10  2  0
 18 19  2  0
 19 38  1  0
 20 19  1  0
 20 23  1  0
 21 18  1  0
 21 22  1  0
 22 20  2  0
 23 24  1  0
 24 25  2  0
 26 29  1  0
 26 25  1  0
 27 26  2  0
 28 27  1  0
 28 23  2  0
 29 30  1  0
 30 31  1  0
 31 32  2  0
 33 32  1  0
 33 37  1  0
 34 33  2  0
 35 30  2  0
 35 34  1  0
 36 35  1  0
 38 39  1  0
 39 42  1  0
 39 41  1  0
 40 38  2  0
 43 44  1  0
 43 18  1  0
 45 43  1  0
 46 48  2  0
 47 46  1  0
 48 49  1  0
 49 50  1  0
 51 50  1  0
 52 51  1  0
 53 64  2  0
 54 52  1  0
 54 59  1  0
 55 63  1  0
 55 65  1  0
 56 62  1  0
 56 58  1  0
 57 63  1  0
 58 57  1  0
 59 58  2  0
 60 61  1  0
 60 54  2  0
 61 56  2  0
 62 55  1  0
 63 53  1  0
 65 67  2  0
 66 65  1  0
 68 66  1  0
 69 78  2  0
 69 74  1  0
 70 66  1  0
 70 74  1  0
 71 70  1  0
 72 73  1  0
 72 71  1  0
 73 69  1  0
 74 75  2  0
 75 76  1  0
 77 76  2  0
 78 77  1  0
 79 53  1  0
 79 84  1  0
 79 80  1  0
 80 83  1  1
 80 81  1  0
 82 80  1  0
 84 87  1  0
 85 89  1  0
 85 84  1  0
 86 85  2  0
 89 88  1  0
 91 89  1  0
 91 92  1  0
 91 90  1  0
 94 93  1  0
 94  2  1  0
M  ISO  4   9 100  10 100  51 101  52 101
M  END
>  <TORSDO>  (30) 
F 25

>  <SCORE>  (30) 
-11.860

>  <name>  (30) 
29

>  <ligand_id>  (30) 
29

>  <original_smiles>  (30) 
[H]C(C(=C([H])C([H])(C([H])([H])[H])C([H])([H])C([H])([H])C(=O)N1C([H])([H])C([H])([H])C([H])([H])C([H])(n2nc(-c3c([H])c([H])c(Oc4c([H])c([H])c(F)c([H])c4F)c([H])c3[H])c(C(=O)N([H])[H])c2N([H])[H])C1([H])[H])C([H])([H])[H])=C(C(=NC([H])([H])C([H])([H])C([H])([H])Oc1c([H])c([H])c2c(c1[H])C([H])([H])N(C(=O)C([H])(N([H])C(=O)C([H])(N([H])C([H])([H])[H])C([H])([H])[H])C(C([H])([H])[H])(C([H])([H])[H])C([H])([H])[H])C([H])(C(=O)N([H])C1([H])c3c([H])c([H])c([H])c([H])c3C([H])([H])C([H])([H])C1([H])[H])C2([H])[H])C([H])([H])[H])C([H])([H])C([H])([H])[H]

>  <smiles>  (30) 
[H]C(C(=C([H])C([H])(C([H])([H])[H])C([H])([H])C([H])([H])C(=O)N1C([H])([H])C([H])([H])C([H])([H])C([H])(n2nc(-c3c([H])c([H])c(Oc4c([H])c([H])c(F)c([H])c4F)c([H])c3[H])c(C(=O)N([H])[H])c2N([H])[H])C1([H])[H])C([H])([H])[H])=C(C(=NC([H])([H])C([H])([H])C([H])([H])Oc1c([H])c([H])c2c(c1[H])C([H])([H])N(C(=O)C([H])(N([H])C(=O)C([H])(N([H])C([H])([H])[H])C([H])([H])[H])C(C([H])([H])[H])(C([H])([H])[H])C([H])([H])[H])C([H])(C(=O)N([H])C1([H])c3c([H])c([H])c([H])c([H])c3C([H])([H])C([H])([H])C1([H])[H])C2([H])[H])C([H])([H])[H])C([H])([H])C([H])([H])[H]

$$$$
30:0:0
     RDKit          3D

 89 98  0  0  1  0  0  0  0  0999 V2000
  -28.8230  -19.8310   19.1610 C   0  0  0  0  0  3  0  0  0  0  0  0
  -28.4690  -21.2940   19.0430 C   0  0  0  0  0  3  0  0  0  0  0  0
  -30.6780  -20.0210   22.3530 C   0  0  0  0  0  3  0  0  0  0  0  0
  -29.9370  -20.2250   21.1250 C   0  0  0  0  0  0  0  0  0  0  0  0
  -29.5800  -19.1060   20.1990 C   0  0  0  0  0  0  0  0  0  0  0  0
  -28.7680  -22.4230   19.9420 C   0  0  0  0  0  0  0  0  0  0  0  0
  -29.5500  -21.7300   20.9920 C   0  0  0  0  0  0  0  0  0  0  0  0
  -30.8570  -21.1630   23.0940 C   0  0  0  0  0  0  0  0  0  0  0  0
  -31.5730  -21.2610   24.4020 C   0  0  0  0  0  1  0  0  0  0  0  0
  -30.1510  -22.5940   22.4030 S   0  0  0  0  0  0  0  0  0  0  0  0
  -29.6460  -17.2950   20.5170 C   0  0  0  0  0  2  0  0  0  0  0  0
  -30.5770  -15.7280   20.2930 C   0  0  0  0  0  0  0  0  0  0  0  0
  -30.6970  -13.2050   19.4680 C   0  0  0  0  0  2  0  0  0  0  0  0
  -29.7910  -12.8910   18.2410 C   0  0  0  0  0  2  0  0  0  0  0  0
  -28.3490  -12.5730   18.6740 C   0  0  0  0  0  2  0  0  0  0  0  0
  -27.8600  -13.5520   19.7670 C   0  0  0  0  0  3  0  0  0  0  0  0
  -28.8950  -13.7770   20.8910 C   0  0  0  0  0  2  0  0  0  0  0  0
  -30.1070  -14.3550   20.2730 N   0  0  0  0  0  0  0  0  0  0  0  0
  -31.7970  -15.7350   20.0410 O   0  0  0  0  0  0  0  0  0  0  0  0
  -25.4940  -14.0880   20.5390 C   0  0  0  0  0  0  0  0  0  0  0  0
  -24.4320  -13.3070   20.8970 C   0  0  0  0  0  0  0  0  0  0  0  0
  -24.8990  -11.9580   20.8480 C   0  0  0  0  0  0  0  0  0  0  0  0
  -26.5360  -13.2170   20.2800 N   0  0  0  0  0  0  0  0  0  0  0  0
  -26.1910  -11.9270   20.5340 N   0  0  0  0  0  0  0  0  0  0  0  0
  -24.1690  -10.6950   21.0230 C   0  0  0  0  0  0  0  0  0  0  0  0
  -24.5640   -9.7350   21.9800 C   0  0  0  0  0  3  0  0  0  0  0  0
  -23.8300   -8.5400   22.1440 C   0  0  0  0  0  3  0  0  0  0  0  0
  -22.6860   -8.2950   21.3500 C   0  0  0  0  0  0  0  0  0  0  0  0
  -22.3080   -9.2430   20.3830 C   0  0  0  0  0  3  0  0  0  0  0  0
  -23.0430  -10.4300   20.2170 C   0  0  0  0  0  3  0  0  0  0  0  0
  -21.9270   -7.1510   21.4210 O   0  0  0  0  0  0  0  0  0  0  0  0
  -21.7660   -6.4660   22.5980 C   0  0  0  0  0  0  0  0  0  0  0  0
  -21.2180   -7.0780   23.7460 C   0  0  0  0  0  3  0  0  0  0  0  0
  -21.0060   -6.3170   24.9140 C   0  0  0  0  0  3  0  0  0  0  0  0
  -21.3290   -4.9480   24.9320 C   0  0  0  0  0  0  0  0  0  0  0  0
  -21.8700   -4.3360   23.7870 C   0  0  0  0  0  3  0  0  0  0  0  0
  -22.0840   -5.0930   22.6230 C   0  0  0  0  0  0  0  0  0  0  0  0
  -22.5840   -4.4940   21.5160 F   0  0  0  0  0  0  0  0  0  0  0  0
  -21.1200   -4.2160   26.0520 F   0  0  0  0  0  0  0  0  0  0  0  0
  -23.0360  -13.7840   21.1690 C   0  0  0  0  0  0  0  0  0  0  0  0
  -22.3060  -13.0880   22.0320 N   0  0  0  0  0  0  0  0  0  0  0  0
  -22.6010  -14.8120   20.6500 O   0  0  0  0  0  0  0  0  0  0  0  0
  -22.6730  -12.2560   22.4720 H   0  0  0  0  0  0  0  0  0  0  0  0
  -21.3690  -13.3880   22.2550 H   0  0  0  0  0  0  0  0  0  0  0  0
  -25.6560  -15.4610   20.3800 N   0  0  0  0  0  0  0  0  0  0  0  0
  -24.8890  -16.1120   20.5090 H   0  0  0  0  0  0  0  0  0  0  0  0
  -26.5070  -15.9100   20.0660 H   0  0  0  0  0  0  0  0  0  0  0  0
  -27.9690  -24.0790   19.8870 C   0  0  0  0  0  2  0  0  0  0  0  0
  -28.2900  -25.7670   19.9340 O   0  0  0  0  0  0  0  0  0  0  0  0
  -24.7180  -31.8130   23.1060 C   0  0  0  0  0  0  0  0  0  0  0  0
  -27.3030  -26.9440   19.9220 C   0  0  0  0  0  0  0  0  0  0  0  0
  -23.5370  -30.4620   21.4240 C   0  0  0  0  0  3  0  0  0  0  0  0
  -24.9990  -28.8990   19.9470 C   0  0  0  0  0  0  0  0  0  0  0  0
  -26.1100  -30.6650   21.2890 C   0  0  0  0  0  2  0  0  0  0  0  0
  -26.1910  -29.2640   20.5840 C   0  0  0  0  0  0  0  0  0  0  0  0
  -27.3310  -28.3140   20.5420 C   0  0  0  0  0  3  0  0  0  0  0  0
  -26.0720  -26.7730   19.2400 C   0  0  0  0  0  3  0  0  0  0  0  0
  -24.9740  -27.6790   19.2530 C   0  0  0  0  0  3  0  0  0  0  0  0
  -23.7760  -29.8220   20.0270 C   0  0  0  0  0  2  0  0  0  0  0  0
  -24.8120  -31.0090   21.9940 N   0  0  0  0  0  0  0  0  0  0  0  0
  -23.6250  -32.0760   23.6350 O   0  0  0  0  0  0  0  0  0  0  0  0
  -22.8430  -29.4360   22.3600 C   0  0  0  0  0  0  0  0  0  0  0  0
  -21.5080  -29.2890   22.2540 N   0  0  0  0  0  0  0  0  0  0  0  0
  -23.5160  -28.7730   23.1510 O   0  0  0  0  0  0  0  0  0  0  0  0
  -21.0160  -29.8740   21.5940 H   0  0  0  0  0  0  0  0  0  0  0  0
  -18.1240  -28.0840   22.7960 C   0  0  0  0  0  0  0  0  0  0  0  0
  -20.6950  -28.3200   22.9990 C   0  0  0  0  0  3  0  0  0  0  0  0
  -20.7660  -26.9190   22.3490 C   0  0  0  0  0  2  0  0  0  0  0  0
  -19.6330  -26.6590   21.3510 C   0  0  0  0  0  2  0  0  0  0  0  0
  -18.2720  -26.7750   22.0410 C   0  0  0  0  0  2  0  0  0  0  0  0
  -19.2600  -28.8180   23.2320 C   0  0  0  0  0  0  0  0  0  0  0  0
  -19.0640  -30.0440   23.9060 C   0  0  0  0  0  3  0  0  0  0  0  0
  -17.7670  -30.5370   24.1430 C   0  0  0  0  0  3  0  0  0  0  0  0
  -16.6460  -29.8000   23.7190 C   0  0  0  0  0  3  0  0  0  0  0  0
  -16.8270  -28.5760   23.0510 C   0  0  0  0  0  3  0  0  0  0  0  0
  -25.9790  -32.4520   23.7620 C   0  0  0  0  0  3  0  0  0  0  0  0
  -25.6410  -33.8320   24.1600 N   0  0  0  0  0  0  0  0  0  0  0  0
  -25.9440  -34.9320   23.4570 C   0  0  0  0  0  0  0  0  0  0  0  0
  -26.5980  -34.8930   22.4130 O   0  0  0  0  0  0  0  0  0  0  0  0
  -25.0570  -33.9350   24.9760 H   0  0  0  0  0  0  0  0  0  0  0  0
  -24.1760  -36.7140   23.2420 C   0  0  0  0  0  1  0  0  0  0  0  0
  -25.4470  -36.2900   23.9970 C   0  0  0  0  0  3  0  0  0  0  0  0
  -27.5870  -37.1800   24.8110 C   0  0  0  0  0  1  0  0  0  0  0  0
  -26.4560  -37.3690   23.9060 N   0  0  0  0  0  0  0  0  0  0  0  0
  -26.0360  -38.2720   24.1100 H   0  0  0  0  0  0  0  0  0  0  0  0
  -26.4970  -31.6450   25.0170 C   0  0  1  0  0  0  0  0  0  0  0  0
  -25.4070  -31.3730   26.0790 C   0  0  0  0  0  1  0  0  0  0  0  0
  -27.0870  -30.2790   24.5940 C   0  0  0  0  0  1  0  0  0  0  0  0
  -27.6450  -32.4240   25.7030 C   0  0  0  0  0  1  0  0  0  0  0  0
  1  5  1  0
  2  1  2  0
  2  6  1  0
  3  8  2  0
  4  3  1  0
  5 11  1  0
  5  4  2  0
  6  7  2  0
  7  4  1  0
  7 10  1  0
  8  9  1  0
 10  8  1  0
 12 11  1  0
 13 18  1  0
 14 15  1  0
 14 13  1  0
 16 15  1  0
 16 23  1  0
 16 17  1  0
 18 12  1  0
 18 17  1  0
 19 12  2  0
 20 21  2  0
 21 40  1  0
 22 21  1  0
 22 25  1  0
 23 24  1  0
 23 20  1  0
 24 22  2  0
 25 26  1  0
 26 27  2  0
 28 31  1  0
 28 27  1  0
 29 28  2  0
 30 29  1  0
 30 25  2  0
 31 32  1  0
 32 37  2  0
 32 33  1  0
 33 34  2  0
 34 35  1  0
 35 39  1  0
 36 35  2  0
 37 36  1  0
 38 37  1  0
 40 41  1  0
 41 44  1  0
 41 43  1  0
 42 40  2  0
 45 46  1  0
 45 20  1  0
 47 45  1  0
 48 49  1  0
 48  6  1  0
 50 61  2  0
 51 49  1  0
 51 56  1  0
 52 60  1  0
 52 62  1  0
 53 59  1  0
 53 55  1  0
 54 60  1  0
 55 54  1  0
 56 55  2  0
 57 58  1  0
 57 51  2  0
 58 53  2  0
 59 52  1  0
 60 50  1  0
 62 64  2  0
 63 62  1  0
 65 63  1  0
 66 75  2  0
 66 71  1  0
 67 63  1  0
 67 71  1  0
 68 67  1  0
 69 70  1  0
 69 68  1  0
 70 66  1  0
 71 72  2  0
 72 73  1  0
 74 73  2  0
 75 74  1  0
 76 50  1  0
 76 77  1  0
 76 86  1  0
 77 80  1  0
 78 82  1  0
 78 77  1  0
 79 78  2  0
 82 81  1  0
 84 82  1  0
 84 85  1  0
 84 83  1  0
 86 89  1  1
 86 87  1  0
 88 86  1  0
M  ISO  4  11 100  12 100  48 101  49 101
M  END
>  <TORSDO>  (31) 
F 18

>  <SCORE>  (31) 
-16.972

>  <name>  (31) 
30

>  <ligand_id>  (31) 
30

>  <original_smiles>  (31) 
[H]c1c([H])c([H])c2c(c1[H])C([H])([H])C([H])([H])C([H])([H])C2([H])N([H])C(=O)C1([H])N(C(=O)C([H])(N([H])C(=O)C([H])(N([H])C([H])([H])[H])C([H])([H])[H])C(C([H])([H])[H])(C([H])([H])[H])C([H])([H])[H])C([H])([H])c2c([H])c(OC([H])([H])c3c([H])c([H])c(C([H])([H])C(=O)N4C([H])([H])C([H])([H])C([H])([H])C([H])(n5nc(-c6c([H])c([H])c(Oc7c([H])c([H])c(F)c([H])c7F)c([H])c6[H])c(C(=O)N([H])[H])c5N([H])[H])C4([H])[H])c4c([H])c(C([H])([H])[H])sc34)c([H])c([H])c2C1([H])[H]

>  <smiles>  (31) 
[H]c1c([H])c([H])c2c(c1[H])C([H])([H])C([H])([H])C([H])([H])C2([H])N([H])C(=O)C1([H])N(C(=O)C([H])(N([H])C(=O)C([H])(N([H])C([H])([H])[H])C([H])([H])[H])C(C([H])([H])[H])(C([H])([H])[H])C([H])([H])[H])C([H])([H])c2c([H])c(OC([H])([H])c3c([H])c([H])c(C([H])([H])C(=O)N4C([H])([H])C([H])([H])C([H])([H])C([H])(n5nc(-c6c([H])c([H])c(Oc7c([H])c([H])c(F)c([H])c7F)c([H])c6[H])c(C(=O)N([H])[H])c5N([H])[H])C4([H])[H])c4c([H])c(C([H])([H])[H])sc34)c([H])c([H])c2C1([H])[H]

$$$$
31:0:0
     RDKit          3D

 90 99  0  0  1  0  0  0  0  0999 V2000
  -26.0890  -22.7950   20.2300 C   0  0  0  0  0  2  0  0  0  0  0  0
  -27.0720  -23.7250   20.9650 C   0  0  0  0  0  2  0  0  0  0  0  0
  -26.9290  -21.7700   19.4440 C   0  0  0  0  0  2  0  0  0  0  0  0
  -28.4870  -21.1390   21.3290 C   0  0  0  0  0  2  0  0  0  0  0  0
  -28.7400  -19.6040   21.1330 C   0  0  0  0  0  2  0  0  0  0  0  0
  -29.3770  -20.8220   19.2200 C   0  0  0  0  0  2  0  0  0  0  0  0
  -28.4120  -23.5950   20.2120 C   0  0  0  0  0  3  0  0  0  0  0  0
  -28.3720  -21.8990   19.9630 C   0  0  1  0  0  0  0  0  0  0  0  0
  -29.1400  -19.3600   19.7330 N   0  0  1  0  0  4  0  0  0  0  0  0
  -28.2850  -19.1010   19.2630 H   0  0  0  0  0  0  0  0  0  0  0  0
  -28.3170  -24.9130   19.1810 C   0  0  0  0  0  2  0  0  0  0  0  0
  -28.3050  -26.4110   19.6090 O   0  0  0  0  0  0  0  0  0  0  0  0
  -24.6540  -31.7950   23.0130 C   0  0  0  0  0  0  0  0  0  0  0  0
  -27.1930  -27.3240   19.6150 C   0  0  0  0  0  0  0  0  0  0  0  0
  -23.4070  -30.4600   21.3550 C   0  0  0  0  0  3  0  0  0  0  0  0
  -24.8210  -28.9950   19.7820 C   0  0  0  0  0  0  0  0  0  0  0  0
  -25.9410  -30.7970   21.0890 C   0  0  0  0  0  2  0  0  0  0  0  0
  -26.0120  -29.4420   20.3640 C   0  0  0  0  0  0  0  0  0  0  0  0
  -27.1940  -28.6190   20.2690 C   0  0  0  0  0  3  0  0  0  0  0  0
  -25.9740  -26.9740   18.9980 C   0  0  0  0  0  3  0  0  0  0  0  0
  -24.8130  -27.7770   19.0830 C   0  0  0  0  0  3  0  0  0  0  0  0
  -23.5770  -29.8540   19.9350 C   0  0  0  0  0  2  0  0  0  0  0  0
  -24.6900  -31.0370   21.8750 N   0  0  0  0  0  0  0  0  0  0  0  0
  -23.5870  -32.0250   23.6040 O   0  0  0  0  0  0  0  0  0  0  0  0
  -22.7960  -29.3890   22.2920 C   0  0  0  0  0  0  0  0  0  0  0  0
  -21.4710  -29.1860   22.2050 N   0  0  0  0  0  0  0  0  0  0  0  0
  -23.5160  -28.7460   23.0600 O   0  0  0  0  0  0  0  0  0  0  0  0
  -20.9440  -29.7620   21.5630 H   0  0  0  0  0  0  0  0  0  0  0  0
  -18.1510  -27.8360   22.7350 C   0  0  0  0  0  0  0  0  0  0  0  0
  -20.7040  -28.1890   22.9560 C   0  0  0  0  0  3  0  0  0  0  0  0
  -20.8490  -26.7840   22.3280 C   0  0  0  0  0  2  0  0  0  0  0  0
  -19.7360  -26.4530   21.3280 C   0  0  0  0  0  2  0  0  0  0  0  0
  -18.3640  -26.5220   22.0040 C   0  0  0  0  0  2  0  0  0  0  0  0
  -19.2500  -28.6260   23.1680 C   0  0  0  0  0  0  0  0  0  0  0  0
  -18.9960  -29.8550   23.8150 C   0  0  0  0  0  3  0  0  0  0  0  0
  -17.6760  -30.2990   24.0280 C   0  0  0  0  0  3  0  0  0  0  0  0
  -16.5940  -29.5070   23.6090 C   0  0  0  0  0  3  0  0  0  0  0  0
  -16.8320  -28.2760   22.9700 C   0  0  0  0  0  3  0  0  0  0  0  0
  -25.9460  -32.4250   23.6160 C   0  0  0  0  0  3  0  0  0  0  0  0
  -26.5250  -31.6010   24.8320 C   0  0  1  0  0  0  0  0  0  0  0  0
  -25.4810  -31.3050   25.9350 C   0  0  0  0  0  1  0  0  0  0  0  0
  -27.1060  -30.2480   24.3550 C   0  0  0  0  0  1  0  0  0  0  0  0
  -27.6940  -32.3790   25.4820 C   0  0  0  0  0  1  0  0  0  0  0  0
  -25.6210  -33.7970   24.0360 N   0  0  0  0  0  0  0  0  0  0  0  0
  -25.9140  -34.9000   23.3350 C   0  0  0  0  0  0  0  0  0  0  0  0
  -26.5540  -34.8690   22.2800 O   0  0  0  0  0  0  0  0  0  0  0  0
  -25.0490  -33.8940   24.8620 H   0  0  0  0  0  0  0  0  0  0  0  0
  -24.1530  -36.6860   23.1410 C   0  0  0  0  0  1  0  0  0  0  0  0
  -25.4220  -36.2500   23.8890 C   0  0  0  0  0  3  0  0  0  0  0  0
  -27.5660  -37.1220   24.7150 C   0  0  0  0  0  1  0  0  0  0  0  0
  -26.4370  -37.3250   23.8120 N   0  0  0  0  0  0  0  0  0  0  0  0
  -26.0190  -38.2270   24.0220 H   0  0  0  0  0  0  0  0  0  0  0  0
  -30.1090  -18.1190   19.4910 C   0  0  0  0  0  3  0  0  0  0  0  0
  -29.7700  -16.5510   20.0160 C   0  0  0  0  0  3  0  0  0  0  0  0
  -30.6820  -15.1790   19.7740 C   0  0  0  0  0  0  0  0  0  0  0  0
  -30.6270  -12.7810   18.9490 C   0  0  0  0  0  2  0  0  0  0  0  0
  -29.6260  -12.6660   17.7760 C   0  0  0  0  0  2  0  0  0  0  0  0
  -28.1910  -12.4390   18.2900 C   0  0  0  0  0  2  0  0  0  0  0  0
  -27.8240  -13.4000   19.4490 C   0  0  0  0  0  3  0  0  0  0  0  0
  -28.9350  -13.4780   20.5150 C   0  0  0  0  0  2  0  0  0  0  0  0
  -30.1710  -13.8850   19.8390 N   0  0  0  0  0  0  0  0  0  0  0  0
  -31.8530  -15.2900   19.3920 O   0  0  0  0  0  0  0  0  0  0  0  0
  -25.5130  -13.9680   20.3910 C   0  0  0  0  0  0  0  0  0  0  0  0
  -24.4730  -13.1850   20.8100 C   0  0  0  0  0  0  0  0  0  0  0  0
  -24.9210  -11.8330   20.6890 C   0  0  0  0  0  0  0  0  0  0  0  0
  -26.5260  -13.0920   20.0350 N   0  0  0  0  0  0  0  0  0  0  0  0
  -26.1840  -11.8010   20.2800 N   0  0  0  0  0  0  0  0  0  0  0  0
  -24.1990  -10.5680   20.8830 C   0  0  0  0  0  0  0  0  0  0  0  0
  -24.6210   -9.6160   21.8370 C   0  0  0  0  0  3  0  0  0  0  0  0
  -23.9000   -8.4160   22.0170 C   0  0  0  0  0  3  0  0  0  0  0  0
  -22.7410   -8.1620   21.2450 C   0  0  0  0  0  0  0  0  0  0  0  0
  -22.3390   -9.1030   20.2810 C   0  0  0  0  0  3  0  0  0  0  0  0
  -23.0610  -10.2940   20.0990 C   0  0  0  0  0  3  0  0  0  0  0  0
  -21.9900   -7.0140   21.3360 O   0  0  0  0  0  0  0  0  0  0  0  0
  -21.8260   -6.3530   22.5270 C   0  0  0  0  0  0  0  0  0  0  0  0
  -21.2610   -6.9830   23.6570 C   0  0  0  0  0  3  0  0  0  0  0  0
  -21.0480   -6.2470   24.8390 C   0  0  0  0  0  3  0  0  0  0  0  0
  -21.3880   -4.8820   24.8920 C   0  0  0  0  0  0  0  0  0  0  0  0
  -21.9450   -4.2510   23.7650 C   0  0  0  0  0  3  0  0  0  0  0  0
  -22.1610   -4.9850   22.5850 C   0  0  0  0  0  0  0  0  0  0  0  0
  -22.6790   -4.3680   21.4960 F   0  0  0  0  0  0  0  0  0  0  0  0
  -21.1750   -4.1740   26.0240 F   0  0  0  0  0  0  0  0  0  0  0  0
  -23.1030  -13.6590   21.2010 C   0  0  0  0  0  0  0  0  0  0  0  0
  -22.4360  -12.9390   22.0960 N   0  0  0  0  0  0  0  0  0  0  0  0
  -22.6370  -14.7020   20.7470 O   0  0  0  0  0  0  0  0  0  0  0  0
  -22.8270  -12.0940   22.4860 H   0  0  0  0  0  0  0  0  0  0  0  0
  -21.5200  -13.2390   22.3960 H   0  0  0  0  0  0  0  0  0  0  0  0
  -25.6780  -15.3440   20.2570 N   0  0  0  0  0  0  0  0  0  0  0  0
  -24.9280  -16.0000   20.4500 H   0  0  0  0  0  0  0  0  0  0  0  0
  -26.5010  -15.7860   19.8670 H   0  0  0  0  0  0  0  0  0  0  0  0
  1  2  1  0
  8  3  1  6
  3  1  1  0
  5  4  1  0
  6  9  1  0
  7 11  1  0
  7  2  1  0
  8  6  1  0
  8  7  1  0
  8  4  1  0
  9  5  1  0
  9 10  1  6
 11 12  1  0
 12 14  1  0
 13 24  2  0
 14 19  1  0
 15 23  1  0
 15 25  1  0
 16 22  1  0
 16 18  1  0
 17 23  1  0
 18 17  1  0
 19 18  2  0
 20 21  1  0
 20 14  2  0
 21 16  2  0
 22 15  1  0
 23 13  1  0
 25 27  2  0
 26 25  1  0
 28 26  1  0
 29 38  2  0
 29 34  1  0
 30 26  1  0
 30 34  1  0
 31 30  1  0
 32 33  1  0
 32 31  1  0
 33 29  1  0
 34 35  2  0
 35 36  1  0
 37 36  2  0
 38 37  1  0
 39 13  1  0
 39 44  1  0
 39 40  1  0
 40 43  1  1
 40 41  1  0
 42 40  1  0
 44 47  1  0
 45 49  1  0
 45 44  1  0
 46 45  2  0
 49 48  1  0
 51 49  1  0
 51 52  1  0
 51 50  1  0
 53  9  1  0
 53 54  2  0
 55 61  1  0
 55 54  1  0
 56 61  1  0
 57 58  1  0
 57 56  1  0
 59 58  1  0
 59 66  1  0
 59 60  1  0
 61 60  1  0
 62 55  2  0
 63 64  2  0
 64 83  1  0
 65 64  1  0
 65 68  1  0
 66 67  1  0
 66 63  1  0
 67 65  2  0
 68 69  1  0
 69 70  2  0
 71 74  1  0
 71 70  1  0
 72 71  2  0
 73 72  1  0
 73 68  2  0
 74 75  1  0
 75 80  2  0
 75 76  1  0
 76 77  2  0
 77 78  1  0
 78 82  1  0
 79 78  2  0
 80 79  1  0
 81 80  1  0
 83 84  1  0
 84 87  1  0
 84 86  1  0
 85 83  2  0
 88 63  1  0
 88 89  1  0
 90 88  1  0
M  ISO  4  11 101  12 101  54 100  55 100
M  END
>  <TORSDO>  (32) 
F 19

>  <SCORE>  (32) 
-12.941

>  <name>  (32) 
31

>  <ligand_id>  (32) 
31

>  <original_smiles>  (32) 
[H]c1c([H])c([H])c2c(c1[H])C([H])([H])C([H])([H])C([H])([H])C2([H])N([H])C(=O)C1([H])N(C(=O)C([H])(N([H])C(=O)C([H])(N([H])C([H])([H])[H])C([H])([H])[H])C(C([H])([H])[H])(C([H])([H])[H])C([H])([H])[H])C([H])([H])c2c([H])c(OC([H])([H])C3([H])C([H])([H])C([H])([H])C([H])([H])C34C([H])([H])C([H])([H])[N+]([H])(C([H])([H])C([H])([H])C(=O)N3C([H])([H])C([H])([H])C([H])([H])C([H])(n5nc(-c6c([H])c([H])c(Oc7c([H])c([H])c(F)c([H])c7F)c([H])c6[H])c(C(=O)N([H])[H])c5N([H])[H])C3([H])[H])C4([H])[H])c([H])c([H])c2C1([H])[H]

>  <smiles>  (32) 
[H]c1c([H])c([H])c2c(c1[H])C([H])([H])C([H])([H])C([H])([H])C2([H])N([H])C(=O)C1([H])N(C(=O)C([H])(N([H])C(=O)C([H])(N([H])C([H])([H])[H])C([H])([H])[H])C(C([H])([H])[H])(C([H])([H])[H])C([H])([H])[H])C([H])([H])c2c([H])c(OC([H])([H])C3([H])C([H])([H])C([H])([H])C([H])([H])C34C([H])([H])C([H])([H])[N+]([H])(C([H])([H])C([H])([H])C(=O)N3C([H])([H])C([H])([H])C([H])([H])C([H])(n5nc(-c6c([H])c([H])c(Oc7c([H])c([H])c(F)c([H])c7F)c([H])c6[H])c(C(=O)N([H])[H])c5N([H])[H])C3([H])[H])C4([H])[H])c([H])c([H])c2C1([H])[H]

$$$$
32:0:0
     RDKit          3D

 88 97  0  0  1  0  0  0  0  0999 V2000
  -30.1960  -21.7810   23.8940 C   0  0  0  0  0  2  0  0  0  0  0  0
  -31.3950  -21.3130   23.0480 C   0  0  0  0  0  2  0  0  0  0  0  0
  -29.1380  -22.2930   22.9000 C   0  0  0  0  0  2  0  0  0  0  0  0
  -30.3150  -19.5470   21.5860 C   0  0  0  0  0  2  0  0  0  0  0  0
  -28.5740  -20.5720   20.0740 C   0  0  0  0  0  2  0  0  0  0  0  0
  -30.8310  -21.0490   21.6430 C   0  0  0  0  0  3  0  0  0  0  0  0
  -29.8350  -22.2710   21.5370 C   0  0  0  0  0  3  0  0  0  0  0  0
  -29.6320  -19.0760   20.2780 C   0  0  0  0  0  3  0  0  0  0  0  0
  -28.9120  -22.3740   20.2930 C   0  0  0  0  0  3  0  0  0  0  0  0
  -29.3760  -17.1930   20.2660 C   0  0  0  0  0  2  0  0  0  0  0  0
  -30.2890  -15.6010   20.1580 C   0  0  0  0  0  0  0  0  0  0  0  0
  -30.4030  -13.0880   19.3220 C   0  0  0  0  0  2  0  0  0  0  0  0
  -29.4800  -12.7720   18.1090 C   0  0  0  0  0  2  0  0  0  0  0  0
  -28.0480  -12.4450   18.5640 C   0  0  0  0  0  2  0  0  0  0  0  0
  -27.5710  -13.4120   19.6730 C   0  0  0  0  0  3  0  0  0  0  0  0
  -28.6220  -13.6420   20.7780 C   0  0  0  0  0  2  0  0  0  0  0  0
  -29.8170  -14.2310   20.1380 N   0  0  0  0  0  0  0  0  0  0  0  0
  -31.5120  -15.6000   19.9290 O   0  0  0  0  0  0  0  0  0  0  0  0
  -25.2120  -13.9170   20.4780 C   0  0  0  0  0  0  0  0  0  0  0  0
  -24.1670  -13.1220   20.8560 C   0  0  0  0  0  0  0  0  0  0  0  0
  -24.6530  -11.7780   20.8070 C   0  0  0  0  0  0  0  0  0  0  0  0
  -26.2620  -13.0590   20.2080 N   0  0  0  0  0  0  0  0  0  0  0  0
  -25.9410  -11.7660   20.4750 N   0  0  0  0  0  0  0  0  0  0  0  0
  -23.9440  -10.5040   20.9990 C   0  0  0  0  0  0  0  0  0  0  0  0
  -24.3860   -9.5450   21.9370 C   0  0  0  0  0  3  0  0  0  0  0  0
  -23.6740   -8.3400   22.1190 C   0  0  0  0  0  3  0  0  0  0  0  0
  -22.5040   -8.0850   21.3610 C   0  0  0  0  0  0  0  0  0  0  0  0
  -22.0830   -9.0330   20.4140 C   0  0  0  0  0  3  0  0  0  0  0  0
  -22.7960  -10.2290   20.2300 C   0  0  0  0  0  3  0  0  0  0  0  0
  -21.7640   -6.9310   21.4520 O   0  0  0  0  0  0  0  0  0  0  0  0
  -21.7020   -6.2030   22.6140 C   0  0  0  0  0  0  0  0  0  0  0  0
  -21.2370   -6.7680   23.8220 C   0  0  0  0  0  3  0  0  0  0  0  0
  -21.1240   -5.9650   24.9750 C   0  0  0  0  0  3  0  0  0  0  0  0
  -21.4660   -4.6010   24.9210 C   0  0  0  0  0  0  0  0  0  0  0  0
  -21.9220   -4.0360   23.7170 C   0  0  0  0  0  3  0  0  0  0  0  0
  -22.0370   -4.8350   22.5660 C   0  0  0  0  0  0  0  0  0  0  0  0
  -22.4580   -4.2800   21.4040 F   0  0  0  0  0  0  0  0  0  0  0  0
  -21.3500   -3.8280   26.0260 F   0  0  0  0  0  0  0  0  0  0  0  0
  -22.7680  -13.5770   21.1460 C   0  0  0  0  0  0  0  0  0  0  0  0
  -22.0590  -12.8680   22.0170 N   0  0  0  0  0  0  0  0  0  0  0  0
  -22.3110  -14.6010   20.6370 O   0  0  0  0  0  0  0  0  0  0  0  0
  -22.4430  -12.0410   22.4520 H   0  0  0  0  0  0  0  0  0  0  0  0
  -21.1210  -13.1550   22.2550 H   0  0  0  0  0  0  0  0  0  0  0  0
  -25.3530  -15.2910   20.3110 N   0  0  0  0  0  0  0  0  0  0  0  0
  -24.5830  -15.9360   20.4460 H   0  0  0  0  0  0  0  0  0  0  0  0
  -26.2000  -15.7460   19.9910 H   0  0  0  0  0  0  0  0  0  0  0  0
  -27.9330  -24.0070   20.2570 C   0  0  0  0  0  2  0  0  0  0  0  0
  -28.1540  -25.7140   20.3440 O   0  0  0  0  0  0  0  0  0  0  0  0
  -24.6620  -31.9210   23.2620 C   0  0  0  0  0  0  0  0  0  0  0  0
  -27.1690  -26.8870   20.2880 C   0  0  0  0  0  0  0  0  0  0  0  0
  -23.4630  -30.5260   21.6300 C   0  0  0  0  0  3  0  0  0  0  0  0
  -24.9000  -28.8790   20.2230 C   0  0  0  0  0  0  0  0  0  0  0  0
  -26.0410  -30.6730   21.5040 C   0  0  0  0  0  2  0  0  0  0  0  0
  -26.0970  -29.2480   20.8500 C   0  0  0  0  0  0  0  0  0  0  0  0
  -27.2200  -28.2790   20.8490 C   0  0  0  0  0  3  0  0  0  0  0  0
  -25.9370  -26.7020   19.6120 C   0  0  0  0  0  3  0  0  0  0  0  0
  -24.8550  -27.6280   19.5820 C   0  0  0  0  0  3  0  0  0  0  0  0
  -23.6960  -29.8290   20.2600 C   0  0  0  0  0  2  0  0  0  0  0  0
  -24.7450  -31.0720   22.1840 N   0  0  0  0  0  0  0  0  0  0  0  0
  -23.5710  -32.2270   23.7740 O   0  0  0  0  0  0  0  0  0  0  0  0
  -22.7500  -29.5510   22.6040 C   0  0  0  0  0  0  0  0  0  0  0  0
  -21.4200  -29.3880   22.4700 N   0  0  0  0  0  0  0  0  0  0  0  0
  -23.4030  -28.9380   23.4500 O   0  0  0  0  0  0  0  0  0  0  0  0
  -20.9430  -29.9290   21.7630 H   0  0  0  0  0  0  0  0  0  0  0  0
  -18.0370  -28.1600   22.9570 C   0  0  0  0  0  0  0  0  0  0  0  0
  -20.5910  -28.4570   23.2480 C   0  0  0  0  0  3  0  0  0  0  0  0
  -20.7130  -27.0150   22.7030 C   0  0  0  0  0  2  0  0  0  0  0  0
  -19.6300  -26.6620   21.6800 C   0  0  0  0  0  2  0  0  0  0  0  0
  -18.2360  -26.8030   22.3010 C   0  0  0  0  0  2  0  0  0  0  0  0
  -19.1410  -28.9410   23.3870 C   0  0  0  0  0  0  0  0  0  0  0  0
  -18.8980  -30.2070   23.9640 C   0  0  0  0  0  3  0  0  0  0  0  0
  -17.5850  -30.6920   24.1120 C   0  0  0  0  0  3  0  0  0  0  0  0
  -16.4950  -29.9080   23.6960 C   0  0  0  0  0  3  0  0  0  0  0  0
  -16.7210  -28.6440   23.1240 C   0  0  0  0  0  3  0  0  0  0  0  0
  -25.9320  -32.5660   23.8960 C   0  0  0  0  0  3  0  0  0  0  0  0
  -25.6180  -33.9690   24.2240 N   0  0  0  0  0  0  0  0  0  0  0  0
  -25.9320  -35.0280   23.4670 C   0  0  0  0  0  0  0  0  0  0  0  0
  -26.5760  -34.9280   22.4200 O   0  0  0  0  0  0  0  0  0  0  0  0
  -25.0440  -34.1210   25.0400 H   0  0  0  0  0  0  0  0  0  0  0  0
  -24.1790  -36.8170   23.1920 C   0  0  0  0  0  1  0  0  0  0  0  0
  -25.4590  -36.4180   23.9440 C   0  0  0  0  0  3  0  0  0  0  0  0
  -27.6230  -37.3240   24.6730 C   0  0  0  0  0  1  0  0  0  0  0  0
  -26.4790  -37.4780   23.7800 N   0  0  0  0  0  0  0  0  0  0  0  0
  -26.0730  -38.3960   23.9410 H   0  0  0  0  0  0  0  0  0  0  0  0
  -26.4280  -31.8100   25.1920 C   0  0  1  0  0  0  0  0  0  0  0  0
  -25.3200  -31.5990   26.2510 C   0  0  0  0  0  1  0  0  0  0  0  0
  -27.0080  -30.4230   24.8410 C   0  0  0  0  0  1  0  0  0  0  0  0
  -27.5750  -32.6090   25.8540 C   0  0  0  0  0  1  0  0  0  0  0  0
  2  1  1  0
  3  1  1  0
  5  8  1  0
  5  9  1  0
  6  4  1  0
  6  2  1  0
  7  6  1  0
  7  3  1  0
  8 10  1  0
  8  4  1  0
  9 47  1  0
  9  7  1  0
 11 10  1  0
 12 17  1  0
 13 14  1  0
 13 12  1  0
 15 14  1  0
 15 22  1  0
 15 16  1  0
 17 11  1  0
 17 16  1  0
 18 11  2  0
 19 20  2  0
 20 39  1  0
 21 20  1  0
 21 24  1  0
 22 23  1  0
 22 19  1  0
 23 21  2  0
 24 25  1  0
 25 26  2  0
 27 30  1  0
 27 26  1  0
 28 27  2  0
 29 28  1  0
 29 24  2  0
 30 31  1  0
 31 32  1  0
 32 33  2  0
 34 33  1  0
 34 38  1  0
 35 34  2  0
 36 31  2  0
 36 35  1  0
 37 36  1  0
 39 40  1  0
 40 43  1  0
 40 42  1  0
 41 39  2  0
 44 45  1  0
 44 19  1  0
 46 44  1  0
 47 48  1  0
 49 60  2  0
 50 48  1  0
 50 55  1  0
 51 59  1  0
 51 61  1  0
 52 58  1  0
 52 54  1  0
 53 59  1  0
 54 53  1  0
 55 54  2  0
 56 50  2  0
 57 56  1  0
 57 52  2  0
 58 51  1  0
 59 49  1  0
 61 63  2  0
 62 61  1  0
 64 62  1  0
 65 74  2  0
 65 70  1  0
 66 62  1  0
 66 70  1  0
 67 66  1  0
 68 69  1  0
 68 67  1  0
 69 65  1  0
 70 71  2  0
 71 72  1  0
 73 72  2  0
 74 73  1  0
 75 49  1  0
 75 76  1  0
 75 85  1  0
 76 79  1  0
 77 81  1  0
 77 76  1  0
 78 77  2  0
 81 80  1  0
 83 84  1  0
 83 81  1  0
 83 82  1  0
 85 88  1  1
 85 86  1  0
 87 85  1  0
M  ISO  4  10 100  11 100  47 101  48 101
M  END
>  <TORSDO>  (33) 
F 18

>  <SCORE>  (33) 
-17.015

>  <name>  (33) 
32

>  <ligand_id>  (33) 
32

>  <original_smiles>  (33) 
[H]c1c([H])c([H])c2c(c1[H])C([H])([H])C([H])([H])C([H])([H])C2([H])N([H])C(=O)C1([H])N(C(=O)C([H])(N([H])C(=O)C([H])(N([H])C([H])([H])[H])C([H])([H])[H])C(C([H])([H])[H])(C([H])([H])[H])C([H])([H])[H])C([H])([H])c2c([H])c(OC([H])([H])C3([H])C([H])([H])C([H])(C([H])([H])C(=O)N4C([H])([H])C([H])([H])C([H])([H])C([H])(n5nc(-c6c([H])c([H])c(Oc7c([H])c([H])c(F)c([H])c7F)c([H])c6[H])c(C(=O)N([H])[H])c5N([H])[H])C4([H])[H])C([H])([H])C4([H])C([H])([H])C([H])([H])C([H])([H])C34[H])c([H])c([H])c2C1([H])[H]

>  <smiles>  (33) 
[H]c1c([H])c([H])c2c(c1[H])C([H])([H])C([H])([H])C([H])([H])C2([H])N([H])C(=O)C1([H])N(C(=O)C([H])(N([H])C(=O)C([H])(N([H])C([H])([H])[H])C([H])([H])[H])C(C([H])([H])[H])(C([H])([H])[H])C([H])([H])[H])C([H])([H])c2c([H])c(OC([H])([H])C3([H])C([H])([H])C([H])(C([H])([H])C(=O)N4C([H])([H])C([H])([H])C([H])([H])C([H])(n5nc(-c6c([H])c([H])c(Oc7c([H])c([H])c(F)c([H])c7F)c([H])c6[H])c(C(=O)N([H])[H])c5N([H])[H])C4([H])[H])C([H])([H])C4([H])C([H])([H])C([H])([H])C([H])([H])C34[H])c([H])c([H])c2C1([H])[H]

$$$$
33:0:0
     RDKit          3D

 92101  0  0  1  0  0  0  0  0999 V2000
  -30.5400  -21.5270   23.6280 C   0  0  0  0  0  2  0  0  0  0  0  0
  -30.2750  -20.9970   22.2080 C   0  0  0  0  0  2  0  0  0  0  0  0
  -29.2170  -16.4870   21.1140 C   0  0  0  0  0  2  0  0  0  0  0  0
  -31.4210  -16.1840   21.9930 C   0  0  0  0  0  2  0  0  0  0  0  0
  -29.5440  -19.0220   20.7950 C   0  0  0  0  0  2  0  0  0  0  0  0
  -31.6010  -18.7830   22.0600 C   0  0  0  0  0  2  0  0  0  0  0  0
  -30.2130  -15.3740   21.4720 C   0  0  0  0  0  3  0  0  0  0  0  0
  -30.0690  -17.6150   20.5170 C   0  0  0  0  0  3  0  0  0  0  0  0
  -31.4380  -17.5110   21.2060 C   0  0  0  0  0  3  0  0  0  0  0  0
  -30.2220  -19.4640   22.0940 C   0  0  0  0  0  3  0  0  0  0  0  0
  -30.5370  -14.4770   20.2490 C   0  0  0  0  0  0  0  0  0  0  0  0
  -30.1170  -12.4500   18.8960 C   0  0  0  0  0  2  0  0  0  0  0  0
  -29.0970  -12.7040   17.7700 C   0  0  0  0  0  2  0  0  0  0  0  0
  -27.6600  -12.5040   18.2850 C   0  0  0  0  0  2  0  0  0  0  0  0
  -27.3930  -13.2780   19.6000 C   0  0  0  0  0  3  0  0  0  0  0  0
  -28.5140  -13.0220   20.6340 C   0  0  0  0  0  2  0  0  0  0  0  0
  -29.8090  -13.3520   20.0150 N   0  0  0  0  0  0  0  0  0  0  0  0
  -31.4860  -14.7990   19.5270 O   0  0  0  0  0  0  0  0  0  0  0  0
  -25.0240  -13.8120   20.4560 C   0  0  0  0  0  0  0  0  0  0  0  0
  -23.9970  -13.0050   20.8650 C   0  0  0  0  0  0  0  0  0  0  0  0
  -24.4860  -11.6660   20.7720 C   0  0  0  0  0  0  0  0  0  0  0  0
  -26.0740  -12.9620   20.1450 N   0  0  0  0  0  0  0  0  0  0  0  0
  -25.7570  -11.6650   20.3910 N   0  0  0  0  0  0  0  0  0  0  0  0
  -23.8020  -10.3810   20.9720 C   0  0  0  0  0  0  0  0  0  0  0  0
  -24.2870   -9.4200   21.8860 C   0  0  0  0  0  3  0  0  0  0  0  0
  -23.6020   -8.2010   22.0720 C   0  0  0  0  0  3  0  0  0  0  0  0
  -22.4190   -7.9320   21.3440 C   0  0  0  0  0  0  0  0  0  0  0  0
  -21.9530   -8.8830   20.4170 C   0  0  0  0  0  3  0  0  0  0  0  0
  -22.6390  -10.0950   20.2300 C   0  0  0  0  0  3  0  0  0  0  0  0
  -21.7020   -6.7640   21.4410 O   0  0  0  0  0  0  0  0  0  0  0  0
  -21.6830   -6.0250   22.5970 C   0  0  0  0  0  0  0  0  0  0  0  0
  -21.2620   -6.5750   23.8280 C   0  0  0  0  0  3  0  0  0  0  0  0
  -21.1920   -5.7620   24.9760 C   0  0  0  0  0  3  0  0  0  0  0  0
  -21.5330   -4.3990   24.8950 C   0  0  0  0  0  0  0  0  0  0  0  0
  -21.9480   -3.8470   23.6700 C   0  0  0  0  0  3  0  0  0  0  0  0
  -22.0190   -4.6590   22.5240 C   0  0  0  0  0  0  0  0  0  0  0  0
  -22.4000   -4.1170   21.3400 F   0  0  0  0  0  0  0  0  0  0  0  0
  -21.4590   -3.6140   25.9960 F   0  0  0  0  0  0  0  0  0  0  0  0
  -22.6060  -13.4380   21.2280 C   0  0  0  0  0  0  0  0  0  0  0  0
  -21.9490  -12.7050   22.1190 N   0  0  0  0  0  0  0  0  0  0  0  0
  -22.1110  -14.4610   20.7560 O   0  0  0  0  0  0  0  0  0  0  0  0
  -22.3620  -11.8750   22.5190 H   0  0  0  0  0  0  0  0  0  0  0  0
  -21.0170  -12.9750   22.4040 H   0  0  0  0  0  0  0  0  0  0  0  0
  -25.1460  -15.1900   20.3040 N   0  0  0  0  0  0  0  0  0  0  0  0
  -24.3720  -15.8250   20.4710 H   0  0  0  0  0  0  0  0  0  0  0  0
  -25.9710  -15.6570   19.9500 H   0  0  0  0  0  0  0  0  0  0  0  0
  -30.7230  -23.0570   23.6760 C   0  0  0  0  0  2  0  0  0  0  0  0
  -29.5140  -23.8600   23.1610 C   0  0  0  0  0  2  0  0  0  0  0  0
  -29.8380  -25.3500   22.9680 C   0  0  0  0  0  2  0  0  0  0  0  0
  -28.7280  -26.1520   22.2660 C   0  0  0  0  0  2  0  0  0  0  0  0
  -28.3950  -25.6480   20.8460 C   0  0  0  0  0  2  0  0  0  0  0  0
  -28.2510  -26.7370   19.9460 O   0  0  0  0  0  0  0  0  0  0  0  0
  -24.4990  -31.8700   23.1240 C   0  0  0  0  0  0  0  0  0  0  0  0
  -27.0690  -27.4220   20.0340 C   0  0  0  0  0  0  0  0  0  0  0  0
  -23.2550  -30.4650   21.5090 C   0  0  0  0  0  3  0  0  0  0  0  0
  -24.6750  -28.9020   20.0810 C   0  0  0  0  0  0  0  0  0  0  0  0
  -25.7730  -30.8150   21.2640 C   0  0  0  0  0  2  0  0  0  0  0  0
  -25.8420  -29.4390   20.6410 C   0  0  0  0  0  0  0  0  0  0  0  0
  -27.0450  -28.7060   20.6130 C   0  0  0  0  0  3  0  0  0  0  0  0
  -25.8910  -26.8810   19.4820 C   0  0  0  0  0  3  0  0  0  0  0  0
  -24.6910  -27.6190   19.5020 C   0  0  0  0  0  3  0  0  0  0  0  0
  -23.4350  -29.7660   20.1350 C   0  0  0  0  0  2  0  0  0  0  0  0
  -24.5280  -31.0640   22.0250 N   0  0  0  0  0  0  0  0  0  0  0  0
  -23.4290  -32.1550   23.6790 O   0  0  0  0  0  0  0  0  0  0  0  0
  -22.6110  -29.4570   22.4890 C   0  0  0  0  0  0  0  0  0  0  0  0
  -21.2840  -29.2850   22.3800 N   0  0  0  0  0  0  0  0  0  0  0  0
  -23.3010  -28.8330   23.3000 O   0  0  0  0  0  0  0  0  0  0  0  0
  -20.7910  -29.8390   21.6940 H   0  0  0  0  0  0  0  0  0  0  0  0
  -17.9060  -28.1370   22.9300 C   0  0  0  0  0  0  0  0  0  0  0  0
  -20.4700  -28.3620   23.1680 C   0  0  0  0  0  3  0  0  0  0  0  0
  -20.5460  -26.9280   22.5960 C   0  0  0  0  0  2  0  0  0  0  0  0
  -19.4270  -26.6140   21.5990 C   0  0  0  0  0  2  0  0  0  0  0  0
  -18.0560  -26.7820   22.2590 C   0  0  0  0  0  2  0  0  0  0  0  0
  -19.0400  -28.8860   23.3410 C   0  0  0  0  0  0  0  0  0  0  0  0
  -18.8460  -30.1560   23.9260 C   0  0  0  0  0  3  0  0  0  0  0  0
  -17.5500  -30.6740   24.1080 C   0  0  0  0  0  3  0  0  0  0  0  0
  -16.4300  -29.9200   23.7150 C   0  0  0  0  0  3  0  0  0  0  0  0
  -16.6090  -28.6540   23.1310 C   0  0  0  0  0  3  0  0  0  0  0  0
  -25.8010  -32.4900   23.7190 C   0  0  0  0  0  3  0  0  0  0  0  0
  -25.5080  -33.8880   24.0610 N   0  0  0  0  0  0  0  0  0  0  0  0
  -25.8460  -34.9420   23.3060 C   0  0  0  0  0  0  0  0  0  0  0  0
  -26.5080  -34.8380   22.2690 O   0  0  0  0  0  0  0  0  0  0  0  0
  -24.9220  -34.0440   24.8690 H   0  0  0  0  0  0  0  0  0  0  0  0
  -24.1360  -36.7530   22.9600 C   0  0  0  0  0  1  0  0  0  0  0  0
  -25.3710  -36.3300   23.7720 C   0  0  0  0  0  3  0  0  0  0  0  0
  -27.5120  -37.1840   24.6180 C   0  0  0  0  0  1  0  0  0  0  0  0
  -26.4150  -37.3720   23.6700 N   0  0  0  0  0  0  0  0  0  0  0  0
  -26.0180  -38.2950   23.8250 H   0  0  0  0  0  0  0  0  0  0  0  0
  -26.3450  -31.7080   24.9780 C   0  0  1  0  0  0  0  0  0  0  0  0
  -25.2730  -31.4610   26.0650 C   0  0  0  0  0  1  0  0  0  0  0  0
  -26.9200  -30.3340   24.5600 C   0  0  0  0  0  1  0  0  0  0  0  0
  -27.5090  -32.4960   25.6240 C   0  0  0  0  0  1  0  0  0  0  0  0
  1 47  1  0
  2  1  1  0
  3  7  1  0
  5 10  1  0
  6 10  1  0
  7 11  1  0
  7  4  1  0
  8  5  1  0
  8  3  1  0
  8  9  1  0
  9  4  1  0
  9  6  1  0
 10  2  1  0
 12 17  1  0
 13 14  1  0
 13 12  1  0
 15 14  1  0
 15 22  1  0
 15 16  1  0
 17 11  1  0
 17 16  1  0
 18 11  2  0
 19 20  2  0
 20 39  1  0
 21 20  1  0
 21 24  1  0
 22 23  1  0
 22 19  1  0
 23 21  2  0
 24 25  1  0
 25 26  2  0
 27 30  1  0
 27 26  1  0
 28 27  2  0
 29 28  1  0
 29 24  2  0
 30 31  1  0
 31 32  1  0
 32 33  2  0
 34 33  1  0
 34 38  1  0
 35 34  2  0
 36 31  2  0
 36 35  1  0
 37 36  1  0
 39 40  1  0
 40 43  1  0
 40 42  1  0
 41 39  2  0
 44 19  1  0
 44 45  1  0
 46 44  1  0
 48 47  1  0
 49 48  1  0
 50 49  1  0
 51 50  1  0
 52 54  1  0
 52 51  1  0
 53 64  2  0
 54 59  1  0
 55 63  1  0
 55 65  1  0
 56 62  1  0
 56 58  1  0
 57 63  1  0
 58 57  1  0
 59 58  2  0
 60 61  1  0
 60 54  2  0
 61 56  2  0
 62 55  1  0
 63 53  1  0
 65 67  2  0
 66 65  1  0
 68 66  1  0
 69 78  2  0
 69 74  1  0
 70 66  1  0
 70 74  1  0
 71 70  1  0
 72 73  1  0
 72 71  1  0
 73 69  1  0
 74 75  2  0
 75 76  1  0
 77 76  2  0
 78 77  1  0
 79 53  1  0
 79 80  1  0
 79 89  1  0
 80 83  1  0
 81 85  1  0
 81 80  1  0
 82 81  2  0
 85 84  1  0
 87 85  1  0
 87 88  1  0
 87 86  1  0
 89 92  1  1
 89 90  1  0
 91 89  1  0
M  ISO  4   7 100  11 100  51 101  52 101
M  END
>  <TORSDO>  (34) 
F 23

>  <SCORE>  (34) 
-11.487

>  <name>  (34) 
33

>  <ligand_id>  (34) 
33

>  <original_smiles>  (34) 
[H]c1c([H])c([H])c2c(c1[H])C([H])([H])C([H])([H])C([H])([H])C2([H])N([H])C(=O)C1([H])N(C(=O)C([H])(N([H])C(=O)C([H])(N([H])C([H])([H])[H])C([H])([H])[H])C(C([H])([H])[H])(C([H])([H])[H])C([H])([H])[H])C([H])([H])c2c([H])c(OC([H])([H])C([H])([H])C([H])([H])C([H])([H])C([H])([H])C([H])([H])C([H])([H])C3([H])C([H])([H])C4([H])C([H])([H])C([H])(C(=O)N5C([H])([H])C([H])([H])C([H])([H])C([H])(n6nc(-c7c([H])c([H])c(Oc8c([H])c([H])c(F)c([H])c8F)c([H])c7[H])c(C(=O)N([H])[H])c6N([H])[H])C5([H])[H])C([H])([H])C4([H])C3([H])[H])c([H])c([H])c2C1([H])[H]

>  <smiles>  (34) 
[H]c1c([H])c([H])c2c(c1[H])C([H])([H])C([H])([H])C([H])([H])C2([H])N([H])C(=O)C1([H])N(C(=O)C([H])(N([H])C(=O)C([H])(N([H])C([H])([H])[H])C([H])([H])[H])C(C([H])([H])[H])(C([H])([H])[H])C([H])([H])[H])C([H])([H])c2c([H])c(OC([H])([H])C([H])([H])C([H])([H])C([H])([H])C([H])([H])C([H])([H])C([H])([H])C3([H])C([H])([H])C4([H])C([H])([H])C([H])(C(=O)N5C([H])([H])C([H])([H])C([H])([H])C([H])(n6nc(-c7c([H])c([H])c(Oc8c([H])c([H])c(F)c([H])c8F)c([H])c7[H])c(C(=O)N([H])[H])c6N([H])[H])C5([H])[H])C([H])([H])C4([H])C3([H])[H])c([H])c([H])c2C1([H])[H]

$$$$
34:0:0
     RDKit          3D

 92101  0  0  1  0  0  0  0  0999 V2000
  -29.0330  -17.7320   18.0210 C   0  0  0  0  0  2  0  0  0  0  0  0
  -30.1500  -16.8330   18.5540 C   0  0  0  0  0  2  0  0  0  0  0  0
  -27.2840  -19.3220   19.0650 C   0  0  0  0  0  2  0  0  0  0  0  0
  -27.7510  -20.6010   19.7720 C   0  0  0  0  0  2  0  0  0  0  0  0
  -30.0520  -19.7480   20.1860 C   0  0  0  0  0  2  0  0  0  0  0  0
  -28.2470  -18.1320   19.2690 C   0  0  0  0  0  3  0  0  0  0  0  0
  -29.3510  -18.3400   20.3240 C   0  0  0  0  0  3  0  0  0  0  0  0
  -30.2900  -17.1100   20.0770 C   0  0  0  0  0  3  0  0  0  0  0  0
  -29.1970  -20.7940   19.5370 N   0  0  2  0  0  4  0  0  0  0  0  0
  -29.2920  -20.5870   18.5550 H   0  0  0  0  0  0  0  0  0  0  0  0
  -29.9550  -15.8450   20.9540 C   0  0  0  0  0  2  0  0  0  0  0  0
  -30.7090  -14.5400   20.5510 C   0  0  0  0  0  0  0  0  0  0  0  0
  -30.4410  -12.3580   19.4350 C   0  0  0  0  0  2  0  0  0  0  0  0
  -29.5310  -12.5590   18.2060 C   0  0  0  0  0  2  0  0  0  0  0  0
  -28.0470  -12.4200   18.5940 C   0  0  0  0  0  2  0  0  0  0  0  0
  -27.6770  -13.2650   19.8400 C   0  0  0  0  0  3  0  0  0  0  0  0
  -28.7070  -13.0710   20.9770 C   0  0  0  0  0  2  0  0  0  0  0  0
  -30.0450  -13.3560   20.4420 N   0  0  0  0  0  0  0  0  0  0  0  0
  -31.8750  -14.6630   20.1680 O   0  0  0  0  0  0  0  0  0  0  0  0
  -25.2570  -13.8780   20.4730 C   0  0  0  0  0  0  0  0  0  0  0  0
  -24.1800  -13.1090   20.8260 C   0  0  0  0  0  0  0  0  0  0  0  0
  -24.6470  -11.7590   20.8330 C   0  0  0  0  0  0  0  0  0  0  0  0
  -26.3110  -12.9960   20.2860 N   0  0  0  0  0  0  0  0  0  0  0  0
  -25.9460  -11.7180   20.5620 N   0  0  0  0  0  0  0  0  0  0  0  0
  -23.9180  -10.4960   21.0240 C   0  0  0  0  0  0  0  0  0  0  0  0
  -24.3340   -9.5410   21.9760 C   0  0  0  0  0  3  0  0  0  0  0  0
  -23.6060   -8.3440   22.1540 C   0  0  0  0  0  3  0  0  0  0  0  0
  -22.4490   -8.0960   21.3790 C   0  0  0  0  0  0  0  0  0  0  0  0
  -22.0540   -9.0400   20.4150 C   0  0  0  0  0  3  0  0  0  0  0  0
  -22.7820  -10.2270   20.2350 C   0  0  0  0  0  3  0  0  0  0  0  0
  -21.6950   -6.9490   21.4660 O   0  0  0  0  0  0  0  0  0  0  0  0
  -21.6290   -6.2150   22.6240 C   0  0  0  0  0  0  0  0  0  0  0  0
  -21.1950   -6.7830   23.8420 C   0  0  0  0  0  3  0  0  0  0  0  0
  -21.0790   -5.9760   24.9910 C   0  0  0  0  0  3  0  0  0  0  0  0
  -21.3840   -4.6030   24.9230 C   0  0  0  0  0  0  0  0  0  0  0  0
  -21.8110   -4.0360   23.7110 C   0  0  0  0  0  3  0  0  0  0  0  0
  -21.9310   -4.8400   22.5630 C   0  0  0  0  0  0  0  0  0  0  0  0
  -22.3230   -4.2830   21.3920 F   0  0  0  0  0  0  0  0  0  0  0  0
  -21.2630   -3.8280   26.0260 F   0  0  0  0  0  0  0  0  0  0  0  0
  -22.7750  -13.5870   21.0500 C   0  0  0  0  0  0  0  0  0  0  0  0
  -22.0260  -12.9030   21.9090 N   0  0  0  0  0  0  0  0  0  0  0  0
  -22.3480  -14.6010   20.5000 O   0  0  0  0  0  0  0  0  0  0  0  0
  -22.3870  -12.0830   22.3740 H   0  0  0  0  0  0  0  0  0  0  0  0
  -21.0840  -13.2040   22.1060 H   0  0  0  0  0  0  0  0  0  0  0  0
  -25.4260  -15.2450   20.2760 N   0  0  0  0  0  0  0  0  0  0  0  0
  -24.6550  -15.8990   20.3420 H   0  0  0  0  0  0  0  0  0  0  0  0
  -26.2860  -15.6720   19.9600 H   0  0  0  0  0  0  0  0  0  0  0  0
  -29.6640  -22.2150   19.5980 C   0  0  0  0  0  2  0  0  0  0  0  0
  -29.3400  -22.9920   20.9020 C   0  0  0  0  0  2  0  0  0  0  0  0
  -29.4890  -24.5410   20.7970 C   0  0  0  0  0  2  0  0  0  0  0  0
  -28.2800  -25.2650   20.1570 C   0  0  0  0  0  2  0  0  0  0  0  0
  -28.4090  -26.6980   20.2160 O   0  0  0  0  0  0  0  0  0  0  0  0
  -24.5990  -31.8910   23.2450 C   0  0  0  0  0  0  0  0  0  0  0  0
  -27.2370  -27.4360   20.1730 C   0  0  0  0  0  0  0  0  0  0  0  0
  -23.3900  -30.4870   21.6090 C   0  0  0  0  0  3  0  0  0  0  0  0
  -24.8400  -28.9510   20.1790 C   0  0  0  0  0  0  0  0  0  0  0  0
  -25.9140  -30.8490   21.3980 C   0  0  0  0  0  2  0  0  0  0  0  0
  -26.0000  -29.4750   20.7630 C   0  0  0  0  0  0  0  0  0  0  0  0
  -27.2010  -28.7290   20.7500 C   0  0  0  0  0  3  0  0  0  0  0  0
  -26.0570  -26.9350   19.5710 C   0  0  0  0  0  3  0  0  0  0  0  0
  -24.8650  -27.6830   19.5750 C   0  0  0  0  0  3  0  0  0  0  0  0
  -23.5950  -29.8080   20.2290 C   0  0  0  0  0  2  0  0  0  0  0  0
  -24.6530  -31.0890   22.1430 N   0  0  0  0  0  0  0  0  0  0  0  0
  -23.5190  -32.1620   23.7890 O   0  0  0  0  0  0  0  0  0  0  0  0
  -22.7420  -29.4660   22.5730 C   0  0  0  0  0  0  0  0  0  0  0  0
  -21.4180  -29.2790   22.4490 N   0  0  0  0  0  0  0  0  0  0  0  0
  -23.4280  -28.8440   23.3890 O   0  0  0  0  0  0  0  0  0  0  0  0
  -20.9250  -29.8330   21.7610 H   0  0  0  0  0  0  0  0  0  0  0  0
  -18.0490  -28.0720   22.9460 C   0  0  0  0  0  0  0  0  0  0  0  0
  -20.6040  -28.3430   23.2240 C   0  0  0  0  0  3  0  0  0  0  0  0
  -20.7150  -26.9090   22.6560 C   0  0  0  0  0  2  0  0  0  0  0  0
  -19.6180  -26.5740   21.6410 C   0  0  0  0  0  2  0  0  0  0  0  0
  -18.2330  -26.7190   22.2800 C   0  0  0  0  0  2  0  0  0  0  0  0
  -19.1630  -28.8410   23.3770 C   0  0  0  0  0  0  0  0  0  0  0  0
  -18.9360  -30.1060   23.9600 C   0  0  0  0  0  3  0  0  0  0  0  0
  -17.6290  -30.6030   24.1170 C   0  0  0  0  0  3  0  0  0  0  0  0
  -16.5300  -29.8310   23.7030 C   0  0  0  0  0  3  0  0  0  0  0  0
  -16.7400  -28.5670   23.1230 C   0  0  0  0  0  3  0  0  0  0  0  0
  -25.8850  -32.5260   23.8600 C   0  0  0  0  0  3  0  0  0  0  0  0
  -25.5750  -33.9230   24.1900 N   0  0  0  0  0  0  0  0  0  0  0  0
  -25.9060  -34.9740   23.4290 C   0  0  0  0  0  0  0  0  0  0  0  0
  -26.5750  -34.8700   22.3980 O   0  0  0  0  0  0  0  0  0  0  0  0
  -24.9780  -34.0760   24.9900 H   0  0  0  0  0  0  0  0  0  0  0  0
  -24.1780  -36.7660   23.0680 C   0  0  0  0  0  1  0  0  0  0  0  0
  -25.4160  -36.3620   23.8840 C   0  0  0  0  0  3  0  0  0  0  0  0
  -27.5490  -37.2460   24.7210 C   0  0  0  0  0  1  0  0  0  0  0  0
  -26.4480  -37.4150   23.7760 N   0  0  0  0  0  0  0  0  0  0  0  0
  -26.0420  -38.3350   23.9240 H   0  0  0  0  0  0  0  0  0  0  0  0
  -26.4100  -31.7550   25.1340 C   0  0  1  0  0  0  0  0  0  0  0  0
  -25.3220  -31.5160   26.2060 C   0  0  0  0  0  1  0  0  0  0  0  0
  -26.9920  -30.3790   24.7350 C   0  0  0  0  0  1  0  0  0  0  0  0
  -27.5640  -32.5490   25.7890 C   0  0  0  0  0  1  0  0  0  0  0  0
  1  2  1  0
  2  8  1  0
  3  6  1  0
  3  4  1  0
  6  1  1  0
  6  7  1  0
  7  5  1  0
  8  7  1  0
  8 11  1  0
  9 48  1  0
  9  4  1  0
  9  5  1  0
  9 10  1  6
 12 11  1  0
 13 18  1  0
 14 15  1  0
 14 13  1  0
 16 15  1  0
 16 23  1  0
 16 17  1  0
 18 12  1  0
 18 17  1  0
 19 12  2  0
 20 21  2  0
 21 22  1  0
 21 40  1  0
 22 25  1  0
 23 20  1  0
 23 24  1  0
 24 22  2  0
 25 26  1  0
 26 27  2  0
 28 31  1  0
 28 27  1  0
 29 28  2  0
 30 29  1  0
 30 25  2  0
 31 32  1  0
 32 33  1  0
 33 34  2  0
 35 34  1  0
 35 39  1  0
 36 35  2  0
 37 32  2  0
 37 36  1  0
 38 37  1  0
 40 41  1  0
 41 44  1  0
 41 43  1  0
 42 40  2  0
 45 46  1  0
 45 20  1  0
 47 45  1  0
 48 49  1  0
 50 49  1  0
 51 52  1  0
 51 50  1  0
 53 64  2  0
 54 52  1  0
 54 59  1  0
 55 63  1  0
 55 65  1  0
 56 62  1  0
 56 58  1  0
 57 63  1  0
 58 57  1  0
 59 58  2  0
 60 61  1  0
 60 54  2  0
 61 56  2  0
 62 55  1  0
 63 53  1  0
 65 67  2  0
 66 65  1  0
 68 66  1  0
 69 78  2  0
 69 74  1  0
 70 66  1  0
 70 74  1  0
 71 70  1  0
 72 73  1  0
 72 71  1  0
 73 69  1  0
 74 75  2  0
 75 76  1  0
 77 76  2  0
 78 77  1  0
 79 53  1  0
 79 80  1  0
 79 89  1  0
 80 83  1  0
 81 85  1  0
 81 80  1  0
 82 81  2  0
 85 84  1  0
 87 85  1  0
 87 88  1  0
 87 86  1  0
 89 92  1  1
 89 90  1  0
 91 89  1  0
M  ISO  4  11 100  12 100  51 101  52 101
M  END
>  <TORSDO>  (35) 
F 21

>  <SCORE>  (35) 
-13.321

>  <name>  (35) 
34

>  <ligand_id>  (35) 
34

>  <original_smiles>  (35) 
[H]c1c([H])c([H])c2c(c1[H])C([H])([H])C([H])([H])C([H])([H])C2([H])N([H])C(=O)C1([H])N(C(=O)C([H])(N([H])C(=O)C([H])(N([H])C([H])([H])[H])C([H])([H])[H])C(C([H])([H])[H])(C([H])([H])[H])C([H])([H])[H])C([H])([H])c2c([H])c(OC([H])([H])C([H])([H])C([H])([H])C([H])([H])[N+]3([H])C([H])([H])C([H])([H])C4([H])C([H])([H])C([H])([H])C([H])(C([H])([H])C(=O)N5C([H])([H])C([H])([H])C([H])([H])C([H])(n6nc(-c7c([H])c([H])c(Oc8c([H])c([H])c(F)c([H])c8F)c([H])c7[H])c(C(=O)N([H])[H])c6N([H])[H])C5([H])[H])C4([H])C3([H])[H])c([H])c([H])c2C1([H])[H]

>  <smiles>  (35) 
[H]c1c([H])c([H])c2c(c1[H])C([H])([H])C([H])([H])C([H])([H])C2([H])N([H])C(=O)C1([H])N(C(=O)C([H])(N([H])C(=O)C([H])(N([H])C([H])([H])[H])C([H])([H])[H])C(C([H])([H])[H])(C([H])([H])[H])C([H])([H])[H])C([H])([H])c2c([H])c(OC([H])([H])C([H])([H])C([H])([H])C([H])([H])[N+]3([H])C([H])([H])C([H])([H])C4([H])C([H])([H])C([H])([H])C([H])(C([H])([H])C(=O)N5C([H])([H])C([H])([H])C([H])([H])C([H])(n6nc(-c7c([H])c([H])c(Oc8c([H])c([H])c(F)c([H])c8F)c([H])c7[H])c(C(=O)N([H])[H])c6N([H])[H])C5([H])[H])C4([H])C3([H])[H])c([H])c([H])c2C1([H])[H]

$$$$
35:0:0
     RDKit          3D

 92101  0  0  1  0  0  0  0  0999 V2000
  -30.4630  -24.1320   21.4020 C   0  0  0  0  0  2  0  0  0  0  0  0
  -30.7150  -22.6620   21.0720 C   0  0  0  0  0  2  0  0  0  0  0  0
  -28.5040  -23.2230   20.2770 C   0  0  0  0  0  2  0  0  0  0  0  0
  -28.7250  -21.1740   21.8890 C   0  0  0  0  0  2  0  0  0  0  0  0
  -29.2970  -24.5350   20.4910 C   0  0  0  0  0  3  0  0  0  0  0  0
  -29.0540  -20.6100   20.5310 C   0  0  0  0  0  3  0  0  0  0  0  0
  -29.3390  -22.0770   20.8340 C   0  0  2  0  0  0  0  0  0  0  0  0
  -30.7440  -19.6410   18.9420 C   0  0  0  0  0  1  0  0  0  0  0  0
  -30.1480  -19.5570   20.3630 C   0  0  0  0  0  3  0  0  0  0  0  0
  -29.6060  -18.2060   20.6710 N   0  0  0  0  0  4  0  0  0  0  0  0
  -29.2030  -18.2490   21.5940 H   0  0  0  0  0  0  0  0  0  0  0  0
  -28.8560  -18.0110   20.0280 H   0  0  0  0  0  0  0  0  0  0  0  0
  -30.5840  -17.0840   20.6420 C   0  0  0  0  0  2  0  0  0  0  0  0
  -29.9870  -15.7200   21.0880 C   0  0  0  0  0  2  0  0  0  0  0  0
  -30.6820  -14.5010   20.4370 C   0  0  0  0  0  0  0  0  0  0  0  0
  -30.3730  -12.3520   19.2640 C   0  0  0  0  0  2  0  0  0  0  0  0
  -29.4350  -12.5720   18.0600 C   0  0  0  0  0  2  0  0  0  0  0  0
  -27.9610  -12.4380   18.4860 C   0  0  0  0  0  2  0  0  0  0  0  0
  -27.6240  -13.2800   19.7460 C   0  0  0  0  0  3  0  0  0  0  0  0
  -28.6760  -13.0520   20.8570 C   0  0  0  0  0  2  0  0  0  0  0  0
  -30.0050  -13.3330   20.2950 N   0  0  0  0  0  0  0  0  0  0  0  0
  -31.8050  -14.6650   19.9530 O   0  0  0  0  0  0  0  0  0  0  0  0
  -25.2230  -13.9030   20.4310 C   0  0  0  0  0  0  0  0  0  0  0  0
  -24.1510  -13.1370   20.8030 C   0  0  0  0  0  0  0  0  0  0  0  0
  -24.6120  -11.7850   20.7950 C   0  0  0  0  0  0  0  0  0  0  0  0
  -26.2680  -13.0170   20.2200 N   0  0  0  0  0  0  0  0  0  0  0  0
  -25.9030  -11.7400   20.4950 N   0  0  0  0  0  0  0  0  0  0  0  0
  -23.8840  -10.5270   20.9980 C   0  0  0  0  0  0  0  0  0  0  0  0
  -24.3180   -9.5650   21.9370 C   0  0  0  0  0  3  0  0  0  0  0  0
  -23.5910   -8.3700   22.1260 C   0  0  0  0  0  3  0  0  0  0  0  0
  -22.4150   -8.1290   21.3770 C   0  0  0  0  0  0  0  0  0  0  0  0
  -22.0000   -9.0780   20.4280 C   0  0  0  0  0  3  0  0  0  0  0  0
  -22.7270  -10.2640   20.2350 C   0  0  0  0  0  3  0  0  0  0  0  0
  -21.6590   -6.9850   21.4760 O   0  0  0  0  0  0  0  0  0  0  0  0
  -21.6250   -6.2430   22.6300 C   0  0  0  0  0  0  0  0  0  0  0  0
  -21.2270   -6.8020   23.8640 C   0  0  0  0  0  3  0  0  0  0  0  0
  -21.1360   -5.9870   25.0090 C   0  0  0  0  0  3  0  0  0  0  0  0
  -21.4370   -4.6140   24.9220 C   0  0  0  0  0  0  0  0  0  0  0  0
  -21.8290   -4.0550   23.6930 C   0  0  0  0  0  3  0  0  0  0  0  0
  -21.9190   -4.8670   22.5490 C   0  0  0  0  0  0  0  0  0  0  0  0
  -22.2780   -4.3190   21.3630 F   0  0  0  0  0  0  0  0  0  0  0  0
  -21.3430   -3.8270   26.0200 F   0  0  0  0  0  0  0  0  0  0  0  0
  -22.7520  -13.6190   21.0610 C   0  0  0  0  0  0  0  0  0  0  0  0
  -22.0190  -12.9350   21.9330 N   0  0  0  0  0  0  0  0  0  0  0  0
  -22.3180  -14.6380   20.5260 O   0  0  0  0  0  0  0  0  0  0  0  0
  -22.3800  -12.1080   22.3830 H   0  0  0  0  0  0  0  0  0  0  0  0
  -21.0830  -13.2450   22.1510 H   0  0  0  0  0  0  0  0  0  0  0  0
  -25.3890  -15.2700   20.2330 N   0  0  0  0  0  0  0  0  0  0  0  0
  -24.6170  -15.9220   20.3130 H   0  0  0  0  0  0  0  0  0  0  0  0
  -26.2310  -15.6970   19.8680 H   0  0  0  0  0  0  0  0  0  0  0  0
  -28.4640  -25.7250   21.0290 C   0  0  0  0  0  2  0  0  0  0  0  0
  -28.4210  -26.7970   20.0850 O   0  0  0  0  0  0  0  0  0  0  0  0
  -24.6010  -31.9100   23.2320 C   0  0  0  0  0  0  0  0  0  0  0  0
  -27.2540  -27.5180   20.1210 C   0  0  0  0  0  0  0  0  0  0  0  0
  -23.3900  -30.5080   21.5910 C   0  0  0  0  0  3  0  0  0  0  0  0
  -24.8440  -28.9810   20.1550 C   0  0  0  0  0  0  0  0  0  0  0  0
  -25.9080  -30.8910   21.3730 C   0  0  0  0  0  2  0  0  0  0  0  0
  -26.0010  -29.5220   20.7350 C   0  0  0  0  0  0  0  0  0  0  0  0
  -27.2110  -28.7960   20.7160 C   0  0  0  0  0  3  0  0  0  0  0  0
  -26.0860  -26.9810   19.5430 C   0  0  0  0  0  3  0  0  0  0  0  0
  -24.8800  -27.7090   19.5590 C   0  0  0  0  0  3  0  0  0  0  0  0
  -23.5930  -29.8300   20.2100 C   0  0  0  0  0  2  0  0  0  0  0  0
  -24.6520  -31.1170   22.1250 N   0  0  0  0  0  0  0  0  0  0  0  0
  -23.5240  -32.1740   23.7820 O   0  0  0  0  0  0  0  0  0  0  0  0
  -22.7510  -29.4820   22.5540 C   0  0  0  0  0  0  0  0  0  0  0  0
  -21.4270  -29.2930   22.4340 N   0  0  0  0  0  0  0  0  0  0  0  0
  -23.4450  -28.8560   23.3610 O   0  0  0  0  0  0  0  0  0  0  0  0
  -20.9300  -29.8500   21.7540 H   0  0  0  0  0  0  0  0  0  0  0  0
  -18.0640  -28.0770   22.9390 C   0  0  0  0  0  0  0  0  0  0  0  0
  -20.6200  -28.3500   23.2060 C   0  0  0  0  0  3  0  0  0  0  0  0
  -20.7310  -26.9200   22.6290 C   0  0  0  0  0  2  0  0  0  0  0  0
  -19.6290  -26.5920   21.6160 C   0  0  0  0  0  2  0  0  0  0  0  0
  -18.2470  -26.7280   22.2620 C   0  0  0  0  0  2  0  0  0  0  0  0
  -19.1780  -28.8450   23.3680 C   0  0  0  0  0  0  0  0  0  0  0  0
  -18.9540  -30.1070   23.9590 C   0  0  0  0  0  3  0  0  0  0  0  0
  -17.6460  -30.6020   24.1260 C   0  0  0  0  0  3  0  0  0  0  0  0
  -16.5460  -29.8300   23.7150 C   0  0  0  0  0  3  0  0  0  0  0  0
  -16.7550  -28.5700   23.1280 C   0  0  0  0  0  3  0  0  0  0  0  0
  -25.8900  -32.5440   23.8450 C   0  0  0  0  0  3  0  0  0  0  0  0
  -25.5790  -33.9400   24.1810 N   0  0  0  0  0  0  0  0  0  0  0  0
  -25.9080  -34.9960   23.4230 C   0  0  0  0  0  0  0  0  0  0  0  0
  -26.5750  -34.8960   22.3900 O   0  0  0  0  0  0  0  0  0  0  0  0
  -24.9900  -34.0900   24.9860 H   0  0  0  0  0  0  0  0  0  0  0  0
  -24.1750  -36.7830   23.0710 C   0  0  0  0  0  1  0  0  0  0  0  0
  -25.4160  -36.3810   23.8830 C   0  0  0  0  0  3  0  0  0  0  0  0
  -27.5520  -37.2670   24.7130 C   0  0  0  0  0  1  0  0  0  0  0  0
  -26.4460  -37.4360   23.7730 N   0  0  0  0  0  0  0  0  0  0  0  0
  -26.0390  -38.3550   23.9250 H   0  0  0  0  0  0  0  0  0  0  0  0
  -26.4240  -31.7690   25.1110 C   0  0  1  0  0  0  0  0  0  0  0  0
  -25.3440  -31.5200   26.1890 C   0  0  0  0  0  1  0  0  0  0  0  0
  -27.0080  -30.3960   24.7030 C   0  0  0  0  0  1  0  0  0  0  0  0
  -27.5780  -32.5640   25.7650 C   0  0  0  0  0  1  0  0  0  0  0  0
  2  1  1  0
  3  5  1  0
  5 51  1  0
  5  1  1  0
  6  9  1  0
  6  7  1  0
  6  4  1  0
  7  3  1  6
  7  2  1  0
  7  4  1  0
  9  8  1  0
  9 10  1  0
 10 11  1  0
 12 10  1  0
 13 10  1  0
 13 14  1  0
 15 14  1  0
 16 21  1  0
 17 18  1  0
 17 16  1  0
 19 18  1  0
 19 26  1  0
 19 20  1  0
 21 15  1  0
 21 20  1  0
 22 15  2  0
 23 24  2  0
 24 43  1  0
 25 24  1  0
 25 28  1  0
 26 23  1  0
 26 27  1  0
 27 25  2  0
 28 29  1  0
 29 30  2  0
 31 34  1  0
 31 30  1  0
 32 31  2  0
 33 32  1  0
 33 28  2  0
 34 35  1  0
 35 36  1  0
 36 37  2  0
 38 37  1  0
 38 42  1  0
 39 38  2  0
 40 35  2  0
 40 39  1  0
 41 40  1  0
 43 44  1  0
 44 47  1  0
 44 46  1  0
 45 43  2  0
 48 49  1  0
 48 23  1  0
 50 48  1  0
 52 54  1  0
 52 51  1  0
 53 64  2  0
 54 59  1  0
 55 63  1  0
 55 65  1  0
 56 62  1  0
 56 58  1  0
 57 63  1  0
 58 57  1  0
 59 58  2  0
 60 61  1  0
 60 54  2  0
 61 56  2  0
 62 55  1  0
 63 53  1  0
 65 67  2  0
 66 65  1  0
 68 66  1  0
 69 78  2  0
 69 74  1  0
 70 66  1  0
 70 74  1  0
 71 70  1  0
 72 73  1  0
 72 71  1  0
 73 69  1  0
 74 75  2  0
 75 76  1  0
 77 76  2  0
 78 77  1  0
 79 53  1  0
 79 80  1  0
 79 89  1  0
 80 83  1  0
 81 85  1  0
 81 80  1  0
 82 81  2  0
 85 84  1  0
 87 85  1  0
 87 88  1  0
 87 86  1  0
 89 92  1  1
 89 90  1  0
 91 89  1  0
M  ISO  4  14 100  15 100  51 101  52 101
M  END
>  <TORSDO>  (36) 
F 21

>  <SCORE>  (36) 
-13.489

>  <name>  (36) 
35

>  <ligand_id>  (36) 
35

>  <original_smiles>  (36) 
[H]c1c([H])c([H])c2c(c1[H])C([H])([H])C([H])([H])C([H])([H])C2([H])N([H])C(=O)C1([H])N(C(=O)C([H])(N([H])C(=O)C([H])(N([H])C([H])([H])[H])C([H])([H])[H])C(C([H])([H])[H])(C([H])([H])[H])C([H])([H])[H])C([H])([H])c2c([H])c(OC([H])([H])C3([H])C([H])([H])C([H])([H])C4(C3([H])[H])C([H])([H])C4([H])C([H])(C([H])([H])[H])[N+]([H])([H])C([H])([H])C([H])([H])C(=O)N3C([H])([H])C([H])([H])C([H])([H])C([H])(n4nc(-c5c([H])c([H])c(Oc6c([H])c([H])c(F)c([H])c6F)c([H])c5[H])c(C(=O)N([H])[H])c4N([H])[H])C3([H])[H])c([H])c([H])c2C1([H])[H]

>  <smiles>  (36) 
[H]c1c([H])c([H])c2c(c1[H])C([H])([H])C([H])([H])C([H])([H])C2([H])N([H])C(=O)C1([H])N(C(=O)C([H])(N([H])C(=O)C([H])(N([H])C([H])([H])[H])C([H])([H])[H])C(C([H])([H])[H])(C([H])([H])[H])C([H])([H])[H])C([H])([H])c2c([H])c(OC([H])([H])C3([H])C([H])([H])C([H])([H])C4(C3([H])[H])C([H])([H])C4([H])C([H])(C([H])([H])[H])[N+]([H])([H])C([H])([H])C([H])([H])C(=O)N3C([H])([H])C([H])([H])C([H])([H])C([H])(n4nc(-c5c([H])c([H])c(Oc6c([H])c([H])c(F)c([H])c6F)c([H])c5[H])c(C(=O)N([H])[H])c4N([H])[H])C3([H])[H])c([H])c([H])c2C1([H])[H]

$$$$
36:0:0
     RDKit          3D

 87 95  0  0  1  0  0  0  0  0999 V2000
  -29.1760  -22.0190   20.7700 C   0  0  0  0  0  0  0  0  0  0  0  0
  -28.8660  -23.4260   20.7890 C   0  0  0  0  0  3  0  0  0  0  0  0
  -29.9930  -21.4290   21.9180 C   0  0  0  0  0  2  0  0  0  0  0  0
  -28.9170  -20.6670   19.9150 C   0  0  0  0  0  2  0  0  0  0  0  0
  -30.4050  -19.9570   21.5890 C   0  0  0  0  0  2  0  0  0  0  0  0
  -29.3900  -19.3720   20.6850 N   0  0  2  0  0  4  0  0  0  0  0  0
  -28.5990  -19.1480   21.2700 H   0  0  0  0  0  0  0  0  0  0  0  0
  -28.0250  -24.6110   20.0120 C   0  0  0  0  0  2  0  0  0  0  0  0
  -28.2230  -26.1440   20.3080 O   0  0  0  0  0  0  0  0  0  0  0  0
  -24.6040  -31.8790   23.2420 C   0  0  0  0  0  0  0  0  0  0  0  0
  -27.1710  -27.1380   20.2170 C   0  0  0  0  0  0  0  0  0  0  0  0
  -23.3990  -30.4800   21.6090 C   0  0  0  0  0  3  0  0  0  0  0  0
  -24.8440  -28.8990   20.1830 C   0  0  0  0  0  0  0  0  0  0  0  0
  -25.9540  -30.7380   21.4410 C   0  0  0  0  0  2  0  0  0  0  0  0
  -26.0250  -29.3420   20.7920 C   0  0  0  0  0  0  0  0  0  0  0  0
  -27.1860  -28.4770   20.7930 C   0  0  0  0  0  3  0  0  0  0  0  0
  -25.9670  -26.8080   19.5560 C   0  0  0  0  0  3  0  0  0  0  0  0
  -24.8290  -27.6470   19.5480 C   0  0  0  0  0  3  0  0  0  0  0  0
  -23.6180  -29.7980   20.2320 C   0  0  0  0  0  2  0  0  0  0  0  0
  -24.6730  -31.0540   22.1520 N   0  0  0  0  0  0  0  0  0  0  0  0
  -23.5190  -32.1660   23.7730 O   0  0  0  0  0  0  0  0  0  0  0  0
  -22.7220  -29.4770   22.5770 C   0  0  0  0  0  0  0  0  0  0  0  0
  -21.3940  -29.3010   22.4490 N   0  0  0  0  0  0  0  0  0  0  0  0
  -23.3930  -28.8580   23.4060 O   0  0  0  0  0  0  0  0  0  0  0  0
  -20.9070  -29.8500   21.7540 H   0  0  0  0  0  0  0  0  0  0  0  0
  -18.0200  -28.0730   22.9380 C   0  0  0  0  0  0  0  0  0  0  0  0
  -20.5740  -28.3650   23.2250 C   0  0  0  0  0  3  0  0  0  0  0  0
  -20.6950  -26.9260   22.6690 C   0  0  0  0  0  2  0  0  0  0  0  0
  -19.6050  -26.5810   21.6490 C   0  0  0  0  0  2  0  0  0  0  0  0
  -18.2170  -26.7180   22.2790 C   0  0  0  0  0  2  0  0  0  0  0  0
  -19.1270  -28.8530   23.3680 C   0  0  0  0  0  0  0  0  0  0  0  0
  -18.8880  -30.1190   23.9450 C   0  0  0  0  0  3  0  0  0  0  0  0
  -17.5760  -30.6060   24.0960 C   0  0  0  0  0  3  0  0  0  0  0  0
  -16.4840  -29.8240   23.6820 C   0  0  0  0  0  3  0  0  0  0  0  0
  -16.7080  -28.5600   23.1080 C   0  0  0  0  0  3  0  0  0  0  0  0
  -25.8830  -32.5160   23.8650 C   0  0  0  0  0  3  0  0  0  0  0  0
  -26.3940  -31.7520   25.1490 C   0  0  1  0  0  0  0  0  0  0  0  0
  -25.2990  -31.5260   26.2180 C   0  0  0  0  0  1  0  0  0  0  0  0
  -26.9730  -30.3690   24.7720 C   0  0  0  0  0  1  0  0  0  0  0  0
  -27.5470  -32.5480   25.8070 C   0  0  0  0  0  1  0  0  0  0  0  0
  -25.5720  -33.9170   24.1950 N   0  0  0  0  0  0  0  0  0  0  0  0
  -25.8990  -34.9730   23.4370 C   0  0  0  0  0  0  0  0  0  0  0  0
  -26.5600  -34.8700   22.4010 O   0  0  0  0  0  0  0  0  0  0  0  0
  -24.9840  -34.0710   25.0020 H   0  0  0  0  0  0  0  0  0  0  0  0
  -24.1670  -36.7680   23.1050 C   0  0  0  0  0  1  0  0  0  0  0  0
  -25.4180  -36.3620   23.9010 C   0  0  0  0  0  3  0  0  0  0  0  0
  -27.5620  -37.2490   24.7060 C   0  0  0  0  0  1  0  0  0  0  0  0
  -26.4490  -37.4150   23.7750 N   0  0  0  0  0  0  0  0  0  0  0  0
  -26.0440  -38.3360   23.9250 H   0  0  0  0  0  0  0  0  0  0  0  0
  -29.8180  -17.9770   20.0120 C   0  0  0  0  0  3  0  0  0  0  0  0
  -29.7400  -16.4530   20.7760 C   0  0  0  0  0  3  0  0  0  0  0  0
  -30.5000  -15.0240   20.3360 C   0  0  0  0  0  0  0  0  0  0  0  0
  -30.3980  -12.6610   19.3830 C   0  0  0  0  0  2  0  0  0  0  0  0
  -29.4720  -12.6320   18.1420 C   0  0  0  0  0  2  0  0  0  0  0  0
  -28.0050  -12.4220   18.5620 C   0  0  0  0  0  2  0  0  0  0  0  0
  -27.5960  -13.3380   19.7450 C   0  0  0  0  0  3  0  0  0  0  0  0
  -28.6440  -13.3310   20.8770 C   0  0  0  0  0  2  0  0  0  0  0  0
  -29.9250  -13.7480   20.2930 N   0  0  0  0  0  0  0  0  0  0  0  0
  -31.6800  -15.0840   19.9690 O   0  0  0  0  0  0  0  0  0  0  0  0
  -25.2070  -13.9180   20.4540 C   0  0  0  0  0  0  0  0  0  0  0  0
  -24.1410  -13.1450   20.8220 C   0  0  0  0  0  0  0  0  0  0  0  0
  -24.6080  -11.7950   20.8120 C   0  0  0  0  0  0  0  0  0  0  0  0
  -26.2530  -13.0390   20.2330 N   0  0  0  0  0  0  0  0  0  0  0  0
  -25.9010  -11.7570   20.5140 N   0  0  0  0  0  0  0  0  0  0  0  0
  -23.8800  -10.5340   21.0080 C   0  0  0  0  0  0  0  0  0  0  0  0
  -24.3070   -9.5730   21.9510 C   0  0  0  0  0  3  0  0  0  0  0  0
  -23.5780   -8.3780   22.1360 C   0  0  0  0  0  3  0  0  0  0  0  0
  -22.4070   -8.1360   21.3790 C   0  0  0  0  0  0  0  0  0  0  0  0
  -21.9990   -9.0850   20.4260 C   0  0  0  0  0  3  0  0  0  0  0  0
  -22.7290  -10.2720   20.2380 C   0  0  0  0  0  3  0  0  0  0  0  0
  -21.6500   -6.9930   21.4730 O   0  0  0  0  0  0  0  0  0  0  0  0
  -21.6030   -6.2540   22.6280 C   0  0  0  0  0  0  0  0  0  0  0  0
  -21.1840   -6.8150   23.8540 C   0  0  0  0  0  3  0  0  0  0  0  0
  -21.0820   -6.0030   25.0010 C   0  0  0  0  0  3  0  0  0  0  0  0
  -21.3900   -4.6310   24.9240 C   0  0  0  0  0  0  0  0  0  0  0  0
  -21.8010   -4.0700   23.7020 C   0  0  0  0  0  3  0  0  0  0  0  0
  -21.9040   -4.8790   22.5570 C   0  0  0  0  0  0  0  0  0  0  0  0
  -22.2800   -4.3280   21.3780 F   0  0  0  0  0  0  0  0  0  0  0  0
  -21.2850   -3.8500   26.0230 F   0  0  0  0  0  0  0  0  0  0  0  0
  -22.7400  -13.6240   21.0730 C   0  0  0  0  0  0  0  0  0  0  0  0
  -22.0030  -12.9380   21.9390 N   0  0  0  0  0  0  0  0  0  0  0  0
  -22.3080  -14.6420   20.5340 O   0  0  0  0  0  0  0  0  0  0  0  0
  -22.3650  -12.1140   22.3970 H   0  0  0  0  0  0  0  0  0  0  0  0
  -21.0630  -13.2420   22.1480 H   0  0  0  0  0  0  0  0  0  0  0  0
  -25.3700  -15.2870   20.2630 N   0  0  0  0  0  0  0  0  0  0  0  0
  -24.5980  -15.9390   20.3570 H   0  0  0  0  0  0  0  0  0  0  0  0
  -26.2170  -15.7210   19.9210 H   0  0  0  0  0  0  0  0  0  0  0  0
  1  2  2  0
  1  3  1  0
  4  6  1  0
  4  1  1  0
  5  3  1  0
  6  7  1  1
  6  5  1  0
  8  9  1  0
  8  2  1  0
 10 21  2  0
 11  9  1  0
 11 16  1  0
 12 20  1  0
 12 22  1  0
 13 19  1  0
 13 15  1  0
 14 20  1  0
 15 16  2  0
 15 14  1  0
 17 11  2  0
 18 17  1  0
 18 13  2  0
 19 12  1  0
 20 10  1  0
 22 24  2  0
 23 22  1  0
 25 23  1  0
 26 35  2  0
 26 31  1  0
 27 23  1  0
 27 31  1  0
 28 27  1  0
 29 30  1  0
 29 28  1  0
 30 26  1  0
 31 32  2  0
 32 33  1  0
 34 33  2  0
 35 34  1  0
 36 10  1  0
 36 41  1  0
 36 37  1  0
 37 40  1  1
 37 38  1  0
 39 37  1  0
 41 44  1  0
 42 46  1  0
 42 41  1  0
 43 42  2  0
 46 45  1  0
 48 46  1  0
 48 49  1  0
 48 47  1  0
 50  6  1  0
 50 51  2  0
 52 51  1  0
 53 58  1  0
 54 55  1  0
 54 53  1  0
 56 55  1  0
 56 63  1  0
 56 57  1  0
 58 52  1  0
 58 57  1  0
 59 52  2  0
 60 61  2  0
 61 80  1  0
 62 61  1  0
 62 65  1  0
 63 60  1  0
 63 64  1  0
 64 62  2  0
 65 66  1  0
 66 67  2  0
 68 71  1  0
 68 67  1  0
 69 68  2  0
 70 69  1  0
 70 65  2  0
 71 72  1  0
 72 73  1  0
 73 74  2  0
 75 74  1  0
 75 79  1  0
 76 75  2  0
 77 72  2  0
 77 76  1  0
 78 77  1  0
 80 81  1  0
 81 84  1  0
 81 83  1  0
 82 80  2  0
 85 86  1  0
 85 60  1  0
 87 85  1  0
M  ISO  4   8 101   9 101  51 100  52 100
M  END
>  <TORSDO>  (37) 
F 19

>  <SCORE>  (37) 
-15.000

>  <name>  (37) 
36

>  <ligand_id>  (37) 
36

>  <original_smiles>  (37) 
[H]C(=C1C([H])([H])C([H])([H])[N+]([H])(C([H])([H])C([H])([H])C(=O)N2C([H])([H])C([H])([H])C([H])([H])C([H])(n3nc(-c4c([H])c([H])c(Oc5c([H])c([H])c(F)c([H])c5F)c([H])c4[H])c(C(=O)N([H])[H])c3N([H])[H])C2([H])[H])C1([H])[H])C([H])([H])Oc1c([H])c([H])c2c(c1[H])C([H])([H])N(C(=O)C([H])(N([H])C(=O)C([H])(N([H])C([H])([H])[H])C([H])([H])[H])C(C([H])([H])[H])(C([H])([H])[H])C([H])([H])[H])C([H])(C(=O)N([H])C1([H])c3c([H])c([H])c([H])c([H])c3C([H])([H])C([H])([H])C1([H])[H])C2([H])[H]

>  <smiles>  (37) 
[H]C(=C1C([H])([H])C([H])([H])[N+]([H])(C([H])([H])C([H])([H])C(=O)N2C([H])([H])C([H])([H])C([H])([H])C([H])(n3nc(-c4c([H])c([H])c(Oc5c([H])c([H])c(F)c([H])c5F)c([H])c4[H])c(C(=O)N([H])[H])c3N([H])[H])C2([H])[H])C1([H])[H])C([H])([H])Oc1c([H])c([H])c2c(c1[H])C([H])([H])N(C(=O)C([H])(N([H])C(=O)C([H])(N([H])C([H])([H])[H])C([H])([H])[H])C(C([H])([H])[H])(C([H])([H])[H])C([H])([H])[H])C([H])(C(=O)N([H])C1([H])c3c([H])c([H])c([H])c([H])c3C([H])([H])C([H])([H])C1([H])[H])C2([H])[H]

$$$$
37:0:0
     RDKit          3D

 91 99  0  0  1  0  0  0  0  0999 V2000
  -26.6820  -21.2200   21.2690 C   0  0  0  0  0  2  0  0  0  0  0  0
  -27.8380  -20.2560   21.0830 C   0  0  0  0  0  2  0  0  0  0  0  0
  -27.2450  -22.5470   20.7960 C   0  0  0  0  0  2  0  0  0  0  0  0
  -28.9950  -21.0720   20.4660 C   0  0  0  0  0  3  0  0  0  0  0  0
  -28.2670  -22.1910   19.8060 N   0  0  0  0  0  0  0  0  0  0  0  0
  -29.9120  -20.1270   19.6130 C   0  0  0  0  0  2  0  0  0  0  0  0
  -30.3840  -18.9630   20.4320 N   0  0  0  0  0  4  0  0  0  0  0  0
  -29.5790  -18.6460   20.9470 H   0  0  0  0  0  0  0  0  0  0  0  0
  -31.0510  -19.3070   21.1050 H   0  0  0  0  0  0  0  0  0  0  0  0
  -30.9740  -17.7770   19.7350 C   0  0  0  0  0  2  0  0  0  0  0  0
  -30.9800  -16.4890   20.6310 C   0  0  0  0  0  2  0  0  0  0  0  0
  -31.6770  -15.2340   20.0190 C   0  0  0  0  0  0  0  0  0  0  0  0
  -31.4280  -12.9860   19.0090 C   0  0  0  0  0  2  0  0  0  0  0  0
  -30.4670  -13.0930   17.8050 C   0  0  0  0  0  2  0  0  0  0  0  0
  -28.9970  -12.9700   18.2550 C   0  0  0  0  0  2  0  0  0  0  0  0
  -28.6650  -13.8790   19.4690 C   0  0  0  0  0  3  0  0  0  0  0  0
  -29.7350  -13.7180   20.5730 C   0  0  0  0  0  2  0  0  0  0  0  0
  -31.0450  -14.0260   19.9780 N   0  0  0  0  0  0  0  0  0  0  0  0
  -32.7880  -15.3920   19.5020 O   0  0  0  0  0  0  0  0  0  0  0  0
  -26.2980  -14.5360   20.2390 C   0  0  0  0  0  0  0  0  0  0  0  0
  -25.2220  -13.7850   20.6270 C   0  0  0  0  0  0  0  0  0  0  0  0
  -25.6510  -12.4230   20.5730 C   0  0  0  0  0  0  0  0  0  0  0  0
  -27.3170  -13.6320   19.9750 N   0  0  0  0  0  0  0  0  0  0  0  0
  -26.9310  -12.3570   20.2320 N   0  0  0  0  0  0  0  0  0  0  0  0
  -24.9000  -11.1770   20.7690 C   0  0  0  0  0  0  0  0  0  0  0  0
  -25.2230  -10.2770   21.8090 C   0  0  0  0  0  3  0  0  0  0  0  0
  -24.4760   -9.0940   21.9880 C   0  0  0  0  0  3  0  0  0  0  0  0
  -23.3910   -8.8010   21.1260 C   0  0  0  0  0  0  0  0  0  0  0  0
  -23.0890   -9.6880   20.0790 C   0  0  0  0  0  3  0  0  0  0  0  0
  -23.8370  -10.8650   19.8990 C   0  0  0  0  0  3  0  0  0  0  0  0
  -22.6260   -7.6630   21.2100 O   0  0  0  0  0  0  0  0  0  0  0  0
  -22.2990   -7.1020   22.4180 C   0  0  0  0  0  0  0  0  0  0  0  0
  -21.5810   -7.8170   23.4020 C   0  0  0  0  0  3  0  0  0  0  0  0
  -21.2050   -7.1800   24.6020 C   0  0  0  0  0  3  0  0  0  0  0  0
  -21.5370   -5.8290   24.8160 C   0  0  0  0  0  0  0  0  0  0  0  0
  -22.2470   -5.1140   23.8350 C   0  0  0  0  0  3  0  0  0  0  0  0
  -22.6240   -5.7480   22.6390 C   0  0  0  0  0  0  0  0  0  0  0  0
  -23.2890   -5.0490   21.6880 F   0  0  0  0  0  0  0  0  0  0  0  0
  -21.1700   -5.2140   25.9640 F   0  0  0  0  0  0  0  0  0  0  0  0
  -23.8420  -14.2920   20.9360 C   0  0  0  0  0  0  0  0  0  0  0  0
  -23.1220  -13.6110   21.8200 N   0  0  0  0  0  0  0  0  0  0  0  0
  -23.4140  -15.3290   20.4290 O   0  0  0  0  0  0  0  0  0  0  0  0
  -23.4810  -12.7730   22.2520 H   0  0  0  0  0  0  0  0  0  0  0  0
  -22.1960  -13.9330   22.0670 H   0  0  0  0  0  0  0  0  0  0  0  0
  -26.4910  -15.9030   20.0660 N   0  0  0  0  0  0  0  0  0  0  0  0
  -25.7320  -16.5670   20.1750 H   0  0  0  0  0  0  0  0  0  0  0  0
  -27.3180  -16.3120   19.6530 H   0  0  0  0  0  0  0  0  0  0  0  0
  -29.0600  -23.3870   19.4220 C   0  0  0  0  0  2  0  0  0  0  0  0
  -28.2230  -24.7190   19.3230 C   0  0  0  0  0  2  0  0  0  0  0  0
  -28.8860  -25.9410   18.6160 C   0  0  0  0  0  2  0  0  0  0  0  0
  -28.7340  -27.2310   19.2590 O   0  0  0  0  0  0  0  0  0  0  0  0
  -24.7560  -31.6540   23.1850 C   0  0  0  0  0  0  0  0  0  0  0  0
  -27.5070  -27.8680   19.3680 C   0  0  0  0  0  0  0  0  0  0  0  0
  -23.5560  -30.4280   21.4040 C   0  0  0  0  0  3  0  0  0  0  0  0
  -25.0270  -29.2130   19.7050 C   0  0  0  0  0  0  0  0  0  0  0  0
  -26.0460  -30.9710   21.1610 C   0  0  0  0  0  2  0  0  0  0  0  0
  -26.1800  -29.7140   20.3200 C   0  0  0  0  0  0  0  0  0  0  0  0
  -27.4180  -29.0460   20.1530 C   0  0  0  0  0  3  0  0  0  0  0  0
  -26.3320  -27.3910   18.7430 C   0  0  0  0  0  3  0  0  0  0  0  0
  -25.1000  -28.0510   18.9170 C   0  0  0  0  0  3  0  0  0  0  0  0
  -23.7380  -29.9710   19.9300 C   0  0  0  0  0  2  0  0  0  0  0  0
  -24.8060  -31.0260   21.9760 N   0  0  0  0  0  0  0  0  0  0  0  0
  -23.6880  -31.7730   23.8030 O   0  0  0  0  0  0  0  0  0  0  0  0
  -23.0170  -29.2370   22.2280 C   0  0  0  0  0  0  0  0  0  0  0  0
  -21.7160  -28.9400   22.0730 N   0  0  0  0  0  0  0  0  0  0  0  0
  -23.7650  -28.5900   22.9670 O   0  0  0  0  0  0  0  0  0  0  0  0
  -21.1690  -29.5250   21.4580 H   0  0  0  0  0  0  0  0  0  0  0  0
  -18.5020  -27.3150   22.3470 C   0  0  0  0  0  0  0  0  0  0  0  0
  -21.0060  -27.8350   22.7170 C   0  0  0  0  0  3  0  0  0  0  0  0
  -21.2870  -26.4970   21.9940 C   0  0  0  0  0  2  0  0  0  0  0  0
  -20.2460  -26.1570   20.9240 C   0  0  0  0  0  2  0  0  0  0  0  0
  -18.8470  -26.0730   21.5410 C   0  0  0  0  0  2  0  0  0  0  0  0
  -19.5150  -28.1490   22.8860 C   0  0  0  0  0  0  0  0  0  0  0  0
  -19.1410  -29.3090   23.5990 C   0  0  0  0  0  3  0  0  0  0  0  0
  -17.7850  -29.6350   23.7810 C   0  0  0  0  0  3  0  0  0  0  0  0
  -16.7840  -28.7980   23.2570 C   0  0  0  0  0  3  0  0  0  0  0  0
  -17.1440  -27.6390   22.5460 C   0  0  0  0  0  3  0  0  0  0  0  0
  -26.0300  -32.2750   23.8380 C   0  0  0  0  0  3  0  0  0  0  0  0
  -25.6780  -33.6260   24.2970 N   0  0  0  0  0  0  0  0  0  0  0  0
  -25.9780  -34.7540   23.6390 C   0  0  0  0  0  0  0  0  0  0  0  0
  -26.6490  -34.7690   22.6050 O   0  0  0  0  0  0  0  0  0  0  0  0
  -25.0800  -33.6860   25.1070 H   0  0  0  0  0  0  0  0  0  0  0  0
  -24.1980  -36.5210   23.4470 C   0  0  0  0  0  1  0  0  0  0  0  0
  -25.4480  -36.0780   24.2230 C   0  0  0  0  0  3  0  0  0  0  0  0
  -27.5500  -36.9460   25.1510 C   0  0  0  0  0  1  0  0  0  0  0  0
  -26.4500  -37.1680   24.2160 N   0  0  0  0  0  0  0  0  0  0  0  0
  -26.0130  -38.0570   24.4450 H   0  0  0  0  0  0  0  0  0  0  0  0
  -26.6020  -31.4130   25.0290 C   0  0  1  0  0  0  0  0  0  0  0  0
  -25.5420  -31.0430   26.0920 C   0  0  0  0  0  1  0  0  0  0  0  0
  -27.2230  -30.0970   24.5040 C   0  0  0  0  0  1  0  0  0  0  0  0
  -27.7390  -32.1860   25.7360 C   0  0  0  0  0  1  0  0  0  0  0  0
  2  1  1  0
  3  1  1  0
  4  6  1  0
  4  2  1  0
  5  4  1  0
  5  3  1  0
  6  7  1  0
  7  8  1  0
  7  9  1  0
 10  7  1  0
 10 11  1  0
 12 11  1  0
 13 18  1  0
 14 15  1  0
 14 13  1  0
 16 15  1  0
 16 23  1  0
 16 17  1  0
 18 12  1  0
 18 17  1  0
 19 12  2  0
 20 21  2  0
 21 40  1  0
 22 21  1  0
 22 25  1  0
 23 24  1  0
 23 20  1  0
 24 22  2  0
 25 26  1  0
 26 27  2  0
 28 31  1  0
 28 27  1  0
 29 28  2  0
 30 29  1  0
 30 25  2  0
 31 32  1  0
 32 37  2  0
 32 33  1  0
 33 34  2  0
 34 35  1  0
 35 39  1  0
 36 35  2  0
 37 36  1  0
 38 37  1  0
 40 41  1  0
 41 44  1  0
 41 43  1  0
 42 40  2  0
 45 46  1  0
 45 20  1  0
 47 45  1  0
 48  5  1  0
 49 48  1  0
 50 51  1  0
 50 49  1  0
 51 53  1  0
 52 63  2  0
 53 58  1  0
 54 62  1  0
 54 64  1  0
 55 61  1  0
 55 57  1  0
 56 62  1  0
 57 56  1  0
 58 57  2  0
 59 60  1  0
 59 53  2  0
 60 55  2  0
 61 54  1  0
 62 52  1  0
 64 66  2  0
 65 64  1  0
 67 65  1  0
 68 77  2  0
 68 73  1  0
 69 65  1  0
 69 73  1  0
 70 69  1  0
 71 72  1  0
 71 70  1  0
 72 68  1  0
 73 74  2  0
 74 75  1  0
 76 75  2  0
 77 76  1  0
 78 52  1  0
 78 79  1  0
 78 88  1  0
 79 82  1  0
 80 84  1  0
 80 79  1  0
 81 80  2  0
 84 83  1  0
 86 84  1  0
 86 87  1  0
 86 85  1  0
 88 91  1  1
 88 89  1  0
 90 88  1  0
M  ISO  4  11 100  12 100  50 101  51 101
M  END
>  <TORSDO>  (38) 
F 23

>  <SCORE>  (38) 
-7.174

>  <name>  (38) 
37

>  <ligand_id>  (38) 
37

>  <original_smiles>  (38) 
[H]c1c([H])c([H])c2c(c1[H])C([H])([H])C([H])([H])C([H])([H])C2([H])N([H])C(=O)C1([H])N(C(=O)C([H])(N([H])C(=O)C([H])(N([H])C([H])([H])[H])C([H])([H])[H])C(C([H])([H])[H])(C([H])([H])[H])C([H])([H])[H])C([H])([H])c2c([H])c(OC([H])([H])C([H])([H])C([H])([H])N3C([H])([H])C([H])([H])C([H])([H])C3([H])C([H])([H])[N+]([H])([H])C([H])([H])C([H])([H])C(=O)N3C([H])([H])C([H])([H])C([H])([H])C([H])(n4nc(-c5c([H])c([H])c(Oc6c([H])c([H])c(F)c([H])c6F)c([H])c5[H])c(C(=O)N([H])[H])c4N([H])[H])C3([H])[H])c([H])c([H])c2C1([H])[H]

>  <smiles>  (38) 
[H]c1c([H])c([H])c2c(c1[H])C([H])([H])C([H])([H])C([H])([H])C2([H])N([H])C(=O)C1([H])N(C(=O)C([H])(N([H])C(=O)C([H])(N([H])C([H])([H])[H])C([H])([H])[H])C(C([H])([H])[H])(C([H])([H])[H])C([H])([H])[H])C([H])([H])c2c([H])c(OC([H])([H])C([H])([H])C([H])([H])N3C([H])([H])C([H])([H])C([H])([H])C3([H])C([H])([H])[N+]([H])([H])C([H])([H])C([H])([H])C(=O)N3C([H])([H])C([H])([H])C([H])([H])C([H])(n4nc(-c5c([H])c([H])c(Oc6c([H])c([H])c(F)c([H])c6F)c([H])c5[H])c(C(=O)N([H])[H])c4N([H])[H])C3([H])[H])c([H])c([H])c2C1([H])[H]

$$$$
38:0:0
     RDKit          3D

 92100  0  0  1  0  0  0  0  0999 V2000
  -29.1530  -20.4680   20.8450 N   0  0  0  0  0  4  0  0  0  0  0  0
  -28.4630  -20.4310   21.5790 H   0  0  0  0  0  0  0  0  0  0  0  0
  -30.0240  -20.2410   21.3000 H   0  0  0  0  0  0  0  0  0  0  0  0
  -29.3550  -22.0010   20.4140 C   0  0  0  0  0  2  0  0  0  0  0  0
  -28.2270  -23.2620   20.2410 C   0  0  0  0  0  2  0  0  0  0  0  0
  -28.3390  -24.8470   20.8530 C   0  0  0  0  0  2  0  0  0  0  0  0
  -28.3030  -26.2820   20.2240 O   0  0  0  0  0  0  0  0  0  0  0  0
  -24.6050  -31.9590   23.2390 C   0  0  0  0  0  0  0  0  0  0  0  0
  -27.2120  -27.2220   20.2700 C   0  0  0  0  0  0  0  0  0  0  0  0
  -23.4180  -30.5440   21.6080 C   0  0  0  0  0  3  0  0  0  0  0  0
  -24.8760  -28.9560   20.2080 C   0  0  0  0  0  0  0  0  0  0  0  0
  -25.9700  -30.8220   21.4420 C   0  0  0  0  0  2  0  0  0  0  0  0
  -26.0530  -29.4200   20.8100 C   0  0  0  0  0  0  0  0  0  0  0  0
  -27.2250  -28.5720   20.8150 C   0  0  0  0  0  3  0  0  0  0  0  0
  -26.0090  -26.8530   19.6400 C   0  0  0  0  0  3  0  0  0  0  0  0
  -24.8660  -27.6860   19.6080 C   0  0  0  0  0  3  0  0  0  0  0  0
  -23.6450  -29.8510   20.2370 C   0  0  0  0  0  2  0  0  0  0  0  0
  -24.6850  -31.1320   22.1500 N   0  0  0  0  0  0  0  0  0  0  0  0
  -23.5160  -32.2410   23.7630 O   0  0  0  0  0  0  0  0  0  0  0  0
  -22.7420  -29.5420   22.5770 C   0  0  0  0  0  0  0  0  0  0  0  0
  -21.4180  -29.3500   22.4360 N   0  0  0  0  0  0  0  0  0  0  0  0
  -23.4130  -28.9380   23.4170 O   0  0  0  0  0  0  0  0  0  0  0  0
  -20.9340  -29.8850   21.7300 H   0  0  0  0  0  0  0  0  0  0  0  0
  -18.0520  -28.0960   22.9060 C   0  0  0  0  0  0  0  0  0  0  0  0
  -20.6020  -28.4110   23.2100 C   0  0  0  0  0  3  0  0  0  0  0  0
  -20.7400  -26.9720   22.6610 C   0  0  0  0  0  2  0  0  0  0  0  0
  -19.6600  -26.6120   21.6350 C   0  0  0  0  0  2  0  0  0  0  0  0
  -18.2640  -26.7410   22.2530 C   0  0  0  0  0  2  0  0  0  0  0  0
  -19.1490  -28.8860   23.3410 C   0  0  0  0  0  0  0  0  0  0  0  0
  -18.8950  -30.1520   23.9130 C   0  0  0  0  0  3  0  0  0  0  0  0
  -17.5790  -30.6280   24.0540 C   0  0  0  0  0  3  0  0  0  0  0  0
  -16.4960  -29.8350   23.6350 C   0  0  0  0  0  3  0  0  0  0  0  0
  -16.7340  -28.5720   23.0670 C   0  0  0  0  0  3  0  0  0  0  0  0
  -25.8780  -32.6070   23.8660 C   0  0  0  0  0  3  0  0  0  0  0  0
  -26.3800  -31.8580   25.1610 C   0  0  1  0  0  0  0  0  0  0  0  0
  -25.2770  -31.6380   26.2230 C   0  0  0  0  0  1  0  0  0  0  0  0
  -26.9690  -30.4730   24.8040 C   0  0  0  0  0  1  0  0  0  0  0  0
  -27.5220  -32.6650   25.8220 C   0  0  0  0  0  1  0  0  0  0  0  0
  -25.5590  -34.0090   24.1790 N   0  0  0  0  0  0  0  0  0  0  0  0
  -25.9020  -35.0580   23.4220 C   0  0  0  0  0  0  0  0  0  0  0  0
  -26.5850  -34.9490   22.4010 O   0  0  0  0  0  0  0  0  0  0  0  0
  -24.9530  -34.1680   24.9710 H   0  0  0  0  0  0  0  0  0  0  0  0
  -24.1870  -36.8600   23.0310 C   0  0  0  0  0  1  0  0  0  0  0  0
  -25.4100  -36.4510   23.8660 C   0  0  0  0  0  3  0  0  0  0  0  0
  -27.5310  -37.3330   24.7360 C   0  0  0  0  0  1  0  0  0  0  0  0
  -26.4470  -37.5020   23.7730 N   0  0  0  0  0  0  0  0  0  0  0  0
  -26.0390  -38.4230   23.9140 H   0  0  0  0  0  0  0  0  0  0  0  0
  -28.9110  -19.2430   19.8820 C   0  0  0  0  0  3  0  0  0  0  0  0
  -30.6990  -15.1280   20.7060 C   0  0  0  0  0  0  0  0  0  0  0  0
  -30.5700  -12.7740   19.7790 C   0  0  0  0  0  2  0  0  0  0  0  0
  -29.7170  -12.6260   18.5070 C   0  0  0  0  0  2  0  0  0  0  0  0
  -28.2440  -12.3920   18.8800 C   0  0  0  0  0  2  0  0  0  0  0  0
  -27.7460  -13.3530   19.9900 C   0  0  0  0  0  3  0  0  0  0  0  0
  -28.7450  -13.5010   21.1520 C   0  0  0  0  0  2  0  0  0  0  0  0
  -30.0070  -13.9280   20.5390 N   0  0  0  0  0  0  0  0  0  0  0  0
  -31.9240  -14.9810   20.8000 O   0  0  0  0  0  0  0  0  0  0  0  0
  -30.1180  -17.0430   17.9100 C   0  0  0  0  0  2  0  0  0  0  0  0
  -28.8230  -17.0810   18.7110 C   0  0  0  0  0  2  0  0  0  0  0  0
  -31.1360  -16.7910   18.9910 C   0  0  0  0  0  2  0  0  0  0  0  0
  -29.1340  -17.5200   20.2020 C   0  0  0  0  0  3  0  0  0  0  0  0
  -30.2820  -16.3910   20.1290 N   0  0  0  0  0  0  0  0  0  0  0  0
  -25.3320  -13.9160   20.5940 C   0  0  0  0  0  0  0  0  0  0  0  0
  -24.2550  -13.1330   20.9090 C   0  0  0  0  0  0  0  0  0  0  0  0
  -24.7390  -11.7900   20.9330 C   0  0  0  0  0  0  0  0  0  0  0  0
  -26.3960  -13.0470   20.4340 N   0  0  0  0  0  0  0  0  0  0  0  0
  -26.0480  -11.7640   20.7060 N   0  0  0  0  0  0  0  0  0  0  0  0
  -24.0190  -10.5200   21.0980 C   0  0  0  0  0  0  0  0  0  0  0  0
  -24.4110   -9.5730   22.0690 C   0  0  0  0  0  3  0  0  0  0  0  0
  -23.6910   -8.3690   22.2260 C   0  0  0  0  0  3  0  0  0  0  0  0
  -22.5650   -8.1040   21.4090 C   0  0  0  0  0  0  0  0  0  0  0  0
  -22.1940   -9.0410   20.4290 C   0  0  0  0  0  3  0  0  0  0  0  0
  -22.9150  -10.2370   20.2710 C   0  0  0  0  0  3  0  0  0  0  0  0
  -21.8230   -6.9490   21.4720 O   0  0  0  0  0  0  0  0  0  0  0  0
  -21.7230   -6.2210   22.6290 C   0  0  0  0  0  0  0  0  0  0  0  0
  -21.2240   -6.7860   23.8250 C   0  0  0  0  0  3  0  0  0  0  0  0
  -21.0740   -5.9820   24.9720 C   0  0  0  0  0  3  0  0  0  0  0  0
  -21.4100   -4.6150   24.9250 C   0  0  0  0  0  0  0  0  0  0  0  0
  -21.9020   -4.0520   23.7340 C   0  0  0  0  0  3  0  0  0  0  0  0
  -22.0560   -4.8520   22.5900 C   0  0  0  0  0  0  0  0  0  0  0  0
  -22.5100   -4.2990   21.4380 F   0  0  0  0  0  0  0  0  0  0  0  0
  -21.2580   -3.8410   26.0250 F   0  0  0  0  0  0  0  0  0  0  0  0
  -22.8380  -13.5990   21.0720 C   0  0  0  0  0  0  0  0  0  0  0  0
  -22.0640  -12.9160   21.9080 N   0  0  0  0  0  0  0  0  0  0  0  0
  -22.4230  -14.6020   20.4950 O   0  0  0  0  0  0  0  0  0  0  0  0
  -22.4150  -12.1070   22.3990 H   0  0  0  0  0  0  0  0  0  0  0  0
  -21.1090  -13.2070   22.0640 H   0  0  0  0  0  0  0  0  0  0  0  0
  -25.4890  -15.2850   20.4010 N   0  0  0  0  0  0  0  0  0  0  0  0
  -24.7070  -15.9260   20.4550 H   0  0  0  0  0  0  0  0  0  0  0  0
  -26.3590  -15.7260   20.1360 H   0  0  0  0  0  0  0  0  0  0  0  0
  -27.4140  -19.5100   19.4950 C   0  0  0  0  0  2  0  0  0  0  0  0
  -25.7760  -20.5530   17.8360 C   0  0  0  0  0  1  0  0  0  0  0  0
  -27.2470  -20.2680   18.1620 C   0  0  0  0  0  2  0  0  0  0  0  0
  1  3  1  0
  1  2  1  0
  4  1  1  0
  5  4  1  0
  5  6  1  0
  7  9  1  0
  7  6  1  0
  8 19  2  0
  9 14  1  0
 10 18  1  0
 10 20  1  0
 11 17  1  0
 11 13  1  0
 12 18  1  0
 13 14  2  0
 13 12  1  0
 15  9  2  0
 16 15  1  0
 16 11  2  0
 17 10  1  0
 18  8  1  0
 20 22  2  0
 21 20  1  0
 23 21  1  0
 24 33  2  0
 24 29  1  0
 25 21  1  0
 25 29  1  0
 26 25  1  0
 27 28  1  0
 27 26  1  0
 28 24  1  0
 29 30  2  0
 30 31  1  0
 32 31  2  0
 33 32  1  0
 34  8  1  0
 34 39  1  0
 34 35  1  0
 35 38  1  1
 35 36  1  0
 37 35  1  0
 39 42  1  0
 40 44  1  0
 40 39  1  0
 41 40  2  0
 44 43  1  0
 46 44  1  0
 46 47  1  0
 46 45  1  0
 48 90  1  0
 48  1  1  0
 49 56  2  0
 50 55  1  0
 51 52  1  0
 51 50  1  0
 53 52  1  0
 53 65  1  0
 53 54  1  0
 55 49  1  0
 55 54  1  0
 57 58  1  0
 57 59  1  0
 58 60  1  0
 59 61  1  0
 60 48  1  0
 61 60  1  0
 61 49  1  0
 62 63  2  0
 63 64  1  0
 63 82  1  0
 64 67  1  0
 65 62  1  0
 65 66  1  0
 66 64  2  0
 67 68  1  0
 68 69  2  0
 70 73  1  0
 70 69  1  0
 71 70  2  0
 72 71  1  0
 72 67  2  0
 73 74  1  0
 74 75  1  0
 75 76  2  0
 77 76  1  0
 77 81  1  0
 78 77  2  0
 79 74  2  0
 79 78  1  0
 80 79  1  0
 82 83  1  0
 83 86  1  0
 83 85  1  0
 84 82  2  0
 87 88  1  0
 87 62  1  0
 89 87  1  0
 91 92  1  0
 92 90  1  0
M  ISO  4   6 101   7 101  49 100  61 100
M  END
>  <TORSDO>  (39) 
F 22

>  <SCORE>  (39) 
-14.373

>  <name>  (39) 
38

>  <ligand_id>  (39) 
38

>  <original_smiles>  (39) 
[H]c1c([H])c([H])c2c(c1[H])C([H])([H])C([H])([H])C([H])([H])C2([H])N([H])C(=O)C1([H])N(C(=O)C([H])(N([H])C(=O)C([H])(N([H])C([H])([H])[H])C([H])([H])[H])C(C([H])([H])[H])(C([H])([H])[H])C([H])([H])[H])C([H])([H])c2c([H])c(OC([H])([H])C([H])([H])C([H])([H])[N+]([H])([H])C([H])(C([H])([H])C([H])([H])C([H])([H])[H])C3([H])N(C(=O)N4C([H])([H])C([H])([H])C([H])([H])C([H])(n5nc(-c6c([H])c([H])c(Oc7c([H])c([H])c(F)c([H])c7F)c([H])c6[H])c(C(=O)N([H])[H])c5N([H])[H])C4([H])[H])C([H])([H])C([H])([H])C3([H])[H])c([H])c([H])c2C1([H])[H]

>  <smiles>  (39) 
[H]c1c([H])c([H])c2c(c1[H])C([H])([H])C([H])([H])C([H])([H])C2([H])N([H])C(=O)C1([H])N(C(=O)C([H])(N([H])C(=O)C([H])(N([H])C([H])([H])[H])C([H])([H])[H])C(C([H])([H])[H])(C([H])([H])[H])C([H])([H])[H])C([H])([H])c2c([H])c(OC([H])([H])C([H])([H])C([H])([H])[N+]([H])([H])C([H])(C([H])([H])C([H])([H])C([H])([H])[H])C3([H])N(C(=O)N4C([H])([H])C([H])([H])C([H])([H])C([H])(n5nc(-c6c([H])c([H])c(Oc7c([H])c([H])c(F)c([H])c7F)c([H])c6[H])c(C(=O)N([H])[H])c5N([H])[H])C4([H])[H])C([H])([H])C([H])([H])C3([H])[H])c([H])c([H])c2C1([H])[H]

$$$$
39:0:0
     RDKit          3D

 94103  0  0  1  0  0  0  0  0999 V2000
  -31.9800  -21.9170   16.0700 C   0  0  0  0  0  2  0  0  0  0  0  0
  -32.8260  -20.9250   16.9080 C   0  0  0  0  0  2  0  0  0  0  0  0
  -30.4570  -21.7610   16.2950 C   0  0  0  0  0  2  0  0  0  0  0  0
  -32.4220  -20.8780   18.4040 C   0  0  0  0  0  2  0  0  0  0  0  0
  -28.7550  -21.6330   18.3170 C   0  0  0  0  0  2  0  0  0  0  0  0
  -30.1780  -21.8050   17.8080 C   0  0  0  0  0  3  0  0  0  0  0  0
  -30.9040  -20.6620   18.5050 C   0  0  0  0  0  3  0  0  0  0  0  0
  -28.9990  -21.5170   19.8340 C   0  0  0  0  0  3  0  0  0  0  0  0
  -30.2030  -20.3150   19.8820 C   0  0  2  0  0  0  0  0  0  0  0  0
  -31.1150  -20.5830   21.0890 C   0  0  0  0  0  1  0  0  0  0  0  0
  -29.9910  -18.6200   19.6970 C   0  0  0  0  0  2  0  0  0  0  0  0
  -30.3640  -15.9740   20.6730 C   0  0  0  0  0  0  0  0  0  0  0  0
  -30.0450  -17.3690   20.7520 C   0  0  0  0  0  0  0  0  0  0  0  0
  -30.9800  -14.6990   20.0480 C   0  0  0  0  0  0  0  0  0  0  0  0
  -30.5860  -12.4590   18.9440 C   0  0  0  0  0  2  0  0  0  0  0  0
  -29.6010  -12.6420   17.7670 C   0  0  0  0  0  2  0  0  0  0  0  0
  -28.1450  -12.5190   18.2550 C   0  0  0  0  0  2  0  0  0  0  0  0
  -27.8830  -13.3440   19.5430 C   0  0  0  0  0  3  0  0  0  0  0  0
  -28.9920  -13.1560   20.5990 C   0  0  0  0  0  2  0  0  0  0  0  0
  -30.2730  -13.4990   19.9660 N   0  0  0  0  0  0  0  0  0  0  0  0
  -32.1270  -14.6820   19.5840 O   0  0  0  0  0  0  0  0  0  0  0  0
  -25.5730  -14.0190   20.4210 C   0  0  0  0  0  0  0  0  0  0  0  0
  -24.4840  -13.2900   20.8070 C   0  0  0  0  0  0  0  0  0  0  0  0
  -24.8650  -11.9170   20.6940 C   0  0  0  0  0  0  0  0  0  0  0  0
  -26.5520  -13.0970   20.0910 N   0  0  0  0  0  0  0  0  0  0  0  0
  -26.1360  -11.8230   20.3210 N   0  0  0  0  0  0  0  0  0  0  0  0
  -24.0730  -10.6910   20.8640 C   0  0  0  0  0  0  0  0  0  0  0  0
  -24.4850   -9.6560   21.7330 C   0  0  0  0  0  3  0  0  0  0  0  0
  -23.6960   -8.4990   21.8950 C   0  0  0  0  0  3  0  0  0  0  0  0
  -22.4780   -8.3650   21.1890 C   0  0  0  0  0  0  0  0  0  0  0  0
  -22.0800   -9.3860   20.3080 C   0  0  0  0  0  3  0  0  0  0  0  0
  -22.8710  -10.5370   20.1440 C   0  0  0  0  0  3  0  0  0  0  0  0
  -21.6590   -7.2630   21.2640 O   0  0  0  0  0  0  0  0  0  0  0  0
  -21.6140   -6.4730   22.3850 C   0  0  0  0  0  0  0  0  0  0  0  0
  -21.3010   -7.0020   23.6560 C   0  0  0  0  0  3  0  0  0  0  0  0
  -21.1970   -6.1440   24.7690 C   0  0  0  0  0  3  0  0  0  0  0  0
  -21.3950   -4.7590   24.6120 C   0  0  0  0  0  0  0  0  0  0  0  0
  -21.7000   -4.2300   23.3460 C   0  0  0  0  0  3  0  0  0  0  0  0
  -21.8050   -5.0850   22.2340 C   0  0  0  0  0  0  0  0  0  0  0  0
  -22.0790   -4.5670   21.0130 F   0  0  0  0  0  0  0  0  0  0  0  0
  -21.2870   -3.9340   25.6800 F   0  0  0  0  0  0  0  0  0  0  0  0
  -23.1300  -13.8310   21.1670 C   0  0  0  0  0  0  0  0  0  0  0  0
  -22.4080  -13.1500   22.0480 N   0  0  0  0  0  0  0  0  0  0  0  0
  -22.7250  -14.8960   20.6990 O   0  0  0  0  0  0  0  0  0  0  0  0
  -22.7500  -12.2900   22.4510 H   0  0  0  0  0  0  0  0  0  0  0  0
  -21.5000  -13.4940   22.3260 H   0  0  0  0  0  0  0  0  0  0  0  0
  -25.8120  -15.3850   20.2980 N   0  0  0  0  0  0  0  0  0  0  0  0
  -25.1000  -16.0810   20.4850 H   0  0  0  0  0  0  0  0  0  0  0  0
  -26.6830  -15.7890   19.9780 H   0  0  0  0  0  0  0  0  0  0  0  0
  -30.6180  -17.7890   23.1930 C   0  0  0  0  0  1  0  0  0  0  0  0
  -29.5320  -17.8250   22.1070 C   0  0  0  0  0  2  0  0  0  0  0  0
  -29.1760  -23.1120   20.3990 C   0  0  0  0  0  3  0  0  0  0  0  0
  -28.1730  -24.4140   20.0200 C   0  0  0  0  0  3  0  0  0  0  0  0
  -28.3730  -25.9240   20.3190 O   0  0  0  0  0  0  0  0  0  0  0  0
  -24.5590  -31.5950   23.0660 C   0  0  0  0  0  0  0  0  0  0  0  0
  -27.2990  -26.8780   20.1940 C   0  0  0  0  0  0  0  0  0  0  0  0
  -23.4260  -30.1450   21.4270 C   0  0  0  0  0  3  0  0  0  0  0  0
  -24.9370  -28.5680   20.0740 C   0  0  0  0  0  0  0  0  0  0  0  0
  -25.9780  -30.4540   21.3210 C   0  0  0  0  0  2  0  0  0  0  0  0
  -26.0930  -29.0520   20.7000 C   0  0  0  0  0  0  0  0  0  0  0  0
  -27.2750  -28.2220   20.7430 C   0  0  0  0  0  3  0  0  0  0  0  0
  -26.1140  -26.4920   19.5250 C   0  0  0  0  0  3  0  0  0  0  0  0
  -24.9600  -27.3010   19.4730 C   0  0  0  0  0  3  0  0  0  0  0  0
  -23.6920  -29.4410   20.0700 C   0  0  0  0  0  2  0  0  0  0  0  0
  -24.6730  -30.7540   21.9920 N   0  0  0  0  0  0  0  0  0  0  0  0
  -23.4540  -31.8730   23.5580 O   0  0  0  0  0  0  0  0  0  0  0  0
  -22.7390  -29.1460   22.3910 C   0  0  0  0  0  0  0  0  0  0  0  0
  -21.4110  -28.9790   22.2540 N   0  0  0  0  0  0  0  0  0  0  0  0
  -23.4020  -28.5250   23.2240 O   0  0  0  0  0  0  0  0  0  0  0  0
  -20.9330  -29.5340   21.5590 H   0  0  0  0  0  0  0  0  0  0  0  0
  -18.0190  -27.8100   22.7530 C   0  0  0  0  0  0  0  0  0  0  0  0
  -20.5790  -28.0510   23.0260 C   0  0  0  0  0  3  0  0  0  0  0  0
  -20.6680  -26.6160   22.4560 C   0  0  0  0  0  2  0  0  0  0  0  0
  -19.5680  -26.2980   21.4400 C   0  0  0  0  0  2  0  0  0  0  0  0
  -18.1860  -26.4570   22.0800 C   0  0  0  0  0  2  0  0  0  0  0  0
  -19.1430  -28.5650   23.1820 C   0  0  0  0  0  0  0  0  0  0  0  0
  -18.9310  -29.8300   23.7720 C   0  0  0  0  0  3  0  0  0  0  0  0
  -17.6300  -30.3400   23.9350 C   0  0  0  0  0  3  0  0  0  0  0  0
  -16.5210  -29.5830   23.5200 C   0  0  0  0  0  3  0  0  0  0  0  0
  -16.7170  -28.3190   22.9350 C   0  0  0  0  0  3  0  0  0  0  0  0
  -25.8070  -32.2650   23.7140 C   0  0  0  0  0  3  0  0  0  0  0  0
  -25.4480  -33.6520   24.0510 N   0  0  0  0  0  0  0  0  0  0  0  0
  -25.7550  -34.7230   23.3070 C   0  0  0  0  0  0  0  0  0  0  0  0
  -26.4370  -34.6490   22.2810 O   0  0  0  0  0  0  0  0  0  0  0  0
  -24.8370  -33.7780   24.8450 H   0  0  0  0  0  0  0  0  0  0  0  0
  -23.9700  -36.4650   22.9660 C   0  0  0  0  0  1  0  0  0  0  0  0
  -25.2240  -36.0940   23.7750 C   0  0  0  0  0  3  0  0  0  0  0  0
  -27.3320  -37.0390   24.6080 C   0  0  0  0  0  1  0  0  0  0  0  0
  -26.2230  -37.1790   23.6680 N   0  0  0  0  0  0  0  0  0  0  0  0
  -25.7900  -38.0850   23.8240 H   0  0  0  0  0  0  0  0  0  0  0  0
  -26.3200  -31.5040   24.9980 C   0  0  1  0  0  0  0  0  0  0  0  0
  -25.2160  -31.2370   26.0490 C   0  0  0  0  0  1  0  0  0  0  0  0
  -26.9420  -30.1420   24.6150 C   0  0  0  0  0  1  0  0  0  0  0  0
  -27.4420  -32.3240   25.6810 C   0  0  0  0  0  1  0  0  0  0  0  0
  1  3  1  0
  1  2  1  0
  2  4  1  0
  5  8  1  0
  6  3  1  0
  6  5  1  0
  6  7  1  0
  7  4  1  0
  7  9  1  0
  8  9  1  0
  8 52  1  0
  9 10  1  1
 11  9  1  0
 11 13  1  0
 12 13  2  0
 13 51  1  0
 14 12  2  0
 15 20  1  0
 16 17  1  0
 16 15  1  0
 18 17  1  0
 18 25  1  0
 18 19  1  0
 20 14  1  0
 20 19  1  0
 21 14  2  0
 22 23  2  0
 23 42  1  0
 24 23  1  0
 24 27  1  0
 25 26  1  0
 25 22  1  0
 26 24  2  0
 27 28  1  0
 28 29  2  0
 30 33  1  0
 30 29  1  0
 31 30  2  0
 32 31  1  0
 32 27  2  0
 33 34  1  0
 34 35  1  0
 35 36  2  0
 37 36  1  0
 37 41  1  0
 38 37  2  0
 39 34  2  0
 39 38  1  0
 40 39  1  0
 42 43  1  0
 43 46  1  0
 43 45  1  0
 44 42  2  0
 47 22  1  0
 47 48  1  0
 49 47  1  0
 51 50  1  0
 53 54  1  0
 53 52  2  0
 55 66  2  0
 56 54  1  0
 56 61  1  0
 57 65  1  0
 57 67  1  0
 58 60  1  0
 59 65  1  0
 60 61  2  0
 60 59  1  0
 62 56  2  0
 63 62  1  0
 63 58  2  0
 64 58  1  0
 64 57  1  0
 65 55  1  0
 67 69  2  0
 68 67  1  0
 70 68  1  0
 71 80  2  0
 71 76  1  0
 72 68  1  0
 72 76  1  0
 73 72  1  0
 74 75  1  0
 74 73  1  0
 75 71  1  0
 76 77  2  0
 77 78  1  0
 79 78  2  0
 80 79  1  0
 81 55  1  0
 81 82  1  0
 81 91  1  0
 82 85  1  0
 83 87  1  0
 83 82  1  0
 84 83  2  0
 87 86  1  0
 89 87  1  0
 89 90  1  0
 89 88  1  0
 91 94  1  1
 91 92  1  0
 93 91  1  0
M  ISO  4  12 100  14 100  53 101  54 101
M  END
>  <TORSDO>  (40) 
F 21

>  <SCORE>  (40) 
-12.901

>  <name>  (40) 
39

>  <ligand_id>  (40) 
39

>  <original_smiles>  (40) 
[H]C(C(=O)N1C([H])([H])C([H])([H])C([H])([H])C([H])(n2nc(-c3c([H])c([H])c(Oc4c([H])c([H])c(F)c([H])c4F)c([H])c3[H])c(C(=O)N([H])[H])c2N([H])[H])C1([H])[H])=C(C([H])([H])C([H])([H])[H])C([H])([H])C1(C([H])([H])[H])C([H])(C([H])([H])C([H])([H])Oc2c([H])c([H])c3c(c2[H])C([H])([H])N(C(=O)C([H])(N([H])C(=O)C([H])(N([H])C([H])([H])[H])C([H])([H])[H])C(C([H])([H])[H])(C([H])([H])[H])C([H])([H])[H])C([H])(C(=O)N([H])C2([H])c4c([H])c([H])c([H])c([H])c4C([H])([H])C([H])([H])C2([H])[H])C3([H])[H])C([H])([H])C2([H])C([H])([H])C([H])([H])C([H])([H])C([H])([H])C21[H]

>  <smiles>  (40) 
[H]C(C(=O)N1C([H])([H])C([H])([H])C([H])([H])C([H])(n2nc(-c3c([H])c([H])c(Oc4c([H])c([H])c(F)c([H])c4F)c([H])c3[H])c(C(=O)N([H])[H])c2N([H])[H])C1([H])[H])=C(C([H])([H])C([H])([H])[H])C([H])([H])C1(C([H])([H])[H])C([H])(C([H])([H])C([H])([H])Oc2c([H])c([H])c3c(c2[H])C([H])([H])N(C(=O)C([H])(N([H])C(=O)C([H])(N([H])C([H])([H])[H])C([H])([H])[H])C(C([H])([H])[H])(C([H])([H])[H])C([H])([H])[H])C([H])(C(=O)N([H])C2([H])c4c([H])c([H])c([H])c([H])c4C([H])([H])C([H])([H])C2([H])[H])C3([H])[H])C([H])([H])C2([H])C([H])([H])C([H])([H])C([H])([H])C([H])([H])C21[H]

$$$$
40:0:0
     RDKit          3D

 90 99  0  0  1  0  0  0  0  0999 V2000
  -28.1950  -23.5670   18.0050 C   0  0  0  0  0  2  0  0  0  0  0  0
  -30.1140  -22.9510   19.6560 C   0  0  0  0  0  2  0  0  0  0  0  0
  -27.8440  -22.4490   20.3290 C   0  0  0  0  0  2  0  0  0  0  0  0
  -29.4210  -24.1190   18.8100 C   0  0  0  0  0  3  0  0  0  0  0  0
  -27.4890  -23.7080   19.3900 C   0  0  0  0  0  3  0  0  0  0  0  0
  -29.1670  -21.6970   19.8770 C   0  0  0  0  0  3  0  0  0  0  0  0
  -28.2770  -25.1090   19.3140 C   0  0  0  0  0  3  0  0  0  0  0  0
  -29.7270  -20.4670   20.6480 N   0  0  0  0  0  4  0  0  0  0  0  0
  -29.6620  -20.6400   21.6380 H   0  0  0  0  0  0  0  0  0  0  0  0
  -30.7120  -20.4590   20.4360 H   0  0  0  0  0  0  0  0  0  0  0  0
  -29.2510  -19.0160   20.3530 C   0  0  0  0  0  3  0  0  0  0  0  0
  -30.2260  -17.7200   20.6440 C   0  0  0  0  0  3  0  0  0  0  0  0
  -29.6470  -16.1840   20.6260 C   0  0  0  0  0  2  0  0  0  0  0  0
  -30.5420  -14.8480   20.3920 C   0  0  0  0  0  0  0  0  0  0  0  0
  -30.4200  -12.5640   19.3550 C   0  0  0  0  0  2  0  0  0  0  0  0
  -29.4810  -12.6420   18.1270 C   0  0  0  0  0  2  0  0  0  0  0  0
  -28.0090  -12.4400   18.5440 C   0  0  0  0  0  2  0  0  0  0  0  0
  -27.6190  -13.3020   19.7710 C   0  0  0  0  0  3  0  0  0  0  0  0
  -28.6730  -13.2050   20.8930 C   0  0  0  0  0  2  0  0  0  0  0  0
  -29.9730  -13.5900   20.3280 N   0  0  0  0  0  0  0  0  0  0  0  0
  -31.7300  -14.9770   20.0790 O   0  0  0  0  0  0  0  0  0  0  0  0
  -25.2170  -13.8640   20.4780 C   0  0  0  0  0  0  0  0  0  0  0  0
  -24.1590  -13.0770   20.8430 C   0  0  0  0  0  0  0  0  0  0  0  0
  -24.6430  -11.7330   20.8270 C   0  0  0  0  0  0  0  0  0  0  0  0
  -26.2750  -12.9970   20.2540 N   0  0  0  0  0  0  0  0  0  0  0  0
  -25.9370  -11.7110   20.5290 N   0  0  0  0  0  0  0  0  0  0  0  0
  -23.9330  -10.4610   21.0200 C   0  0  0  0  0  0  0  0  0  0  0  0
  -24.3650   -9.5110   21.9710 C   0  0  0  0  0  3  0  0  0  0  0  0
  -23.6550   -8.3040   22.1520 C   0  0  0  0  0  3  0  0  0  0  0  0
  -22.4980   -8.0400   21.3800 C   0  0  0  0  0  0  0  0  0  0  0  0
  -22.0850   -8.9790   20.4200 C   0  0  0  0  0  3  0  0  0  0  0  0
  -22.7960  -10.1770   20.2370 C   0  0  0  0  0  3  0  0  0  0  0  0
  -21.7590   -6.8850   21.4690 O   0  0  0  0  0  0  0  0  0  0  0  0
  -21.6950   -6.1590   22.6320 C   0  0  0  0  0  0  0  0  0  0  0  0
  -21.2180   -6.7210   23.8360 C   0  0  0  0  0  3  0  0  0  0  0  0
  -21.1040   -5.9200   24.9890 C   0  0  0  0  0  3  0  0  0  0  0  0
  -21.4560   -4.5580   24.9400 C   0  0  0  0  0  0  0  0  0  0  0  0
  -21.9260   -3.9950   23.7410 C   0  0  0  0  0  3  0  0  0  0  0  0
  -22.0420   -4.7930   22.5890 C   0  0  0  0  0  0  0  0  0  0  0  0
  -22.4760   -4.2410   21.4300 F   0  0  0  0  0  0  0  0  0  0  0  0
  -21.3390   -3.7860   26.0460 F   0  0  0  0  0  0  0  0  0  0  0  0
  -22.7530  -13.5360   21.0980 C   0  0  0  0  0  0  0  0  0  0  0  0
  -22.0250  -12.8330   21.9590 N   0  0  0  0  0  0  0  0  0  0  0  0
  -22.3060  -14.5530   20.5690 O   0  0  0  0  0  0  0  0  0  0  0  0
  -22.3980  -12.0100   22.4090 H   0  0  0  0  0  0  0  0  0  0  0  0
  -21.0800  -13.1220   22.1720 H   0  0  0  0  0  0  0  0  0  0  0  0
  -25.3640  -15.2350   20.2930 N   0  0  0  0  0  0  0  0  0  0  0  0
  -24.5880  -15.8810   20.3960 H   0  0  0  0  0  0  0  0  0  0  0  0
  -26.2130  -15.6840   19.9760 H   0  0  0  0  0  0  0  0  0  0  0  0
  -28.2930  -26.3400   20.1910 O   0  0  0  0  0  0  0  0  0  0  0  0
  -24.6100  -31.8780   23.2470 C   0  0  0  0  0  0  0  0  0  0  0  0
  -27.2000  -27.2630   20.1520 C   0  0  0  0  0  0  0  0  0  0  0  0
  -23.4010  -30.4860   21.6090 C   0  0  0  0  0  3  0  0  0  0  0  0
  -24.8450  -28.9390   20.1680 C   0  0  0  0  0  0  0  0  0  0  0  0
  -25.9480  -30.7820   21.4230 C   0  0  0  0  0  2  0  0  0  0  0  0
  -26.0230  -29.4010   20.7680 C   0  0  0  0  0  0  0  0  0  0  0  0
  -27.1990  -28.5730   20.7560 C   0  0  0  0  0  3  0  0  0  0  0  0
  -25.9850  -26.8820   19.5330 C   0  0  0  0  0  3  0  0  0  0  0  0
  -24.8320  -27.6870   19.5430 C   0  0  0  0  0  3  0  0  0  0  0  0
  -23.6120  -29.8220   20.2250 C   0  0  0  0  0  2  0  0  0  0  0  0
  -24.6730  -31.0680   22.1490 N   0  0  0  0  0  0  0  0  0  0  0  0
  -23.5280  -32.1540   23.7840 O   0  0  0  0  0  0  0  0  0  0  0  0
  -22.7400  -29.4660   22.5680 C   0  0  0  0  0  0  0  0  0  0  0  0
  -21.4140  -29.2820   22.4420 N   0  0  0  0  0  0  0  0  0  0  0  0
  -23.4200  -28.8440   23.3880 O   0  0  0  0  0  0  0  0  0  0  0  0
  -20.9220  -29.8370   21.7540 H   0  0  0  0  0  0  0  0  0  0  0  0
  -18.0440  -28.0550   22.9380 C   0  0  0  0  0  0  0  0  0  0  0  0
  -20.5990  -28.3400   23.2130 C   0  0  0  0  0  3  0  0  0  0  0  0
  -20.7150  -26.9070   22.6430 C   0  0  0  0  0  2  0  0  0  0  0  0
  -19.6200  -26.5710   21.6270 C   0  0  0  0  0  2  0  0  0  0  0  0
  -18.2350  -26.7050   22.2670 C   0  0  0  0  0  2  0  0  0  0  0  0
  -19.1540  -28.8300   23.3680 C   0  0  0  0  0  0  0  0  0  0  0  0
  -18.9210  -30.0920   23.9570 C   0  0  0  0  0  3  0  0  0  0  0  0
  -17.6110  -30.5800   24.1190 C   0  0  0  0  0  3  0  0  0  0  0  0
  -16.5150  -29.8030   23.7040 C   0  0  0  0  0  3  0  0  0  0  0  0
  -16.7320  -28.5420   23.1190 C   0  0  0  0  0  3  0  0  0  0  0  0
  -25.8930  -32.5120   23.8650 C   0  0  0  0  0  3  0  0  0  0  0  0
  -26.4000  -31.7530   25.1530 C   0  0  1  0  0  0  0  0  0  0  0  0
  -25.3020  -31.5340   26.2190 C   0  0  0  0  0  1  0  0  0  0  0  0
  -26.9770  -30.3680   24.7830 C   0  0  0  0  0  1  0  0  0  0  0  0
  -27.5540  -32.5490   25.8090 C   0  0  0  0  0  1  0  0  0  0  0  0
  -25.5880  -33.9160   24.1810 N   0  0  0  0  0  0  0  0  0  0  0  0
  -25.9310  -34.9610   23.4190 C   0  0  0  0  0  0  0  0  0  0  0  0
  -26.6080  -34.8460   22.3930 O   0  0  0  0  0  0  0  0  0  0  0  0
  -24.9880  -34.0790   24.9760 H   0  0  0  0  0  0  0  0  0  0  0  0
  -24.2250  -36.7710   23.0330 C   0  0  0  0  0  1  0  0  0  0  0  0
  -25.4510  -36.3570   23.8630 C   0  0  0  0  0  3  0  0  0  0  0  0
  -27.5800  -37.2280   24.7230 C   0  0  0  0  0  1  0  0  0  0  0  0
  -26.4950  -37.3990   23.7610 N   0  0  0  0  0  0  0  0  0  0  0  0
  -26.0960  -38.3250   23.8950 H   0  0  0  0  0  0  0  0  0  0  0  0
  2  6  1  0
  4  1  1  0
  4  7  1  0
  4  2  1  0
  5  1  1  0
  5  3  1  0
  6  3  1  0
  6  8  1  0
  7  5  1  0
  7 50  1  0
  8  9  1  0
 10  8  1  0
 11 12  2  0
 11  8  1  0
 13 12  1  0
 14 13  1  0
 15 20  1  0
 16 17  1  0
 16 15  1  0
 18 17  1  0
 18 25  1  0
 18 19  1  0
 20 14  1  0
 20 19  1  0
 21 14  2  0
 22 23  2  0
 23 42  1  0
 24 23  1  0
 24 27  1  0
 25 22  1  0
 25 26  1  0
 26 24  2  0
 27 28  1  0
 28 29  2  0
 30 33  1  0
 30 29  1  0
 31 30  2  0
 32 31  1  0
 32 27  2  0
 33 34  1  0
 34 35  1  0
 35 36  2  0
 37 36  1  0
 37 41  1  0
 38 37  2  0
 39 34  2  0
 39 38  1  0
 40 39  1  0
 42 43  1  0
 43 46  1  0
 43 45  1  0
 44 42  2  0
 47 48  1  0
 47 22  1  0
 49 47  1  0
 51 62  2  0
 52 50  1  0
 52 57  1  0
 53 61  1  0
 53 63  1  0
 54 60  1  0
 54 56  1  0
 55 61  1  0
 56 55  1  0
 57 56  2  0
 58 59  1  0
 58 52  2  0
 59 54  2  0
 60 53  1  0
 61 51  1  0
 63 65  2  0
 64 63  1  0
 66 64  1  0
 67 76  2  0
 67 72  1  0
 68 64  1  0
 68 72  1  0
 69 68  1  0
 70 71  1  0
 70 69  1  0
 71 67  1  0
 72 73  2  0
 73 74  1  0
 75 74  2  0
 76 75  1  0
 77 51  1  0
 77 82  1  0
 77 78  1  0
 78 81  1  1
 78 79  1  0
 80 78  1  0
 82 85  1  0
 83 87  1  0
 83 82  1  0
 84 83  2  0
 87 86  1  0
 89 87  1  0
 89 90  1  0
 89 88  1  0
M  ISO  4   7 101  13 100  14 100  50 101
M  END
>  <TORSDO>  (41) 
F 20

>  <SCORE>  (41) 
-13.716

>  <name>  (41) 
40

>  <ligand_id>  (41) 
40

>  <original_smiles>  (41) 
[H]c1c([H])c([H])c2c(c1[H])C([H])([H])C([H])([H])C([H])([H])C2([H])N([H])C(=O)C1([H])N(C(=O)C([H])(N([H])C(=O)C([H])(N([H])C([H])([H])[H])C([H])([H])[H])C(C([H])([H])[H])(C([H])([H])[H])C([H])([H])[H])C([H])([H])c2c([H])c(OC3([H])C4([H])C([H])([H])C3([H])C([H])([H])C([H])([N+]([H])([H])C([H])([H])C([H])([H])C([H])([H])C(=O)N3C([H])([H])C([H])([H])C([H])([H])C([H])(n5nc(-c6c([H])c([H])c(Oc7c([H])c([H])c(F)c([H])c7F)c([H])c6[H])c(C(=O)N([H])[H])c5N([H])[H])C3([H])[H])C4([H])[H])c([H])c([H])c2C1([H])[H]

>  <smiles>  (41) 
[H]c1c([H])c([H])c2c(c1[H])C([H])([H])C([H])([H])C([H])([H])C2([H])N([H])C(=O)C1([H])N(C(=O)C([H])(N([H])C(=O)C([H])(N([H])C([H])([H])[H])C([H])([H])[H])C(C([H])([H])[H])(C([H])([H])[H])C([H])([H])[H])C([H])([H])c2c([H])c(OC3([H])C4([H])C([H])([H])C3([H])C([H])([H])C([H])([N+]([H])([H])C([H])([H])C([H])([H])C([H])([H])C(=O)N3C([H])([H])C([H])([H])C([H])([H])C([H])(n5nc(-c6c([H])c([H])c(Oc7c([H])c([H])c(F)c([H])c7F)c([H])c6[H])c(C(=O)N([H])[H])c5N([H])[H])C3([H])[H])C4([H])[H])c([H])c([H])c2C1([H])[H]

$$$$
42:0:0
     RDKit          3D

 87 97  0  0  1  0  0  0  0  0999 V2000
  -31.0110  -18.3160   21.0790 C   0  0  0  0  0  2  0  0  0  0  0  0
  -28.6970  -19.7440   20.9780 C   0  0  0  0  0  2  0  0  0  0  0  0
  -30.1730  -20.0110   19.1160 C   0  0  0  0  0  2  0  0  0  0  0  0
  -29.4680  -18.2240   21.0420 C   0  0  2  0  0  0  0  0  0  0  0  0
  -30.6310  -18.4450   19.5820 C   0  0  1  0  0  0  0  0  0  0  0  0
  -29.0320  -20.9240   19.8740 C   0  0  0  0  0  3  0  0  0  0  0  0
  -29.7410  -17.0840   19.8750 C   0  0  2  0  0  0  0  0  0  0  0  0
  -28.6140  -16.8960   18.8740 C   0  0  0  0  0  1  0  0  0  0  0  0
  -30.5040  -15.4570   20.0700 C   0  0  0  0  0  0  0  0  0  0  0  0
  -30.4910  -12.9400   19.3640 C   0  0  0  0  0  2  0  0  0  0  0  0
  -29.5830  -12.6450   18.1410 C   0  0  0  0  0  2  0  0  0  0  0  0
  -28.1330  -12.3790   18.5850 C   0  0  0  0  0  2  0  0  0  0  0  0
  -27.6620  -13.4030   19.6440 C   0  0  0  0  0  3  0  0  0  0  0  0
  -28.7020  -13.6590   20.7550 C   0  0  0  0  0  2  0  0  0  0  0  0
  -29.9410  -14.1360   20.1110 N   0  0  0  0  0  0  0  0  0  0  0  0
  -31.7330  -15.3830   19.9180 O   0  0  0  0  0  0  0  0  0  0  0  0
  -25.3060  -14.0000   20.4110 C   0  0  0  0  0  0  0  0  0  0  0  0
  -24.2340  -13.2440   20.7890 C   0  0  0  0  0  0  0  0  0  0  0  0
  -24.6830  -11.8870   20.7700 C   0  0  0  0  0  0  0  0  0  0  0  0
  -26.3360  -13.1090   20.1690 N   0  0  0  0  0  0  0  0  0  0  0  0
  -25.9750  -11.8320   20.4560 N   0  0  0  0  0  0  0  0  0  0  0  0
  -23.9370  -10.6390   20.9720 C   0  0  0  0  0  0  0  0  0  0  0  0
  -24.3560   -9.6720   21.9110 C   0  0  0  0  0  3  0  0  0  0  0  0
  -23.6070   -8.4910   22.1020 C   0  0  0  0  0  3  0  0  0  0  0  0
  -22.4270   -8.2700   21.3550 C   0  0  0  0  0  0  0  0  0  0  0  0
  -22.0270   -9.2270   20.4050 C   0  0  0  0  0  3  0  0  0  0  0  0
  -22.7750  -10.3990   20.2120 C   0  0  0  0  0  3  0  0  0  0  0  0
  -21.6490   -7.1410   21.4560 O   0  0  0  0  0  0  0  0  0  0  0  0
  -21.5960   -6.4070   22.6130 C   0  0  0  0  0  0  0  0  0  0  0  0
  -21.1700   -6.9720   23.8350 C   0  0  0  0  0  3  0  0  0  0  0  0
  -21.0640   -6.1630   24.9850 C   0  0  0  0  0  3  0  0  0  0  0  0
  -21.3720   -4.7910   24.9130 C   0  0  0  0  0  0  0  0  0  0  0  0
  -21.7910   -4.2260   23.6960 C   0  0  0  0  0  3  0  0  0  0  0  0
  -21.8990   -5.0320   22.5480 C   0  0  0  0  0  0  0  0  0  0  0  0
  -22.2830   -4.4770   21.3730 F   0  0  0  0  0  0  0  0  0  0  0  0
  -21.2620   -4.0130   26.0150 F   0  0  0  0  0  0  0  0  0  0  0  0
  -22.8460  -13.7460   21.0510 C   0  0  0  0  0  0  0  0  0  0  0  0
  -22.1130  -13.0850   21.9400 N   0  0  0  0  0  0  0  0  0  0  0  0
  -22.4210  -14.7630   20.5040 O   0  0  0  0  0  0  0  0  0  0  0  0
  -22.4730  -12.2650   22.4070 H   0  0  0  0  0  0  0  0  0  0  0  0
  -21.1810  -13.4050   22.1600 H   0  0  0  0  0  0  0  0  0  0  0  0
  -25.4750  -15.3670   20.2230 N   0  0  0  0  0  0  0  0  0  0  0  0
  -24.7140  -16.0270   20.3400 H   0  0  0  0  0  0  0  0  0  0  0  0
  -26.3290  -15.7960   19.8980 H   0  0  0  0  0  0  0  0  0  0  0  0
  -29.1210  -22.7430   20.1480 C   0  0  0  0  0  3  0  0  0  0  0  0
  -28.1110  -24.2420   19.8600 C   0  0  0  0  0  3  0  0  0  0  0  0
  -28.2940  -25.8850   20.1020 O   0  0  0  0  0  0  0  0  0  0  0  0
  -24.6450  -31.8080   23.1330 C   0  0  0  0  0  0  0  0  0  0  0  0
  -27.2720  -26.9850   20.0480 C   0  0  0  0  0  0  0  0  0  0  0  0
  -23.4790  -30.4350   21.4560 C   0  0  0  0  0  3  0  0  0  0  0  0
  -24.9550  -28.8630   20.0170 C   0  0  0  0  0  0  0  0  0  0  0  0
  -26.0460  -30.6620   21.3410 C   0  0  0  0  0  2  0  0  0  0  0  0
  -26.1350  -29.2620   20.6570 C   0  0  0  0  0  0  0  0  0  0  0  0
  -27.2850  -28.3460   20.6470 C   0  0  0  0  0  3  0  0  0  0  0  0
  -26.0590  -26.7450   19.3630 C   0  0  0  0  0  3  0  0  0  0  0  0
  -24.9440  -27.6270   19.3500 C   0  0  0  0  0  3  0  0  0  0  0  0
  -23.7290  -29.7770   20.0700 C   0  0  0  0  0  2  0  0  0  0  0  0
  -24.7450  -30.9950   22.0300 N   0  0  0  0  0  0  0  0  0  0  0  0
  -23.5490  -32.0810   23.6480 O   0  0  0  0  0  0  0  0  0  0  0  0
  -22.7800  -29.4190   22.3970 C   0  0  0  0  0  0  0  0  0  0  0  0
  -21.4460  -29.2750   22.2810 N   0  0  0  0  0  0  0  0  0  0  0  0
  -23.4450  -28.7590   23.1990 O   0  0  0  0  0  0  0  0  0  0  0  0
  -20.9610  -29.8570   21.6120 H   0  0  0  0  0  0  0  0  0  0  0  0
  -18.0490  -28.1180   22.8220 C   0  0  0  0  0  0  0  0  0  0  0  0
  -20.6200  -28.3220   23.0300 C   0  0  0  0  0  3  0  0  0  0  0  0
  -20.6760  -26.9150   22.3890 C   0  0  0  0  0  2  0  0  0  0  0  0
  -19.5440  -26.6620   21.3900 C   0  0  0  0  0  2  0  0  0  0  0  0
  -18.1820  -26.8010   22.0750 C   0  0  0  0  0  2  0  0  0  0  0  0
  -19.1940  -28.8400   23.2550 C   0  0  0  0  0  0  0  0  0  0  0  0
  -19.0130  -30.0740   23.9180 C   0  0  0  0  0  3  0  0  0  0  0  0
  -17.7220  -30.5860   24.1470 C   0  0  0  0  0  3  0  0  0  0  0  0
  -16.5930  -29.8620   23.7250 C   0  0  0  0  0  3  0  0  0  0  0  0
  -16.7580  -28.6300   23.0700 C   0  0  0  0  0  3  0  0  0  0  0  0
  -25.9040  -32.4500   23.7930 C   0  0  0  0  0  3  0  0  0  0  0  0
  -25.5740  -33.8440   24.1440 N   0  0  0  0  0  0  0  0  0  0  0  0
  -25.8900  -34.9160   23.4060 C   0  0  0  0  0  0  0  0  0  0  0  0
  -26.5520  -34.8390   22.3680 O   0  0  0  0  0  0  0  0  0  0  0  0
  -24.9830  -33.9760   24.9510 H   0  0  0  0  0  0  0  0  0  0  0  0
  -24.1340  -36.6990   23.1210 C   0  0  0  0  0  1  0  0  0  0  0  0
  -25.3990  -36.2950   23.8960 C   0  0  0  0  0  3  0  0  0  0  0  0
  -27.5370  -37.2030   24.6940 C   0  0  0  0  0  1  0  0  0  0  0  0
  -26.4160  -37.3620   23.7720 N   0  0  0  0  0  0  0  0  0  0  0  0
  -26.0010  -38.2760   23.9340 H   0  0  0  0  0  0  0  0  0  0  0  0
  -26.3940  -31.6710   25.0770 C   0  0  1  0  0  0  0  0  0  0  0  0
  -25.2790  -31.4260   26.1210 C   0  0  0  0  0  1  0  0  0  0  0  0
  -26.9860  -30.2950   24.6980 C   0  0  0  0  0  1  0  0  0  0  0  0
  -27.5290  -32.4620   25.7680 C   0  0  0  0  0  1  0  0  0  0  0  0
  3  6  1  0
  4  2  1  1
  4  1  1  0
  5  3  1  6
  5  7  1  0
  5  4  1  0
  5  1  1  0
  6 45  1  0
  6  2  1  0
  7  8  1  6
  7  9  1  0
  7  4  1  0
  9 15  1  0
 10 15  1  0
 11 12  1  0
 11 10  1  0
 13 12  1  0
 13 20  1  0
 13 14  1  0
 15 14  1  0
 16  9  2  0
 17 18  2  0
 18 37  1  0
 19 18  1  0
 19 22  1  0
 20 17  1  0
 20 21  1  0
 21 19  2  0
 22 23  1  0
 23 24  2  0
 25 28  1  0
 25 24  1  0
 26 25  2  0
 27 26  1  0
 27 22  2  0
 28 29  1  0
 29 30  1  0
 30 31  2  0
 32 31  1  0
 32 36  1  0
 33 32  2  0
 34 29  2  0
 34 33  1  0
 35 34  1  0
 37 38  1  0
 38 41  1  0
 38 40  1  0
 39 37  2  0
 42 43  1  0
 42 17  1  0
 44 42  1  0
 46 47  1  0
 46 45  2  0
 48 59  2  0
 49 47  1  0
 49 54  1  0
 50 58  1  0
 50 60  1  0
 51 57  1  0
 51 53  1  0
 52 58  1  0
 53 52  1  0
 54 53  2  0
 55 49  2  0
 56 55  1  0
 56 51  2  0
 57 50  1  0
 58 48  1  0
 60 62  2  0
 61 60  1  0
 63 61  1  0
 64 73  2  0
 64 69  1  0
 65 61  1  0
 65 69  1  0
 66 65  1  0
 67 68  1  0
 67 66  1  0
 68 64  1  0
 69 70  2  0
 70 71  1  0
 72 71  2  0
 73 72  1  0
 74 48  1  0
 74 75  1  0
 74 84  1  0
 75 78  1  0
 76 80  1  0
 76 75  1  0
 77 76  2  0
 80 79  1  0
 82 80  1  0
 82 83  1  0
 82 81  1  0
 84 87  1  1
 84 85  1  0
 86 84  1  0
M  ISO  4   7 100   9 100  46 101  47 101
M  END
>  <TORSDO>  (42) 
F 18

>  <SCORE>  (42) 
-16.347

>  <name>  (42) 
42

>  <ligand_id>  (42) 
42

>  <original_smiles>  (42) 
[H]c1c([H])c([H])c2c(c1[H])C([H])([H])C([H])([H])C([H])([H])C2([H])N([H])C(=O)C1([H])N(C(=O)C([H])(N([H])C(=O)C([H])(N([H])C([H])([H])[H])C([H])([H])[H])C(C([H])([H])[H])(C([H])([H])[H])C([H])([H])[H])C([H])([H])c2c([H])c(OC([H])([H])C([H])([H])C3([H])C([H])([H])C4([H])C([H])([H])C([H])(C3([H])[H])C4(C(=O)N3C([H])([H])C([H])([H])C([H])([H])C([H])(n4nc(-c5c([H])c([H])c(Oc6c([H])c([H])c(F)c([H])c6F)c([H])c5[H])c(C(=O)N([H])[H])c4N([H])[H])C3([H])[H])C([H])([H])[H])c([H])c([H])c2C1([H])[H]

>  <smiles>  (42) 
[H]c1c([H])c([H])c2c(c1[H])C([H])([H])C([H])([H])C([H])([H])C2([H])N([H])C(=O)C1([H])N(C(=O)C([H])(N([H])C(=O)C([H])(N([H])C([H])([H])[H])C([H])([H])[H])C(C([H])([H])[H])(C([H])([H])[H])C([H])([H])[H])C([H])([H])c2c([H])c(OC([H])([H])C([H])([H])C3([H])C([H])([H])C4([H])C([H])([H])C([H])(C3([H])[H])C4(C(=O)N3C([H])([H])C([H])([H])C([H])([H])C([H])(n4nc(-c5c([H])c([H])c(Oc6c([H])c([H])c(F)c([H])c6F)c([H])c5[H])c(C(=O)N([H])[H])c4N([H])[H])C3([H])[H])C([H])([H])[H])c([H])c([H])c2C1([H])[H]

$$$$
43:0:0
     RDKit          3D

 97106  0  0  1  0  0  0  0  0999 V2000
  -29.9360  -19.8870   20.7480 C   0  0  0  0  0  2  0  0  0  0  0  0
  -34.7650  -20.5070   18.8370 C   0  0  0  0  0  3  0  0  0  0  0  0
  -34.2620  -20.9190   20.0840 C   0  0  0  0  0  3  0  0  0  0  0  0
  -34.0790  -19.5200   18.1140 C   0  0  0  0  0  3  0  0  0  0  0  0
  -33.0590  -20.3720   20.5810 C   0  0  0  0  0  3  0  0  0  0  0  0
  -32.3040  -17.8880   17.9460 C   0  0  0  0  0  3  0  0  0  0  0  0
  -31.3180  -17.1330   18.5870 C   0  0  0  0  0  3  0  0  0  0  0  0
  -32.9030  -18.9440   18.6370 C   0  0  0  0  0  0  0  0  0  0  0  0
  -32.3300  -19.4070   19.8530 C   0  0  0  0  0  0  0  0  0  0  0  0
  -30.8110  -17.4840   19.8590 C   0  0  0  0  0  0  0  0  0  0  0  0
  -31.0780  -18.8660   20.2900 C   0  0  0  0  0  0  0  0  0  0  0  0
  -28.5480  -16.4850   20.2210 C   0  0  0  0  0  1  0  0  0  0  0  0
  -30.0210  -16.3130   20.5990 C   0  0  0  0  0  3  0  0  0  0  0  0
  -30.6340  -14.8020   20.3800 C   0  0  0  0  0  0  0  0  0  0  0  0
  -30.3690  -12.5180   19.3790 C   0  0  0  0  0  2  0  0  0  0  0  0
  -29.4440  -12.5690   18.1440 C   0  0  0  0  0  2  0  0  0  0  0  0
  -27.9780  -12.3660   18.5700 C   0  0  0  0  0  2  0  0  0  0  0  0
  -27.5870  -13.2710   19.7660 C   0  0  0  0  0  3  0  0  0  0  0  0
  -28.6490  -13.2490   20.8960 C   0  0  0  0  0  2  0  0  0  0  0  0
  -29.9440  -13.6010   20.3030 N   0  0  0  0  0  0  0  0  0  0  0  0
  -31.8370  -14.7510   20.1130 O   0  0  0  0  0  0  0  0  0  0  0  0
  -25.2010  -13.8670   20.4860 C   0  0  0  0  0  0  0  0  0  0  0  0
  -24.1370  -13.0940   20.8710 C   0  0  0  0  0  0  0  0  0  0  0  0
  -24.6080  -11.7470   20.8530 C   0  0  0  0  0  0  0  0  0  0  0  0
  -26.2470  -12.9870   20.2630 N   0  0  0  0  0  0  0  0  0  0  0  0
  -25.9000  -11.7070   20.5490 N   0  0  0  0  0  0  0  0  0  0  0  0
  -23.8840  -10.4860   21.0480 C   0  0  0  0  0  0  0  0  0  0  0  0
  -24.3280   -9.5160   21.9730 C   0  0  0  0  0  3  0  0  0  0  0  0
  -23.6040   -8.3170   22.1540 C   0  0  0  0  0  3  0  0  0  0  0  0
  -22.4220   -8.0810   21.4110 C   0  0  0  0  0  0  0  0  0  0  0  0
  -21.9990   -9.0430   20.4760 C   0  0  0  0  0  3  0  0  0  0  0  0
  -22.7230  -10.2310   20.2930 C   0  0  0  0  0  3  0  0  0  0  0  0
  -21.6690   -6.9350   21.5020 O   0  0  0  0  0  0  0  0  0  0  0  0
  -21.6450   -6.1800   22.6470 C   0  0  0  0  0  0  0  0  0  0  0  0
  -21.2560   -6.7240   23.8920 C   0  0  0  0  0  3  0  0  0  0  0  0
  -21.1760   -5.8920   25.0280 C   0  0  0  0  0  3  0  0  0  0  0  0
  -21.4780   -4.5220   24.9220 C   0  0  0  0  0  0  0  0  0  0  0  0
  -21.8600   -3.9790   23.6830 C   0  0  0  0  0  3  0  0  0  0  0  0
  -21.9400   -4.8040   22.5480 C   0  0  0  0  0  0  0  0  0  0  0  0
  -22.2860   -4.2720   21.3520 F   0  0  0  0  0  0  0  0  0  0  0  0
  -21.3950   -3.7220   26.0120 F   0  0  0  0  0  0  0  0  0  0  0  0
  -22.7380  -13.5710   21.1330 C   0  0  0  0  0  0  0  0  0  0  0  0
  -22.0110  -12.8800   22.0040 N   0  0  0  0  0  0  0  0  0  0  0  0
  -22.2980  -14.5890   20.6010 O   0  0  0  0  0  0  0  0  0  0  0  0
  -22.3780  -12.0530   22.4510 H   0  0  0  0  0  0  0  0  0  0  0  0
  -21.0720  -13.1810   22.2240 H   0  0  0  0  0  0  0  0  0  0  0  0
  -25.3530  -15.2320   20.2830 N   0  0  0  0  0  0  0  0  0  0  0  0
  -24.5830  -15.8850   20.3680 H   0  0  0  0  0  0  0  0  0  0  0  0
  -26.1900  -15.6630   19.9120 H   0  0  0  0  0  0  0  0  0  0  0  0
  -30.2210  -21.6100   22.6100 C   0  0  0  0  0  1  0  0  0  0  0  0
  -30.1660  -21.4760   21.0680 C   0  0  0  0  0  3  0  0  0  0  0  0
  -29.1470  -22.4770   20.4940 N   0  0  0  0  0  4  0  0  0  0  0  0
  -29.0730  -22.2590   19.5130 H   0  0  0  0  0  0  0  0  0  0  0  0
  -28.2460  -22.2720   20.8980 H   0  0  0  0  0  0  0  0  0  0  0  0
  -29.4020  -24.0020   20.5710 C   0  0  0  0  0  3  0  0  0  0  0  0
  -28.2140  -24.9950   20.1150 C   0  0  0  0  0  3  0  0  0  0  0  0
  -28.3660  -26.4780   20.2600 O   0  0  0  0  0  0  0  0  0  0  0  0
  -24.5950  -31.8930   23.2390 C   0  0  0  0  0  0  0  0  0  0  0  0
  -27.2270  -27.3120   20.1980 C   0  0  0  0  0  0  0  0  0  0  0  0
  -23.3910  -30.4830   21.6000 C   0  0  0  0  0  3  0  0  0  0  0  0
  -24.8460  -28.9140   20.1850 C   0  0  0  0  0  0  0  0  0  0  0  0
  -25.9240  -30.7960   21.4170 C   0  0  0  0  0  2  0  0  0  0  0  0
  -26.0090  -29.4100   20.7820 C   0  0  0  0  0  0  0  0  0  0  0  0
  -27.1980  -28.6190   20.7840 C   0  0  0  0  0  3  0  0  0  0  0  0
  -26.0370  -26.8730   19.5700 C   0  0  0  0  0  3  0  0  0  0  0  0
  -24.8610  -27.6510   19.5680 C   0  0  0  0  0  3  0  0  0  0  0  0
  -23.6110  -29.7910   20.2240 C   0  0  0  0  0  2  0  0  0  0  0  0
  -24.6550  -31.0790   22.1420 N   0  0  0  0  0  0  0  0  0  0  0  0
  -23.5120  -32.1750   23.7740 O   0  0  0  0  0  0  0  0  0  0  0  0
  -22.7230  -29.4810   22.5690 C   0  0  0  0  0  0  0  0  0  0  0  0
  -21.3960  -29.3150   22.4450 N   0  0  0  0  0  0  0  0  0  0  0  0
  -23.3990  -28.8530   23.3890 O   0  0  0  0  0  0  0  0  0  0  0  0
  -20.9170  -29.8730   21.7510 H   0  0  0  0  0  0  0  0  0  0  0  0
  -18.0090  -28.1390   22.9480 C   0  0  0  0  0  0  0  0  0  0  0  0
  -20.5680  -28.3840   23.2170 C   0  0  0  0  0  3  0  0  0  0  0  0
  -20.6640  -26.9500   22.6470 C   0  0  0  0  0  2  0  0  0  0  0  0
  -19.5590  -26.6300   21.6340 C   0  0  0  0  0  2  0  0  0  0  0  0
  -18.1790  -26.7860   22.2770 C   0  0  0  0  0  2  0  0  0  0  0  0
  -19.1320  -28.8950   23.3760 C   0  0  0  0  0  0  0  0  0  0  0  0
  -18.9210  -30.1600   23.9660 C   0  0  0  0  0  3  0  0  0  0  0  0
  -17.6200  -30.6650   24.1370 C   0  0  0  0  0  3  0  0  0  0  0  0
  -16.5110  -29.9060   23.7260 C   0  0  0  0  0  3  0  0  0  0  0  0
  -16.7060  -28.6440   23.1370 C   0  0  0  0  0  3  0  0  0  0  0  0
  -25.8800  -32.5230   23.8590 C   0  0  0  0  0  3  0  0  0  0  0  0
  -25.5760  -33.9220   24.1940 N   0  0  0  0  0  0  0  0  0  0  0  0
  -25.9030  -34.9760   23.4320 C   0  0  0  0  0  0  0  0  0  0  0  0
  -26.5620  -34.8750   22.3940 O   0  0  0  0  0  0  0  0  0  0  0  0
  -24.9940  -34.0750   25.0030 H   0  0  0  0  0  0  0  0  0  0  0  0
  -24.1700  -36.7710   23.0960 C   0  0  0  0  0  1  0  0  0  0  0  0
  -25.4200  -36.3650   23.8940 C   0  0  0  0  0  3  0  0  0  0  0  0
  -27.5660  -37.2450   24.7020 C   0  0  0  0  0  1  0  0  0  0  0  0
  -26.4530  -37.4190   23.7730 N   0  0  0  0  0  0  0  0  0  0  0  0
  -26.0500  -38.3390   23.9300 H   0  0  0  0  0  0  0  0  0  0  0  0
  -26.4060  -31.7490   25.1300 C   0  0  1  0  0  0  0  0  0  0  0  0
  -25.3200  -31.5030   26.2050 C   0  0  0  0  0  1  0  0  0  0  0  0
  -26.9860  -30.3720   24.7310 C   0  0  0  0  0  1  0  0  0  0  0  0
  -27.5700  -32.5360   25.7800 C   0  0  0  0  0  1  0  0  0  0  0  0
  1 51  1  0
  2  3  1  0
  3  5  2  0
  4  8  1  0
  4  2  2  0
  6  7  2  0
  6  8  1  0
  7 10  1  0
  8  9  2  0
  9 11  1  0
  9  5  1  0
 10 11  2  0
 10 13  1  0
 11  1  1  0
 13 12  1  0
 14 13  1  0
 15 20  1  0
 16 17  1  0
 16 15  1  0
 18 17  1  0
 18 25  1  0
 18 19  1  0
 20 14  1  0
 20 19  1  0
 21 14  2  0
 22 23  2  0
 23 42  1  0
 24 23  1  0
 24 27  1  0
 25 22  1  0
 25 26  1  0
 26 24  2  0
 27 28  1  0
 28 29  2  0
 30 33  1  0
 30 29  1  0
 31 30  2  0
 32 31  1  0
 32 27  2  0
 33 34  1  0
 34 35  1  0
 35 36  2  0
 37 36  1  0
 37 41  1  0
 38 37  2  0
 39 34  2  0
 39 38  1  0
 40 39  1  0
 42 43  1  0
 43 46  1  0
 43 45  1  0
 44 42  2  0
 47 48  1  0
 47 22  1  0
 49 47  1  0
 51 50  1  0
 52 55  1  0
 52 54  1  0
 52 51  1  0
 53 52  1  0
 56 57  1  0
 56 55  2  0
 58 69  2  0
 59 57  1  0
 59 64  1  0
 60 68  1  0
 60 70  1  0
 61 67  1  0
 61 63  1  0
 62 68  1  0
 63 64  2  0
 63 62  1  0
 65 59  2  0
 66 65  1  0
 66 61  2  0
 67 60  1  0
 68 58  1  0
 70 72  2  0
 71 70  1  0
 73 71  1  0
 74 83  2  0
 74 79  1  0
 75 71  1  0
 75 79  1  0
 76 75  1  0
 77 78  1  0
 77 76  1  0
 78 74  1  0
 79 80  2  0
 80 81  1  0
 82 81  2  0
 83 82  1  0
 84 58  1  0
 84 85  1  0
 84 94  1  0
 85 88  1  0
 86 90  1  0
 86 85  1  0
 87 86  2  0
 90 89  1  0
 92 90  1  0
 92 93  1  0
 92 91  1  0
 94 97  1  1
 94 95  1  0
 96 94  1  0
M  ISO  4  13 100  14 100  56 101  57 101
M  END
>  <TORSDO>  (43) 
F 22

>  <SCORE>  (43) 
-13.461

>  <name>  (43) 
43

>  <ligand_id>  (43) 
43

>  <original_smiles>  (43) 
[H]c1c([H])c([H])c2c(c1[H])C([H])([H])C([H])([H])C([H])([H])C2([H])N([H])C(=O)C1([H])N(C(=O)C([H])(N([H])C(=O)C([H])(N([H])C([H])([H])[H])C([H])([H])[H])C(C([H])([H])[H])(C([H])([H])[H])C([H])([H])[H])C([H])([H])c2c([H])c(OC([H])([H])C([H])([H])[N+]([H])([H])C([H])(C([H])([H])[H])C([H])([H])c3c(C([H])(C(=O)N4C([H])([H])C([H])([H])C([H])([H])C([H])(n5nc(-c6c([H])c([H])c(Oc7c([H])c([H])c(F)c([H])c7F)c([H])c6[H])c(C(=O)N([H])[H])c5N([H])[H])C4([H])[H])C([H])([H])[H])c([H])c([H])c4c([H])c([H])c([H])c([H])c34)c([H])c([H])c2C1([H])[H]

>  <smiles>  (43) 
[H]c1c([H])c([H])c2c(c1[H])C([H])([H])C([H])([H])C([H])([H])C2([H])N([H])C(=O)C1([H])N(C(=O)C([H])(N([H])C(=O)C([H])(N([H])C([H])([H])[H])C([H])([H])[H])C(C([H])([H])[H])(C([H])([H])[H])C([H])([H])[H])C([H])([H])c2c([H])c(OC([H])([H])C([H])([H])[N+]([H])([H])C([H])(C([H])([H])[H])C([H])([H])c3c(C([H])(C(=O)N4C([H])([H])C([H])([H])C([H])([H])C([H])(n5nc(-c6c([H])c([H])c(Oc7c([H])c([H])c(F)c([H])c7F)c([H])c6[H])c(C(=O)N([H])[H])c5N([H])[H])C4([H])[H])C([H])([H])[H])c([H])c([H])c4c([H])c([H])c([H])c([H])c34)c([H])c([H])c2C1([H])[H]

$$$$
44:0:0
     RDKit          3D

 93 96  0  0  1  0  0  0  0  0999 V2000
  -30.1960  -16.5460   20.3810 C   0  0  0  0  0  1  0  0  0  0  0  0
  -29.2860  -15.6540   19.4730 N   0  0  0  0  0  0  0  0  0  0  0  0
  -28.6820  -15.3270   20.2160 H   0  0  0  0  0  0  0  0  0  0  0  0
  -32.3070   -9.9450   19.7760 C   0  0  0  0  0  2  0  0  0  0  0  0
  -32.7350  -10.7330   21.0330 C   0  0  0  0  0  2  0  0  0  0  0  0
  -30.1650  -10.6330   21.3650 C   0  0  0  0  0  2  0  0  0  0  0  0
  -31.1890  -12.0940   18.6110 C   0  0  0  0  0  2  0  0  0  0  0  0
  -29.0530  -11.6030   18.9910 C   0  0  0  0  0  2  0  0  0  0  0  0
  -31.1230  -10.5950   19.0140 C   0  0  0  0  0  3  0  0  0  0  0  0
  -29.8570  -10.5570   19.8210 C   0  0  0  0  0  3  0  0  0  0  0  0
  -31.5330  -11.2600   21.8670 C   0  0  0  0  0  3  0  0  0  0  0  0
  -29.7430  -13.0260   18.7300 C   0  0  0  0  0  2  0  0  0  0  0  0
  -31.6550  -12.7780   22.3160 C   0  0  0  0  0  2  0  0  0  0  0  0
  -31.7260  -13.8430   21.1960 C   0  0  0  0  0  0  0  0  0  0  0  0
  -30.9360  -14.7390   18.9010 C   0  0  0  0  0  1  0  0  0  0  0  0
  -29.3600  -15.0680   17.7250 C   0  0  0  0  0  1  0  0  0  0  0  0
  -27.5360  -14.7150   18.5310 C   0  0  0  0  0  1  0  0  0  0  0  0
  -27.4930  -14.1620   20.4100 C   0  0  0  0  0  3  0  0  0  0  0  0
  -29.0730  -13.8870   21.3790 C   0  0  0  0  0  2  0  0  0  0  0  0
  -30.6380  -14.1590   20.6250 N   0  0  0  0  0  0  0  0  0  0  0  0
  -32.7420  -14.3190   20.6940 O   0  0  0  0  0  0  0  0  0  0  0  0
  -25.1410  -14.0340   20.7730 C   0  0  0  0  0  3  0  0  0  0  0  0
  -24.2180  -13.1260   21.1290 C   0  0  0  0  0  0  0  0  0  0  0  0
  -24.8340  -11.8430   21.1440 C   0  0  0  0  0  0  0  0  0  0  0  0
  -26.3130  -13.3800   20.7530 N   0  0  0  0  0  0  0  0  0  0  0  0
  -26.1420  -12.0380   21.0810 N   0  0  0  0  0  2  0  0  0  0  0  0
  -24.2150  -10.5010   21.2190 C   0  0  0  0  0  0  0  0  0  0  0  0
  -24.6090   -9.5190   22.1540 C   0  0  0  0  0  3  0  0  0  0  0  0
  -23.8980   -8.2990   22.2620 C   0  0  0  0  0  3  0  0  0  0  0  0
  -22.7840   -8.0420   21.4250 C   0  0  0  0  0  0  0  0  0  0  0  0
  -22.4290   -8.9960   20.4550 C   0  0  0  0  0  3  0  0  0  0  0  0
  -23.1400  -10.2040   20.3490 C   0  0  0  0  0  3  0  0  0  0  0  0
  -22.0320   -6.8900   21.4560 O   0  0  0  0  0  0  0  0  0  0  0  0
  -21.8210   -6.1980   22.6210 C   0  0  0  0  0  0  0  0  0  0  0  0
  -21.1850   -6.7820   23.7390 C   0  0  0  0  0  3  0  0  0  0  0  0
  -20.9270   -6.0080   24.8900 C   0  0  0  0  0  3  0  0  0  0  0  0
  -21.2950   -4.6470   24.9210 C   0  0  0  0  0  0  0  0  0  0  0  0
  -21.9160   -4.0610   23.8040 C   0  0  0  0  0  3  0  0  0  0  0  0
  -22.1750   -4.8350   22.6590 C   0  0  0  0  0  0  0  0  0  0  0  0
  -22.7570   -4.2570   21.5830 F   0  0  0  0  0  0  0  0  0  0  0  0
  -21.0410   -3.9040   26.0240 F   0  0  0  0  0  0  0  0  0  0  0  0
  -22.8090  -13.4920   21.3560 C   0  0  0  0  0  0  0  0  0  0  0  0
  -22.1540  -12.7840   22.2560 N   0  0  0  0  0  0  0  0  0  0  0  0
  -22.3240  -14.4750   20.8000 O   0  0  0  0  0  0  0  0  0  0  0  0
  -22.5970  -12.0010   22.7160 H   0  0  0  0  0  0  0  0  0  0  0  0
  -21.1940  -13.0110   22.4760 H   0  0  0  0  0  0  0  0  0  0  0  0
  -25.0730  -15.3970   20.4820 N   0  0  0  0  0  0  0  0  0  0  0  0
  -24.1480  -15.7700   20.2910 H   0  0  0  0  0  0  0  0  0  0  0  0
  -25.7930  -15.8740   19.9560 H   0  0  0  0  0  0  0  0  0  0  0  0
  -28.3870  -17.5230   19.3010 C   0  0  0  0  0 15  0  0  0  0  0  0
  -28.4790  -19.8430   19.8220 C   0  0  0  0  0 15  0  0  0  0  0  0
  -27.7830  -22.1180   19.8130 C   0  0  0  0  0 15  0  0  0  0  0  0
  -27.9400  -24.2080   20.1470 O   0  0  0  0  0  1  0  0  0  0  0  0
  -24.7520  -31.5370   22.9830 C   0  0  0  0  0  0  0  0  0  0  0  0
  -27.1740  -25.7820   20.1410 C   0  0  0  0  0  0  0  0  0  0  0  0
  -23.6350  -30.0860   21.3680 C   0  0  0  0  0  3  0  0  0  0  0  0
  -25.0860  -28.2900   20.0410 C   0  0  0  0  0  0  0  0  0  0  0  0
  -26.2320  -30.0020   21.3940 C   0  0  0  0  0  2  0  0  0  0  0  0
  -26.2740  -28.4900   20.7440 C   0  0  0  0  0  0  0  0  0  0  0  0
  -27.2790  -27.2810   20.7540 C   0  0  0  0  0  3  0  0  0  0  0  0
  -25.9720  -25.9810   19.3830 C   0  0  0  0  0  3  0  0  0  0  0  0
  -25.0140  -27.0710   19.3410 C   0  0  0  0  0  3  0  0  0  0  0  0
  -23.9310  -29.3360   20.0300 C   0  0  0  0  0  2  0  0  0  0  0  0
  -24.9100  -30.5940   21.9660 N   0  0  0  0  0  0  0  0  0  0  0  0
  -23.6290  -31.8720   23.4150 O   0  0  0  0  0  0  0  0  0  0  0  0
  -22.8460  -29.1720   22.3500 C   0  0  0  0  0  0  0  0  0  0  0  0
  -21.5020  -29.1010   22.2450 N   0  0  0  0  0  0  0  0  0  0  0  0
  -23.4640  -28.5210   23.1940 O   0  0  0  0  0  0  0  0  0  0  0  0
  -21.0450  -29.6770   21.5510 H   0  0  0  0  0  0  0  0  0  0  0  0
  -18.0610  -28.0610   22.8500 C   0  0  0  0  0  0  0  0  0  0  0  0
  -20.6420  -28.1950   23.0220 C   0  0  0  0  0  3  0  0  0  0  0  0
  -20.6450  -26.7740   22.4110 C   0  0  0  0  0  2  0  0  0  0  0  0
  -19.4970  -26.5400   21.4250 C   0  0  0  0  0  2  0  0  0  0  0  0
  -18.1460  -26.7310   22.1190 C   0  0  0  0  0  2  0  0  0  0  0  0
  -19.2310  -28.7570   23.2570 C   0  0  0  0  0  0  0  0  0  0  0  0
  -19.0920  -30.0000   23.9130 C   0  0  0  0  0  3  0  0  0  0  0  0
  -17.8180  -30.5490   24.1550 C   0  0  0  0  0  3  0  0  0  0  0  0
  -16.6640  -29.8520   23.7560 C   0  0  0  0  0  3  0  0  0  0  0  0
  -16.7870  -28.6080   23.1110 C   0  0  0  0  0  3  0  0  0  0  0  0
  -25.9560  -32.2550   23.6700 C   0  0  0  0  0  3  0  0  0  0  0  0
  -25.5670  -33.6510   24.0030 N   0  0  0  0  0  0  0  0  0  0  0  0
  -25.9280  -34.7520   23.3270 C   0  0  0  0  0  0  0  0  0  0  0  0
  -26.6670  -34.7040   22.3410 O   0  0  0  0  0  0  0  0  0  0  0  0
  -24.9150  -33.7600   24.7650 H   0  0  0  0  0  0  0  0  0  0  0  0
  -24.1950  -36.5530   22.9600 C   0  0  0  0  0  1  0  0  0  0  0  0
  -25.3970  -36.1210   23.8160 C   0  0  0  0  0  3  0  0  0  0  0  0
  -27.4630  -37.0260   24.7990 C   0  0  0  0  0  1  0  0  0  0  0  0
  -26.4150  -37.1970   23.7970 N   0  0  0  0  0  0  0  0  0  0  0  0
  -25.9820  -38.1060   23.9440 H   0  0  0  0  0  0  0  0  0  0  0  0
  -26.4260  -31.5320   24.9950 C   0  0  1  0  0  0  0  0  0  0  0  0
  -25.2900  -31.2940   26.0200 C   0  0  0  0  0  1  0  0  0  0  0  0
  -27.0590  -30.1610   24.6860 C   0  0  0  0  0  1  0  0  0  0  0  0
  -27.5260  -32.3710   25.6890 C   0  0  0  0  0  1  0  0  0  0  0  0
  2  3  1  0
  2  1  1  0
  4  5  1  0
  5 11  1  0
  6 11  1  0
  7 12  1  0
  9  7  1  0
  9  4  1  0
  9 10  1  0
 10  8  1  0
 10  6  1  0
 11 13  1  0
 12  8  1  0
 14 13  1  0
 15 20  1  0
 16  2  1  0
 18 17  1  0
 18 25  1  0
 18 19  1  0
 20 14  1  0
 20 19  1  0
 21 14  2  0
 22 47  1  0
 22 23  1  0
 23 24  2  0
 23 42  1  0
 24 27  1  0
 25 22  1  0
 25 26  1  0
 26 24  1  0
 27 28  1  0
 28 29  2  0
 30 33  1  0
 30 29  1  0
 31 30  2  0
 32 31  1  0
 32 27  2  0
 33 34  1  0
 34 39  2  0
 34 35  1  0
 35 36  2  0
 36 37  1  0
 37 41  1  0
 38 37  2  0
 39 38  1  0
 40 39  1  0
 42 43  1  0
 43 46  1  0
 43 45  1  0
 44 42  2  0
 48 47  1  0
 49 47  1  0
 54 65  2  0
 55 53  1  0
 55 60  1  0
 56 64  1  0
 56 66  1  0
 57 59  1  0
 58 64  1  0
 59 60  2  0
 59 58  1  0
 61 55  2  0
 62 61  1  0
 62 57  2  0
 63 57  1  0
 63 56  1  0
 64 54  1  0
 66 68  2  0
 67 66  1  0
 69 67  1  0
 70 79  2  0
 70 75  1  0
 71 67  1  0
 71 75  1  0
 72 71  1  0
 73 74  1  0
 73 72  1  0
 74 70  1  0
 75 76  2  0
 76 77  1  0
 78 77  2  0
 79 78  1  0
 80 54  1  0
 80 81  1  0
 80 90  1  0
 81 84  1  0
 82 86  1  0
 82 81  1  0
 83 82  2  0
 86 85  1  0
 88 86  1  0
 88 89  1  0
 88 87  1  0
 90 93  1  1
 90 91  1  0
 92 90  1  0
M  ISO  4  13 100  14 100  52 101  53 101
M  END
>  <TORSDO>  (44) 
F 21

>  <SCORE>  (44) 
-12.074

>  <name>  (44) 
44

>  <ligand_id>  (44) 
44

>  <original_smiles>  (44) 
[H]c1c([H])c([H])c2c(c1[H])C([H])([H])C([H])([H])C([H])([H])C2([H])N([H])C(=O)C1([H])N(C(=O)C([H])(N([H])C(=O)C([H])(N([H])C([H])([H])[H])C([H])([H])[H])C(C([H])([H])[H])(C([H])([H])[H])C([H])([H])[H])C([H])([H])c2c([H])c(OC([H])([H])C([H])([H])C([H])([H])[N+]([H])(C([H])([H])[H])C3([H])C([H])([H])C4([H])C([H])([H])C([H])([H])C([H])(C([H])([H])C(=O)N5C([H])([H])C([H])([H])C([H])([H])C([H])(n6nc(-c7c([H])c([H])c(Oc8c([H])c([H])c(F)c([H])c8F)c([H])c7[H])c(C(=O)N([H])[H])c6N([H])[H])C5([H])[H])C([H])([H])C4([H])C3([H])[H])c([H])c([H])c2C1([H])[H]

>  <smiles>  (44) 
[H]c1c([H])c([H])c2c(c1[H])C([H])([H])C([H])([H])C([H])([H])C2([H])N([H])C(=O)C1([H])N(C(=O)C([H])(N([H])C(=O)C([H])(N([H])C([H])([H])[H])C([H])([H])[H])C(C([H])([H])[H])(C([H])([H])[H])C([H])([H])[H])C([H])([H])c2c([H])c(OC([H])([H])C([H])([H])C([H])([H])[N+]([H])(C([H])([H])[H])C3([H])C([H])([H])C4([H])C([H])([H])C([H])([H])C([H])(C([H])([H])C(=O)N5C([H])([H])C([H])([H])C([H])([H])C([H])(n6nc(-c7c([H])c([H])c(Oc8c([H])c([H])c(F)c([H])c8F)c([H])c7[H])c(C(=O)N([H])[H])c6N([H])[H])C5([H])[H])C([H])([H])C4([H])C3([H])[H])c([H])c([H])c2C1([H])[H]

$$$$
45:0:0
     RDKit          3D

 91101  0  0  1  0  0  0  0  0999 V2000
  -28.8920  -19.9830   20.2390 C   0  0  0  0  0  0  0  0  0  0  0  0
  -27.5930  -19.6970   20.0560 N   0  0  0  0  0  4  0  0  0  0  0  0
  -29.1730  -21.4390   20.3100 N   0  0  0  0  0  0  0  0  0  0  0  0
  -27.2700  -18.7410   20.0020 H   0  0  0  0  0  0  0  0  0  0  0  0
  -26.8850  -20.4150   20.0250 H   0  0  0  0  0  0  0  0  0  0  0  0
  -30.1450  -21.6080   20.5320 H   0  0  0  0  0  0  0  0  0  0  0  0
  -29.8500  -18.4510   17.8380 C   0  0  0  0  0  2  0  0  0  0  0  0
  -31.6240  -17.8050   18.5350 C   0  0  0  0  0  2  0  0  0  0  0  0
  -29.6910  -16.8700   19.9080 C   0  0  0  0  0  3  0  0  0  0  0  0
  -29.9450  -18.6060   20.3050 C   0  0  0  0  0  3  0  0  0  0  0  0
  -30.2420  -17.1020   18.4760 C   0  0  2  0  0  0  0  0  0  0  0  0
  -30.7050  -18.9250   19.0250 C   0  0  1  0  0  0  0  0  0  0  0  0
  -30.4850  -15.3260   20.2480 C   0  0  0  0  0  0  0  0  0  0  0  0
  -30.4730  -12.8740   19.4320 C   0  0  0  0  0  2  0  0  0  0  0  0
  -29.5640  -12.6780   18.1940 C   0  0  0  0  0  2  0  0  0  0  0  0
  -28.1090  -12.4140   18.6210 C   0  0  0  0  0  2  0  0  0  0  0  0
  -27.6470  -13.3750   19.7450 C   0  0  0  0  0  3  0  0  0  0  0  0
  -28.6890  -13.5370   20.8680 C   0  0  0  0  0  2  0  0  0  0  0  0
  -29.9310  -14.0170   20.2450 N   0  0  0  0  0  0  0  0  0  0  0  0
  -31.7230  -15.2780   20.2070 O   0  0  0  0  0  0  0  0  0  0  0  0
  -25.2710  -13.9110   20.4890 C   0  0  0  0  0  0  0  0  0  0  0  0
  -24.2130  -13.1230   20.8510 C   0  0  0  0  0  0  0  0  0  0  0  0
  -24.6940  -11.7780   20.8290 C   0  0  0  0  0  0  0  0  0  0  0  0
  -26.3230  -13.0450   20.2540 N   0  0  0  0  0  0  0  0  0  0  0  0
  -25.9910  -11.7560   20.5300 N   0  0  0  0  0  0  0  0  0  0  0  0
  -23.9780  -10.5080   21.0170 C   0  0  0  0  0  0  0  0  0  0  0  0
  -24.4020   -9.5570   21.9700 C   0  0  0  0  0  3  0  0  0  0  0  0
  -23.6880   -8.3530   22.1460 C   0  0  0  0  0  3  0  0  0  0  0  0
  -22.5330   -8.0920   21.3690 C   0  0  0  0  0  0  0  0  0  0  0  0
  -22.1280   -9.0330   20.4070 C   0  0  0  0  0  3  0  0  0  0  0  0
  -22.8430  -10.2290   20.2290 C   0  0  0  0  0  3  0  0  0  0  0  0
  -21.7910   -6.9380   21.4510 O   0  0  0  0  0  0  0  0  0  0  0  0
  -21.7070   -6.2170   22.6150 C   0  0  0  0  0  0  0  0  0  0  0  0
  -21.2140   -6.7830   23.8100 C   0  0  0  0  0  3  0  0  0  0  0  0
  -21.0850   -5.9880   24.9670 C   0  0  0  0  0  3  0  0  0  0  0  0
  -21.4350   -4.6250   24.9280 C   0  0  0  0  0  0  0  0  0  0  0  0
  -21.9200   -4.0570   23.7350 C   0  0  0  0  0  3  0  0  0  0  0  0
  -22.0540   -4.8510   22.5830 C   0  0  0  0  0  0  0  0  0  0  0  0
  -22.5020   -4.2940   21.4320 F   0  0  0  0  0  0  0  0  0  0  0  0
  -21.3030   -3.8570   26.0330 F   0  0  0  0  0  0  0  0  0  0  0  0
  -22.8070  -13.5850   21.1010 C   0  0  0  0  0  0  0  0  0  0  0  0
  -22.0790  -12.8800   21.9580 N   0  0  0  0  0  0  0  0  0  0  0  0
  -22.3680  -14.6060   20.5760 O   0  0  0  0  0  0  0  0  0  0  0  0
  -22.4500  -12.0560   22.4070 H   0  0  0  0  0  0  0  0  0  0  0  0
  -21.1330  -13.1680   22.1690 H   0  0  0  0  0  0  0  0  0  0  0  0
  -25.4170  -15.2820   20.3050 N   0  0  0  0  0  0  0  0  0  0  0  0
  -24.6420  -15.9280   20.4130 H   0  0  0  0  0  0  0  0  0  0  0  0
  -26.2550  -15.7170   19.9460 H   0  0  0  0  0  0  0  0  0  0  0  0
  -28.4700  -22.8850   19.8530 C   0  0  0  0  0  2  0  0  0  0  0  0
  -28.1660  -24.4340   20.6700 C   0  0  0  0  0  2  0  0  0  0  0  0
  -28.2520  -26.0160   20.2730 O   0  0  0  0  0  0  0  0  0  0  0  0
  -24.6120  -31.9170   23.2320 C   0  0  0  0  0  0  0  0  0  0  0  0
  -27.1950  -27.0490   20.2860 C   0  0  0  0  0  0  0  0  0  0  0  0
  -23.4280  -30.5030   21.6010 C   0  0  0  0  0  3  0  0  0  0  0  0
  -24.8840  -28.8860   20.2140 C   0  0  0  0  0  0  0  0  0  0  0  0
  -25.9920  -30.7330   21.4570 C   0  0  0  0  0  2  0  0  0  0  0  0
  -26.0700  -29.3180   20.8230 C   0  0  0  0  0  0  0  0  0  0  0  0
  -27.2250  -28.4230   20.8250 C   0  0  0  0  0  3  0  0  0  0  0  0
  -25.9780  -26.7490   19.6380 C   0  0  0  0  0  3  0  0  0  0  0  0
  -24.8600  -27.6220   19.6010 C   0  0  0  0  0  3  0  0  0  0  0  0
  -23.6660  -29.8060   20.2360 C   0  0  0  0  0  2  0  0  0  0  0  0
  -24.7000  -31.0780   22.1510 N   0  0  0  0  0  0  0  0  0  0  0  0
  -23.5190  -32.2050   23.7470 O   0  0  0  0  0  0  0  0  0  0  0  0
  -22.7350  -29.5150   22.5740 C   0  0  0  0  0  0  0  0  0  0  0  0
  -21.4050  -29.3480   22.4490 N   0  0  0  0  0  0  0  0  0  0  0  0
  -23.3990  -28.8970   23.4100 O   0  0  0  0  0  0  0  0  0  0  0  0
  -20.9220  -29.9010   21.7540 H   0  0  0  0  0  0  0  0  0  0  0  0
  -18.0180  -28.1480   22.9620 C   0  0  0  0  0  0  0  0  0  0  0  0
  -20.5780  -28.4190   23.2260 C   0  0  0  0  0  3  0  0  0  0  0  0
  -20.6810  -26.9810   22.6660 C   0  0  0  0  0  2  0  0  0  0  0  0
  -19.5790  -26.6470   21.6540 C   0  0  0  0  0  2  0  0  0  0  0  0
  -18.1970  -26.7950   22.2940 C   0  0  0  0  0  2  0  0  0  0  0  0
  -19.1350  -28.9180   23.3850 C   0  0  0  0  0  0  0  0  0  0  0  0
  -18.9100  -30.1810   23.9720 C   0  0  0  0  0  3  0  0  0  0  0  0
  -17.6030  -30.6770   24.1380 C   0  0  0  0  0  3  0  0  0  0  0  0
  -16.5020  -29.9060   23.7270 C   0  0  0  0  0  3  0  0  0  0  0  0
  -16.7100  -28.6440   23.1440 C   0  0  0  0  0  3  0  0  0  0  0  0
  -25.8790  -32.5690   23.8660 C   0  0  0  0  0  3  0  0  0  0  0  0
  -26.3750  -31.8240   25.1670 C   0  0  1  0  0  0  0  0  0  0  0  0
  -25.2670  -31.6070   26.2220 C   0  0  0  0  0  1  0  0  0  0  0  0
  -26.9630  -30.4380   24.8160 C   0  0  0  0  0  1  0  0  0  0  0  0
  -27.5190  -32.6280   25.8290 C   0  0  0  0  0  1  0  0  0  0  0  0
  -25.5600  -33.9740   24.1760 N   0  0  0  0  0  0  0  0  0  0  0  0
  -25.9040  -35.0240   23.4170 C   0  0  0  0  0  0  0  0  0  0  0  0
  -26.5880  -34.9100   22.3960 O   0  0  0  0  0  0  0  0  0  0  0  0
  -24.9590  -34.1400   24.9700 H   0  0  0  0  0  0  0  0  0  0  0  0
  -24.1960  -36.8300   23.0240 C   0  0  0  0  0  1  0  0  0  0  0  0
  -25.4190  -36.4180   23.8590 C   0  0  0  0  0  3  0  0  0  0  0  0
  -27.5410  -37.2970   24.7320 C   0  0  0  0  0  1  0  0  0  0  0  0
  -26.4610  -37.4640   23.7630 N   0  0  0  0  0  0  0  0  0  0  0  0
  -26.0570  -38.3880   23.8920 H   0  0  0  0  0  0  0  0  0  0  0  0
  1  3  1  0
  2  1  2  0
  3  6  1  0
  4  2  1  0
  5  2  1  0
 12  8  1  6
  9 13  1  0
  9 10  1  0
 10  1  1  0
 11  7  1  6
 11  8  1  0
 11 12  1  0
 11  9  1  0
 12  7  1  0
 12 10  1  0
 14 19  1  0
 15 16  1  0
 15 14  1  0
 17 16  1  0
 17 24  1  0
 17 18  1  0
 19 13  1  0
 19 18  1  0
 20 13  2  0
 21 22  2  0
 22 41  1  0
 23 22  1  0
 23 26  1  0
 24 21  1  0
 24 25  1  0
 25 23  2  0
 26 27  1  0
 27 28  2  0
 29 32  1  0
 29 28  1  0
 30 29  2  0
 31 30  1  0
 31 26  2  0
 32 33  1  0
 33 34  1  0
 34 35  2  0
 36 35  1  0
 36 40  1  0
 37 36  2  0
 38 33  2  0
 38 37  1  0
 39 38  1  0
 41 42  1  0
 42 45  1  0
 42 44  1  0
 43 41  2  0
 46 47  1  0
 46 21  1  0
 48 46  1  0
 49  3  1  0
 49 50  1  0
 51 53  1  0
 51 50  1  0
 52 63  2  0
 53 58  1  0
 54 62  1  0
 54 64  1  0
 55 61  1  0
 55 57  1  0
 56 62  1  0
 57 58  2  0
 57 56  1  0
 59 53  2  0
 60 59  1  0
 60 55  2  0
 61 54  1  0
 62 52  1  0
 64 66  2  0
 65 64  1  0
 67 65  1  0
 68 77  2  0
 68 73  1  0
 69 65  1  0
 69 73  1  0
 70 69  1  0
 71 72  1  0
 71 70  1  0
 72 68  1  0
 73 74  2  0
 74 75  1  0
 76 75  2  0
 77 76  1  0
 78 52  1  0
 78 83  1  0
 78 79  1  0
 79 82  1  1
 79 80  1  0
 81 79  1  0
 83 86  1  0
 84 88  1  0
 84 83  1  0
 85 84  2  0
 88 87  1  0
 90 88  1  0
 90 91  1  0
 90 89  1  0
M  ISO  4   9 100  13 100  50 101  51 101
M  END
>  <TORSDO>  (45) 
F 19

>  <SCORE>  (45) 
-16.061

>  <name>  (45) 
45

>  <ligand_id>  (45) 
45

>  <original_smiles>  (45) 
[H]c1c([H])c([H])c2c(c1[H])C([H])([H])C([H])([H])C([H])([H])C2([H])N([H])C(=O)C1([H])N(C(=O)C([H])(N([H])C(=O)C([H])(N([H])C([H])([H])[H])C([H])([H])[H])C(C([H])([H])[H])(C([H])([H])[H])C([H])([H])[H])C([H])([H])c2c([H])c(OC([H])([H])C([H])([H])[N+]([H])=C(N([H])[H])C3([H])C([H])(C(=O)N4C([H])([H])C([H])([H])C([H])([H])C([H])(n5nc(-c6c([H])c([H])c(Oc7c([H])c([H])c(F)c([H])c7F)c([H])c6[H])c(C(=O)N([H])[H])c5N([H])[H])C4([H])[H])C4([H])C([H])([H])C3([H])C4([H])[H])c([H])c([H])c2C1([H])[H]

>  <smiles>  (45) 
[H]c1c([H])c([H])c2c(c1[H])C([H])([H])C([H])([H])C([H])([H])C2([H])N([H])C(=O)C1([H])N(C(=O)C([H])(N([H])C(=O)C([H])(N([H])C([H])([H])[H])C([H])([H])[H])C(C([H])([H])[H])(C([H])([H])[H])C([H])([H])[H])C([H])([H])c2c([H])c(OC([H])([H])C([H])([H])[N+]([H])=C(N([H])[H])C3([H])C([H])(C(=O)N4C([H])([H])C([H])([H])C([H])([H])C([H])(n5nc(-c6c([H])c([H])c(Oc7c([H])c([H])c(F)c([H])c7F)c([H])c6[H])c(C(=O)N([H])[H])c5N([H])[H])C4([H])[H])C4([H])C([H])([H])C3([H])C4([H])[H])c([H])c([H])c2C1([H])[H]

$$$$
46:0:0
     RDKit          3D

 92100  0  0  1  0  0  0  0  0999 V2000
  -32.1090  -20.9360   18.5850 N   0  0  0  0  0  4  0  0  0  0  0  0
  -31.1160  -21.0550   18.4530 H   0  0  0  0  0  0  0  0  0  0  0  0
  -32.3350  -21.5000   19.3860 H   0  0  0  0  0  0  0  0  0  0  0  0
  -32.8060  -21.7330   17.3160 C   0  0  0  0  0  2  0  0  0  0  0  0
  -32.3970  -23.2870   16.5600 C   0  0  0  0  0  3  0  0  0  0  0  0
  -32.7750  -23.9570   14.9600 C   0  0  0  0  0  3  0  0  0  0  0  0
  -32.4180  -25.3390   14.1750 O   0  0  0  0  0  0  0  0  0  0  0  0
  -30.5500  -27.2270    7.1410 C   0  0  0  0  0  0  0  0  0  0  0  0
  -32.7440  -25.6650   12.7710 C   0  0  0  0  0  0  0  0  0  0  0  0
  -32.6800  -26.0510    7.5140 C   0  0  0  0  0  3  0  0  0  0  0  0
  -33.5380  -25.9800    9.9470 C   0  0  0  0  0  0  0  0  0  0  0  0
  -31.7320  -27.5820    9.3580 C   0  0  0  0  0  2  0  0  0  0  0  0
  -32.4460  -26.7130   10.4280 C   0  0  0  0  0  0  0  0  0  0  0  0
  -32.0710  -26.5810   11.8340 C   0  0  0  0  0  3  0  0  0  0  0  0
  -33.8740  -25.0420   12.1990 C   0  0  0  0  0  3  0  0  0  0  0  0
  -34.2600  -25.1770   10.8430 C   0  0  0  0  0  3  0  0  0  0  0  0
  -33.9050  -26.0750    8.4690 C   0  0  0  0  0  2  0  0  0  0  0  0
  -31.5940  -26.9670    7.9910 N   0  0  0  0  0  0  0  0  0  0  0  0
  -30.4950  -26.7310    6.0050 O   0  0  0  0  0  0  0  0  0  0  0  0
  -32.2040  -24.5880    7.3230 C   0  0  0  0  0  0  0  0  0  0  0  0
  -32.7480  -23.8850    6.3120 N   0  0  0  0  0  0  0  0  0  0  0  0
  -31.3740  -24.0980    8.0940 O   0  0  0  0  0  0  0  0  0  0  0  0
  -33.4100  -24.3540    5.7110 H   0  0  0  0  0  0  0  0  0  0  0  0
  -32.8050  -21.3880    3.6820 C   0  0  0  0  0  0  0  0  0  0  0  0
  -32.4770  -22.4760    6.0070 C   0  0  0  0  0  3  0  0  0  0  0  0
  -33.6370  -21.5670    6.4770 C   0  0  0  0  0  2  0  0  0  0  0  0
  -34.6770  -21.3010    5.3840 C   0  0  0  0  0  2  0  0  0  0  0  0
  -34.0230  -20.6240    4.1760 C   0  0  0  0  0  2  0  0  0  0  0  0
  -32.0890  -22.2680    4.5380 C   0  0  0  0  0  0  0  0  0  0  0  0
  -30.9820  -22.9750    4.0180 C   0  0  0  0  0  3  0  0  0  0  0  0
  -30.5900  -22.8150    2.6760 C   0  0  0  0  0  3  0  0  0  0  0  0
  -31.2950  -21.9330    1.8380 C   0  0  0  0  0  3  0  0  0  0  0  0
  -32.3970  -21.2190    2.3430 C   0  0  0  0  0  3  0  0  0  0  0  0
  -29.3810  -28.1750    7.5490 C   0  0  0  0  0  3  0  0  0  0  0  0
  -29.1630  -29.1240    6.4430 N   0  0  0  0  0  0  0  0  0  0  0  0
  -29.7660  -30.3140    6.3250 C   0  0  0  0  0  0  0  0  0  0  0  0
  -30.5330  -30.7610    7.1810 O   0  0  0  0  0  0  0  0  0  0  0  0
  -28.5940  -28.7980    5.6760 H   0  0  0  0  0  0  0  0  0  0  0  0
  -30.6310  -30.9970    4.0580 C   0  0  0  0  0  1  0  0  0  0  0  0
  -29.4710  -31.1430    5.0560 C   0  0  0  0  0  3  0  0  0  0  0  0
  -27.8500  -32.8830    5.6750 C   0  0  0  0  0  1  0  0  0  0  0  0
  -29.2360  -32.5780    5.3310 N   0  0  0  0  0  0  0  0  0  0  0  0
  -29.4950  -33.1450    4.5280 H   0  0  0  0  0  0  0  0  0  0  0  0
  -28.0420  -27.4040    7.8740 C   0  0  1  0  0  0  0  0  0  0  0  0
  -27.4560  -26.6320    6.6670 C   0  0  0  0  0  1  0  0  0  0  0  0
  -28.2540  -26.3870    9.0190 C   0  0  0  0  0  1  0  0  0  0  0  0
  -26.9680  -28.4030    8.3670 C   0  0  0  0  0  1  0  0  0  0  0  0
  -32.2750  -19.3630   19.0920 C   0  0  0  0  0  3  0  0  0  0  0  0
  -31.0700  -18.5060   18.6270 C   0  0  0  0  0  2  0  0  0  0  0  0
  -29.8230  -15.2110   21.1700 C   0  0  0  0  0  3  0  0  0  0  0  0
  -29.8080  -15.0610   19.7680 C   0  0  0  0  0  3  0  0  0  0  0  0
  -30.2450  -16.4250   21.7400 C   0  0  0  0  0  3  0  0  0  0  0  0
  -30.2190  -16.1220   18.9390 C   0  0  0  0  0  3  0  0  0  0  0  0
  -30.6530  -17.4880   20.9120 C   0  0  0  0  0  3  0  0  0  0  0  0
  -30.6530  -17.3390   19.5080 C   0  0  0  0  0  0  0  0  0  0  0  0
  -33.6500  -18.2840   18.8060 C   0  0  0  0  0  2  0  0  0  0  0  0
  -33.9010  -16.5990   18.4500 C   0  0  0  0  0  0  0  0  0  0  0  0
  -35.1170  -15.1170   16.7270 C   0  0  0  0  0  2  0  0  0  0  0  0
  -35.9550  -15.9600   15.7340 C   0  0  0  0  0  2  0  0  0  0  0  0
  -35.0930  -16.4280   14.5470 C   0  0  0  0  0  2  0  0  0  0  0  0
  -33.7170  -16.9750   15.0060 C   0  0  0  0  0  3  0  0  0  0  0  0
  -33.0340  -16.0740   16.0520 C   0  0  0  0  0  2  0  0  0  0  0  0
  -33.9570  -15.9540   17.1900 N   0  0  0  0  0  0  0  0  0  0  0  0
  -34.4360  -15.9270   19.3430 O   0  0  0  0  0  0  0  0  0  0  0  0
  -31.9330  -18.3300   13.7860 C   0  0  0  0  0  0  0  0  0  0  0  0
  -31.4340  -18.2720   12.5150 C   0  0  0  0  0  0  0  0  0  0  0  0
  -32.0750  -17.1580   11.8880 C   0  0  0  0  0  0  0  0  0  0  0  0
  -32.8410  -17.2920   13.8850 N   0  0  0  0  0  0  0  0  0  0  0  0
  -32.8720  -16.5390   12.7530 N   0  0  0  0  0  0  0  0  0  0  0  0
  -32.0200  -16.6870   10.4980 C   0  0  0  0  0  0  0  0  0  0  0  0
  -31.2810  -15.5400   10.1340 C   0  0  0  0  0  3  0  0  0  0  0  0
  -31.2260  -15.1200    8.7880 C   0  0  0  0  0  3  0  0  0  0  0  0
  -31.9090  -15.8530    7.7870 C   0  0  0  0  0  0  0  0  0  0  0  0
  -32.6600  -16.9810    8.1570 C   0  0  0  0  0  3  0  0  0  0  0  0
  -32.7190  -17.3950    9.4990 C   0  0  0  0  0  3  0  0  0  0  0  0
  -31.9330  -15.5060    6.4580 O   0  0  0  0  0  0  0  0  0  0  0  0
  -30.7780  -15.3660    5.7310 C   0  0  0  0  0  0  0  0  0  0  0  0
  -29.8860  -16.4430    5.5330 C   0  0  0  0  0  3  0  0  0  0  0  0
  -28.7470  -16.2750    4.7210 C   0  0  0  0  0  3  0  0  0  0  0  0
  -28.5010  -15.0360    4.0990 C   0  0  0  0  0  0  0  0  0  0  0  0
  -29.3910  -13.9640    4.2900 C   0  0  0  0  0  3  0  0  0  0  0  0
  -30.5270  -14.1300    5.1010 C   0  0  0  0  0  0  0  0  0  0  0  0
  -31.3930  -13.1010    5.2650 F   0  0  0  0  0  0  0  0  0  0  0  0
  -27.4120  -14.8760    3.3130 F   0  0  0  0  0  0  0  0  0  0  0  0
  -30.4950  -19.2580   11.8850 C   0  0  0  0  0  0  0  0  0  0  0  0
  -29.4760  -18.7720   11.1850 N   0  0  0  0  0  0  0  0  0  0  0  0
  -30.6330  -20.4690   12.0530 O   0  0  0  0  0  0  0  0  0  0  0  0
  -29.3530  -17.7780   11.0650 H   0  0  0  0  0  0  0  0  0  0  0  0
  -28.8110  -19.4020   10.7600 H   0  0  0  0  0  0  0  0  0  0  0  0
  -31.7190  -19.1950   14.8560 N   0  0  0  0  0  0  0  0  0  0  0  0
  -31.1040  -19.9980   14.7820 H   0  0  0  0  0  0  0  0  0  0  0  0
  -32.2340  -19.1660   15.7260 H   0  0  0  0  0  0  0  0  0  0  0  0
  1 48  1  0
  1  3  1  0
  2  1  1  0
  4  1  1  0
  5  4  1  0
  6  5  2  0
  7  6  1  0
  8 18  1  0
  9  7  1  0
 10 20  1  0
 10 18  1  0
 10 17  1  0
 11 13  2  0
 11 16  1  0
 12 13  1  0
 13 14  1  0
 14  9  2  0
 15  9  1  0
 16 15  2  0
 17 11  1  0
 18 12  1  0
 19  8  2  0
 20 22  2  0
 21 20  1  0
 23 21  1  0
 24 28  1  0
 24 29  1  0
 25 21  1  0
 25 26  1  0
 27 26  1  0
 28 27  1  0
 29 25  1  0
 30 29  2  0
 31 30  1  0
 32 33  1  0
 32 31  2  0
 33 24  2  0
 34  8  1  0
 34 44  1  0
 35 34  1  0
 36 35  1  0
 36 37  2  0
 38 35  1  0
 40 39  1  0
 40 42  1  0
 40 36  1  0
 42 41  1  0
 43 42  1  0
 44 47  1  1
 44 46  1  0
 45 44  1  0
 48 49  1  0
 49 55  1  0
 50 52  1  0
 51 50  2  0
 53 55  2  0
 53 51  1  0
 54 52  2  0
 55 54  1  0
 56 48  1  0
 57 56  1  0
 57 64  2  0
 58 63  1  0
 59 58  1  0
 60 61  1  0
 60 59  1  0
 61 68  1  0
 61 62  1  0
 62 63  1  0
 63 57  1  0
 65 68  1  0
 65 90  1  0
 66 65  2  0
 67 66  1  0
 67 69  2  0
 69 68  1  0
 70 67  1  0
 71 70  1  0
 72 71  2  0
 73 74  2  0
 73 72  1  0
 74 75  1  0
 75 70  2  0
 76 73  1  0
 77 76  1  0
 78 77  1  0
 79 78  2  0
 80 81  2  0
 80 79  1  0
 81 82  1  0
 82 83  1  0
 82 77  2  0
 84 80  1  0
 85 87  2  0
 85 66  1  0
 86 85  1  0
 88 86  1  0
 89 86  1  0
 90 92  1  0
 91 90  1  0
M  ISO  4   6 101   7 101  56 100  57 100
M  END
>  <TORSDO>  (46) 
F 23

>  <SCORE>  (46) 
-3.063

>  <name>  (46) 
46

>  <ligand_id>  (46) 
46

>  <original_smiles>  (46) 
[H]c1c([H])c([H])c(C([H])([H])C([H])(C([H])([H])C(=O)N2C([H])([H])C([H])([H])C([H])([H])C([H])(n3nc(-c4c([H])c([H])c(Oc5c([H])c([H])c(F)c([H])c5F)c([H])c4[H])c(C(=O)N([H])[H])c3N([H])[H])C2([H])[H])[N+]([H])([H])C([H])([H])C([H])([H])C([H])([H])Oc2c([H])c([H])c3c(c2[H])C([H])([H])N(C(=O)C([H])(N([H])C(=O)C([H])(N([H])C([H])([H])[H])C([H])([H])[H])C(C([H])([H])[H])(C([H])([H])[H])C([H])([H])[H])C([H])(C(=O)N([H])C2([H])c4c([H])c([H])c([H])c([H])c4C([H])([H])C([H])([H])C2([H])[H])C3([H])[H])c([H])c1[H]

>  <smiles>  (46) 
[H]c1c([H])c([H])c(C([H])([H])C([H])(C([H])([H])C(=O)N2C([H])([H])C([H])([H])C([H])([H])C([H])(n3nc(-c4c([H])c([H])c(Oc5c([H])c([H])c(F)c([H])c5F)c([H])c4[H])c(C(=O)N([H])[H])c3N([H])[H])C2([H])[H])[N+]([H])([H])C([H])([H])C([H])([H])C([H])([H])Oc2c([H])c([H])c3c(c2[H])C([H])([H])N(C(=O)C([H])(N([H])C(=O)C([H])(N([H])C([H])([H])[H])C([H])([H])[H])C(C([H])([H])[H])(C([H])([H])[H])C([H])([H])[H])C([H])(C(=O)N([H])C2([H])c4c([H])c([H])c([H])c([H])c4C([H])([H])C([H])([H])C2([H])[H])C3([H])[H])c([H])c1[H]

$$$$
47:0:0
     RDKit          3D

 94104  0  0  1  0  0  0  0  0999 V2000
  -31.4310  -17.1170   20.8920 C   0  0  0  0  0  3  0  0  0  0  0  0
  -31.1840  -18.5190   20.9640 C   0  0  0  0  0  3  0  0  0  0  0  0
  -29.1140  -16.6540   20.3770 C   0  0  0  0  0  3  0  0  0  0  0  0
  -30.4280  -16.1380   20.5840 C   0  0  0  0  0  0  0  0  0  0  0  0
  -29.8790  -18.9940   20.7300 C   0  0  0  0  0  0  0  0  0  0  0  0
  -28.8730  -18.0600   20.4750 C   0  0  0  0  0  0  0  0  0  0  0  0
  -29.8720  -21.7970   20.5240 C   0  0  0  0  0  3  0  0  0  0  0  0
  -27.5400  -18.7720   20.3980 C   0  0  0  0  0  2  0  0  0  0  0  0
  -30.5760  -21.9410   21.8660 C   0  0  0  0  0  2  0  0  0  0  0  0
  -29.4360  -21.0050   22.3450 C   0  0  0  0  0  2  0  0  0  0  0  0
  -29.2680  -20.4040   20.9290 C   0  0  2  0  0  0  0  0  0  0  0  0
  -29.4010  -22.6820   19.7300 N   0  0  0  0  0  2  0  0  0  0  0  0
  -27.8670  -20.2220   20.4820 N   0  0  0  0  0  4  0  0  0  0  0  0
  -27.2110  -20.7220   21.0560 H   0  0  0  0  0  0  0  0  0  0  0  0
  -27.8180  -20.5990   19.5510 H   0  0  0  0  0  0  0  0  0  0  0  0
  -30.8890  -14.6760   20.3410 C   0  0  0  0  0  0  0  0  0  0  0  0
  -30.5430  -12.3520   19.5570 C   0  0  0  0  0  2  0  0  0  0  0  0
  -29.6770  -12.3460   18.2800 C   0  0  0  0  0  2  0  0  0  0  0  0
  -28.1940  -12.2240   18.6650 C   0  0  0  0  0  2  0  0  0  0  0  0
  -27.7810  -13.2360   19.7650 C   0  0  0  0  0  3  0  0  0  0  0  0
  -28.7990  -13.2920   20.9330 C   0  0  0  0  0  2  0  0  0  0  0  0
  -30.1350  -13.5240   20.3710 N   0  0  0  0  0  0  0  0  0  0  0  0
  -32.0590  -14.5970   19.9640 O   0  0  0  0  0  0  0  0  0  0  0  0
  -25.3980  -13.8980   20.4530 C   0  0  0  0  0  0  0  0  0  0  0  0
  -24.3060  -13.1550   20.8060 C   0  0  0  0  0  0  0  0  0  0  0  0
  -24.7320  -11.7910   20.7870 C   0  0  0  0  0  0  0  0  0  0  0  0
  -26.4210  -12.9900   20.2360 N   0  0  0  0  0  0  0  0  0  0  0  0
  -26.0270  -11.7170   20.5040 N   0  0  0  0  0  0  0  0  0  0  0  0
  -23.9700  -10.5490   20.9680 C   0  0  0  0  0  0  0  0  0  0  0  0
  -24.3830   -9.5530   21.8800 C   0  0  0  0  0  3  0  0  0  0  0  0
  -23.6220   -8.3780   22.0510 C   0  0  0  0  0  3  0  0  0  0  0  0
  -22.4320   -8.1880   21.3100 C   0  0  0  0  0  0  0  0  0  0  0  0
  -22.0370   -9.1720   20.3870 C   0  0  0  0  0  3  0  0  0  0  0  0
  -22.7980  -10.3400   20.2130 C   0  0  0  0  0  3  0  0  0  0  0  0
  -21.6440   -7.0660   21.3900 O   0  0  0  0  0  0  0  0  0  0  0  0
  -21.6140   -6.2880   22.5190 C   0  0  0  0  0  0  0  0  0  0  0  0
  -21.2740   -6.8190   23.7830 C   0  0  0  0  0  3  0  0  0  0  0  0
  -21.1860   -5.9670   24.9020 C   0  0  0  0  0  3  0  0  0  0  0  0
  -21.4300   -4.5880   24.7620 C   0  0  0  0  0  0  0  0  0  0  0  0
  -21.7650   -4.0590   23.5040 C   0  0  0  0  0  3  0  0  0  0  0  0
  -21.8510   -4.9050   22.3840 C   0  0  0  0  0  0  0  0  0  0  0  0
  -22.1510   -4.3850   21.1690 F   0  0  0  0  0  0  0  0  0  0  0  0
  -21.3390   -3.7680   25.8350 F   0  0  0  0  0  0  0  0  0  0  0  0
  -22.9170  -13.6690   21.0460 C   0  0  0  0  0  0  0  0  0  0  0  0
  -22.1580  -13.0070   21.9110 N   0  0  0  0  0  0  0  0  0  0  0  0
  -22.5140  -14.6980   20.5020 O   0  0  0  0  0  0  0  0  0  0  0  0
  -22.4960  -12.1790   22.3770 H   0  0  0  0  0  0  0  0  0  0  0  0
  -21.2270  -13.3400   22.1160 H   0  0  0  0  0  0  0  0  0  0  0  0
  -25.6000  -15.2640   20.2730 N   0  0  0  0  0  0  0  0  0  0  0  0
  -24.8360  -15.9240   20.3610 H   0  0  0  0  0  0  0  0  0  0  0  0
  -26.4380  -15.6690   19.8800 H   0  0  0  0  0  0  0  0  0  0  0  0
  -29.7360  -24.1430   19.8300 C   0  0  0  0  0  2  0  0  0  0  0  0
  -28.5930  -25.1290   19.3300 C   0  0  0  0  0  2  0  0  0  0  0  0
  -28.7530  -26.5830   19.5610 O   0  0  0  0  0  0  0  0  0  0  0  0
  -24.9030  -31.5240   23.1170 C   0  0  0  0  0  0  0  0  0  0  0  0
  -27.6060  -27.3910   19.5850 C   0  0  0  0  0  0  0  0  0  0  0  0
  -23.7230  -30.2830   21.3380 C   0  0  0  0  0  3  0  0  0  0  0  0
  -25.2010  -28.9360   19.7430 C   0  0  0  0  0  0  0  0  0  0  0  0
  -26.2520  -30.6810   21.1850 C   0  0  0  0  0  2  0  0  0  0  0  0
  -26.3590  -29.3860   20.3880 C   0  0  0  0  0  0  0  0  0  0  0  0
  -27.5640  -28.6280   20.2980 C   0  0  0  0  0  3  0  0  0  0  0  0
  -26.4220  -26.9930   18.9200 C   0  0  0  0  0  3  0  0  0  0  0  0
  -25.2350  -27.7480   18.9970 C   0  0  0  0  0  3  0  0  0  0  0  0
  -23.9430  -29.7690   19.8920 C   0  0  0  0  0  2  0  0  0  0  0  0
  -24.9780  -30.8410   21.9370 N   0  0  0  0  0  0  0  0  0  0  0  0
  -23.8170  -31.7160   23.6820 O   0  0  0  0  0  0  0  0  0  0  0  0
  -23.0900  -29.1510   22.1830 C   0  0  0  0  0  0  0  0  0  0  0  0
  -21.7620  -28.9820   22.0690 N   0  0  0  0  0  0  0  0  0  0  0  0
  -23.7930  -28.4350   22.9010 O   0  0  0  0  0  0  0  0  0  0  0  0
  -21.2540  -29.6110   21.4650 H   0  0  0  0  0  0  0  0  0  0  0  0
  -18.4000  -27.7310   22.5280 C   0  0  0  0  0  0  0  0  0  0  0  0
  -20.9670  -27.9530   22.7420 C   0  0  0  0  0  3  0  0  0  0  0  0
  -21.0440  -26.6070   21.9860 C   0  0  0  0  0  2  0  0  0  0  0  0
  -19.9060  -26.4180   20.9760 C   0  0  0  0  0  2  0  0  0  0  0  0
  -18.5470  -26.4800   21.6790 C   0  0  0  0  0  2  0  0  0  0  0  0
  -19.5360  -28.4310   23.0140 C   0  0  0  0  0  0  0  0  0  0  0  0
  -19.3430  -29.6080   23.7690 C   0  0  0  0  0  3  0  0  0  0  0  0
  -18.0460  -30.0850   24.0410 C   0  0  0  0  0  3  0  0  0  0  0  0
  -16.9250  -29.3790   23.5700 C   0  0  0  0  0  3  0  0  0  0  0  0
  -17.1030  -28.2040   22.8200 C   0  0  0  0  0  3  0  0  0  0  0  0
  -26.1750  -32.1130   23.8000 C   0  0  0  0  0  3  0  0  0  0  0  0
  -25.8350  -33.4590   24.2830 N   0  0  0  0  0  0  0  0  0  0  0  0
  -26.1320  -34.5970   23.6420 C   0  0  0  0  0  0  0  0  0  0  0  0
  -26.7940  -34.6250   22.6000 O   0  0  0  0  0  0  0  0  0  0  0  0
  -25.2440  -33.5110   25.1000 H   0  0  0  0  0  0  0  0  0  0  0  0
  -24.3500  -36.3660   23.5060 C   0  0  0  0  0  1  0  0  0  0  0  0
  -25.6150  -35.9130   24.2530 C   0  0  0  0  0  3  0  0  0  0  0  0
  -27.7430  -36.7610   25.1390 C   0  0  0  0  0  1  0  0  0  0  0  0
  -26.6160  -37.0030   24.2410 N   0  0  0  0  0  0  0  0  0  0  0  0
  -26.1880  -37.8880   24.5010 H   0  0  0  0  0  0  0  0  0  0  0  0
  -26.7190  -31.2190   24.9810 C   0  0  1  0  0  0  0  0  0  0  0  0
  -25.6400  -30.8510   26.0250 C   0  0  0  0  0  1  0  0  0  0  0  0
  -27.3200  -29.9010   24.4410 C   0  0  0  0  0  1  0  0  0  0  0  0
  -27.8640  -31.9590   25.7130 C   0  0  0  0  0  1  0  0  0  0  0  0
  1  2  1  0
  3  6  2  0
  3  4  1  0
  4  1  2  0
  5 11  1  0
  5  2  2  0
  6  5  1  0
  7 12  1  0
  7 11  1  0
  7  9  1  0
  8  6  1  0
  8 13  1  0
  9 10  1  0
 11 10  1  1
 12 52  1  0
 13 11  1  0
 13 14  1  0
 15 13  1  0
 16 22  1  0
 16  4  1  0
 17 22  1  0
 18 19  1  0
 18 17  1  0
 20 19  1  0
 20 27  1  0
 20 21  1  0
 22 21  1  0
 23 16  2  0
 24 25  2  0
 25 44  1  0
 26 25  1  0
 26 29  1  0
 27 24  1  0
 27 28  1  0
 28 26  2  0
 29 30  1  0
 30 31  2  0
 32 35  1  0
 32 31  1  0
 33 32  2  0
 34 33  1  0
 34 29  2  0
 35 36  1  0
 36 37  1  0
 37 38  2  0
 39 38  1  0
 39 43  1  0
 40 39  2  0
 41 36  2  0
 41 40  1  0
 42 41  1  0
 44 45  1  0
 45 48  1  0
 45 47  1  0
 46 44  2  0
 49 50  1  0
 49 24  1  0
 51 49  1  0
 53 54  1  0
 53 52  1  0
 54 56  1  0
 55 66  2  0
 56 61  1  0
 57 65  1  0
 57 67  1  0
 58 64  1  0
 58 60  1  0
 59 65  1  0
 60 59  1  0
 61 60  2  0
 62 63  1  0
 62 56  2  0
 63 58  2  0
 64 57  1  0
 65 55  1  0
 67 69  2  0
 68 67  1  0
 70 68  1  0
 71 80  2  0
 71 76  1  0
 72 68  1  0
 72 76  1  0
 73 72  1  0
 74 75  1  0
 74 73  1  0
 75 71  1  0
 76 77  2  0
 77 78  1  0
 79 78  2  0
 80 79  1  0
 81 55  1  0
 81 82  1  0
 81 91  1  0
 82 85  1  0
 83 87  1  0
 83 82  1  0
 84 83  2  0
 87 86  1  0
 89 87  1  0
 89 90  1  0
 89 88  1  0
 91 94  1  1
 91 92  1  0
 93 91  1  0
M  ISO  4   4 100  16 100  53 101  54 101
M  END
>  <TORSDO>  (47) 
F 18

>  <SCORE>  (47) 
-13.435

>  <name>  (47) 
47

>  <ligand_id>  (47) 
47

>  <original_smiles>  (47) 
[H]c1c([H])c([H])c2c(c1[H])C([H])([H])C([H])([H])C([H])([H])C2([H])N([H])C(=O)C1([H])N(C(=O)C([H])(N([H])C(=O)C([H])(N([H])C([H])([H])[H])C([H])([H])[H])C(C([H])([H])[H])(C([H])([H])[H])C([H])([H])[H])C([H])([H])c2c([H])c(OC([H])([H])C([H])([H])N=C3C([H])([H])C([H])([H])C34c3c([H])c([H])c(C(=O)N5C([H])([H])C([H])([H])C([H])([H])C([H])(n6nc(-c7c([H])c([H])c(Oc8c([H])c([H])c(F)c([H])c8F)c([H])c7[H])c(C(=O)N([H])[H])c6N([H])[H])C5([H])[H])c([H])c3C([H])([H])[N+]4([H])[H])c([H])c([H])c2C1([H])[H]

>  <smiles>  (47) 
[H]c1c([H])c([H])c2c(c1[H])C([H])([H])C([H])([H])C([H])([H])C2([H])N([H])C(=O)C1([H])N(C(=O)C([H])(N([H])C(=O)C([H])(N([H])C([H])([H])[H])C([H])([H])[H])C(C([H])([H])[H])(C([H])([H])[H])C([H])([H])[H])C([H])([H])c2c([H])c(OC([H])([H])C([H])([H])N=C3C([H])([H])C([H])([H])C34c3c([H])c([H])c(C(=O)N5C([H])([H])C([H])([H])C([H])([H])C([H])(n6nc(-c7c([H])c([H])c(Oc8c([H])c([H])c(F)c([H])c8F)c([H])c7[H])c(C(=O)N([H])[H])c6N([H])[H])C5([H])[H])c([H])c3C([H])([H])[N+]4([H])[H])c([H])c([H])c2C1([H])[H]

$$$$
48:0:0
     RDKit          3D

 94104  0  0  1  0  0  0  0  0999 V2000
  -28.7880  -22.8010   19.9670 C   0  0  0  0  0  0  0  0  0  0  0  0
  -25.7630  -20.2360   18.0560 C   0  0  0  0  0  2  0  0  0  0  0  0
  -27.0350  -19.5040   18.5140 C   0  0  0  0  0  2  0  0  0  0  0  0
  -25.5920  -21.5840   18.7420 C   0  0  0  0  0  2  0  0  0  0  0  0
  -26.7380  -23.7620   19.3250 C   0  0  0  0  0  2  0  0  0  0  0  0
  -28.1760  -21.7600   19.0100 C   0  0  0  0  0  3  0  0  0  0  0  0
  -28.1750  -24.1850   19.6590 C   0  0  0  0  0  3  0  0  0  0  0  0
  -27.9630  -20.2750   19.5030 C   0  0  0  0  0  3  0  0  0  0  0  0
  -26.8540  -22.4400   18.5610 C   0  0  0  0  0  3  0  0  0  0  0  0
  -29.6460  -22.5450   20.8610 N   0  0  0  0  0  0  0  0  0  0  0  0
  -29.8740  -21.5560   20.8780 H   0  0  0  0  0  0  0  0  0  0  0  0
  -29.2180  -19.4040   19.6630 C   0  0  0  0  0  3  0  0  0  0  0  0
  -29.2070  -18.2320   20.3430 C   0  0  0  0  0  3  0  0  0  0  0  0
  -30.7170  -16.7950   21.8900 C   0  0  0  0  0  2  0  0  0  0  0  0
  -30.2870  -17.2030   20.5030 C   0  0  0  0  0  3  0  0  0  0  0  0
  -29.9580  -15.7950   21.0390 C   0  0  0  0  0  3  0  0  0  0  0  0
  -30.7420  -14.5750   20.5750 C   0  0  0  0  0  0  0  0  0  0  0  0
  -30.5940  -12.2580   19.7110 C   0  0  0  0  0  2  0  0  0  0  0  0
  -29.7260  -12.2570   18.4350 C   0  0  0  0  0  2  0  0  0  0  0  0
  -28.2260  -12.1450   18.7790 C   0  0  0  0  0  2  0  0  0  0  0  0
  -27.7920  -13.1350   19.8940 C   0  0  0  0  0  3  0  0  0  0  0  0
  -28.7750  -13.0650   21.0840 C   0  0  0  0  0  2  0  0  0  0  0  0
  -30.1230  -13.3580   20.5690 N   0  0  0  0  0  0  0  0  0  0  0  0
  -31.8860  -14.7120   20.1260 O   0  0  0  0  0  0  0  0  0  0  0  0
  -25.3740  -13.8080   20.4640 C   0  0  0  0  0  0  0  0  0  0  0  0
  -24.2730  -13.0670   20.8020 C   0  0  0  0  0  0  0  0  0  0  0  0
  -24.7090  -11.7070   20.8320 C   0  0  0  0  0  0  0  0  0  0  0  0
  -26.4120  -12.9010   20.3130 N   0  0  0  0  0  0  0  0  0  0  0  0
  -26.0110  -11.6340   20.5890 N   0  0  0  0  0  0  0  0  0  0  0  0
  -23.9500  -10.4640   21.0250 C   0  0  0  0  0  0  0  0  0  0  0  0
  -24.3350   -9.5050   21.9890 C   0  0  0  0  0  3  0  0  0  0  0  0
  -23.5780   -8.3270   22.1690 C   0  0  0  0  0  3  0  0  0  0  0  0
  -22.4250   -8.0970   21.3820 C   0  0  0  0  0  0  0  0  0  0  0  0
  -22.0600   -9.0430   20.4090 C   0  0  0  0  0  3  0  0  0  0  0  0
  -22.8170  -10.2140   20.2270 C   0  0  0  0  0  3  0  0  0  0  0  0
  -21.6440   -6.9700   21.4680 O   0  0  0  0  0  0  0  0  0  0  0  0
  -21.5580   -6.2420   22.6270 C   0  0  0  0  0  0  0  0  0  0  0  0
  -21.1270   -6.8190   23.8410 C   0  0  0  0  0  3  0  0  0  0  0  0
  -20.9880   -6.0180   24.9910 C   0  0  0  0  0  3  0  0  0  0  0  0
  -21.2700   -4.6390   24.9290 C   0  0  0  0  0  0  0  0  0  0  0  0
  -21.6940   -4.0620   23.7190 C   0  0  0  0  0  3  0  0  0  0  0  0
  -21.8350   -4.8610   22.5710 C   0  0  0  0  0  0  0  0  0  0  0  0
  -22.2240   -4.2950   21.4020 F   0  0  0  0  0  0  0  0  0  0  0  0
  -21.1290   -3.8670   26.0310 F   0  0  0  0  0  0  0  0  0  0  0  0
  -22.8730  -13.5770   20.9950 C   0  0  0  0  0  0  0  0  0  0  0  0
  -22.1000  -12.9280   21.8580 N   0  0  0  0  0  0  0  0  0  0  0  0
  -22.4750  -14.5860   20.4150 O   0  0  0  0  0  0  0  0  0  0  0  0
  -22.4360  -12.1100   22.3470 H   0  0  0  0  0  0  0  0  0  0  0  0
  -21.1580  -13.2490   22.0300 H   0  0  0  0  0  0  0  0  0  0  0  0
  -25.5730  -15.1690   20.2570 N   0  0  0  0  0  0  0  0  0  0  0  0
  -24.8150  -15.8400   20.3130 H   0  0  0  0  0  0  0  0  0  0  0  0
  -26.4520  -15.5870   19.9760 H   0  0  0  0  0  0  0  0  0  0  0  0
  -28.2870  -25.3120   20.7540 C   0  0  0  0  0  2  0  0  0  0  0  0
  -28.3760  -26.6970   20.3120 O   0  0  0  0  0  0  0  0  0  0  0  0
  -24.5170  -31.9350   23.3260 C   0  0  0  0  0  0  0  0  0  0  0  0
  -27.2220  -27.4570   20.3190 C   0  0  0  0  0  0  0  0  0  0  0  0
  -23.3500  -30.5300   21.6600 C   0  0  0  0  0  3  0  0  0  0  0  0
  -24.8370  -28.9890   20.2720 C   0  0  0  0  0  0  0  0  0  0  0  0
  -25.8840  -30.8740   21.5290 C   0  0  0  0  0  2  0  0  0  0  0  0
  -25.9810  -29.4980   20.9020 C   0  0  0  0  0  0  0  0  0  0  0  0
  -27.1760  -28.7350   20.9310 C   0  0  0  0  0  3  0  0  0  0  0  0
  -26.0800  -27.0040   19.6330 C   0  0  0  0  0  3  0  0  0  0  0  0
  -24.8810  -27.7400   19.6350 C   0  0  0  0  0  3  0  0  0  0  0  0
  -23.5940  -29.8510   20.2880 C   0  0  0  0  0  2  0  0  0  0  0  0
  -24.6000  -31.1290   22.2290 N   0  0  0  0  0  0  0  0  0  0  0  0
  -23.4220  -32.2100   23.8380 O   0  0  0  0  0  0  0  0  0  0  0  0
  -22.6770  -29.5090   22.6070 C   0  0  0  0  0  0  0  0  0  0  0  0
  -21.3540  -29.3320   22.4540 N   0  0  0  0  0  0  0  0  0  0  0  0
  -23.3420  -28.8790   23.4340 O   0  0  0  0  0  0  0  0  0  0  0  0
  -20.8810  -29.8890   21.7570 H   0  0  0  0  0  0  0  0  0  0  0  0
  -17.9590  -28.1810   22.9140 C   0  0  0  0  0  0  0  0  0  0  0  0
  -20.5180  -28.3980   23.2070 C   0  0  0  0  0  3  0  0  0  0  0  0
  -20.6050  -26.9730   22.6130 C   0  0  0  0  0  2  0  0  0  0  0  0
  -19.5060  -26.6780   21.5890 C   0  0  0  0  0  2  0  0  0  0  0  0
  -18.1210  -26.8370   22.2240 C   0  0  0  0  0  2  0  0  0  0  0  0
  -19.0850  -28.9210   23.3600 C   0  0  0  0  0  0  0  0  0  0  0  0
  -18.8810  -30.1820   23.9640 C   0  0  0  0  0  3  0  0  0  0  0  0
  -17.5820  -30.6990   24.1270 C   0  0  0  0  0  3  0  0  0  0  0  0
  -16.4700  -29.9540   23.6960 C   0  0  0  0  0  3  0  0  0  0  0  0
  -16.6590  -28.6980   23.0960 C   0  0  0  0  0  3  0  0  0  0  0  0
  -25.7870  -32.5670   23.9740 C   0  0  0  0  0  3  0  0  0  0  0  0
  -26.2480  -31.8260   25.2890 C   0  0  1  0  0  0  0  0  0  0  0  0
  -25.1100  -31.6220   26.3180 C   0  0  0  0  0  1  0  0  0  0  0  0
  -26.8380  -30.4360   24.9550 C   0  0  0  0  0  1  0  0  0  0  0  0
  -27.3770  -32.6320   25.9760 C   0  0  0  0  0  1  0  0  0  0  0  0
  -25.4880  -33.9780   24.2490 N   0  0  0  0  0  0  0  0  0  0  0  0
  -25.8490  -34.9990   23.4610 C   0  0  0  0  0  0  0  0  0  0  0  0
  -26.5420  -34.8540   22.4500 O   0  0  0  0  0  0  0  0  0  0  0  0
  -24.8820  -34.1670   25.0330 H   0  0  0  0  0  0  0  0  0  0  0  0
  -24.1420  -36.7900   23.0110 C   0  0  0  0  0  1  0  0  0  0  0  0
  -25.3660  -36.4080   23.8590 C   0  0  0  0  0  3  0  0  0  0  0  0
  -27.4950  -37.3030   24.6890 C   0  0  0  0  0  1  0  0  0  0  0  0
  -26.4090  -37.4480   23.7240 N   0  0  0  0  0  0  0  0  0  0  0  0
  -26.0090  -38.3760   23.8350 H   0  0  0  0  0  0  0  0  0  0  0  0
  1 10  2  0
  2  3  1  0
  2  4  1  0
  3  8  1  0
  5  7  1  0
  6  8  1  0
  6  1  1  0
  7  1  1  0
  7 53  1  0
  8 12  1  0
  9  4  1  0
  9  6  1  0
  9  5  1  0
 10 11  1  0
 12 13  2  0
 15 13  1  0
 15 16  1  0
 15 14  1  0
 16 17  1  0
 16 14  1  0
 18 23  1  0
 19 20  1  0
 19 18  1  0
 21 20  1  0
 21 28  1  0
 21 22  1  0
 23 17  1  0
 23 22  1  0
 24 17  2  0
 25 26  2  0
 26 27  1  0
 26 45  1  0
 27 30  1  0
 28 25  1  0
 28 29  1  0
 29 27  2  0
 30 31  1  0
 31 32  2  0
 33 36  1  0
 33 32  1  0
 34 33  2  0
 35 34  1  0
 35 30  2  0
 36 37  1  0
 37 38  1  0
 38 39  2  0
 40 39  1  0
 40 44  1  0
 41 40  2  0
 42 37  2  0
 42 41  1  0
 43 42  1  0
 45 46  1  0
 46 49  1  0
 46 48  1  0
 47 45  2  0
 50 51  1  0
 50 25  1  0
 52 50  1  0
 54 56  1  0
 54 53  1  0
 55 66  2  0
 56 61  1  0
 57 65  1  0
 57 67  1  0
 58 64  1  0
 58 60  1  0
 59 65  1  0
 60 61  2  0
 60 59  1  0
 62 63  1  0
 62 56  2  0
 63 58  2  0
 64 57  1  0
 65 55  1  0
 67 69  2  0
 68 67  1  0
 70 68  1  0
 71 80  2  0
 71 76  1  0
 72 68  1  0
 72 76  1  0
 73 72  1  0
 74 75  1  0
 74 73  1  0
 75 71  1  0
 76 77  2  0
 77 78  1  0
 79 78  2  0
 80 79  1  0
 81 55  1  0
 81 86  1  0
 81 82  1  0
 82 85  1  1
 82 83  1  0
 84 82  1  0
 86 89  1  0
 87 91  1  0
 87 86  1  0
 88 87  2  0
 91 90  1  0
 93 94  1  0
 93 91  1  0
 93 92  1  0
M  ISO  4  16 100  17 100  53 101  54 101
M  END
>  <TORSDO>  (48) 
F 19

>  <SCORE>  (48) 
-14.262

>  <name>  (48) 
48

>  <ligand_id>  (48) 
48

>  <original_smiles>  (48) 
[H]N=C1C([H])(C([H])([H])Oc2c([H])c([H])c3c(c2[H])C([H])([H])N(C(=O)C([H])(N([H])C(=O)C([H])(N([H])C([H])([H])[H])C([H])([H])[H])C(C([H])([H])[H])(C([H])([H])[H])C([H])([H])[H])C([H])(C(=O)N([H])C2([H])c4c([H])c([H])c([H])c([H])c4C([H])([H])C([H])([H])C2([H])[H])C3([H])[H])C([H])([H])C2([H])C([H])([H])C([H])([H])C([H])([H])C([H])(C([H])=C([H])C3([H])C([H])([H])C3([H])C(=O)N3C([H])([H])C([H])([H])C([H])([H])C([H])(n4nc(-c5c([H])c([H])c(Oc6c([H])c([H])c(F)c([H])c6F)c([H])c5[H])c(C(=O)N([H])[H])c4N([H])[H])C3([H])[H])C12[H]

>  <smiles>  (48) 
[H]N=C1C([H])(C([H])([H])Oc2c([H])c([H])c3c(c2[H])C([H])([H])N(C(=O)C([H])(N([H])C(=O)C([H])(N([H])C([H])([H])[H])C([H])([H])[H])C(C([H])([H])[H])(C([H])([H])[H])C([H])([H])[H])C([H])(C(=O)N([H])C2([H])c4c([H])c([H])c([H])c([H])c4C([H])([H])C([H])([H])C2([H])[H])C3([H])[H])C([H])([H])C2([H])C([H])([H])C([H])([H])C([H])([H])C([H])(C([H])=C([H])C3([H])C([H])([H])C3([H])C(=O)N3C([H])([H])C([H])([H])C([H])([H])C([H])(n4nc(-c5c([H])c([H])c(Oc6c([H])c([H])c(F)c([H])c6F)c([H])c5[H])c(C(=O)N([H])[H])c4N([H])[H])C3([H])[H])C12[H]

$$$$
49:0:0
     RDKit          3D

 96104  0  0  1  0  0  0  0  0999 V2000
  -29.2350  -20.7170   20.4270 C   0  0  0  0  0  3  0  0  0  0  0  0
  -30.6670  -21.1300   20.4500 N   0  0  0  0  0  4  0  0  0  0  0  0
  -30.9440  -21.3170   19.5020 H   0  0  0  0  0  0  0  0  0  0  0  0
  -30.7110  -22.0070   20.9410 H   0  0  0  0  0  0  0  0  0  0  0  0
  -31.6840  -20.2540   21.0740 C   0  0  0  0  0  2  0  0  0  0  0  0
  -35.0310  -18.9840   19.7590 C   0  0  0  0  0  2  0  0  0  0  0  0
  -34.1730  -18.9560   18.4910 C   0  0  0  0  0  2  0  0  0  0  0  0
  -34.0520  -19.2890   20.8910 C   0  0  0  0  0  2  0  0  0  0  0  0
  -32.8760  -19.7040   18.8270 C   0  0  0  0  0  2  0  0  0  0  0  0
  -33.0100  -20.2260   20.2720 C   0  0  0  0  0  3  0  0  0  0  0  0
  -28.4760  -22.3530   19.8680 C   0  0  0  0  0  2  0  0  0  0  0  0
  -28.0400  -24.0680   20.5290 C   0  0  0  0  0  2  0  0  0  0  0  0
  -28.1900  -25.7530   20.2430 O   0  0  0  0  0  0  0  0  0  0  0  0
  -24.6330  -31.9280   23.2070 C   0  0  0  0  0  0  0  0  0  0  0  0
  -27.1850  -26.9000   20.2680 C   0  0  0  0  0  0  0  0  0  0  0  0
  -23.4500  -30.5050   21.5880 C   0  0  0  0  0  3  0  0  0  0  0  0
  -24.9000  -28.8570   20.2000 C   0  0  0  0  0  0  0  0  0  0  0  0
  -26.0250  -30.6810   21.4590 C   0  0  0  0  0  2  0  0  0  0  0  0
  -26.0940  -29.2490   20.8190 C   0  0  0  0  0  0  0  0  0  0  0  0
  -27.2310  -28.2950   20.8170 C   0  0  0  0  0  3  0  0  0  0  0  0
  -25.9500  -26.6880   19.6150 C   0  0  0  0  0  3  0  0  0  0  0  0
  -24.8600  -27.6010   19.5760 C   0  0  0  0  0  3  0  0  0  0  0  0
  -23.6890  -29.7940   20.2280 C   0  0  0  0  0  2  0  0  0  0  0  0
  -24.7250  -31.0710   22.1350 N   0  0  0  0  0  0  0  0  0  0  0  0
  -23.5410  -32.2290   23.7150 O   0  0  0  0  0  0  0  0  0  0  0  0
  -22.7410  -29.5320   22.5710 C   0  0  0  0  0  0  0  0  0  0  0  0
  -21.4110  -29.3670   22.4440 N   0  0  0  0  0  0  0  0  0  0  0  0
  -23.4000  -28.9200   23.4140 O   0  0  0  0  0  0  0  0  0  0  0  0
  -20.9330  -29.9070   21.7380 H   0  0  0  0  0  0  0  0  0  0  0  0
  -18.0280  -28.1620   22.9740 C   0  0  0  0  0  0  0  0  0  0  0  0
  -20.5890  -28.4400   23.2290 C   0  0  0  0  0  3  0  0  0  0  0  0
  -20.6910  -27.0010   22.6750 C   0  0  0  0  0  2  0  0  0  0  0  0
  -19.5870  -26.6630   21.6650 C   0  0  0  0  0  2  0  0  0  0  0  0
  -18.2070  -26.8080   22.3080 C   0  0  0  0  0  2  0  0  0  0  0  0
  -19.1450  -28.9350   23.3900 C   0  0  0  0  0  0  0  0  0  0  0  0
  -18.9160  -30.2010   23.9740 C   0  0  0  0  0  3  0  0  0  0  0  0
  -17.6060  -30.6920   24.1430 C   0  0  0  0  0  3  0  0  0  0  0  0
  -16.5060  -29.9180   23.7420 C   0  0  0  0  0  3  0  0  0  0  0  0
  -16.7180  -28.6540   23.1620 C   0  0  0  0  0  3  0  0  0  0  0  0
  -25.8960  -32.5890   23.8360 C   0  0  0  0  0  3  0  0  0  0  0  0
  -25.5700  -33.9920   24.1570 N   0  0  0  0  0  0  0  0  0  0  0  0
  -25.9000  -35.0510   23.4060 C   0  0  0  0  0  0  0  0  0  0  0  0
  -26.5720  -34.9490   22.3760 O   0  0  0  0  0  0  0  0  0  0  0  0
  -24.9770  -34.1430   24.9590 H   0  0  0  0  0  0  0  0  0  0  0  0
  -24.1750  -36.8480   23.0490 C   0  0  0  0  0  1  0  0  0  0  0  0
  -25.4110  -36.4400   23.8660 C   0  0  0  0  0  3  0  0  0  0  0  0
  -27.5360  -37.3300   24.7170 C   0  0  0  0  0  1  0  0  0  0  0  0
  -26.4440  -37.4950   23.7620 N   0  0  0  0  0  0  0  0  0  0  0  0
  -26.0360  -38.4150   23.9080 H   0  0  0  0  0  0  0  0  0  0  0  0
  -26.3960  -31.8470   25.1390 C   0  0  1  0  0  0  0  0  0  0  0  0
  -25.2910  -31.6210   26.1970 C   0  0  0  0  0  1  0  0  0  0  0  0
  -26.9960  -30.4660   24.7940 C   0  0  0  0  0  1  0  0  0  0  0  0
  -27.5350  -32.6610   25.8000 C   0  0  0  0  0  1  0  0  0  0  0  0
  -29.1890  -18.8990   19.8730 C   0  0  0  0  0  0  0  0  0  0  0  0
  -28.6460  -19.1610   17.4260 C   0  0  0  0  0  0  0  0  0  0  0  0
  -29.1180  -18.8810   16.0010 C   0  0  0  0  0  1  0  0  0  0  0  0
  -29.4850  -18.8520   18.4310 N   0  0  0  0  0  4  0  0  0  0  0  0
  -27.5340  -19.6480   17.6130 O   0  0  0  0  0  0  0  0  0  0  0  0
  -30.3770  -18.4630   18.1590 H   0  0  0  0  0  0  0  0  0  0  0  0
  -29.6500  -17.1970   20.5700 C   0  0  0  0  0  2  0  0  0  0  0  0
  -30.3490  -15.5730   20.1110 C   0  0  0  0  0  0  0  0  0  0  0  0
  -30.3860  -13.0790   19.2360 C   0  0  0  0  0  2  0  0  0  0  0  0
  -29.4400  -12.8080   18.0370 C   0  0  0  0  0  2  0  0  0  0  0  0
  -28.0160  -12.4900   18.5160 C   0  0  0  0  0  2  0  0  0  0  0  0
  -27.5740  -13.4350   19.6560 C   0  0  0  0  0  3  0  0  0  0  0  0
  -28.6510  -13.6350   20.7480 C   0  0  0  0  0  2  0  0  0  0  0  0
  -29.8380  -14.2170   20.0920 N   0  0  0  0  0  0  0  0  0  0  0  0
  -31.5430  -15.5360   19.7600 O   0  0  0  0  0  0  0  0  0  0  0  0
  -25.2290  -13.9490   20.4980 C   0  0  0  0  0  0  0  0  0  0  0  0
  -24.1820  -13.1620   20.8780 C   0  0  0  0  0  0  0  0  0  0  0  0
  -24.6580  -11.8100   20.8120 C   0  0  0  0  0  0  0  0  0  0  0  0
  -26.2700  -13.0880   20.2070 N   0  0  0  0  0  0  0  0  0  0  0  0
  -25.9420  -11.7940   20.4620 N   0  0  0  0  0  0  0  0  0  0  0  0
  -23.9440  -10.5390   20.9950 C   0  0  0  0  0  0  0  0  0  0  0  0
  -24.3920   -9.5700   21.9200 C   0  0  0  0  0  3  0  0  0  0  0  0
  -23.6760   -8.3690   22.1040 C   0  0  0  0  0  3  0  0  0  0  0  0
  -22.4990   -8.1250   21.3590 C   0  0  0  0  0  0  0  0  0  0  0  0
  -22.0710   -9.0780   20.4180 C   0  0  0  0  0  3  0  0  0  0  0  0
  -22.7890  -10.2740   20.2340 C   0  0  0  0  0  3  0  0  0  0  0  0
  -21.7590   -6.9730   21.4430 O   0  0  0  0  0  0  0  0  0  0  0  0
  -21.7020   -6.2370   22.5990 C   0  0  0  0  0  0  0  0  0  0  0  0
  -21.2350   -6.7890   23.8130 C   0  0  0  0  0  3  0  0  0  0  0  0
  -21.1320   -5.9790   24.9600 C   0  0  0  0  0  3  0  0  0  0  0  0
  -21.4840   -4.6170   24.8960 C   0  0  0  0  0  0  0  0  0  0  0  0
  -21.9430   -4.0650   23.6870 C   0  0  0  0  0  3  0  0  0  0  0  0
  -22.0490   -4.8720   22.5410 C   0  0  0  0  0  0  0  0  0  0  0  0
  -22.4730   -4.3280   21.3730 F   0  0  0  0  0  0  0  0  0  0  0  0
  -21.3760   -3.8390   25.9960 F   0  0  0  0  0  0  0  0  0  0  0  0
  -22.7880  -13.6220   21.1840 C   0  0  0  0  0  0  0  0  0  0  0  0
  -22.0830  -12.9000   22.0460 N   0  0  0  0  0  0  0  0  0  0  0  0
  -22.3290  -14.6520   20.6860 O   0  0  0  0  0  0  0  0  0  0  0  0
  -22.4650  -12.0670   22.4660 H   0  0  0  0  0  0  0  0  0  0  0  0
  -21.1440  -13.1850   22.2890 H   0  0  0  0  0  0  0  0  0  0  0  0
  -25.3880  -15.3260   20.3420 N   0  0  0  0  0  0  0  0  0  0  0  0
  -24.6250  -15.9830   20.4530 H   0  0  0  0  0  0  0  0  0  0  0  0
  -26.2350  -15.7530   19.9920 H   0  0  0  0  0  0  0  0  0  0  0  0
  1 11  1  0
  1  2  1  0
  2  4  1  0
  2  5  1  0
  3  2  1  0
  6  8  1  0
  7  9  1  0
  7  6  1  0
  9 10  1  0
 10  8  1  0
 10  5  1  0
 11 12  1  0
 13 15  1  0
 13 12  1  0
 14 25  2  0
 15 20  1  0
 16 24  1  0
 16 26  1  0
 17 23  1  0
 17 19  1  0
 18 24  1  0
 19 18  1  0
 20 19  2  0
 21 15  2  0
 22 21  1  0
 22 17  2  0
 23 16  1  0
 24 14  1  0
 26 28  2  0
 27 26  1  0
 29 27  1  0
 30 39  2  0
 30 35  1  0
 31 27  1  0
 31 35  1  0
 32 31  1  0
 33 34  1  0
 33 32  1  0
 34 30  1  0
 35 36  2  0
 36 37  1  0
 38 37  2  0
 39 38  1  0
 40 14  1  0
 40 41  1  0
 40 50  1  0
 41 44  1  0
 42 46  1  0
 42 41  1  0
 43 42  2  0
 46 45  1  0
 48 46  1  0
 48 49  1  0
 48 47  1  0
 50 53  1  1
 50 51  1  0
 52 50  1  0
 54  1  1  0
 54 60  1  0
 55 58  2  0
 55 57  1  0
 56 55  1  0
 57 54  2  0
 59 57  1  0
 61 60  1  0
 62 67  1  0
 63 64  1  0
 63 62  1  0
 65 64  1  0
 65 72  1  0
 65 66  1  0
 67 61  1  0
 67 66  1  0
 68 61  2  0
 69 70  2  0
 70 89  1  0
 71 70  1  0
 71 74  1  0
 72 73  1  0
 72 69  1  0
 73 71  2  0
 74 75  1  0
 75 76  2  0
 77 80  1  0
 77 76  1  0
 78 77  2  0
 79 78  1  0
 79 74  2  0
 80 81  1  0
 81 82  1  0
 82 83  2  0
 84 83  1  0
 84 88  1  0
 85 84  2  0
 86 81  2  0
 86 85  1  0
 87 86  1  0
 89 90  1  0
 90 93  1  0
 90 92  1  0
 91 89  2  0
 94 95  1  0
 94 69  1  0
 96 94  1  0
M  ISO  4  12 101  13 101  60 100  61 100
M  END
>  <TORSDO>  (49) 
F 24

>  <SCORE>  (49) 
-15.748

>  <name>  (49) 
49

>  <ligand_id>  (49) 
49

>  <original_smiles>  (49) 
[H]c1c([H])c([H])c2c(c1[H])C([H])([H])C([H])([H])C([H])([H])C2([H])N([H])C(=O)C1([H])N(C(=O)C([H])(N([H])C(=O)C([H])(N([H])C([H])([H])[H])C([H])([H])[H])C(C([H])([H])[H])(C([H])([H])[H])C([H])([H])[H])C([H])([H])c2c([H])c(OC([H])([H])C([H])([H])C([H])(C([H])(N([H])C(=O)C([H])([H])[H])C([H])([H])C(=O)N3C([H])([H])C([H])([H])C([H])([H])C([H])(n4nc(-c5c([H])c([H])c(Oc6c([H])c([H])c(F)c([H])c6F)c([H])c5[H])c(C(=O)N([H])[H])c4N([H])[H])C3([H])[H])[N+]([H])([H])C([H])([H])C3([H])C([H])([H])C([H])([H])C([H])([H])C3([H])[H])c([H])c([H])c2C1([H])[H]

>  <smiles>  (49) 
[H]c1c([H])c([H])c2c(c1[H])C([H])([H])C([H])([H])C([H])([H])C2([H])N([H])C(=O)C1([H])N(C(=O)C([H])(N([H])C(=O)C([H])(N([H])C([H])([H])[H])C([H])([H])[H])C(C([H])([H])[H])(C([H])([H])[H])C([H])([H])[H])C([H])([H])c2c([H])c(OC([H])([H])C([H])([H])C([H])(C([H])(N([H])C(=O)C([H])([H])[H])C([H])([H])C(=O)N3C([H])([H])C([H])([H])C([H])([H])C([H])(n4nc(-c5c([H])c([H])c(Oc6c([H])c([H])c(F)c([H])c6F)c([H])c5[H])c(C(=O)N([H])[H])c4N([H])[H])C3([H])[H])[N+]([H])([H])C([H])([H])C3([H])C([H])([H])C([H])([H])C([H])([H])C3([H])[H])c([H])c([H])c2C1([H])[H]

$$$$
50:0:0
     RDKit          3D

 94102  0  0  1  0  0  0  0  0999 V2000
  -28.9260  -20.8680   20.7320 C   0  0  0  0  0  3  0  0  0  0  0  0
  -30.3820  -24.3680   20.6220 C   0  0  0  0  0  2  0  0  0  0  0  0
  -30.3410  -22.9100   21.1220 C   0  0  0  0  0  2  0  0  0  0  0  0
  -28.4690  -23.2140   19.8200 C   0  0  0  0  0  2  0  0  0  0  0  0
  -29.3740  -24.4140   19.4840 C   0  0  0  0  0  3  0  0  0  0  0  0
  -29.4480  -22.1740   20.2180 N   0  0  0  0  0  0  0  0  0  0  0  0
  -28.7570  -25.8070   19.1200 C   0  0  0  0  0  2  0  0  0  0  0  0
  -28.4390  -26.7120   20.2030 O   0  0  0  0  0  0  0  0  0  0  0  0
  -24.6060  -31.9360   23.2320 C   0  0  0  0  0  0  0  0  0  0  0  0
  -27.2670  -27.4530   20.1680 C   0  0  0  0  0  0  0  0  0  0  0  0
  -23.4070  -30.5160   21.6030 C   0  0  0  0  0  3  0  0  0  0  0  0
  -24.8650  -28.9750   20.1870 C   0  0  0  0  0  0  0  0  0  0  0  0
  -25.9350  -30.8750   21.4030 C   0  0  0  0  0  2  0  0  0  0  0  0
  -26.0240  -29.4970   20.7720 C   0  0  0  0  0  0  0  0  0  0  0  0
  -27.2230  -28.7390   20.7680 C   0  0  0  0  0  3  0  0  0  0  0  0
  -26.0740  -26.9450   19.6030 C   0  0  0  0  0  3  0  0  0  0  0  0
  -24.8850  -27.6980   19.6040 C   0  0  0  0  0  3  0  0  0  0  0  0
  -23.6190  -29.8310   20.2280 C   0  0  0  0  0  2  0  0  0  0  0  0
  -24.6680  -31.1250   22.1370 N   0  0  0  0  0  0  0  0  0  0  0  0
  -23.5240  -32.2070   23.7700 O   0  0  0  0  0  0  0  0  0  0  0  0
  -22.7600  -29.4990   22.5710 C   0  0  0  0  0  0  0  0  0  0  0  0
  -21.4350  -29.3100   22.4470 N   0  0  0  0  0  0  0  0  0  0  0  0
  -23.4460  -28.8830   23.3910 O   0  0  0  0  0  0  0  0  0  0  0  0
  -20.9410  -29.8600   21.7570 H   0  0  0  0  0  0  0  0  0  0  0  0
  -18.0640  -28.1140   22.9630 C   0  0  0  0  0  0  0  0  0  0  0  0
  -20.6230  -28.3750   23.2250 C   0  0  0  0  0  3  0  0  0  0  0  0
  -20.7240  -26.9420   22.6530 C   0  0  0  0  0  2  0  0  0  0  0  0
  -19.6180  -26.6150   21.6450 C   0  0  0  0  0  2  0  0  0  0  0  0
  -18.2390  -26.7620   22.2930 C   0  0  0  0  0  2  0  0  0  0  0  0
  -19.1840  -28.8780   23.3860 C   0  0  0  0  0  0  0  0  0  0  0  0
  -18.9670  -30.1450   23.9720 C   0  0  0  0  0  3  0  0  0  0  0  0
  -17.6620  -30.6460   24.1400 C   0  0  0  0  0  3  0  0  0  0  0  0
  -16.5570  -29.8790   23.7340 C   0  0  0  0  0  3  0  0  0  0  0  0
  -16.7590  -28.6150   23.1510 C   0  0  0  0  0  3  0  0  0  0  0  0
  -25.8890  -32.5780   23.8460 C   0  0  0  0  0  3  0  0  0  0  0  0
  -25.5710  -33.9750   24.1730 N   0  0  0  0  0  0  0  0  0  0  0  0
  -25.9030  -35.0280   23.4150 C   0  0  0  0  0  0  0  0  0  0  0  0
  -26.5810  -34.9270   22.3880 O   0  0  0  0  0  0  0  0  0  0  0  0
  -24.9680  -34.1260   24.9690 H   0  0  0  0  0  0  0  0  0  0  0  0
  -24.1780  -36.8180   23.0360 C   0  0  0  0  0  1  0  0  0  0  0  0
  -25.4050  -36.4140   23.8690 C   0  0  0  0  0  3  0  0  0  0  0  0
  -27.5210  -37.3020   24.7410 C   0  0  0  0  0  1  0  0  0  0  0  0
  -26.4370  -37.4690   23.7770 N   0  0  0  0  0  0  0  0  0  0  0  0
  -26.0260  -38.3880   23.9180 H   0  0  0  0  0  0  0  0  0  0  0  0
  -26.4180  -31.8130   25.1200 C   0  0  1  0  0  0  0  0  0  0  0  0
  -25.3320  -31.5630   26.1920 C   0  0  0  0  0  1  0  0  0  0  0  0
  -27.0120  -30.4400   24.7240 C   0  0  0  0  0  1  0  0  0  0  0  0
  -27.5650  -32.6170   25.7770 C   0  0  0  0  0  1  0  0  0  0  0  0
  -30.6320  -20.0420   22.5140 C   0  0  0  0  0  1  0  0  0  0  0  0
  -30.0410  -19.7830   21.1070 C   0  0  0  0  0  3  0  0  0  0  0  0
  -29.5480  -18.3630   21.0580 N   0  0  0  0  0  4  0  0  0  0  0  0
  -29.0280  -18.1950   21.9060 H   0  0  0  0  0  0  0  0  0  0  0  0
  -28.8900  -18.3120   20.2960 H   0  0  0  0  0  0  0  0  0  0  0  0
  -30.5570  -17.2600   20.8700 C   0  0  0  0  0  2  0  0  0  0  0  0
  -29.9850  -15.8200   21.1360 C   0  0  0  0  0  2  0  0  0  0  0  0
  -30.7720  -14.6060   20.5390 C   0  0  0  0  0  0  0  0  0  0  0  0
  -30.5480  -12.4280   19.3630 C   0  0  0  0  0  2  0  0  0  0  0  0
  -29.6170  -12.6180   18.1440 C   0  0  0  0  0  2  0  0  0  0  0  0
  -28.1370  -12.4640   18.5490 C   0  0  0  0  0  2  0  0  0  0  0  0
  -27.7740  -13.2970   19.8050 C   0  0  0  0  0  3  0  0  0  0  0  0
  -28.8140  -13.0830   20.9290 C   0  0  0  0  0  2  0  0  0  0  0  0
  -30.1430  -13.4040   20.3900 N   0  0  0  0  0  0  0  0  0  0  0  0
  -31.9110  -14.7940   20.1010 O   0  0  0  0  0  0  0  0  0  0  0  0
  -25.3610  -13.9070   20.4610 C   0  0  0  0  0  0  0  0  0  0  0  0
  -24.2890  -13.1360   20.8230 C   0  0  0  0  0  0  0  0  0  0  0  0
  -24.7580  -11.7870   20.8210 C   0  0  0  0  0  0  0  0  0  0  0  0
  -26.4130  -13.0250   20.2610 N   0  0  0  0  0  0  0  0  0  0  0  0
  -26.0530  -11.7470   20.5370 N   0  0  0  0  0  0  0  0  0  0  0  0
  -24.0330  -10.5250   21.0130 C   0  0  0  0  0  0  0  0  0  0  0  0
  -24.4480   -9.5730   21.9700 C   0  0  0  0  0  3  0  0  0  0  0  0
  -23.7270   -8.3730   22.1480 C   0  0  0  0  0  3  0  0  0  0  0  0
  -22.5750   -8.1180   21.3670 C   0  0  0  0  0  0  0  0  0  0  0  0
  -22.1790   -9.0570   20.3970 C   0  0  0  0  0  3  0  0  0  0  0  0
  -22.9020  -10.2480   20.2190 C   0  0  0  0  0  3  0  0  0  0  0  0
  -21.8220   -6.9710   21.4560 O   0  0  0  0  0  0  0  0  0  0  0  0
  -21.7470   -6.2470   22.6170 C   0  0  0  0  0  0  0  0  0  0  0  0
  -21.2720   -6.8150   23.8200 C   0  0  0  0  0  3  0  0  0  0  0  0
  -21.1470   -6.0160   24.9740 C   0  0  0  0  0  3  0  0  0  0  0  0
  -21.4860   -4.6510   24.9250 C   0  0  0  0  0  0  0  0  0  0  0  0
  -21.9530   -4.0820   23.7270 C   0  0  0  0  0  3  0  0  0  0  0  0
  -22.0790   -4.8780   22.5760 C   0  0  0  0  0  0  0  0  0  0  0  0
  -22.5100   -4.3210   21.4190 F   0  0  0  0  0  0  0  0  0  0  0  0
  -21.3600   -3.8810   26.0310 F   0  0  0  0  0  0  0  0  0  0  0  0
  -22.8840  -13.6120   21.0610 C   0  0  0  0  0  0  0  0  0  0  0  0
  -22.1380  -12.9220   21.9170 N   0  0  0  0  0  0  0  0  0  0  0  0
  -22.4530  -14.6280   20.5210 O   0  0  0  0  0  0  0  0  0  0  0  0
  -22.4960  -12.0970   22.3770 H   0  0  0  0  0  0  0  0  0  0  0  0
  -21.1960  -13.2250   22.1210 H   0  0  0  0  0  0  0  0  0  0  0  0
  -25.5230  -15.2750   20.2640 N   0  0  0  0  0  0  0  0  0  0  0  0
  -24.7370  -15.9150   20.3250 H   0  0  0  0  0  0  0  0  0  0  0  0
  -26.3500  -15.7000   19.8680 H   0  0  0  0  0  0  0  0  0  0  0  0
  -27.9020  -20.3220   19.6900 C   0  0  0  0  0  2  0  0  0  0  0  0
  -27.4280  -19.5520   17.2900 C   0  0  0  0  0  1  0  0  0  0  0  0
  -28.4720  -20.0960   18.2710 C   0  0  0  0  0  2  0  0  0  0  0  0
  1 92  1  0
  1 50  1  0
  2  3  1  0
  4  6  1  0
  5  7  1  0
  5  4  1  0
  5  2  1  0
  6  1  1  0
  6  3  1  0
  7  8  1  0
  9 20  2  0
 10  8  1  0
 10 15  1  0
 11 19  1  0
 11 21  1  0
 12 18  1  0
 12 14  1  0
 13 19  1  0
 14 13  1  0
 15 14  2  0
 16 17  1  0
 16 10  2  0
 17 12  2  0
 18 11  1  0
 19  9  1  0
 21 23  2  0
 22 21  1  0
 24 22  1  0
 25 34  2  0
 25 30  1  0
 26 22  1  0
 26 30  1  0
 27 26  1  0
 28 29  1  0
 28 27  1  0
 29 25  1  0
 30 31  2  0
 31 32  1  0
 33 32  2  0
 34 33  1  0
 35  9  1  0
 35 36  1  0
 35 45  1  0
 36 39  1  0
 37 41  1  0
 37 36  1  0
 38 37  2  0
 41 40  1  0
 43 41  1  0
 43 44  1  0
 43 42  1  0
 45 48  1  1
 45 46  1  0
 47 45  1  0
 50 49  1  0
 51 50  1  0
 51 52  1  0
 53 51  1  0
 54 51  1  0
 54 55  1  0
 56 55  1  0
 57 62  1  0
 58 59  1  0
 58 57  1  0
 60 59  1  0
 60 67  1  0
 60 61  1  0
 62 56  1  0
 62 61  1  0
 63 56  2  0
 64 65  2  0
 65 84  1  0
 66 65  1  0
 66 69  1  0
 67 64  1  0
 67 68  1  0
 68 66  2  0
 69 70  1  0
 70 71  2  0
 72 75  1  0
 72 71  1  0
 73 72  2  0
 74 73  1  0
 74 69  2  0
 75 76  1  0
 76 77  1  0
 77 78  2  0
 79 78  1  0
 79 83  1  0
 80 79  2  0
 81 76  2  0
 81 80  1  0
 82 81  1  0
 84 85  1  0
 85 88  1  0
 85 87  1  0
 86 84  2  0
 89 90  1  0
 89 64  1  0
 91 89  1  0
 93 94  1  0
 94 92  1  0
M  ISO  4   7 101   8 101  55 100  56 100
M  END
>  <TORSDO>  (50) 
F 24

>  <SCORE>  (50) 
-12.695

>  <name>  (50) 
50

>  <ligand_id>  (50) 
50

>  <original_smiles>  (50) 
[H]c1c([H])c([H])c2c(c1[H])C([H])([H])C([H])([H])C([H])([H])C2([H])N([H])C(=O)C1([H])N(C(=O)C([H])(N([H])C(=O)C([H])(N([H])C([H])([H])[H])C([H])([H])[H])C(C([H])([H])[H])(C([H])([H])[H])C([H])([H])[H])C([H])([H])c2c([H])c(OC([H])([H])C3([H])C([H])([H])N(C([H])(C([H])([H])C([H])([H])C([H])([H])[H])C([H])(C([H])([H])[H])[N+]([H])([H])C([H])([H])C([H])([H])C(=O)N4C([H])([H])C([H])([H])C([H])([H])C([H])(n5nc(-c6c([H])c([H])c(Oc7c([H])c([H])c(F)c([H])c7F)c([H])c6[H])c(C(=O)N([H])[H])c5N([H])[H])C4([H])[H])C([H])([H])C3([H])[H])c([H])c([H])c2C1([H])[H]

>  <smiles>  (50) 
[H]c1c([H])c([H])c2c(c1[H])C([H])([H])C([H])([H])C([H])([H])C2([H])N([H])C(=O)C1([H])N(C(=O)C([H])(N([H])C(=O)C([H])(N([H])C([H])([H])[H])C([H])([H])[H])C(C([H])([H])[H])(C([H])([H])[H])C([H])([H])[H])C([H])([H])c2c([H])c(OC([H])([H])C3([H])C([H])([H])N(C([H])(C([H])([H])C([H])([H])C([H])([H])[H])C([H])(C([H])([H])[H])[N+]([H])([H])C([H])([H])C([H])([H])C(=O)N4C([H])([H])C([H])([H])C([H])([H])C([H])(n5nc(-c6c([H])c([H])c(Oc7c([H])c([H])c(F)c([H])c7F)c([H])c6[H])c(C(=O)N([H])[H])c5N([H])[H])C4([H])[H])C([H])([H])C3([H])[H])c([H])c([H])c2C1([H])[H]

$$$$
51:0:0
     RDKit          3D

 91100  0  0  1  0  0  0  0  0999 V2000
  -29.9000  -21.5370   20.2450 C   0  0  0  0  0  0  0  0  0  0  0  0
  -29.3970  -22.7750   20.5590 N   0  0  0  0  0  0  0  0  0  0  0  0
  -30.5930  -21.3490   19.2460 O   0  0  0  0  0  0  0  0  0  0  0  0
  -28.8240  -22.7920   21.3940 H   0  0  0  0  0  0  0  0  0  0  0  0
  -31.6540  -20.3020   22.7930 C   0  0  0  0  0  2  0  0  0  0  0  0
  -30.1570  -20.6510   22.6480 C   0  0  0  0  0  2  0  0  0  0  0  0
  -32.0810  -19.1760   21.8380 C   0  0  0  0  0  2  0  0  0  0  0  0
  -29.5730  -20.3510   21.2380 C   0  0  0  0  0  3  0  0  0  0  0  0
  -30.9330  -18.2130   21.6150 C   0  0  0  0  0  3  0  0  0  0  0  0
  -29.6800  -18.7750   20.9370 C   0  0  0  0  0  3  0  0  0  0  0  0
  -30.6160  -17.6620   20.2790 C   0  0  0  0  0  3  0  0  0  0  0  0
  -30.1100  -16.1650   20.2010 C   0  0  0  0  0  2  0  0  0  0  0  0
  -31.0260  -14.8710   20.0330 C   0  0  0  0  0  0  0  0  0  0  0  0
  -30.7740  -12.6460   18.9560 C   0  0  0  0  0  2  0  0  0  0  0  0
  -29.7850  -12.8340   17.7800 C   0  0  0  0  0  2  0  0  0  0  0  0
  -28.3180  -12.7100   18.2490 C   0  0  0  0  0  2  0  0  0  0  0  0
  -28.0310  -13.5340   19.5320 C   0  0  0  0  0  3  0  0  0  0  0  0
  -29.1270  -13.3040   20.5950 C   0  0  0  0  0  2  0  0  0  0  0  0
  -30.4270  -13.6370   19.9930 N   0  0  0  0  0  0  0  0  0  0  0  0
  -32.2030  -15.0090   19.6810 O   0  0  0  0  0  0  0  0  0  0  0  0
  -25.6910  -14.1910   20.3630 C   0  0  0  0  0  0  0  0  0  0  0  0
  -24.6130  -13.4450   20.7520 C   0  0  0  0  0  0  0  0  0  0  0  0
  -25.0270  -12.0810   20.6620 C   0  0  0  0  0  0  0  0  0  0  0  0
  -26.6940  -13.2840   20.0610 N   0  0  0  0  0  0  0  0  0  0  0  0
  -26.3020  -12.0080   20.3000 N   0  0  0  0  0  0  0  0  0  0  0  0
  -24.2630  -10.8400   20.8470 C   0  0  0  0  0  0  0  0  0  0  0  0
  -24.6580   -9.8640   21.7880 C   0  0  0  0  0  3  0  0  0  0  0  0
  -23.9000   -8.6870   21.9580 C   0  0  0  0  0  3  0  0  0  0  0  0
  -22.7310   -8.4770   21.1890 C   0  0  0  0  0  0  0  0  0  0  0  0
  -22.3540   -9.4410   20.2370 C   0  0  0  0  0  3  0  0  0  0  0  0
  -23.1140  -10.6110   20.0650 C   0  0  0  0  0  3  0  0  0  0  0  0
  -21.9460   -7.3520   21.2730 O   0  0  0  0  0  0  0  0  0  0  0  0
  -21.8170   -6.6460   22.4430 C   0  0  0  0  0  0  0  0  0  0  0  0
  -21.3130   -7.2410   23.6200 C   0  0  0  0  0  3  0  0  0  0  0  0
  -21.1300   -6.4620   24.7790 C   0  0  0  0  0  3  0  0  0  0  0  0
  -21.4420   -5.0900   24.7620 C   0  0  0  0  0  0  0  0  0  0  0  0
  -21.9390   -4.4940   23.5890 C   0  0  0  0  0  3  0  0  0  0  0  0
  -22.1240   -5.2710   22.4320 C   0  0  0  0  0  0  0  0  0  0  0  0
  -22.5830   -4.6880   21.2980 F   0  0  0  0  0  0  0  0  0  0  0  0
  -21.2590   -4.3390   25.8730 F   0  0  0  0  0  0  0  0  0  0  0  0
  -23.2440  -13.9610   21.0900 C   0  0  0  0  0  0  0  0  0  0  0  0
  -22.5290  -13.2740   21.9740 N   0  0  0  0  0  0  0  0  0  0  0  0
  -22.8190  -15.0080   20.6030 O   0  0  0  0  0  0  0  0  0  0  0  0
  -22.8850  -12.4280   22.3920 H   0  0  0  0  0  0  0  0  0  0  0  0
  -21.6100  -13.6020   22.2380 H   0  0  0  0  0  0  0  0  0  0  0  0
  -25.8950  -15.5610   20.2190 N   0  0  0  0  0  0  0  0  0  0  0  0
  -25.1540  -16.2330   20.3830 H   0  0  0  0  0  0  0  0  0  0  0  0
  -26.7450  -15.9850   19.8710 H   0  0  0  0  0  0  0  0  0  0  0  0
  -29.6390  -24.1360   19.9640 C   0  0  0  0  0  2  0  0  0  0  0  0
  -28.4700  -25.1830   20.2110 C   0  0  0  0  0  2  0  0  0  0  0  0
  -28.6570  -26.6350   19.9670 O   0  0  0  0  0  0  0  0  0  0  0  0
  -24.6980  -31.7490   23.1950 C   0  0  0  0  0  0  0  0  0  0  0  0
  -27.4980  -27.4310   19.9640 C   0  0  0  0  0  0  0  0  0  0  0  0
  -23.5480  -30.3400   21.5280 C   0  0  0  0  0  3  0  0  0  0  0  0
  -25.0560  -28.9180   20.0360 C   0  0  0  0  0  0  0  0  0  0  0  0
  -26.0650  -30.7950   21.3260 C   0  0  0  0  0  2  0  0  0  0  0  0
  -26.2060  -29.4440   20.6380 C   0  0  0  0  0  0  0  0  0  0  0  0
  -27.4310  -28.7120   20.5930 C   0  0  0  0  0  3  0  0  0  0  0  0
  -26.3210  -26.9670   19.3280 C   0  0  0  0  0  3  0  0  0  0  0  0
  -25.1160  -27.6880   19.3670 C   0  0  0  0  0  3  0  0  0  0  0  0
  -23.7790  -29.7230   20.1240 C   0  0  0  0  0  2  0  0  0  0  0  0
  -24.7910  -30.9780   22.0730 N   0  0  0  0  0  0  0  0  0  0  0  0
  -23.6090  -31.9570   23.7470 O   0  0  0  0  0  0  0  0  0  0  0  0
  -22.9540  -29.2590   22.4620 C   0  0  0  0  0  0  0  0  0  0  0  0
  -21.6520  -28.9710   22.2990 N   0  0  0  0  0  0  0  0  0  0  0  0
  -23.6630  -28.6850   23.2920 O   0  0  0  0  0  0  0  0  0  0  0  0
  -21.1380  -29.4910   21.6020 H   0  0  0  0  0  0  0  0  0  0  0  0
  -18.4030  -27.4200   22.6200 C   0  0  0  0  0  0  0  0  0  0  0  0
  -20.8950  -27.9610   23.0390 C   0  0  0  0  0  3  0  0  0  0  0  0
  -21.1890  -26.5420   22.5000 C   0  0  0  0  0  2  0  0  0  0  0  0
  -20.1940  -26.0860   21.4280 C   0  0  0  0  0  2  0  0  0  0  0  0
  -18.7650  -26.0910   21.9820 C   0  0  0  0  0  2  0  0  0  0  0  0
  -19.4020  -28.3050   23.1030 C   0  0  0  0  0  0  0  0  0  0  0  0
  -19.0100  -29.5450   23.6540 C   0  0  0  0  0  3  0  0  0  0  0  0
  -17.6480  -29.8990   23.7330 C   0  0  0  0  0  3  0  0  0  0  0  0
  -16.6640  -29.0120   23.2680 C   0  0  0  0  0  3  0  0  0  0  0  0
  -17.0410  -27.7750   22.7160 C   0  0  0  0  0  3  0  0  0  0  0  0
  -25.9540  -32.4270   23.8240 C   0  0  0  0  0  3  0  0  0  0  0  0
  -26.4980  -31.6690   25.0980 C   0  0  1  0  0  0  0  0  0  0  0  0
  -25.4120  -31.3800   26.1610 C   0  0  0  0  0  1  0  0  0  0  0  0
  -27.1340  -30.3180   24.7010 C   0  0  0  0  0  1  0  0  0  0  0  0
  -27.6170  -32.5050   25.7670 C   0  0  0  0  0  1  0  0  0  0  0  0
  -25.5920  -33.8120   24.1590 N   0  0  0  0  0  0  0  0  0  0  0  0
  -25.9340  -34.8830   23.4310 C   0  0  0  0  0  0  0  0  0  0  0  0
  -26.6570  -34.8120   22.4330 O   0  0  0  0  0  0  0  0  0  0  0  0
  -24.9540  -33.9430   24.9310 H   0  0  0  0  0  0  0  0  0  0  0  0
  -24.1850  -36.6450   23.0110 C   0  0  0  0  0  1  0  0  0  0  0  0
  -25.3890  -36.2530   23.8830 C   0  0  0  0  0  3  0  0  0  0  0  0
  -27.4510  -37.1720   24.8520 C   0  0  0  0  0  1  0  0  0  0  0  0
  -26.4000  -37.3310   23.8490 N   0  0  0  0  0  0  0  0  0  0  0  0
  -25.9630  -38.2380   23.9910 H   0  0  0  0  0  0  0  0  0  0  0  0
  1  2  1  0
  2  4  1  0
  3  1  2  0
  6  5  1  0
  7  5  1  0
  8  1  1  0
  8  6  1  0
  9  7  1  0
 10  8  1  0
 10  9  1  0
 11 10  1  0
 11  9  1  0
 12 11  1  0
 13 12  1  0
 14 19  1  0
 15 16  1  0
 15 14  1  0
 16 17  1  0
 17 24  1  0
 17 18  1  0
 19 13  1  0
 19 18  1  0
 20 13  2  0
 21 22  2  0
 22 41  1  0
 23 22  1  0
 23 26  1  0
 24 25  1  0
 24 21  1  0
 25 23  2  0
 26 27  1  0
 27 28  2  0
 29 32  1  0
 29 28  1  0
 30 29  2  0
 31 30  1  0
 31 26  2  0
 32 33  1  0
 33 34  1  0
 34 35  2  0
 36 35  1  0
 36 40  1  0
 37 36  2  0
 38 33  2  0
 38 37  1  0
 39 38  1  0
 41 42  1  0
 42 45  1  0
 42 44  1  0
 43 41  2  0
 46 21  1  0
 46 47  1  0
 48 46  1  0
 49 50  1  0
 49  2  1  0
 51 50  1  0
 52 63  2  0
 52 78  1  0
 53 51  1  0
 53 58  1  0
 54 62  1  0
 54 64  1  0
 55 61  1  0
 55 57  1  0
 56 62  1  0
 57 56  1  0
 58 57  2  0
 59 60  1  0
 59 53  2  0
 60 55  2  0
 61 54  1  0
 62 52  1  0
 64 66  2  0
 65 64  1  0
 65 69  1  0
 67 65  1  0
 68 77  2  0
 68 73  1  0
 69 73  1  0
 70 69  1  0
 71 72  1  0
 71 70  1  0
 72 68  1  0
 73 74  2  0
 74 75  1  0
 76 75  2  0
 77 76  1  0
 78 83  1  0
 78 79  1  0
 79 82  1  1
 79 80  1  0
 81 79  1  0
 83 86  1  0
 84 88  1  0
 84 83  1  0
 85 84  2  0
 87 88  1  0
 90 88  1  0
 90 91  1  0
 90 89  1  0
M  ISO  4  12 100  13 100  50 101  51 101
M  END
>  <TORSDO>  (51) 
F 20

>  <SCORE>  (51) 
-12.942

>  <name>  (51) 
51

>  <ligand_id>  (51) 
51

>  <original_smiles>  (51) 
[H]c1c([H])c([H])c2c(c1[H])C([H])([H])C([H])([H])C([H])([H])C2([H])N([H])C(=O)C1([H])N(C(=O)C([H])(N([H])C(=O)C([H])(N([H])C([H])([H])[H])C([H])([H])[H])C(C([H])([H])[H])(C([H])([H])[H])C([H])([H])[H])C([H])([H])c2c([H])c(OC([H])([H])C([H])([H])N([H])C(=O)C3([H])C([H])([H])C([H])([H])C([H])([H])C4([H])C([H])(C([H])([H])C(=O)N5C([H])([H])C([H])([H])C([H])([H])C([H])(n6nc(-c7c([H])c([H])c(Oc8c([H])c([H])c(F)c([H])c8F)c([H])c7[H])c(C(=O)N([H])[H])c6N([H])[H])C5([H])[H])C34[H])c([H])c([H])c2C1([H])[H]

>  <smiles>  (51) 
[H]c1c([H])c([H])c2c(c1[H])C([H])([H])C([H])([H])C([H])([H])C2([H])N([H])C(=O)C1([H])N(C(=O)C([H])(N([H])C(=O)C([H])(N([H])C([H])([H])[H])C([H])([H])[H])C(C([H])([H])[H])(C([H])([H])[H])C([H])([H])[H])C([H])([H])c2c([H])c(OC([H])([H])C([H])([H])N([H])C(=O)C3([H])C([H])([H])C([H])([H])C([H])([H])C4([H])C([H])(C([H])([H])C(=O)N5C([H])([H])C([H])([H])C([H])([H])C([H])(n6nc(-c7c([H])c([H])c(Oc8c([H])c([H])c(F)c([H])c8F)c([H])c7[H])c(C(=O)N([H])[H])c6N([H])[H])C5([H])[H])C34[H])c([H])c([H])c2C1([H])[H]

$$$$
52:0:0
     RDKit          3D

 92101  0  0  1  0  0  0  0  0999 V2000
  -31.6170  -22.2550   21.8470 C   0  0  0  0  0  2  0  0  0  0  0  0
  -31.4480  -20.7730   22.2000 C   0  0  0  0  0  2  0  0  0  0  0  0
  -29.4470  -21.9410   22.8660 C   0  0  0  0  0  3  0  0  0  0  0  0
  -30.1750  -22.7880   21.8140 C   0  0  0  0  0  3  0  0  0  0  0  0
  -29.9080  -20.5940   22.2960 C   0  0  0  0  0  3  0  0  0  0  0  0
  -29.4300  -22.4270   20.5030 C   0  0  0  0  0  3  0  0  0  0  0  0
  -29.3260  -20.5250   20.8610 C   0  0  0  0  0  3  0  0  0  0  0  0
  -30.2200  -21.3430   25.2220 C   0  0  0  0  0  2  0  0  0  0  0  0
  -29.8220  -22.2600   24.3210 C   0  0  0  0  0  0  0  0  0  0  0  0
  -29.7000  -23.7200   24.7120 C   0  0  0  0  0  1  0  0  0  0  0  0
  -30.0150  -19.0290   20.2730 N   0  0  0  0  0  4  0  0  0  0  0  0
  -31.0080  -19.1860   20.3330 H   0  0  0  0  0  0  0  0  0  0  0  0
  -29.8260  -19.0280   19.2850 H   0  0  0  0  0  0  0  0  0  0  0  0
  -29.8470  -17.3570   20.7480 C   0  0  0  0  0  2  0  0  0  0  0  0
  -30.6640  -15.7340   20.4180 C   0  0  0  0  0  0  0  0  0  0  0  0
  -30.7460  -13.2080   19.5740 C   0  0  0  0  0  2  0  0  0  0  0  0
  -29.8670  -12.9130   18.3210 C   0  0  0  0  0  2  0  0  0  0  0  0
  -28.4150  -12.5980   18.7220 C   0  0  0  0  0  2  0  0  0  0  0  0
  -27.9110  -13.5760   19.8070 C   0  0  0  0  0  3  0  0  0  0  0  0
  -28.9200  -13.8010   20.9540 C   0  0  0  0  0  2  0  0  0  0  0  0
  -30.1570  -14.3690   20.3760 N   0  0  0  0  0  0  0  0  0  0  0  0
  -31.8810  -15.6930   20.1630 O   0  0  0  0  0  0  0  0  0  0  0  0
  -25.5370  -14.1290   20.5330 C   0  0  0  0  0  0  0  0  0  0  0  0
  -24.4600  -13.3560   20.8670 C   0  0  0  0  0  0  0  0  0  0  0  0
  -24.9160  -12.0030   20.8230 C   0  0  0  0  0  0  0  0  0  0  0  0
  -26.5750  -13.2500   20.2910 N   0  0  0  0  0  0  0  0  0  0  0  0
  -26.2140  -11.9620   20.5360 N   0  0  0  0  0  0  0  0  0  0  0  0
  -24.1690  -10.7450   20.9790 C   0  0  0  0  0  0  0  0  0  0  0  0
  -24.5650   -9.7580   21.9080 C   0  0  0  0  0  3  0  0  0  0  0  0
  -23.8150   -8.5700   22.0520 C   0  0  0  0  0  3  0  0  0  0  0  0
  -22.6550   -8.3610   21.2680 C   0  0  0  0  0  0  0  0  0  0  0  0
  -22.2790   -9.3370   20.3280 C   0  0  0  0  0  3  0  0  0  0  0  0
  -23.0300  -10.5150   20.1810 C   0  0  0  0  0  3  0  0  0  0  0  0
  -21.8820   -7.2260   21.3200 O   0  0  0  0  0  0  0  0  0  0  0  0
  -21.7880   -6.4700   22.4620 C   0  0  0  0  0  0  0  0  0  0  0  0
  -21.3350   -7.0170   23.6820 C   0  0  0  0  0  3  0  0  0  0  0  0
  -21.1880   -6.1910   24.8130 C   0  0  0  0  0  3  0  0  0  0  0  0
  -21.4850   -4.8160   24.7250 C   0  0  0  0  0  0  0  0  0  0  0  0
  -21.9310   -4.2690   23.5100 C   0  0  0  0  0  3  0  0  0  0  0  0
  -22.0800   -5.0940   22.3810 C   0  0  0  0  0  0  0  0  0  0  0  0
  -22.4880   -4.5560   21.2060 F   0  0  0  0  0  0  0  0  0  0  0  0
  -21.3370   -4.0200   25.8090 F   0  0  0  0  0  0  0  0  0  0  0  0
  -23.0620  -13.8450   21.1110 C   0  0  0  0  0  0  0  0  0  0  0  0
  -22.3110  -13.1550   21.9590 N   0  0  0  0  0  0  0  0  0  0  0  0
  -22.6480  -14.8770   20.5830 O   0  0  0  0  0  0  0  0  0  0  0  0
  -22.6600  -12.3210   22.4080 H   0  0  0  0  0  0  0  0  0  0  0  0
  -21.3720  -13.4670   22.1630 H   0  0  0  0  0  0  0  0  0  0  0  0
  -25.7150  -15.5020   20.3840 N   0  0  0  0  0  0  0  0  0  0  0  0
  -24.9470  -16.1560   20.4900 H   0  0  0  0  0  0  0  0  0  0  0  0
  -26.5700  -15.9420   20.0700 H   0  0  0  0  0  0  0  0  0  0  0  0
  -28.3480  -24.0120   20.3950 C   0  0  0  0  0  2  0  0  0  0  0  0
  -28.5000  -25.7460   20.4650 O   0  0  0  0  0  0  0  0  0  0  0  0
  -24.8280  -31.9110   23.2990 C   0  0  0  0  0  0  0  0  0  0  0  0
  -27.5020  -26.9160   20.3720 C   0  0  0  0  0  0  0  0  0  0  0  0
  -23.7010  -30.5100   21.6200 C   0  0  0  0  0  3  0  0  0  0  0  0
  -25.2060  -28.8900   20.2470 C   0  0  0  0  0  0  0  0  0  0  0  0
  -26.2780  -30.6940   21.5700 C   0  0  0  0  0  2  0  0  0  0  0  0
  -26.3760  -29.2690   20.9150 C   0  0  0  0  0  0  0  0  0  0  0  0
  -27.5090  -28.3080   20.9460 C   0  0  0  0  0  3  0  0  0  0  0  0
  -26.2970  -26.7320   19.6480 C   0  0  0  0  0  3  0  0  0  0  0  0
  -25.2020  -27.6450   19.5920 C   0  0  0  0  0  3  0  0  0  0  0  0
  -23.9870  -29.8240   20.2530 C   0  0  0  0  0  2  0  0  0  0  0  0
  -24.9570  -31.0700   22.2170 N   0  0  0  0  0  0  0  0  0  0  0  0
  -23.7170  -32.1960   23.7810 O   0  0  0  0  0  0  0  0  0  0  0  0
  -22.9700  -29.5190   22.5650 C   0  0  0  0  0  0  0  0  0  0  0  0
  -21.6490  -29.3300   22.3820 N   0  0  0  0  0  0  0  0  0  0  0  0
  -23.6030  -28.9150   23.4360 O   0  0  0  0  0  0  0  0  0  0  0  0
  -21.1870  -29.8700   21.6640 H   0  0  0  0  0  0  0  0  0  0  0  0
  -18.2770  -28.0220   22.7290 C   0  0  0  0  0  0  0  0  0  0  0  0
  -20.8100  -28.3790   23.1240 C   0  0  0  0  0  3  0  0  0  0  0  0
  -20.9880  -26.9410   22.5830 C   0  0  0  0  0  2  0  0  0  0  0  0
  -19.9550  -26.5670   21.5160 C   0  0  0  0  0  2  0  0  0  0  0  0
  -18.5360  -26.6720   22.0820 C   0  0  0  0  0  2  0  0  0  0  0  0
  -19.3450  -28.8310   23.2040 C   0  0  0  0  0  0  0  0  0  0  0  0
  -19.0490  -30.0870   23.7730 C   0  0  0  0  0  3  0  0  0  0  0  0
  -17.7200  -30.5410   23.8680 C   0  0  0  0  0  3  0  0  0  0  0  0
  -16.6660  -29.7320   23.4100 C   0  0  0  0  0  3  0  0  0  0  0  0
  -16.9460  -28.4740   22.8450 C   0  0  0  0  0  3  0  0  0  0  0  0
  -26.0670  -32.5690   23.9780 C   0  0  0  0  0  3  0  0  0  0  0  0
  -26.5390  -31.8050   25.2780 C   0  0  1  0  0  0  0  0  0  0  0  0
  -25.4050  -31.5530   26.3000 C   0  0  0  0  0  1  0  0  0  0  0  0
  -27.1580  -30.4350   24.9200 C   0  0  0  0  0  1  0  0  0  0  0  0
  -27.6480  -32.6160   25.9900 C   0  0  0  0  0  1  0  0  0  0  0  0
  -25.7190  -33.9630   24.3160 N   0  0  0  0  0  0  0  0  0  0  0  0
  -26.0500  -35.0400   23.5890 C   0  0  0  0  0  0  0  0  0  0  0  0
  -26.7370  -34.9650   22.5680 O   0  0  0  0  0  0  0  0  0  0  0  0
  -25.1100  -34.0920   25.1100 H   0  0  0  0  0  0  0  0  0  0  0  0
  -24.2940  -36.8200   23.2660 C   0  0  0  0  0  1  0  0  0  0  0  0
  -25.5410  -36.4170   24.0690 C   0  0  0  0  0  3  0  0  0  0  0  0
  -27.6580  -37.3330   24.9150 C   0  0  0  0  0  1  0  0  0  0  0  0
  -26.5560  -37.4890   23.9710 N   0  0  0  0  0  0  0  0  0  0  0  0
  -26.1330  -38.4000   24.1290 H   0  0  0  0  0  0  0  0  0  0  0  0
  1  2  1  0
  3  9  1  0
  4  1  1  0
  4  3  1  0
  5  2  1  0
  5  3  1  0
  6 51  1  0
  6  7  1  0
  6  4  1  0
  7 11  1  0
  7  5  1  0
  9 10  1  0
  9  8  2  0
 11 12  1  0
 11 14  1  0
 13 11  1  0
 15 14  1  0
 16 21  1  0
 17 18  1  0
 17 16  1  0
 19 18  1  0
 19 26  1  0
 19 20  1  0
 21 15  1  0
 21 20  1  0
 22 15  2  0
 23 24  2  0
 24 43  1  0
 25 24  1  0
 25 28  1  0
 26 23  1  0
 26 27  1  0
 27 25  2  0
 28 29  1  0
 29 30  2  0
 31 34  1  0
 31 30  1  0
 32 31  2  0
 33 32  1  0
 33 28  2  0
 34 35  1  0
 35 36  1  0
 36 37  2  0
 38 37  1  0
 38 42  1  0
 39 38  2  0
 40 35  2  0
 40 39  1  0
 41 40  1  0
 43 44  1  0
 44 47  1  0
 44 46  1  0
 45 43  2  0
 48 49  1  0
 48 23  1  0
 50 48  1  0
 51 52  1  0
 53 64  2  0
 54 52  1  0
 54 59  1  0
 55 63  1  0
 55 65  1  0
 56 62  1  0
 56 58  1  0
 57 63  1  0
 58 59  2  0
 58 57  1  0
 60 54  2  0
 61 60  1  0
 61 56  2  0
 62 55  1  0
 63 53  1  0
 65 67  2  0
 66 65  1  0
 68 66  1  0
 69 78  2  0
 69 74  1  0
 70 66  1  0
 70 74  1  0
 71 70  1  0
 72 73  1  0
 72 71  1  0
 73 69  1  0
 74 75  2  0
 75 76  1  0
 77 76  2  0
 78 77  1  0
 79 53  1  0
 79 84  1  0
 79 80  1  0
 80 83  1  1
 80 81  1  0
 82 80  1  0
 84 87  1  0
 85 89  1  0
 85 84  1  0
 86 85  2  0
 89 88  1  0
 91 89  1  0
 91 92  1  0
 91 90  1  0
M  ISO  4  14 100  15 100  51 101  52 101
M  END
>  <TORSDO>  (52) 
F 20

>  <SCORE>  (52) 
-14.371

>  <name>  (52) 
52

>  <ligand_id>  (52) 
52

>  <original_smiles>  (52) 
[H]C([H])=C(C([H])([H])[H])C1([H])C2([H])C([H])([H])C([H])([H])C1([H])C([H])([N+]([H])([H])C([H])([H])C(=O)N1C([H])([H])C([H])([H])C([H])([H])C([H])(n3nc(-c4c([H])c([H])c(Oc5c([H])c([H])c(F)c([H])c5F)c([H])c4[H])c(C(=O)N([H])[H])c3N([H])[H])C1([H])[H])C2([H])C([H])([H])Oc1c([H])c([H])c2c(c1[H])C([H])([H])N(C(=O)C([H])(N([H])C(=O)C([H])(N([H])C([H])([H])[H])C([H])([H])[H])C(C([H])([H])[H])(C([H])([H])[H])C([H])([H])[H])C([H])(C(=O)N([H])C1([H])c3c([H])c([H])c([H])c([H])c3C([H])([H])C([H])([H])C1([H])[H])C2([H])[H]

>  <smiles>  (52) 
[H]C([H])=C(C([H])([H])[H])C1([H])C2([H])C([H])([H])C([H])([H])C1([H])C([H])([N+]([H])([H])C([H])([H])C(=O)N1C([H])([H])C([H])([H])C([H])([H])C([H])(n3nc(-c4c([H])c([H])c(Oc5c([H])c([H])c(F)c([H])c5F)c([H])c4[H])c(C(=O)N([H])[H])c3N([H])[H])C1([H])[H])C2([H])C([H])([H])Oc1c([H])c([H])c2c(c1[H])C([H])([H])N(C(=O)C([H])(N([H])C(=O)C([H])(N([H])C([H])([H])[H])C([H])([H])[H])C(C([H])([H])[H])(C([H])([H])[H])C([H])([H])[H])C([H])(C(=O)N([H])C1([H])c3c([H])c([H])c([H])c([H])c3C([H])([H])C([H])([H])C1([H])[H])C2([H])[H]

$$$$
53:0:0
     RDKit          3D

 88 97  0  0  1  0  0  0  0  0999 V2000
  -28.8690  -21.3430   19.8430 C   0  0  0  0  0  0  0  0  0  0  0  0
  -29.0430  -22.8010   20.0590 C   0  0  0  0  0  3  0  0  0  0  0  0
  -27.5350  -20.7880   19.3710 C   0  0  0  0  0  2  0  0  0  0  0  0
  -27.4040  -19.2990   19.8410 C   0  0  0  0  0  2  0  0  0  0  0  0
  -29.0200  -17.3830   20.8740 C   0  0  0  0  0  2  0  0  0  0  0  0
  -29.6780  -19.8650   20.2370 C   0  0  0  0  0  3  0  0  0  0  0  0
  -29.8780  -16.9320   19.6490 C   0  0  0  0  0  3  0  0  0  0  0  0
  -28.5770  -18.9370   20.7880 C   0  0  0  0  0  3  0  0  0  0  0  0
  -30.3510  -18.5630   19.3210 C   0  0  0  0  0  3  0  0  0  0  0  0
  -31.8800  -18.6730   19.3610 C   0  0  0  0  0  1  0  0  0  0  0  0
  -30.7460  -15.3840   19.6230 C   0  0  0  0  0  0  0  0  0  0  0  0
  -30.7530  -12.8840   18.8980 C   0  0  0  0  0  2  0  0  0  0  0  0
  -29.7460  -12.5940   17.7550 C   0  0  0  0  0  2  0  0  0  0  0  0
  -28.3440  -12.3110   18.3230 C   0  0  0  0  0  2  0  0  0  0  0  0
  -27.9510  -13.3240   19.4250 C   0  0  0  0  0  3  0  0  0  0  0  0
  -29.0770  -13.5580   20.4510 C   0  0  0  0  0  2  0  0  0  0  0  0
  -30.2480  -14.0510   19.7100 N   0  0  0  0  0  0  0  0  0  0  0  0
  -31.9460  -15.3870   19.3070 O   0  0  0  0  0  0  0  0  0  0  0  0
  -25.7050  -13.8770   20.4940 C   0  0  0  0  0  0  0  0  0  0  0  0
  -24.6660  -13.0990   20.9220 C   0  0  0  0  0  0  0  0  0  0  0  0
  -25.0810  -11.7440   20.7360 C   0  0  0  0  0  0  0  0  0  0  0  0
  -26.6810  -12.9990   20.0610 N   0  0  0  0  0  0  0  0  0  0  0  0
  -26.3270  -11.7050   20.2740 N   0  0  0  0  0  0  0  0  0  0  0  0
  -24.3380  -10.4880   20.9140 C   0  0  0  0  0  0  0  0  0  0  0  0
  -24.7340   -9.5230   21.8660 C   0  0  0  0  0  3  0  0  0  0  0  0
  -23.9900   -8.3340   22.0310 C   0  0  0  0  0  3  0  0  0  0  0  0
  -22.8350   -8.1030   21.2470 C   0  0  0  0  0  0  0  0  0  0  0  0
  -22.4590   -9.0570   20.2840 C   0  0  0  0  0  3  0  0  0  0  0  0
  -23.2030  -10.2370   20.1170 C   0  0  0  0  0  3  0  0  0  0  0  0
  -22.0670   -6.9650   21.3190 O   0  0  0  0  0  0  0  0  0  0  0  0
  -21.8140   -6.3440   22.5160 C   0  0  0  0  0  0  0  0  0  0  0  0
  -21.1520   -7.0050   23.5730 C   0  0  0  0  0  3  0  0  0  0  0  0
  -20.8490   -6.3080   24.7610 C   0  0  0  0  0  3  0  0  0  0  0  0
  -21.1990   -4.9510   24.8890 C   0  0  0  0  0  0  0  0  0  0  0  0
  -21.8540   -4.2890   23.8350 C   0  0  0  0  0  3  0  0  0  0  0  0
  -22.1580   -4.9830   22.6510 C   0  0  0  0  0  0  0  0  0  0  0  0
  -22.7700   -4.3370   21.6300 F   0  0  0  0  0  0  0  0  0  0  0  0
  -20.9030   -4.2770   26.0250 F   0  0  0  0  0  0  0  0  0  0  0  0
  -23.3240  -13.5880   21.3820 C   0  0  0  0  0  0  0  0  0  0  0  0
  -22.6810  -12.8560   22.2850 N   0  0  0  0  0  0  0  0  0  0  0  0
  -22.8590  -14.6530   20.9810 O   0  0  0  0  0  0  0  0  0  0  0  0
  -23.0760  -11.9960   22.6370 H   0  0  0  0  0  0  0  0  0  0  0  0
  -21.7850  -13.1640   22.6360 H   0  0  0  0  0  0  0  0  0  0  0  0
  -25.8910  -15.2540   20.4110 N   0  0  0  0  0  0  0  0  0  0  0  0
  -25.1710  -15.9110   20.6940 H   0  0  0  0  0  0  0  0  0  0  0  0
  -26.7220  -15.7060   20.0530 H   0  0  0  0  0  0  0  0  0  0  0  0
  -28.0950  -24.2540   19.8010 C   0  0  0  0  0  2  0  0  0  0  0  0
  -28.3610  -25.8580   20.1190 O   0  0  0  0  0  0  0  0  0  0  0  0
  -24.6550  -31.7130   23.1640 C   0  0  0  0  0  0  0  0  0  0  0  0
  -27.3530  -26.9630   20.0570 C   0  0  0  0  0  0  0  0  0  0  0  0
  -23.5260  -30.3690   21.4360 C   0  0  0  0  0  3  0  0  0  0  0  0
  -25.0380  -28.8280   20.0030 C   0  0  0  0  0  0  0  0  0  0  0  0
  -26.0940  -30.6040   21.3810 C   0  0  0  0  0  2  0  0  0  0  0  0
  -26.2020  -29.2180   20.6780 C   0  0  0  0  0  0  0  0  0  0  0  0
  -27.3530  -28.3090   20.6830 C   0  0  0  0  0  3  0  0  0  0  0  0
  -26.1580  -26.7300   19.3380 C   0  0  0  0  0  3  0  0  0  0  0  0
  -25.0420  -27.6050   19.3150 C   0  0  0  0  0  3  0  0  0  0  0  0
  -23.8070  -29.7370   20.0440 C   0  0  0  0  0  2  0  0  0  0  0  0
  -24.7770  -30.9210   22.0500 N   0  0  0  0  0  0  0  0  0  0  0  0
  -23.5470  -31.9750   23.6620 O   0  0  0  0  0  0  0  0  0  0  0  0
  -22.8110  -29.3330   22.3440 C   0  0  0  0  0  0  0  0  0  0  0  0
  -21.4860  -29.1730   22.1800 N   0  0  0  0  0  0  0  0  0  0  0  0
  -23.4590  -28.6750   23.1610 O   0  0  0  0  0  0  0  0  0  0  0  0
  -21.0170  -29.7570   21.5010 H   0  0  0  0  0  0  0  0  0  0  0  0
  -18.0850  -27.9870   22.6150 C   0  0  0  0  0  0  0  0  0  0  0  0
  -20.6480  -28.2010   22.8920 C   0  0  0  0  0  3  0  0  0  0  0  0
  -20.7290  -26.8070   22.2280 C   0  0  0  0  0  2  0  0  0  0  0  0
  -19.6230  -26.5630   21.1950 C   0  0  0  0  0  2  0  0  0  0  0  0
  -18.2430  -26.6830   21.8500 C   0  0  0  0  0  2  0  0  0  0  0  0
  -19.2150  -28.7070   23.0900 C   0  0  0  0  0  0  0  0  0  0  0  0
  -19.0120  -29.9270   23.7700 C   0  0  0  0  0  3  0  0  0  0  0  0
  -17.7130  -30.4300   23.9760 C   0  0  0  0  0  3  0  0  0  0  0  0
  -16.5980  -29.7080   23.5140 C   0  0  0  0  0  3  0  0  0  0  0  0
  -16.7860  -28.4860   22.8410 C   0  0  0  0  0  3  0  0  0  0  0  0
  -25.9000  -32.3430   23.8610 C   0  0  0  0  0  3  0  0  0  0  0  0
  -25.5710  -33.7360   24.2070 N   0  0  0  0  0  0  0  0  0  0  0  0
  -25.8900  -34.8070   23.4660 C   0  0  0  0  0  0  0  0  0  0  0  0
  -26.5550  -34.7250   22.4310 O   0  0  0  0  0  0  0  0  0  0  0  0
  -24.9800  -33.8730   25.0120 H   0  0  0  0  0  0  0  0  0  0  0  0
  -24.1260  -36.5790   23.1740 C   0  0  0  0  0  1  0  0  0  0  0  0
  -25.3960  -36.1860   23.9470 C   0  0  0  0  0  3  0  0  0  0  0  0
  -27.5290  -37.1100   24.7380 C   0  0  0  0  0  1  0  0  0  0  0  0
  -26.4080  -37.2560   23.8120 N   0  0  0  0  0  0  0  0  0  0  0  0
  -25.9900  -38.1690   23.9630 H   0  0  0  0  0  0  0  0  0  0  0  0
  -26.3470  -31.5560   25.1550 C   0  0  1  0  0  0  0  0  0  0  0  0
  -25.1970  -31.3050   26.1590 C   0  0  0  0  0  1  0  0  0  0  0  0
  -26.9520  -30.1820   24.7870 C   0  0  0  0  0  1  0  0  0  0  0  0
  -27.4620  -32.3390   25.8870 C   0  0  0  0  0  1  0  0  0  0  0  0
  1  2  2  0
  3  4  1  0
  3  1  1  0
  6  1  1  0
  6  8  1  0
  7 11  1  0
  7  5  1  0
  8  4  1  0
  8  5  1  0
  9 10  1  0
  9  7  1  0
  9  6  1  0
 11 17  1  0
 12 17  1  0
 13 14  1  0
 13 12  1  0
 15 14  1  0
 15 22  1  0
 15 16  1  0
 17 16  1  0
 18 11  2  0
 19 20  2  0
 20 39  1  0
 21 24  1  0
 21 20  1  0
 22 23  1  0
 22 19  1  0
 23 21  2  0
 24 25  1  0
 25 26  2  0
 27 30  1  0
 27 26  1  0
 28 27  2  0
 29 28  1  0
 29 24  2  0
 30 31  1  0
 31 36  2  0
 31 32  1  0
 32 33  2  0
 33 34  1  0
 34 38  1  0
 35 34  2  0
 36 35  1  0
 37 36  1  0
 39 40  1  0
 40 43  1  0
 40 42  1  0
 41 39  2  0
 44 19  1  0
 44 45  1  0
 46 44  1  0
 47  2  1  0
 47 48  1  0
 49 60  2  0
 50 48  1  0
 50 55  1  0
 51 59  1  0
 51 61  1  0
 52 58  1  0
 52 54  1  0
 53 59  1  0
 54 55  2  0
 54 53  1  0
 56 50  2  0
 57 56  1  0
 57 52  2  0
 58 51  1  0
 59 49  1  0
 61 63  2  0
 62 61  1  0
 64 62  1  0
 65 74  2  0
 65 70  1  0
 66 62  1  0
 66 70  1  0
 67 66  1  0
 68 69  1  0
 68 67  1  0
 69 65  1  0
 70 71  2  0
 71 72  1  0
 73 72  2  0
 74 73  1  0
 75 49  1  0
 75 76  1  0
 75 85  1  0
 76 79  1  0
 77 81  1  0
 77 76  1  0
 78 77  2  0
 81 80  1  0
 83 81  1  0
 83 84  1  0
 83 82  1  0
 85 88  1  1
 85 86  1  0
 87 85  1  0
M  ISO  4   7 100  11 100  47 101  48 101
M  END
>  <TORSDO>  (53) 
F 17

>  <SCORE>  (53) 
-15.377

>  <name>  (53) 
53

>  <ligand_id>  (53) 
53

>  <original_smiles>  (53) 
[H]C(=C1C([H])([H])C([H])([H])C2([H])C([H])([H])C([H])(C(=O)N3C([H])([H])C([H])([H])C([H])([H])C([H])(n4nc(-c5c([H])c([H])c(Oc6c([H])c([H])c(F)c([H])c6F)c([H])c5[H])c(C(=O)N([H])[H])c4N([H])[H])C3([H])[H])C([H])(C([H])([H])[H])C12[H])C([H])([H])Oc1c([H])c([H])c2c(c1[H])C([H])([H])N(C(=O)C([H])(N([H])C(=O)C([H])(N([H])C([H])([H])[H])C([H])([H])[H])C(C([H])([H])[H])(C([H])([H])[H])C([H])([H])[H])C([H])(C(=O)N([H])C1([H])c3c([H])c([H])c([H])c([H])c3C([H])([H])C([H])([H])C1([H])[H])C2([H])[H]

>  <smiles>  (53) 
[H]C(=C1C([H])([H])C([H])([H])C2([H])C([H])([H])C([H])(C(=O)N3C([H])([H])C([H])([H])C([H])([H])C([H])(n4nc(-c5c([H])c([H])c(Oc6c([H])c([H])c(F)c([H])c6F)c([H])c5[H])c(C(=O)N([H])[H])c4N([H])[H])C3([H])[H])C([H])(C([H])([H])[H])C12[H])C([H])([H])Oc1c([H])c([H])c2c(c1[H])C([H])([H])N(C(=O)C([H])(N([H])C(=O)C([H])(N([H])C([H])([H])[H])C([H])([H])[H])C(C([H])([H])[H])(C([H])([H])[H])C([H])([H])[H])C([H])(C(=O)N([H])C1([H])c3c([H])c([H])c([H])c([H])c3C([H])([H])C([H])([H])C1([H])[H])C2([H])[H]

$$$$
54:0:0
     RDKit          3D

 96105  0  0  1  0  0  0  0  0999 V2000
  -29.8350  -18.6530   19.6570 C   0  0  0  0  0  0  0  0  0  0  0  0
  -29.0160  -19.0820   18.4550 C   0  0  0  0  0  2  0  0  0  0  0  0
  -29.8670  -20.7590   21.1190 C   0  0  0  0  0  2  0  0  0  0  0  0
  -28.4150  -21.4990   19.1020 C   0  0  0  0  0  2  0  0  0  0  0  0
  -30.7500  -20.6810   18.7960 C   0  0  0  0  0  2  0  0  0  0  0  0
  -28.4510  -21.1740   20.6320 C   0  0  0  0  0  3  0  0  0  0  0  0
  -30.6590  -19.8810   20.1040 C   0  0  2  0  0  0  0  0  0  0  0  0
  -29.3250  -20.5780   18.2430 C   0  0  1  0  0  0  0  0  0  0  0  0
  -32.0800  -19.5970   20.6290 C   0  0  0  0  0  1  0  0  0  0  0  0
  -29.2500  -20.9740   16.7570 C   0  0  0  0  0  1  0  0  0  0  0  0
  -29.7500  -17.4560   20.1030 N   0  0  0  0  0  0  0  0  0  0  0  0
  -27.8300  -22.1870   21.5410 N   0  0  0  0  0  4  0  0  0  0  0  0
  -28.3890  -22.2740   22.3750 H   0  0  0  0  0  0  0  0  0  0  0  0
  -26.9510  -21.7960   21.8450 H   0  0  0  0  0  0  0  0  0  0  0  0
  -27.5310  -23.5480   21.0190 C   0  0  0  0  0  2  0  0  0  0  0  0
  -28.7930  -24.4200   20.8390 C   0  0  0  0  0  2  0  0  0  0  0  0
  -28.6810  -25.4890   19.7340 C   0  0  0  0  0  2  0  0  0  0  0  0
  -28.4850  -26.7840   20.2980 O   0  0  0  0  0  0  0  0  0  0  0  0
  -24.5940  -31.9090   23.2520 C   0  0  0  0  0  0  0  0  0  0  0  0
  -27.2650  -27.4220   20.2660 C   0  0  0  0  0  0  0  0  0  0  0  0
  -23.4010  -30.4810   21.6230 C   0  0  0  0  0  3  0  0  0  0  0  0
  -24.8610  -28.9120   20.2420 C   0  0  0  0  0  0  0  0  0  0  0  0
  -25.9270  -30.8330   21.4410 C   0  0  0  0  0  2  0  0  0  0  0  0
  -26.0120  -29.4520   20.8280 C   0  0  0  0  0  0  0  0  0  0  0  0
  -27.2120  -28.7120   20.8350 C   0  0  0  0  0  3  0  0  0  0  0  0
  -26.0890  -26.8810   19.6930 C   0  0  0  0  0  3  0  0  0  0  0  0
  -24.8940  -27.6260   19.6730 C   0  0  0  0  0  3  0  0  0  0  0  0
  -23.6200  -29.7730   20.2590 C   0  0  0  0  0  2  0  0  0  0  0  0
  -24.6590  -31.0910   22.1630 N   0  0  0  0  0  0  0  0  0  0  0  0
  -23.5070  -32.1940   23.7750 O   0  0  0  0  0  0  0  0  0  0  0  0
  -22.7410  -29.4760   22.5940 C   0  0  0  0  0  0  0  0  0  0  0  0
  -21.4170  -29.2970   22.4570 N   0  0  0  0  0  0  0  0  0  0  0  0
  -23.4160  -28.8600   23.4240 O   0  0  0  0  0  0  0  0  0  0  0  0
  -20.9360  -29.8440   21.7580 H   0  0  0  0  0  0  0  0  0  0  0  0
  -18.0310  -28.1350   22.9500 C   0  0  0  0  0  0  0  0  0  0  0  0
  -20.5880  -28.3740   23.2320 C   0  0  0  0  0  3  0  0  0  0  0  0
  -20.6830  -26.9370   22.6710 C   0  0  0  0  0  2  0  0  0  0  0  0
  -19.5810  -26.6120   21.6560 C   0  0  0  0  0  2  0  0  0  0  0  0
  -18.1960  -26.7760   22.2910 C   0  0  0  0  0  2  0  0  0  0  0  0
  -19.1530  -28.8930   23.3760 C   0  0  0  0  0  0  0  0  0  0  0  0
  -18.9430  -30.1650   23.9510 C   0  0  0  0  0  3  0  0  0  0  0  0
  -17.6430  -30.6790   24.1040 C   0  0  0  0  0  3  0  0  0  0  0  0
  -16.5330  -29.9190   23.6920 C   0  0  0  0  0  3  0  0  0  0  0  0
  -16.7280  -28.6490   23.1220 C   0  0  0  0  0  3  0  0  0  0  0  0
  -25.8760  -32.5450   23.8750 C   0  0  0  0  0  3  0  0  0  0  0  0
  -25.5630  -33.9450   24.1930 N   0  0  0  0  0  0  0  0  0  0  0  0
  -25.9030  -34.9920   23.4290 C   0  0  0  0  0  0  0  0  0  0  0  0
  -26.5880  -34.8800   22.4080 O   0  0  0  0  0  0  0  0  0  0  0  0
  -24.9600  -34.1050   24.9870 H   0  0  0  0  0  0  0  0  0  0  0  0
  -24.1850  -36.7840   23.0240 C   0  0  0  0  0  1  0  0  0  0  0  0
  -25.4060  -36.3830   23.8670 C   0  0  0  0  0  3  0  0  0  0  0  0
  -27.5230  -37.2670   24.7410 C   0  0  0  0  0  1  0  0  0  0  0  0
  -26.4430  -37.4340   23.7720 N   0  0  0  0  0  0  0  0  0  0  0  0
  -26.0360  -38.3550   23.9050 H   0  0  0  0  0  0  0  0  0  0  0  0
  -26.3900  -31.7820   25.1580 C   0  0  1  0  0  0  0  0  0  0  0  0
  -25.2920  -31.5450   26.2210 C   0  0  0  0  0  1  0  0  0  0  0  0
  -26.9850  -30.4060   24.7770 C   0  0  0  0  0  1  0  0  0  0  0  0
  -27.5340  -32.5870   25.8220 C   0  0  0  0  0  1  0  0  0  0  0  0
  -30.5340  -16.9530   21.2170 C   0  0  0  0  0  2  0  0  0  0  0  0
  -30.1490  -15.4810   21.5160 C   0  0  0  0  0  2  0  0  0  0  0  0
  -30.7240  -14.4180   20.5420 C   0  0  0  0  0  0  0  0  0  0  0  0
  -30.3890  -12.3500   19.2150 C   0  0  0  0  0  2  0  0  0  0  0  0
  -29.4290  -12.6260   18.0400 C   0  0  0  0  0  2  0  0  0  0  0  0
  -27.9560  -12.4900   18.4750 C   0  0  0  0  0  2  0  0  0  0  0  0
  -27.6510  -13.2670   19.7840 C   0  0  0  0  0  3  0  0  0  0  0  0
  -28.7120  -12.9360   20.8590 C   0  0  0  0  0  2  0  0  0  0  0  0
  -30.0330  -13.2690   20.3050 N   0  0  0  0  0  0  0  0  0  0  0  0
  -31.7970  -14.6550   19.9740 O   0  0  0  0  0  0  0  0  0  0  0  0
  -25.2440  -13.8750   20.4780 C   0  0  0  0  0  0  0  0  0  0  0  0
  -24.1770  -13.1010   20.8490 C   0  0  0  0  0  0  0  0  0  0  0  0
  -24.6410  -11.7500   20.8230 C   0  0  0  0  0  0  0  0  0  0  0  0
  -26.2940  -12.9950   20.2570 N   0  0  0  0  0  0  0  0  0  0  0  0
  -25.9320  -11.7130   20.5180 N   0  0  0  0  0  0  0  0  0  0  0  0
  -23.9160  -10.4880   21.0160 C   0  0  0  0  0  0  0  0  0  0  0  0
  -24.3470   -9.5220   21.9530 C   0  0  0  0  0  3  0  0  0  0  0  0
  -23.6210   -8.3250   22.1340 C   0  0  0  0  0  3  0  0  0  0  0  0
  -22.4500   -8.0850   21.3750 C   0  0  0  0  0  0  0  0  0  0  0  0
  -22.0390   -9.0370   20.4270 C   0  0  0  0  0  3  0  0  0  0  0  0
  -22.7660  -10.2260   20.2450 C   0  0  0  0  0  3  0  0  0  0  0  0
  -21.6960   -6.9400   21.4680 O   0  0  0  0  0  0  0  0  0  0  0  0
  -21.6420   -6.2030   22.6240 C   0  0  0  0  0  0  0  0  0  0  0  0
  -21.2080   -6.7630   23.8460 C   0  0  0  0  0  3  0  0  0  0  0  0
  -21.1040   -5.9520   24.9930 C   0  0  0  0  0  3  0  0  0  0  0  0
  -21.4230   -4.5820   24.9190 C   0  0  0  0  0  0  0  0  0  0  0  0
  -21.8500   -4.0230   23.7030 C   0  0  0  0  0  3  0  0  0  0  0  0
  -21.9580   -4.8300   22.5580 C   0  0  0  0  0  0  0  0  0  0  0  0
  -22.3500   -4.2820   21.3820 F   0  0  0  0  0  0  0  0  0  0  0  0
  -21.3140   -3.8010   26.0190 F   0  0  0  0  0  0  0  0  0  0  0  0
  -22.7780  -13.5750   21.1220 C   0  0  0  0  0  0  0  0  0  0  0  0
  -22.0510  -12.8770   21.9920 N   0  0  0  0  0  0  0  0  0  0  0  0
  -22.3360  -14.5980   20.6030 O   0  0  0  0  0  0  0  0  0  0  0  0
  -22.4180  -12.0490   22.4380 H   0  0  0  0  0  0  0  0  0  0  0  0
  -21.1130  -13.1750   22.2150 H   0  0  0  0  0  0  0  0  0  0  0  0
  -25.4060  -15.2460   20.2930 N   0  0  0  0  0  0  0  0  0  0  0  0
  -24.6450  -15.9060   20.4090 H   0  0  0  0  0  0  0  0  0  0  0  0
  -26.2670  -15.6870   19.9940 H   0  0  0  0  0  0  0  0  0  0  0  0
  1 11  2  0
  1  7  1  0
  2  1  1  0
  4  6  1  0
  5  7  1  0
  6  3  1  0
  6 12  1  0
  7  9  1  1
  7  3  1  0
  8 10  1  6
  8  2  1  0
  8  5  1  0
  8  4  1  0
 11 59  1  0
 12 14  1  0
 12 13  1  0
 15 12  1  0
 16 15  1  0
 17 18  1  0
 17 16  1  0
 19 30  2  0
 20 18  1  0
 20 25  1  0
 21 29  1  0
 21 31  1  0
 22 28  1  0
 22 24  1  0
 23 29  1  0
 24 25  2  0
 24 23  1  0
 26 20  2  0
 27 26  1  0
 27 22  2  0
 28 21  1  0
 29 19  1  0
 31 33  2  0
 32 31  1  0
 34 32  1  0
 35 44  2  0
 35 40  1  0
 36 32  1  0
 36 40  1  0
 37 36  1  0
 38 39  1  0
 38 37  1  0
 39 35  1  0
 40 41  2  0
 41 42  1  0
 43 42  2  0
 44 43  1  0
 45 19  1  0
 45 46  1  0
 45 55  1  0
 46 49  1  0
 47 51  1  0
 47 46  1  0
 48 47  2  0
 51 50  1  0
 53 51  1  0
 53 54  1  0
 53 52  1  0
 55 58  1  1
 55 56  1  0
 57 55  1  0
 59 60  1  0
 61 60  1  0
 62 67  1  0
 63 64  1  0
 63 62  1  0
 65 64  1  0
 65 72  1  0
 65 66  1  0
 67 61  1  0
 67 66  1  0
 68 61  2  0
 69 70  2  0
 70 89  1  0
 71 70  1  0
 71 74  1  0
 72 69  1  0
 72 73  1  0
 73 71  2  0
 74 75  1  0
 75 76  2  0
 77 80  1  0
 77 76  1  0
 78 77  2  0
 79 78  1  0
 79 74  2  0
 80 81  1  0
 81 82  1  0
 82 83  2  0
 84 83  1  0
 84 88  1  0
 85 84  2  0
 86 81  2  0
 86 85  1  0
 87 86  1  0
 89 90  1  0
 90 93  1  0
 90 92  1  0
 91 89  2  0
 94 95  1  0
 94 69  1  0
 96 94  1  0
M  ISO  4  17 101  18 101  60 100  61 100
M  END
>  <TORSDO>  (54) 
F 22

>  <SCORE>  (54) 
-13.700

>  <name>  (54) 
54

>  <ligand_id>  (54) 
54

>  <original_smiles>  (54) 
[H]c1c([H])c([H])c2c(c1[H])C([H])([H])C([H])([H])C([H])([H])C2([H])N([H])C(=O)C1([H])N(C(=O)C([H])(N([H])C(=O)C([H])(N([H])C([H])([H])[H])C([H])([H])[H])C(C([H])([H])[H])(C([H])([H])[H])C([H])([H])[H])C([H])([H])c2c([H])c(OC([H])([H])C([H])([H])C([H])([H])[N+]([H])([H])C3([H])C([H])([H])C4(C([H])([H])[H])C(=NC([H])([H])C([H])([H])C(=O)N5C([H])([H])C([H])([H])C([H])([H])C([H])(n6nc(-c7c([H])c([H])c(Oc8c([H])c([H])c(F)c([H])c8F)c([H])c7[H])c(C(=O)N([H])[H])c6N([H])[H])C5([H])[H])C([H])([H])C(C([H])([H])[H])(C4([H])[H])C3([H])[H])c([H])c([H])c2C1([H])[H]

>  <smiles>  (54) 
[H]c1c([H])c([H])c2c(c1[H])C([H])([H])C([H])([H])C([H])([H])C2([H])N([H])C(=O)C1([H])N(C(=O)C([H])(N([H])C(=O)C([H])(N([H])C([H])([H])[H])C([H])([H])[H])C(C([H])([H])[H])(C([H])([H])[H])C([H])([H])[H])C([H])([H])c2c([H])c(OC([H])([H])C([H])([H])C([H])([H])[N+]([H])([H])C3([H])C([H])([H])C4(C([H])([H])[H])C(=NC([H])([H])C([H])([H])C(=O)N5C([H])([H])C([H])([H])C([H])([H])C([H])(n6nc(-c7c([H])c([H])c(Oc8c([H])c([H])c(F)c([H])c8F)c([H])c7[H])c(C(=O)N([H])[H])c6N([H])[H])C5([H])[H])C([H])([H])C(C([H])([H])[H])(C4([H])[H])C3([H])[H])c([H])c([H])c2C1([H])[H]

$$$$
55:0:0
     RDKit          3D

 84 92  0  0  1  0  0  0  0  0999 V2000
  -28.8930  -21.9460   19.0630 C   0  0  0  0  0  2  0  0  0  0  0  0
  -28.7210  -21.0810   20.2900 C   0  0  0  0  0  3  0  0  0  0  0  0
  -28.9180  -22.8570   20.2680 C   0  0  0  0  0  3  0  0  0  0  0  0
  -29.6700  -19.5870   20.3180 C   0  0  0  0  0  2  0  0  0  0  0  0
  -29.3690  -16.5090   20.5230 C   0  0  0  0  0  3  0  0  0  0  0  0
  -29.1370  -17.9710   20.5380 C   0  0  0  0  0  3  0  0  0  0  0  0
  -30.3490  -15.2550   20.2670 C   0  0  0  0  0  0  0  0  0  0  0  0
  -30.3730  -12.8300   19.3470 C   0  0  0  0  0  2  0  0  0  0  0  0
  -29.4240  -12.6850   18.1260 C   0  0  0  0  0  2  0  0  0  0  0  0
  -27.9740  -12.4140   18.5720 C   0  0  0  0  0  2  0  0  0  0  0  0
  -27.5490  -13.3380   19.7390 C   0  0  0  0  0  3  0  0  0  0  0  0
  -28.6160  -13.3990   20.8520 C   0  0  0  0  0  2  0  0  0  0  0  0
  -29.8500  -13.9230   20.2400 N   0  0  0  0  0  0  0  0  0  0  0  0
  -31.5510  -15.3280   19.9690 O   0  0  0  0  0  0  0  0  0  0  0  0
  -25.1780  -13.8860   20.5140 C   0  0  0  0  0  0  0  0  0  0  0  0
  -24.1240  -13.1020   20.8930 C   0  0  0  0  0  0  0  0  0  0  0  0
  -24.5990  -11.7540   20.8510 C   0  0  0  0  0  0  0  0  0  0  0  0
  -26.2240  -13.0170   20.2550 N   0  0  0  0  0  0  0  0  0  0  0  0
  -25.8870  -11.7290   20.5250 N   0  0  0  0  0  0  0  0  0  0  0  0
  -23.8810  -10.4870   21.0430 C   0  0  0  0  0  0  0  0  0  0  0  0
  -24.3310   -9.5150   21.9620 C   0  0  0  0  0  3  0  0  0  0  0  0
  -23.6110   -8.3130   22.1430 C   0  0  0  0  0  3  0  0  0  0  0  0
  -22.4270   -8.0770   21.4060 C   0  0  0  0  0  0  0  0  0  0  0  0
  -21.9950   -9.0390   20.4760 C   0  0  0  0  0  3  0  0  0  0  0  0
  -22.7160  -10.2300   20.2920 C   0  0  0  0  0  3  0  0  0  0  0  0
  -21.6770   -6.9290   21.4970 O   0  0  0  0  0  0  0  0  0  0  0  0
  -21.6540   -6.1750   22.6430 C   0  0  0  0  0  0  0  0  0  0  0  0
  -21.2470   -6.7140   23.8820 C   0  0  0  0  0  3  0  0  0  0  0  0
  -21.1700   -5.8860   25.0210 C   0  0  0  0  0  3  0  0  0  0  0  0
  -21.4890   -4.5200   24.9200 C   0  0  0  0  0  0  0  0  0  0  0  0
  -21.8900   -3.9790   23.6860 C   0  0  0  0  0  3  0  0  0  0  0  0
  -21.9680   -4.8040   22.5490 C   0  0  0  0  0  0  0  0  0  0  0  0
  -22.3340   -4.2730   21.3580 F   0  0  0  0  0  0  0  0  0  0  0  0
  -21.4090   -3.7220   26.0110 F   0  0  0  0  0  0  0  0  0  0  0  0
  -22.7260  -13.5700   21.1760 C   0  0  0  0  0  0  0  0  0  0  0  0
  -22.0130  -12.8710   22.0530 N   0  0  0  0  0  0  0  0  0  0  0  0
  -22.2770  -14.5900   20.6570 O   0  0  0  0  0  0  0  0  0  0  0  0
  -22.3900  -12.0460   22.4950 H   0  0  0  0  0  0  0  0  0  0  0  0
  -21.0760  -13.1660   22.2850 H   0  0  0  0  0  0  0  0  0  0  0  0
  -25.3300  -15.2590   20.3410 N   0  0  0  0  0  0  0  0  0  0  0  0
  -24.5570  -15.9050   20.4620 H   0  0  0  0  0  0  0  0  0  0  0  0
  -26.1620  -15.7030   19.9770 H   0  0  0  0  0  0  0  0  0  0  0  0
  -27.9340  -24.3240   20.1690 C   0  0  0  0  0  2  0  0  0  0  0  0
  -28.2000  -25.9350   20.2600 O   0  0  0  0  0  0  0  0  0  0  0  0
  -24.6470  -31.8710   23.2280 C   0  0  0  0  0  0  0  0  0  0  0  0
  -27.1760  -27.0090   20.2080 C   0  0  0  0  0  0  0  0  0  0  0  0
  -23.4380  -30.4770   21.5990 C   0  0  0  0  0  3  0  0  0  0  0  0
  -24.8730  -28.8690   20.1730 C   0  0  0  0  0  0  0  0  0  0  0  0
  -26.0030  -30.6900   21.4340 C   0  0  0  0  0  2  0  0  0  0  0  0
  -26.0660  -29.2820   20.7810 C   0  0  0  0  0  0  0  0  0  0  0  0
  -27.2130  -28.3730   20.7730 C   0  0  0  0  0  3  0  0  0  0  0  0
  -25.9510  -26.7390   19.5570 C   0  0  0  0  0  3  0  0  0  0  0  0
  -24.8390  -27.6160   19.5410 C   0  0  0  0  0  3  0  0  0  0  0  0
  -23.6560  -29.7900   20.2240 C   0  0  0  0  0  2  0  0  0  0  0  0
  -24.7180  -31.0390   22.1410 N   0  0  0  0  0  0  0  0  0  0  0  0
  -23.5620  -32.1650   23.7560 O   0  0  0  0  0  0  0  0  0  0  0  0
  -22.7480  -29.4840   22.5710 C   0  0  0  0  0  0  0  0  0  0  0  0
  -21.4160  -29.3240   22.4530 N   0  0  0  0  0  0  0  0  0  0  0  0
  -23.4170  -28.8590   23.3970 O   0  0  0  0  0  0  0  0  0  0  0  0
  -20.9310  -29.8790   21.7630 H   0  0  0  0  0  0  0  0  0  0  0  0
  -18.0340  -28.1210   22.9740 C   0  0  0  0  0  0  0  0  0  0  0  0
  -20.5940  -28.3910   23.2320 C   0  0  0  0  0  3  0  0  0  0  0  0
  -20.6960  -26.9540   22.6660 C   0  0  0  0  0  2  0  0  0  0  0  0
  -19.5920  -26.6250   21.6550 C   0  0  0  0  0  2  0  0  0  0  0  0
  -18.2110  -26.7700   22.3020 C   0  0  0  0  0  2  0  0  0  0  0  0
  -19.1520  -28.8890   23.3960 C   0  0  0  0  0  0  0  0  0  0  0  0
  -18.9300  -30.1510   23.9880 C   0  0  0  0  0  3  0  0  0  0  0  0
  -17.6250  -30.6470   24.1600 C   0  0  0  0  0  3  0  0  0  0  0  0
  -16.5210  -29.8780   23.7510 C   0  0  0  0  0  3  0  0  0  0  0  0
  -16.7270  -28.6160   23.1650 C   0  0  0  0  0  3  0  0  0  0  0  0
  -25.9250  -32.5100   23.8520 C   0  0  0  0  0  3  0  0  0  0  0  0
  -26.4390  -31.7410   25.1320 C   0  0  1  0  0  0  0  0  0  0  0  0
  -25.3470  -31.5130   26.2030 C   0  0  0  0  0  1  0  0  0  0  0  0
  -27.0160  -30.3580   24.7510 C   0  0  0  0  0  1  0  0  0  0  0  0
  -27.5950  -32.5320   25.7890 C   0  0  0  0  0  1  0  0  0  0  0  0
  -25.6120  -33.9090   24.1920 N   0  0  0  0  0  0  0  0  0  0  0  0
  -25.9260  -34.9710   23.4390 C   0  0  0  0  0  0  0  0  0  0  0  0
  -26.5710  -34.8760   22.3910 O   0  0  0  0  0  0  0  0  0  0  0  0
  -25.0350  -34.0560   25.0070 H   0  0  0  0  0  0  0  0  0  0  0  0
  -24.1790  -36.7630   23.1570 C   0  0  0  0  0  1  0  0  0  0  0  0
  -25.4510  -36.3570   23.9190 C   0  0  0  0  0  3  0  0  0  0  0  0
  -27.6100  -37.2520   24.6770 C   0  0  0  0  0  1  0  0  0  0  0  0
  -26.4740  -37.4160   23.7720 N   0  0  0  0  0  0  0  0  0  0  0  0
  -26.0690  -38.3340   23.9350 H   0  0  0  0  0  0  0  0  0  0  0  0
  1  3  1  0
  1  2  1  0
  2  4  1  0
  3 43  1  0
  3  2  1  0
  4  6  1  0
  5  6  2  0
  7  5  1  0
  8 13  1  0
  9 10  1  0
  9  8  1  0
 11 10  1  0
 11 18  1  0
 11 12  1  0
 13  7  1  0
 13 12  1  0
 14  7  2  0
 15 16  2  0
 16 35  1  0
 17 16  1  0
 17 20  1  0
 18 15  1  0
 18 19  1  0
 19 17  2  0
 20 21  1  0
 21 22  2  0
 23 26  1  0
 23 22  1  0
 24 23  2  0
 25 24  1  0
 25 20  2  0
 26 27  1  0
 27 28  1  0
 28 29  2  0
 30 29  1  0
 30 34  1  0
 31 30  2  0
 32 27  2  0
 32 31  1  0
 33 32  1  0
 35 36  1  0
 36 39  1  0
 36 38  1  0
 37 35  2  0
 40 41  1  0
 40 15  1  0
 42 40  1  0
 43 44  1  0
 45 56  2  0
 46 44  1  0
 46 51  1  0
 47 55  1  0
 47 57  1  0
 48 54  1  0
 48 50  1  0
 49 55  1  0
 50 49  1  0
 51 50  2  0
 52 46  2  0
 53 52  1  0
 53 48  2  0
 54 47  1  0
 55 45  1  0
 57 59  2  0
 58 57  1  0
 60 58  1  0
 61 70  2  0
 61 66  1  0
 62 58  1  0
 62 66  1  0
 63 62  1  0
 64 65  1  0
 64 63  1  0
 65 61  1  0
 66 67  2  0
 67 68  1  0
 69 68  2  0
 70 69  1  0
 71 45  1  0
 71 76  1  0
 71 72  1  0
 72 75  1  1
 72 73  1  0
 74 72  1  0
 76 79  1  0
 77 81  1  0
 77 76  1  0
 78 77  2  0
 81 80  1  0
 83 81  1  0
 83 84  1  0
 83 82  1  0
M  ISO  4   5 100   7 100  43 101  44 101
M  END
>  <TORSDO>  (55) 
F 19

>  <SCORE>  (55) 
-15.451

>  <name>  (55) 
55

>  <ligand_id>  (55) 
55

>  <original_smiles>  (55) 
[H]C(C(=O)N1C([H])([H])C([H])([H])C([H])([H])C([H])(n2nc(-c3c([H])c([H])c(Oc4c([H])c([H])c(F)c([H])c4F)c([H])c3[H])c(C(=O)N([H])[H])c2N([H])[H])C1([H])[H])=C([H])C([H])([H])C1([H])C([H])([H])C1([H])C([H])([H])Oc1c([H])c([H])c2c(c1[H])C([H])([H])N(C(=O)C([H])(N([H])C(=O)C([H])(N([H])C([H])([H])[H])C([H])([H])[H])C(C([H])([H])[H])(C([H])([H])[H])C([H])([H])[H])C([H])(C(=O)N([H])C1([H])c3c([H])c([H])c([H])c([H])c3C([H])([H])C([H])([H])C1([H])[H])C2([H])[H]

>  <smiles>  (55) 
[H]C(C(=O)N1C([H])([H])C([H])([H])C([H])([H])C([H])(n2nc(-c3c([H])c([H])c(Oc4c([H])c([H])c(F)c([H])c4F)c([H])c3[H])c(C(=O)N([H])[H])c2N([H])[H])C1([H])[H])=C([H])C([H])([H])C1([H])C([H])([H])C1([H])C([H])([H])Oc1c([H])c([H])c2c(c1[H])C([H])([H])N(C(=O)C([H])(N([H])C(=O)C([H])(N([H])C([H])([H])[H])C([H])([H])[H])C(C([H])([H])[H])(C([H])([H])[H])C([H])([H])[H])C([H])(C(=O)N([H])C1([H])c3c([H])c([H])c([H])c([H])c3C([H])([H])C([H])([H])C1([H])[H])C2([H])[H]

$$$$
56:0:0
     RDKit          3D

 87 96  0  0  1  0  0  0  0  0999 V2000
  -29.1470  -21.8100   20.1640 C   0  0  0  0  0  0  0  0  0  0  0  0
  -28.8960  -23.2080   20.4550 C   0  0  0  0  0  3  0  0  0  0  0  0
  -30.0170  -20.7280   20.9190 C   0  0  0  0  0  2  0  0  0  0  0  0
  -28.8620  -20.6970   19.0760 C   0  0  0  0  0  2  0  0  0  0  0  0
  -29.0010  -17.1090   21.0530 C   0  0  0  0  0  2  0  0  0  0  0  0
  -28.4130  -18.5650   20.8030 C   0  0  0  0  0  2  0  0  0  0  0  0
  -30.3450  -18.1910   19.5260 C   0  0  0  0  0  2  0  0  0  0  0  0
  -29.7610  -16.6470   19.7910 C   0  0  0  0  0  3  0  0  0  0  0  0
  -29.4180  -19.4940   20.0520 C   0  0  2  0  0  0  0  0  0  0  0  0
  -30.5930  -15.1480   19.7760 C   0  0  0  0  0  0  0  0  0  0  0  0
  -30.4750  -12.7300   18.9340 C   0  0  0  0  0  2  0  0  0  0  0  0
  -29.4770  -12.6320   17.7530 C   0  0  0  0  0  2  0  0  0  0  0  0
  -28.0440  -12.4000   18.2650 C   0  0  0  0  0  2  0  0  0  0  0  0
  -27.6840  -13.3230   19.4580 C   0  0  0  0  0  3  0  0  0  0  0  0
  -28.8120  -13.4110   20.5060 C   0  0  0  0  0  2  0  0  0  0  0  0
  -30.0330  -13.8540   19.8170 N   0  0  0  0  0  0  0  0  0  0  0  0
  -31.7940  -15.1630   19.4780 O   0  0  0  0  0  0  0  0  0  0  0  0
  -25.3810  -13.8780   20.4080 C   0  0  0  0  0  0  0  0  0  0  0  0
  -24.3410  -13.1010   20.8330 C   0  0  0  0  0  0  0  0  0  0  0  0
  -24.7850  -11.7470   20.7150 C   0  0  0  0  0  0  0  0  0  0  0  0
  -26.3910  -13.0010   20.0530 N   0  0  0  0  0  0  0  0  0  0  0  0
  -26.0480  -11.7070   20.3010 N   0  0  0  0  0  0  0  0  0  0  0  0
  -24.0530  -10.4890   20.9090 C   0  0  0  0  0  0  0  0  0  0  0  0
  -24.4870   -9.5220   21.8380 C   0  0  0  0  0  3  0  0  0  0  0  0
  -23.7580   -8.3290   22.0240 C   0  0  0  0  0  3  0  0  0  0  0  0
  -22.5790   -8.0940   21.2770 C   0  0  0  0  0  0  0  0  0  0  0  0
  -22.1640   -9.0510   20.3340 C   0  0  0  0  0  3  0  0  0  0  0  0
  -22.8950  -10.2370   20.1460 C   0  0  0  0  0  3  0  0  0  0  0  0
  -21.8170   -6.9530   21.3710 O   0  0  0  0  0  0  0  0  0  0  0  0
  -21.6940   -6.2640   22.5510 C   0  0  0  0  0  0  0  0  0  0  0  0
  -21.1810   -6.8720   23.7160 C   0  0  0  0  0  3  0  0  0  0  0  0
  -21.0060   -6.1110   24.8880 C   0  0  0  0  0  3  0  0  0  0  0  0
  -21.3290   -4.7410   24.8960 C   0  0  0  0  0  0  0  0  0  0  0  0
  -21.8340   -4.1310   23.7340 C   0  0  0  0  0  3  0  0  0  0  0  0
  -22.0140   -4.8900   22.5640 C   0  0  0  0  0  0  0  0  0  0  0  0
  -22.4800   -4.2920   21.4400 F   0  0  0  0  0  0  0  0  0  0  0  0
  -21.1550   -4.0080   26.0200 F   0  0  0  0  0  0  0  0  0  0  0  0
  -22.9720  -13.5810   21.2280 C   0  0  0  0  0  0  0  0  0  0  0  0
  -22.3040  -12.8660   22.1230 N   0  0  0  0  0  0  0  0  0  0  0  0
  -22.5060  -14.6260   20.7770 O   0  0  0  0  0  0  0  0  0  0  0  0
  -22.6860  -12.0170   22.5120 H   0  0  0  0  0  0  0  0  0  0  0  0
  -21.3900  -13.1710   22.4290 H   0  0  0  0  0  0  0  0  0  0  0  0
  -25.5500  -15.2570   20.2640 N   0  0  0  0  0  0  0  0  0  0  0  0
  -24.8040  -15.9150   20.4500 H   0  0  0  0  0  0  0  0  0  0  0  0
  -26.3750  -15.7020   19.8800 H   0  0  0  0  0  0  0  0  0  0  0  0
  -28.0720  -24.5440   19.8640 C   0  0  0  0  0  2  0  0  0  0  0  0
  -28.2580  -26.0610   20.3150 O   0  0  0  0  0  0  0  0  0  0  0  0
  -24.6130  -31.8440   23.2560 C   0  0  0  0  0  0  0  0  0  0  0  0
  -27.2210  -27.0900   20.2240 C   0  0  0  0  0  0  0  0  0  0  0  0
  -23.4350  -30.4600   21.5940 C   0  0  0  0  0  3  0  0  0  0  0  0
  -24.9000  -28.8850   20.1780 C   0  0  0  0  0  0  0  0  0  0  0  0
  -25.9980  -30.7050   21.4710 C   0  0  0  0  0  2  0  0  0  0  0  0
  -26.0760  -29.3110   20.8090 C   0  0  0  0  0  0  0  0  0  0  0  0
  -27.2310  -28.4310   20.8140 C   0  0  0  0  0  3  0  0  0  0  0  0
  -26.0200  -26.7900   19.5410 C   0  0  0  0  0  3  0  0  0  0  0  0
  -24.8900  -27.6410   19.5300 C   0  0  0  0  0  3  0  0  0  0  0  0
  -23.6770  -29.7910   20.2170 C   0  0  0  0  0  2  0  0  0  0  0  0
  -24.7020  -31.0270   22.1610 N   0  0  0  0  0  0  0  0  0  0  0  0
  -23.5170  -32.1280   23.7680 O   0  0  0  0  0  0  0  0  0  0  0  0
  -22.7370  -29.4500   22.5400 C   0  0  0  0  0  0  0  0  0  0  0  0
  -21.4100  -29.2860   22.3990 N   0  0  0  0  0  0  0  0  0  0  0  0
  -23.3960  -28.8180   23.3700 O   0  0  0  0  0  0  0  0  0  0  0  0
  -20.9350  -29.8510   21.7080 H   0  0  0  0  0  0  0  0  0  0  0  0
  -18.0160  -28.1010   22.8680 C   0  0  0  0  0  0  0  0  0  0  0  0
  -20.5770  -28.3430   23.1520 C   0  0  0  0  0  3  0  0  0  0  0  0
  -20.6710  -26.9180   22.5600 C   0  0  0  0  0  2  0  0  0  0  0  0
  -19.5710  -26.6170   21.5350 C   0  0  0  0  0  2  0  0  0  0  0  0
  -18.1850  -26.7610   22.1720 C   0  0  0  0  0  2  0  0  0  0  0  0
  -19.1390  -28.8500   23.3140 C   0  0  0  0  0  0  0  0  0  0  0  0
  -18.9210  -30.1030   23.9270 C   0  0  0  0  0  3  0  0  0  0  0  0
  -17.6180  -30.6080   24.0940 C   0  0  0  0  0  3  0  0  0  0  0  0
  -16.5110  -29.8550   23.6640 C   0  0  0  0  0  3  0  0  0  0  0  0
  -16.7120  -28.6020   23.0570 C   0  0  0  0  0  3  0  0  0  0  0  0
  -25.8780  -32.4780   23.9110 C   0  0  0  0  0  3  0  0  0  0  0  0
  -25.5710  -33.8840   24.2200 N   0  0  0  0  0  0  0  0  0  0  0  0
  -25.9100  -34.9270   23.4510 C   0  0  0  0  0  0  0  0  0  0  0  0
  -26.5760  -34.8070   22.4200 O   0  0  0  0  0  0  0  0  0  0  0  0
  -24.9770  -34.0510   25.0200 H   0  0  0  0  0  0  0  0  0  0  0  0
  -24.1860  -36.7250   23.0870 C   0  0  0  0  0  1  0  0  0  0  0  0
  -25.4330  -36.3270   23.8920 C   0  0  0  0  0  3  0  0  0  0  0  0
  -27.5780  -37.2200   24.6890 C   0  0  0  0  0  1  0  0  0  0  0  0
  -26.4700  -37.3740   23.7510 N   0  0  0  0  0  0  0  0  0  0  0  0
  -26.0690  -38.2990   23.8820 H   0  0  0  0  0  0  0  0  0  0  0  0
  -26.3440  -31.7210   25.2160 C   0  0  1  0  0  0  0  0  0  0  0  0
  -25.2140  -31.5090   26.2530 C   0  0  0  0  0  1  0  0  0  0  0  0
  -26.9270  -30.3310   24.8680 C   0  0  0  0  0  1  0  0  0  0  0  0
  -27.4810  -32.5140   25.9010 C   0  0  0  0  0  1  0  0  0  0  0  0
  1  2  2  0
  1  3  1  0
  4  1  1  0
  6  5  1  0
  7  8  1  0
  9  7  1  6
  8 10  1  0
  8  5  1  0
  9  4  1  0
  9  6  1  0
  9  3  1  0
 10 16  1  0
 11 16  1  0
 12 13  1  0
 12 11  1  0
 14 13  1  0
 14 21  1  0
 14 15  1  0
 16 15  1  0
 17 10  2  0
 18 19  2  0
 19 38  1  0
 20 19  1  0
 20 23  1  0
 21 22  1  0
 21 18  1  0
 22 20  2  0
 23 24  1  0
 24 25  2  0
 26 29  1  0
 26 25  1  0
 27 26  2  0
 28 27  1  0
 28 23  2  0
 29 30  1  0
 30 35  2  0
 30 31  1  0
 31 32  2  0
 32 33  1  0
 33 37  1  0
 34 33  2  0
 35 34  1  0
 36 35  1  0
 38 39  1  0
 39 42  1  0
 39 41  1  0
 40 38  2  0
 43 18  1  0
 43 44  1  0
 45 43  1  0
 46 47  1  0
 46  2  1  0
 48 59  2  0
 49 47  1  0
 49 54  1  0
 50 58  1  0
 50 60  1  0
 51 57  1  0
 51 53  1  0
 52 58  1  0
 53 54  2  0
 53 52  1  0
 55 49  2  0
 56 55  1  0
 56 51  2  0
 57 50  1  0
 58 48  1  0
 60 62  2  0
 61 60  1  0
 63 61  1  0
 64 73  2  0
 64 69  1  0
 65 61  1  0
 65 69  1  0
 66 65  1  0
 67 68  1  0
 67 66  1  0
 68 64  1  0
 69 70  2  0
 70 71  1  0
 72 71  2  0
 73 72  1  0
 74 48  1  0
 74 75  1  0
 74 84  1  0
 75 78  1  0
 76 80  1  0
 76 75  1  0
 77 76  2  0
 80 79  1  0
 82 83  1  0
 82 80  1  0
 82 81  1  0
 84 87  1  1
 84 85  1  0
 86 84  1  0
M  ISO  4   8 100  10 100  46 101  47 101
M  END
>  <TORSDO>  (56) 
F 17

>  <SCORE>  (56) 
-14.912

>  <name>  (56) 
56

>  <ligand_id>  (56) 
56

>  <original_smiles>  (56) 
[H]C(=C1C([H])([H])C2(C1([H])[H])C([H])([H])C([H])([H])C([H])(C(=O)N1C([H])([H])C([H])([H])C([H])([H])C([H])(n3nc(-c4c([H])c([H])c(Oc5c([H])c([H])c(F)c([H])c5F)c([H])c4[H])c(C(=O)N([H])[H])c3N([H])[H])C1([H])[H])C2([H])[H])C([H])([H])Oc1c([H])c([H])c2c(c1[H])C([H])([H])N(C(=O)C([H])(N([H])C(=O)C([H])(N([H])C([H])([H])[H])C([H])([H])[H])C(C([H])([H])[H])(C([H])([H])[H])C([H])([H])[H])C([H])(C(=O)N([H])C1([H])c3c([H])c([H])c([H])c([H])c3C([H])([H])C([H])([H])C1([H])[H])C2([H])[H]

>  <smiles>  (56) 
[H]C(=C1C([H])([H])C2(C1([H])[H])C([H])([H])C([H])([H])C([H])(C(=O)N1C([H])([H])C([H])([H])C([H])([H])C([H])(n3nc(-c4c([H])c([H])c(Oc5c([H])c([H])c(F)c([H])c5F)c([H])c4[H])c(C(=O)N([H])[H])c3N([H])[H])C1([H])[H])C2([H])[H])C([H])([H])Oc1c([H])c([H])c2c(c1[H])C([H])([H])N(C(=O)C([H])(N([H])C(=O)C([H])(N([H])C([H])([H])[H])C([H])([H])[H])C(C([H])([H])[H])(C([H])([H])[H])C([H])([H])[H])C([H])(C(=O)N([H])C1([H])c3c([H])c([H])c([H])c([H])c3C([H])([H])C([H])([H])C1([H])[H])C2([H])[H]

$$$$
57:0:0
     RDKit          3D

 90 98  0  0  1  0  0  0  0  0999 V2000
  -29.6360  -21.4660   19.0300 C   0  0  0  0  0  3  0  0  0  0  0  0
  -26.4510  -20.0710   17.3240 C   0  0  0  0  0  2  0  0  0  0  0  0
  -25.8610  -20.8030   18.5380 C   0  0  0  0  0  2  0  0  0  0  0  0
  -27.9580  -20.0170   17.5750 C   0  0  0  0  0  2  0  0  0  0  0  0
  -27.0370  -21.4760   19.2640 C   0  0  0  0  0  2  0  0  0  0  0  0
  -28.2540  -21.3180   18.3330 C   0  0  0  0  0  3  0  0  0  0  0  0
  -29.9810  -20.0440   19.8020 N   0  0  0  0  0  4  0  0  0  0  0  0
  -30.7960  -20.2570   20.3550 H   0  0  0  0  0  0  0  0  0  0  0  0
  -29.2450  -19.9170   20.4740 H   0  0  0  0  0  0  0  0  0  0  0  0
  -30.3230  -18.5390   19.2030 C   0  0  0  0  0  3  0  0  0  0  0  0
  -30.2570  -16.9520   19.9950 C   0  0  0  0  0  3  0  0  0  0  0  0
  -30.9260  -15.3870   19.6470 C   0  0  0  0  0  0  0  0  0  0  0  0
  -30.8360  -12.8830   18.9980 C   0  0  0  0  0  2  0  0  0  0  0  0
  -29.8750  -12.6340   17.8070 C   0  0  0  0  0  2  0  0  0  0  0  0
  -28.4350  -12.4330   18.3080 C   0  0  0  0  0  2  0  0  0  0  0  0
  -28.0400  -13.4860   19.3730 C   0  0  0  0  0  3  0  0  0  0  0  0
  -29.1250  -13.6870   20.4540 C   0  0  0  0  0  2  0  0  0  0  0  0
  -30.3610  -14.0900   19.7660 N   0  0  0  0  0  0  0  0  0  0  0  0
  -32.0960  -15.3510   19.2400 O   0  0  0  0  0  0  0  0  0  0  0  0
  -25.7470  -14.1490   20.2770 C   0  0  0  0  0  0  0  0  0  0  0  0
  -24.6670  -13.4170   20.6840 C   0  0  0  0  0  0  0  0  0  0  0  0
  -25.0560  -12.0460   20.5880 C   0  0  0  0  0  0  0  0  0  0  0  0
  -26.7250  -13.2280   19.9460 N   0  0  0  0  0  0  0  0  0  0  0  0
  -26.3240  -11.9540   20.2000 N   0  0  0  0  0  0  0  0  0  0  0  0
  -24.2720  -10.8190   20.7830 C   0  0  0  0  0  0  0  0  0  0  0  0
  -24.6770   -9.8200   21.6960 C   0  0  0  0  0  3  0  0  0  0  0  0
  -23.8960   -8.6600   21.8820 C   0  0  0  0  0  3  0  0  0  0  0  0
  -22.6940   -8.4910   21.1550 C   0  0  0  0  0  0  0  0  0  0  0  0
  -22.3070   -9.4750   20.2300 C   0  0  0  0  0  3  0  0  0  0  0  0
  -23.0890  -10.6270   20.0430 C   0  0  0  0  0  3  0  0  0  0  0  0
  -21.8830   -7.3840   21.2520 O   0  0  0  0  0  0  0  0  0  0  0  0
  -21.7840   -6.6630   22.4150 C   0  0  0  0  0  0  0  0  0  0  0  0
  -21.3510   -7.2520   23.6220 C   0  0  0  0  0  3  0  0  0  0  0  0
  -21.1970   -6.4590   24.7770 C   0  0  0  0  0  3  0  0  0  0  0  0
  -21.4680   -5.0790   24.7250 C   0  0  0  0  0  0  0  0  0  0  0  0
  -21.8940   -4.4890   23.5220 C   0  0  0  0  0  3  0  0  0  0  0  0
  -22.0500   -5.2800   22.3700 C   0  0  0  0  0  0  0  0  0  0  0  0
  -22.4400   -4.7030   21.2070 F   0  0  0  0  0  0  0  0  0  0  0  0
  -21.3140   -4.3150   25.8320 F   0  0  0  0  0  0  0  0  0  0  0  0
  -23.3150  -13.9590   21.0490 C   0  0  0  0  0  0  0  0  0  0  0  0
  -22.6090  -13.2880   21.9520 N   0  0  0  0  0  0  0  0  0  0  0  0
  -22.8990  -15.0120   20.5670 O   0  0  0  0  0  0  0  0  0  0  0  0
  -22.9630  -12.4360   22.3610 H   0  0  0  0  0  0  0  0  0  0  0  0
  -21.7050  -13.6310   22.2390 H   0  0  0  0  0  0  0  0  0  0  0  0
  -25.9750  -15.5140   20.1320 N   0  0  0  0  0  0  0  0  0  0  0  0
  -25.2520  -16.2020   20.3050 H   0  0  0  0  0  0  0  0  0  0  0  0
  -26.8280  -15.9150   19.7630 H   0  0  0  0  0  0  0  0  0  0  0  0
  -29.6010  -23.1130   19.7140 C   0  0  0  0  0  3  0  0  0  0  0  0
  -28.7190  -24.5850   19.2280 C   0  0  0  0  0  3  0  0  0  0  0  0
  -28.8060  -26.1650   19.6220 O   0  0  0  0  0  0  0  0  0  0  0  0
  -24.6510  -31.4590   22.9570 C   0  0  0  0  0  0  0  0  0  0  0  0
  -27.6930  -27.1410   19.6150 C   0  0  0  0  0  0  0  0  0  0  0  0
  -23.6160  -30.1060   21.1800 C   0  0  0  0  0  3  0  0  0  0  0  0
  -25.2280  -28.7710   19.6630 C   0  0  0  0  0  0  0  0  0  0  0  0
  -26.1510  -30.5690   21.1120 C   0  0  0  0  0  2  0  0  0  0  0  0
  -26.3610  -29.2370   20.3430 C   0  0  0  0  0  0  0  0  0  0  0  0
  -27.5870  -28.4440   20.2960 C   0  0  0  0  0  3  0  0  0  0  0  0
  -26.5190  -26.8130   18.9000 C   0  0  0  0  0  3  0  0  0  0  0  0
  -25.3280  -27.5800   18.9250 C   0  0  0  0  0  3  0  0  0  0  0  0
  -23.9290  -29.5650   19.7570 C   0  0  0  0  0  2  0  0  0  0  0  0
  -24.8240  -30.7350   21.8060 N   0  0  0  0  0  0  0  0  0  0  0  0
  -23.5310  -31.6030   23.4750 O   0  0  0  0  0  0  0  0  0  0  0  0
  -23.0050  -28.9720   22.0400 C   0  0  0  0  0  0  0  0  0  0  0  0
  -21.6990  -28.6980   21.8670 N   0  0  0  0  0  0  0  0  0  0  0  0
  -23.7100  -28.3410   22.8330 O   0  0  0  0  0  0  0  0  0  0  0  0
  -21.1840  -29.2540   21.1990 H   0  0  0  0  0  0  0  0  0  0  0  0
  -18.4230  -27.1840   22.2290 C   0  0  0  0  0  0  0  0  0  0  0  0
  -20.9540  -27.6280   22.5380 C   0  0  0  0  0  3  0  0  0  0  0  0
  -21.1710  -26.2710   21.8310 C   0  0  0  0  0  2  0  0  0  0  0  0
  -20.0990  -25.9580   20.7800 C   0  0  0  0  0  2  0  0  0  0  0  0
  -18.7120  -25.9270   21.4250 C   0  0  0  0  0  2  0  0  0  0  0  0
  -19.4750  -27.9910   22.7390 C   0  0  0  0  0  0  0  0  0  0  0  0
  -19.1510  -29.1630   23.4550 C   0  0  0  0  0  3  0  0  0  0  0  0
  -17.8080  -29.5320   23.6640 C   0  0  0  0  0  3  0  0  0  0  0  0
  -16.7720  -28.7240   23.1670 C   0  0  0  0  0  3  0  0  0  0  0  0
  -17.0800  -27.5510   22.4560 C   0  0  0  0  0  3  0  0  0  0  0  0
  -25.8490  -32.1550   23.6720 C   0  0  0  0  0  3  0  0  0  0  0  0
  -25.4340  -33.5250   24.0200 N   0  0  0  0  0  0  0  0  0  0  0  0
  -25.7960  -34.6290   23.3520 C   0  0  0  0  0  0  0  0  0  0  0  0
  -26.5750  -34.6020   22.3960 O   0  0  0  0  0  0  0  0  0  0  0  0
  -24.7470  -33.6150   24.7540 H   0  0  0  0  0  0  0  0  0  0  0  0
  -24.0370  -36.3720   22.8940 C   0  0  0  0  0  1  0  0  0  0  0  0
  -25.2010  -35.9740   23.8160 C   0  0  0  0  0  3  0  0  0  0  0  0
  -27.1880  -36.9060   24.9170 C   0  0  0  0  0  1  0  0  0  0  0  0
  -26.1910  -37.0720   23.8630 N   0  0  0  0  0  0  0  0  0  0  0  0
  -25.7310  -37.9680   23.9990 H   0  0  0  0  0  0  0  0  0  0  0  0
  -26.3280  -31.3880   24.9660 C   0  0  1  0  0  0  0  0  0  0  0  0
  -25.1870  -31.0730   25.9630 C   0  0  0  0  0  1  0  0  0  0  0  0
  -27.0050  -30.0490   24.5960 C   0  0  0  0  0  1  0  0  0  0  0  0
  -27.3930  -32.2290   25.7080 C   0  0  0  0  0  1  0  0  0  0  0  0
  1 48  1  0
  1  7  1  0
  2  4  1  0
  2  3  1  0
  3  5  1  0
  4  6  1  0
  6  1  1  0
  6  5  1  0
  7  8  1  0
  7  9  1  0
 10  7  1  0
 10 11  2  0
 12 18  1  0
 12 11  1  0
 13 18  1  0
 14 15  1  0
 14 13  1  0
 16 15  1  0
 16 23  1  0
 16 17  1  0
 18 17  1  0
 19 12  2  0
 20 21  2  0
 21 40  1  0
 22 21  1  0
 22 25  1  0
 23 24  1  0
 23 20  1  0
 24 22  2  0
 25 26  1  0
 26 27  2  0
 28 31  1  0
 28 27  1  0
 29 28  2  0
 30 29  1  0
 30 25  2  0
 31 32  1  0
 32 33  1  0
 33 34  2  0
 35 34  1  0
 35 39  1  0
 36 35  2  0
 37 32  2  0
 37 36  1  0
 38 37  1  0
 40 41  1  0
 41 44  1  0
 41 43  1  0
 42 40  2  0
 45 20  1  0
 45 46  1  0
 47 45  1  0
 49 50  1  0
 49 48  2  0
 51 62  2  0
 52 50  1  0
 52 57  1  0
 53 61  1  0
 53 63  1  0
 54 60  1  0
 54 56  1  0
 55 61  1  0
 56 55  1  0
 57 56  2  0
 58 59  1  0
 58 52  2  0
 59 54  2  0
 60 53  1  0
 61 51  1  0
 63 65  2  0
 64 63  1  0
 66 64  1  0
 67 76  2  0
 67 72  1  0
 68 64  1  0
 68 72  1  0
 69 68  1  0
 70 71  1  0
 70 69  1  0
 71 67  1  0
 72 73  2  0
 73 74  1  0
 75 74  2  0
 76 75  1  0
 77 51  1  0
 77 78  1  0
 77 87  1  0
 78 81  1  0
 79 83  1  0
 79 78  1  0
 80 79  2  0
 83 82  1  0
 83 85  1  0
 85 86  1  0
 85 84  1  0
 87 90  1  1
 87 88  1  0
 89 87  1  0
M  ISO  4  11 100  12 100  49 101  50 101
M  END
>  <TORSDO>  (57) 
F 22

>  <SCORE>  (57) 
-13.169

>  <name>  (57) 
57

>  <ligand_id>  (57) 
57

>  <original_smiles>  (57) 
[H]c1c([H])c([H])c2c(c1[H])C([H])([H])C([H])([H])C([H])([H])C2([H])N([H])C(=O)C1([H])N(C(=O)C([H])(N([H])C(=O)C([H])(N([H])C([H])([H])[H])C([H])([H])[H])C(C([H])([H])[H])(C([H])([H])[H])C([H])([H])[H])C([H])([H])c2c([H])c(OC([H])([H])C([H])([H])C([H])(C3([H])C([H])([H])C([H])([H])C([H])([H])C3([H])[H])[N+]([H])([H])C([H])([H])C([H])([H])C(=O)N3C([H])([H])C([H])([H])C([H])([H])C([H])(n4nc(-c5c([H])c([H])c(Oc6c([H])c([H])c(F)c([H])c6F)c([H])c5[H])c(C(=O)N([H])[H])c4N([H])[H])C3([H])[H])c([H])c([H])c2C1([H])[H]

>  <smiles>  (57) 
[H]c1c([H])c([H])c2c(c1[H])C([H])([H])C([H])([H])C([H])([H])C2([H])N([H])C(=O)C1([H])N(C(=O)C([H])(N([H])C(=O)C([H])(N([H])C([H])([H])[H])C([H])([H])[H])C(C([H])([H])[H])(C([H])([H])[H])C([H])([H])[H])C([H])([H])c2c([H])c(OC([H])([H])C([H])([H])C([H])(C3([H])C([H])([H])C([H])([H])C([H])([H])C3([H])[H])[N+]([H])([H])C([H])([H])C([H])([H])C(=O)N3C([H])([H])C([H])([H])C([H])([H])C([H])(n4nc(-c5c([H])c([H])c(Oc6c([H])c([H])c(F)c([H])c6F)c([H])c5[H])c(C(=O)N([H])[H])c4N([H])[H])C3([H])[H])c([H])c([H])c2C1([H])[H]

$$$$
58:0:0
     RDKit          3D

 91100  0  0  1  0  0  0  0  0999 V2000
  -29.5810  -19.7160   20.9960 C   0  0  0  0  0  0  0  0  0  0  0  0
  -29.5230  -20.7270   22.1580 C   0  0  0  0  0  2  0  0  0  0  0  0
  -29.2490  -20.4060   19.6480 C   0  0  0  0  0  2  0  0  0  0  0  0
  -31.4410  -22.1720   21.2160 C   0  0  0  0  0  2  0  0  0  0  0  0
  -31.2260  -22.0140   19.6970 C   0  0  0  0  0  2  0  0  0  0  0  0
  -30.0070  -22.1710   21.7990 C   0  0  0  0  0  3  0  0  0  0  0  0
  -29.6880  -21.9340   19.5560 C   0  0  0  0  0  3  0  0  0  0  0  0
  -29.8740  -18.4730   21.2460 N   0  0  0  0  0  0  0  0  0  0  0  0
  -29.1790  -22.7530   20.7080 N   0  0  2  0  0  4  0  0  0  0  0  0
  -28.2080  -22.5490   20.8900 H   0  0  0  0  0  0  0  0  0  0  0  0
  -30.0160  -17.3520   20.2750 C   0  0  0  0  0  2  0  0  0  0  0  0
  -30.0090  -15.9420   21.0190 C   0  0  0  0  0  2  0  0  0  0  0  0
  -30.6850  -14.6880   20.3360 C   0  0  0  0  0  0  0  0  0  0  0  0
  -30.4430  -12.4810   19.2020 C   0  0  0  0  0  2  0  0  0  0  0  0
  -29.4880  -12.6510   17.9990 C   0  0  0  0  0  2  0  0  0  0  0  0
  -28.0160  -12.5110   18.4290 C   0  0  0  0  0  2  0  0  0  0  0  0
  -27.6780  -13.3340   19.7000 C   0  0  0  0  0  3  0  0  0  0  0  0
  -28.7470  -13.1220   20.7980 C   0  0  0  0  0  2  0  0  0  0  0  0
  -30.0510  -13.4760   20.2220 N   0  0  0  0  0  0  0  0  0  0  0  0
  -31.8090  -14.8450   19.8520 O   0  0  0  0  0  0  0  0  0  0  0  0
  -25.2730  -13.9200   20.4000 C   0  0  0  0  0  0  0  0  0  0  0  0
  -24.2130  -13.1420   20.7740 C   0  0  0  0  0  0  0  0  0  0  0  0
  -24.6840  -11.7940   20.7610 C   0  0  0  0  0  0  0  0  0  0  0  0
  -26.3280  -13.0470   20.1830 N   0  0  0  0  0  0  0  0  0  0  0  0
  -25.9770  -11.7630   20.4560 N   0  0  0  0  0  0  0  0  0  0  0  0
  -23.9670  -10.5300   20.9660 C   0  0  0  0  0  0  0  0  0  0  0  0
  -24.4070   -9.5730   21.9080 C   0  0  0  0  0  3  0  0  0  0  0  0
  -23.6860   -8.3750   22.1000 C   0  0  0  0  0  3  0  0  0  0  0  0
  -22.5130   -8.1230   21.3490 C   0  0  0  0  0  0  0  0  0  0  0  0
  -22.0940   -9.0660   20.3920 C   0  0  0  0  0  3  0  0  0  0  0  0
  -22.8150  -10.2580   20.2010 C   0  0  0  0  0  3  0  0  0  0  0  0
  -21.7610   -6.9770   21.4480 O   0  0  0  0  0  0  0  0  0  0  0  0
  -21.7210   -6.2450   22.6070 C   0  0  0  0  0  0  0  0  0  0  0  0
  -21.3030   -6.8090   23.8320 C   0  0  0  0  0  3  0  0  0  0  0  0
  -21.2110   -6.0030   24.9850 C   0  0  0  0  0  3  0  0  0  0  0  0
  -21.5290   -4.6330   24.9120 C   0  0  0  0  0  0  0  0  0  0  0  0
  -21.9440   -4.0670   23.6930 C   0  0  0  0  0  3  0  0  0  0  0  0
  -22.0360   -4.8710   22.5440 C   0  0  0  0  0  0  0  0  0  0  0  0
  -22.4170   -4.3180   21.3670 F   0  0  0  0  0  0  0  0  0  0  0  0
  -21.4310   -3.8570   26.0140 F   0  0  0  0  0  0  0  0  0  0  0  0
  -22.8100  -13.6110   21.0370 C   0  0  0  0  0  0  0  0  0  0  0  0
  -22.0850  -12.9180   21.9070 N   0  0  0  0  0  0  0  0  0  0  0  0
  -22.3650  -14.6270   20.5040 O   0  0  0  0  0  0  0  0  0  0  0  0
  -22.4600  -12.0960   22.3580 H   0  0  0  0  0  0  0  0  0  0  0  0
  -21.1440  -13.2100   22.1230 H   0  0  0  0  0  0  0  0  0  0  0  0
  -25.4300  -15.2910   20.2060 N   0  0  0  0  0  0  0  0  0  0  0  0
  -24.6590  -15.9430   20.3020 H   0  0  0  0  0  0  0  0  0  0  0  0
  -26.2790  -15.7300   19.8760 H   0  0  0  0  0  0  0  0  0  0  0  0
  -29.3360  -24.2750   20.6260 C   0  0  0  0  0  2  0  0  0  0  0  0
  -28.1530  -25.1310   20.0470 C   0  0  0  0  0  2  0  0  0  0  0  0
  -28.3300  -26.5840   20.1950 O   0  0  0  0  0  0  0  0  0  0  0  0
  -24.5990  -31.9270   23.2320 C   0  0  0  0  0  0  0  0  0  0  0  0
  -27.1950  -27.3970   20.1530 C   0  0  0  0  0  0  0  0  0  0  0  0
  -23.3850  -30.5280   21.5970 C   0  0  0  0  0  3  0  0  0  0  0  0
  -24.8250  -28.9820   20.1610 C   0  0  0  0  0  0  0  0  0  0  0  0
  -25.9200  -30.8570   21.3920 C   0  0  0  0  0  2  0  0  0  0  0  0
  -25.9950  -29.4790   20.7490 C   0  0  0  0  0  0  0  0  0  0  0  0
  -27.1840  -28.6970   20.7350 C   0  0  0  0  0  3  0  0  0  0  0  0
  -26.0010  -26.9460   19.5410 C   0  0  0  0  0  3  0  0  0  0  0  0
  -24.8280  -27.7200   19.5490 C   0  0  0  0  0  3  0  0  0  0  0  0
  -23.5880  -29.8530   20.2150 C   0  0  0  0  0  2  0  0  0  0  0  0
  -24.6540  -31.1220   22.1300 N   0  0  0  0  0  0  0  0  0  0  0  0
  -23.5190  -32.2030   23.7720 O   0  0  0  0  0  0  0  0  0  0  0  0
  -22.7300  -29.5090   22.5620 C   0  0  0  0  0  0  0  0  0  0  0  0
  -21.4020  -29.3370   22.4480 N   0  0  0  0  0  0  0  0  0  0  0  0
  -23.4150  -28.8790   23.3710 O   0  0  0  0  0  0  0  0  0  0  0  0
  -20.9050  -29.9140   21.7840 H   0  0  0  0  0  0  0  0  0  0  0  0
  -18.0260  -28.1430   22.9610 C   0  0  0  0  0  0  0  0  0  0  0  0
  -20.5850  -28.3970   23.2180 C   0  0  0  0  0  3  0  0  0  0  0  0
  -20.6760  -26.9650   22.6380 C   0  0  0  0  0  2  0  0  0  0  0  0
  -19.5680  -26.6450   21.6290 C   0  0  0  0  0  2  0  0  0  0  0  0
  -18.1910  -26.7940   22.2820 C   0  0  0  0  0  2  0  0  0  0  0  0
  -19.1480  -28.9030   23.3870 C   0  0  0  0  0  0  0  0  0  0  0  0
  -18.9340  -30.1650   23.9800 C   0  0  0  0  0  3  0  0  0  0  0  0
  -17.6310  -30.6740   24.1430 C   0  0  0  0  0  3  0  0  0  0  0  0
  -16.5230  -29.9110   23.7350 C   0  0  0  0  0  3  0  0  0  0  0  0
  -16.7220  -28.6440   23.1560 C   0  0  0  0  0  3  0  0  0  0  0  0
  -25.8850  -32.5570   23.8510 C   0  0  0  0  0  3  0  0  0  0  0  0
  -26.4060  -31.7840   25.1240 C   0  0  1  0  0  0  0  0  0  0  0  0
  -25.3200  -31.5420   26.1990 C   0  0  0  0  0  1  0  0  0  0  0  0
  -26.9870  -30.4070   24.7240 C   0  0  0  0  0  1  0  0  0  0  0  0
  -27.5570  -32.5780   25.7870 C   0  0  0  0  0  1  0  0  0  0  0  0
  -25.5810  -33.9550   24.1850 N   0  0  0  0  0  0  0  0  0  0  0  0
  -25.9100  -35.0080   23.4250 C   0  0  0  0  0  0  0  0  0  0  0  0
  -26.5720  -34.9040   22.3880 O   0  0  0  0  0  0  0  0  0  0  0  0
  -24.9920  -34.1100   24.9890 H   0  0  0  0  0  0  0  0  0  0  0  0
  -24.1820  -36.8050   23.0820 C   0  0  0  0  0  1  0  0  0  0  0  0
  -25.4270  -36.3960   23.8880 C   0  0  0  0  0  3  0  0  0  0  0  0
  -27.5680  -37.2770   24.7080 C   0  0  0  0  0  1  0  0  0  0  0  0
  -26.4600  -37.4470   23.7720 N   0  0  0  0  0  0  0  0  0  0  0  0
  -26.0550  -38.3680   23.9180 H   0  0  0  0  0  0  0  0  0  0  0  0
  1  8  2  0
  1  2  1  0
  3  1  1  0
  5  4  1  0
  6  4  1  0
  6  2  1  0
  7  3  1  0
  7  5  1  0
  7  9  1  0
  9 10  1  1
  9  6  1  0
 11 12  1  0
 11  8  1  0
 13 12  1  0
 14 19  1  0
 15 16  1  0
 15 14  1  0
 17 16  1  0
 17 24  1  0
 17 18  1  0
 19 13  1  0
 19 18  1  0
 20 13  2  0
 21 22  2  0
 22 41  1  0
 23 22  1  0
 23 26  1  0
 24 21  1  0
 24 25  1  0
 25 23  2  0
 26 27  1  0
 27 28  2  0
 29 32  1  0
 29 28  1  0
 30 29  2  0
 31 30  1  0
 31 26  2  0
 32 33  1  0
 33 34  1  0
 34 35  2  0
 36 35  1  0
 36 40  1  0
 37 36  2  0
 38 33  2  0
 38 37  1  0
 39 38  1  0
 41 42  1  0
 42 45  1  0
 42 44  1  0
 43 41  2  0
 46 47  1  0
 46 21  1  0
 48 46  1  0
 49  9  1  0
 50 51  1  0
 50 49  1  0
 52 63  2  0
 53 51  1  0
 53 58  1  0
 54 62  1  0
 54 64  1  0
 55 61  1  0
 55 57  1  0
 56 62  1  0
 57 56  1  0
 58 57  2  0
 59 60  1  0
 59 53  2  0
 60 55  2  0
 61 54  1  0
 62 52  1  0
 64 66  2  0
 65 64  1  0
 67 65  1  0
 68 77  2  0
 68 73  1  0
 69 65  1  0
 69 73  1  0
 70 69  1  0
 71 72  1  0
 71 70  1  0
 72 68  1  0
 73 74  2  0
 74 75  1  0
 76 75  2  0
 77 76  1  0
 78 52  1  0
 78 83  1  0
 78 79  1  0
 79 82  1  1
 79 80  1  0
 81 79  1  0
 83 86  1  0
 84 88  1  0
 84 83  1  0
 85 84  2  0
 88 87  1  0
 90 88  1  0
 90 91  1  0
 90 89  1  0
M  ISO  4  12 100  13 100  50 101  51 101
M  END
>  <TORSDO>  (58) 
F 20

>  <SCORE>  (58) 
-13.489

>  <name>  (58) 
58

>  <ligand_id>  (58) 
58

>  <original_smiles>  (58) 
[H]c1c([H])c([H])c2c(c1[H])C([H])([H])C([H])([H])C([H])([H])C2([H])N([H])C(=O)C1([H])N(C(=O)C([H])(N([H])C(=O)C([H])(N([H])C([H])([H])[H])C([H])([H])[H])C(C([H])([H])[H])(C([H])([H])[H])C([H])([H])[H])C([H])([H])c2c([H])c(OC([H])([H])C([H])([H])[N+]3([H])C4([H])C([H])([H])C(=NC([H])([H])C([H])([H])C(=O)N5C([H])([H])C([H])([H])C([H])([H])C([H])(n6nc(-c7c([H])c([H])c(Oc8c([H])c([H])c(F)c([H])c8F)c([H])c7[H])c(C(=O)N([H])[H])c6N([H])[H])C5([H])[H])C([H])([H])C3([H])C([H])([H])C4([H])[H])c([H])c([H])c2C1([H])[H]

>  <smiles>  (58) 
[H]c1c([H])c([H])c2c(c1[H])C([H])([H])C([H])([H])C([H])([H])C2([H])N([H])C(=O)C1([H])N(C(=O)C([H])(N([H])C(=O)C([H])(N([H])C([H])([H])[H])C([H])([H])[H])C(C([H])([H])[H])(C([H])([H])[H])C([H])([H])[H])C([H])([H])c2c([H])c(OC([H])([H])C([H])([H])[N+]3([H])C4([H])C([H])([H])C(=NC([H])([H])C([H])([H])C(=O)N5C([H])([H])C([H])([H])C([H])([H])C([H])(n6nc(-c7c([H])c([H])c(Oc8c([H])c([H])c(F)c([H])c8F)c([H])c7[H])c(C(=O)N([H])[H])c6N([H])[H])C5([H])[H])C([H])([H])C3([H])C([H])([H])C4([H])[H])c([H])c([H])c2C1([H])[H]

$$$$
59:0:0
     RDKit          3D

 88 97  0  0  1  0  0  0  0  0999 V2000
  -29.9910  -20.1290   21.4410 C   0  0  0  0  0  2  0  0  0  0  0  0
  -30.0260  -20.6660   18.5860 C   0  0  0  0  0  2  0  0  0  0  0  0
  -30.2320  -21.6260   20.7790 C   0  0  0  0  0  3  0  0  0  0  0  0
  -28.7840  -20.5920   19.5220 C   0  0  0  0  0  3  0  0  0  0  0  0
  -29.2310  -19.1400   20.4430 C   0  0  0  0  0  3  0  0  0  0  0  0
  -28.9150  -22.2790   20.1170 C   0  0  0  0  0  3  0  0  0  0  0  0
  -31.1060  -21.3230   19.5010 C   0  0  1  0  0  0  0  0  0  0  0  0
  -32.3010  -20.3600   19.7270 C   0  0  0  0  0  1  0  0  0  0  0  0
  -31.7460  -22.6040   18.8970 C   0  0  0  0  0  1  0  0  0  0  0  0
  -29.2990  -17.2140   20.2560 C   0  0  0  0  0  2  0  0  0  0  0  0
  -30.2580  -15.6380   20.1620 C   0  0  0  0  0  0  0  0  0  0  0  0
  -30.3850  -13.1060   19.3450 C   0  0  0  0  0  2  0  0  0  0  0  0
  -29.4590  -12.7860   18.1370 C   0  0  0  0  0  2  0  0  0  0  0  0
  -28.0320  -12.4460   18.6010 C   0  0  0  0  0  2  0  0  0  0  0  0
  -27.5570  -13.4140   19.7090 C   0  0  0  0  0  3  0  0  0  0  0  0
  -28.6150  -13.6570   20.8050 C   0  0  0  0  0  2  0  0  0  0  0  0
  -29.8010  -14.2560   20.1580 N   0  0  0  0  0  0  0  0  0  0  0  0
  -31.4800  -15.6430   19.9230 O   0  0  0  0  0  0  0  0  0  0  0  0
  -25.2120  -13.9250   20.5490 C   0  0  0  0  0  0  0  0  0  0  0  0
  -24.1660  -13.1350   20.9310 C   0  0  0  0  0  0  0  0  0  0  0  0
  -24.6410  -11.7890   20.8640 C   0  0  0  0  0  0  0  0  0  0  0  0
  -26.2520  -13.0630   20.2550 N   0  0  0  0  0  0  0  0  0  0  0  0
  -25.9240  -11.7690   20.5120 N   0  0  0  0  0  0  0  0  0  0  0  0
  -23.9230  -10.5200   21.0530 C   0  0  0  0  0  0  0  0  0  0  0  0
  -24.3770   -9.5400   21.9650 C   0  0  0  0  0  3  0  0  0  0  0  0
  -23.6570   -8.3400   22.1460 C   0  0  0  0  0  3  0  0  0  0  0  0
  -22.4690   -8.1080   21.4140 C   0  0  0  0  0  0  0  0  0  0  0  0
  -22.0340   -9.0750   20.4890 C   0  0  0  0  0  3  0  0  0  0  0  0
  -22.7540  -10.2670   20.3080 C   0  0  0  0  0  3  0  0  0  0  0  0
  -21.7190   -6.9610   21.5030 O   0  0  0  0  0  0  0  0  0  0  0  0
  -21.6870   -6.2070   22.6490 C   0  0  0  0  0  0  0  0  0  0  0  0
  -21.2580   -6.7460   23.8820 C   0  0  0  0  0  3  0  0  0  0  0  0
  -21.1770   -5.9190   25.0200 C   0  0  0  0  0  3  0  0  0  0  0  0
  -21.5120   -4.5560   24.9270 C   0  0  0  0  0  0  0  0  0  0  0  0
  -21.9320   -4.0160   23.6990 C   0  0  0  0  0  3  0  0  0  0  0  0
  -22.0160   -4.8400   22.5630 C   0  0  0  0  0  0  0  0  0  0  0  0
  -22.4030   -4.3110   21.3760 F   0  0  0  0  0  0  0  0  0  0  0  0
  -21.4260   -3.7590   26.0180 F   0  0  0  0  0  0  0  0  0  0  0  0
  -22.7720  -13.6000   21.2430 C   0  0  0  0  0  0  0  0  0  0  0  0
  -22.0710  -12.8890   22.1170 N   0  0  0  0  0  0  0  0  0  0  0  0
  -22.3170  -14.6290   20.7450 O   0  0  0  0  0  0  0  0  0  0  0  0
  -22.4550  -12.0610   22.5470 H   0  0  0  0  0  0  0  0  0  0  0  0
  -21.1350  -13.1810   22.3640 H   0  0  0  0  0  0  0  0  0  0  0  0
  -25.3640  -15.3010   20.3940 N   0  0  0  0  0  0  0  0  0  0  0  0
  -24.6020  -15.9540   20.5430 H   0  0  0  0  0  0  0  0  0  0  0  0
  -26.2060  -15.7490   20.0570 H   0  0  0  0  0  0  0  0  0  0  0  0
  -27.9940  -23.9460   20.3890 C   0  0  0  0  0  2  0  0  0  0  0  0
  -28.1870  -25.6750   20.3170 O   0  0  0  0  0  0  0  0  0  0  0  0
  -24.6370  -31.9090   23.2140 C   0  0  0  0  0  0  0  0  0  0  0  0
  -27.1900  -26.8500   20.2790 C   0  0  0  0  0  0  0  0  0  0  0  0
  -23.4540  -30.4940   21.5880 C   0  0  0  0  0  3  0  0  0  0  0  0
  -24.9080  -28.8410   20.1970 C   0  0  0  0  0  0  0  0  0  0  0  0
  -26.0310  -30.6540   21.4650 C   0  0  0  0  0  2  0  0  0  0  0  0
  -26.1010  -29.2200   20.8230 C   0  0  0  0  0  0  0  0  0  0  0  0
  -27.2310  -28.2530   20.8290 C   0  0  0  0  0  3  0  0  0  0  0  0
  -25.9600  -26.6650   19.6000 C   0  0  0  0  0  3  0  0  0  0  0  0
  -24.8720  -27.5870   19.5620 C   0  0  0  0  0  3  0  0  0  0  0  0
  -23.6960  -29.7830   20.2250 C   0  0  0  0  0  2  0  0  0  0  0  0
  -24.7310  -31.0500   22.1420 N   0  0  0  0  0  0  0  0  0  0  0  0
  -23.5430  -32.2110   23.7200 O   0  0  0  0  0  0  0  0  0  0  0  0
  -22.7400  -29.5220   22.5660 C   0  0  0  0  0  0  0  0  0  0  0  0
  -21.4130  -29.3490   22.4260 N   0  0  0  0  0  0  0  0  0  0  0  0
  -23.3930  -28.9210   23.4230 O   0  0  0  0  0  0  0  0  0  0  0  0
  -20.9360  -29.8860   21.7140 H   0  0  0  0  0  0  0  0  0  0  0  0
  -18.0310  -28.1130   22.9180 C   0  0  0  0  0  0  0  0  0  0  0  0
  -20.5860  -28.4180   23.2030 C   0  0  0  0  0  3  0  0  0  0  0  0
  -20.7090  -26.9770   22.6580 C   0  0  0  0  0  2  0  0  0  0  0  0
  -19.6240  -26.6220   21.6370 C   0  0  0  0  0  2  0  0  0  0  0  0
  -18.2330  -26.7570   22.2610 C   0  0  0  0  0  2  0  0  0  0  0  0
  -19.1350  -28.9000   23.3450 C   0  0  0  0  0  0  0  0  0  0  0  0
  -18.8890  -30.1630   23.9240 C   0  0  0  0  0  3  0  0  0  0  0  0
  -17.5750  -30.6430   24.0760 C   0  0  0  0  0  3  0  0  0  0  0  0
  -16.4850  -29.8550   23.6620 C   0  0  0  0  0  3  0  0  0  0  0  0
  -16.7150  -28.5920   23.0890 C   0  0  0  0  0  3  0  0  0  0  0  0
  -25.9000  -32.5650   23.8500 C   0  0  0  0  0  3  0  0  0  0  0  0
  -25.5740  -33.9670   24.1760 N   0  0  0  0  0  0  0  0  0  0  0  0
  -25.8980  -35.0290   23.4260 C   0  0  0  0  0  0  0  0  0  0  0  0
  -26.5600  -34.9320   22.3900 O   0  0  0  0  0  0  0  0  0  0  0  0
  -24.9820  -34.1150   24.9800 H   0  0  0  0  0  0  0  0  0  0  0  0
  -24.1580  -36.8250   23.1080 C   0  0  0  0  0  1  0  0  0  0  0  0
  -25.4140  -36.4190   23.8950 C   0  0  0  0  0  3  0  0  0  0  0  0
  -27.5550  -37.3200   24.6950 C   0  0  0  0  0  1  0  0  0  0  0  0
  -26.4400  -37.4770   23.7650 N   0  0  0  0  0  0  0  0  0  0  0  0
  -26.0320  -38.3970   23.9120 H   0  0  0  0  0  0  0  0  0  0  0  0
  -26.3970  -31.8160   25.1500 C   0  0  1  0  0  0  0  0  0  0  0  0
  -25.2890  -31.5970   26.2080 C   0  0  0  0  0  1  0  0  0  0  0  0
  -26.9850  -30.4300   24.8010 C   0  0  0  0  0  1  0  0  0  0  0  0
  -27.5380  -32.6210   25.8150 C   0  0  0  0  0  1  0  0  0  0  0  0
  2  7  1  0
  3  1  1  0
  4  2  1  0
  4  6  1  0
  4  5  1  0
  5 10  1  0
  5  1  1  0
  6 47  1  0
  6  3  1  0
  7  8  1  1
  7  3  1  0
  9  7  1  0
 11 10  1  0
 12 17  1  0
 13 14  1  0
 13 12  1  0
 15 14  1  0
 15 22  1  0
 15 16  1  0
 17 11  1  0
 17 16  1  0
 18 11  2  0
 19 20  2  0
 20 39  1  0
 21 20  1  0
 21 24  1  0
 22 23  1  0
 22 19  1  0
 23 21  2  0
 24 25  1  0
 25 26  2  0
 27 30  1  0
 27 26  1  0
 28 27  2  0
 29 28  1  0
 29 24  2  0
 30 31  1  0
 31 32  1  0
 32 33  2  0
 34 33  1  0
 34 38  1  0
 35 34  2  0
 36 31  2  0
 36 35  1  0
 37 36  1  0
 39 40  1  0
 40 43  1  0
 40 42  1  0
 41 39  2  0
 44 45  1  0
 44 19  1  0
 46 44  1  0
 48 47  1  0
 49 60  2  0
 50 48  1  0
 50 55  1  0
 51 59  1  0
 51 61  1  0
 52 58  1  0
 52 54  1  0
 53 59  1  0
 54 55  2  0
 54 53  1  0
 56 50  2  0
 57 56  1  0
 57 52  2  0
 58 51  1  0
 59 49  1  0
 61 63  2  0
 62 61  1  0
 64 62  1  0
 65 74  2  0
 65 70  1  0
 66 62  1  0
 66 70  1  0
 67 66  1  0
 68 69  1  0
 68 67  1  0
 69 65  1  0
 70 71  2  0
 71 72  1  0
 73 72  2  0
 74 73  1  0
 75 49  1  0
 75 76  1  0
 75 85  1  0
 76 79  1  0
 77 81  1  0
 77 76  1  0
 78 77  2  0
 81 80  1  0
 83 81  1  0
 83 84  1  0
 83 82  1  0
 85 88  1  1
 85 86  1  0
 87 85  1  0
M  ISO  4  10 100  11 100  47 101  48 101
M  END
>  <TORSDO>  (59) 
F 18

>  <SCORE>  (59) 
-16.675

>  <name>  (59) 
59

>  <ligand_id>  (59) 
59

>  <original_smiles>  (59) 
[H]c1c([H])c([H])c2c(c1[H])C([H])([H])C([H])([H])C([H])([H])C2([H])N([H])C(=O)C1([H])N(C(=O)C([H])(N([H])C(=O)C([H])(N([H])C([H])([H])[H])C([H])([H])[H])C(C([H])([H])[H])(C([H])([H])[H])C([H])([H])[H])C([H])([H])c2c([H])c(OC([H])([H])C3([H])C4([H])C([H])([H])C(C([H])([H])[H])(C([H])([H])[H])C3([H])C([H])([H])C4([H])C([H])([H])C(=O)N3C([H])([H])C([H])([H])C([H])([H])C([H])(n4nc(-c5c([H])c([H])c(Oc6c([H])c([H])c(F)c([H])c6F)c([H])c5[H])c(C(=O)N([H])[H])c4N([H])[H])C3([H])[H])c([H])c([H])c2C1([H])[H]

>  <smiles>  (59) 
[H]c1c([H])c([H])c2c(c1[H])C([H])([H])C([H])([H])C([H])([H])C2([H])N([H])C(=O)C1([H])N(C(=O)C([H])(N([H])C(=O)C([H])(N([H])C([H])([H])[H])C([H])([H])[H])C(C([H])([H])[H])(C([H])([H])[H])C([H])([H])[H])C([H])([H])c2c([H])c(OC([H])([H])C3([H])C4([H])C([H])([H])C(C([H])([H])[H])(C([H])([H])[H])C3([H])C([H])([H])C4([H])C([H])([H])C(=O)N3C([H])([H])C([H])([H])C([H])([H])C([H])(n4nc(-c5c([H])c([H])c(Oc6c([H])c([H])c(F)c([H])c6F)c([H])c5[H])c(C(=O)N([H])[H])c4N([H])[H])C3([H])[H])c([H])c([H])c2C1([H])[H]

$$$$
60:0:0
     RDKit          3D

 88 97  0  0  1  0  0  0  0  0999 V2000
  -31.0960  -22.0210   18.7590 C   0  0  0  0  0  2  0  0  0  0  0  0
  -30.0560  -18.2010   21.3020 C   0  0  0  0  0  2  0  0  0  0  0  0
  -29.4770  -18.1190   19.0370 C   0  0  0  0  0  2  0  0  0  0  0  0
  -30.1080  -23.1450   19.0530 C   0  0  0  0  0  2  0  0  0  0  0  0
  -30.9150  -20.9710   19.8470 C   0  0  0  0  0  2  0  0  0  0  0  0
  -29.3940  -19.7670   21.4040 C   0  0  0  0  0  2  0  0  0  0  0  0
  -28.8550  -19.7050   19.1380 C   0  0  0  0  0  2  0  0  0  0  0  0
  -29.5850  -17.0100   20.2610 C   0  0  0  0  0  3  0  0  0  0  0  0
  -29.1760  -22.7250   20.2030 C   0  0  0  0  0  3  0  0  0  0  0  0
  -29.4080  -20.8620   20.1740 C   0  0  2  0  0  0  0  0  0  0  0  0
  -30.3780  -15.4050   20.0980 C   0  0  0  0  0  0  0  0  0  0  0  0
  -30.4000  -12.9250   19.2620 C   0  0  0  0  0  2  0  0  0  0  0  0
  -29.4700  -12.6930   18.0420 C   0  0  0  0  0  2  0  0  0  0  0  0
  -28.0300  -12.3970   18.4970 C   0  0  0  0  0  2  0  0  0  0  0  0
  -27.5790  -13.3570   19.6250 C   0  0  0  0  0  3  0  0  0  0  0  0
  -28.6390  -13.5390   20.7310 C   0  0  0  0  0  2  0  0  0  0  0  0
  -29.8560  -14.0680   20.0950 N   0  0  0  0  0  0  0  0  0  0  0  0
  -31.5910  -15.3850   19.8300 O   0  0  0  0  0  0  0  0  0  0  0  0
  -25.2250  -13.8840   20.4390 C   0  0  0  0  0  0  0  0  0  0  0  0
  -24.1770  -13.0950   20.8220 C   0  0  0  0  0  0  0  0  0  0  0  0
  -24.6530  -11.7480   20.7690 C   0  0  0  0  0  0  0  0  0  0  0  0
  -26.2670  -13.0200   20.1610 N   0  0  0  0  0  0  0  0  0  0  0  0
  -25.9380  -11.7270   20.4290 N   0  0  0  0  0  0  0  0  0  0  0  0
  -23.9360  -10.4800   20.9630 C   0  0  0  0  0  0  0  0  0  0  0  0
  -24.3710   -9.5200   21.9040 C   0  0  0  0  0  3  0  0  0  0  0  0
  -23.6510   -8.3200   22.0880 C   0  0  0  0  0  3  0  0  0  0  0  0
  -22.4840   -8.0690   21.3290 C   0  0  0  0  0  0  0  0  0  0  0  0
  -22.0670   -9.0170   20.3790 C   0  0  0  0  0  3  0  0  0  0  0  0
  -22.7880  -10.2090   20.1940 C   0  0  0  0  0  3  0  0  0  0  0  0
  -21.7350   -6.9200   21.4210 O   0  0  0  0  0  0  0  0  0  0  0  0
  -21.6600   -6.2000   22.5870 C   0  0  0  0  0  0  0  0  0  0  0  0
  -21.1740   -6.7700   23.7840 C   0  0  0  0  0  3  0  0  0  0  0  0
  -21.0490   -5.9750   24.9410 C   0  0  0  0  0  3  0  0  0  0  0  0
  -21.4000   -4.6130   24.9020 C   0  0  0  0  0  0  0  0  0  0  0  0
  -21.8780   -4.0430   23.7100 C   0  0  0  0  0  3  0  0  0  0  0  0
  -22.0050   -4.8340   22.5550 C   0  0  0  0  0  0  0  0  0  0  0  0
  -22.4470   -4.2740   21.4030 F   0  0  0  0  0  0  0  0  0  0  0  0
  -21.2720   -3.8480   26.0120 F   0  0  0  0  0  0  0  0  0  0  0  0
  -22.7820  -13.5600   21.1220 C   0  0  0  0  0  0  0  0  0  0  0  0
  -22.0810  -12.8640   22.0090 N   0  0  0  0  0  0  0  0  0  0  0  0
  -22.3240  -14.5790   20.6040 O   0  0  0  0  0  0  0  0  0  0  0  0
  -22.4650  -12.0420   22.4500 H   0  0  0  0  0  0  0  0  0  0  0  0
  -21.1460  -13.1600   22.2530 H   0  0  0  0  0  0  0  0  0  0  0  0
  -25.3760  -15.2580   20.2730 N   0  0  0  0  0  0  0  0  0  0  0  0
  -24.6090  -15.9070   20.4160 H   0  0  0  0  0  0  0  0  0  0  0  0
  -26.2190  -15.7080   19.9410 H   0  0  0  0  0  0  0  0  0  0  0  0
  -28.0320  -24.1540   20.2450 C   0  0  0  0  0  2  0  0  0  0  0  0
  -28.2530  -25.8200   20.3080 O   0  0  0  0  0  0  0  0  0  0  0  0
  -24.7290  -31.8470   23.3210 C   0  0  0  0  0  0  0  0  0  0  0  0
  -27.2530  -26.9440   20.2650 C   0  0  0  0  0  0  0  0  0  0  0  0
  -23.5350  -30.4880   21.6520 C   0  0  0  0  0  3  0  0  0  0  0  0
  -24.9780  -28.8790   20.2210 C   0  0  0  0  0  0  0  0  0  0  0  0
  -26.1080  -30.6600   21.5350 C   0  0  0  0  0  2  0  0  0  0  0  0
  -26.1670  -29.2550   20.8590 C   0  0  0  0  0  0  0  0  0  0  0  0
  -27.2980  -28.3110   20.8500 C   0  0  0  0  0  3  0  0  0  0  0  0
  -26.0330  -26.7310   19.5830 C   0  0  0  0  0  3  0  0  0  0  0  0
  -24.9390  -27.6390   19.5620 C   0  0  0  0  0  3  0  0  0  0  0  0
  -23.7720  -29.8190   20.2690 C   0  0  0  0  0  2  0  0  0  0  0  0
  -24.8120  -31.0260   22.2230 N   0  0  0  0  0  0  0  0  0  0  0  0
  -23.6360  -32.1430   23.8340 O   0  0  0  0  0  0  0  0  0  0  0  0
  -22.8180  -29.4890   22.5990 C   0  0  0  0  0  0  0  0  0  0  0  0
  -21.4870  -29.3430   22.4600 N   0  0  0  0  0  0  0  0  0  0  0  0
  -23.4670  -28.8460   23.4270 O   0  0  0  0  0  0  0  0  0  0  0  0
  -21.0150  -29.9120   21.7710 H   0  0  0  0  0  0  0  0  0  0  0  0
  -18.0870  -28.1570   22.9210 C   0  0  0  0  0  0  0  0  0  0  0  0
  -20.6460  -28.4020   23.2110 C   0  0  0  0  0  3  0  0  0  0  0  0
  -20.7420  -26.9770   22.6200 C   0  0  0  0  0  2  0  0  0  0  0  0
  -19.6480  -26.6750   21.5910 C   0  0  0  0  0  2  0  0  0  0  0  0
  -18.2610  -26.8180   22.2240 C   0  0  0  0  0  2  0  0  0  0  0  0
  -19.2070  -28.9080   23.3700 C   0  0  0  0  0  0  0  0  0  0  0  0
  -18.9880  -30.1600   23.9850 C   0  0  0  0  0  3  0  0  0  0  0  0
  -17.6830  -30.6620   24.1540 C   0  0  0  0  0  3  0  0  0  0  0  0
  -16.5790  -29.9080   23.7180 C   0  0  0  0  0  3  0  0  0  0  0  0
  -16.7820  -28.6590   23.1080 C   0  0  0  0  0  3  0  0  0  0  0  0
  -25.9980  -32.4690   23.9750 C   0  0  0  0  0  3  0  0  0  0  0  0
  -25.6890  -33.8650   24.3340 N   0  0  0  0  0  0  0  0  0  0  0  0
  -26.0010  -34.9380   23.5940 C   0  0  0  0  0  0  0  0  0  0  0  0
  -26.6400  -34.8550   22.5420 O   0  0  0  0  0  0  0  0  0  0  0  0
  -25.1150  -34.0020   25.1540 H   0  0  0  0  0  0  0  0  0  0  0  0
  -24.2480  -36.7320   23.3590 C   0  0  0  0  0  1  0  0  0  0  0  0
  -25.5320  -36.3190   24.0960 C   0  0  0  0  0  3  0  0  0  0  0  0
  -27.6990  -37.2130   24.8290 C   0  0  0  0  0  1  0  0  0  0  0  0
  -26.5510  -37.3810   23.9430 N   0  0  0  0  0  0  0  0  0  0  0  0
  -26.1470  -38.2970   24.1190 H   0  0  0  0  0  0  0  0  0  0  0  0
  -26.4850  -31.6790   25.2540 C   0  0  1  0  0  0  0  0  0  0  0  0
  -25.3730  -31.4430   26.3020 C   0  0  0  0  0  1  0  0  0  0  0  0
  -27.0600  -30.2970   24.8650 C   0  0  0  0  0  1  0  0  0  0  0  0
  -27.6350  -32.4530   25.9420 C   0  0  0  0  0  1  0  0  0  0  0  0
  1  4  1  0
  1  5  1  0
  2  6  1  0
  3  7  1  0
  3  8  1  0
  4  9  1  0
 10  5  1  6
  8 11  1  0
  8  2  1  0
  9 47  1  0
 10  7  1  0
 10  9  1  0
 10  6  1  0
 12 17  1  0
 13 14  1  0
 13 12  1  0
 15 14  1  0
 15 22  1  0
 15 16  1  0
 17 11  1  0
 17 16  1  0
 18 11  2  0
 19 20  2  0
 20 39  1  0
 21 20  1  0
 21 24  1  0
 22 23  1  0
 22 19  1  0
 23 21  2  0
 24 25  1  0
 25 26  2  0
 27 30  1  0
 27 26  1  0
 28 27  2  0
 29 28  1  0
 29 24  2  0
 30 31  1  0
 31 32  1  0
 32 33  2  0
 34 33  1  0
 34 38  1  0
 35 34  2  0
 36 31  2  0
 36 35  1  0
 37 36  1  0
 39 40  1  0
 40 43  1  0
 40 42  1  0
 41 39  2  0
 44 45  1  0
 44 19  1  0
 46 44  1  0
 47 48  1  0
 49 60  2  0
 50 48  1  0
 50 55  1  0
 51 59  1  0
 51 61  1  0
 52 58  1  0
 52 54  1  0
 53 59  1  0
 54 53  1  0
 55 54  2  0
 56 50  2  0
 57 56  1  0
 57 52  2  0
 58 51  1  0
 59 49  1  0
 61 63  2  0
 62 61  1  0
 64 62  1  0
 65 74  2  0
 65 70  1  0
 66 62  1  0
 66 70  1  0
 67 66  1  0
 68 69  1  0
 68 67  1  0
 69 65  1  0
 70 71  2  0
 71 72  1  0
 73 72  2  0
 74 73  1  0
 75 49  1  0
 75 76  1  0
 75 85  1  0
 76 79  1  0
 77 81  1  0
 77 76  1  0
 78 77  2  0
 81 80  1  0
 83 81  1  0
 83 84  1  0
 83 82  1  0
 85 88  1  1
 85 86  1  0
 87 85  1  0
M  ISO  4   8 100  11 100  47 101  48 101
M  END
>  <TORSDO>  (60) 
F 17

>  <SCORE>  (60) 
-16.132

>  <name>  (60) 
60

>  <ligand_id>  (60) 
60

>  <original_smiles>  (60) 
[H]c1c([H])c([H])c2c(c1[H])C([H])([H])C([H])([H])C([H])([H])C2([H])N([H])C(=O)C1([H])N(C(=O)C([H])(N([H])C(=O)C([H])(N([H])C([H])([H])[H])C([H])([H])[H])C(C([H])([H])[H])(C([H])([H])[H])C([H])([H])[H])C([H])([H])c2c([H])c(OC([H])([H])C3([H])C([H])([H])C([H])([H])C([H])([H])C34C([H])([H])C([H])([H])C([H])(C(=O)N3C([H])([H])C([H])([H])C([H])([H])C([H])(n5nc(-c6c([H])c([H])c(Oc7c([H])c([H])c(F)c([H])c7F)c([H])c6[H])c(C(=O)N([H])[H])c5N([H])[H])C3([H])[H])C([H])([H])C4([H])[H])c([H])c([H])c2C1([H])[H]

>  <smiles>  (60) 
[H]c1c([H])c([H])c2c(c1[H])C([H])([H])C([H])([H])C([H])([H])C2([H])N([H])C(=O)C1([H])N(C(=O)C([H])(N([H])C(=O)C([H])(N([H])C([H])([H])[H])C([H])([H])[H])C(C([H])([H])[H])(C([H])([H])[H])C([H])([H])[H])C([H])([H])c2c([H])c(OC([H])([H])C3([H])C([H])([H])C([H])([H])C([H])([H])C34C([H])([H])C([H])([H])C([H])(C(=O)N3C([H])([H])C([H])([H])C([H])([H])C([H])(n5nc(-c6c([H])c([H])c(Oc7c([H])c([H])c(F)c([H])c7F)c([H])c6[H])c(C(=O)N([H])[H])c5N([H])[H])C3([H])[H])C([H])([H])C4([H])[H])c([H])c([H])c2C1([H])[H]

$$$$
61:0:0
     RDKit          3D

 92100  0  0  1  0  0  0  0  0999 V2000
  -28.1770  -20.5880   21.1670 C   0  0  0  0  0  2  0  0  0  0  0  0
  -28.9640  -21.8730   21.5020 C   0  0  0  0  0  3  0  0  0  0  0  0
  -29.3480  -21.3210   19.2030 C   0  0  0  0  0  3  0  0  0  0  0  0
  -28.8120  -19.9790   19.9100 C   0  0  0  0  0  3  0  0  0  0  0  0
  -29.2750  -22.6200   20.1580 C   0  0  2  0  0  0  0  0  0  0  0  0
  -28.3200  -22.6870   22.6380 C   0  0  0  0  0  1  0  0  0  0  0  0
  -28.6440  -21.5740   17.8630 C   0  0  0  0  0  1  0  0  0  0  0  0
  -30.6860  -23.2400   20.2680 C   0  0  0  0  0  1  0  0  0  0  0  0
  -29.7910  -18.8390   20.2570 N   0  0  0  0  0  4  0  0  0  0  0  0
  -29.7530  -18.7420   21.2580 H   0  0  0  0  0  0  0  0  0  0  0  0
  -30.7270  -19.1520   20.0500 H   0  0  0  0  0  0  0  0  0  0  0  0
  -29.6320  -17.4250   19.6620 C   0  0  0  0  0  2  0  0  0  0  0  0
  -29.9650  -16.1310   20.5820 C   0  0  0  0  0  2  0  0  0  0  0  0
  -30.6140  -14.8000   19.9600 C   0  0  0  0  0  0  0  0  0  0  0  0
  -30.3610  -12.5170   18.9590 C   0  0  0  0  0  2  0  0  0  0  0  0
  -29.3530  -12.5960   17.7890 C   0  0  0  0  0  2  0  0  0  0  0  0
  -27.9070  -12.4360   18.3000 C   0  0  0  0  0  2  0  0  0  0  0  0
  -27.6130  -13.3240   19.5380 C   0  0  0  0  0  3  0  0  0  0  0  0
  -28.7320  -13.2090   20.5940 C   0  0  0  0  0  2  0  0  0  0  0  0
  -29.9960  -13.5660   19.9400 N   0  0  0  0  0  0  0  0  0  0  0  0
  -31.7250  -14.9150   19.4340 O   0  0  0  0  0  0  0  0  0  0  0  0
  -25.2830  -13.9320   20.4250 C   0  0  0  0  0  0  0  0  0  0  0  0
  -24.2320  -13.1640   20.8460 C   0  0  0  0  0  0  0  0  0  0  0  0
  -24.6720  -11.8080   20.7560 C   0  0  0  0  0  0  0  0  0  0  0  0
  -26.2970  -13.0450   20.1040 N   0  0  0  0  0  0  0  0  0  0  0  0
  -25.9390  -11.7590   20.3630 N   0  0  0  0  0  0  0  0  0  0  0  0
  -23.9400  -10.5510   20.9660 C   0  0  0  0  0  0  0  0  0  0  0  0
  -24.4070   -9.5650   21.8630 C   0  0  0  0  0  3  0  0  0  0  0  0
  -23.6750   -8.3750   22.0620 C   0  0  0  0  0  3  0  0  0  0  0  0
  -22.4630   -8.1610   21.3640 C   0  0  0  0  0  0  0  0  0  0  0  0
  -22.0130   -9.1370   20.4560 C   0  0  0  0  0  3  0  0  0  0  0  0
  -22.7450  -10.3190   20.2550 C   0  0  0  0  0  3  0  0  0  0  0  0
  -21.6970   -7.0260   21.4760 O   0  0  0  0  0  0  0  0  0  0  0  0
  -21.6930   -6.2710   22.6220 C   0  0  0  0  0  0  0  0  0  0  0  0
  -21.3070   -6.8110   23.8680 C   0  0  0  0  0  3  0  0  0  0  0  0
  -21.2480   -5.9820   25.0060 C   0  0  0  0  0  3  0  0  0  0  0  0
  -21.5660   -4.6160   24.9010 C   0  0  0  0  0  0  0  0  0  0  0  0
  -21.9470   -4.0740   23.6590 C   0  0  0  0  0  3  0  0  0  0  0  0
  -22.0070   -4.9000   22.5230 C   0  0  0  0  0  0  0  0  0  0  0  0
  -22.3530   -4.3700   21.3250 F   0  0  0  0  0  0  0  0  0  0  0  0
  -21.5030   -3.8180   25.9920 F   0  0  0  0  0  0  0  0  0  0  0  0
  -22.8620  -13.6530   21.2180 C   0  0  0  0  0  0  0  0  0  0  0  0
  -22.1830  -12.9470   22.1140 N   0  0  0  0  0  0  0  0  0  0  0  0
  -22.4080  -14.6970   20.7510 O   0  0  0  0  0  0  0  0  0  0  0  0
  -22.5650  -12.1010   22.5110 H   0  0  0  0  0  0  0  0  0  0  0  0
  -21.2670  -13.2560   22.4090 H   0  0  0  0  0  0  0  0  0  0  0  0
  -25.4560  -15.3040   20.2680 N   0  0  0  0  0  0  0  0  0  0  0  0
  -24.7030  -15.9630   20.4360 H   0  0  0  0  0  0  0  0  0  0  0  0
  -26.2840  -15.7370   19.8800 H   0  0  0  0  0  0  0  0  0  0  0  0
  -28.2500  -23.8730   19.8780 C   0  0  0  0  0  2  0  0  0  0  0  0
  -28.5670  -25.1770   18.9810 C   0  0  0  0  0  2  0  0  0  0  0  0
  -28.4840  -26.5750   19.5140 O   0  0  0  0  0  0  0  0  0  0  0  0
  -24.7420  -31.5920   23.1070 C   0  0  0  0  0  0  0  0  0  0  0  0
  -27.3240  -27.3750   19.5470 C   0  0  0  0  0  0  0  0  0  0  0  0
  -23.5040  -30.3280   21.3850 C   0  0  0  0  0  3  0  0  0  0  0  0
  -24.9270  -28.9410   19.7660 C   0  0  0  0  0  0  0  0  0  0  0  0
  -26.0270  -30.7120   21.1420 C   0  0  0  0  0  2  0  0  0  0  0  0
  -26.1060  -29.3980   20.3660 C   0  0  0  0  0  0  0  0  0  0  0  0
  -27.3020  -28.6270   20.2460 C   0  0  0  0  0  3  0  0  0  0  0  0
  -26.1190  -26.9700   18.9330 C   0  0  0  0  0  3  0  0  0  0  0  0
  -24.9370  -27.7370   19.0400 C   0  0  0  0  0  3  0  0  0  0  0  0
  -23.6780  -29.7840   19.9410 C   0  0  0  0  0  2  0  0  0  0  0  0
  -24.7790  -30.8920   21.9360 N   0  0  0  0  0  0  0  0  0  0  0  0
  -23.6760  -31.7950   23.7050 O   0  0  0  0  0  0  0  0  0  0  0  0
  -22.8950  -29.2150   22.2720 C   0  0  0  0  0  0  0  0  0  0  0  0
  -21.5720  -29.0070   22.1580 N   0  0  0  0  0  0  0  0  0  0  0  0
  -23.6110  -28.5460   23.0210 O   0  0  0  0  0  0  0  0  0  0  0  0
  -21.0510  -29.6050   21.5300 H   0  0  0  0  0  0  0  0  0  0  0  0
  -18.2500  -27.6430   22.6000 C   0  0  0  0  0  0  0  0  0  0  0  0
  -20.8000  -27.9820   22.8620 C   0  0  0  0  0  3  0  0  0  0  0  0
  -20.9480  -26.6050   22.1740 C   0  0  0  0  0  2  0  0  0  0  0  0
  -19.8450  -26.3200   21.1490 C   0  0  0  0  0  2  0  0  0  0  0  0
  -18.4670  -26.3590   21.8170 C   0  0  0  0  0  2  0  0  0  0  0  0
  -19.3440  -28.4140   23.0760 C   0  0  0  0  0  0  0  0  0  0  0  0
  -19.0850  -29.6150   23.7700 C   0  0  0  0  0  3  0  0  0  0  0  0
  -17.7640  -30.0500   23.9880 C   0  0  0  0  0  3  0  0  0  0  0  0
  -16.6840  -29.2770   23.5260 C   0  0  0  0  0  3  0  0  0  0  0  0
  -16.9290  -28.0760   22.8390 C   0  0  0  0  0  3  0  0  0  0  0  0
  -26.0370  -32.1900   23.7430 C   0  0  0  0  0  3  0  0  0  0  0  0
  -25.7220  -33.5540   24.1930 N   0  0  0  0  0  0  0  0  0  0  0  0
  -26.0360  -34.6700   23.5230 C   0  0  0  0  0  0  0  0  0  0  0  0
  -26.6910  -34.6600   22.4760 O   0  0  0  0  0  0  0  0  0  0  0  0
  -25.1370  -33.6350   25.0110 H   0  0  0  0  0  0  0  0  0  0  0  0
  -24.2960  -36.4790   23.3440 C   0  0  0  0  0  1  0  0  0  0  0  0
  -25.5480  -36.0120   24.1040 C   0  0  0  0  0  3  0  0  0  0  0  0
  -27.6840  -36.8360   24.9900 C   0  0  0  0  0  1  0  0  0  0  0  0
  -26.5740  -37.0760   24.0720 N   0  0  0  0  0  0  0  0  0  0  0  0
  -26.1640  -37.9790   24.2990 H   0  0  0  0  0  0  0  0  0  0  0  0
  -26.5970  -31.3280   24.9400 C   0  0  1  0  0  0  0  0  0  0  0  0
  -25.5390  -31.0020   26.0210 C   0  0  0  0  0  1  0  0  0  0  0  0
  -27.1750  -29.9890   24.4270 C   0  0  0  0  0  1  0  0  0  0  0  0
  -27.7630  -32.0780   25.6260 C   0  0  0  0  0  1  0  0  0  0  0  0
  1  2  1  0
  2  6  1  0
  3  7  1  0
  3  4  1  0
  3  5  1  0
  4  9  1  0
  4  1  1  0
  5  8  1  1
  5  2  1  0
  9 10  1  0
 11  9  1  0
 12  9  1  0
 12 13  1  0
 14 13  1  0
 15 20  1  0
 16 17  1  0
 16 15  1  0
 18 17  1  0
 18 25  1  0
 18 19  1  0
 20 14  1  0
 20 19  1  0
 21 14  2  0
 22 23  2  0
 23 42  1  0
 24 23  1  0
 24 27  1  0
 25 26  1  0
 25 22  1  0
 26 24  2  0
 27 28  1  0
 28 29  2  0
 30 33  1  0
 30 29  1  0
 31 30  2  0
 32 31  1  0
 32 27  2  0
 33 34  1  0
 34 35  1  0
 35 36  2  0
 37 36  1  0
 37 41  1  0
 38 37  2  0
 39 34  2  0
 39 38  1  0
 40 39  1  0
 42 43  1  0
 43 46  1  0
 43 45  1  0
 44 42  2  0
 47 22  1  0
 47 48  1  0
 49 47  1  0
 50  5  1  0
 51 52  1  0
 51 50  1  0
 52 54  1  0
 53 64  2  0
 54 59  1  0
 55 63  1  0
 55 65  1  0
 56 62  1  0
 56 58  1  0
 57 63  1  0
 58 57  1  0
 59 58  2  0
 60 61  1  0
 60 54  2  0
 61 56  2  0
 62 55  1  0
 63 53  1  0
 65 67  2  0
 66 65  1  0
 68 66  1  0
 69 78  2  0
 69 74  1  0
 70 66  1  0
 70 74  1  0
 71 70  1  0
 72 73  1  0
 72 71  1  0
 73 69  1  0
 74 75  2  0
 75 76  1  0
 77 76  2  0
 78 77  1  0
 79 53  1  0
 79 80  1  0
 79 89  1  0
 80 83  1  0
 81 85  1  0
 81 80  1  0
 82 81  2  0
 85 84  1  0
 87 85  1  0
 87 88  1  0
 87 86  1  0
 89 92  1  1
 89 90  1  0
 91 89  1  0
M  ISO  4  13 100  14 100  51 101  52 101
M  END
>  <TORSDO>  (61) 
F 21

>  <SCORE>  (61) 
-11.942

>  <name>  (61) 
61

>  <ligand_id>  (61) 
61

>  <original_smiles>  (61) 
[H]c1c([H])c([H])c2c(c1[H])C([H])([H])C([H])([H])C([H])([H])C2([H])N([H])C(=O)C1([H])N(C(=O)C([H])(N([H])C(=O)C([H])(N([H])C([H])([H])[H])C([H])([H])[H])C(C([H])([H])[H])(C([H])([H])[H])C([H])([H])[H])C([H])([H])c2c([H])c(OC([H])([H])C([H])([H])C3(C([H])([H])[H])C([H])(C([H])([H])[H])C([H])([H])C([H])([N+]([H])([H])C([H])([H])C([H])([H])C(=O)N4C([H])([H])C([H])([H])C([H])([H])C([H])(n5nc(-c6c([H])c([H])c(Oc7c([H])c([H])c(F)c([H])c7F)c([H])c6[H])c(C(=O)N([H])[H])c5N([H])[H])C4([H])[H])C3([H])C([H])([H])[H])c([H])c([H])c2C1([H])[H]

>  <smiles>  (61) 
[H]c1c([H])c([H])c2c(c1[H])C([H])([H])C([H])([H])C([H])([H])C2([H])N([H])C(=O)C1([H])N(C(=O)C([H])(N([H])C(=O)C([H])(N([H])C([H])([H])[H])C([H])([H])[H])C(C([H])([H])[H])(C([H])([H])[H])C([H])([H])[H])C([H])([H])c2c([H])c(OC([H])([H])C([H])([H])C3(C([H])([H])[H])C([H])(C([H])([H])[H])C([H])([H])C([H])([N+]([H])([H])C([H])([H])C([H])([H])C(=O)N4C([H])([H])C([H])([H])C([H])([H])C([H])(n5nc(-c6c([H])c([H])c(Oc7c([H])c([H])c(F)c([H])c7F)c([H])c6[H])c(C(=O)N([H])[H])c5N([H])[H])C4([H])[H])C3([H])C([H])([H])[H])c([H])c([H])c2C1([H])[H]

$$$$
62:0:0
     RDKit          3D

 93102  0  0  1  0  0  0  0  0999 V2000
  -29.2470  -20.8510   22.3830 C   0  0  0  0  0  1  0  0  0  0  0  0
  -29.9490  -21.0190   21.0260 C   0  0  0  0  0  3  0  0  0  0  0  0
  -29.5100  -16.3250   18.7570 C   0  0  0  0  0  2  0  0  0  0  0  0
  -30.4640  -19.6700   18.8750 C   0  0  0  0  0  2  0  0  0  0  0  0
  -28.2220  -17.1030   18.5870 C   0  0  0  0  0  2  0  0  0  0  0  0
  -29.0300  -19.4400   18.4320 C   0  0  0  0  0  2  0  0  0  0  0  0
  -29.7860  -16.4340   20.2570 C   0  0  0  0  0  3  0  0  0  0  0  0
  -29.4920  -18.0980   20.5480 C   0  0  0  0  0  3  0  0  0  0  0  0
  -30.3550  -19.5090   20.3770 C   0  0  0  0  0  3  0  0  0  0  0  0
  -28.4290  -18.3870   19.4060 C   0  0  2  0  0  0  0  0  0  0  0  0
  -27.0810  -18.8730   19.9710 C   0  0  0  0  0  1  0  0  0  0  0  0
  -30.7610  -15.1580   20.7040 C   0  0  0  0  0  0  0  0  0  0  0  0
  -30.8100  -12.7490   19.9290 C   0  0  0  0  0  2  0  0  0  0  0  0
  -29.9670  -12.6040   18.6360 C   0  0  0  0  0  2  0  0  0  0  0  0
  -28.4590  -12.4570   18.9430 C   0  0  0  0  0  2  0  0  0  0  0  0
  -27.9560  -13.4030   20.0660 C   0  0  0  0  0  3  0  0  0  0  0  0
  -28.9340  -13.4500   21.2570 C   0  0  0  0  0  2  0  0  0  0  0  0
  -30.2520  -13.8580   20.7480 N   0  0  0  0  0  0  0  0  0  0  0  0
  -31.9900  -15.2770   20.6360 O   0  0  0  0  0  0  0  0  0  0  0  0
  -25.5270  -13.9910   20.6390 C   0  0  0  0  0  0  0  0  0  0  0  0
  -24.4400  -13.2180   20.9330 C   0  0  0  0  0  0  0  0  0  0  0  0
  -24.9120  -11.8710   20.9550 C   0  0  0  0  0  0  0  0  0  0  0  0
  -26.5880  -13.1140   20.4790 N   0  0  0  0  0  0  0  0  0  0  0  0
  -26.2210  -11.8340   20.7400 N   0  0  0  0  0  0  0  0  0  0  0  0
  -24.1820  -10.6080   21.1080 C   0  0  0  0  0  0  0  0  0  0  0  0
  -24.5420   -9.6640   22.0940 C   0  0  0  0  0  3  0  0  0  0  0  0
  -23.8120   -8.4650   22.2340 C   0  0  0  0  0  3  0  0  0  0  0  0
  -22.7070   -8.2030   21.3890 C   0  0  0  0  0  0  0  0  0  0  0  0
  -22.3670   -9.1370   20.3950 C   0  0  0  0  0  3  0  0  0  0  0  0
  -23.0990  -10.3280   20.2520 C   0  0  0  0  0  3  0  0  0  0  0  0
  -21.9550   -7.0540   21.4380 O   0  0  0  0  0  0  0  0  0  0  0  0
  -21.7920   -6.3510   22.6030 C   0  0  0  0  0  0  0  0  0  0  0  0
  -21.1980   -6.9280   23.7460 C   0  0  0  0  0  3  0  0  0  0  0  0
  -20.9850   -6.1490   24.9010 C   0  0  0  0  0  3  0  0  0  0  0  0
  -21.3560   -4.7900   24.9110 C   0  0  0  0  0  0  0  0  0  0  0  0
  -21.9430   -4.2120   23.7720 C   0  0  0  0  0  3  0  0  0  0  0  0
  -22.1580   -4.9890   22.6200 C   0  0  0  0  0  0  0  0  0  0  0  0
  -22.7050   -4.4210   21.5180 F   0  0  0  0  0  0  0  0  0  0  0  0
  -21.1450   -4.0390   26.0160 F   0  0  0  0  0  0  0  0  0  0  0  0
  -23.0240  -13.6920   21.0930 C   0  0  0  0  0  0  0  0  0  0  0  0
  -22.2390  -13.0080   21.9170 N   0  0  0  0  0  0  0  0  0  0  0  0
  -22.6210  -14.7060   20.5230 O   0  0  0  0  0  0  0  0  0  0  0  0
  -22.5780  -12.1890   22.3980 H   0  0  0  0  0  0  0  0  0  0  0  0
  -21.2860  -13.3060   22.0660 H   0  0  0  0  0  0  0  0  0  0  0  0
  -25.6900  -15.3610   20.4720 N   0  0  0  0  0  0  0  0  0  0  0  0
  -24.9110  -16.0070   20.5350 H   0  0  0  0  0  0  0  0  0  0  0  0
  -26.5640  -15.8140   20.2420 H   0  0  0  0  0  0  0  0  0  0  0  0
  -29.3260  -22.2210   20.2120 N   0  0  0  0  0  4  0  0  0  0  0  0
  -29.7500  -22.1960   19.2970 H   0  0  0  0  0  0  0  0  0  0  0  0
  -28.3500  -22.0100   20.0760 H   0  0  0  0  0  0  0  0  0  0  0  0
  -29.4240  -23.7250   20.6900 C   0  0  0  0  0  3  0  0  0  0  0  0
  -28.4920  -24.9420   20.0320 C   0  0  0  0  0  3  0  0  0  0  0  0
  -28.6140  -26.4510   20.3400 O   0  0  0  0  0  0  0  0  0  0  0  0
  -24.6800  -31.8900   23.2750 C   0  0  0  0  0  0  0  0  0  0  0  0
  -27.5090  -27.3610   20.2320 C   0  0  0  0  0  0  0  0  0  0  0  0
  -23.5770  -30.5010   21.5620 C   0  0  0  0  0  3  0  0  0  0  0  0
  -25.1200  -29.0050   20.1530 C   0  0  0  0  0  0  0  0  0  0  0  0
  -26.1210  -30.8530   21.4900 C   0  0  0  0  0  2  0  0  0  0  0  0
  -26.2590  -29.4820   20.8120 C   0  0  0  0  0  0  0  0  0  0  0  0
  -27.4520  -28.6750   20.8380 C   0  0  0  0  0  3  0  0  0  0  0  0
  -26.3440  -26.9780   19.5280 C   0  0  0  0  0  3  0  0  0  0  0  0
  -25.1730  -27.7660   19.4970 C   0  0  0  0  0  3  0  0  0  0  0  0
  -23.8630  -29.8600   20.1770 C   0  0  0  0  0  2  0  0  0  0  0  0
  -24.8100  -31.1010   22.1660 N   0  0  0  0  0  0  0  0  0  0  0  0
  -23.5700  -32.1320   23.7720 O   0  0  0  0  0  0  0  0  0  0  0  0
  -22.8960  -29.4530   22.4760 C   0  0  0  0  0  0  0  0  0  0  0  0
  -21.5700  -29.2840   22.3310 N   0  0  0  0  0  0  0  0  0  0  0  0
  -23.5620  -28.7960   23.2790 O   0  0  0  0  0  0  0  0  0  0  0  0
  -21.0890  -29.8660   21.6600 H   0  0  0  0  0  0  0  0  0  0  0  0
  -18.1760  -28.1120   22.8090 C   0  0  0  0  0  0  0  0  0  0  0  0
  -20.7420  -28.3160   23.0560 C   0  0  0  0  0  3  0  0  0  0  0  0
  -20.8110  -26.9190   22.3960 C   0  0  0  0  0  2  0  0  0  0  0  0
  -19.6920  -26.6760   21.3800 C   0  0  0  0  0  2  0  0  0  0  0  0
  -18.3210  -26.8040   22.0500 C   0  0  0  0  0  2  0  0  0  0  0  0
  -19.3130  -28.8300   23.2670 C   0  0  0  0  0  0  0  0  0  0  0  0
  -19.1210  -30.0570   23.9390 C   0  0  0  0  0  3  0  0  0  0  0  0
  -17.8270  -30.5660   24.1540 C   0  0  0  0  0  3  0  0  0  0  0  0
  -16.7050  -29.8450   23.7100 C   0  0  0  0  0  3  0  0  0  0  0  0
  -16.8810  -28.6190   23.0440 C   0  0  0  0  0  3  0  0  0  0  0  0
  -25.9200  -32.5420   23.9610 C   0  0  0  0  0  3  0  0  0  0  0  0
  -26.3790  -31.7810   25.2650 C   0  0  1  0  0  0  0  0  0  0  0  0
  -25.2360  -31.5320   26.2770 C   0  0  0  0  0  1  0  0  0  0  0  0
  -26.9980  -30.4090   24.9100 C   0  0  0  0  0  1  0  0  0  0  0  0
  -27.4850  -32.5910   25.9820 C   0  0  0  0  0  1  0  0  0  0  0  0
  -25.5720  -33.9370   24.2770 N   0  0  0  0  0  0  0  0  0  0  0  0
  -25.9330  -34.9990   23.5440 C   0  0  0  0  0  0  0  0  0  0  0  0
  -26.6590  -34.9090   22.5500 O   0  0  0  0  0  0  0  0  0  0  0  0
  -24.9320  -34.0800   25.0450 H   0  0  0  0  0  0  0  0  0  0  0  0
  -24.2220  -36.7890   23.0930 C   0  0  0  0  0  1  0  0  0  0  0  0
  -25.4070  -36.3800   23.9830 C   0  0  0  0  0  3  0  0  0  0  0  0
  -27.4680  -37.2760   24.9740 C   0  0  0  0  0  1  0  0  0  0  0  0
  -26.4390  -37.4400   23.9520 N   0  0  0  0  0  0  0  0  0  0  0  0
  -26.0170  -38.3570   24.0700 H   0  0  0  0  0  0  0  0  0  0  0  0
  2  1  1  0
  3  7  1  0
  4  9  1  0
  5  3  1  0
  5 10  1  0
  6  4  1  0
  6 10  1  0
  7  8  1  0
  7 12  1  0
  9  8  1  0
  9  2  1  0
 10 11  1  1
 10  8  1  0
 12 18  1  0
 13 18  1  0
 14 15  1  0
 14 13  1  0
 15 16  1  0
 16 23  1  0
 16 17  1  0
 18 17  1  0
 19 12  2  0
 20 21  2  0
 21 22  1  0
 21 40  1  0
 22 25  1  0
 23 20  1  0
 23 24  1  0
 24 22  2  0
 25 26  1  0
 26 27  2  0
 28 31  1  0
 28 27  1  0
 29 28  2  0
 30 29  1  0
 30 25  2  0
 31 32  1  0
 32 37  2  0
 32 33  1  0
 33 34  2  0
 34 35  1  0
 35 39  1  0
 36 35  2  0
 37 36  1  0
 38 37  1  0
 40 41  1  0
 41 44  1  0
 41 43  1  0
 42 40  2  0
 45 46  1  0
 45 20  1  0
 47 45  1  0
 48 51  1  0
 48  2  1  0
 49 48  1  0
 50 48  1  0
 52 53  1  0
 52 51  2  0
 54 65  2  0
 54 80  1  0
 55 53  1  0
 55 60  1  0
 56 64  1  0
 56 66  1  0
 57 63  1  0
 57 59  1  0
 58 64  1  0
 59 60  2  0
 59 58  1  0
 61 55  2  0
 62 61  1  0
 62 57  2  0
 63 56  1  0
 64 54  1  0
 66 68  2  0
 67 66  1  0
 67 71  1  0
 69 67  1  0
 70 79  2  0
 70 75  1  0
 71 75  1  0
 72 71  1  0
 73 74  1  0
 73 72  1  0
 74 70  1  0
 75 76  2  0
 76 77  1  0
 78 77  2  0
 79 78  1  0
 80 85  1  0
 80 81  1  0
 81 84  1  1
 81 82  1  0
 83 81  1  0
 85 88  1  0
 86 90  1  0
 86 85  1  0
 87 86  2  0
 89 90  1  0
 92 90  1  0
 92 93  1  0
 92 91  1  0
M  ISO  4   7 100  12 100  52 101  53 101
M  END
>  <TORSDO>  (62) 
F 20

>  <SCORE>  (62) 
-12.959

>  <name>  (62) 
62

>  <ligand_id>  (62) 
62

>  <original_smiles>  (62) 
[H]c1c([H])c([H])c2c(c1[H])C([H])([H])C([H])([H])C([H])([H])C2([H])N([H])C(=O)C1([H])N(C(=O)C([H])(N([H])C(=O)C([H])(N([H])C([H])([H])[H])C([H])([H])[H])C(C([H])([H])[H])(C([H])([H])[H])C([H])([H])[H])C([H])([H])c2c([H])c(OC([H])([H])C([H])([H])[N+]([H])([H])C([H])(C([H])([H])[H])C3([H])C([H])([H])C([H])([H])C4(C([H])([H])[H])C([H])([H])C([H])([H])C([H])(C(=O)N5C([H])([H])C([H])([H])C([H])([H])C([H])(n6nc(-c7c([H])c([H])c(Oc8c([H])c([H])c(F)c([H])c8F)c([H])c7[H])c(C(=O)N([H])[H])c6N([H])[H])C5([H])[H])C34[H])c([H])c([H])c2C1([H])[H]

>  <smiles>  (62) 
[H]c1c([H])c([H])c2c(c1[H])C([H])([H])C([H])([H])C([H])([H])C2([H])N([H])C(=O)C1([H])N(C(=O)C([H])(N([H])C(=O)C([H])(N([H])C([H])([H])[H])C([H])([H])[H])C(C([H])([H])[H])(C([H])([H])[H])C([H])([H])[H])C([H])([H])c2c([H])c(OC([H])([H])C([H])([H])[N+]([H])([H])C([H])(C([H])([H])[H])C3([H])C([H])([H])C([H])([H])C4(C([H])([H])[H])C([H])([H])C([H])([H])C([H])(C(=O)N5C([H])([H])C([H])([H])C([H])([H])C([H])(n6nc(-c7c([H])c([H])c(Oc8c([H])c([H])c(F)c([H])c8F)c([H])c7[H])c(C(=O)N([H])[H])c6N([H])[H])C5([H])[H])C34[H])c([H])c([H])c2C1([H])[H]

$$$$
63:0:0
     RDKit          3D

 95 91  0  0  1  0  0  0  0  0999 V2000
  -25.2040  -13.6280   17.8500 C   0  0  0  0  0  2  0  0  0  0  0  0
  -25.1340  -15.2770   18.1770 N   0  0  0  0  0  2  0  0  0  0  0  0
  -25.7940  -13.3920   16.7970 O   0  0  0  0  0  1  0  0  0  0  0  0
  -24.4070  -15.3320   18.8790 H   0  0  0  0  0  0  0  0  0  0  0  0
  -25.4700   -7.3300   22.6140 C   0  0  0  0  0  1  0  0  0  0  0  0
  -24.3870   -6.6750   21.8880 C   0  0  0  0  0  2  0  0  0  0  0  0
  -23.9950  -12.7660   20.1490 C   0  0  0  0  0  1  0  0  0  0  0  0
  -24.7520  -11.8790   18.8180 C   0  0  0  0  0  1  0  0  0  0  0  0
  -23.7290   -8.0640   23.1800 C   0  0  0  0  0 15  0  0  0  0  0  0
  -25.3770   -7.4630   20.6440 C   0  0  0  0  0  1  0  0  0  0  0  0
  -22.9660  -10.4980   22.1240 C   0  0  0  0  0 15  0  0  0  0  0  0
  -24.7840   -9.4350   19.4610 C   0  0  0  0  0 15  0  0  0  0  0  0
  -26.9150  -14.8840   20.4400 C   0  0  0  0  0  2  0  0  0  0  0  0
  -25.4890  -14.1330   20.2690 C   0  0  0  0  0  1  0  0  0  0  0  0
  -28.6340  -14.9910   20.8860 C   0  0  0  0  0  0  0  0  0  0  0  0
  -30.2780  -13.2090   20.4850 C   0  0  0  0  0  2  0  0  0  0  0  0
  -29.3660  -12.7480   19.3460 C   0  0  0  0  0  2  0  0  0  0  0  0
  -27.9540  -12.3220   19.9170 C   0  0  0  0  0  2  0  0  0  0  0  0
  -27.7150  -12.6130   21.5350 C   0  0  0  0  0  3  0  0  0  0  0  0
  -28.7680  -13.2300   22.3500 C   0  0  0  0  0  2  0  0  0  0  0  0
  -29.3720  -13.9660   21.3630 N   0  0  0  0  0  0  0  0  0  0  0  0
  -29.5490  -15.8810   20.8410 O   0  0  0  0  0  0  0  0  0  0  0  0
  -25.3330  -13.7930   22.7110 C   0  0  0  0  0  3  0  0  0  0  0  0
  -24.2400  -12.9590   22.7120 C   0  0  0  0  0  3  0  0  0  0  0  0
  -25.0680  -11.8590   22.1690 C   0  0  1  0  0  0  0  0  0  0  0  0
  -26.4280  -12.8830   22.2820 N   0  0  1  0  0  4  0  0  0  0  0  0
  -26.1110  -11.8140   22.8330 N   0  0  0  0  0  2  0  0  0  0  0  0
  -24.9100  -10.8540   20.9380 C   0  0  0  0  0  3  0  0  0  0  0  0
  -25.6050   -9.8080   21.3940 C   0  0  0  0  0  2  0  0  0  0  0  0
  -24.4660   -9.2380   21.4130 C   0  0  0  0  0  2  0  0  0  0  0  0
  -22.7350   -8.8070   20.5670 C   0  0  0  0  0  2  0  0  0  0  0  0
  -22.2600   -9.7900   19.6450 C   0  0  0  0  0  2  0  0  0  0  0  0
  -23.1710  -10.9820   19.7030 C   0  0  0  0  0  1  0  0  0  0  0  0
  -21.4560   -7.8810   20.9760 O   0  0  0  0  0  0  0  0  0  0  0  0
  -21.0080   -6.7520   21.9610 C   0  0  0  0  0  0  0  0  0  0  0  0
  -20.5710   -7.0490   23.3080 C   0  0  0  0  0  3  0  0  0  0  0  0
  -20.2380   -6.0860   24.3230 C   0  0  0  0  0  3  0  0  0  0  0  0
  -20.2940   -4.7030   24.0800 C   0  0  0  0  0  0  0  0  0  0  0  0
  -20.6580   -4.3190   22.7850 C   0  0  0  0  0  3  0  0  0  0  0  0
  -20.9720   -5.2820   21.7710 C   0  0  0  0  0  0  0  0  0  0  0  0
  -21.2910   -4.6980   20.5900 F   0  0  0  0  0  0  0  0  0  0  0  0
  -19.9920   -3.7790   25.0440 F   0  0  0  0  0  0  0  0  0  0  0  0
  -22.7150  -13.3570   22.4410 C   0  0  0  0  0  0  0  0  0  0  0  0
  -21.7600  -12.5340   22.8380 N   0  0  0  0  0  0  0  0  0  0  0  0
  -22.3380  -14.2910   21.7040 O   0  0  0  0  0  0  0  0  0  0  0  0
  -21.9770  -11.7000   23.3610 H   0  0  0  0  0  0  0  0  0  0  0  0
  -20.7980  -12.7420   22.6160 H   0  0  0  0  0  0  0  0  0  0  0  0
  -25.3100  -15.2100   22.6390 N   0  0  0  0  0  0  0  0  0  0  0  0
  -24.4980  -15.7790   22.8470 H   0  0  0  0  0  0  0  0  0  0  0  0
  -26.1370  -15.7590   22.4530 H   0  0  0  0  0  0  0  0  0  0  0  0
  -25.9090  -17.0460   18.1830 C   0  0  0  0  0 15  0  0  0  0  0  0
  -25.9750  -18.9830   19.0740 C   0  0  0  0  0 15  0  0  0  0  0  0
  -26.7870  -20.9670   19.0990 C   0  0  0  0  0 15  0  0  0  0  0  0
  -26.7750  -22.9880   19.8380 C   0  0  0  0  0 15  0  0  0  0  0  0
  -27.5640  -24.7470   20.0650 O   0  0  0  0  0  1  0  0  0  0  0  0
  -24.8820  -31.7840   23.1880 C   0  0  0  0  0  0  0  0  0  0  0  0
  -27.0400  -26.2690   20.2100 C   0  0  0  0  0  0  0  0  0  0  0  0
  -23.7550  -30.3710   21.5650 C   0  0  0  0  0  3  0  0  0  0  0  0
  -25.1490  -28.6660   20.1950 C   0  0  0  0  0  0  0  0  0  0  0  0
  -26.3510  -30.3070   21.5940 C   0  0  0  0  0  2  0  0  0  0  0  0
  -26.3420  -28.8510   20.8960 C   0  0  0  0  0  0  0  0  0  0  0  0
  -27.3030  -27.6620   20.8830 C   0  0  0  0  0  3  0  0  0  0  0  0
  -25.8920  -26.4210   19.4560 C   0  0  0  0  0  3  0  0  0  0  0  0
  -24.9870  -27.4950   19.4640 C   0  0  0  0  0  3  0  0  0  0  0  0
  -24.0290  -29.7080   20.1990 C   0  0  0  0  0  2  0  0  0  0  0  0
  -25.0310  -30.8670   22.1630 N   0  0  0  0  0  0  0  0  0  0  0  0
  -23.7600  -32.1180   23.6180 O   0  0  0  0  0  0  0  0  0  0  0  0
  -22.9920  -29.4010   22.5100 C   0  0  0  0  0  0  0  0  0  0  0  0
  -21.6590  -29.2730   22.3530 N   0  0  0  0  0  0  0  0  0  0  0  0
  -23.6100  -28.7730   23.3730 O   0  0  0  0  0  0  0  0  0  0  0  0
  -21.2070  -29.8320   21.6430 H   0  0  0  0  0  0  0  0  0  0  0  0
  -18.2320  -28.1660   22.8340 C   0  0  0  0  0  0  0  0  0  0  0  0
  -20.7970  -28.3650   23.1180 C   0  0  0  0  0  3  0  0  0  0  0  0
  -20.8630  -26.9280   22.5510 C   0  0  0  0  0  2  0  0  0  0  0  0
  -19.7640  -26.6350   21.5250 C   0  0  0  0  0  2  0  0  0  0  0  0
  -18.3810  -26.8140   22.1550 C   0  0  0  0  0  2  0  0  0  0  0  0
  -19.3670  -28.9010   23.2720 C   0  0  0  0  0  0  0  0  0  0  0  0
  -19.1730  -30.1630   23.8730 C   0  0  0  0  0  3  0  0  0  0  0  0
  -17.8790  -30.6940   24.0340 C   0  0  0  0  0  3  0  0  0  0  0  0
  -16.7600  -29.9580   23.6090 C   0  0  0  0  0  3  0  0  0  0  0  0
  -16.9370  -28.6950   23.0160 C   0  0  0  0  0  3  0  0  0  0  0  0
  -26.0970  -32.4770   23.8730 C   0  0  0  0  0  3  0  0  0  0  0  0
  -25.7430  -33.8950   24.1190 N   0  0  0  0  0  0  0  0  0  0  0  0
  -26.1260  -34.9380   23.3690 C   0  0  0  0  0  0  0  0  0  0  0  0
  -26.8680  -34.8110   22.3940 O   0  0  0  0  0  0  0  0  0  0  0  0
  -25.0870  -34.0660   24.8660 H   0  0  0  0  0  0  0  0  0  0  0  0
  -24.4170  -36.7280   22.8730 C   0  0  0  0  0  1  0  0  0  0  0  0
  -25.6110  -36.3420   23.7620 C   0  0  0  0  0  3  0  0  0  0  0  0
  -27.6850  -37.2710   24.6950 C   0  0  0  0  0  1  0  0  0  0  0  0
  -26.6430  -37.4000   23.6800 N   0  0  0  0  0  0  0  0  0  0  0  0
  -26.2230  -38.3200   23.7740 H   0  0  0  0  0  0  0  0  0  0  0  0
  -26.4990  -31.8010   25.2430 C   0  0  1  0  0  0  0  0  0  0  0  0
  -25.3240  -31.6380   26.2380 C   0  0  0  0  0  1  0  0  0  0  0  0
  -27.1060  -30.3990   25.0210 C   0  0  0  0  0  1  0  0  0  0  0  0
  -27.5970  -32.6410   25.9380 C   0  0  0  0  0  1  0  0  0  0  0  0
  1  2  1  0
  2  4  1  0
  3  1  1  0
  6  5  1  0
  8  7  1  0
 10  6  1  0
 13 15  1  0
 14 13  1  0
 15 21  1  0
 16 21  1  0
 17 18  1  0
 17 16  1  0
 19 18  1  0
 26 19  1  6
 19 20  1  0
 21 20  1  0
 22 15  2  0
 23 48  1  0
 23 24  1  0
 24 43  1  0
 25 28  1  6
 25 26  1  0
 25 24  1  0
 25 27  1  0
 26 23  1  0
 26 27  1  0
 28 29  1  0
 28 30  1  0
 29 30  1  0
 31 34  1  0
 32 33  1  0
 32 31  1  0
 34 35  1  0
 35 36  1  0
 36 37  2  0
 38 37  1  0
 38 42  1  0
 39 38  2  0
 40 35  2  0
 40 39  1  0
 41 40  1  0
 43 44  1  0
 44 46  1  0
 45 43  2  0
 47 44  1  0
 48 49  1  0
 50 48  1  0
 55 57  1  0
 56 67  2  0
 57 62  1  0
 58 66  1  0
 58 68  1  0
 59 65  1  0
 59 61  1  0
 60 66  1  0
 61 60  1  0
 62 61  2  0
 63 64  1  0
 63 57  2  0
 64 59  2  0
 65 58  1  0
 66 56  1  0
 68 70  2  0
 69 68  1  0
 71 69  1  0
 72 81  2  0
 72 77  1  0
 73 69  1  0
 73 77  1  0
 74 73  1  0
 75 76  1  0
 75 74  1  0
 76 72  1  0
 77 78  2  0
 78 79  1  0
 80 79  2  0
 81 80  1  0
 82 56  1  0
 82 83  1  0
 82 92  1  0
 83 86  1  0
 84 88  1  0
 84 83  1  0
 85 84  2  0
 88 87  1  0
 90 88  1  0
 90 91  1  0
 90 89  1  0
 92 95  1  1
 92 93  1  0
 94 92  1  0
M  ISO  4  13 100  15 100  54 101  55 101
M  END
>  <TORSDO>  (63) 
F 22

>  <SCORE>  (63) 
21.066

>  <name>  (63) 
63

>  <ligand_id>  (63) 
63

>  <original_smiles>  (63) 
[H]C(C(=O)N1C([H])([H])C([H])([H])C([H])([H])C([H])(n2nc(-c3c([H])c([H])c(Oc4c([H])c([H])c(F)c([H])c4F)c([H])c3[H])c(C(=O)N([H])[H])c2N([H])[H])C1([H])[H])=C([H])C1([H])C([H])(C(=O)N([H])C([H])([H])C([H])([H])C([H])([H])C([H])([H])Oc2c([H])c([H])c3c(c2[H])C([H])([H])N(C(=O)C([H])(N([H])C(=O)C([H])(N([H])C([H])([H])[H])C([H])([H])[H])C(C([H])([H])[H])(C([H])([H])[H])C([H])([H])[H])C([H])(C(=O)N([H])C2([H])c4c([H])c([H])c([H])c([H])c4C([H])([H])C([H])([H])C2([H])[H])C3([H])[H])C2([H])C3([H])C([H])([H])C([H])(C3([H])[H])C12[H]

>  <smiles>  (63) 
[H]C(C(=O)N1C([H])([H])C([H])([H])C([H])([H])C([H])(n2nc(-c3c([H])c([H])c(Oc4c([H])c([H])c(F)c([H])c4F)c([H])c3[H])c(C(=O)N([H])[H])c2N([H])[H])C1([H])[H])=C([H])C1([H])C([H])(C(=O)N([H])C([H])([H])C([H])([H])C([H])([H])C([H])([H])Oc2c([H])c([H])c3c(c2[H])C([H])([H])N(C(=O)C([H])(N([H])C(=O)C([H])(N([H])C([H])([H])[H])C([H])([H])[H])C(C([H])([H])[H])(C([H])([H])[H])C([H])([H])[H])C([H])(C(=O)N([H])C2([H])c4c([H])c([H])c([H])c([H])c4C([H])([H])C([H])([H])C2([H])[H])C3([H])[H])C2([H])C3([H])C([H])([H])C([H])(C3([H])[H])C12[H]

$$$$
64:0:0
     RDKit          3D

 91100  0  0  1  0  0  0  0  0999 V2000
  -28.7380  -21.2370   19.8680 C   0  0  0  0  0  3  0  0  0  0  0  0
  -24.8590  -21.1740   17.7550 C   0  0  0  0  0  2  0  0  0  0  0  0
  -25.2590  -22.2940   18.3730 C   0  0  0  0  0  2  0  0  0  0  0  0
  -27.0440  -19.8390   18.3250 C   0  0  0  0  0  2  0  0  0  0  0  0
  -26.2770  -20.7660   17.3790 C   0  0  0  0  0  3  0  0  0  0  0  0
  -26.7390  -21.9630   18.2160 C   0  0  0  0  0  3  0  0  0  0  0  0
  -27.3290  -21.0130   19.2870 C   0  0  0  0  0  3  0  0  0  0  0  0
  -29.1400  -19.8380   20.6550 N   0  0  0  0  0  4  0  0  0  0  0  0
  -29.9050  -20.0900   21.2600 H   0  0  0  0  0  0  0  0  0  0  0  0
  -28.3690  -19.6600   21.2750 H   0  0  0  0  0  0  0  0  0  0  0  0
  -29.5790  -18.3600   20.0500 C   0  0  0  0  0  2  0  0  0  0  0  0
  -29.5730  -16.7610   20.8220 C   0  0  0  0  0  2  0  0  0  0  0  0
  -30.3800  -15.2600   20.4910 C   0  0  0  0  0  0  0  0  0  0  0  0
  -30.4480  -12.7910   19.7200 C   0  0  0  0  0  2  0  0  0  0  0  0
  -29.5780  -12.5660   18.4570 C   0  0  0  0  0  2  0  0  0  0  0  0
  -28.1130  -12.2960   18.8420 C   0  0  0  0  0  2  0  0  0  0  0  0
  -27.6080  -13.2810   19.9250 C   0  0  0  0  0  3  0  0  0  0  0  0
  -28.6080  -13.4550   21.0880 C   0  0  0  0  0  2  0  0  0  0  0  0
  -29.8710  -13.9360   20.5100 N   0  0  0  0  0  0  0  0  0  0  0  0
  -31.5790  -15.3000   20.1820 O   0  0  0  0  0  0  0  0  0  0  0  0
  -25.2060  -13.8200   20.5980 C   0  0  0  0  0  0  0  0  0  0  0  0
  -24.1420  -13.0330   20.9430 C   0  0  0  0  0  0  0  0  0  0  0  0
  -24.6260  -11.6890   20.9370 C   0  0  0  0  0  0  0  0  0  0  0  0
  -26.2660  -12.9560   20.3910 N   0  0  0  0  0  0  0  0  0  0  0  0
  -25.9270  -11.6680   20.6630 N   0  0  0  0  0  0  0  0  0  0  0  0
  -23.9080  -10.4190   21.1150 C   0  0  0  0  0  0  0  0  0  0  0  0
  -24.3350   -9.4530   22.0530 C   0  0  0  0  0  3  0  0  0  0  0  0
  -23.6150   -8.2510   22.2200 C   0  0  0  0  0  3  0  0  0  0  0  0
  -22.4530   -8.0050   21.4500 C   0  0  0  0  0  0  0  0  0  0  0  0
  -22.0450   -8.9600   20.5020 C   0  0  0  0  0  3  0  0  0  0  0  0
  -22.7660  -10.1540   20.3330 C   0  0  0  0  0  3  0  0  0  0  0  0
  -21.7040   -6.8550   21.5270 O   0  0  0  0  0  0  0  0  0  0  0  0
  -21.6690   -6.0950   22.6690 C   0  0  0  0  0  0  0  0  0  0  0  0
  -21.2570   -6.6310   23.9080 C   0  0  0  0  0  3  0  0  0  0  0  0
  -21.1670   -5.7980   25.0410 C   0  0  0  0  0  3  0  0  0  0  0  0
  -21.4800   -4.4290   24.9360 C   0  0  0  0  0  0  0  0  0  0  0  0
  -21.8850   -3.8920   23.7020 C   0  0  0  0  0  3  0  0  0  0  0  0
  -21.9770   -4.7230   22.5700 C   0  0  0  0  0  0  0  0  0  0  0  0
  -22.3460   -4.1960   21.3780 F   0  0  0  0  0  0  0  0  0  0  0  0
  -21.3880   -3.6260   26.0220 F   0  0  0  0  0  0  0  0  0  0  0  0
  -22.7320  -13.4960   21.1640 C   0  0  0  0  0  0  0  0  0  0  0  0
  -21.9870  -12.8020   22.0180 N   0  0  0  0  0  0  0  0  0  0  0  0
  -22.2990  -14.5090   20.6160 O   0  0  0  0  0  0  0  0  0  0  0  0
  -22.3490  -11.9840   22.4840 H   0  0  0  0  0  0  0  0  0  0  0  0
  -21.0390  -13.0940   22.2080 H   0  0  0  0  0  0  0  0  0  0  0  0
  -25.3580  -15.1920   20.4150 N   0  0  0  0  0  0  0  0  0  0  0  0
  -24.5790  -15.8360   20.4990 H   0  0  0  0  0  0  0  0  0  0  0  0
  -26.2080  -15.6370   20.0950 H   0  0  0  0  0  0  0  0  0  0  0  0
  -28.8000  -22.9050   20.4990 C   0  0  0  0  0  3  0  0  0  0  0  0
  -28.0590  -24.4300   19.9460 C   0  0  0  0  0  3  0  0  0  0  0  0
  -28.2520  -26.0070   20.2960 O   0  0  0  0  0  0  0  0  0  0  0  0
  -24.6190  -31.8850   23.1950 C   0  0  0  0  0  0  0  0  0  0  0  0
  -27.2280  -27.0700   20.1970 C   0  0  0  0  0  0  0  0  0  0  0  0
  -23.4430  -30.4840   21.5470 C   0  0  0  0  0  3  0  0  0  0  0  0
  -24.9120  -28.8980   20.1300 C   0  0  0  0  0  0  0  0  0  0  0  0
  -26.0040  -30.7270   21.4140 C   0  0  0  0  0  2  0  0  0  0  0  0
  -26.0880  -29.3220   20.7590 C   0  0  0  0  0  0  0  0  0  0  0  0
  -27.2430  -28.4270   20.7700 C   0  0  0  0  0  3  0  0  0  0  0  0
  -26.0240  -26.7860   19.5150 C   0  0  0  0  0  3  0  0  0  0  0  0
  -24.9010  -27.6510   19.4870 C   0  0  0  0  0  3  0  0  0  0  0  0
  -23.6840  -29.8050   20.1710 C   0  0  0  0  0  2  0  0  0  0  0  0
  -24.7100  -31.0580   22.1050 N   0  0  0  0  0  0  0  0  0  0  0  0
  -23.5250  -32.1680   23.7110 O   0  0  0  0  0  0  0  0  0  0  0  0
  -22.7530  -29.4810   22.5060 C   0  0  0  0  0  0  0  0  0  0  0  0
  -21.4210  -29.3210   22.3850 N   0  0  0  0  0  0  0  0  0  0  0  0
  -23.4190  -28.8460   23.3270 O   0  0  0  0  0  0  0  0  0  0  0  0
  -20.9370  -29.8840   21.7000 H   0  0  0  0  0  0  0  0  0  0  0  0
  -18.0320  -28.1440   22.9110 C   0  0  0  0  0  0  0  0  0  0  0  0
  -20.5970  -28.3810   23.1510 C   0  0  0  0  0  3  0  0  0  0  0  0
  -20.6780  -26.9560   22.5560 C   0  0  0  0  0  2  0  0  0  0  0  0
  -19.5620  -26.6580   21.5490 C   0  0  0  0  0  2  0  0  0  0  0  0
  -18.1890  -26.8050   22.2110 C   0  0  0  0  0  2  0  0  0  0  0  0
  -19.1620  -28.8920   23.3380 C   0  0  0  0  0  0  0  0  0  0  0  0
  -18.9590  -30.1440   23.9570 C   0  0  0  0  0  3  0  0  0  0  0  0
  -17.6590  -30.6500   24.1500 C   0  0  0  0  0  3  0  0  0  0  0  0
  -16.5440  -29.9010   23.7360 C   0  0  0  0  0  3  0  0  0  0  0  0
  -16.7320  -28.6490   23.1230 C   0  0  0  0  0  3  0  0  0  0  0  0
  -25.8830  -32.5350   23.8370 C   0  0  0  0  0  3  0  0  0  0  0  0
  -25.5560  -33.9320   24.1670 N   0  0  0  0  0  0  0  0  0  0  0  0
  -25.8880  -34.9960   23.4220 C   0  0  0  0  0  0  0  0  0  0  0  0
  -26.5640  -34.9020   22.3940 O   0  0  0  0  0  0  0  0  0  0  0  0
  -24.9560  -34.0770   24.9660 H   0  0  0  0  0  0  0  0  0  0  0  0
  -24.1480  -36.7840   23.0850 C   0  0  0  0  0  1  0  0  0  0  0  0
  -25.3940  -36.3800   23.8880 C   0  0  0  0  0  3  0  0  0  0  0  0
  -27.5260  -37.2780   24.7160 C   0  0  0  0  0  1  0  0  0  0  0  0
  -26.4200  -37.4410   23.7770 N   0  0  0  0  0  0  0  0  0  0  0  0
  -26.0080  -38.3570   23.9280 H   0  0  0  0  0  0  0  0  0  0  0  0
  -26.3830  -31.7720   25.1260 C   0  0  1  0  0  0  0  0  0  0  0  0
  -25.2760  -31.5390   26.1810 C   0  0  0  0  0  1  0  0  0  0  0  0
  -26.9740  -30.3930   24.7590 C   0  0  0  0  0  1  0  0  0  0  0  0
  -27.5230  -32.5730   25.7990 C   0  0  0  0  0  1  0  0  0  0  0  0
  1 49  1  0
  1  8  1  0
  2  3  1  0
  4  7  1  0
  5  2  1  0
  5  6  1  0
  5  4  1  0
  6  3  1  0
  6  7  1  0
  7  1  1  0
  8  9  1  0
  8 10  1  0
 11  8  1  0
 11 12  1  0
 13 19  1  0
 13 12  1  0
 14 19  1  0
 15 16  1  0
 15 14  1  0
 17 16  1  0
 17 24  1  0
 17 18  1  0
 19 18  1  0
 20 13  2  0
 21 22  2  0
 22 41  1  0
 23 22  1  0
 23 26  1  0
 24 21  1  0
 24 25  1  0
 25 23  2  0
 26 27  1  0
 27 28  2  0
 29 32  1  0
 29 28  1  0
 30 29  2  0
 31 30  1  0
 31 26  2  0
 32 33  1  0
 33 34  1  0
 34 35  2  0
 36 35  1  0
 36 40  1  0
 37 36  2  0
 38 33  2  0
 38 37  1  0
 39 38  1  0
 41 42  1  0
 42 45  1  0
 42 44  1  0
 43 41  2  0
 46 47  1  0
 46 21  1  0
 48 46  1  0
 50 51  1  0
 50 49  2  0
 52 63  2  0
 53 51  1  0
 53 58  1  0
 54 62  1  0
 54 64  1  0
 55 61  1  0
 55 57  1  0
 56 62  1  0
 57 58  2  0
 57 56  1  0
 59 53  2  0
 60 59  1  0
 60 55  2  0
 61 54  1  0
 62 52  1  0
 64 66  2  0
 65 64  1  0
 67 65  1  0
 68 77  2  0
 68 73  1  0
 69 65  1  0
 69 73  1  0
 70 69  1  0
 71 72  1  0
 71 70  1  0
 72 68  1  0
 73 74  2  0
 74 75  1  0
 76 75  2  0
 77 76  1  0
 78 52  1  0
 78 79  1  0
 78 88  1  0
 79 82  1  0
 80 84  1  0
 80 79  1  0
 81 80  2  0
 84 83  1  0
 86 84  1  0
 86 87  1  0
 86 85  1  0
 88 91  1  1
 88 89  1  0
 90 88  1  0
M  ISO  4  12 100  13 100  50 101  51 101
M  END
>  <TORSDO>  (64) 
F 22

>  <SCORE>  (64) 
-15.168

>  <name>  (64) 
64

>  <ligand_id>  (64) 
64

>  <original_smiles>  (64) 
[H]C1=C([H])C2([H])C1([H])C([H])([H])C2([H])C([H])(C([H])([H])C([H])([H])Oc1c([H])c([H])c2c(c1[H])C([H])([H])N(C(=O)C([H])(N([H])C(=O)C([H])(N([H])C([H])([H])[H])C([H])([H])[H])C(C([H])([H])[H])(C([H])([H])[H])C([H])([H])[H])C([H])(C(=O)N([H])C1([H])c3c([H])c([H])c([H])c([H])c3C([H])([H])C([H])([H])C1([H])[H])C2([H])[H])[N+]([H])([H])C([H])([H])C([H])([H])C(=O)N1C([H])([H])C([H])([H])C([H])([H])C([H])(n2nc(-c3c([H])c([H])c(Oc4c([H])c([H])c(F)c([H])c4F)c([H])c3[H])c(C(=O)N([H])[H])c2N([H])[H])C1([H])[H]

>  <smiles>  (64) 
[H]C1=C([H])C2([H])C1([H])C([H])([H])C2([H])C([H])(C([H])([H])C([H])([H])Oc1c([H])c([H])c2c(c1[H])C([H])([H])N(C(=O)C([H])(N([H])C(=O)C([H])(N([H])C([H])([H])[H])C([H])([H])[H])C(C([H])([H])[H])(C([H])([H])[H])C([H])([H])[H])C([H])(C(=O)N([H])C1([H])c3c([H])c([H])c([H])c([H])c3C([H])([H])C([H])([H])C1([H])[H])C2([H])[H])[N+]([H])([H])C([H])([H])C([H])([H])C(=O)N1C([H])([H])C([H])([H])C([H])([H])C([H])(n2nc(-c3c([H])c([H])c(Oc4c([H])c([H])c(F)c([H])c4F)c([H])c3[H])c(C(=O)N([H])[H])c2N([H])[H])C1([H])[H]

$$$$
65:0:0
     RDKit          3D

 87 95  0  0  1  0  0  0  0  0999 V2000
  -29.4200  -21.2090   20.3870 C   0  0  0  0  0  2  0  0  0  0  0  0
  -30.2040  -18.4480   19.7860 C   0  0  0  0  0  0  0  0  0  0  0  0
  -27.6470  -17.9830   20.7650 C   0  0  0  0  0  2  0  0  0  0  0  0
  -28.3550  -16.6640   20.3400 C   0  0  0  0  0  2  0  0  0  0  0  0
  -27.9110  -19.1950   19.8290 C   0  0  0  0  0  2  0  0  0  0  0  0
  -29.6840  -16.8090   19.5540 C   0  0  0  0  0  3  0  0  0  0  0  0
  -29.3160  -19.6280   19.8560 N   0  0  0  0  0  0  0  0  0  0  0  0
  -31.4150  -18.6340   19.9290 O   0  0  0  0  0  0  0  0  0  0  0  0
  -30.6000  -15.3050   19.5170 C   0  0  0  0  0  0  0  0  0  0  0  0
  -30.5850  -12.7840   18.8630 C   0  0  0  0  0  2  0  0  0  0  0  0
  -29.5910  -12.5030   17.7030 C   0  0  0  0  0  2  0  0  0  0  0  0
  -28.1560  -12.2920   18.2250 C   0  0  0  0  0  2  0  0  0  0  0  0
  -27.7790  -13.3360   19.3060 C   0  0  0  0  0  3  0  0  0  0  0  0
  -28.8900  -13.5090   20.3600 C   0  0  0  0  0  2  0  0  0  0  0  0
  -30.0950  -13.9760   19.6480 N   0  0  0  0  0  0  0  0  0  0  0  0
  -31.8000  -15.3040   19.1950 O   0  0  0  0  0  0  0  0  0  0  0  0
  -25.4950  -13.9910   20.2440 C   0  0  0  0  0  0  0  0  0  0  0  0
  -24.4290  -13.2570   20.6820 C   0  0  0  0  0  0  0  0  0  0  0  0
  -24.8210  -11.8890   20.5760 C   0  0  0  0  0  0  0  0  0  0  0  0
  -26.4730  -13.0740   19.9020 N   0  0  0  0  0  0  0  0  0  0  0  0
  -26.0820  -11.8000   20.1660 N   0  0  0  0  0  0  0  0  0  0  0  0
  -24.0420  -10.6590   20.7830 C   0  0  0  0  0  0  0  0  0  0  0  0
  -24.4580   -9.6660   21.6970 C   0  0  0  0  0  3  0  0  0  0  0  0
  -23.6770   -8.5060   21.8960 C   0  0  0  0  0  3  0  0  0  0  0  0
  -22.4670   -8.3320   21.1810 C   0  0  0  0  0  0  0  0  0  0  0  0
  -22.0700   -9.3150   20.2580 C   0  0  0  0  0  3  0  0  0  0  0  0
  -22.8510  -10.4650   20.0560 C   0  0  0  0  0  3  0  0  0  0  0  0
  -21.6590   -7.2260   21.2910 O   0  0  0  0  0  0  0  0  0  0  0  0
  -21.5680   -6.5140   22.4600 C   0  0  0  0  0  0  0  0  0  0  0  0
  -21.1600   -7.1180   23.6700 C   0  0  0  0  0  3  0  0  0  0  0  0
  -21.0130   -6.3340   24.8330 C   0  0  0  0  0  3  0  0  0  0  0  0
  -21.2640   -4.9500   24.7850 C   0  0  0  0  0  0  0  0  0  0  0  0
  -21.6640   -4.3470   23.5810 C   0  0  0  0  0  3  0  0  0  0  0  0
  -21.8130   -5.1260   22.4200 C   0  0  0  0  0  0  0  0  0  0  0  0
  -22.1790   -4.5380   21.2560 F   0  0  0  0  0  0  0  0  0  0  0  0
  -21.1150   -4.1950   25.9000 F   0  0  0  0  0  0  0  0  0  0  0  0
  -23.0850  -13.7980   21.0740 C   0  0  0  0  0  0  0  0  0  0  0  0
  -22.4010  -13.1280   21.9940 N   0  0  0  0  0  0  0  0  0  0  0  0
  -22.6580  -14.8490   20.6000 O   0  0  0  0  0  0  0  0  0  0  0  0
  -22.7640  -12.2770   22.3970 H   0  0  0  0  0  0  0  0  0  0  0  0
  -21.5030  -13.4750   22.3020 H   0  0  0  0  0  0  0  0  0  0  0  0
  -25.6910  -15.3570   20.0760 N   0  0  0  0  0  0  0  0  0  0  0  0
  -24.9390  -16.0170   20.2400 H   0  0  0  0  0  0  0  0  0  0  0  0
  -26.4970  -15.7770   19.6320 H   0  0  0  0  0  0  0  0  0  0  0  0
  -28.9070  -22.8100   19.7590 C   0  0  0  0  0  2  0  0  0  0  0  0
  -28.3590  -24.3430   20.5250 C   0  0  0  0  0  2  0  0  0  0  0  0
  -28.4760  -25.9610   20.2600 O   0  0  0  0  0  0  0  0  0  0  0  0
  -24.6340  -31.7850   23.1560 C   0  0  0  0  0  0  0  0  0  0  0  0
  -27.4040  -26.9900   20.2450 C   0  0  0  0  0  0  0  0  0  0  0  0
  -23.5220  -30.3520   21.4900 C   0  0  0  0  0  3  0  0  0  0  0  0
  -25.0500  -28.7840   20.1200 C   0  0  0  0  0  0  0  0  0  0  0  0
  -26.0810  -30.6460   21.4020 C   0  0  0  0  0  2  0  0  0  0  0  0
  -26.2080  -29.2340   20.7650 C   0  0  0  0  0  0  0  0  0  0  0  0
  -27.3840  -28.3610   20.7970 C   0  0  0  0  0  3  0  0  0  0  0  0
  -26.2100  -26.6790   19.5570 C   0  0  0  0  0  3  0  0  0  0  0  0
  -25.0730  -27.5250   19.4950 C   0  0  0  0  0  3  0  0  0  0  0  0
  -23.8090  -29.6750   20.1210 C   0  0  0  0  0  2  0  0  0  0  0  0
  -24.7650  -30.9540   22.0720 N   0  0  0  0  0  0  0  0  0  0  0  0
  -23.5250  -32.0410   23.6500 O   0  0  0  0  0  0  0  0  0  0  0  0
  -22.8340  -29.3370   22.4420 C   0  0  0  0  0  0  0  0  0  0  0  0
  -21.5100  -29.1450   22.2960 N   0  0  0  0  0  0  0  0  0  0  0  0
  -23.4990  -28.7220   23.2800 O   0  0  0  0  0  0  0  0  0  0  0  0
  -21.0220  -29.6980   21.6020 H   0  0  0  0  0  0  0  0  0  0  0  0
  -18.1400  -27.8860   22.7720 C   0  0  0  0  0  0  0  0  0  0  0  0
  -20.6950  -28.1870   23.0520 C   0  0  0  0  0  3  0  0  0  0  0  0
  -20.8220  -26.7630   22.4640 C   0  0  0  0  0  2  0  0  0  0  0  0
  -19.7290  -26.4340   21.4390 C   0  0  0  0  0  2  0  0  0  0  0  0
  -18.3410  -26.5490   22.0770 C   0  0  0  0  0  2  0  0  0  0  0  0
  -19.2450  -28.6610   23.2170 C   0  0  0  0  0  0  0  0  0  0  0  0
  -19.0030  -29.9090   23.8310 C   0  0  0  0  0  3  0  0  0  0  0  0
  -17.6900  -30.3850   24.0020 C   0  0  0  0  0  3  0  0  0  0  0  0
  -16.6000  -29.6090   23.5700 C   0  0  0  0  0  3  0  0  0  0  0  0
  -16.8260  -28.3620   22.9610 C   0  0  0  0  0  3  0  0  0  0  0  0
  -25.8700  -32.4650   23.8180 C   0  0  0  0  0  3  0  0  0  0  0  0
  -26.3490  -31.7320   25.1320 C   0  0  1  0  0  0  0  0  0  0  0  0
  -25.2160  -31.4840   26.1570 C   0  0  0  0  0  1  0  0  0  0  0  0
  -26.9860  -30.3640   24.7980 C   0  0  0  0  0  1  0  0  0  0  0  0
  -27.4470  -32.5700   25.8290 C   0  0  0  0  0  1  0  0  0  0  0  0
  -25.5120  -33.8620   24.1210 N   0  0  0  0  0  0  0  0  0  0  0  0
  -25.8320  -34.9170   23.3600 C   0  0  0  0  0  0  0  0  0  0  0  0
  -26.5230  -34.8200   22.3440 O   0  0  0  0  0  0  0  0  0  0  0  0
  -24.9020  -34.0100   24.9110 H   0  0  0  0  0  0  0  0  0  0  0  0
  -24.0680  -36.6730   22.9680 C   0  0  0  0  0  1  0  0  0  0  0  0
  -25.3070  -36.3020   23.7980 C   0  0  0  0  0  3  0  0  0  0  0  0
  -27.4070  -37.2540   24.6450 C   0  0  0  0  0  1  0  0  0  0  0  0
  -26.3150  -37.3790   23.6840 N   0  0  0  0  0  0  0  0  0  0  0  0
  -25.8840  -38.2910   23.8110 H   0  0  0  0  0  0  0  0  0  0  0  0
  2  7  1  0
  2  8  2  0
  4  3  1  0
  5  7  1  0
  5  3  1  0
  6  9  1  0
  6  2  1  0
  6  4  1  0
  7  1  1  0
  9 15  1  0
 10 15  1  0
 11 12  1  0
 11 10  1  0
 13 12  1  0
 13 20  1  0
 13 14  1  0
 15 14  1  0
 16  9  2  0
 17 18  2  0
 18 37  1  0
 19 18  1  0
 19 22  1  0
 20 21  1  0
 20 17  1  0
 21 19  2  0
 22 23  1  0
 23 24  2  0
 25 28  1  0
 25 24  1  0
 26 25  2  0
 27 26  1  0
 27 22  2  0
 28 29  1  0
 29 30  1  0
 30 31  2  0
 32 31  1  0
 32 36  1  0
 33 32  2  0
 34 29  2  0
 34 33  1  0
 35 34  1  0
 37 38  1  0
 38 41  1  0
 38 40  1  0
 39 37  2  0
 42 43  1  0
 42 17  1  0
 44 42  1  0
 45  1  1  0
 45 46  1  0
 47 46  1  0
 48 59  2  0
 49 47  1  0
 49 54  1  0
 50 58  1  0
 50 60  1  0
 51 57  1  0
 51 53  1  0
 52 58  1  0
 53 54  2  0
 53 52  1  0
 55 49  2  0
 56 55  1  0
 56 51  2  0
 57 50  1  0
 58 48  1  0
 60 62  2  0
 61 60  1  0
 63 61  1  0
 64 73  2  0
 64 69  1  0
 65 61  1  0
 65 69  1  0
 66 65  1  0
 67 68  1  0
 67 66  1  0
 68 64  1  0
 69 70  2  0
 70 71  1  0
 72 71  2  0
 73 72  1  0
 74 48  1  0
 74 79  1  0
 74 75  1  0
 75 78  1  1
 75 76  1  0
 77 75  1  0
 79 82  1  0
 80 84  1  0
 80 79  1  0
 81 80  2  0
 84 83  1  0
 86 84  1  0
 86 87  1  0
 86 85  1  0
M  ISO  4   6 100   9 100  46 101  47 101
M  END
>  <TORSDO>  (65) 
F 19

>  <SCORE>  (65) 
-15.175

>  <name>  (65) 
65

>  <ligand_id>  (65) 
65

>  <original_smiles>  (65) 
[H]c1c([H])c([H])c2c(c1[H])C([H])([H])C([H])([H])C([H])([H])C2([H])N([H])C(=O)C1([H])N(C(=O)C([H])(N([H])C(=O)C([H])(N([H])C([H])([H])[H])C([H])([H])[H])C(C([H])([H])[H])(C([H])([H])[H])C([H])([H])[H])C([H])([H])c2c([H])c(OC([H])([H])C([H])([H])C([H])([H])N3C(=O)C([H])(C(=O)N4C([H])([H])C([H])([H])C([H])([H])C([H])(n5nc(-c6c([H])c([H])c(Oc7c([H])c([H])c(F)c([H])c7F)c([H])c6[H])c(C(=O)N([H])[H])c5N([H])[H])C4([H])[H])C([H])([H])C([H])([H])C3([H])[H])c([H])c([H])c2C1([H])[H]

>  <smiles>  (65) 
[H]c1c([H])c([H])c2c(c1[H])C([H])([H])C([H])([H])C([H])([H])C2([H])N([H])C(=O)C1([H])N(C(=O)C([H])(N([H])C(=O)C([H])(N([H])C([H])([H])[H])C([H])([H])[H])C(C([H])([H])[H])(C([H])([H])[H])C([H])([H])[H])C([H])([H])c2c([H])c(OC([H])([H])C([H])([H])C([H])([H])N3C(=O)C([H])(C(=O)N4C([H])([H])C([H])([H])C([H])([H])C([H])(n5nc(-c6c([H])c([H])c(Oc7c([H])c([H])c(F)c([H])c7F)c([H])c6[H])c(C(=O)N([H])[H])c5N([H])[H])C4([H])[H])C([H])([H])C([H])([H])C3([H])[H])c([H])c([H])c2C1([H])[H]

$$$$
66:0:0
     RDKit          3D

 87 94  0  0  1  0  0  0  0  0999 V2000
  -28.9980  -21.4160   20.6880 C   0  0  0  0  0  2  0  0  0  0  0  0
  -28.7100  -22.9980   19.9730 C   0  0  0  0  0  2  0  0  0  0  0  0
  -28.1070  -24.4990   20.6550 C   0  0  0  0  0  2  0  0  0  0  0  0
  -28.2780  -26.0560   20.2860 O   0  0  0  0  0  0  0  0  0  0  0  0
  -24.6210  -31.8900   23.2370 C   0  0  0  0  0  0  0  0  0  0  0  0
  -27.2240  -27.0760   20.2810 C   0  0  0  0  0  0  0  0  0  0  0  0
  -23.4410  -30.4820   21.5960 C   0  0  0  0  0  3  0  0  0  0  0  0
  -24.9050  -28.8800   20.2030 C   0  0  0  0  0  0  0  0  0  0  0  0
  -26.0020  -30.7250   21.4610 C   0  0  0  0  0  2  0  0  0  0  0  0
  -26.0840  -29.3170   20.8210 C   0  0  0  0  0  0  0  0  0  0  0  0
  -27.2450  -28.4370   20.8310 C   0  0  0  0  0  3  0  0  0  0  0  0
  -26.0150  -26.7590   19.6280 C   0  0  0  0  0  3  0  0  0  0  0  0
  -24.8890  -27.6180   19.5880 C   0  0  0  0  0  3  0  0  0  0  0  0
  -23.6810  -29.7890   20.2280 C   0  0  0  0  0  2  0  0  0  0  0  0
  -24.7090  -31.0580   22.1520 N   0  0  0  0  0  0  0  0  0  0  0  0
  -23.5280  -32.1780   23.7500 O   0  0  0  0  0  0  0  0  0  0  0  0
  -22.7480  -29.4860   22.5610 C   0  0  0  0  0  0  0  0  0  0  0  0
  -21.4190  -29.3220   22.4300 N   0  0  0  0  0  0  0  0  0  0  0  0
  -23.4100  -28.8620   23.3930 O   0  0  0  0  0  0  0  0  0  0  0  0
  -20.9380  -29.8760   21.7340 H   0  0  0  0  0  0  0  0  0  0  0  0
  -18.0280  -28.1390   22.9340 C   0  0  0  0  0  0  0  0  0  0  0  0
  -20.5890  -28.3900   23.2000 C   0  0  0  0  0  3  0  0  0  0  0  0
  -20.6830  -26.9570   22.6260 C   0  0  0  0  0  2  0  0  0  0  0  0
  -19.5800  -26.6400   21.6110 C   0  0  0  0  0  2  0  0  0  0  0  0
  -18.1990  -26.7910   22.2550 C   0  0  0  0  0  2  0  0  0  0  0  0
  -19.1510  -28.8960   23.3640 C   0  0  0  0  0  0  0  0  0  0  0  0
  -18.9370  -30.1570   23.9620 C   0  0  0  0  0  3  0  0  0  0  0  0
  -17.6330  -30.6620   24.1330 C   0  0  0  0  0  3  0  0  0  0  0  0
  -16.5250  -29.9020   23.7170 C   0  0  0  0  0  3  0  0  0  0  0  0
  -16.7250  -28.6420   23.1240 C   0  0  0  0  0  3  0  0  0  0  0  0
  -25.8890  -32.5360   23.8750 C   0  0  0  0  0  3  0  0  0  0  0  0
  -26.3800  -31.7840   25.1750 C   0  0  1  0  0  0  0  0  0  0  0  0
  -25.2660  -31.5670   26.2260 C   0  0  0  0  0  1  0  0  0  0  0  0
  -26.9660  -30.3990   24.8220 C   0  0  0  0  0  1  0  0  0  0  0  0
  -27.5200  -32.5870   25.8440 C   0  0  0  0  0  1  0  0  0  0  0  0
  -25.5710  -33.9390   24.1890 N   0  0  0  0  0  0  0  0  0  0  0  0
  -25.9130  -34.9910   23.4330 C   0  0  0  0  0  0  0  0  0  0  0  0
  -26.5930  -34.8810   22.4090 O   0  0  0  0  0  0  0  0  0  0  0  0
  -24.9670  -34.0970   24.9830 H   0  0  0  0  0  0  0  0  0  0  0  0
  -24.1940  -36.7920   23.0560 C   0  0  0  0  0  1  0  0  0  0  0  0
  -25.4260  -36.3840   23.8810 C   0  0  0  0  0  3  0  0  0  0  0  0
  -27.5520  -37.2710   24.7310 C   0  0  0  0  0  1  0  0  0  0  0  0
  -26.4620  -37.4340   23.7730 N   0  0  0  0  0  0  0  0  0  0  0  0
  -26.0570  -38.3560   23.9080 H   0  0  0  0  0  0  0  0  0  0  0  0
  -29.0910  -19.7980   20.0040 C   0  0  0  0  0  2  0  0  0  0  0  0
  -29.8840  -18.3190   20.5480 C   0  0  0  0  0  3  0  0  0  0  0  0
  -31.3320  -18.5150   20.3470 N   0  0  0  0  0  4  0  0  0  0  0  0
  -31.5630  -18.5060   19.3700 H   0  0  0  0  0  0  0  0  0  0  0  0
  -31.8580  -17.7890   20.8020 H   0  0  0  0  0  0  0  0  0  0  0  0
  -31.6230  -19.3950   20.7320 H   0  0  0  0  0  0  0  0  0  0  0  0
  -29.5010  -16.6380   20.1920 C   0  0  0  0  0  2  0  0  0  0  0  0
  -30.4020  -15.1720   20.1890 C   0  0  0  0  0  0  0  0  0  0  0  0
  -30.3770  -12.7670   19.2870 C   0  0  0  0  0  2  0  0  0  0  0  0
  -29.4300  -12.6610   18.0650 C   0  0  0  0  0  2  0  0  0  0  0  0
  -27.9760  -12.4080   18.5130 C   0  0  0  0  0  2  0  0  0  0  0  0
  -27.5600  -13.3330   19.6840 C   0  0  0  0  0  3  0  0  0  0  0  0
  -28.6270  -13.3960   20.7930 C   0  0  0  0  0  2  0  0  0  0  0  0
  -29.8760  -13.8630   20.1770 N   0  0  0  0  0  0  0  0  0  0  0  0
  -31.6180  -15.2240   19.9590 O   0  0  0  0  0  0  0  0  0  0  0  0
  -25.1910  -13.8780   20.4710 C   0  0  0  0  0  0  0  0  0  0  0  0
  -24.1400  -13.0920   20.8530 C   0  0  0  0  0  0  0  0  0  0  0  0
  -24.6190  -11.7460   20.8130 C   0  0  0  0  0  0  0  0  0  0  0  0
  -26.2380  -13.0120   20.2070 N   0  0  0  0  0  0  0  0  0  0  0  0
  -25.9060  -11.7230   20.4820 N   0  0  0  0  0  0  0  0  0  0  0  0
  -23.9040  -10.4760   21.0090 C   0  0  0  0  0  0  0  0  0  0  0  0
  -24.3500   -9.5140   21.9420 C   0  0  0  0  0  3  0  0  0  0  0  0
  -23.6340   -8.3110   22.1260 C   0  0  0  0  0  3  0  0  0  0  0  0
  -22.4580   -8.0630   21.3780 C   0  0  0  0  0  0  0  0  0  0  0  0
  -22.0330   -9.0140   20.4350 C   0  0  0  0  0  3  0  0  0  0  0  0
  -22.7490  -10.2070   20.2480 C   0  0  0  0  0  3  0  0  0  0  0  0
  -21.7130   -6.9120   21.4720 O   0  0  0  0  0  0  0  0  0  0  0  0
  -21.6710   -6.1730   22.6270 C   0  0  0  0  0  0  0  0  0  0  0  0
  -21.2260   -6.7240   23.8490 C   0  0  0  0  0  3  0  0  0  0  0  0
  -21.1330   -5.9110   24.9960 C   0  0  0  0  0  3  0  0  0  0  0  0
  -21.4750   -4.5480   24.9230 C   0  0  0  0  0  0  0  0  0  0  0  0
  -21.9140   -3.9960   23.7060 C   0  0  0  0  0  3  0  0  0  0  0  0
  -22.0080   -4.8060   22.5610 C   0  0  0  0  0  0  0  0  0  0  0  0
  -22.4100   -4.2640   21.3860 F   0  0  0  0  0  0  0  0  0  0  0  0
  -21.3790   -3.7640   26.0220 F   0  0  0  0  0  0  0  0  0  0  0  0
  -22.7430  -13.5560   21.1420 C   0  0  0  0  0  0  0  0  0  0  0  0
  -22.0290  -12.8480   22.0100 N   0  0  0  0  0  0  0  0  0  0  0  0
  -22.2930  -14.5810   20.6330 O   0  0  0  0  0  0  0  0  0  0  0  0
  -22.4060  -12.0180   22.4440 H   0  0  0  0  0  0  0  0  0  0  0  0
  -21.0920  -13.1420   22.2470 H   0  0  0  0  0  0  0  0  0  0  0  0
  -25.3390  -15.2520   20.2980 N   0  0  0  0  0  0  0  0  0  0  0  0
  -24.5680  -15.8970   20.4250 H   0  0  0  0  0  0  0  0  0  0  0  0
  -26.1770  -15.7000   19.9510 H   0  0  0  0  0  0  0  0  0  0  0  0
  2  3  1  0
  2  1  1  0
  4  3  1  0
  5 16  2  0
  6  4  1  0
  6 11  1  0
  7 15  1  0
  7 17  1  0
  8 14  1  0
  8 10  1  0
  9 15  1  0
 10 11  2  0
 10  9  1  0
 12  6  2  0
 13 12  1  0
 13  8  2  0
 14  7  1  0
 15  5  1  0
 17 19  2  0
 18 17  1  0
 20 18  1  0
 21 30  2  0
 21 26  1  0
 22 18  1  0
 22 26  1  0
 23 22  1  0
 24 25  1  0
 24 23  1  0
 25 21  1  0
 26 27  2  0
 27 28  1  0
 29 28  2  0
 30 29  1  0
 31  5  1  0
 31 36  1  0
 31 32  1  0
 32 35  1  1
 32 33  1  0
 34 32  1  0
 36 39  1  0
 37 41  1  0
 37 36  1  0
 38 37  2  0
 41 40  1  0
 43 41  1  0
 43 44  1  0
 43 42  1  0
 45  1  1  0
 46 45  1  0
 47 46  1  0
 47 50  1  0
 47 49  1  0
 48 47  1  0
 51 46  1  0
 52 51  1  0
 53 58  1  0
 54 55  1  0
 54 53  1  0
 56 55  1  0
 56 63  1  0
 56 57  1  0
 58 52  1  0
 58 57  1  0
 59 52  2  0
 60 61  2  0
 61 80  1  0
 62 61  1  0
 62 65  1  0
 63 60  1  0
 63 64  1  0
 64 62  2  0
 65 66  1  0
 66 67  2  0
 68 71  1  0
 68 67  1  0
 69 68  2  0
 70 69  1  0
 70 65  2  0
 71 72  1  0
 72 73  1  0
 73 74  2  0
 75 74  1  0
 75 79  1  0
 76 75  2  0
 77 72  2  0
 77 76  1  0
 78 77  1  0
 80 81  1  0
 81 84  1  0
 81 83  1  0
 82 80  2  0
 85 86  1  0
 85 60  1  0
 87 85  1  0
M  ISO  4   3 101   4 101  51 100  52 100
M  END
>  <TORSDO>  (66) 
F 22

>  <SCORE>  (66) 
-15.987

>  <name>  (66) 
66

>  <ligand_id>  (66) 
66

>  <original_smiles>  (66) 
[H]c1c([H])c([H])c2c(c1[H])C([H])([H])C([H])([H])C([H])([H])C2([H])N([H])C(=O)C1([H])N(C(=O)C([H])(N([H])C(=O)C([H])(N([H])C([H])([H])[H])C([H])([H])[H])C(C([H])([H])[H])(C([H])([H])[H])C([H])([H])[H])C([H])([H])c2c([H])c(OC([H])([H])C([H])([H])C([H])([H])C([H])([H])C([H])(C([H])([H])C(=O)N3C([H])([H])C([H])([H])C([H])([H])C([H])(n4nc(-c5c([H])c([H])c(Oc6c([H])c([H])c(F)c([H])c6F)c([H])c5[H])c(C(=O)N([H])[H])c4N([H])[H])C3([H])[H])[N+]([H])([H])[H])c([H])c([H])c2C1([H])[H]

>  <smiles>  (66) 
[H]c1c([H])c([H])c2c(c1[H])C([H])([H])C([H])([H])C([H])([H])C2([H])N([H])C(=O)C1([H])N(C(=O)C([H])(N([H])C(=O)C([H])(N([H])C([H])([H])[H])C([H])([H])[H])C(C([H])([H])[H])(C([H])([H])[H])C([H])([H])[H])C([H])([H])c2c([H])c(OC([H])([H])C([H])([H])C([H])([H])C([H])([H])C([H])(C([H])([H])C(=O)N3C([H])([H])C([H])([H])C([H])([H])C([H])(n4nc(-c5c([H])c([H])c(Oc6c([H])c([H])c(F)c([H])c6F)c([H])c5[H])c(C(=O)N([H])[H])c4N([H])[H])C3([H])[H])[N+]([H])([H])[H])c([H])c([H])c2C1([H])[H]

$$$$
67:0:0
     RDKit          3D

 87 95  0  0  1  0  0  0  0  0999 V2000
  -29.1620  -22.0360   20.4440 C   0  0  0  0  0  2  0  0  0  0  0  0
  -27.9850  -18.1900   20.3100 C   0  0  0  0  0  2  0  0  0  0  0  0
  -27.8040  -19.7290   20.5030 C   0  0  0  0  0  2  0  0  0  0  0  0
  -30.0890  -19.2750   20.0200 C   0  0  0  0  0  2  0  0  0  0  0  0
  -29.4880  -17.8000   20.4250 C   0  0  0  0  0  3  0  0  0  0  0  0
  -28.9800  -20.4790   19.8310 C   0  0  2  0  0  0  0  0  0  0  0  0
  -28.7130  -20.6130   18.3150 C   0  0  0  0  0  1  0  0  0  0  0  0
  -29.7800  -16.3340   19.6570 C   0  0  0  0  0  2  0  0  0  0  0  0
  -30.5880  -14.9520   20.0850 C   0  0  0  0  0  0  0  0  0  0  0  0
  -30.4370  -12.5780   19.2570 C   0  0  0  0  0  2  0  0  0  0  0  0
  -29.5030  -12.5430   18.0250 C   0  0  0  0  0  2  0  0  0  0  0  0
  -28.0330  -12.3670   18.4570 C   0  0  0  0  0  2  0  0  0  0  0  0
  -27.6420  -13.3070   19.6250 C   0  0  0  0  0  3  0  0  0  0  0  0
  -28.7050  -13.3450   20.7410 C   0  0  0  0  0  2  0  0  0  0  0  0
  -29.9940  -13.6970   20.1290 N   0  0  0  0  0  0  0  0  0  0  0  0
  -31.8170  -14.9790   19.9570 O   0  0  0  0  0  0  0  0  0  0  0  0
  -25.2900  -13.9360   20.4080 C   0  0  0  0  0  0  0  0  0  0  0  0
  -24.2150  -13.1810   20.7940 C   0  0  0  0  0  0  0  0  0  0  0  0
  -24.6540  -11.8230   20.7560 C   0  0  0  0  0  0  0  0  0  0  0  0
  -26.3090  -13.0350   20.1470 N   0  0  0  0  0  0  0  0  0  0  0  0
  -25.9400  -11.7600   20.4290 N   0  0  0  0  0  0  0  0  0  0  0  0
  -23.9080  -10.5750   20.9540 C   0  0  0  0  0  0  0  0  0  0  0  0
  -24.3350   -9.6010   21.8830 C   0  0  0  0  0  3  0  0  0  0  0  0
  -23.5910   -8.4140   22.0670 C   0  0  0  0  0  3  0  0  0  0  0  0
  -22.4070   -8.1960   21.3230 C   0  0  0  0  0  0  0  0  0  0  0  0
  -22.0020   -9.1570   20.3820 C   0  0  0  0  0  3  0  0  0  0  0  0
  -22.7440  -10.3360   20.1960 C   0  0  0  0  0  3  0  0  0  0  0  0
  -21.6340   -7.0630   21.4180 O   0  0  0  0  0  0  0  0  0  0  0  0
  -21.5820   -6.3240   22.5740 C   0  0  0  0  0  0  0  0  0  0  0  0
  -21.1690   -6.8890   23.7990 C   0  0  0  0  0  3  0  0  0  0  0  0
  -21.0620   -6.0770   24.9470 C   0  0  0  0  0  3  0  0  0  0  0  0
  -21.3510   -4.7020   24.8680 C   0  0  0  0  0  0  0  0  0  0  0  0
  -21.7530   -4.1370   23.6450 C   0  0  0  0  0  3  0  0  0  0  0  0
  -21.8660   -4.9450   22.5020 C   0  0  0  0  0  0  0  0  0  0  0  0
  -22.2350   -4.3930   21.3210 F   0  0  0  0  0  0  0  0  0  0  0  0
  -21.2420   -3.9210   25.9670 F   0  0  0  0  0  0  0  0  0  0  0  0
  -22.8330  -13.6830   21.0860 C   0  0  0  0  0  0  0  0  0  0  0  0
  -22.1060  -12.9970   21.9610 N   0  0  0  0  0  0  0  0  0  0  0  0
  -22.4070  -14.7160   20.5740 O   0  0  0  0  0  0  0  0  0  0  0  0
  -22.4670  -12.1600   22.3930 H   0  0  0  0  0  0  0  0  0  0  0  0
  -21.1750  -13.3080   22.1950 H   0  0  0  0  0  0  0  0  0  0  0  0
  -25.4840  -15.3020   20.2280 N   0  0  0  0  0  0  0  0  0  0  0  0
  -24.7440  -15.9870   20.3280 H   0  0  0  0  0  0  0  0  0  0  0  0
  -26.3500  -15.7070   19.8980 H   0  0  0  0  0  0  0  0  0  0  0  0
  -28.5930  -23.4670   19.7860 C   0  0  0  0  0  2  0  0  0  0  0  0
  -28.3230  -24.8620   20.6510 C   0  0  0  0  0  2  0  0  0  0  0  0
  -28.3790  -26.3210   20.1720 O   0  0  0  0  0  0  0  0  0  0  0  0
  -24.6030  -31.8600   23.1870 C   0  0  0  0  0  0  0  0  0  0  0  0
  -27.2620  -27.2090   20.2000 C   0  0  0  0  0  0  0  0  0  0  0  0
  -23.4280  -30.4540   21.5370 C   0  0  0  0  0  3  0  0  0  0  0  0
  -24.9010  -28.8790   20.1460 C   0  0  0  0  0  0  0  0  0  0  0  0
  -25.9740  -30.7570   21.3850 C   0  0  0  0  0  2  0  0  0  0  0  0
  -26.0670  -29.3620   20.7530 C   0  0  0  0  0  0  0  0  0  0  0  0
  -27.2510  -28.5440   20.7550 C   0  0  0  0  0  3  0  0  0  0  0  0
  -26.0670  -26.7980   19.5780 C   0  0  0  0  0  3  0  0  0  0  0  0
  -24.9080  -27.6090   19.5460 C   0  0  0  0  0  3  0  0  0  0  0  0
  -23.6690  -29.7700   20.1660 C   0  0  0  0  0  2  0  0  0  0  0  0
  -24.6880  -31.0470   22.0930 N   0  0  0  0  0  0  0  0  0  0  0  0
  -23.5110  -32.1360   23.7070 O   0  0  0  0  0  0  0  0  0  0  0  0
  -22.7470  -29.4470   22.4960 C   0  0  0  0  0  0  0  0  0  0  0  0
  -21.4180  -29.2800   22.3720 N   0  0  0  0  0  0  0  0  0  0  0  0
  -23.4180  -28.8150   23.3180 O   0  0  0  0  0  0  0  0  0  0  0  0
  -20.9320  -29.8410   21.6860 H   0  0  0  0  0  0  0  0  0  0  0  0
  -18.0330  -28.0990   22.8840 C   0  0  0  0  0  0  0  0  0  0  0  0
  -20.5950  -28.3440   23.1430 C   0  0  0  0  0  3  0  0  0  0  0  0
  -20.6850  -26.9150   22.5610 C   0  0  0  0  0  2  0  0  0  0  0  0
  -19.5740  -26.6020   21.5530 C   0  0  0  0  0  2  0  0  0  0  0  0
  -18.1960  -26.7520   22.2010 C   0  0  0  0  0  2  0  0  0  0  0  0
  -19.1570  -28.8530   23.3150 C   0  0  0  0  0  0  0  0  0  0  0  0
  -18.9460  -30.1120   23.9180 C   0  0  0  0  0  3  0  0  0  0  0  0
  -17.6430  -30.6140   24.1000 C   0  0  0  0  0  3  0  0  0  0  0  0
  -16.5340  -29.8580   23.6830 C   0  0  0  0  0  3  0  0  0  0  0  0
  -16.7300  -28.6050   23.0770 C   0  0  0  0  0  3  0  0  0  0  0  0
  -25.8680  -32.5090   23.8270 C   0  0  0  0  0  3  0  0  0  0  0  0
  -26.3780  -31.7400   25.1080 C   0  0  1  0  0  0  0  0  0  0  0  0
  -25.2750  -31.4890   26.1660 C   0  0  0  0  0  1  0  0  0  0  0  0
  -26.9780  -30.3700   24.7210 C   0  0  0  0  0  1  0  0  0  0  0  0
  -27.5180  -32.5390   25.7810 C   0  0  0  0  0  1  0  0  0  0  0  0
  -25.5380  -33.9040   24.1640 N   0  0  0  0  0  0  0  0  0  0  0  0
  -25.8580  -34.9680   23.4150 C   0  0  0  0  0  0  0  0  0  0  0  0
  -26.5280  -34.8800   22.3840 O   0  0  0  0  0  0  0  0  0  0  0  0
  -24.9480  -34.0430   24.9700 H   0  0  0  0  0  0  0  0  0  0  0  0
  -24.1140  -36.7490   23.0710 C   0  0  0  0  0  1  0  0  0  0  0  0
  -25.3570  -36.3500   23.8800 C   0  0  0  0  0  3  0  0  0  0  0  0
  -27.4840  -37.2530   24.7130 C   0  0  0  0  0  1  0  0  0  0  0  0
  -26.3800  -37.4140   23.7730 N   0  0  0  0  0  0  0  0  0  0  0  0
  -25.9650  -38.3300   23.9220 H   0  0  0  0  0  0  0  0  0  0  0  0
  2  5  1  0
  2  3  1  0
  4  5  1  0
  5  8  1  0
  6  7  1  6
  6  4  1  0
  6  1  1  0
  6  3  1  0
  8  9  1  0
  9 15  1  0
 10 15  1  0
 11 12  1  0
 11 10  1  0
 13 12  1  0
 13 20  1  0
 13 14  1  0
 15 14  1  0
 16  9  2  0
 17 18  2  0
 18 37  1  0
 19 18  1  0
 19 22  1  0
 20 17  1  0
 20 21  1  0
 21 19  2  0
 22 23  1  0
 23 24  2  0
 25 28  1  0
 25 24  1  0
 26 25  2  0
 27 26  1  0
 27 22  2  0
 28 29  1  0
 29 30  1  0
 30 31  2  0
 32 31  1  0
 32 36  1  0
 33 32  2  0
 34 29  2  0
 34 33  1  0
 35 34  1  0
 37 38  1  0
 38 41  1  0
 38 40  1  0
 39 37  2  0
 42 43  1  0
 42 17  1  0
 44 42  1  0
 45  1  1  0
 45 46  1  0
 47 49  1  0
 47 46  1  0
 48 59  2  0
 49 54  1  0
 50 58  1  0
 50 60  1  0
 51 57  1  0
 51 53  1  0
 52 58  1  0
 53 54  2  0
 53 52  1  0
 55 49  2  0
 56 55  1  0
 56 51  2  0
 57 50  1  0
 58 48  1  0
 60 62  2  0
 61 60  1  0
 63 61  1  0
 64 73  2  0
 64 69  1  0
 65 61  1  0
 65 69  1  0
 66 65  1  0
 67 68  1  0
 67 66  1  0
 68 64  1  0
 69 70  2  0
 70 71  1  0
 72 71  2  0
 73 72  1  0
 74 48  1  0
 74 79  1  0
 74 75  1  0
 75 78  1  1
 75 76  1  0
 77 75  1  0
 79 82  1  0
 80 84  1  0
 80 79  1  0
 81 80  2  0
 84 83  1  0
 86 84  1  0
 86 87  1  0
 86 85  1  0
M  ISO  4   8 100   9 100  46 101  47 101
M  END
>  <TORSDO>  (67) 
F 20

>  <SCORE>  (67) 
-13.672

>  <name>  (67) 
67

>  <ligand_id>  (67) 
67

>  <original_smiles>  (67) 
[H]c1c([H])c([H])c2c(c1[H])C([H])([H])C([H])([H])C([H])([H])C2([H])N([H])C(=O)C1([H])N(C(=O)C([H])(N([H])C(=O)C([H])(N([H])C([H])([H])[H])C([H])([H])[H])C(C([H])([H])[H])(C([H])([H])[H])C([H])([H])[H])C([H])([H])c2c([H])c(OC([H])([H])C([H])([H])C([H])([H])C3(C([H])([H])[H])C([H])([H])C([H])([H])C([H])(C([H])([H])C(=O)N4C([H])([H])C([H])([H])C([H])([H])C([H])(n5nc(-c6c([H])c([H])c(Oc7c([H])c([H])c(F)c([H])c7F)c([H])c6[H])c(C(=O)N([H])[H])c5N([H])[H])C4([H])[H])C3([H])[H])c([H])c([H])c2C1([H])[H]

>  <smiles>  (67) 
[H]c1c([H])c([H])c2c(c1[H])C([H])([H])C([H])([H])C([H])([H])C2([H])N([H])C(=O)C1([H])N(C(=O)C([H])(N([H])C(=O)C([H])(N([H])C([H])([H])[H])C([H])([H])[H])C(C([H])([H])[H])(C([H])([H])[H])C([H])([H])[H])C([H])([H])c2c([H])c(OC([H])([H])C([H])([H])C([H])([H])C3(C([H])([H])[H])C([H])([H])C([H])([H])C([H])(C([H])([H])C(=O)N4C([H])([H])C([H])([H])C([H])([H])C([H])(n5nc(-c6c([H])c([H])c(Oc7c([H])c([H])c(F)c([H])c7F)c([H])c6[H])c(C(=O)N([H])[H])c5N([H])[H])C4([H])[H])C3([H])[H])c([H])c([H])c2C1([H])[H]

$$$$
68:0:0
     RDKit          3D

 97106  0  0  1  0  0  0  0  0999 V2000
  -28.2670  -22.3700   23.0100 C   0  0  0  0  0  2  0  0  0  0  0  0
  -30.5890  -24.4460   20.8550 C   0  0  0  0  0  2  0  0  0  0  0  0
  -29.3650  -21.3560   22.7240 C   0  0  0  0  0  2  0  0  0  0  0  0
  -30.8900  -23.0350   21.4250 C   0  0  0  0  0  2  0  0  0  0  0  0
  -28.1070  -24.2080   21.1250 C   0  0  0  0  0  2  0  0  0  0  0  0
  -28.2840  -22.7380   21.5260 C   0  0  0  0  0  3  0  0  0  0  0  0
  -29.3280  -25.0630   21.4960 C   0  0  0  0  0  3  0  0  0  0  0  0
  -29.6810  -22.0570   21.3800 C   0  0  2  0  0  0  0  0  0  0  0  0
  -29.1210  -26.5870   21.2750 C   0  0  0  0  0  2  0  0  0  0  0  0
  -28.5350  -26.9300   20.0130 O   0  0  0  0  0  0  0  0  0  0  0  0
  -24.6580  -32.0050   23.2530 C   0  0  0  0  0  0  0  0  0  0  0  0
  -27.3820  -27.6800   20.0700 C   0  0  0  0  0  0  0  0  0  0  0  0
  -23.4660  -30.6060   21.5940 C   0  0  0  0  0  3  0  0  0  0  0  0
  -24.9430  -29.1170   20.1370 C   0  0  0  0  0  0  0  0  0  0  0  0
  -25.9800  -31.0200   21.3830 C   0  0  0  0  0  2  0  0  0  0  0  0
  -26.0920  -29.6620   20.7250 C   0  0  0  0  0  0  0  0  0  0  0  0
  -27.3130  -28.9480   20.6940 C   0  0  0  0  0  3  0  0  0  0  0  0
  -26.2190  -27.1510   19.4720 C   0  0  0  0  0  3  0  0  0  0  0  0
  -25.0000  -27.8570   19.5120 C   0  0  0  0  0  3  0  0  0  0  0  0
  -23.6760  -29.9420   20.2060 C   0  0  0  0  0  2  0  0  0  0  0  0
  -24.7200  -31.2260   22.1350 N   0  0  0  0  0  0  0  0  0  0  0  0
  -23.5760  -32.2450   23.8080 O   0  0  0  0  0  0  0  0  0  0  0  0
  -22.8420  -29.5600   22.5450 C   0  0  0  0  0  0  0  0  0  0  0  0
  -21.5280  -29.3270   22.3980 N   0  0  0  0  0  0  0  0  0  0  0  0
  -23.5400  -28.9600   23.3680 O   0  0  0  0  0  0  0  0  0  0  0  0
  -21.0290  -29.8700   21.7070 H   0  0  0  0  0  0  0  0  0  0  0  0
  -18.2080  -27.9620   22.8130 C   0  0  0  0  0  0  0  0  0  0  0  0
  -20.7410  -28.3540   23.1510 C   0  0  0  0  0  3  0  0  0  0  0  0
  -20.9310  -26.9270   22.5860 C   0  0  0  0  0  2  0  0  0  0  0  0
  -19.8740  -26.5380   21.5470 C   0  0  0  0  0  2  0  0  0  0  0  0
  -18.4700  -26.6190   22.1510 C   0  0  0  0  0  2  0  0  0  0  0  0
  -19.2740  -28.7830   23.2660 C   0  0  0  0  0  0  0  0  0  0  0  0
  -18.9760  -30.0370   23.8420 C   0  0  0  0  0  3  0  0  0  0  0  0
  -17.6440  -30.4750   23.9680 C   0  0  0  0  0  3  0  0  0  0  0  0
  -16.5920  -29.6520   23.5300 C   0  0  0  0  0  3  0  0  0  0  0  0
  -16.8740  -28.3970   22.9610 C   0  0  0  0  0  3  0  0  0  0  0  0
  -25.9390  -32.6500   23.8720 C   0  0  0  0  0  3  0  0  0  0  0  0
  -25.6220  -34.0500   24.1810 N   0  0  0  0  0  0  0  0  0  0  0  0
  -25.9550  -35.0920   23.4080 C   0  0  0  0  0  0  0  0  0  0  0  0
  -26.6300  -34.9770   22.3810 O   0  0  0  0  0  0  0  0  0  0  0  0
  -25.0280  -34.2160   24.9800 H   0  0  0  0  0  0  0  0  0  0  0  0
  -24.2150  -36.8690   23.0250 C   0  0  0  0  0  1  0  0  0  0  0  0
  -25.4570  -36.4830   23.8440 C   0  0  0  0  0  3  0  0  0  0  0  0
  -27.5830  -37.3950   24.6690 C   0  0  0  0  0  1  0  0  0  0  0  0
  -26.4840  -37.5420   23.7180 N   0  0  0  0  0  0  0  0  0  0  0  0
  -26.0680  -38.4600   23.8530 H   0  0  0  0  0  0  0  0  0  0  0  0
  -26.4550  -31.8960   25.1590 C   0  0  1  0  0  0  0  0  0  0  0  0
  -25.3570  -31.6550   26.2220 C   0  0  0  0  0  1  0  0  0  0  0  0
  -27.0580  -30.5230   24.7810 C   0  0  0  0  0  1  0  0  0  0  0  0
  -27.5930  -32.7100   25.8200 C   0  0  0  0  0  1  0  0  0  0  0  0
  -29.8280  -21.1540   20.1170 C   0  0  0  0  0  2  0  0  0  0  0  0
  -30.5260  -19.8510   20.3320 N   0  0  0  0  0  4  0  0  0  0  0  0
  -31.2690  -19.9630   20.9980 H   0  0  0  0  0  0  0  0  0  0  0  0
  -30.9780  -19.5980   19.4620 H   0  0  0  0  0  0  0  0  0  0  0  0
  -28.3760  -18.5460   19.9160 C   0  0  0  0  0  1  0  0  0  0  0  0
  -29.7530  -18.6030   20.6300 C   0  0  0  0  0  3  0  0  0  0  0  0
  -30.6560  -17.3750   20.2860 C   0  0  0  0  0  3  0  0  0  0  0  0
  -30.9790  -17.5060   18.8650 N   0  0  0  0  0  0  0  0  0  0  0  0
  -30.1410  -17.4690   18.2960 H   0  0  0  0  0  0  0  0  0  0  0  0
  -31.5010  -16.6680   18.6040 H   0  0  0  0  0  0  0  0  0  0  0  0
  -30.0930  -15.9570   20.6850 C   0  0  0  0  0  2  0  0  0  0  0  0
  -30.8020  -14.7080   20.0800 C   0  0  0  0  0  0  0  0  0  0  0  0
  -30.4770  -12.5350   18.9480 C   0  0  0  0  0  2  0  0  0  0  0  0
  -29.5110  -12.7530   17.7680 C   0  0  0  0  0  2  0  0  0  0  0  0
  -28.0460  -12.6050   18.2230 C   0  0  0  0  0  2  0  0  0  0  0  0
  -27.7360  -13.4600   19.4810 C   0  0  0  0  0  3  0  0  0  0  0  0
  -28.8170  -13.2510   20.5710 C   0  0  0  0  0  2  0  0  0  0  0  0
  -30.1320  -13.5270   19.9770 N   0  0  0  0  0  0  0  0  0  0  0  0
  -31.9190  -14.8630   19.5780 O   0  0  0  0  0  0  0  0  0  0  0  0
  -25.3590  -14.0900   20.2540 C   0  0  0  0  0  0  0  0  0  0  0  0
  -24.3020  -13.3270   20.6620 C   0  0  0  0  0  0  0  0  0  0  0  0
  -24.7580  -11.9710   20.6340 C   0  0  0  0  0  0  0  0  0  0  0  0
  -26.3940  -13.2030   19.9980 N   0  0  0  0  0  0  0  0  0  0  0  0
  -26.0370  -11.9240   20.2850 N   0  0  0  0  0  0  0  0  0  0  0  0
  -24.0350  -10.7160   20.8640 C   0  0  0  0  0  0  0  0  0  0  0  0
  -24.4780   -9.7650   21.8090 C   0  0  0  0  0  3  0  0  0  0  0  0
  -23.7510   -8.5740   22.0190 C   0  0  0  0  0  3  0  0  0  0  0  0
  -22.5700   -8.3240   21.2820 C   0  0  0  0  0  0  0  0  0  0  0  0
  -22.1490   -9.2620   20.3230 C   0  0  0  0  0  3  0  0  0  0  0  0
  -22.8760  -10.4440   20.1110 C   0  0  0  0  0  3  0  0  0  0  0  0
  -21.8140   -7.1830   21.4020 O   0  0  0  0  0  0  0  0  0  0  0  0
  -21.7620   -6.4710   22.5730 C   0  0  0  0  0  0  0  0  0  0  0  0
  -21.3230   -7.0580   23.7800 C   0  0  0  0  0  3  0  0  0  0  0  0
  -21.2170   -6.2740   24.9450 C   0  0  0  0  0  3  0  0  0  0  0  0
  -21.5430   -4.9060   24.9070 C   0  0  0  0  0  0  0  0  0  0  0  0
  -21.9790   -4.3180   23.7050 C   0  0  0  0  0  3  0  0  0  0  0  0
  -22.0840   -5.0990   22.5410 C   0  0  0  0  0  0  0  0  0  0  0  0
  -22.4820   -4.5240   21.3800 F   0  0  0  0  0  0  0  0  0  0  0  0
  -21.4340   -4.1500   26.0250 F   0  0  0  0  0  0  0  0  0  0  0  0
  -22.9150  -13.8110   20.9720 C   0  0  0  0  0  0  0  0  0  0  0  0
  -22.2180  -13.1270   21.8710 N   0  0  0  0  0  0  0  0  0  0  0  0
  -22.4630  -14.8310   20.4520 O   0  0  0  0  0  0  0  0  0  0  0  0
  -22.6000  -12.3020   22.3090 H   0  0  0  0  0  0  0  0  0  0  0  0
  -21.2880  -13.4320   22.1220 H   0  0  0  0  0  0  0  0  0  0  0  0
  -25.5270  -15.4590   20.0550 N   0  0  0  0  0  0  0  0  0  0  0  0
  -24.7640  -16.1190   20.1580 H   0  0  0  0  0  0  0  0  0  0  0  0
  -26.3580  -15.8780   19.6620 H   0  0  0  0  0  0  0  0  0  0  0  0
  2  4  1  0
  2  7  1  0
  3  1  1  0
  5  7  1  0
  6  5  1  0
  6  1  1  0
  7  9  1  0
  8 51  1  6
  8  4  1  0
  8  6  1  0
  8  3  1  0
 10 12  1  0
 10  9  1  0
 11 22  2  0
 12 17  1  0
 13 21  1  0
 13 23  1  0
 14 20  1  0
 14 16  1  0
 15 21  1  0
 16 15  1  0
 17 16  2  0
 18 19  1  0
 18 12  2  0
 19 14  2  0
 20 13  1  0
 21 11  1  0
 23 25  2  0
 24 23  1  0
 26 24  1  0
 27 36  2  0
 27 32  1  0
 28 24  1  0
 28 32  1  0
 29 28  1  0
 30 31  1  0
 30 29  1  0
 31 27  1  0
 32 33  2  0
 33 34  1  0
 35 34  2  0
 36 35  1  0
 37 11  1  0
 37 38  1  0
 37 47  1  0
 38 41  1  0
 39 43  1  0
 39 38  1  0
 40 39  2  0
 43 42  1  0
 45 43  1  0
 45 46  1  0
 45 44  1  0
 47 50  1  1
 47 48  1  0
 49 47  1  0
 51 52  1  0
 52 56  1  0
 52 53  1  0
 54 52  1  0
 56 55  1  0
 57 56  1  0
 57 61  1  0
 58 57  1  0
 59 58  1  0
 60 58  1  0
 62 61  1  0
 63 68  1  0
 64 65  1  0
 64 63  1  0
 66 65  1  0
 66 73  1  0
 66 67  1  0
 68 62  1  0
 68 67  1  0
 69 62  2  0
 70 71  2  0
 71 90  1  0
 72 71  1  0
 72 75  1  0
 73 70  1  0
 73 74  1  0
 74 72  2  0
 75 76  1  0
 76 77  2  0
 78 81  1  0
 78 77  1  0
 79 78  2  0
 80 79  1  0
 80 75  2  0
 81 82  1  0
 82 83  1  0
 83 84  2  0
 85 84  1  0
 85 89  1  0
 86 85  2  0
 87 82  2  0
 87 86  1  0
 88 87  1  0
 90 91  1  0
 91 94  1  0
 91 93  1  0
 92 90  2  0
 95 96  1  0
 95 70  1  0
 97 95  1  0
M  ISO  4   9 101  10 101  61 100  62 100
M  END
>  <TORSDO>  (68) 
F 23

>  <SCORE>  (68) 
-11.783

>  <name>  (68) 
68

>  <ligand_id>  (68) 
68

>  <original_smiles>  (68) 
[H]c1c([H])c([H])c2c(c1[H])C([H])([H])C([H])([H])C([H])([H])C2([H])N([H])C(=O)C1([H])N(C(=O)C([H])(N([H])C(=O)C([H])(N([H])C([H])([H])[H])C([H])([H])[H])C(C([H])([H])[H])(C([H])([H])[H])C([H])([H])[H])C([H])([H])c2c([H])c(OC([H])([H])C3([H])C([H])([H])C([H])([H])C4(C([H])([H])[N+]([H])([H])C([H])(C([H])([H])[H])C([H])(N([H])[H])C([H])([H])C(=O)N5C([H])([H])C([H])([H])C([H])([H])C([H])(n6nc(-c7c([H])c([H])c(Oc8c([H])c([H])c(F)c([H])c8F)c([H])c7[H])c(C(=O)N([H])[H])c6N([H])[H])C5([H])[H])C([H])([H])C([H])([H])C4([H])C3([H])[H])c([H])c([H])c2C1([H])[H]

>  <smiles>  (68) 
[H]c1c([H])c([H])c2c(c1[H])C([H])([H])C([H])([H])C([H])([H])C2([H])N([H])C(=O)C1([H])N(C(=O)C([H])(N([H])C(=O)C([H])(N([H])C([H])([H])[H])C([H])([H])[H])C(C([H])([H])[H])(C([H])([H])[H])C([H])([H])[H])C([H])([H])c2c([H])c(OC([H])([H])C3([H])C([H])([H])C([H])([H])C4(C([H])([H])[N+]([H])([H])C([H])(C([H])([H])[H])C([H])(N([H])[H])C([H])([H])C(=O)N5C([H])([H])C([H])([H])C([H])([H])C([H])(n6nc(-c7c([H])c([H])c(Oc8c([H])c([H])c(F)c([H])c8F)c([H])c7[H])c(C(=O)N([H])[H])c6N([H])[H])C5([H])[H])C([H])([H])C([H])([H])C4([H])C3([H])[H])c([H])c([H])c2C1([H])[H]

$$$$
69:0:0
     RDKit          3D

 85 93  0  0  1  0  0  0  0  0999 V2000
  -31.2000  -21.2460   20.2600 C   0  0  0  0  0  3  0  0  0  0  0  0
  -30.8530  -19.8610   20.2660 C   0  0  0  0  0  3  0  0  0  0  0  0
  -30.2800  -22.3340   20.2780 C   0  0  0  0  0  3  0  0  0  0  0  0
  -29.5270  -19.3760   20.2950 C   0  0  0  0  0  0  0  0  0  0  0  0
  -28.8830  -22.1630   20.3030 C   0  0  0  0  0  0  0  0  0  0  0  0
  -28.5970  -20.6290   20.3100 N   0  0  0  0  0  0  0  0  0  0  0  0
  -29.3670  -17.4900   20.3300 C   0  0  0  0  0  2  0  0  0  0  0  0
  -30.1890  -15.7750   20.1690 C   0  0  0  0  0  0  0  0  0  0  0  0
  -30.3120  -13.2160   19.3380 C   0  0  0  0  0  2  0  0  0  0  0  0
  -29.3940  -12.8260   18.1400 C   0  0  0  0  0  2  0  0  0  0  0  0
  -27.9840  -12.4510   18.6190 C   0  0  0  0  0  2  0  0  0  0  0  0
  -27.4930  -13.4320   19.7070 C   0  0  0  0  0  3  0  0  0  0  0  0
  -28.5460  -13.7410   20.7960 C   0  0  0  0  0  2  0  0  0  0  0  0
  -29.7090  -14.3830   20.1360 N   0  0  0  0  0  0  0  0  0  0  0  0
  -31.4150  -15.6960   19.9330 O   0  0  0  0  0  0  0  0  0  0  0  0
  -25.1540  -13.9260   20.5600 C   0  0  0  0  0  0  0  0  0  0  0  0
  -24.1120  -13.1310   20.9420 C   0  0  0  0  0  0  0  0  0  0  0  0
  -24.5890  -11.7850   20.8670 C   0  0  0  0  0  0  0  0  0  0  0  0
  -26.1950  -13.0690   20.2610 N   0  0  0  0  0  0  0  0  0  0  0  0
  -25.8730  -11.7720   20.5150 N   0  0  0  0  0  0  0  0  0  0  0  0
  -23.8760  -10.5140   21.0510 C   0  0  0  0  0  0  0  0  0  0  0  0
  -24.3110   -9.5470   21.9840 C   0  0  0  0  0  3  0  0  0  0  0  0
  -23.5920   -8.3450   22.1600 C   0  0  0  0  0  3  0  0  0  0  0  0
  -22.4220   -8.1000   21.4020 C   0  0  0  0  0  0  0  0  0  0  0  0
  -22.0040   -9.0560   20.4580 C   0  0  0  0  0  3  0  0  0  0  0  0
  -22.7250  -10.2500   20.2810 C   0  0  0  0  0  3  0  0  0  0  0  0
  -21.6740   -6.9500   21.4850 O   0  0  0  0  0  0  0  0  0  0  0  0
  -21.5960   -6.2250   22.6480 C   0  0  0  0  0  0  0  0  0  0  0  0
  -21.0820   -6.7810   23.8390 C   0  0  0  0  0  3  0  0  0  0  0  0
  -20.9540   -5.9810   24.9920 C   0  0  0  0  0  3  0  0  0  0  0  0
  -21.3300   -4.6250   24.9540 C   0  0  0  0  0  0  0  0  0  0  0  0
  -21.8370   -4.0680   23.7670 C   0  0  0  0  0  3  0  0  0  0  0  0
  -21.9650   -4.8650   22.6160 C   0  0  0  0  0  0  0  0  0  0  0  0
  -22.4340   -4.3170   21.4690 F   0  0  0  0  0  0  0  0  0  0  0  0
  -21.2010   -3.8540   26.0590 F   0  0  0  0  0  0  0  0  0  0  0  0
  -22.7190  -13.5910   21.2570 C   0  0  0  0  0  0  0  0  0  0  0  0
  -22.0210  -12.8780   22.1320 N   0  0  0  0  0  0  0  0  0  0  0  0
  -22.2620  -14.6210   20.7620 O   0  0  0  0  0  0  0  0  0  0  0  0
  -22.4060  -12.0460   22.5540 H   0  0  0  0  0  0  0  0  0  0  0  0
  -21.0880  -13.1690   22.3870 H   0  0  0  0  0  0  0  0  0  0  0  0
  -25.3000  -15.3020   20.4100 N   0  0  0  0  0  0  0  0  0  0  0  0
  -24.5320  -15.9470   20.5660 H   0  0  0  0  0  0  0  0  0  0  0  0
  -26.1370  -15.7580   20.0710 H   0  0  0  0  0  0  0  0  0  0  0  0
  -27.8820  -23.7600   20.2720 C   0  0  0  0  0  2  0  0  0  0  0  0
  -28.1260  -25.5210   20.3670 O   0  0  0  0  0  0  0  0  0  0  0  0
  -24.6660  -31.9040   23.2480 C   0  0  0  0  0  0  0  0  0  0  0  0
  -27.1690  -26.7600   20.3090 C   0  0  0  0  0  0  0  0  0  0  0  0
  -23.4770  -30.5040   21.6140 C   0  0  0  0  0  3  0  0  0  0  0  0
  -24.9190  -28.8300   20.2220 C   0  0  0  0  0  0  0  0  0  0  0  0
  -26.0580  -30.6170   21.5080 C   0  0  0  0  0  2  0  0  0  0  0  0
  -26.1160  -29.1760   20.8620 C   0  0  0  0  0  0  0  0  0  0  0  0
  -27.2240  -28.1710   20.8690 C   0  0  0  0  0  3  0  0  0  0  0  0
  -25.9380  -26.6320   19.6120 C   0  0  0  0  0  3  0  0  0  0  0  0
  -24.8720  -27.5840   19.5730 C   0  0  0  0  0  3  0  0  0  0  0  0
  -23.7200  -29.7940   20.2510 C   0  0  0  0  0  2  0  0  0  0  0  0
  -24.7580  -31.0430   22.1760 N   0  0  0  0  0  0  0  0  0  0  0  0
  -23.5710  -32.2160   23.7490 O   0  0  0  0  0  0  0  0  0  0  0  0
  -22.7450  -29.5410   22.5890 C   0  0  0  0  0  0  0  0  0  0  0  0
  -21.4130  -29.3910   22.4520 N   0  0  0  0  0  0  0  0  0  0  0  0
  -23.3890  -28.9260   23.4420 O   0  0  0  0  0  0  0  0  0  0  0  0
  -20.9420  -29.9370   21.7440 H   0  0  0  0  0  0  0  0  0  0  0  0
  -18.0160  -28.1920   22.9440 C   0  0  0  0  0  0  0  0  0  0  0  0
  -20.5750  -28.4660   23.2260 C   0  0  0  0  0  3  0  0  0  0  0  0
  -20.6810  -27.0250   22.6720 C   0  0  0  0  0  2  0  0  0  0  0  0
  -19.5890  -26.6910   21.6500 C   0  0  0  0  0  2  0  0  0  0  0  0
  -18.2020  -26.8390   22.2790 C   0  0  0  0  0  2  0  0  0  0  0  0
  -19.1300  -28.9630   23.3740 C   0  0  0  0  0  0  0  0  0  0  0  0
  -18.8990  -30.2260   23.9610 C   0  0  0  0  0  3  0  0  0  0  0  0
  -17.5910  -30.7190   24.1190 C   0  0  0  0  0  3  0  0  0  0  0  0
  -16.4920  -29.9480   23.7010 C   0  0  0  0  0  3  0  0  0  0  0  0
  -16.7060  -28.6860   23.1200 C   0  0  0  0  0  3  0  0  0  0  0  0
  -25.9290  -32.5510   23.8920 C   0  0  0  0  0  3  0  0  0  0  0  0
  -25.6180  -33.9610   24.2010 N   0  0  0  0  0  0  0  0  0  0  0  0
  -25.9320  -35.0100   23.4280 C   0  0  0  0  0  0  0  0  0  0  0  0
  -26.5700  -34.8920   22.3790 O   0  0  0  0  0  0  0  0  0  0  0  0
  -25.0460  -34.1260   25.0170 H   0  0  0  0  0  0  0  0  0  0  0  0
  -24.1840  -36.8040   23.1440 C   0  0  0  0  0  1  0  0  0  0  0  0
  -25.4720  -36.4100   23.8880 C   0  0  0  0  0  3  0  0  0  0  0  0
  -27.6430  -37.3270   24.5830 C   0  0  0  0  0  1  0  0  0  0  0  0
  -26.4930  -37.4640   23.6930 N   0  0  0  0  0  0  0  0  0  0  0  0
  -26.0910  -38.3860   23.8340 H   0  0  0  0  0  0  0  0  0  0  0  0
  -26.3990  -31.8100   25.2050 C   0  0  1  0  0  0  0  0  0  0  0  0
  -25.2760  -31.6180   26.2520 C   0  0  0  0  0  1  0  0  0  0  0  0
  -26.9730  -30.4130   24.8800 C   0  0  0  0  0  1  0  0  0  0  0  0
  -27.5440  -32.6070   25.8750 C   0  0  0  0  0  1  0  0  0  0  0  0
  1  2  2  0
  1  3  1  0
  2  4  1  0
  3  5  2  0
  4  6  2  0
  4  7  1  0
  5  6  1  0
  8  7  1  0
  9 14  1  0
 10 11  1  0
 10  9  1  0
 12 11  1  0
 12 19  1  0
 12 13  1  0
 14  8  1  0
 14 13  1  0
 15  8  2  0
 16 17  2  0
 17 36  1  0
 18 17  1  0
 18 21  1  0
 19 20  1  0
 19 16  1  0
 20 18  2  0
 21 22  1  0
 22 23  2  0
 24 27  1  0
 24 23  1  0
 25 24  2  0
 26 25  1  0
 26 21  2  0
 27 28  1  0
 28 29  1  0
 29 30  2  0
 31 30  1  0
 31 35  1  0
 32 31  2  0
 33 28  2  0
 33 32  1  0
 34 33  1  0
 36 37  1  0
 37 40  1  0
 37 39  1  0
 38 36  2  0
 41 16  1  0
 41 42  1  0
 43 41  1  0
 44  5  1  0
 44 45  1  0
 46 57  2  0
 47 45  1  0
 47 52  1  0
 48 56  1  0
 48 58  1  0
 49 55  1  0
 49 51  1  0
 50 56  1  0
 51 52  2  0
 51 50  1  0
 53 47  2  0
 54 53  1  0
 54 49  2  0
 55 48  1  0
 56 46  1  0
 58 60  2  0
 59 58  1  0
 61 59  1  0
 62 71  2  0
 62 67  1  0
 63 59  1  0
 63 67  1  0
 64 63  1  0
 65 66  1  0
 65 64  1  0
 66 62  1  0
 67 68  2  0
 68 69  1  0
 70 69  2  0
 71 70  1  0
 72 46  1  0
 72 73  1  0
 72 82  1  0
 73 76  1  0
 74 78  1  0
 74 73  1  0
 75 74  2  0
 78 77  1  0
 80 81  1  0
 80 78  1  0
 80 79  1  0
 82 85  1  1
 82 83  1  0
 84 82  1  0
M  ISO  4   7 100   8 100  44 101  45 101
M  END
>  <TORSDO>  (69) 
F 18

>  <SCORE>  (69) 
-16.481

>  <name>  (69) 
69

>  <ligand_id>  (69) 
69

>  <original_smiles>  (69) 
[H]c1c(C([H])([H])Oc2c([H])c([H])c3c(c2[H])C([H])([H])N(C(=O)C([H])(N([H])C(=O)C([H])(N([H])C([H])([H])[H])C([H])([H])[H])C(C([H])([H])[H])(C([H])([H])[H])C([H])([H])[H])C([H])(C(=O)N([H])C2([H])c4c([H])c([H])c([H])c([H])c4C([H])([H])C([H])([H])C2([H])[H])C3([H])[H])nc(C([H])([H])C(=O)N2C([H])([H])C([H])([H])C([H])([H])C([H])(n3nc(-c4c([H])c([H])c(Oc5c([H])c([H])c(F)c([H])c5F)c([H])c4[H])c(C(=O)N([H])[H])c3N([H])[H])C2([H])[H])c([H])c1[H]

>  <smiles>  (69) 
[H]c1c(C([H])([H])Oc2c([H])c([H])c3c(c2[H])C([H])([H])N(C(=O)C([H])(N([H])C(=O)C([H])(N([H])C([H])([H])[H])C([H])([H])[H])C(C([H])([H])[H])(C([H])([H])[H])C([H])([H])[H])C([H])(C(=O)N([H])C2([H])c4c([H])c([H])c([H])c([H])c4C([H])([H])C([H])([H])C2([H])[H])C3([H])[H])nc(C([H])([H])C(=O)N2C([H])([H])C([H])([H])C([H])([H])C([H])(n3nc(-c4c([H])c([H])c(Oc5c([H])c([H])c(F)c([H])c5F)c([H])c4[H])c(C(=O)N([H])[H])c3N([H])[H])C2([H])[H])c([H])c1[H]

$$$$
70:0:0
     RDKit          3D

 86 95  0  0  1  0  0  0  0  0999 V2000
  -29.9570  -21.8820   18.8260 C   0  0  0  0  0  2  0  0  0  0  0  0
  -31.3710  -19.9080   20.0820 C   0  0  0  0  0  2  0  0  0  0  0  0
  -30.4370  -20.3400   18.9770 C   0  0  0  0  0  3  0  0  0  0  0  0
  -29.2300  -22.5280   20.0870 C   0  0  0  0  0  3  0  0  0  0  0  0
  -28.8820  -20.8360   20.6220 C   0  0  0  0  0  3  0  0  0  0  0  0
  -29.9230  -19.4850   20.1720 C   0  0  2  0  0  0  0  0  0  0  0  0
  -28.6760  -20.8240   22.1400 C   0  0  0  0  0  1  0  0  0  0  0  0
  -29.7770  -17.6030   20.4030 C   0  0  0  0  0  2  0  0  0  0  0  0
  -30.6780  -15.9830   20.2450 C   0  0  0  0  0  0  0  0  0  0  0  0
  -30.8230  -13.4490   19.4240 C   0  0  0  0  0  2  0  0  0  0  0  0
  -29.9390  -13.1100   18.1870 C   0  0  0  0  0  2  0  0  0  0  0  0
  -28.5010  -12.7660   18.6100 C   0  0  0  0  0  2  0  0  0  0  0  0
  -27.9860  -13.7430   19.6900 C   0  0  0  0  0  3  0  0  0  0  0  0
  -29.0030  -14.0010   20.8230 C   0  0  0  0  0  2  0  0  0  0  0  0
  -30.2090  -14.6030   20.2140 N   0  0  0  0  0  0  0  0  0  0  0  0
  -31.9050  -15.9660   20.0290 O   0  0  0  0  0  0  0  0  0  0  0  0
  -25.6130  -14.2550   20.4430 C   0  0  0  0  0  0  0  0  0  0  0  0
  -24.5540  -13.4650   20.7900 C   0  0  0  0  0  0  0  0  0  0  0  0
  -25.0320  -12.1180   20.7450 C   0  0  0  0  0  0  0  0  0  0  0  0
  -26.6630  -13.3930   20.1910 N   0  0  0  0  0  0  0  0  0  0  0  0
  -26.3270  -12.1000   20.4430 N   0  0  0  0  0  0  0  0  0  0  0  0
  -24.3100  -10.8500   20.9120 C   0  0  0  0  0  0  0  0  0  0  0  0
  -24.6860   -9.9060   21.8920 C   0  0  0  0  0  3  0  0  0  0  0  0
  -23.9590   -8.7050   22.0470 C   0  0  0  0  0  3  0  0  0  0  0  0
  -22.8420   -8.4390   21.2210 C   0  0  0  0  0  0  0  0  0  0  0  0
  -22.4850   -9.3720   20.2310 C   0  0  0  0  0  3  0  0  0  0  0  0
  -23.2120  -10.5640   20.0750 C   0  0  0  0  0  3  0  0  0  0  0  0
  -22.0940   -7.2880   21.2810 O   0  0  0  0  0  0  0  0  0  0  0  0
  -21.9070   -6.6120   22.4610 C   0  0  0  0  0  0  0  0  0  0  0  0
  -21.2590   -7.2060   23.5650 C   0  0  0  0  0  3  0  0  0  0  0  0
  -21.0260   -6.4530   24.7330 C   0  0  0  0  0  3  0  0  0  0  0  0
  -21.4290   -5.1070   24.7960 C   0  0  0  0  0  0  0  0  0  0  0  0
  -22.0700   -4.5110   23.6950 C   0  0  0  0  0  3  0  0  0  0  0  0
  -22.3040   -5.2620   22.5290 C   0  0  0  0  0  0  0  0  0  0  0  0
  -22.9020   -4.6760   21.4640 F   0  0  0  0  0  0  0  0  0  0  0  0
  -21.1990   -4.3800   25.9150 F   0  0  0  0  0  0  0  0  0  0  0  0
  -23.1510  -13.9300   21.0480 C   0  0  0  0  0  0  0  0  0  0  0  0
  -22.4210  -13.2290   21.9070 N   0  0  0  0  0  0  0  0  0  0  0  0
  -22.7120  -14.9530   20.5230 O   0  0  0  0  0  0  0  0  0  0  0  0
  -22.7900  -12.4020   22.3530 H   0  0  0  0  0  0  0  0  0  0  0  0
  -21.4790  -13.5230   22.1230 H   0  0  0  0  0  0  0  0  0  0  0  0
  -25.7670  -15.6300   20.2880 N   0  0  0  0  0  0  0  0  0  0  0  0
  -24.9960  -16.2780   20.4110 H   0  0  0  0  0  0  0  0  0  0  0  0
  -26.6190  -16.0830   19.9840 H   0  0  0  0  0  0  0  0  0  0  0  0
  -28.2710  -24.2020   19.9660 C   0  0  0  0  0  2  0  0  0  0  0  0
  -28.4510  -25.9360   20.0490 O   0  0  0  0  0  0  0  0  0  0  0  0
  -24.7820  -31.9260   23.2910 C   0  0  0  0  0  0  0  0  0  0  0  0
  -27.4460  -27.1090   20.0530 C   0  0  0  0  0  0  0  0  0  0  0  0
  -23.6390  -30.6040   21.5610 C   0  0  0  0  0  3  0  0  0  0  0  0
  -25.1350  -29.0730   20.0780 C   0  0  0  0  0  0  0  0  0  0  0  0
  -26.2140  -30.8120   21.4790 C   0  0  0  0  0  2  0  0  0  0  0  0
  -26.3150  -29.4240   20.7430 C   0  0  0  0  0  0  0  0  0  0  0  0
  -27.4560  -28.4720   20.7000 C   0  0  0  0  0  3  0  0  0  0  0  0
  -26.2280  -26.9570   19.3440 C   0  0  0  0  0  3  0  0  0  0  0  0
  -25.1280  -27.8670   19.3550 C   0  0  0  0  0  3  0  0  0  0  0  0
  -23.9080  -29.9920   20.1560 C   0  0  0  0  0  2  0  0  0  0  0  0
  -24.9010  -31.1430   22.1650 N   0  0  0  0  0  0  0  0  0  0  0  0
  -23.6770  -32.1760   23.8050 O   0  0  0  0  0  0  0  0  0  0  0  0
  -22.9320  -29.5580   22.4640 C   0  0  0  0  0  0  0  0  0  0  0  0
  -21.6110  -29.3610   22.2870 N   0  0  0  0  0  0  0  0  0  0  0  0
  -23.5830  -28.9230   23.2960 O   0  0  0  0  0  0  0  0  0  0  0  0
  -21.1340  -29.9270   21.5980 H   0  0  0  0  0  0  0  0  0  0  0  0
  -18.2560  -28.0110   22.6320 C   0  0  0  0  0  0  0  0  0  0  0  0
  -20.7940  -28.3640   22.9900 C   0  0  0  0  0  3  0  0  0  0  0  0
  -20.9680  -26.9610   22.3620 C   0  0  0  0  0  2  0  0  0  0  0  0
  -19.9140  -26.6410   21.2990 C   0  0  0  0  0  2  0  0  0  0  0  0
  -18.5070  -26.7030   21.9010 C   0  0  0  0  0  2  0  0  0  0  0  0
  -19.3290  -28.7980   23.1290 C   0  0  0  0  0  0  0  0  0  0  0  0
  -19.0370  -30.0190   23.7760 C   0  0  0  0  0  3  0  0  0  0  0  0
  -17.7070  -30.4540   23.9270 C   0  0  0  0  0  3  0  0  0  0  0  0
  -16.6490  -29.6660   23.4430 C   0  0  0  0  0  3  0  0  0  0  0  0
  -16.9240  -28.4450   22.8020 C   0  0  0  0  0  3  0  0  0  0  0  0
  -26.0250  -32.5590   23.9850 C   0  0  0  0  0  3  0  0  0  0  0  0
  -25.6890  -33.9490   24.3520 N   0  0  0  0  0  0  0  0  0  0  0  0
  -26.0060  -35.0350   23.6340 C   0  0  0  0  0  0  0  0  0  0  0  0
  -26.6700  -34.9740   22.5960 O   0  0  0  0  0  0  0  0  0  0  0  0
  -25.0960  -34.0680   25.1600 H   0  0  0  0  0  0  0  0  0  0  0  0
  -24.2480  -36.8230   23.3770 C   0  0  0  0  0  1  0  0  0  0  0  0
  -25.5130  -36.4070   24.1450 C   0  0  0  0  0  3  0  0  0  0  0  0
  -27.6450  -37.3120   24.9660 C   0  0  0  0  0  1  0  0  0  0  0  0
  -26.5290  -37.4770   24.0380 N   0  0  0  0  0  0  0  0  0  0  0  0
  -26.1110  -38.3890   24.2050 H   0  0  0  0  0  0  0  0  0  0  0  0
  -26.4880  -31.7640   25.2690 C   0  0  1  0  0  0  0  0  0  0  0  0
  -25.3520  -31.5040   26.2870 C   0  0  0  0  0  1  0  0  0  0  0  0
  -27.0910  -30.3940   24.8860 C   0  0  0  0  0  1  0  0  0  0  0  0
  -27.6090  -32.5470   25.9940 C   0  0  0  0  0  1  0  0  0  0  0  0
  1  4  1  0
  2  6  1  0
  3  1  1  0
  3  2  1  0
  3  6  1  0
  4 45  1  0
  4  5  1  0
  5  7  1  0
  6  8  1  6
  6  5  1  0
  9  8  1  0
 10 15  1  0
 11 12  1  0
 11 10  1  0
 13 12  1  0
 13 20  1  0
 13 14  1  0
 15  9  1  0
 15 14  1  0
 16  9  2  0
 17 18  2  0
 18 37  1  0
 19 18  1  0
 19 22  1  0
 20 17  1  0
 20 21  1  0
 21 19  2  0
 22 23  1  0
 23 24  2  0
 25 28  1  0
 25 24  1  0
 26 25  2  0
 27 26  1  0
 27 22  2  0
 28 29  1  0
 29 34  2  0
 29 30  1  0
 30 31  2  0
 31 32  1  0
 32 36  1  0
 33 32  2  0
 34 33  1  0
 35 34  1  0
 37 38  1  0
 38 41  1  0
 38 40  1  0
 39 37  2  0
 42 43  1  0
 42 17  1  0
 44 42  1  0
 45 46  1  0
 46 48  1  0
 47 58  2  0
 48 53  1  0
 49 57  1  0
 49 59  1  0
 50 56  1  0
 50 52  1  0
 51 57  1  0
 52 51  1  0
 53 52  2  0
 54 55  1  0
 54 48  2  0
 55 50  2  0
 56 49  1  0
 57 47  1  0
 59 61  2  0
 60 59  1  0
 62 60  1  0
 63 72  2  0
 63 68  1  0
 64 60  1  0
 64 68  1  0
 65 64  1  0
 66 67  1  0
 66 65  1  0
 67 63  1  0
 68 69  2  0
 69 70  1  0
 71 70  2  0
 72 71  1  0
 73 47  1  0
 73 74  1  0
 73 83  1  0
 74 77  1  0
 75 79  1  0
 75 74  1  0
 76 75  2  0
 79 78  1  0
 81 79  1  0
 81 82  1  0
 81 80  1  0
 83 86  1  1
 83 84  1  0
 85 83  1  0
M  ISO  4   8 100   9 100  45 101  46 101
M  END
>  <TORSDO>  (70) 
F 18

>  <SCORE>  (70) 
-14.965

>  <name>  (70) 
70

>  <ligand_id>  (70) 
70

>  <original_smiles>  (70) 
[H]c1c([H])c([H])c2c(c1[H])C([H])([H])C([H])([H])C([H])([H])C2([H])N([H])C(=O)C1([H])N(C(=O)C([H])(N([H])C(=O)C([H])(N([H])C([H])([H])[H])C([H])([H])[H])C(C([H])([H])[H])(C([H])([H])[H])C([H])([H])[H])C([H])([H])c2c([H])c(OC([H])([H])C3([H])C([H])([H])C4([H])C([H])([H])C4(C([H])([H])C(=O)N4C([H])([H])C([H])([H])C([H])([H])C([H])(n5nc(-c6c([H])c([H])c(Oc7c([H])c([H])c(F)c([H])c7F)c([H])c6[H])c(C(=O)N([H])[H])c5N([H])[H])C4([H])[H])C3([H])C([H])([H])[H])c([H])c([H])c2C1([H])[H]

>  <smiles>  (70) 
[H]c1c([H])c([H])c2c(c1[H])C([H])([H])C([H])([H])C([H])([H])C2([H])N([H])C(=O)C1([H])N(C(=O)C([H])(N([H])C(=O)C([H])(N([H])C([H])([H])[H])C([H])([H])[H])C(C([H])([H])[H])(C([H])([H])[H])C([H])([H])[H])C([H])([H])c2c([H])c(OC([H])([H])C3([H])C([H])([H])C4([H])C([H])([H])C4(C([H])([H])C(=O)N4C([H])([H])C([H])([H])C([H])([H])C([H])(n5nc(-c6c([H])c([H])c(Oc7c([H])c([H])c(F)c([H])c7F)c([H])c6[H])c(C(=O)N([H])[H])c5N([H])[H])C4([H])[H])C3([H])C([H])([H])[H])c([H])c([H])c2C1([H])[H]

$$$$
71:0:0
     RDKit          3D

 91 99  0  0  1  0  0  0  0  0999 V2000
  -28.9070  -21.2780   19.7160 N   0  0  0  0  0  4  0  0  0  0  0  0
  -28.7310  -21.6260   18.7880 H   0  0  0  0  0  0  0  0  0  0  0  0
  -28.0360  -20.8660   20.0120 H   0  0  0  0  0  0  0  0  0  0  0  0
  -31.3570  -20.6980   19.2730 C   0  0  0  0  0  1  0  0  0  0  0  0
  -29.9300  -20.1600   19.4930 C   0  0  0  0  0  3  0  0  0  0  0  0
  -31.7510  -18.4350   21.8940 C   0  0  0  0  0  2  0  0  0  0  0  0
  -31.9960  -17.6720   20.5900 C   0  0  0  0  0  2  0  0  0  0  0  0
  -30.3480  -19.0580   21.8070 C   0  0  0  0  0  2  0  0  0  0  0  0
  -30.6190  -17.4960   19.9300 C   0  0  0  0  0  3  0  0  0  0  0  0
  -29.8260  -18.8200   20.3840 C   0  0  0  0  0  3  0  0  0  0  0  0
  -30.0370  -16.0590   20.3410 C   0  0  0  0  0  2  0  0  0  0  0  0
  -30.8460  -14.7390   19.9640 C   0  0  0  0  0  0  0  0  0  0  0  0
  -30.5740  -12.4980   18.9220 C   0  0  0  0  0  2  0  0  0  0  0  0
  -29.5690  -12.6380   17.7570 C   0  0  0  0  0  2  0  0  0  0  0  0
  -28.1200  -12.4880   18.2590 C   0  0  0  0  0  2  0  0  0  0  0  0
  -27.8320  -13.3540   19.5150 C   0  0  0  0  0  3  0  0  0  0  0  0
  -28.9450  -13.2020   20.5720 C   0  0  0  0  0  2  0  0  0  0  0  0
  -30.2270  -13.5170   19.9330 N   0  0  0  0  0  0  0  0  0  0  0  0
  -31.9970  -14.8570   19.5330 O   0  0  0  0  0  0  0  0  0  0  0  0
  -25.5070  -13.9790   20.4020 C   0  0  0  0  0  0  0  0  0  0  0  0
  -24.4460  -13.2150   20.8080 C   0  0  0  0  0  0  0  0  0  0  0  0
  -24.8750  -11.8570   20.7040 C   0  0  0  0  0  0  0  0  0  0  0  0
  -26.5120  -13.0850   20.0740 N   0  0  0  0  0  0  0  0  0  0  0  0
  -26.1430  -11.8020   20.3180 N   0  0  0  0  0  0  0  0  0  0  0  0
  -24.1350  -10.6030   20.8910 C   0  0  0  0  0  0  0  0  0  0  0  0
  -24.5320   -9.6500   21.8540 C   0  0  0  0  0  3  0  0  0  0  0  0
  -23.7940   -8.4600   22.0280 C   0  0  0  0  0  3  0  0  0  0  0  0
  -22.6460   -8.2140   21.2380 C   0  0  0  0  0  0  0  0  0  0  0  0
  -22.2700   -9.1560   20.2650 C   0  0  0  0  0  3  0  0  0  0  0  0
  -23.0080  -10.3370   20.0880 C   0  0  0  0  0  3  0  0  0  0  0  0
  -21.8810   -7.0750   21.3200 O   0  0  0  0  0  0  0  0  0  0  0  0
  -21.7080   -6.4090   22.5070 C   0  0  0  0  0  0  0  0  0  0  0  0
  -21.1060   -7.0250   23.6250 C   0  0  0  0  0  3  0  0  0  0  0  0
  -20.8830   -6.2810   24.8020 C   0  0  0  0  0  3  0  0  0  0  0  0
  -21.2510   -4.9240   24.8590 C   0  0  0  0  0  0  0  0  0  0  0  0
  -21.8460   -4.3090   23.7440 C   0  0  0  0  0  3  0  0  0  0  0  0
  -22.0700   -5.0490   22.5690 C   0  0  0  0  0  0  0  0  0  0  0  0
  -22.6240   -4.4450   21.4900 F   0  0  0  0  0  0  0  0  0  0  0  0
  -21.0310   -4.2080   25.9870 F   0  0  0  0  0  0  0  0  0  0  0  0
  -23.0770  -13.7090   21.1760 C   0  0  0  0  0  0  0  0  0  0  0  0
  -22.3810  -12.9920   22.0500 N   0  0  0  0  0  0  0  0  0  0  0  0
  -22.6330  -14.7640   20.7220 O   0  0  0  0  0  0  0  0  0  0  0  0
  -22.7500  -12.1340   22.4340 H   0  0  0  0  0  0  0  0  0  0  0  0
  -21.4660  -13.3050   22.3420 H   0  0  0  0  0  0  0  0  0  0  0  0
  -25.6960  -15.3520   20.2630 N   0  0  0  0  0  0  0  0  0  0  0  0
  -24.9610  -16.0270   20.4430 H   0  0  0  0  0  0  0  0  0  0  0  0
  -26.5440  -15.7750   19.9080 H   0  0  0  0  0  0  0  0  0  0  0  0
  -29.1680  -22.5370   20.5390 C   0  0  0  0  0  3  0  0  0  0  0  0
  -28.5530  -23.9020   19.9460 C   0  0  0  0  0  3  0  0  0  0  0  0
  -28.5350  -25.2240   20.8480 C   0  0  0  0  0  2  0  0  0  0  0  0
  -28.4970  -26.5650   20.2260 O   0  0  0  0  0  0  0  0  0  0  0  0
  -24.6140  -31.8640   23.2530 C   0  0  0  0  0  0  0  0  0  0  0  0
  -27.3330  -27.3400   20.2570 C   0  0  0  0  0  0  0  0  0  0  0  0
  -23.4500  -30.4440   21.5950 C   0  0  0  0  0  3  0  0  0  0  0  0
  -24.9410  -28.8980   20.2050 C   0  0  0  0  0  0  0  0  0  0  0  0
  -25.9830  -30.7970   21.4500 C   0  0  0  0  0  2  0  0  0  0  0  0
  -26.0920  -29.4160   20.8120 C   0  0  0  0  0  0  0  0  0  0  0  0
  -27.2930  -28.6500   20.8220 C   0  0  0  0  0  3  0  0  0  0  0  0
  -26.1610  -26.8570   19.6440 C   0  0  0  0  0  3  0  0  0  0  0  0
  -24.9750  -27.6220   19.6130 C   0  0  0  0  0  3  0  0  0  0  0  0
  -23.6910  -29.7560   20.2230 C   0  0  0  0  0  2  0  0  0  0  0  0
  -24.6980  -31.0560   22.1540 N   0  0  0  0  0  0  0  0  0  0  0  0
  -23.5220  -32.1360   23.7710 O   0  0  0  0  0  0  0  0  0  0  0  0
  -22.7820  -29.4300   22.5530 C   0  0  0  0  0  0  0  0  0  0  0  0
  -21.4600  -29.2480   22.4080 N   0  0  0  0  0  0  0  0  0  0  0  0
  -23.4530  -28.8090   23.3820 O   0  0  0  0  0  0  0  0  0  0  0  0
  -20.9820  -29.7960   21.7090 H   0  0  0  0  0  0  0  0  0  0  0  0
  -18.0790  -28.0500   22.8740 C   0  0  0  0  0  0  0  0  0  0  0  0
  -20.6340  -28.3080   23.1680 C   0  0  0  0  0  3  0  0  0  0  0  0
  -20.7430  -26.8810   22.5840 C   0  0  0  0  0  2  0  0  0  0  0  0
  -19.6500  -26.5630   21.5600 C   0  0  0  0  0  2  0  0  0  0  0  0
  -18.2610  -26.7040   22.1920 C   0  0  0  0  0  2  0  0  0  0  0  0
  -19.1940  -28.8110   23.3150 C   0  0  0  0  0  0  0  0  0  0  0  0
  -18.9690  -30.0700   23.9130 C   0  0  0  0  0  3  0  0  0  0  0  0
  -17.6640  -30.5700   24.0720 C   0  0  0  0  0  3  0  0  0  0  0  0
  -16.5630  -29.8060   23.6470 C   0  0  0  0  0  3  0  0  0  0  0  0
  -16.7720  -28.5480   23.0550 C   0  0  0  0  0  3  0  0  0  0  0  0
  -25.8840  -32.5070   23.8940 C   0  0  0  0  0  3  0  0  0  0  0  0
  -25.5640  -33.9060   24.2070 N   0  0  0  0  0  0  0  0  0  0  0  0
  -25.9110  -34.9550   23.4500 C   0  0  0  0  0  0  0  0  0  0  0  0
  -26.6060  -34.8470   22.4350 O   0  0  0  0  0  0  0  0  0  0  0  0
  -24.9470  -34.0630   24.9910 H   0  0  0  0  0  0  0  0  0  0  0  0
  -24.1960  -36.7470   23.0340 C   0  0  0  0  0  1  0  0  0  0  0  0
  -25.4110  -36.3450   23.8880 C   0  0  0  0  0  3  0  0  0  0  0  0
  -27.5090  -37.2360   24.7970 C   0  0  0  0  0  1  0  0  0  0  0  0
  -26.4470  -37.3970   23.8060 N   0  0  0  0  0  0  0  0  0  0  0  0
  -26.0370  -38.3180   23.9300 H   0  0  0  0  0  0  0  0  0  0  0  0
  -26.3800  -31.7500   25.1870 C   0  0  1  0  0  0  0  0  0  0  0  0
  -25.2630  -31.5060   26.2300 C   0  0  0  0  0  1  0  0  0  0  0  0
  -26.9870  -30.3770   24.8180 C   0  0  0  0  0  1  0  0  0  0  0  0
  -27.5050  -32.5630   25.8690 C   0  0  0  0  0  1  0  0  0  0  0  0
  1  3  1  0
  1 48  1  0
  2  1  1  0
  5  4  1  0
  5  1  1  0
  7  6  1  0
  8  6  1  0
  9 11  1  0
  9 10  1  0
  9  7  1  0
 10  5  1  0
 10  8  1  0
 12 11  1  0
 13 18  1  0
 14 15  1  0
 14 13  1  0
 16 15  1  0
 16 23  1  0
 16 17  1  0
 18 12  1  0
 18 17  1  0
 19 12  2  0
 20 21  2  0
 21 40  1  0
 22 21  1  0
 22 25  1  0
 23 24  1  0
 23 20  1  0
 24 22  2  0
 25 26  1  0
 26 27  2  0
 28 31  1  0
 28 27  1  0
 29 28  2  0
 30 29  1  0
 30 25  2  0
 31 32  1  0
 32 37  2  0
 32 33  1  0
 33 34  2  0
 34 35  1  0
 35 39  1  0
 36 35  2  0
 37 36  1  0
 38 37  1  0
 40 41  1  0
 41 44  1  0
 41 43  1  0
 42 40  2  0
 45 20  1  0
 45 46  1  0
 47 45  1  0
 49 48  2  0
 49 50  1  0
 51 53  1  0
 51 50  1  0
 52 63  2  0
 53 58  1  0
 54 62  1  0
 54 64  1  0
 55 61  1  0
 55 57  1  0
 56 62  1  0
 57 58  2  0
 57 56  1  0
 59 53  2  0
 60 59  1  0
 60 55  2  0
 61 54  1  0
 62 52  1  0
 64 66  2  0
 65 64  1  0
 67 65  1  0
 68 77  2  0
 68 73  1  0
 69 65  1  0
 69 73  1  0
 70 69  1  0
 71 72  1  0
 71 70  1  0
 72 68  1  0
 73 74  2  0
 74 75  1  0
 76 75  2  0
 77 76  1  0
 78 52  1  0
 78 79  1  0
 78 88  1  0
 79 82  1  0
 80 84  1  0
 80 79  1  0
 81 80  2  0
 84 83  1  0
 86 84  1  0
 86 87  1  0
 86 85  1  0
 88 91  1  1
 88 89  1  0
 90 88  1  0
M  ISO  4  11 100  12 100  50 101  51 101
M  END
>  <TORSDO>  (71) 
F 22

>  <SCORE>  (71) 
-12.621

>  <name>  (71) 
71

>  <ligand_id>  (71) 
71

>  <original_smiles>  (71) 
[H]c1c([H])c([H])c2c(c1[H])C([H])([H])C([H])([H])C([H])([H])C2([H])N([H])C(=O)C1([H])N(C(=O)C([H])(N([H])C(=O)C([H])(N([H])C([H])([H])[H])C([H])([H])[H])C(C([H])([H])[H])(C([H])([H])[H])C([H])([H])[H])C([H])([H])c2c([H])c(OC([H])([H])C([H])([H])C([H])([H])[N+]([H])([H])C([H])(C([H])([H])[H])C3([H])C([H])([H])C([H])([H])C([H])([H])C3([H])C([H])([H])C(=O)N3C([H])([H])C([H])([H])C([H])([H])C([H])(n4nc(-c5c([H])c([H])c(Oc6c([H])c([H])c(F)c([H])c6F)c([H])c5[H])c(C(=O)N([H])[H])c4N([H])[H])C3([H])[H])c([H])c([H])c2C1([H])[H]

>  <smiles>  (71) 
[H]c1c([H])c([H])c2c(c1[H])C([H])([H])C([H])([H])C([H])([H])C2([H])N([H])C(=O)C1([H])N(C(=O)C([H])(N([H])C(=O)C([H])(N([H])C([H])([H])[H])C([H])([H])[H])C(C([H])([H])[H])(C([H])([H])[H])C([H])([H])[H])C([H])([H])c2c([H])c(OC([H])([H])C([H])([H])C([H])([H])[N+]([H])([H])C([H])(C([H])([H])[H])C3([H])C([H])([H])C([H])([H])C([H])([H])C3([H])C([H])([H])C(=O)N3C([H])([H])C([H])([H])C([H])([H])C([H])(n4nc(-c5c([H])c([H])c(Oc6c([H])c([H])c(F)c([H])c6F)c([H])c5[H])c(C(=O)N([H])[H])c4N([H])[H])C3([H])[H])c([H])c([H])c2C1([H])[H]

$$$$
72:0:0
     RDKit          3D

 89 97  0  0  1  0  0  0  0  0999 V2000
  -28.8400  -22.0480   20.3710 N   0  0  0  0  0  4  0  0  0  0  0  0
  -28.8510  -21.9780   21.3760 H   0  0  0  0  0  0  0  0  0  0  0  0
  -27.8830  -21.8980   20.0950 H   0  0  0  0  0  0  0  0  0  0  0  0
  -29.6350  -20.8080   19.8190 C   0  0  0  0  0  2  0  0  0  0  0  0
  -31.6760  -19.0470   21.6690 C   0  0  0  0  0  2  0  0  0  0  0  0
  -31.7510  -18.2520   20.3540 C   0  0  0  0  0  2  0  0  0  0  0  0
  -30.1940  -19.3680   21.9060 C   0  0  0  0  0  2  0  0  0  0  0  0
  -30.3050  -17.9320   19.9370 C   0  0  0  0  0  3  0  0  0  0  0  0
  -29.5350  -19.2900   20.5250 C   0  0  0  0  0  3  0  0  0  0  0  0
  -29.9280  -16.3670   20.3990 C   0  0  0  0  0  2  0  0  0  0  0  0
  -30.7410  -14.9940   19.9750 C   0  0  0  0  0  0  0  0  0  0  0  0
  -30.5610  -12.6920   18.9500 C   0  0  0  0  0  2  0  0  0  0  0  0
  -29.5480  -12.7360   17.7810 C   0  0  0  0  0  2  0  0  0  0  0  0
  -28.1100  -12.5230   18.2930 C   0  0  0  0  0  2  0  0  0  0  0  0
  -27.7900  -13.3960   19.5350 C   0  0  0  0  0  3  0  0  0  0  0  0
  -28.9130  -13.3300   20.5910 C   0  0  0  0  0  2  0  0  0  0  0  0
  -30.1650  -13.7320   19.9380 N   0  0  0  0  0  0  0  0  0  0  0  0
  -31.8960  -15.1000   19.5490 O   0  0  0  0  0  0  0  0  0  0  0  0
  -25.4650  -13.9620   20.4510 C   0  0  0  0  0  0  0  0  0  0  0  0
  -24.4240  -13.1760   20.8670 C   0  0  0  0  0  0  0  0  0  0  0  0
  -24.8790  -11.8250   20.7570 C   0  0  0  0  0  0  0  0  0  0  0  0
  -26.4850  -13.0870   20.1080 N   0  0  0  0  0  0  0  0  0  0  0  0
  -26.1460  -11.7970   20.3580 N   0  0  0  0  0  0  0  0  0  0  0  0
  -24.1620  -10.5590   20.9510 C   0  0  0  0  0  0  0  0  0  0  0  0
  -24.6000   -9.5920   21.8830 C   0  0  0  0  0  3  0  0  0  0  0  0
  -23.8800   -8.3910   22.0620 C   0  0  0  0  0  3  0  0  0  0  0  0
  -22.7070   -8.1490   21.3080 C   0  0  0  0  0  0  0  0  0  0  0  0
  -22.2900   -9.1020   20.3640 C   0  0  0  0  0  3  0  0  0  0  0  0
  -23.0100  -10.2940   20.1830 C   0  0  0  0  0  3  0  0  0  0  0  0
  -21.9560   -7.0010   21.4000 O   0  0  0  0  0  0  0  0  0  0  0  0
  -21.8580   -6.2970   22.5720 C   0  0  0  0  0  0  0  0  0  0  0  0
  -21.3420   -6.8780   23.7520 C   0  0  0  0  0  3  0  0  0  0  0  0
  -21.1930   -6.0980   24.9160 C   0  0  0  0  0  3  0  0  0  0  0  0
  -21.5510   -4.7360   24.9020 C   0  0  0  0  0  0  0  0  0  0  0  0
  -22.0600   -4.1540   23.7270 C   0  0  0  0  0  3  0  0  0  0  0  0
  -22.2100   -4.9310   22.5650 C   0  0  0  0  0  0  0  0  0  0  0  0
  -22.6810   -4.3600   21.4310 F   0  0  0  0  0  0  0  0  0  0  0  0
  -21.4010   -3.9840   26.0180 F   0  0  0  0  0  0  0  0  0  0  0  0
  -23.0500  -13.6440   21.2450 C   0  0  0  0  0  0  0  0  0  0  0  0
  -22.3740  -12.9190   22.1300 N   0  0  0  0  0  0  0  0  0  0  0  0
  -22.5840  -14.6870   20.7890 O   0  0  0  0  0  0  0  0  0  0  0  0
  -22.7660  -12.0760   22.5210 H   0  0  0  0  0  0  0  0  0  0  0  0
  -21.4530  -13.2130   22.4210 H   0  0  0  0  0  0  0  0  0  0  0  0
  -25.6280  -15.3370   20.3130 N   0  0  0  0  0  0  0  0  0  0  0  0
  -24.8880  -16.0010   20.5090 H   0  0  0  0  0  0  0  0  0  0  0  0
  -26.4630  -15.7720   19.9380 H   0  0  0  0  0  0  0  0  0  0  0  0
  -29.1950  -23.5440   20.0210 C   0  0  0  0  0  3  0  0  0  0  0  0
  -28.1160  -24.7790   20.3180 C   0  0  0  0  0  3  0  0  0  0  0  0
  -28.3740  -26.3050   20.2480 O   0  0  0  0  0  0  0  0  0  0  0  0
  -24.6580  -31.9190   23.2420 C   0  0  0  0  0  0  0  0  0  0  0  0
  -27.2880  -27.2460   20.2180 C   0  0  0  0  0  0  0  0  0  0  0  0
  -23.4710  -30.5050   21.6120 C   0  0  0  0  0  3  0  0  0  0  0  0
  -24.9310  -28.9430   20.1950 C   0  0  0  0  0  0  0  0  0  0  0  0
  -26.0170  -30.8010   21.4400 C   0  0  0  0  0  2  0  0  0  0  0  0
  -26.1070  -29.4090   20.7990 C   0  0  0  0  0  0  0  0  0  0  0  0
  -27.2850  -28.5750   20.7970 C   0  0  0  0  0  3  0  0  0  0  0  0
  -26.0840  -26.8800   19.5720 C   0  0  0  0  0  3  0  0  0  0  0  0
  -24.9310  -27.6890   19.5700 C   0  0  0  0  0  3  0  0  0  0  0  0
  -23.6920  -29.8200   20.2390 C   0  0  0  0  0  2  0  0  0  0  0  0
  -24.7340  -31.0960   22.1530 N   0  0  0  0  0  0  0  0  0  0  0  0
  -23.5700  -32.1950   23.7690 O   0  0  0  0  0  0  0  0  0  0  0  0
  -22.8050  -29.4930   22.5790 C   0  0  0  0  0  0  0  0  0  0  0  0
  -21.4810  -29.3100   22.4520 N   0  0  0  0  0  0  0  0  0  0  0  0
  -23.4850  -28.8760   23.4030 O   0  0  0  0  0  0  0  0  0  0  0  0
  -20.9870  -29.8620   21.7630 H   0  0  0  0  0  0  0  0  0  0  0  0
  -18.1140  -28.0710   22.9570 C   0  0  0  0  0  0  0  0  0  0  0  0
  -20.6690  -28.3680   23.2290 C   0  0  0  0  0  3  0  0  0  0  0  0
  -20.7900  -26.9320   22.6680 C   0  0  0  0  0  2  0  0  0  0  0  0
  -19.6940  -26.5840   21.6550 C   0  0  0  0  0  2  0  0  0  0  0  0
  -18.3080  -26.7190   22.2920 C   0  0  0  0  0  2  0  0  0  0  0  0
  -19.2210  -28.8520   23.3830 C   0  0  0  0  0  0  0  0  0  0  0  0
  -18.9830  -30.1170   23.9640 C   0  0  0  0  0  3  0  0  0  0  0  0
  -17.6700  -30.5990   24.1260 C   0  0  0  0  0  3  0  0  0  0  0  0
  -16.5770  -29.8150   23.7140 C   0  0  0  0  0  3  0  0  0  0  0  0
  -16.8010  -28.5540   23.1340 C   0  0  0  0  0  3  0  0  0  0  0  0
  -25.9300  -32.5680   23.8670 C   0  0  0  0  0  3  0  0  0  0  0  0
  -25.6100  -33.9680   24.1790 N   0  0  0  0  0  0  0  0  0  0  0  0
  -25.9520  -35.0180   23.4190 C   0  0  0  0  0  0  0  0  0  0  0  0
  -26.6370  -34.9070   22.3980 O   0  0  0  0  0  0  0  0  0  0  0  0
  -24.9990  -34.1270   24.9670 H   0  0  0  0  0  0  0  0  0  0  0  0
  -24.2380  -36.8210   23.0220 C   0  0  0  0  0  1  0  0  0  0  0  0
  -25.4600  -36.4100   23.8610 C   0  0  0  0  0  3  0  0  0  0  0  0
  -27.5770  -37.2960   24.7410 C   0  0  0  0  0  1  0  0  0  0  0  0
  -26.4990  -37.4590   23.7690 N   0  0  0  0  0  0  0  0  0  0  0  0
  -26.0920  -38.3830   23.8950 H   0  0  0  0  0  0  0  0  0  0  0  0
  -26.4400  -31.8170   25.1580 C   0  0  1  0  0  0  0  0  0  0  0  0
  -25.3360  -31.5910   26.2190 C   0  0  0  0  0  1  0  0  0  0  0  0
  -27.0340  -30.4350   24.7990 C   0  0  0  0  0  1  0  0  0  0  0  0
  -27.5820  -32.6280   25.8150 C   0  0  0  0  0  1  0  0  0  0  0  0
  1  2  1  0
  3  1  1  0
  4  1  1  0
  5  7  1  0
  6  5  1  0
  8  6  1  0
  8 10  1  0
  8  9  1  0
  9  4  1  0
  9  7  1  0
 11 10  1  0
 12 17  1  0
 13 14  1  0
 13 12  1  0
 15 14  1  0
 15 22  1  0
 15 16  1  0
 17 11  1  0
 17 16  1  0
 18 11  2  0
 19 20  2  0
 20 39  1  0
 21 20  1  0
 21 24  1  0
 22 23  1  0
 22 19  1  0
 23 21  2  0
 24 25  1  0
 25 26  2  0
 27 30  1  0
 27 26  1  0
 28 27  2  0
 29 28  1  0
 29 24  2  0
 30 31  1  0
 31 32  1  0
 32 33  2  0
 34 33  1  0
 34 38  1  0
 35 34  2  0
 36 31  2  0
 36 35  1  0
 37 36  1  0
 39 40  1  0
 40 43  1  0
 40 42  1  0
 41 39  2  0
 44 19  1  0
 44 45  1  0
 46 44  1  0
 47 48  2  0
 47  1  1  0
 49 48  1  0
 50 61  2  0
 51 49  1  0
 51 56  1  0
 52 60  1  0
 52 62  1  0
 53 59  1  0
 53 55  1  0
 54 60  1  0
 55 54  1  0
 56 55  2  0
 57 51  2  0
 58 57  1  0
 58 53  2  0
 59 52  1  0
 60 50  1  0
 62 64  2  0
 63 62  1  0
 65 63  1  0
 66 75  2  0
 66 71  1  0
 67 63  1  0
 67 71  1  0
 68 67  1  0
 69 70  1  0
 69 68  1  0
 70 66  1  0
 71 72  2  0
 72 73  1  0
 74 73  2  0
 75 74  1  0
 76 50  1  0
 76 77  1  0
 76 86  1  0
 77 80  1  0
 78 82  1  0
 78 77  1  0
 79 78  2  0
 82 81  1  0
 84 82  1  0
 84 85  1  0
 84 83  1  0
 86 89  1  1
 86 87  1  0
 88 86  1  0
M  ISO  4  10 100  11 100  48 101  49 101
M  END
>  <TORSDO>  (72) 
F 21

>  <SCORE>  (72) 
-12.877

>  <name>  (72) 
72

>  <ligand_id>  (72) 
72

>  <original_smiles>  (72) 
[H]c1c([H])c([H])c2c(c1[H])C([H])([H])C([H])([H])C([H])([H])C2([H])N([H])C(=O)C1([H])N(C(=O)C([H])(N([H])C(=O)C([H])(N([H])C([H])([H])[H])C([H])([H])[H])C(C([H])([H])[H])(C([H])([H])[H])C([H])([H])[H])C([H])([H])c2c([H])c(OC([H])([H])C([H])([H])[N+]([H])([H])C([H])([H])C3([H])C([H])([H])C([H])([H])C([H])([H])C3([H])C([H])([H])C(=O)N3C([H])([H])C([H])([H])C([H])([H])C([H])(n4nc(-c5c([H])c([H])c(Oc6c([H])c([H])c(F)c([H])c6F)c([H])c5[H])c(C(=O)N([H])[H])c4N([H])[H])C3([H])[H])c([H])c([H])c2C1([H])[H]

>  <smiles>  (72) 
[H]c1c([H])c([H])c2c(c1[H])C([H])([H])C([H])([H])C([H])([H])C2([H])N([H])C(=O)C1([H])N(C(=O)C([H])(N([H])C(=O)C([H])(N([H])C([H])([H])[H])C([H])([H])[H])C(C([H])([H])[H])(C([H])([H])[H])C([H])([H])[H])C([H])([H])c2c([H])c(OC([H])([H])C([H])([H])[N+]([H])([H])C([H])([H])C3([H])C([H])([H])C([H])([H])C([H])([H])C3([H])C([H])([H])C(=O)N3C([H])([H])C([H])([H])C([H])([H])C([H])(n4nc(-c5c([H])c([H])c(Oc6c([H])c([H])c(F)c([H])c6F)c([H])c5[H])c(C(=O)N([H])[H])c4N([H])[H])C3([H])[H])c([H])c([H])c2C1([H])[H]

$$$$
73:0:0
     RDKit          3D

 93102  0  0  1  0  0  0  0  0999 V2000
  -28.5200  -20.6440   19.9050 N   0  0  0  0  0  4  0  0  0  0  0  0
  -28.2360  -20.0740   19.1220 H   0  0  0  0  0  0  0  0  0  0  0  0
  -27.8060  -20.5110   20.6020 H   0  0  0  0  0  0  0  0  0  0  0  0
  -30.2270  -20.8490   21.6080 C   0  0  0  0  0  1  0  0  0  0  0  0
  -29.8550  -19.9930   20.3640 C   0  0  0  0  0  3  0  0  0  0  0  0
  -31.1020  -17.4470   18.8730 C   0  0  0  0  0  2  0  0  0  0  0  0
  -30.0770  -16.8610   19.9110 C   0  0  0  0  0  3  0  0  0  0  0  0
  -32.3480  -17.7360   19.6990 C   0  0  0  0  0  3  0  0  0  0  0  0
  -31.7730  -18.3650   20.9540 C   0  0  0  0  0  3  0  0  0  0  0  0
  -30.2290  -18.3520   20.7510 C   0  0  0  0  0  3  0  0  0  0  0  0
  -32.9220  -19.0300   20.1580 C   0  0  2  0  0  0  0  0  0  0  0  0
  -32.8700  -20.2230   19.2070 C   0  0  0  0  0  1  0  0  0  0  0  0
  -34.3070  -18.9860   20.7860 C   0  0  0  0  0  1  0  0  0  0  0  0
  -30.6310  -15.2360   19.9770 C   0  0  0  0  0  0  0  0  0  0  0  0
  -30.4100  -12.8590   19.1380 C   0  0  0  0  0  2  0  0  0  0  0  0
  -29.4650  -12.7700   17.9260 C   0  0  0  0  0  2  0  0  0  0  0  0
  -28.0240  -12.5330   18.4070 C   0  0  0  0  0  2  0  0  0  0  0  0
  -27.6230  -13.4770   19.5740 C   0  0  0  0  0  3  0  0  0  0  0  0
  -28.7130  -13.6160   20.6530 C   0  0  0  0  0  2  0  0  0  0  0  0
  -29.9530  -14.0120   19.9780 N   0  0  0  0  0  0  0  0  0  0  0  0
  -31.8350  -15.0570   19.7730 O   0  0  0  0  0  0  0  0  0  0  0  0
  -25.2790  -13.9560   20.4660 C   0  0  0  0  0  0  0  0  0  0  0  0
  -24.2570  -13.1390   20.8660 C   0  0  0  0  0  0  0  0  0  0  0  0
  -24.7590  -11.8040   20.7760 C   0  0  0  0  0  0  0  0  0  0  0  0
  -26.3290  -13.1160   20.1430 N   0  0  0  0  0  0  0  0  0  0  0  0
  -26.0330  -11.8140   20.3990 N   0  0  0  0  0  0  0  0  0  0  0  0
  -24.0750  -10.5170   20.9650 C   0  0  0  0  0  0  0  0  0  0  0  0
  -24.5000   -9.5880   21.9400 C   0  0  0  0  0  3  0  0  0  0  0  0
  -23.8120   -8.3680   22.1170 C   0  0  0  0  0  3  0  0  0  0  0  0
  -22.6850   -8.0670   21.3180 C   0  0  0  0  0  0  0  0  0  0  0  0
  -22.2810   -8.9830   20.3310 C   0  0  0  0  0  3  0  0  0  0  0  0
  -22.9700  -10.1940   20.1520 C   0  0  0  0  0  3  0  0  0  0  0  0
  -21.9700   -6.8960   21.4020 O   0  0  0  0  0  0  0  0  0  0  0  0
  -21.7940   -6.2440   22.5960 C   0  0  0  0  0  0  0  0  0  0  0  0
  -21.1710   -6.8650   23.7000 C   0  0  0  0  0  3  0  0  0  0  0  0
  -20.9470   -6.1350   24.8850 C   0  0  0  0  0  3  0  0  0  0  0  0
  -21.3350   -4.7840   24.9650 C   0  0  0  0  0  0  0  0  0  0  0  0
  -21.9540   -4.1640   23.8650 C   0  0  0  0  0  3  0  0  0  0  0  0
  -22.1790   -4.8910   22.6840 C   0  0  0  0  0  0  0  0  0  0  0  0
  -22.7530   -4.2800   21.6190 F   0  0  0  0  0  0  0  0  0  0  0  0
  -21.1180   -4.0820   26.1000 F   0  0  0  0  0  0  0  0  0  0  0  0
  -22.8640  -13.5710   21.2160 C   0  0  0  0  0  0  0  0  0  0  0  0
  -22.2050  -12.8490   22.1170 N   0  0  0  0  0  0  0  0  0  0  0  0
  -22.3690  -14.5820   20.7240 O   0  0  0  0  0  0  0  0  0  0  0  0
  -22.6250  -12.0330   22.5360 H   0  0  0  0  0  0  0  0  0  0  0  0
  -21.2710  -13.1170   22.3900 H   0  0  0  0  0  0  0  0  0  0  0  0
  -25.4000  -15.3350   20.3220 N   0  0  0  0  0  0  0  0  0  0  0  0
  -24.6270  -15.9670   20.5010 H   0  0  0  0  0  0  0  0  0  0  0  0
  -26.2230  -15.8040   19.9630 H   0  0  0  0  0  0  0  0  0  0  0  0
  -28.4500  -22.1200   19.3240 C   0  0  0  0  0  3  0  0  0  0  0  0
  -28.0020  -23.5280   20.1130 C   0  0  0  0  0  3  0  0  0  0  0  0
  -27.8340  -24.9780   19.2880 C   0  0  0  0  0  2  0  0  0  0  0  0
  -27.8720  -26.4360   19.8100 O   0  0  0  0  0  0  0  0  0  0  0  0
  -24.4890  -31.9740   23.1890 C   0  0  0  0  0  0  0  0  0  0  0  0
  -26.8000  -27.3870   19.8090 C   0  0  0  0  0  0  0  0  0  0  0  0
  -23.1660  -30.6600   21.5750 C   0  0  0  0  0  3  0  0  0  0  0  0
  -24.4950  -29.1340   19.9970 C   0  0  0  0  0  0  0  0  0  0  0  0
  -25.7050  -30.9140   21.2540 C   0  0  0  0  0  2  0  0  0  0  0  0
  -25.7140  -29.5530   20.5400 C   0  0  0  0  0  0  0  0  0  0  0  0
  -26.8670  -28.6960   20.4280 C   0  0  0  0  0  3  0  0  0  0  0  0
  -25.5480  -27.0520   19.2480 C   0  0  0  0  0  3  0  0  0  0  0  0
  -24.4190  -27.8950   19.3410 C   0  0  0  0  0  3  0  0  0  0  0  0
  -23.2870  -30.0430   20.1560 C   0  0  0  0  0  2  0  0  0  0  0  0
  -24.4770  -31.2010   22.0610 N   0  0  0  0  0  0  0  0  0  0  0  0
  -23.4460  -32.2440   23.8020 O   0  0  0  0  0  0  0  0  0  0  0  0
  -22.5480  -29.6150   22.5360 C   0  0  0  0  0  0  0  0  0  0  0  0
  -21.2230  -29.4020   22.4420 N   0  0  0  0  0  0  0  0  0  0  0  0
  -23.2600  -29.0010   23.3350 O   0  0  0  0  0  0  0  0  0  0  0  0
  -20.7000  -29.9510   21.7770 H   0  0  0  0  0  0  0  0  0  0  0  0
  -17.9140  -28.0210   22.9470 C   0  0  0  0  0  0  0  0  0  0  0  0
  -20.4520  -28.4280   23.2200 C   0  0  0  0  0  3  0  0  0  0  0  0
  -20.6350  -26.9970   22.6660 C   0  0  0  0  0  2  0  0  0  0  0  0
  -19.5590  -26.5970   21.6520 C   0  0  0  0  0  2  0  0  0  0  0  0
  -18.1690  -26.6760   22.2900 C   0  0  0  0  0  2  0  0  0  0  0  0
  -18.9850  -28.8520   23.3700 C   0  0  0  0  0  0  0  0  0  0  0  0
  -18.6910  -30.1050   23.9490 C   0  0  0  0  0  3  0  0  0  0  0  0
  -17.3570  -30.5330   24.1040 C   0  0  0  0  0  3  0  0  0  0  0  0
  -16.3020  -29.6990   23.6970 C   0  0  0  0  0  3  0  0  0  0  0  0
  -16.5810  -28.4470   23.1230 C   0  0  0  0  0  3  0  0  0  0  0  0
  -25.8150  -32.5720   23.7510 C   0  0  0  0  0  3  0  0  0  0  0  0
  -25.5480  -33.9670   24.1340 N   0  0  0  0  0  0  0  0  0  0  0  0
  -25.8560  -35.0370   23.3910 C   0  0  0  0  0  0  0  0  0  0  0  0
  -26.4660  -34.9550   22.3220 O   0  0  0  0  0  0  0  0  0  0  0  0
  -25.0100  -34.1060   24.9760 H   0  0  0  0  0  0  0  0  0  0  0  0
  -24.1440  -36.8690   23.1890 C   0  0  0  0  0  1  0  0  0  0  0  0
  -25.4230  -36.4200   23.9140 C   0  0  0  0  0  3  0  0  0  0  0  0
  -27.6160  -37.2520   24.6510 C   0  0  0  0  0  1  0  0  0  0  0  0
  -26.4670  -37.4610   23.7730 N   0  0  0  0  0  0  0  0  0  0  0  0
  -26.0820  -38.3800   23.9680 H   0  0  0  0  0  0  0  0  0  0  0  0
  -26.3940  -31.7650   24.9790 C   0  0  1  0  0  0  0  0  0  0  0  0
  -25.3600  -31.5060   26.1000 C   0  0  0  0  0  1  0  0  0  0  0  0
  -26.9430  -30.3930   24.5260 C   0  0  0  0  0  1  0  0  0  0  0  0
  -27.5820  -32.5350   25.5990 C   0  0  0  0  0  1  0  0  0  0  0  0
  1  5  1  0
  1  3  1  0
  2  1  1  0
  5  4  1  0
  6  7  1  0
  7 14  1  0
  7 10  1  0
  8  6  1  0
  8 11  1  0
  8  9  1  0
  9 11  1  0
 10  5  1  0
 10  9  1  0
 11 13  1  1
 12 11  1  0
 14 20  1  0
 15 20  1  0
 16 17  1  0
 16 15  1  0
 18 17  1  0
 18 25  1  0
 18 19  1  0
 20 19  1  0
 21 14  2  0
 22 23  2  0
 23 42  1  0
 24 23  1  0
 24 27  1  0
 25 26  1  0
 25 22  1  0
 26 24  2  0
 27 28  1  0
 28 29  2  0
 30 33  1  0
 30 29  1  0
 31 30  2  0
 32 31  1  0
 32 27  2  0
 33 34  1  0
 34 39  2  0
 34 35  1  0
 35 36  2  0
 36 37  1  0
 37 41  1  0
 38 37  2  0
 39 38  1  0
 40 39  1  0
 42 43  1  0
 43 46  1  0
 43 45  1  0
 44 42  2  0
 47 22  1  0
 47 48  1  0
 49 47  1  0
 50  1  1  0
 50 51  2  0
 52 53  1  0
 52 51  1  0
 54 65  2  0
 55 53  1  0
 55 60  1  0
 56 64  1  0
 56 66  1  0
 57 63  1  0
 57 59  1  0
 58 64  1  0
 59 58  1  0
 60 59  2  0
 61 62  1  0
 61 55  2  0
 62 57  2  0
 63 56  1  0
 64 54  1  0
 66 68  2  0
 67 66  1  0
 69 67  1  0
 70 79  2  0
 70 75  1  0
 71 67  1  0
 71 75  1  0
 72 71  1  0
 73 74  1  0
 73 72  1  0
 74 70  1  0
 75 76  2  0
 76 77  1  0
 78 77  2  0
 79 78  1  0
 80 54  1  0
 80 81  1  0
 80 90  1  0
 81 84  1  0
 82 86  1  0
 82 81  1  0
 83 82  2  0
 86 85  1  0
 88 86  1  0
 88 89  1  0
 88 87  1  0
 90 93  1  1
 90 91  1  0
 92 90  1  0
M  ISO  4   7 100  14 100  52 101  53 101
M  END
>  <TORSDO>  (73) 
F 21

>  <SCORE>  (73) 
-14.070

>  <name>  (73) 
73

>  <ligand_id>  (73) 
73

>  <original_smiles>  (73) 
[H]c1c([H])c([H])c2c(c1[H])C([H])([H])C([H])([H])C([H])([H])C2([H])N([H])C(=O)C1([H])N(C(=O)C([H])(N([H])C(=O)C([H])(N([H])C([H])([H])[H])C([H])([H])[H])C(C([H])([H])[H])(C([H])([H])[H])C([H])([H])[H])C([H])([H])c2c([H])c(OC([H])([H])C([H])([H])C([H])([H])[N+]([H])([H])C([H])(C([H])([H])[H])C3([H])C([H])(C(=O)N4C([H])([H])C([H])([H])C([H])([H])C([H])(n5nc(-c6c([H])c([H])c(Oc7c([H])c([H])c(F)c([H])c7F)c([H])c6[H])c(C(=O)N([H])[H])c5N([H])[H])C4([H])[H])C([H])([H])C4([H])C3([H])C4(C([H])([H])[H])C([H])([H])[H])c([H])c([H])c2C1([H])[H]

>  <smiles>  (73) 
[H]c1c([H])c([H])c2c(c1[H])C([H])([H])C([H])([H])C([H])([H])C2([H])N([H])C(=O)C1([H])N(C(=O)C([H])(N([H])C(=O)C([H])(N([H])C([H])([H])[H])C([H])([H])[H])C(C([H])([H])[H])(C([H])([H])[H])C([H])([H])[H])C([H])([H])c2c([H])c(OC([H])([H])C([H])([H])C([H])([H])[N+]([H])([H])C([H])(C([H])([H])[H])C3([H])C([H])(C(=O)N4C([H])([H])C([H])([H])C([H])([H])C([H])(n5nc(-c6c([H])c([H])c(Oc7c([H])c([H])c(F)c([H])c7F)c([H])c6[H])c(C(=O)N([H])[H])c5N([H])[H])C4([H])[H])C([H])([H])C4([H])C3([H])C4(C([H])([H])[H])C([H])([H])[H])c([H])c([H])c2C1([H])[H]

$$$$
74:0:0
     RDKit          3D

 91100  0  0  1  0  0  0  0  0999 V2000
  -27.3470  -20.0540   20.3590 C   0  0  0  0  0  3  0  0  0  0  0  0
  -28.0490  -18.8330   20.1870 C   0  0  0  0  0  3  0  0  0  0  0  0
  -30.0640  -20.0700   19.6300 C   0  0  0  0  0  3  0  0  0  0  0  0
  -28.0070  -21.2840   20.1650 C   0  0  0  0  0  0  0  0  0  0  0  0
  -29.3430  -21.3120   19.8050 C   0  0  0  0  0  0  0  0  0  0  0  0
  -29.4280  -18.7820   19.8350 C   0  0  0  0  0  0  0  0  0  0  0  0
  -27.4120  -22.6790   20.3220 C   0  0  0  0  0  2  0  0  0  0  0  0
  -29.7680  -22.8020   19.6440 C   0  0  0  0  0  2  0  0  0  0  0  0
  -28.4560  -23.7220   19.7840 C   0  0  0  0  0  3  0  0  0  0  0  0
  -30.1390  -17.3800   19.5260 C   0  0  0  0  0  2  0  0  0  0  0  0
  -31.3810  -16.5820   21.6070 C   0  0  0  0  0  1  0  0  0  0  0  0
  -29.0140  -16.0630   21.4540 C   0  0  0  0  0  1  0  0  0  0  0  0
  -30.2840  -16.1610   20.5910 C   0  0  1  0  0  0  0  0  0  0  0  0
  -30.8050  -14.7680   19.9210 C   0  0  0  0  0  0  0  0  0  0  0  0
  -30.5230  -12.5520   18.7830 C   0  0  0  0  0  2  0  0  0  0  0  0
  -29.4910  -12.6510   17.6380 C   0  0  0  0  0  2  0  0  0  0  0  0
  -28.0510  -12.4540   18.1540 C   0  0  0  0  0  2  0  0  0  0  0  0
  -27.7660  -13.3030   19.4220 C   0  0  0  0  0  3  0  0  0  0  0  0
  -28.8970  -13.1070   20.4500 C   0  0  0  0  0  2  0  0  0  0  0  0
  -30.1570  -13.5460   19.8290 N   0  0  0  0  0  0  0  0  0  0  0  0
  -31.9130  -14.8500   19.3760 O   0  0  0  0  0  0  0  0  0  0  0  0
  -25.4490  -13.8940   20.3700 C   0  0  0  0  0  0  0  0  0  0  0  0
  -24.4120  -13.1160   20.8130 C   0  0  0  0  0  0  0  0  0  0  0  0
  -24.8510  -11.7650   20.6840 C   0  0  0  0  0  0  0  0  0  0  0  0
  -26.4570  -13.0130   20.0060 N   0  0  0  0  0  0  0  0  0  0  0  0
  -26.1070  -11.7260   20.2540 N   0  0  0  0  0  0  0  0  0  0  0  0
  -24.1260  -10.5020   20.8850 C   0  0  0  0  0  0  0  0  0  0  0  0
  -24.5570   -9.5480   21.8330 C   0  0  0  0  0  3  0  0  0  0  0  0
  -23.8350   -8.3490   22.0170 C   0  0  0  0  0  3  0  0  0  0  0  0
  -22.6700   -8.0970   21.2550 C   0  0  0  0  0  0  0  0  0  0  0  0
  -22.2590   -9.0400   20.2990 C   0  0  0  0  0  3  0  0  0  0  0  0
  -22.9830  -10.2310   20.1100 C   0  0  0  0  0  3  0  0  0  0  0  0
  -21.9190   -6.9500   21.3510 O   0  0  0  0  0  0  0  0  0  0  0  0
  -21.7730   -6.2810   22.5400 C   0  0  0  0  0  0  0  0  0  0  0  0
  -21.2110   -6.8980   23.6790 C   0  0  0  0  0  3  0  0  0  0  0  0
  -21.0110   -6.1510   24.8570 C   0  0  0  0  0  3  0  0  0  0  0  0
  -21.3640   -4.7890   24.8980 C   0  0  0  0  0  0  0  0  0  0  0  0
  -21.9180   -4.1720   23.7640 C   0  0  0  0  0  3  0  0  0  0  0  0
  -22.1200   -4.9160   22.5870 C   0  0  0  0  0  0  0  0  0  0  0  0
  -22.6330   -4.3090   21.4890 F   0  0  0  0  0  0  0  0  0  0  0  0
  -21.1660   -4.0700   26.0280 F   0  0  0  0  0  0  0  0  0  0  0  0
  -23.0490  -13.5980   21.2240 C   0  0  0  0  0  0  0  0  0  0  0  0
  -22.3800  -12.8760   22.1170 N   0  0  0  0  0  0  0  0  0  0  0  0
  -22.5830  -14.6470   20.7830 O   0  0  0  0  0  0  0  0  0  0  0  0
  -22.7620  -12.0270   22.5070 H   0  0  0  0  0  0  0  0  0  0  0  0
  -21.4670  -13.1840   22.4210 H   0  0  0  0  0  0  0  0  0  0  0  0
  -25.6040  -15.2670   20.2160 N   0  0  0  0  0  0  0  0  0  0  0  0
  -24.8270  -15.9070   20.3450 H   0  0  0  0  0  0  0  0  0  0  0  0
  -26.3850  -15.6900   19.7310 H   0  0  0  0  0  0  0  0  0  0  0  0
  -28.4510  -25.1040   20.6360 C   0  0  0  0  0  2  0  0  0  0  0  0
  -28.5170  -26.4850   20.0690 O   0  0  0  0  0  0  0  0  0  0  0  0
  -24.5790  -31.7630   23.1500 C   0  0  0  0  0  0  0  0  0  0  0  0
  -27.3690  -27.3000   20.0890 C   0  0  0  0  0  0  0  0  0  0  0  0
  -23.4400  -30.3550   21.4700 C   0  0  0  0  0  3  0  0  0  0  0  0
  -24.9590  -28.8510   20.0560 C   0  0  0  0  0  0  0  0  0  0  0  0
  -25.9720  -30.7400   21.3340 C   0  0  0  0  0  2  0  0  0  0  0  0
  -26.1030  -29.3670   20.6790 C   0  0  0  0  0  0  0  0  0  0  0  0
  -27.3130  -28.6030   20.6830 C   0  0  0  0  0  3  0  0  0  0  0  0
  -26.2000  -26.8320   19.4600 C   0  0  0  0  0  3  0  0  0  0  0  0
  -25.0110  -27.5900   19.4350 C   0  0  0  0  0  3  0  0  0  0  0  0
  -23.6980  -29.6940   20.0890 C   0  0  0  0  0  2  0  0  0  0  0  0
  -24.6800  -30.9720   22.0410 N   0  0  0  0  0  0  0  0  0  0  0  0
  -23.4790  -32.0030   23.6710 O   0  0  0  0  0  0  0  0  0  0  0  0
  -22.7800  -29.3170   22.4100 C   0  0  0  0  0  0  0  0  0  0  0  0
  -21.4590  -29.1160   22.2600 N   0  0  0  0  0  0  0  0  0  0  0  0
  -23.4600  -28.6920   23.2290 O   0  0  0  0  0  0  0  0  0  0  0  0
  -20.9690  -29.6710   21.5700 H   0  0  0  0  0  0  0  0  0  0  0  0
  -18.1030  -27.8440   22.6990 C   0  0  0  0  0  0  0  0  0  0  0  0
  -20.6520  -28.1510   23.0080 C   0  0  0  0  0  3  0  0  0  0  0  0
  -20.7900  -26.7330   22.4100 C   0  0  0  0  0  2  0  0  0  0  0  0
  -19.7090  -26.4080   21.3750 C   0  0  0  0  0  2  0  0  0  0  0  0
  -18.3150  -26.5130   22.0020 C   0  0  0  0  0  2  0  0  0  0  0  0
  -19.2000  -28.6200   23.1580 C   0  0  0  0  0  0  0  0  0  0  0  0
  -18.9470  -29.8660   23.7710 C   0  0  0  0  0  3  0  0  0  0  0  0
  -17.6300  -30.3370   23.9300 C   0  0  0  0  0  3  0  0  0  0  0  0
  -16.5470  -29.5570   23.4860 C   0  0  0  0  0  3  0  0  0  0  0  0
  -16.7840  -28.3130   22.8760 C   0  0  0  0  0  3  0  0  0  0  0  0
  -25.8310  -32.4190   23.8070 C   0  0  0  0  0  3  0  0  0  0  0  0
  -26.3380  -31.6500   25.0880 C   0  0  1  0  0  0  0  0  0  0  0  0
  -25.2290  -31.3770   26.1310 C   0  0  0  0  0  1  0  0  0  0  0  0
  -26.9590  -30.2900   24.6960 C   0  0  0  0  0  1  0  0  0  0  0  0
  -27.4560  -32.4670   25.7780 C   0  0  0  0  0  1  0  0  0  0  0  0
  -25.4810  -33.8090   24.1400 N   0  0  0  0  0  0  0  0  0  0  0  0
  -25.8010  -34.8760   23.3960 C   0  0  0  0  0  0  0  0  0  0  0  0
  -26.4900  -34.7950   22.3740 O   0  0  0  0  0  0  0  0  0  0  0  0
  -24.8700  -33.9430   24.9320 H   0  0  0  0  0  0  0  0  0  0  0  0
  -24.0430  -36.6380   23.0240 C   0  0  0  0  0  1  0  0  0  0  0  0
  -25.2760  -36.2500   23.8570 C   0  0  0  0  0  3  0  0  0  0  0  0
  -27.3720  -37.1760   24.7410 C   0  0  0  0  0  1  0  0  0  0  0  0
  -26.2890  -37.3250   23.7720 N   0  0  0  0  0  0  0  0  0  0  0  0
  -25.8590  -38.2370   23.9120 H   0  0  0  0  0  0  0  0  0  0  0  0
  2  1  1  0
  3  5  2  0
  3  6  1  0
  4  7  1  0
  4  1  2  0
  5  4  1  0
  6  2  2  0
  8  9  1  0
  8  5  1  0
  9  7  1  0
  9 50  1  0
 10  6  1  0
 10 13  1  0
 13 12  1  1
 13 11  1  0
 14 13  1  0
 15 20  1  0
 16 17  1  0
 16 15  1  0
 18 17  1  0
 18 25  1  0
 18 19  1  0
 20 14  1  0
 20 19  1  0
 21 14  2  0
 22 23  2  0
 23 42  1  0
 24 23  1  0
 24 27  1  0
 25 26  1  0
 25 22  1  0
 26 24  2  0
 27 28  1  0
 28 29  2  0
 30 33  1  0
 30 29  1  0
 31 30  2  0
 32 31  1  0
 32 27  2  0
 33 34  1  0
 34 39  2  0
 34 35  1  0
 35 36  2  0
 36 37  1  0
 37 41  1  0
 38 37  2  0
 39 38  1  0
 40 39  1  0
 42 43  1  0
 43 46  1  0
 43 45  1  0
 44 42  2  0
 47 48  1  0
 47 22  1  0
 49 47  1  0
 51 53  1  0
 51 50  1  0
 52 63  2  0
 53 58  1  0
 54 62  1  0
 54 64  1  0
 55 61  1  0
 55 57  1  0
 56 62  1  0
 57 58  2  0
 57 56  1  0
 59 53  2  0
 60 59  1  0
 60 55  2  0
 61 54  1  0
 62 52  1  0
 64 66  2  0
 65 64  1  0
 67 65  1  0
 68 77  2  0
 68 73  1  0
 69 65  1  0
 69 73  1  0
 70 69  1  0
 71 72  1  0
 71 70  1  0
 72 68  1  0
 73 74  2  0
 74 75  1  0
 76 75  2  0
 77 76  1  0
 78 52  1  0
 78 83  1  0
 78 79  1  0
 79 82  1  1
 79 80  1  0
 81 79  1  0
 83 86  1  0
 84 88  1  0
 84 83  1  0
 85 84  2  0
 88 87  1  0
 90 88  1  0
 90 91  1  0
 90 89  1  0
M  ISO  4  13 100  14 100  50 101  51 101
M  END
>  <TORSDO>  (74) 
F 19

>  <SCORE>  (74) 
-13.031

>  <name>  (74) 
74

>  <ligand_id>  (74) 
74

>  <original_smiles>  (74) 
[H]c1c([H])c([H])c2c(c1[H])C([H])([H])C([H])([H])C([H])([H])C2([H])N([H])C(=O)C1([H])N(C(=O)C([H])(N([H])C(=O)C([H])(N([H])C([H])([H])[H])C([H])([H])[H])C(C([H])([H])[H])(C([H])([H])[H])C([H])([H])[H])C([H])([H])c2c([H])c(OC([H])([H])C3([H])C([H])([H])c4c([H])c([H])c(C([H])([H])C(C(=O)N5C([H])([H])C([H])([H])C([H])([H])C([H])(n6nc(-c7c([H])c([H])c(Oc8c([H])c([H])c(F)c([H])c8F)c([H])c7[H])c(C(=O)N([H])[H])c6N([H])[H])C5([H])[H])(C([H])([H])[H])C([H])([H])[H])c([H])c4C3([H])[H])c([H])c([H])c2C1([H])[H]

>  <smiles>  (74) 
[H]c1c([H])c([H])c2c(c1[H])C([H])([H])C([H])([H])C([H])([H])C2([H])N([H])C(=O)C1([H])N(C(=O)C([H])(N([H])C(=O)C([H])(N([H])C([H])([H])[H])C([H])([H])[H])C(C([H])([H])[H])(C([H])([H])[H])C([H])([H])[H])C([H])([H])c2c([H])c(OC([H])([H])C3([H])C([H])([H])c4c([H])c([H])c(C([H])([H])C(C(=O)N5C([H])([H])C([H])([H])C([H])([H])C([H])(n6nc(-c7c([H])c([H])c(Oc8c([H])c([H])c(F)c([H])c8F)c([H])c7[H])c(C(=O)N([H])[H])c6N([H])[H])C5([H])[H])(C([H])([H])[H])C([H])([H])[H])c([H])c4C3([H])[H])c([H])c([H])c2C1([H])[H]

$$$$
75:0:0
     RDKit          3D

 95104  0  0  1  0  0  0  0  0999 V2000
  -28.9190  -21.1270   23.2370 C   0  0  0  0  0  1  0  0  0  0  0  0
  -30.0050  -21.6130   22.2590 C   0  0  0  0  0  3  0  0  0  0  0  0
  -32.4940  -18.1860   20.3040 C   0  0  0  0  0  2  0  0  0  0  0  0
  -31.3840  -17.8010   19.3070 C   0  0  0  0  0  2  0  0  0  0  0  0
  -32.1970  -20.1420   22.0700 C   0  0  0  0  0  2  0  0  0  0  0  0
  -29.4700  -18.2860   20.8380 C   0  0  0  0  0  2  0  0  0  0  0  0
  -31.9600  -18.6890   21.6500 C   0  0  0  0  0  3  0  0  0  0  0  0
  -30.4530  -18.9810   21.7830 C   0  0  0  0  0  3  0  0  0  0  0  0
  -30.7860  -20.4770   21.5680 C   0  0  0  0  0  3  0  0  0  0  0  0
  -30.1170  -17.1830   19.9580 C   0  0  1  0  0  0  0  0  0  0  0  0
  -29.1150  -16.8510   18.8310 C   0  0  0  0  0  1  0  0  0  0  0  0
  -30.3940  -15.9100   20.8400 C   0  0  0  0  0  2  0  0  0  0  0  0
  -31.0470  -14.6920   20.1380 C   0  0  0  0  0  0  0  0  0  0  0  0
  -30.7110  -12.5670   18.9440 C   0  0  0  0  0  2  0  0  0  0  0  0
  -29.7290  -12.8170   17.7790 C   0  0  0  0  0  2  0  0  0  0  0  0
  -28.2650  -12.6870   18.2510 C   0  0  0  0  0  2  0  0  0  0  0  0
  -27.9830  -13.4820   19.5550 C   0  0  0  0  0  3  0  0  0  0  0  0
  -29.0710  -13.1910   20.6110 C   0  0  0  0  0  2  0  0  0  0  0  0
  -30.3740  -13.5170   20.0130 N   0  0  0  0  0  0  0  0  0  0  0  0
  -32.1590  -14.8530   19.6270 O   0  0  0  0  0  0  0  0  0  0  0  0
  -25.6090  -14.1110   20.3290 C   0  0  0  0  0  0  0  0  0  0  0  0
  -24.5440  -13.3430   20.7200 C   0  0  0  0  0  0  0  0  0  0  0  0
  -24.9940  -11.9880   20.6640 C   0  0  0  0  0  0  0  0  0  0  0  0
  -26.6410  -13.2220   20.0650 N   0  0  0  0  0  0  0  0  0  0  0  0
  -26.2740  -11.9400   20.3210 N   0  0  0  0  0  0  0  0  0  0  0  0
  -24.2660  -10.7300   20.8630 C   0  0  0  0  0  0  0  0  0  0  0  0
  -24.6350   -9.8160   21.8740 C   0  0  0  0  0  3  0  0  0  0  0  0
  -23.9090   -8.6190   22.0580 C   0  0  0  0  0  3  0  0  0  0  0  0
  -22.8000   -8.3290   21.2280 C   0  0  0  0  0  0  0  0  0  0  0  0
  -22.4520   -9.2310   20.2070 C   0  0  0  0  0  3  0  0  0  0  0  0
  -23.1790  -10.4190   20.0230 C   0  0  0  0  0  3  0  0  0  0  0  0
  -22.0530   -7.1800   21.3150 O   0  0  0  0  0  0  0  0  0  0  0  0
  -21.8140   -6.5680   22.5190 C   0  0  0  0  0  0  0  0  0  0  0  0
  -21.1460   -7.2290   23.5720 C   0  0  0  0  0  3  0  0  0  0  0  0
  -20.8600   -6.5390   24.7680 C   0  0  0  0  0  3  0  0  0  0  0  0
  -21.2300   -5.1890   24.9080 C   0  0  0  0  0  0  0  0  0  0  0  0
  -21.8910   -4.5270   23.8590 C   0  0  0  0  0  3  0  0  0  0  0  0
  -22.1790   -5.2130   22.6660 C   0  0  0  0  0  0  0  0  0  0  0  0
  -22.7970   -4.5650   21.6500 F   0  0  0  0  0  0  0  0  0  0  0  0
  -20.9490   -4.5230   26.0530 F   0  0  0  0  0  0  0  0  0  0  0  0
  -23.1580  -13.8270   21.0360 C   0  0  0  0  0  0  0  0  0  0  0  0
  -22.4540  -13.1330   21.9230 N   0  0  0  0  0  0  0  0  0  0  0  0
  -22.7090  -14.8550   20.5310 O   0  0  0  0  0  0  0  0  0  0  0  0
  -22.8300  -12.3000   22.3520 H   0  0  0  0  0  0  0  0  0  0  0  0
  -21.5260  -13.4390   22.1770 H   0  0  0  0  0  0  0  0  0  0  0  0
  -25.7780  -15.4810   20.1600 N   0  0  0  0  0  0  0  0  0  0  0  0
  -25.0200  -16.1410   20.2990 H   0  0  0  0  0  0  0  0  0  0  0  0
  -26.6290  -15.9170   19.8350 H   0  0  0  0  0  0  0  0  0  0  0  0
  -29.4250  -22.5160   21.2400 N   0  0  0  0  0  4  0  0  0  0  0  0
  -30.0250  -22.4690   20.4310 H   0  0  0  0  0  0  0  0  0  0  0  0
  -28.5190  -22.1720   20.9630 H   0  0  0  0  0  0  0  0  0  0  0  0
  -29.3390  -23.9360   21.6410 C   0  0  0  0  0  2  0  0  0  0  0  0
  -28.8750  -24.8240   20.4790 C   0  0  0  0  0  2  0  0  0  0  0  0
  -29.0060  -26.3200   20.7880 C   0  0  0  0  0  2  0  0  0  0  0  0
  -28.5850  -27.0330   19.6360 O   0  0  0  0  0  0  0  0  0  0  0  0
  -24.6170  -31.7780   23.1450 C   0  0  0  0  0  0  0  0  0  0  0  0
  -27.3780  -27.6620   19.7720 C   0  0  0  0  0  0  0  0  0  0  0  0
  -23.4250  -30.3930   21.4740 C   0  0  0  0  0  3  0  0  0  0  0  0
  -24.9070  -28.9950   19.9390 C   0  0  0  0  0  0  0  0  0  0  0  0
  -25.9160  -30.8960   21.2170 C   0  0  0  0  0  2  0  0  0  0  0  0
  -26.0500  -29.5610   20.5190 C   0  0  0  0  0  0  0  0  0  0  0  0
  -27.2890  -28.8960   20.4450 C   0  0  0  0  0  3  0  0  0  0  0  0
  -26.2290  -27.0930   19.1940 C   0  0  0  0  0  3  0  0  0  0  0  0
  -24.9880  -27.7540   19.2790 C   0  0  0  0  0  3  0  0  0  0  0  0
  -23.6240  -29.7840   20.0580 C   0  0  0  0  0  2  0  0  0  0  0  0
  -24.6710  -31.0350   22.0050 N   0  0  0  0  0  0  0  0  0  0  0  0
  -23.5430  -31.9720   23.7330 O   0  0  0  0  0  0  0  0  0  0  0  0
  -22.8590  -29.2970   22.4050 C   0  0  0  0  0  0  0  0  0  0  0  0
  -21.5510  -29.0220   22.2760 N   0  0  0  0  0  0  0  0  0  0  0  0
  -23.5920  -28.7000   23.1970 O   0  0  0  0  0  0  0  0  0  0  0  0
  -21.0200  -29.5630   21.6090 H   0  0  0  0  0  0  0  0  0  0  0  0
  -18.2850  -27.5430   22.7010 C   0  0  0  0  0  0  0  0  0  0  0  0
  -20.8090  -28.0050   23.0160 C   0  0  0  0  0  3  0  0  0  0  0  0
  -21.0380  -26.6000   22.4140 C   0  0  0  0  0  2  0  0  0  0  0  0
  -19.9800  -26.2080   21.3770 C   0  0  0  0  0  2  0  0  0  0  0  0
  -18.5820  -26.2260   22.0030 C   0  0  0  0  0  2  0  0  0  0  0  0
  -19.3310  -28.3850   23.1620 C   0  0  0  0  0  0  0  0  0  0  0  0
  -19.0010  -29.6160   23.7700 C   0  0  0  0  0  3  0  0  0  0  0  0
  -17.6580  -30.0070   23.9240 C   0  0  0  0  0  3  0  0  0  0  0  0
  -16.6260  -29.1610   23.4820 C   0  0  0  0  0  3  0  0  0  0  0  0
  -16.9400  -27.9310   22.8760 C   0  0  0  0  0  3  0  0  0  0  0  0
  -25.8930  -32.4410   23.7530 C   0  0  0  0  0  3  0  0  0  0  0  0
  -25.5400  -33.8150   24.1290 N   0  0  0  0  0  0  0  0  0  0  0  0
  -25.8140  -34.8990   23.3910 C   0  0  0  0  0  0  0  0  0  0  0  0
  -26.4640  -34.8500   22.3420 O   0  0  0  0  0  0  0  0  0  0  0  0
  -24.9620  -33.9260   24.9510 H   0  0  0  0  0  0  0  0  0  0  0  0
  -24.0140  -36.6330   23.1150 C   0  0  0  0  0  1  0  0  0  0  0  0
  -25.2830  -36.2540   23.8950 C   0  0  0  0  0  3  0  0  0  0  0  0
  -27.3930  -37.2020   24.7200 C   0  0  0  0  0  1  0  0  0  0  0  0
  -26.2720  -37.3490   23.7940 N   0  0  0  0  0  0  0  0  0  0  0  0
  -25.8320  -38.2470   23.9720 H   0  0  0  0  0  0  0  0  0  0  0  0
  -26.4730  -31.6530   24.9900 C   0  0  1  0  0  0  0  0  0  0  0  0
  -25.4200  -31.3400   26.0780 C   0  0  0  0  0  1  0  0  0  0  0  0
  -27.1000  -30.3150   24.5370 C   0  0  0  0  0  1  0  0  0  0  0  0
  -27.6080  -32.4710   25.6500 C   0  0  0  0  0  1  0  0  0  0  0  0
  2  1  1  0
  4 10  1  0
  4  3  1  0
  7  3  1  0
  7  8  1  0
  7  5  1  0
  8  6  1  0
  9  8  1  0
  9  5  1  0
  9  2  1  0
 10 11  1  6
 10  6  1  0
 10 12  1  0
 13 12  1  0
 14 19  1  0
 15 16  1  0
 15 14  1  0
 17 16  1  0
 17 24  1  0
 17 18  1  0
 19 13  1  0
 19 18  1  0
 20 13  2  0
 21 22  2  0
 22 41  1  0
 23 22  1  0
 23 26  1  0
 24 25  1  0
 24 21  1  0
 25 23  2  0
 26 27  1  0
 27 28  2  0
 29 32  1  0
 29 28  1  0
 30 29  2  0
 31 30  1  0
 31 26  2  0
 32 33  1  0
 33 38  2  0
 33 34  1  0
 34 35  2  0
 35 36  1  0
 36 40  1  0
 37 36  2  0
 38 37  1  0
 39 38  1  0
 41 42  1  0
 42 45  1  0
 42 44  1  0
 43 41  2  0
 46 47  1  0
 46 21  1  0
 48 46  1  0
 49 52  1  0
 49  2  1  0
 50 49  1  0
 51 49  1  0
 53 54  1  0
 53 52  1  0
 55 57  1  0
 55 54  1  0
 56 67  2  0
 57 62  1  0
 58 66  1  0
 58 68  1  0
 59 65  1  0
 59 61  1  0
 60 66  1  0
 61 60  1  0
 62 61  2  0
 63 64  1  0
 63 57  2  0
 64 59  2  0
 65 58  1  0
 66 56  1  0
 68 70  2  0
 69 68  1  0
 71 69  1  0
 72 81  2  0
 72 77  1  0
 73 69  1  0
 73 77  1  0
 74 73  1  0
 75 76  1  0
 75 74  1  0
 76 72  1  0
 77 78  2  0
 78 79  1  0
 80 79  2  0
 81 80  1  0
 82 56  1  0
 82 83  1  0
 82 92  1  0
 83 86  1  0
 84 88  1  0
 84 83  1  0
 85 84  2  0
 88 87  1  0
 90 88  1  0
 90 91  1  0
 90 89  1  0
 92 95  1  1
 92 93  1  0
 94 92  1  0
M  ISO  4  12 100  13 100  54 101  55 101
M  END
>  <TORSDO>  (75) 
F 22

>  <SCORE>  (75) 
-11.137

>  <name>  (75) 
75

>  <ligand_id>  (75) 
75

>  <original_smiles>  (75) 
[H]c1c([H])c([H])c2c(c1[H])C([H])([H])C([H])([H])C([H])([H])C2([H])N([H])C(=O)C1([H])N(C(=O)C([H])(N([H])C(=O)C([H])(N([H])C([H])([H])[H])C([H])([H])[H])C(C([H])([H])[H])(C([H])([H])[H])C([H])([H])[H])C([H])([H])c2c([H])c(OC([H])([H])C([H])([H])C([H])([H])[N+]([H])([H])C([H])(C([H])([H])[H])C3([H])C([H])([H])C4([H])C([H])([H])C([H])([H])C(C([H])([H])[H])(C([H])([H])C(=O)N5C([H])([H])C([H])([H])C([H])([H])C([H])(n6nc(-c7c([H])c([H])c(Oc8c([H])c([H])c(F)c([H])c8F)c([H])c7[H])c(C(=O)N([H])[H])c6N([H])[H])C5([H])[H])C([H])([H])C43[H])c([H])c([H])c2C1([H])[H]

>  <smiles>  (75) 
[H]c1c([H])c([H])c2c(c1[H])C([H])([H])C([H])([H])C([H])([H])C2([H])N([H])C(=O)C1([H])N(C(=O)C([H])(N([H])C(=O)C([H])(N([H])C([H])([H])[H])C([H])([H])[H])C(C([H])([H])[H])(C([H])([H])[H])C([H])([H])[H])C([H])([H])c2c([H])c(OC([H])([H])C([H])([H])C([H])([H])[N+]([H])([H])C([H])(C([H])([H])[H])C3([H])C([H])([H])C4([H])C([H])([H])C([H])([H])C(C([H])([H])[H])(C([H])([H])C(=O)N5C([H])([H])C([H])([H])C([H])([H])C([H])(n6nc(-c7c([H])c([H])c(Oc8c([H])c([H])c(F)c([H])c8F)c([H])c7[H])c(C(=O)N([H])[H])c6N([H])[H])C5([H])[H])C([H])([H])C43[H])c([H])c([H])c2C1([H])[H]

$$$$
76:0:0
     RDKit          3D

 89 97  0  0  1  0  0  0  0  0999 V2000
  -29.1300  -21.2360   20.6800 C   0  0  0  0  0  2  0  0  0  0  0  0
  -31.4530  -18.1260   20.4770 C   0  0  0  0  0  0  0  0  0  0  0  0
  -29.1400  -18.5170   20.5570 C   0  0  0  0  0  2  0  0  0  0  0  0
  -30.1540  -17.3530   20.2370 C   0  0  0  0  0  3  0  0  0  0  0  0
  -31.2670  -19.6560   20.3740 C   0  0  0  0  0  3  0  0  0  0  0  0
  -29.7610  -19.8880   20.0820 C   0  0  0  0  0  3  0  0  0  0  0  0
  -32.2190  -20.2770   19.3350 C   0  0  0  0  0  1  0  0  0  0  0  0
  -32.5360  -17.5960   20.7310 O   0  0  0  0  0  0  0  0  0  0  0  0
  -29.9950  -15.9520   21.0090 C   0  0  0  0  0  2  0  0  0  0  0  0
  -30.6370  -14.6440   20.3840 C   0  0  0  0  0  0  0  0  0  0  0  0
  -30.3550  -12.4180   19.2990 C   0  0  0  0  0  2  0  0  0  0  0  0
  -29.4160  -12.5760   18.0820 C   0  0  0  0  0  2  0  0  0  0  0  0
  -27.9450  -12.4280   18.5160 C   0  0  0  0  0  2  0  0  0  0  0  0
  -27.6020  -13.2880   19.7630 C   0  0  0  0  0  3  0  0  0  0  0  0
  -28.6650  -13.1210   20.8730 C   0  0  0  0  0  2  0  0  0  0  0  0
  -29.9760  -13.4430   20.2930 N   0  0  0  0  0  0  0  0  0  0  0  0
  -31.7660  -14.7500   19.8990 O   0  0  0  0  0  0  0  0  0  0  0  0
  -25.2090  -13.8970   20.4710 C   0  0  0  0  0  0  0  0  0  0  0  0
  -24.1380  -13.1290   20.8440 C   0  0  0  0  0  0  0  0  0  0  0  0
  -24.5960  -11.7760   20.8220 C   0  0  0  0  0  0  0  0  0  0  0  0
  -26.2510  -13.0130   20.2480 N   0  0  0  0  0  0  0  0  0  0  0  0
  -25.8880  -11.7320   20.5190 N   0  0  0  0  0  0  0  0  0  0  0  0
  -23.8660  -10.5180   21.0200 C   0  0  0  0  0  0  0  0  0  0  0  0
  -24.3000   -9.5490   21.9520 C   0  0  0  0  0  3  0  0  0  0  0  0
  -23.5700   -8.3560   22.1380 C   0  0  0  0  0  3  0  0  0  0  0  0
  -22.3900   -8.1210   21.3920 C   0  0  0  0  0  0  0  0  0  0  0  0
  -21.9730   -9.0790   20.4500 C   0  0  0  0  0  3  0  0  0  0  0  0
  -22.7040  -10.2640   20.2630 C   0  0  0  0  0  3  0  0  0  0  0  0
  -21.6280   -6.9810   21.4870 O   0  0  0  0  0  0  0  0  0  0  0  0
  -21.5950   -6.2320   22.6370 C   0  0  0  0  0  0  0  0  0  0  0  0
  -21.2070   -6.7860   23.8770 C   0  0  0  0  0  3  0  0  0  0  0  0
  -21.1180   -5.9650   25.0170 C   0  0  0  0  0  3  0  0  0  0  0  0
  -21.4100   -4.5920   24.9220 C   0  0  0  0  0  0  0  0  0  0  0  0
  -21.7930   -4.0370   23.6880 C   0  0  0  0  0  3  0  0  0  0  0  0
  -21.8830   -4.8560   22.5490 C   0  0  0  0  0  0  0  0  0  0  0  0
  -22.2320   -4.3120   21.3570 F   0  0  0  0  0  0  0  0  0  0  0  0
  -21.3180   -3.8010   26.0170 F   0  0  0  0  0  0  0  0  0  0  0  0
  -22.7430  -13.6120   21.1110 C   0  0  0  0  0  0  0  0  0  0  0  0
  -22.0120  -12.9230   21.9810 N   0  0  0  0  0  0  0  0  0  0  0  0
  -22.3090  -14.6350   20.5850 O   0  0  0  0  0  0  0  0  0  0  0  0
  -22.3770  -12.0940   22.4270 H   0  0  0  0  0  0  0  0  0  0  0  0
  -21.0750  -13.2310   22.2040 H   0  0  0  0  0  0  0  0  0  0  0  0
  -25.3810  -15.2650   20.2860 N   0  0  0  0  0  0  0  0  0  0  0  0
  -24.6200  -15.9270   20.3930 H   0  0  0  0  0  0  0  0  0  0  0  0
  -26.2400  -15.6960   19.9670 H   0  0  0  0  0  0  0  0  0  0  0  0
  -29.2700  -22.6200   19.8920 C   0  0  0  0  0  3  0  0  0  0  0  0
  -28.5570  -23.9270   20.4840 C   0  0  0  0  0  3  0  0  0  0  0  0
  -28.6210  -25.2710   19.6260 C   0  0  0  0  0  2  0  0  0  0  0  0
  -28.4110  -26.5840   20.2660 O   0  0  0  0  0  0  0  0  0  0  0  0
  -24.6040  -31.8870   23.2390 C   0  0  0  0  0  0  0  0  0  0  0  0
  -27.2360  -27.3440   20.1870 C   0  0  0  0  0  0  0  0  0  0  0  0
  -23.3920  -30.4790   21.6060 C   0  0  0  0  0  3  0  0  0  0  0  0
  -24.8430  -28.9180   20.1790 C   0  0  0  0  0  0  0  0  0  0  0  0
  -25.9250  -30.8090   21.4070 C   0  0  0  0  0  2  0  0  0  0  0  0
  -26.0070  -29.4260   20.7700 C   0  0  0  0  0  0  0  0  0  0  0  0
  -27.1960  -28.6470   20.7670 C   0  0  0  0  0  3  0  0  0  0  0  0
  -26.0480  -26.8710   19.5870 C   0  0  0  0  0  3  0  0  0  0  0  0
  -24.8660  -27.6450   19.5810 C   0  0  0  0  0  3  0  0  0  0  0  0
  -23.5990  -29.7840   20.2310 C   0  0  0  0  0  2  0  0  0  0  0  0
  -24.6590  -31.0770   22.1410 N   0  0  0  0  0  0  0  0  0  0  0  0
  -23.5240  -32.1680   23.7800 O   0  0  0  0  0  0  0  0  0  0  0  0
  -22.7350  -29.4700   22.5770 C   0  0  0  0  0  0  0  0  0  0  0  0
  -21.4090  -29.2910   22.4510 N   0  0  0  0  0  0  0  0  0  0  0  0
  -23.4170  -28.8520   23.3980 O   0  0  0  0  0  0  0  0  0  0  0  0
  -20.9200  -29.8420   21.7580 H   0  0  0  0  0  0  0  0  0  0  0  0
  -18.0370  -28.0900   22.9570 C   0  0  0  0  0  0  0  0  0  0  0  0
  -20.5940  -28.3580   23.2280 C   0  0  0  0  0  3  0  0  0  0  0  0
  -20.7000  -26.9220   22.6630 C   0  0  0  0  0  2  0  0  0  0  0  0
  -19.6010  -26.5890   21.6490 C   0  0  0  0  0  2  0  0  0  0  0  0
  -18.2160  -26.7360   22.2900 C   0  0  0  0  0  2  0  0  0  0  0  0
  -19.1530  -28.8580   23.3820 C   0  0  0  0  0  0  0  0  0  0  0  0
  -18.9320  -30.1240   23.9650 C   0  0  0  0  0  3  0  0  0  0  0  0
  -17.6260  -30.6240   24.1250 C   0  0  0  0  0  3  0  0  0  0  0  0
  -16.5240  -29.8540   23.7170 C   0  0  0  0  0  3  0  0  0  0  0  0
  -16.7300  -28.5890   23.1390 C   0  0  0  0  0  3  0  0  0  0  0  0
  -25.8910  -32.5210   23.8520 C   0  0  0  0  0  3  0  0  0  0  0  0
  -25.5870  -33.9220   24.1770 N   0  0  0  0  0  0  0  0  0  0  0  0
  -25.9210  -34.9710   23.4140 C   0  0  0  0  0  0  0  0  0  0  0  0
  -26.5870  -34.8610   22.3820 O   0  0  0  0  0  0  0  0  0  0  0  0
  -24.9920  -34.0800   24.9780 H   0  0  0  0  0  0  0  0  0  0  0  0
  -24.1930  -36.7650   23.0600 C   0  0  0  0  0  1  0  0  0  0  0  0
  -25.4380  -36.3630   23.8680 C   0  0  0  0  0  3  0  0  0  0  0  0
  -27.5790  -37.2440   24.6820 C   0  0  0  0  0  1  0  0  0  0  0  0
  -26.4710  -37.4140   23.7450 N   0  0  0  0  0  0  0  0  0  0  0  0
  -26.0690  -38.3350   23.8950 H   0  0  0  0  0  0  0  0  0  0  0  0
  -26.4110  -31.7570   25.1320 C   0  0  1  0  0  0  0  0  0  0  0  0
  -25.3220  -31.5280   26.2040 C   0  0  0  0  0  1  0  0  0  0  0  0
  -26.9920  -30.3770   24.7450 C   0  0  0  0  0  1  0  0  0  0  0  0
  -27.5660  -32.5520   25.7860 C   0  0  0  0  0  1  0  0  0  0  0  0
  2  8  2  0
  4  2  1  0
  4  3  1  0
  4  9  1  0
  5  7  1  0
  5  2  1  0
  6  5  1  0
  6  3  1  0
  6  1  1  0
 10  9  1  0
 11 16  1  0
 12 13  1  0
 12 11  1  0
 14 13  1  0
 14 21  1  0
 14 15  1  0
 16 10  1  0
 16 15  1  0
 17 10  2  0
 18 19  2  0
 19 38  1  0
 20 19  1  0
 20 23  1  0
 21 18  1  0
 21 22  1  0
 22 20  2  0
 23 24  1  0
 24 25  2  0
 26 29  1  0
 26 25  1  0
 27 26  2  0
 28 27  1  0
 28 23  2  0
 29 30  1  0
 30 31  1  0
 31 32  2  0
 33 32  1  0
 33 37  1  0
 34 33  2  0
 35 30  2  0
 35 34  1  0
 36 35  1  0
 38 39  1  0
 39 42  1  0
 39 41  1  0
 40 38  2  0
 43 44  1  0
 43 18  1  0
 45 43  1  0
 46 47  2  0
 46  1  1  0
 48 49  1  0
 48 47  1  0
 50 61  2  0
 51 49  1  0
 51 56  1  0
 52 60  1  0
 52 62  1  0
 53 59  1  0
 53 55  1  0
 54 60  1  0
 55 54  1  0
 56 55  2  0
 57 51  2  0
 58 57  1  0
 58 53  2  0
 59 52  1  0
 60 50  1  0
 62 64  2  0
 63 62  1  0
 65 63  1  0
 66 75  2  0
 66 71  1  0
 67 63  1  0
 67 71  1  0
 68 67  1  0
 69 70  1  0
 69 68  1  0
 70 66  1  0
 71 72  2  0
 72 73  1  0
 74 73  2  0
 75 74  1  0
 76 50  1  0
 76 77  1  0
 76 86  1  0
 77 80  1  0
 78 82  1  0
 78 77  1  0
 79 78  2  0
 82 81  1  0
 84 82  1  0
 84 85  1  0
 84 83  1  0
 86 89  1  1
 86 87  1  0
 88 86  1  0
M  ISO  4   9 100  10 100  48 101  49 101
M  END
>  <TORSDO>  (76) 
F 21

>  <SCORE>  (76) 
-13.610

>  <name>  (76) 
76

>  <ligand_id>  (76) 
76

>  <original_smiles>  (76) 
[H]c1c([H])c([H])c2c(c1[H])C([H])([H])C([H])([H])C([H])([H])C2([H])N([H])C(=O)C1([H])N(C(=O)C([H])(N([H])C(=O)C([H])(N([H])C([H])([H])[H])C([H])([H])[H])C(C([H])([H])[H])(C([H])([H])[H])C([H])([H])[H])C([H])([H])c2c([H])c(OC([H])([H])C([H])([H])C([H])([H])C([H])([H])C3([H])C([H])([H])C([H])(C([H])([H])C(=O)N4C([H])([H])C([H])([H])C([H])([H])C([H])(n5nc(-c6c([H])c([H])c(Oc7c([H])c([H])c(F)c([H])c7F)c([H])c6[H])c(C(=O)N([H])[H])c5N([H])[H])C4([H])[H])C(=O)C3([H])C([H])([H])[H])c([H])c([H])c2C1([H])[H]

>  <smiles>  (76) 
[H]c1c([H])c([H])c2c(c1[H])C([H])([H])C([H])([H])C([H])([H])C2([H])N([H])C(=O)C1([H])N(C(=O)C([H])(N([H])C(=O)C([H])(N([H])C([H])([H])[H])C([H])([H])[H])C(C([H])([H])[H])(C([H])([H])[H])C([H])([H])[H])C([H])([H])c2c([H])c(OC([H])([H])C([H])([H])C([H])([H])C([H])([H])C3([H])C([H])([H])C([H])(C([H])([H])C(=O)N4C([H])([H])C([H])([H])C([H])([H])C([H])(n5nc(-c6c([H])c([H])c(Oc7c([H])c([H])c(F)c([H])c7F)c([H])c6[H])c(C(=O)N([H])[H])c5N([H])[H])C4([H])[H])C(=O)C3([H])C([H])([H])[H])c([H])c([H])c2C1([H])[H]

$$$$
77:0:0
     RDKit          3D

 87 96  0  0  1  0  0  0  0  0999 V2000
  -30.7520  -20.8520   20.5050 C   0  0  0  0  0  2  0  0  0  0  0  0
  -30.9220  -19.2920   20.1640 C   0  0  0  0  0  2  0  0  0  0  0  0
  -28.1790  -20.2260   18.9130 C   0  0  0  0  0  2  0  0  0  0  0  0
  -29.2670  -21.3250   20.7610 C   0  0  0  0  0  3  0  0  0  0  0  0
  -28.6430  -19.8470   20.3440 C   0  0  0  0  0  3  0  0  0  0  0  0
  -29.6650  -18.4790   20.5690 C   0  0  0  0  0  3  0  0  0  0  0  0
  -28.7400  -22.8060   20.0080 C   0  0  0  0  0  3  0  0  0  0  0  0
  -27.5690  -21.9940   18.8520 S   0  0  0  0  0  0  0  0  0  0  0  0
  -29.4530  -16.7470   20.1580 C   0  0  0  0  0  2  0  0  0  0  0  0
  -30.3780  -15.2640   20.2090 C   0  0  0  0  0  0  0  0  0  0  0  0
  -30.3900  -12.8240   19.3440 C   0  0  0  0  0  2  0  0  0  0  0  0
  -29.4450  -12.6630   18.1230 C   0  0  0  0  0  2  0  0  0  0  0  0
  -27.9970  -12.3950   18.5760 C   0  0  0  0  0  2  0  0  0  0  0  0
  -27.5660  -13.3370   19.7280 C   0  0  0  0  0  3  0  0  0  0  0  0
  -28.6320  -13.4460   20.8350 C   0  0  0  0  0  2  0  0  0  0  0  0
  -29.8680  -13.9380   20.2090 N   0  0  0  0  0  0  0  0  0  0  0  0
  -31.5980  -15.3040   19.9960 O   0  0  0  0  0  0  0  0  0  0  0  0
  -25.2050  -13.8790   20.5300 C   0  0  0  0  0  0  0  0  0  0  0  0
  -24.1540  -13.0930   20.9120 C   0  0  0  0  0  0  0  0  0  0  0  0
  -24.6280  -11.7450   20.8610 C   0  0  0  0  0  0  0  0  0  0  0  0
  -26.2480  -13.0110   20.2570 N   0  0  0  0  0  0  0  0  0  0  0  0
  -25.9140  -11.7220   20.5260 N   0  0  0  0  0  0  0  0  0  0  0  0
  -23.9110  -10.4770   21.0540 C   0  0  0  0  0  0  0  0  0  0  0  0
  -24.3630   -9.5020   21.9700 C   0  0  0  0  0  3  0  0  0  0  0  0
  -23.6430   -8.3020   22.1510 C   0  0  0  0  0  3  0  0  0  0  0  0
  -22.4560   -8.0680   21.4180 C   0  0  0  0  0  0  0  0  0  0  0  0
  -22.0220   -9.0320   20.4920 C   0  0  0  0  0  3  0  0  0  0  0  0
  -22.7420  -10.2230   20.3070 C   0  0  0  0  0  3  0  0  0  0  0  0
  -21.7060   -6.9200   21.5100 O   0  0  0  0  0  0  0  0  0  0  0  0
  -21.6840   -6.1640   22.6550 C   0  0  0  0  0  0  0  0  0  0  0  0
  -21.2850   -6.7040   23.8960 C   0  0  0  0  0  3  0  0  0  0  0  0
  -21.2100   -5.8750   25.0340 C   0  0  0  0  0  3  0  0  0  0  0  0
  -21.5240   -4.5070   24.9300 C   0  0  0  0  0  0  0  0  0  0  0  0
  -21.9140   -3.9660   23.6930 C   0  0  0  0  0  3  0  0  0  0  0  0
  -21.9910   -4.7910   22.5580 C   0  0  0  0  0  0  0  0  0  0  0  0
  -22.3480   -4.2610   21.3630 F   0  0  0  0  0  0  0  0  0  0  0  0
  -21.4440   -3.7080   26.0200 F   0  0  0  0  0  0  0  0  0  0  0  0
  -22.7590  -13.5600   21.2070 C   0  0  0  0  0  0  0  0  0  0  0  0
  -22.0470  -12.8530   22.0780 N   0  0  0  0  0  0  0  0  0  0  0  0
  -22.3090  -14.5870   20.7020 O   0  0  0  0  0  0  0  0  0  0  0  0
  -22.4250  -12.0220   22.5090 H   0  0  0  0  0  0  0  0  0  0  0  0
  -21.1120  -13.1480   22.3200 H   0  0  0  0  0  0  0  0  0  0  0  0
  -25.3570  -15.2530   20.3650 N   0  0  0  0  0  0  0  0  0  0  0  0
  -24.5890  -15.9010   20.5030 H   0  0  0  0  0  0  0  0  0  0  0  0
  -26.1990  -15.7030   20.0290 H   0  0  0  0  0  0  0  0  0  0  0  0
  -28.1100  -24.3700   20.6230 C   0  0  0  0  0  2  0  0  0  0  0  0
  -28.2770  -25.9610   20.2720 O   0  0  0  0  0  0  0  0  0  0  0  0
  -24.6350  -31.8860   23.2060 C   0  0  0  0  0  0  0  0  0  0  0  0
  -27.2350  -27.0160   20.2660 C   0  0  0  0  0  0  0  0  0  0  0  0
  -23.4590  -30.4750   21.5660 C   0  0  0  0  0  3  0  0  0  0  0  0
  -24.9240  -28.8620   20.1780 C   0  0  0  0  0  0  0  0  0  0  0  0
  -26.0250  -30.7010   21.4410 C   0  0  0  0  0  2  0  0  0  0  0  0
  -26.1050  -29.2870   20.8010 C   0  0  0  0  0  0  0  0  0  0  0  0
  -27.2590  -28.3860   20.8140 C   0  0  0  0  0  3  0  0  0  0  0  0
  -26.0210  -26.7280   19.6050 C   0  0  0  0  0  3  0  0  0  0  0  0
  -24.9050  -27.6010   19.5600 C   0  0  0  0  0  3  0  0  0  0  0  0
  -23.7030  -29.7780   20.2000 C   0  0  0  0  0  2  0  0  0  0  0  0
  -24.7270  -31.0470   22.1250 N   0  0  0  0  0  0  0  0  0  0  0  0
  -23.5400  -32.1770   23.7150 O   0  0  0  0  0  0  0  0  0  0  0  0
  -22.7570  -29.4860   22.5320 C   0  0  0  0  0  0  0  0  0  0  0  0
  -21.4280  -29.3230   22.3970 N   0  0  0  0  0  0  0  0  0  0  0  0
  -23.4150  -28.8640   23.3700 O   0  0  0  0  0  0  0  0  0  0  0  0
  -20.9510  -29.8750   21.6980 H   0  0  0  0  0  0  0  0  0  0  0  0
  -18.0380  -28.1300   22.8890 C   0  0  0  0  0  0  0  0  0  0  0  0
  -20.5970  -28.3920   23.1670 C   0  0  0  0  0  3  0  0  0  0  0  0
  -20.6990  -26.9560   22.6000 C   0  0  0  0  0  2  0  0  0  0  0  0
  -19.6020  -26.6320   21.5800 C   0  0  0  0  0  2  0  0  0  0  0  0
  -18.2160  -26.7790   22.2160 C   0  0  0  0  0  2  0  0  0  0  0  0
  -19.1550  -28.8940   23.3210 C   0  0  0  0  0  0  0  0  0  0  0  0
  -18.9320  -30.1560   23.9130 C   0  0  0  0  0  3  0  0  0  0  0  0
  -17.6250  -30.6550   24.0750 C   0  0  0  0  0  3  0  0  0  0  0  0
  -16.5240  -29.8890   23.6570 C   0  0  0  0  0  3  0  0  0  0  0  0
  -16.7300  -28.6280   23.0700 C   0  0  0  0  0  3  0  0  0  0  0  0
  -25.9000  -32.5340   23.8480 C   0  0  0  0  0  3  0  0  0  0  0  0
  -25.5760  -33.9340   24.1730 N   0  0  0  0  0  0  0  0  0  0  0  0
  -25.9150  -34.9930   23.4240 C   0  0  0  0  0  0  0  0  0  0  0  0
  -26.5940  -34.8940   22.4010 O   0  0  0  0  0  0  0  0  0  0  0  0
  -24.9730  -34.0830   24.9680 H   0  0  0  0  0  0  0  0  0  0  0  0
  -24.1880  -36.7910   23.0670 C   0  0  0  0  0  1  0  0  0  0  0  0
  -25.4230  -36.3820   23.8840 C   0  0  0  0  0  3  0  0  0  0  0  0
  -27.5510  -37.2680   24.7330 C   0  0  0  0  0  1  0  0  0  0  0  0
  -26.4560  -37.4360   23.7820 N   0  0  0  0  0  0  0  0  0  0  0  0
  -26.0480  -38.3560   23.9270 H   0  0  0  0  0  0  0  0  0  0  0  0
  -26.3930  -31.7770   25.1440 C   0  0  1  0  0  0  0  0  0  0  0  0
  -25.2820  -31.5520   26.1960 C   0  0  0  0  0  1  0  0  0  0  0  0
  -26.9820  -30.3930   24.7840 C   0  0  0  0  0  1  0  0  0  0  0  0
  -27.5330  -32.5770   25.8150 C   0  0  0  0  0  1  0  0  0  0  0  0
  2  1  1  0
  2  6  1  0
  4  1  1  0
  5  3  1  0
  5  6  1  0
  5  4  1  0
  6  9  1  0
  7 46  1  0
  7  4  1  0
  8  3  1  0
  8  7  1  0
  9 10  1  0
 10 16  1  0
 11 16  1  0
 12 13  1  0
 12 11  1  0
 14 13  1  0
 14 21  1  0
 14 15  1  0
 16 15  1  0
 17 10  2  0
 18 19  2  0
 19 38  1  0
 20 19  1  0
 20 23  1  0
 21 22  1  0
 21 18  1  0
 22 20  2  0
 23 24  1  0
 24 25  2  0
 26 29  1  0
 26 25  1  0
 27 26  2  0
 28 27  1  0
 28 23  2  0
 29 30  1  0
 30 31  1  0
 31 32  2  0
 33 32  1  0
 33 37  1  0
 34 33  2  0
 35 30  2  0
 35 34  1  0
 36 35  1  0
 38 39  1  0
 39 42  1  0
 39 41  1  0
 40 38  2  0
 43 44  1  0
 43 18  1  0
 45 43  1  0
 47 46  1  0
 48 59  2  0
 49 47  1  0
 49 54  1  0
 50 58  1  0
 50 60  1  0
 51 57  1  0
 51 53  1  0
 52 58  1  0
 53 54  2  0
 53 52  1  0
 55 49  2  0
 56 55  1  0
 56 51  2  0
 57 50  1  0
 58 48  1  0
 60 62  2  0
 61 60  1  0
 63 61  1  0
 64 73  2  0
 64 69  1  0
 65 61  1  0
 65 69  1  0
 66 65  1  0
 67 68  1  0
 67 66  1  0
 68 64  1  0
 69 70  2  0
 70 71  1  0
 72 71  2  0
 73 72  1  0
 74 48  1  0
 74 75  1  0
 74 84  1  0
 75 78  1  0
 76 80  1  0
 76 75  1  0
 77 76  2  0
 80 79  1  0
 82 80  1  0
 82 83  1  0
 82 81  1  0
 84 87  1  1
 84 85  1  0
 86 84  1  0
M  ISO  4   9 100  10 100  46 101  47 101
M  END
>  <TORSDO>  (77) 
F 18

>  <SCORE>  (77) 
-16.360

>  <name>  (77) 
77

>  <ligand_id>  (77) 
77

>  <original_smiles>  (77) 
[H]c1c([H])c([H])c2c(c1[H])C([H])([H])C([H])([H])C([H])([H])C2([H])N([H])C(=O)C1([H])N(C(=O)C([H])(N([H])C(=O)C([H])(N([H])C([H])([H])[H])C([H])([H])[H])C(C([H])([H])[H])(C([H])([H])[H])C([H])([H])[H])C([H])([H])c2c([H])c(OC([H])([H])C3([H])SC([H])([H])C4([H])C([H])(C([H])([H])C(=O)N5C([H])([H])C([H])([H])C([H])([H])C([H])(n6nc(-c7c([H])c([H])c(Oc8c([H])c([H])c(F)c([H])c8F)c([H])c7[H])c(C(=O)N([H])[H])c6N([H])[H])C5([H])[H])C([H])([H])C([H])([H])C34[H])c([H])c([H])c2C1([H])[H]

>  <smiles>  (77) 
[H]c1c([H])c([H])c2c(c1[H])C([H])([H])C([H])([H])C([H])([H])C2([H])N([H])C(=O)C1([H])N(C(=O)C([H])(N([H])C(=O)C([H])(N([H])C([H])([H])[H])C([H])([H])[H])C(C([H])([H])[H])(C([H])([H])[H])C([H])([H])[H])C([H])([H])c2c([H])c(OC([H])([H])C3([H])SC([H])([H])C4([H])C([H])(C([H])([H])C(=O)N5C([H])([H])C([H])([H])C([H])([H])C([H])(n6nc(-c7c([H])c([H])c(Oc8c([H])c([H])c(F)c([H])c8F)c([H])c7[H])c(C(=O)N([H])[H])c6N([H])[H])C5([H])[H])C([H])([H])C([H])([H])C34[H])c([H])c([H])c2C1([H])[H]

$$$$
78:0:0
     RDKit          3D

 89 98  0  0  1  0  0  0  0  0999 V2000
  -29.3950  -18.9490   17.5710 C   0  0  0  0  0  2  0  0  0  0  0  0
  -30.5610  -19.9090   17.8440 C   0  0  0  0  0  2  0  0  0  0  0  0
  -28.3740  -19.2020   18.6890 C   0  0  0  0  0  2  0  0  0  0  0  0
  -29.6160  -22.0970   18.9210 C   0  0  0  0  0  2  0  0  0  0  0  0
  -28.4970  -21.0500   20.6630 C   0  0  0  0  0  2  0  0  0  0  0  0
  -30.2170  -20.6190   19.1650 C   0  0  0  0  0  3  0  0  0  0  0  0
  -28.9000  -22.6610   20.1910 C   0  0  0  0  0  3  0  0  0  0  0  0
  -29.2040  -19.6670   19.9000 C   0  0  2  0  0  0  0  0  0  0  0  0
  -27.9300  -24.1970   20.1140 C   0  0  0  0  0  2  0  0  0  0  0  0
  -28.1950  -25.8300   20.1980 O   0  0  0  0  0  0  0  0  0  0  0  0
  -24.6530  -31.8390   23.1880 C   0  0  0  0  0  0  0  0  0  0  0  0
  -27.1790  -26.9280   20.1720 C   0  0  0  0  0  0  0  0  0  0  0  0
  -23.4460  -30.4360   21.5670 C   0  0  0  0  0  3  0  0  0  0  0  0
  -24.8840  -28.8150   20.1490 C   0  0  0  0  0  0  0  0  0  0  0  0
  -26.0160  -30.6310   21.4100 C   0  0  0  0  0  2  0  0  0  0  0  0
  -26.0770  -29.2180   20.7560 C   0  0  0  0  0  0  0  0  0  0  0  0
  -27.2210  -28.2960   20.7420 C   0  0  0  0  0  3  0  0  0  0  0  0
  -25.9510  -26.6760   19.5220 C   0  0  0  0  0  3  0  0  0  0  0  0
  -24.8440  -27.5650   19.5110 C   0  0  0  0  0  3  0  0  0  0  0  0
  -23.6690  -29.7410   20.1970 C   0  0  0  0  0  2  0  0  0  0  0  0
  -24.7260  -30.9960   22.1060 N   0  0  0  0  0  0  0  0  0  0  0  0
  -23.5670  -32.1350   23.7090 O   0  0  0  0  0  0  0  0  0  0  0  0
  -22.7510  -29.4510   22.5430 C   0  0  0  0  0  0  0  0  0  0  0  0
  -21.4180  -29.2980   22.4290 N   0  0  0  0  0  0  0  0  0  0  0  0
  -23.4180  -28.8230   23.3700 O   0  0  0  0  0  0  0  0  0  0  0  0
  -20.9370  -29.8530   21.7350 H   0  0  0  0  0  0  0  0  0  0  0  0
  -18.0310  -28.1060   22.9630 C   0  0  0  0  0  0  0  0  0  0  0  0
  -20.5940  -28.3690   23.2090 C   0  0  0  0  0  3  0  0  0  0  0  0
  -20.6870  -26.9310   22.6470 C   0  0  0  0  0  2  0  0  0  0  0  0
  -19.5800  -26.6020   21.6420 C   0  0  0  0  0  2  0  0  0  0  0  0
  -18.2020  -26.7540   22.2910 C   0  0  0  0  0  2  0  0  0  0  0  0
  -19.1530  -28.8710   23.3800 C   0  0  0  0  0  0  0  0  0  0  0  0
  -18.9390  -30.1350   23.9710 C   0  0  0  0  0  3  0  0  0  0  0  0
  -17.6340  -30.6360   24.1440 C   0  0  0  0  0  3  0  0  0  0  0  0
  -16.5270  -29.8690   23.7420 C   0  0  0  0  0  3  0  0  0  0  0  0
  -16.7260  -28.6050   23.1580 C   0  0  0  0  0  3  0  0  0  0  0  0
  -25.9280  -32.4820   23.8100 C   0  0  0  0  0  3  0  0  0  0  0  0
  -25.6080  -33.8800   24.1540 N   0  0  0  0  0  0  0  0  0  0  0  0
  -25.9260  -34.9480   23.4100 C   0  0  0  0  0  0  0  0  0  0  0  0
  -26.5840  -34.8590   22.3710 O   0  0  0  0  0  0  0  0  0  0  0  0
  -25.0180  -34.0190   24.9610 H   0  0  0  0  0  0  0  0  0  0  0  0
  -24.1840  -36.7440   23.1190 C   0  0  0  0  0  1  0  0  0  0  0  0
  -25.4440  -36.3310   23.8960 C   0  0  0  0  0  3  0  0  0  0  0  0
  -27.5950  -37.2170   24.6860 C   0  0  0  0  0  1  0  0  0  0  0  0
  -26.4700  -37.3900   23.7720 N   0  0  0  0  0  0  0  0  0  0  0  0
  -26.0640  -38.3060   23.9450 H   0  0  0  0  0  0  0  0  0  0  0  0
  -26.4460  -31.7150   25.0900 C   0  0  1  0  0  0  0  0  0  0  0  0
  -25.3540  -31.4840   26.1630 C   0  0  0  0  0  1  0  0  0  0  0  0
  -27.0260  -30.3350   24.7100 C   0  0  0  0  0  1  0  0  0  0  0  0
  -27.6000  -32.5130   25.7470 C   0  0  0  0  0  1  0  0  0  0  0  0
  -29.8980  -18.1510   20.5900 C   0  0  0  0  0  2  0  0  0  0  0  0
  -30.4240  -15.2520   20.3550 C   0  0  0  0  0  0  0  0  0  0  0  0
  -30.4140  -12.8030   19.5030 C   0  0  0  0  0  2  0  0  0  0  0  0
  -29.5010  -12.5700   18.2740 C   0  0  0  0  0  2  0  0  0  0  0  0
  -28.0460  -12.3120   18.7080 C   0  0  0  0  0  2  0  0  0  0  0  0
  -27.5830  -13.2880   19.8180 C   0  0  0  0  0  3  0  0  0  0  0  0
  -28.6270  -13.4520   20.9420 C   0  0  0  0  0  2  0  0  0  0  0  0
  -29.8540  -13.9520   20.2970 N   0  0  0  0  0  0  0  0  0  0  0  0
  -31.6560  -15.2480   20.2330 O   0  0  0  0  0  0  0  0  0  0  0  0
  -29.6530  -16.5180   20.3480 N   0  0  0  0  0  0  0  0  0  0  0  0
  -28.6670  -16.3100   20.2870 H   0  0  0  0  0  0  0  0  0  0  0  0
  -25.2040  -13.8420   20.5490 C   0  0  0  0  0  0  0  0  0  0  0  0
  -24.1410  -13.0630   20.9070 C   0  0  0  0  0  0  0  0  0  0  0  0
  -24.6140  -11.7130   20.8910 C   0  0  0  0  0  0  0  0  0  0  0  0
  -26.2530  -12.9700   20.3220 N   0  0  0  0  0  0  0  0  0  0  0  0
  -25.9090  -11.6840   20.5970 N   0  0  0  0  0  0  0  0  0  0  0  0
  -23.8870  -10.4500   21.0780 C   0  0  0  0  0  0  0  0  0  0  0  0
  -24.3210   -9.4790   22.0060 C   0  0  0  0  0  3  0  0  0  0  0  0
  -23.5910   -8.2820   22.1820 C   0  0  0  0  0  3  0  0  0  0  0  0
  -22.4150   -8.0490   21.4290 C   0  0  0  0  0  0  0  0  0  0  0  0
  -22.0010   -9.0100   20.4910 C   0  0  0  0  0  3  0  0  0  0  0  0
  -22.7310  -10.1980   20.3130 C   0  0  0  0  0  3  0  0  0  0  0  0
  -21.6590   -6.9040   21.5150 O   0  0  0  0  0  0  0  0  0  0  0  0
  -21.6270   -6.1480   22.6590 C   0  0  0  0  0  0  0  0  0  0  0  0
  -21.2360   -6.6930   23.9010 C   0  0  0  0  0  3  0  0  0  0  0  0
  -21.1480   -5.8640   25.0370 C   0  0  0  0  0  3  0  0  0  0  0  0
  -21.4410   -4.4900   24.9330 C   0  0  0  0  0  0  0  0  0  0  0  0
  -21.8260   -3.9450   23.6950 C   0  0  0  0  0  3  0  0  0  0  0  0
  -21.9140   -4.7710   22.5600 C   0  0  0  0  0  0  0  0  0  0  0  0
  -22.2640   -4.2370   21.3660 F   0  0  0  0  0  0  0  0  0  0  0  0
  -21.3500   -3.6910   26.0210 F   0  0  0  0  0  0  0  0  0  0  0  0
  -22.7370  -13.5370   21.1490 C   0  0  0  0  0  0  0  0  0  0  0  0
  -21.9990  -12.8490   22.0120 N   0  0  0  0  0  0  0  0  0  0  0  0
  -22.3070  -14.5550   20.6090 O   0  0  0  0  0  0  0  0  0  0  0  0
  -22.3590  -12.0260   22.4700 H   0  0  0  0  0  0  0  0  0  0  0  0
  -21.0580  -13.1550   22.2170 H   0  0  0  0  0  0  0  0  0  0  0  0
  -25.3590  -15.2120   20.3630 N   0  0  0  0  0  0  0  0  0  0  0  0
  -24.5780  -15.8540   20.4460 H   0  0  0  0  0  0  0  0  0  0  0  0
  -26.1980  -15.6550   20.0150 H   0  0  0  0  0  0  0  0  0  0  0  0
  1  2  1  0
  1  3  1  0
  3  8  1  0
  4  6  1  0
  4  7  1  0
  6  2  1  0
  6  8  1  0
  7  9  1  0
  7  5  1  0
  8 51  1  1
  8  5  1  0
  9 10  1  0
 11 22  2  0
 12 10  1  0
 12 17  1  0
 13 21  1  0
 13 23  1  0
 14 20  1  0
 14 16  1  0
 15 21  1  0
 16 15  1  0
 17 16  2  0
 18 12  2  0
 19 18  1  0
 19 14  2  0
 20 13  1  0
 21 11  1  0
 23 25  2  0
 24 23  1  0
 26 24  1  0
 27 36  2  0
 27 32  1  0
 28 24  1  0
 28 32  1  0
 29 28  1  0
 30 31  1  0
 30 29  1  0
 31 27  1  0
 32 33  2  0
 33 34  1  0
 35 34  2  0
 36 35  1  0
 37 11  1  0
 37 38  1  0
 37 47  1  0
 38 41  1  0
 39 43  1  0
 39 38  1  0
 40 39  2  0
 43 42  1  0
 45 43  1  0
 45 46  1  0
 45 44  1  0
 47 50  1  1
 47 48  1  0
 49 47  1  0
 53 58  1  0
 54 55  1  0
 54 53  1  0
 56 55  1  0
 56 65  1  0
 56 57  1  0
 58 52  1  0
 58 57  1  0
 59 52  2  0
 60 52  1  0
 60 51  1  0
 61 60  1  0
 62 63  2  0
 63 82  1  0
 64 63  1  0
 64 67  1  0
 65 62  1  0
 65 66  1  0
 66 64  2  0
 67 68  1  0
 68 69  2  0
 70 73  1  0
 70 69  1  0
 71 70  2  0
 72 71  1  0
 72 67  2  0
 73 74  1  0
 74 75  1  0
 75 76  2  0
 77 76  1  0
 77 81  1  0
 78 77  2  0
 79 74  2  0
 79 78  1  0
 80 79  1  0
 82 83  1  0
 83 86  1  0
 83 85  1  0
 84 82  2  0
 87 88  1  0
 87 62  1  0
 89 87  1  0
M  ISO  4   9 101  10 101  52 100  60 100
M  END
>  <TORSDO>  (78) 
F 18

>  <SCORE>  (78) 
-16.458

>  <name>  (78) 
78

>  <ligand_id>  (78) 
78

>  <original_smiles>  (78) 
[H]c1c([H])c([H])c2c(c1[H])C([H])([H])C([H])([H])C([H])([H])C2([H])N([H])C(=O)C1([H])N(C(=O)C([H])(N([H])C(=O)C([H])(N([H])C([H])([H])[H])C([H])([H])[H])C(C([H])([H])[H])(C([H])([H])[H])C([H])([H])[H])C([H])([H])c2c([H])c(OC([H])([H])C3([H])C([H])([H])C4([H])C([H])([H])C([H])([H])C([H])([H])C4(C([H])([H])N([H])C(=O)N4C([H])([H])C([H])([H])C([H])([H])C([H])(n5nc(-c6c([H])c([H])c(Oc7c([H])c([H])c(F)c([H])c7F)c([H])c6[H])c(C(=O)N([H])[H])c5N([H])[H])C4([H])[H])C3([H])[H])c([H])c([H])c2C1([H])[H]

>  <smiles>  (78) 
[H]c1c([H])c([H])c2c(c1[H])C([H])([H])C([H])([H])C([H])([H])C2([H])N([H])C(=O)C1([H])N(C(=O)C([H])(N([H])C(=O)C([H])(N([H])C([H])([H])[H])C([H])([H])[H])C(C([H])([H])[H])(C([H])([H])[H])C([H])([H])[H])C([H])([H])c2c([H])c(OC([H])([H])C3([H])C([H])([H])C4([H])C([H])([H])C([H])([H])C([H])([H])C4(C([H])([H])N([H])C(=O)N4C([H])([H])C([H])([H])C([H])([H])C([H])(n5nc(-c6c([H])c([H])c(Oc7c([H])c([H])c(F)c([H])c7F)c([H])c6[H])c(C(=O)N([H])[H])c5N([H])[H])C4([H])[H])C3([H])[H])c([H])c([H])c2C1([H])[H]

$$$$
79:0:0
     RDKit          3D

 90 99  0  0  1  0  0  0  0  0999 V2000
  -29.7760  -20.8790   20.4470 C   0  0  0  0  0  0  0  0  0  0  0  0
  -30.6520  -21.5760   21.0750 N   0  0  0  0  0  0  0  0  0  0  0  0
  -34.6500  -20.5200   22.3870 C   0  0  0  0  0  2  0  0  0  0  0  0
  -33.4880  -20.6540   23.3950 C   0  0  0  0  0  2  0  0  0  0  0  0
  -32.8400  -19.1330   21.7210 C   0  0  0  0  0  2  0  0  0  0  0  0
  -33.1490  -21.1610   20.4560 C   0  0  0  0  0  2  0  0  0  0  0  0
  -33.9430  -20.0060   21.1120 C   0  0  0  0  0  3  0  0  0  0  0  0
  -32.2570  -20.2640   22.5470 C   0  0  0  0  0  3  0  0  0  0  0  0
  -32.0360  -21.3730   21.4970 C   0  0  0  0  0  3  0  0  0  0  0  0
  -29.9320  -19.0320   20.0760 C   0  0  0  0  0  2  0  0  0  0  0  0
  -30.1040  -17.3780   20.9990 C   0  0  0  0  0  2  0  0  0  0  0  0
  -30.9650  -15.7670   20.8730 C   0  0  0  0  0  0  0  0  0  0  0  0
  -31.1400  -13.2130   20.1720 C   0  0  0  0  0  2  0  0  0  0  0  0
  -30.3890  -12.8490   18.8580 C   0  0  0  0  0  2  0  0  0  0  0  0
  -28.9070  -12.5490   19.1330 C   0  0  0  0  0  2  0  0  0  0  0  0
  -28.2950  -13.5850   20.1040 C   0  0  0  0  0  3  0  0  0  0  0  0
  -29.1830  -13.8710   21.3360 C   0  0  0  0  0  2  0  0  0  0  0  0
  -30.4700  -14.4050   20.8500 N   0  0  0  0  0  0  0  0  0  0  0  0
  -32.2010  -15.7400   20.7390 O   0  0  0  0  0  0  0  0  0  0  0  0
  -25.8610  -14.1580   20.5690 C   0  0  0  0  0  0  0  0  0  0  0  0
  -24.7590  -13.3940   20.8280 C   0  0  0  0  0  0  0  0  0  0  0  0
  -25.2170  -12.0420   20.8850 C   0  0  0  0  0  0  0  0  0  0  0  0
  -26.9190  -13.2750   20.4680 N   0  0  0  0  0  0  0  0  0  0  0  0
  -26.5380  -11.9960   20.7280 N   0  0  0  0  0  0  0  0  0  0  0  0
  -24.4640  -10.7880   21.0220 C   0  0  0  0  0  0  0  0  0  0  0  0
  -24.7160   -9.8820   22.0760 C   0  0  0  0  0  3  0  0  0  0  0  0
  -23.9610   -8.6960   22.1950 C   0  0  0  0  0  3  0  0  0  0  0  0
  -22.9390   -8.4050   21.2600 C   0  0  0  0  0  0  0  0  0  0  0  0
  -22.7070   -9.3010   20.2020 C   0  0  0  0  0  3  0  0  0  0  0  0
  -23.4620  -10.4800   20.0800 C   0  0  0  0  0  3  0  0  0  0  0  0
  -22.1710   -7.2660   21.2840 O   0  0  0  0  0  0  0  0  0  0  0  0
  -21.8460   -6.6410   22.4600 C   0  0  0  0  0  0  0  0  0  0  0  0
  -21.1460   -7.3080   23.4900 C   0  0  0  0  0  3  0  0  0  0  0  0
  -20.7740   -6.6080   24.6550 C   0  0  0  0  0  3  0  0  0  0  0  0
  -21.0880   -5.2410   24.7880 C   0  0  0  0  0  0  0  0  0  0  0  0
  -21.7790   -4.5750   23.7600 C   0  0  0  0  0  3  0  0  0  0  0  0
  -22.1560   -5.2730   22.6000 C   0  0  0  0  0  0  0  0  0  0  0  0
  -22.8030   -4.6220   21.6040 F   0  0  0  0  0  0  0  0  0  0  0  0
  -20.7240   -4.5670   25.9030 F   0  0  0  0  0  0  0  0  0  0  0  0
  -23.3440  -13.8830   20.9150 C   0  0  0  0  0  0  0  0  0  0  0  0
  -22.5170  -13.2260   21.7200 N   0  0  0  0  0  0  0  0  0  0  0  0
  -22.9770  -14.8880   20.3050 O   0  0  0  0  0  0  0  0  0  0  0  0
  -22.8230  -12.4130   22.2340 H   0  0  0  0  0  0  0  0  0  0  0  0
  -21.5610  -13.5370   21.8230 H   0  0  0  0  0  0  0  0  0  0  0  0
  -26.0540  -15.5230   20.3790 N   0  0  0  0  0  0  0  0  0  0  0  0
  -25.2850  -16.1840   20.3840 H   0  0  0  0  0  0  0  0  0  0  0  0
  -26.9400  -15.9510   20.1450 H   0  0  0  0  0  0  0  0  0  0  0  0
  -28.6270  -22.2330   19.9000 C   0  0  0  0  0  2  0  0  0  0  0  0
  -28.2370  -23.9980   20.4630 C   0  0  0  0  0  2  0  0  0  0  0  0
  -28.2650  -25.6260   19.9020 O   0  0  0  0  0  0  0  0  0  0  0  0
  -24.7340  -31.5930   23.2410 C   0  0  0  0  0  0  0  0  0  0  0  0
  -27.2450  -26.7620   19.9670 C   0  0  0  0  0  0  0  0  0  0  0  0
  -23.5150  -30.2530   21.5770 C   0  0  0  0  0  3  0  0  0  0  0  0
  -24.9380  -28.7000   20.0590 C   0  0  0  0  0  0  0  0  0  0  0  0
  -26.0790  -30.4670   21.3760 C   0  0  0  0  0  2  0  0  0  0  0  0
  -26.1450  -29.0700   20.6650 C   0  0  0  0  0  0  0  0  0  0  0  0
  -27.2880  -28.1280   20.5840 C   0  0  0  0  0  3  0  0  0  0  0  0
  -25.9980  -26.5760   19.3250 C   0  0  0  0  0  3  0  0  0  0  0  0
  -24.8940  -27.4770   19.3670 C   0  0  0  0  0  3  0  0  0  0  0  0
  -23.7210  -29.6240   20.1690 C   0  0  0  0  0  2  0  0  0  0  0  0
  -24.8000  -30.8000   22.1190 N   0  0  0  0  0  0  0  0  0  0  0  0
  -23.6560  -31.8510   23.8000 O   0  0  0  0  0  0  0  0  0  0  0  0
  -22.8440  -29.2200   22.5200 C   0  0  0  0  0  0  0  0  0  0  0  0
  -21.5440  -28.9310   22.3160 N   0  0  0  0  0  0  0  0  0  0  0  0
  -23.5040  -28.6760   23.4080 O   0  0  0  0  0  0  0  0  0  0  0  0
  -21.0560  -29.4310   21.5860 H   0  0  0  0  0  0  0  0  0  0  0  0
  -18.3330  -27.2390   22.4910 C   0  0  0  0  0  0  0  0  0  0  0  0
  -20.7620  -27.9300   23.0560 C   0  0  0  0  0  3  0  0  0  0  0  0
  -21.1550  -26.4930   22.6330 C   0  0  0  0  0  2  0  0  0  0  0  0
  -20.2680  -25.9320   21.5180 C   0  0  0  0  0  2  0  0  0  0  0  0
  -18.8040  -25.8950   21.9630 C   0  0  0  0  0  2  0  0  0  0  0  0
  -19.2530  -28.2000   22.9900 C   0  0  0  0  0  0  0  0  0  0  0  0
  -18.7610  -29.4420   23.4440 C   0  0  0  0  0  3  0  0  0  0  0  0
  -17.3850  -29.7330   23.4030 C   0  0  0  0  0  3  0  0  0  0  0  0
  -16.4770  -28.7720   22.9210 C   0  0  0  0  0  3  0  0  0  0  0  0
  -16.9520  -27.5280   22.4700 C   0  0  0  0  0  3  0  0  0  0  0  0
  -26.0100  -32.2280   23.8720 C   0  0  0  0  0  3  0  0  0  0  0  0
  -25.6760  -33.6000   24.2960 N   0  0  0  0  0  0  0  0  0  0  0  0
  -26.0480  -34.7160   23.6550 C   0  0  0  0  0  0  0  0  0  0  0  0
  -26.7660  -34.6970   22.6510 O   0  0  0  0  0  0  0  0  0  0  0  0
  -25.0400  -33.6850   25.0770 H   0  0  0  0  0  0  0  0  0  0  0  0
  -24.3510  -36.5610   23.3860 C   0  0  0  0  0  1  0  0  0  0  0  0
  -25.5500  -36.0670   24.2120 C   0  0  0  0  0  3  0  0  0  0  0  0
  -27.6480  -36.8610   25.2140 C   0  0  0  0  0  1  0  0  0  0  0  0
  -26.5930  -37.1180   24.2390 N   0  0  0  0  0  0  0  0  0  0  0  0
  -26.1840  -38.0250   24.4460 H   0  0  0  0  0  0  0  0  0  0  0  0
  -26.5640  -31.4070   25.1040 C   0  0  1  0  0  0  0  0  0  0  0  0
  -25.4980  -31.1110   26.1870 C   0  0  0  0  0  1  0  0  0  0  0  0
  -27.1510  -30.0540   24.6450 C   0  0  0  0  0  1  0  0  0  0  0  0
  -27.7210  -32.1850   25.7750 C   0  0  0  0  0  1  0  0  0  0  0  0
  1  2  2  0
  3  4  1  0
  6  9  1  0
  7  6  1  0
  7  5  1  0
  7  3  1  0
  8  5  1  0
  8  4  1  0
  9  2  1  0
  9  8  1  0
 10  1  1  0
 10 11  1  0
 12 11  1  0
 13 18  1  0
 14 15  1  0
 14 13  1  0
 16 15  1  0
 16 23  1  0
 16 17  1  0
 18 12  1  0
 18 17  1  0
 19 12  2  0
 20 21  2  0
 21 22  1  0
 21 40  1  0
 22 25  1  0
 23 20  1  0
 23 24  1  0
 24 22  2  0
 25 26  1  0
 26 27  2  0
 28 31  1  0
 28 27  1  0
 29 28  2  0
 30 29  1  0
 30 25  2  0
 31 32  1  0
 32 37  2  0
 32 33  1  0
 33 34  2  0
 34 35  1  0
 35 39  1  0
 36 35  2  0
 37 36  1  0
 38 37  1  0
 40 41  1  0
 41 44  1  0
 41 43  1  0
 42 40  2  0
 45 46  1  0
 45 20  1  0
 47 45  1  0
 48  1  1  0
 48 49  1  0
 50 52  1  0
 50 49  1  0
 51 62  2  0
 52 57  1  0
 53 61  1  0
 53 63  1  0
 54 60  1  0
 54 56  1  0
 55 61  1  0
 56 55  1  0
 57 56  2  0
 58 59  1  0
 58 52  2  0
 59 54  2  0
 60 53  1  0
 61 51  1  0
 63 65  2  0
 64 63  1  0
 66 64  1  0
 67 72  1  0
 68 64  1  0
 69 68  1  0
 70 71  1  0
 70 69  1  0
 71 67  1  0
 72 68  1  0
 72 73  2  0
 74 73  1  0
 75 74  2  0
 76 67  2  0
 76 75  1  0
 77 51  1  0
 77 78  1  0
 77 87  1  0
 78 81  1  0
 79 83  1  0
 79 78  1  0
 80 79  2  0
 83 82  1  0
 83 85  1  0
 85 86  1  0
 85 84  1  0
 87 90  1  1
 87 88  1  0
 89 87  1  0
M  ISO  4  11 100  12 100  49 101  50 101
M  END
>  <TORSDO>  (79) 
F 21

>  <SCORE>  (79) 
-14.285

>  <name>  (79) 
79

>  <ligand_id>  (79) 
79

>  <original_smiles>  (79) 
[H]c1c([H])c([H])c2c(c1[H])C([H])([H])C([H])([H])C([H])([H])C2([H])N([H])C(=O)C1([H])N(C(=O)C([H])(N([H])C(=O)C([H])(N([H])C([H])([H])[H])C([H])([H])[H])C(C([H])([H])[H])(C([H])([H])[H])C([H])([H])[H])C([H])([H])c2c([H])c(OC([H])([H])C([H])([H])C(=NC3([H])C([H])([H])C4([H])C([H])([H])C([H])([H])C3([H])C4([H])[H])C([H])([H])C([H])([H])C(=O)N3C([H])([H])C([H])([H])C([H])([H])C([H])(n4nc(-c5c([H])c([H])c(Oc6c([H])c([H])c(F)c([H])c6F)c([H])c5[H])c(C(=O)N([H])[H])c4N([H])[H])C3([H])[H])c([H])c([H])c2C1([H])[H]

>  <smiles>  (79) 
[H]c1c([H])c([H])c2c(c1[H])C([H])([H])C([H])([H])C([H])([H])C2([H])N([H])C(=O)C1([H])N(C(=O)C([H])(N([H])C(=O)C([H])(N([H])C([H])([H])[H])C([H])([H])[H])C(C([H])([H])[H])(C([H])([H])[H])C([H])([H])[H])C([H])([H])c2c([H])c(OC([H])([H])C([H])([H])C(=NC3([H])C([H])([H])C4([H])C([H])([H])C([H])([H])C3([H])C4([H])[H])C([H])([H])C([H])([H])C(=O)N3C([H])([H])C([H])([H])C([H])([H])C([H])(n4nc(-c5c([H])c([H])c(Oc6c([H])c([H])c(F)c([H])c6F)c([H])c5[H])c(C(=O)N([H])[H])c4N([H])[H])C3([H])[H])c([H])c([H])c2C1([H])[H]

$$$$
80:0:0
     RDKit          3D

 88 97  0  0  1  0  0  0  0  0999 V2000
  -30.2140  -20.1250   21.8840 C   0  0  0  0  0  2  0  0  0  0  0  0
  -28.7300  -19.8070   21.6970 C   0  0  0  0  0  2  0  0  0  0  0  0
  -30.4800  -21.8370   19.9470 C   0  0  0  0  0  2  0  0  0  0  0  0
  -28.2480  -21.3390   19.6720 C   0  0  0  0  0  2  0  0  0  0  0  0
  -30.7150  -20.2090   20.4360 C   0  0  0  0  0  3  0  0  0  0  0  0
  -28.5930  -19.7590   20.1690 C   0  0  0  0  0  3  0  0  0  0  0  0
  -29.0690  -22.6830   20.1670 C   0  0  0  0  0  3  0  0  0  0  0  0
  -29.9450  -18.9010   19.7600 C   0  0  1  0  0  0  0  0  0  0  0  0
  -30.1390  -18.9120   18.2380 C   0  0  0  0  0  1  0  0  0  0  0  0
  -30.0430  -17.1230   20.2680 C   0  0  0  0  0  2  0  0  0  0  0  0
  -30.8030  -15.5670   19.8300 C   0  0  0  0  0  0  0  0  0  0  0  0
  -30.7550  -13.0890   18.9710 C   0  0  0  0  0  2  0  0  0  0  0  0
  -29.7850  -12.8860   17.7770 C   0  0  0  0  0  2  0  0  0  0  0  0
  -28.3510  -12.6280   18.2700 C   0  0  0  0  0  2  0  0  0  0  0  0
  -27.9560  -13.5990   19.4100 C   0  0  0  0  0  3  0  0  0  0  0  0
  -29.0480  -13.7370   20.4930 C   0  0  0  0  0  2  0  0  0  0  0  0
  -30.2650  -14.2370   19.8300 N   0  0  0  0  0  0  0  0  0  0  0  0
  -31.9860  -15.5550   19.4530 O   0  0  0  0  0  0  0  0  0  0  0  0
  -25.6420  -14.1970   20.2910 C   0  0  0  0  0  0  0  0  0  0  0  0
  -24.5760  -13.4400   20.6890 C   0  0  0  0  0  0  0  0  0  0  0  0
  -25.0010  -12.0780   20.5990 C   0  0  0  0  0  0  0  0  0  0  0  0
  -26.6450  -13.3010   19.9720 N   0  0  0  0  0  0  0  0  0  0  0  0
  -26.2750  -12.0170   20.2250 N   0  0  0  0  0  0  0  0  0  0  0  0
  -24.2450  -10.8330   20.7900 C   0  0  0  0  0  0  0  0  0  0  0  0
  -24.6510   -9.8560   21.7250 C   0  0  0  0  0  3  0  0  0  0  0  0
  -23.8940   -8.6780   21.9050 C   0  0  0  0  0  3  0  0  0  0  0  0
  -22.7160   -8.4680   21.1490 C   0  0  0  0  0  0  0  0  0  0  0  0
  -22.3290   -9.4320   20.2020 C   0  0  0  0  0  3  0  0  0  0  0  0
  -23.0860  -10.6020   20.0210 C   0  0  0  0  0  3  0  0  0  0  0  0
  -21.9330   -7.3430   21.2380 O   0  0  0  0  0  0  0  0  0  0  0  0
  -21.8160   -6.6370   22.4090 C   0  0  0  0  0  0  0  0  0  0  0  0
  -21.3390   -7.2350   23.5950 C   0  0  0  0  0  3  0  0  0  0  0  0
  -21.1680   -6.4560   24.7580 C   0  0  0  0  0  3  0  0  0  0  0  0
  -21.4660   -5.0810   24.7330 C   0  0  0  0  0  0  0  0  0  0  0  0
  -21.9370   -4.4820   23.5510 C   0  0  0  0  0  3  0  0  0  0  0  0
  -22.1080   -5.2580   22.3920 C   0  0  0  0  0  0  0  0  0  0  0  0
  -22.5410   -4.6710   21.2500 F   0  0  0  0  0  0  0  0  0  0  0  0
  -21.2960   -4.3310   25.8480 F   0  0  0  0  0  0  0  0  0  0  0  0
  -23.2080  -13.9490   21.0350 C   0  0  0  0  0  0  0  0  0  0  0  0
  -22.5020  -13.2560   21.9220 N   0  0  0  0  0  0  0  0  0  0  0  0
  -22.7770  -14.9970   20.5560 O   0  0  0  0  0  0  0  0  0  0  0  0
  -22.8650  -12.4080   22.3300 H   0  0  0  0  0  0  0  0  0  0  0  0
  -21.5850  -13.5780   22.1960 H   0  0  0  0  0  0  0  0  0  0  0  0
  -25.8370  -15.5680   20.1460 N   0  0  0  0  0  0  0  0  0  0  0  0
  -25.0970  -16.2400   20.3180 H   0  0  0  0  0  0  0  0  0  0  0  0
  -26.6840  -15.9930   19.7910 H   0  0  0  0  0  0  0  0  0  0  0  0
  -28.5660  -24.3840   19.6360 C   0  0  0  0  0  2  0  0  0  0  0  0
  -28.6330  -25.9920   20.1000 O   0  0  0  0  0  0  0  0  0  0  0  0
  -24.7270  -31.7440   23.1500 C   0  0  0  0  0  0  0  0  0  0  0  0
  -27.5820  -27.0710   20.0220 C   0  0  0  0  0  0  0  0  0  0  0  0
  -23.6390  -30.3520   21.4380 C   0  0  0  0  0  3  0  0  0  0  0  0
  -25.1960  -28.8670   19.9880 C   0  0  0  0  0  0  0  0  0  0  0  0
  -26.1970  -30.6820   21.3600 C   0  0  0  0  0  2  0  0  0  0  0  0
  -26.3500  -29.2970   20.6540 C   0  0  0  0  0  0  0  0  0  0  0  0
  -27.5320  -28.4210   20.6480 C   0  0  0  0  0  3  0  0  0  0  0  0
  -26.3930  -26.8100   19.3030 C   0  0  0  0  0  3  0  0  0  0  0  0
  -25.2450  -27.6480   19.2920 C   0  0  0  0  0  3  0  0  0  0  0  0
  -23.9320  -29.7290   20.0440 C   0  0  0  0  0  2  0  0  0  0  0  0
  -24.8740  -30.9530   22.0370 N   0  0  0  0  0  0  0  0  0  0  0  0
  -23.6140  -31.9620   23.6570 O   0  0  0  0  0  0  0  0  0  0  0  0
  -22.9720  -29.2920   22.3540 C   0  0  0  0  0  0  0  0  0  0  0  0
  -21.6510  -29.0790   22.2050 N   0  0  0  0  0  0  0  0  0  0  0  0
  -23.6520  -28.6640   23.1690 O   0  0  0  0  0  0  0  0  0  0  0  0
  -21.1520  -29.6400   21.5280 H   0  0  0  0  0  0  0  0  0  0  0  0
  -18.3120  -27.7260   22.6430 C   0  0  0  0  0  0  0  0  0  0  0  0
  -20.8600  -28.0760   22.9270 C   0  0  0  0  0  3  0  0  0  0  0  0
  -21.0160  -26.6780   22.2850 C   0  0  0  0  0  2  0  0  0  0  0  0
  -19.9290  -26.3640   21.2520 C   0  0  0  0  0  2  0  0  0  0  0  0
  -18.5420  -26.4220   21.8980 C   0  0  0  0  0  2  0  0  0  0  0  0
  -19.4000  -28.5100   23.1120 C   0  0  0  0  0  0  0  0  0  0  0  0
  -19.1280  -29.7280   23.7730 C   0  0  0  0  0  3  0  0  0  0  0  0
  -17.8030  -30.1640   23.9650 C   0  0  0  0  0  3  0  0  0  0  0  0
  -16.7310  -29.3780   23.5090 C   0  0  0  0  0  3  0  0  0  0  0  0
  -16.9860  -28.1600   22.8540 C   0  0  0  0  0  3  0  0  0  0  0  0
  -25.9500  -32.4270   23.8340 C   0  0  0  0  0  3  0  0  0  0  0  0
  -25.5710  -33.8130   24.1670 N   0  0  0  0  0  0  0  0  0  0  0  0
  -25.8710  -34.8910   23.4270 C   0  0  0  0  0  0  0  0  0  0  0  0
  -26.5540  -34.8250   22.4030 O   0  0  0  0  0  0  0  0  0  0  0  0
  -24.9610  -33.9340   24.9610 H   0  0  0  0  0  0  0  0  0  0  0  0
  -24.0590  -36.6110   23.1020 C   0  0  0  0  0  1  0  0  0  0  0  0
  -25.3280  -36.2570   23.8960 C   0  0  0  0  0  3  0  0  0  0  0  0
  -27.4240  -37.2440   24.7100 C   0  0  0  0  0  1  0  0  0  0  0  0
  -26.3100  -37.3560   23.7740 N   0  0  0  0  0  0  0  0  0  0  0  0
  -25.8630  -38.2580   23.9190 H   0  0  0  0  0  0  0  0  0  0  0  0
  -26.4310  -31.6740   25.1360 C   0  0  1  0  0  0  0  0  0  0  0  0
  -25.2970  -31.4010   26.1540 C   0  0  0  0  0  1  0  0  0  0  0  0
  -27.0750  -30.3140   24.7830 C   0  0  0  0  0  1  0  0  0  0  0  0
  -27.5230  -32.5050   25.8490 C   0  0  0  0  0  1  0  0  0  0  0  0
  2  1  1  0
  3  7  1  0
  4  7  1  0
  5  3  1  0
  5  1  1  0
  6  4  1  0
  6  2  1  0
  7 47  1  0
  8  9  1  6
  8  6  1  0
  8 10  1  0
  8  5  1  0
 11 10  1  0
 12 17  1  0
 13 14  1  0
 13 12  1  0
 15 14  1  0
 15 22  1  0
 15 16  1  0
 17 11  1  0
 17 16  1  0
 18 11  2  0
 19 20  2  0
 20 39  1  0
 21 20  1  0
 21 24  1  0
 22 23  1  0
 22 19  1  0
 23 21  2  0
 24 25  1  0
 25 26  2  0
 27 30  1  0
 27 26  1  0
 28 27  2  0
 29 28  1  0
 29 24  2  0
 30 31  1  0
 31 32  1  0
 32 33  2  0
 34 33  1  0
 34 38  1  0
 35 34  2  0
 36 31  2  0
 36 35  1  0
 37 36  1  0
 39 40  1  0
 40 43  1  0
 40 42  1  0
 41 39  2  0
 44 19  1  0
 44 45  1  0
 46 44  1  0
 47 48  1  0
 49 60  2  0
 50 48  1  0
 50 55  1  0
 51 59  1  0
 51 61  1  0
 52 58  1  0
 52 54  1  0
 53 59  1  0
 54 53  1  0
 55 54  2  0
 56 50  2  0
 57 56  1  0
 57 52  2  0
 58 51  1  0
 59 49  1  0
 61 63  2  0
 62 61  1  0
 64 62  1  0
 65 74  2  0
 65 70  1  0
 66 62  1  0
 66 70  1  0
 67 66  1  0
 68 69  1  0
 68 67  1  0
 69 65  1  0
 70 71  2  0
 71 72  1  0
 73 72  2  0
 74 73  1  0
 75 49  1  0
 75 76  1  0
 75 85  1  0
 76 79  1  0
 77 81  1  0
 77 76  1  0
 78 77  2  0
 81 80  1  0
 83 81  1  0
 83 84  1  0
 83 82  1  0
 85 88  1  1
 85 86  1  0
 87 85  1  0
M  ISO  4  10 100  11 100  47 101  48 101
M  END
>  <TORSDO>  (80) 
F 18

>  <SCORE>  (80) 
-14.652

>  <name>  (80) 
80

>  <ligand_id>  (80) 
80

>  <original_smiles>  (80) 
[H]c1c([H])c([H])c2c(c1[H])C([H])([H])C([H])([H])C([H])([H])C2([H])N([H])C(=O)C1([H])N(C(=O)C([H])(N([H])C(=O)C([H])(N([H])C([H])([H])[H])C([H])([H])[H])C(C([H])([H])[H])(C([H])([H])[H])C([H])([H])[H])C([H])([H])c2c([H])c(OC([H])([H])C3([H])C([H])([H])C4([H])C([H])([H])C([H])([H])C([H])(C3([H])[H])C4(C([H])([H])[H])C([H])([H])C(=O)N3C([H])([H])C([H])([H])C([H])([H])C([H])(n4nc(-c5c([H])c([H])c(Oc6c([H])c([H])c(F)c([H])c6F)c([H])c5[H])c(C(=O)N([H])[H])c4N([H])[H])C3([H])[H])c([H])c([H])c2C1([H])[H]

>  <smiles>  (80) 
[H]c1c([H])c([H])c2c(c1[H])C([H])([H])C([H])([H])C([H])([H])C2([H])N([H])C(=O)C1([H])N(C(=O)C([H])(N([H])C(=O)C([H])(N([H])C([H])([H])[H])C([H])([H])[H])C(C([H])([H])[H])(C([H])([H])[H])C([H])([H])[H])C([H])([H])c2c([H])c(OC([H])([H])C3([H])C([H])([H])C4([H])C([H])([H])C([H])([H])C([H])(C3([H])[H])C4(C([H])([H])[H])C([H])([H])C(=O)N3C([H])([H])C([H])([H])C([H])([H])C([H])(n4nc(-c5c([H])c([H])c(Oc6c([H])c([H])c(F)c([H])c6F)c([H])c5[H])c(C(=O)N([H])[H])c4N([H])[H])C3([H])[H])c([H])c([H])c2C1([H])[H]

$$$$
81:0:0
     RDKit          3D

 91 99  0  0  1  0  0  0  0  0999 V2000
  -32.9690  -19.6890   21.1480 C   0  0  0  0  0  2  0  0  0  0  0  0
  -31.9470  -18.9390   20.2590 C   0  0  0  0  0  2  0  0  0  0  0  0
  -32.3750  -20.9590   21.8090 C   0  0  0  0  0  2  0  0  0  0  0  0
  -30.6840  -18.6860   21.0900 C   0  0  0  0  0  3  0  0  0  0  0  0
  -30.9670  -20.7970   22.4670 C   0  0  0  0  0  3  0  0  0  0  0  0
  -30.0220  -20.1740   21.4760 N   0  0  1  0  0  4  0  0  0  0  0  0
  -29.1930  -19.9660   22.0130 H   0  0  0  0  0  0  0  0  0  0  0  0
  -31.9960  -20.7780   24.8290 C   0  0  0  0  0  1  0  0  0  0  0  0
  -29.5440  -20.3360   24.5550 C   0  0  0  0  0  1  0  0  0  0  0  0
  -30.9300  -20.1680   23.9010 C   0  0  0  0  0  3  0  0  0  0  0  0
  -30.1610  -17.0020   21.2440 C   0  0  0  0  0  2  0  0  0  0  0  0
  -31.0210  -15.4890   21.1680 C   0  0  0  0  0  0  0  0  0  0  0  0
  -31.0540  -13.1390   20.0950 C   0  0  0  0  0  2  0  0  0  0  0  0
  -30.2380  -13.1250   18.7760 C   0  0  0  0  0  2  0  0  0  0  0  0
  -28.7440  -12.8730   19.0570 C   0  0  0  0  0  2  0  0  0  0  0  0
  -28.2240  -13.7300   20.2390 C   0  0  0  0  0  3  0  0  0  0  0  0
  -29.1710  -13.7010   21.4540 C   0  0  0  0  0  2  0  0  0  0  0  0
  -30.4780  -14.1930   21.0000 N   0  0  0  0  0  0  0  0  0  0  0  0
  -32.2570  -15.5040   21.0540 O   0  0  0  0  0  0  0  0  0  0  0  0
  -25.7750  -14.2700   20.7140 C   0  0  0  0  0  0  0  0  0  0  0  0
  -24.6890  -13.4840   20.9820 C   0  0  0  0  0  0  0  0  0  0  0  0
  -25.1750  -12.1410   21.0320 C   0  0  0  0  0  0  0  0  0  0  0  0
  -26.8500  -13.4050   20.6020 N   0  0  0  0  0  0  0  0  0  0  0  0
  -26.4930  -12.1200   20.8630 N   0  0  0  0  0  0  0  0  0  0  0  0
  -24.4480  -10.8710   21.1680 C   0  0  0  0  0  0  0  0  0  0  0  0
  -24.8020   -9.9180   22.1470 C   0  0  0  0  0  3  0  0  0  0  0  0
  -24.0740   -8.7140   22.2700 C   0  0  0  0  0  3  0  0  0  0  0  0
  -22.9780   -8.4560   21.4140 C   0  0  0  0  0  0  0  0  0  0  0  0
  -22.6420   -9.4000   20.4270 C   0  0  0  0  0  3  0  0  0  0  0  0
  -23.3720  -10.5940   20.3010 C   0  0  0  0  0  3  0  0  0  0  0  0
  -22.2280   -7.3040   21.4440 O   0  0  0  0  0  0  0  0  0  0  0  0
  -22.1030   -6.5570   22.5880 C   0  0  0  0  0  0  0  0  0  0  0  0
  -21.5880   -7.1030   23.7830 C   0  0  0  0  0  3  0  0  0  0  0  0
  -21.4130   -6.2810   24.9150 C   0  0  0  0  0  3  0  0  0  0  0  0
  -21.7420   -4.9130   24.8500 C   0  0  0  0  0  0  0  0  0  0  0  0
  -22.2510   -4.3660   23.6590 C   0  0  0  0  0  3  0  0  0  0  0  0
  -22.4280   -5.1860   22.5300 C   0  0  0  0  0  0  0  0  0  0  0  0
  -22.8990   -4.6490   21.3790 F   0  0  0  0  0  0  0  0  0  0  0  0
  -21.5670   -4.1220   25.9350 F   0  0  0  0  0  0  0  0  0  0  0  0
  -23.2640  -13.9440   21.0830 C   0  0  0  0  0  0  0  0  0  0  0  0
  -22.4550  -13.2600   21.8830 N   0  0  0  0  0  0  0  0  0  0  0  0
  -22.8740  -14.9480   20.4870 O   0  0  0  0  0  0  0  0  0  0  0  0
  -22.7780  -12.4490   22.3880 H   0  0  0  0  0  0  0  0  0  0  0  0
  -21.4940  -13.5520   21.9930 H   0  0  0  0  0  0  0  0  0  0  0  0
  -25.9380  -15.6400   20.5270 N   0  0  0  0  0  0  0  0  0  0  0  0
  -25.1510  -16.2810   20.5390 H   0  0  0  0  0  0  0  0  0  0  0  0
  -26.8080  -16.0860   20.2650 H   0  0  0  0  0  0  0  0  0  0  0  0
  -29.5490  -21.4340   20.5020 C   0  0  0  0  0  2  0  0  0  0  0  0
  -29.3130  -23.1520   20.9540 C   0  0  0  0  0  3  0  0  0  0  0  0
  -28.6180  -24.5680   20.1420 C   0  0  0  0  0  3  0  0  0  0  0  0
  -28.6740  -26.1740   20.4040 O   0  0  0  0  0  0  0  0  0  0  0  0
  -24.8050  -31.8920   23.3000 C   0  0  0  0  0  0  0  0  0  0  0  0
  -27.6050  -27.1890   20.2830 C   0  0  0  0  0  0  0  0  0  0  0  0
  -23.6900  -30.4500   21.6450 C   0  0  0  0  0  3  0  0  0  0  0  0
  -25.2220  -28.9280   20.2280 C   0  0  0  0  0  0  0  0  0  0  0  0
  -26.2430  -30.7900   21.5200 C   0  0  0  0  0  2  0  0  0  0  0  0
  -26.3820  -29.3920   20.8610 C   0  0  0  0  0  0  0  0  0  0  0  0
  -27.5680  -28.5420   20.8660 C   0  0  0  0  0  3  0  0  0  0  0  0
  -26.4160  -26.8670   19.5910 C   0  0  0  0  0  3  0  0  0  0  0  0
  -25.2610  -27.6880   19.5710 C   0  0  0  0  0  3  0  0  0  0  0  0
  -23.9620  -29.7860   20.2670 C   0  0  0  0  0  2  0  0  0  0  0  0
  -24.9330  -31.0720   22.2080 N   0  0  0  0  0  0  0  0  0  0  0  0
  -23.7000  -32.1260   23.8140 O   0  0  0  0  0  0  0  0  0  0  0  0
  -23.0360  -29.4180   22.6000 C   0  0  0  0  0  0  0  0  0  0  0  0
  -21.7230  -29.1690   22.4410 N   0  0  0  0  0  0  0  0  0  0  0  0
  -23.7180  -28.8390   23.4510 O   0  0  0  0  0  0  0  0  0  0  0  0
  -21.2230  -29.6910   21.7340 H   0  0  0  0  0  0  0  0  0  0  0  0
  -18.4170  -27.7310   22.8430 C   0  0  0  0  0  0  0  0  0  0  0  0
  -20.9380  -28.1880   23.2000 C   0  0  0  0  0  3  0  0  0  0  0  0
  -21.1650  -26.7560   22.6620 C   0  0  0  0  0  2  0  0  0  0  0  0
  -20.1320  -26.3340   21.6140 C   0  0  0  0  0  2  0  0  0  0  0  0
  -18.7190  -26.3870   22.2010 C   0  0  0  0  0  2  0  0  0  0  0  0
  -19.4580  -28.5830   23.2980 C   0  0  0  0  0  0  0  0  0  0  0  0
  -19.1210  -29.8320   23.8620 C   0  0  0  0  0  3  0  0  0  0  0  0
  -17.7760  -30.2340   23.9720 C   0  0  0  0  0  3  0  0  0  0  0  0
  -16.7490  -29.3810   23.5320 C   0  0  0  0  0  3  0  0  0  0  0  0
  -17.0700  -28.1320   22.9740 C   0  0  0  0  0  3  0  0  0  0  0  0
  -26.0420  -32.5900   23.9440 C   0  0  0  0  0  3  0  0  0  0  0  0
  -25.6660  -33.9810   24.2520 N   0  0  0  0  0  0  0  0  0  0  0  0
  -25.9890  -35.0460   23.5050 C   0  0  0  0  0  0  0  0  0  0  0  0
  -26.6960  -34.9630   22.4970 O   0  0  0  0  0  0  0  0  0  0  0  0
  -25.0410  -34.1140   25.0330 H   0  0  0  0  0  0  0  0  0  0  0  0
  -24.2100  -36.7840   23.1040 C   0  0  0  0  0  1  0  0  0  0  0  0
  -25.4460  -36.4220   23.9440 C   0  0  0  0  0  3  0  0  0  0  0  0
  -27.5290  -37.3890   24.8160 C   0  0  0  0  0  1  0  0  0  0  0  0
  -26.4440  -37.5100   23.8460 N   0  0  0  0  0  0  0  0  0  0  0  0
  -26.0040  -38.4160   23.9760 H   0  0  0  0  0  0  0  0  0  0  0  0
  -26.5510  -31.8630   25.2490 C   0  0  1  0  0  0  0  0  0  0  0  0
  -25.4370  -31.5930   26.2880 C   0  0  0  0  0  1  0  0  0  0  0  0
  -27.2070  -30.5060   24.9050 C   0  0  0  0  0  1  0  0  0  0  0  0
  -27.6460  -32.7180   25.9330 C   0  0  0  0  0  1  0  0  0  0  0  0
  1  3  1  0
  2  4  1  0
  2  1  1  0
  3  5  1  0
  4 11  1  0
  4  6  1  0
  5 10  1  0
  6  7  1  1
  6  5  1  0
 10  9  1  0
 10  8  1  0
 12 11  1  0
 13 18  1  0
 14 15  1  0
 14 13  1  0
 16 15  1  0
 16 23  1  0
 16 17  1  0
 18 12  1  0
 18 17  1  0
 19 12  2  0
 20 21  2  0
 21 22  1  0
 21 40  1  0
 22 25  1  0
 23 20  1  0
 23 24  1  0
 24 22  2  0
 25 26  1  0
 26 27  2  0
 28 31  1  0
 28 27  1  0
 29 28  2  0
 30 29  1  0
 30 25  2  0
 31 32  1  0
 32 33  1  0
 33 34  2  0
 35 34  1  0
 35 39  1  0
 36 35  2  0
 37 32  2  0
 37 36  1  0
 38 37  1  0
 40 41  1  0
 41 44  1  0
 41 43  1  0
 42 40  2  0
 45 46  1  0
 45 20  1  0
 47 45  1  0
 48 49  1  0
 48  6  1  0
 50 51  1  0
 50 49  2  0
 52 63  2  0
 53 51  1  0
 53 58  1  0
 54 62  1  0
 54 64  1  0
 55 61  1  0
 55 57  1  0
 56 62  1  0
 57 58  2  0
 57 56  1  0
 59 53  2  0
 60 59  1  0
 60 55  2  0
 61 54  1  0
 62 52  1  0
 64 66  2  0
 65 64  1  0
 67 65  1  0
 68 77  2  0
 68 73  1  0
 69 65  1  0
 69 73  1  0
 70 69  1  0
 71 72  1  0
 71 70  1  0
 72 68  1  0
 73 74  2  0
 74 75  1  0
 76 75  2  0
 77 76  1  0
 78 52  1  0
 78 79  1  0
 78 88  1  0
 79 82  1  0
 80 84  1  0
 80 79  1  0
 81 80  2  0
 84 83  1  0
 86 84  1  0
 86 87  1  0
 86 85  1  0
 88 91  1  1
 88 89  1  0
 90 88  1  0
M  ISO  4  11 100  12 100  50 101  51 101
M  END
>  <TORSDO>  (81) 
F 21

>  <SCORE>  (81) 
-12.599

>  <name>  (81) 
81

>  <ligand_id>  (81) 
81

>  <original_smiles>  (81) 
[H]c1c([H])c([H])c2c(c1[H])C([H])([H])C([H])([H])C([H])([H])C2([H])N([H])C(=O)C1([H])N(C(=O)C([H])(N([H])C(=O)C([H])(N([H])C([H])([H])[H])C([H])([H])[H])C(C([H])([H])[H])(C([H])([H])[H])C([H])([H])[H])C([H])([H])c2c([H])c(OC([H])([H])C([H])([H])C([H])([H])[N+]3([H])C([H])(C([H])([H])C(=O)N4C([H])([H])C([H])([H])C([H])([H])C([H])(n5nc(-c6c([H])c([H])c(Oc7c([H])c([H])c(F)c([H])c7F)c([H])c6[H])c(C(=O)N([H])[H])c5N([H])[H])C4([H])[H])C([H])([H])C([H])([H])C([H])([H])C3([H])C([H])(C([H])([H])[H])C([H])([H])[H])c([H])c([H])c2C1([H])[H]

>  <smiles>  (81) 
[H]c1c([H])c([H])c2c(c1[H])C([H])([H])C([H])([H])C([H])([H])C2([H])N([H])C(=O)C1([H])N(C(=O)C([H])(N([H])C(=O)C([H])(N([H])C([H])([H])[H])C([H])([H])[H])C(C([H])([H])[H])(C([H])([H])[H])C([H])([H])[H])C([H])([H])c2c([H])c(OC([H])([H])C([H])([H])C([H])([H])[N+]3([H])C([H])(C([H])([H])C(=O)N4C([H])([H])C([H])([H])C([H])([H])C([H])(n5nc(-c6c([H])c([H])c(Oc7c([H])c([H])c(F)c([H])c7F)c([H])c6[H])c(C(=O)N([H])[H])c5N([H])[H])C4([H])[H])C([H])([H])C([H])([H])C([H])([H])C3([H])C([H])(C([H])([H])[H])C([H])([H])[H])c([H])c([H])c2C1([H])[H]

$$$$
82:0:0
     RDKit          3D

 94103  0  0  1  0  0  0  0  0999 V2000
  -26.3650  -23.0680   21.8090 C   0  0  0  0  0  2  0  0  0  0  0  0
  -27.5560  -23.8030   22.5130 C   0  0  0  0  0  2  0  0  0  0  0  0
  -26.0740  -23.4330   20.3170 C   0  0  0  0  0  2  0  0  0  0  0  0
  -29.6280  -23.2720   21.0850 C   0  0  0  0  0  2  0  0  0  0  0  0
  -28.2780  -22.9450   19.0620 C   0  0  0  0  0  2  0  0  0  0  0  0
  -28.6360  -24.4090   21.5620 C   0  0  0  0  0  3  0  0  0  0  0  0
  -27.2710  -24.0450   19.5330 C   0  0  0  0  0  3  0  0  0  0  0  0
  -28.9600  -22.1670   20.2100 C   0  0  0  0  0  3  0  0  0  0  0  0
  -27.8400  -25.1790   20.4510 C   0  0  0  0  0  3  0  0  0  0  0  0
  -29.8340  -21.0330   19.7230 N   0  0  0  0  0  4  0  0  0  0  0  0
  -30.7020  -21.4030   19.3720 H   0  0  0  0  0  0  0  0  0  0  0  0
  -29.3650  -20.6230   18.9320 H   0  0  0  0  0  0  0  0  0  0  0  0
  -30.1450  -19.8870   20.6570 C   0  0  0  0  0  2  0  0  0  0  0  0
  -29.8020  -18.4250   20.1380 C   0  0  0  0  0  3  0  0  0  0  0  0
  -30.4560  -17.2400   20.9580 C   0  0  0  0  0  3  0  0  0  0  0  0
  -30.7300  -14.7530   20.3470 C   0  0  0  0  0  0  0  0  0  0  0  0
  -30.4940  -12.5230   19.2880 C   0  0  0  0  0  2  0  0  0  0  0  0
  -29.5570  -12.6350   18.0670 C   0  0  0  0  0  2  0  0  0  0  0  0
  -28.0840  -12.4770   18.4910 C   0  0  0  0  0  2  0  0  0  0  0  0
  -27.7120  -13.3580   19.7160 C   0  0  0  0  0  3  0  0  0  0  0  0
  -28.7660  -13.2310   20.8380 C   0  0  0  0  0  2  0  0  0  0  0  0
  -30.0770  -13.5560   20.2560 N   0  0  0  0  0  0  0  0  0  0  0  0
  -31.9010  -14.8840   19.9820 O   0  0  0  0  0  0  0  0  0  0  0  0
  -29.9850  -15.8410   20.6940 N   0  0  0  0  0  0  0  0  0  0  0  0
  -29.0160  -15.6470   20.9030 H   0  0  0  0  0  0  0  0  0  0  0  0
  -25.3090  -13.9480   20.4070 C   0  0  0  0  0  0  0  0  0  0  0  0
  -24.2450  -13.1700   20.7770 C   0  0  0  0  0  0  0  0  0  0  0  0
  -24.7180  -11.8230   20.7690 C   0  0  0  0  0  0  0  0  0  0  0  0
  -26.3630  -13.0720   20.1950 N   0  0  0  0  0  0  0  0  0  0  0  0
  -26.0120  -11.7910   20.4720 N   0  0  0  0  0  0  0  0  0  0  0  0
  -24.0000  -10.5570   20.9670 C   0  0  0  0  0  0  0  0  0  0  0  0
  -24.4210   -9.6130   21.9300 C   0  0  0  0  0  3  0  0  0  0  0  0
  -23.7040   -8.4120   22.1160 C   0  0  0  0  0  3  0  0  0  0  0  0
  -22.5490   -8.1470   21.3400 C   0  0  0  0  0  0  0  0  0  0  0  0
  -22.1480   -9.0790   20.3680 C   0  0  0  0  0  3  0  0  0  0  0  0
  -22.8670  -10.2730   20.1810 C   0  0  0  0  0  3  0  0  0  0  0  0
  -21.8040   -6.9970   21.4340 O   0  0  0  0  0  0  0  0  0  0  0  0
  -21.7260   -6.2830   22.6040 C   0  0  0  0  0  0  0  0  0  0  0  0
  -21.2400   -6.8600   23.7970 C   0  0  0  0  0  3  0  0  0  0  0  0
  -21.1120   -6.0710   24.9580 C   0  0  0  0  0  3  0  0  0  0  0  0
  -21.4580   -4.7070   24.9250 C   0  0  0  0  0  0  0  0  0  0  0  0
  -21.9380   -4.1300   23.7370 C   0  0  0  0  0  3  0  0  0  0  0  0
  -22.0670   -4.9150   22.5780 C   0  0  0  0  0  0  0  0  0  0  0  0
  -22.5090   -4.3490   21.4290 F   0  0  0  0  0  0  0  0  0  0  0  0
  -21.3270   -3.9480   26.0390 F   0  0  0  0  0  0  0  0  0  0  0  0
  -22.8410  -13.6400   21.0320 C   0  0  0  0  0  0  0  0  0  0  0  0
  -22.1100  -12.9470   21.8980 N   0  0  0  0  0  0  0  0  0  0  0  0
  -22.4000  -14.6570   20.4980 O   0  0  0  0  0  0  0  0  0  0  0  0
  -22.4810  -12.1230   22.3510 H   0  0  0  0  0  0  0  0  0  0  0  0
  -21.1680  -13.2410   22.1110 H   0  0  0  0  0  0  0  0  0  0  0  0
  -25.4630  -15.3170   20.2100 N   0  0  0  0  0  0  0  0  0  0  0  0
  -24.6830  -15.9610   20.2910 H   0  0  0  0  0  0  0  0  0  0  0  0
  -26.3030  -15.7570   19.8570 H   0  0  0  0  0  0  0  0  0  0  0  0
  -28.2100  -26.5350   19.9470 O   0  0  0  0  0  0  0  0  0  0  0  0
  -24.6000  -31.9060   23.1550 C   0  0  0  0  0  0  0  0  0  0  0  0
  -27.1450  -27.4590   19.8950 C   0  0  0  0  0  0  0  0  0  0  0  0
  -23.3640  -30.5570   21.5020 C   0  0  0  0  0  3  0  0  0  0  0  0
  -24.7870  -29.0720   19.9940 C   0  0  0  0  0  0  0  0  0  0  0  0
  -25.9020  -30.8850   21.2770 C   0  0  0  0  0  2  0  0  0  0  0  0
  -25.9700  -29.5340   20.5830 C   0  0  0  0  0  0  0  0  0  0  0  0
  -27.1570  -28.7390   20.5300 C   0  0  0  0  0  3  0  0  0  0  0  0
  -25.9390  -27.0770   19.2640 C   0  0  0  0  0  3  0  0  0  0  0  0
  -24.7710  -27.8450   19.3270 C   0  0  0  0  0  3  0  0  0  0  0  0
  -23.5480  -29.9340   20.0990 C   0  0  0  0  0  2  0  0  0  0  0  0
  -24.6410  -31.1300   22.0350 N   0  0  0  0  0  0  0  0  0  0  0  0
  -23.5260  -32.1660   23.7180 O   0  0  0  0  0  0  0  0  0  0  0  0
  -22.7250  -29.5060   22.4420 C   0  0  0  0  0  0  0  0  0  0  0  0
  -21.4030  -29.2980   22.3080 N   0  0  0  0  0  0  0  0  0  0  0  0
  -23.4170  -28.8790   23.2480 O   0  0  0  0  0  0  0  0  0  0  0  0
  -20.9050  -29.8570   21.6300 H   0  0  0  0  0  0  0  0  0  0  0  0
  -18.0590  -27.9940   22.7540 C   0  0  0  0  0  0  0  0  0  0  0  0
  -20.6030  -28.3340   23.0650 C   0  0  0  0  0  3  0  0  0  0  0  0
  -20.7610  -26.9060   22.4900 C   0  0  0  0  0  2  0  0  0  0  0  0
  -19.6850  -26.5500   21.4600 C   0  0  0  0  0  2  0  0  0  0  0  0
  -18.2890  -26.6510   22.0790 C   0  0  0  0  0  2  0  0  0  0  0  0
  -19.1450  -28.7910   23.2020 C   0  0  0  0  0  0  0  0  0  0  0  0
  -18.8770  -30.0460   23.7890 C   0  0  0  0  0  3  0  0  0  0  0  0
  -17.5530  -30.5040   23.9360 C   0  0  0  0  0  3  0  0  0  0  0  0
  -16.4820  -29.7040   23.5030 C   0  0  0  0  0  3  0  0  0  0  0  0
  -16.7350  -28.4510   22.9180 C   0  0  0  0  0  3  0  0  0  0  0  0
  -25.8940  -32.5230   23.7670 C   0  0  0  0  0  3  0  0  0  0  0  0
  -26.4310  -31.7220   25.0170 C   0  0  1  0  0  0  0  0  0  0  0  0
  -25.3550  -31.4640   26.0970 C   0  0  0  0  0  1  0  0  0  0  0  0
  -27.0060  -30.3520   24.5860 C   0  0  0  0  0  1  0  0  0  0  0  0
  -27.5930  -32.5010   25.6740 C   0  0  0  0  0  1  0  0  0  0  0  0
  -25.5950  -33.9140   24.1310 N   0  0  0  0  0  0  0  0  0  0  0  0
  -25.9240  -34.9830   23.3900 C   0  0  0  0  0  0  0  0  0  0  0  0
  -26.5860  -34.8980   22.3530 O   0  0  0  0  0  0  0  0  0  0  0  0
  -25.0150  -34.0550   24.9440 H   0  0  0  0  0  0  0  0  0  0  0  0
  -24.2130  -36.7980   23.0750 C   0  0  0  0  0  1  0  0  0  0  0  0
  -25.4450  -36.3620   23.8820 C   0  0  0  0  0  3  0  0  0  0  0  0
  -27.5800  -37.2070   24.7530 C   0  0  0  0  0  1  0  0  0  0  0  0
  -26.4880  -37.4080   23.8040 N   0  0  0  0  0  0  0  0  0  0  0  0
  -26.0890  -38.3270   23.9770 H   0  0  0  0  0  0  0  0  0  0  0  0
  1  2  1  0
  3  1  1  0
  5  8  1  0
  6  4  1  0
  6  2  1  0
  7  5  1  0
  7  3  1  0
  7  9  1  0
  8 10  1  0
  8  4  1  0
  9 54  1  0
  9  6  1  0
 10 13  1  0
 11 10  1  0
 12 10  1  0
 14 13  1  0
 14 15  2  0
 16 24  1  0
 17 22  1  0
 18 19  1  0
 18 17  1  0
 20 19  1  0
 20 29  1  0
 20 21  1  0
 22 16  1  0
 22 21  1  0
 23 16  2  0
 24 25  1  0
 24 15  1  0
 26 27  2  0
 27 46  1  0
 28 27  1  0
 28 31  1  0
 29 26  1  0
 29 30  1  0
 30 28  2  0
 31 32  1  0
 32 33  2  0
 34 37  1  0
 34 33  1  0
 35 34  2  0
 36 35  1  0
 36 31  2  0
 37 38  1  0
 38 39  1  0
 39 40  2  0
 41 40  1  0
 41 45  1  0
 42 41  2  0
 43 38  2  0
 43 42  1  0
 44 43  1  0
 46 47  1  0
 47 50  1  0
 47 49  1  0
 48 46  2  0
 51 52  1  0
 51 26  1  0
 53 51  1  0
 55 66  2  0
 56 54  1  0
 56 61  1  0
 57 65  1  0
 57 67  1  0
 58 64  1  0
 58 60  1  0
 59 65  1  0
 60 59  1  0
 61 60  2  0
 62 63  1  0
 62 56  2  0
 63 58  2  0
 64 57  1  0
 65 55  1  0
 67 69  2  0
 68 67  1  0
 70 68  1  0
 71 80  2  0
 71 76  1  0
 72 68  1  0
 72 76  1  0
 73 72  1  0
 74 75  1  0
 74 73  1  0
 75 71  1  0
 76 77  2  0
 77 78  1  0
 79 78  2  0
 80 79  1  0
 81 55  1  0
 81 86  1  0
 81 82  1  0
 82 85  1  1
 82 83  1  0
 84 82  1  0
 86 89  1  0
 87 91  1  0
 87 86  1  0
 88 87  2  0
 91 90  1  0
 93 91  1  0
 93 94  1  0
 93 92  1  0
M  ISO  4   9 101  16 100  24 100  54 101
M  END
>  <TORSDO>  (82) 
F 20

>  <SCORE>  (82) 
-13.231

>  <name>  (82) 
82

>  <ligand_id>  (82) 
82

>  <original_smiles>  (82) 
[H]c1c([H])c([H])c2c(c1[H])C([H])([H])C([H])([H])C([H])([H])C2([H])N([H])C(=O)C1([H])N(C(=O)C([H])(N([H])C(=O)C([H])(N([H])C([H])([H])[H])C([H])([H])[H])C(C([H])([H])[H])(C([H])([H])[H])C([H])([H])[H])C([H])([H])c2c([H])c(OC3([H])C4([H])C([H])([H])C([H])([H])C([H])([H])C3([H])C([H])([H])C([H])([N+]([H])([H])C([H])([H])C([H])([H])C([H])([H])N([H])C(=O)N3C([H])([H])C([H])([H])C([H])([H])C([H])(n5nc(-c6c([H])c([H])c(Oc7c([H])c([H])c(F)c([H])c7F)c([H])c6[H])c(C(=O)N([H])[H])c5N([H])[H])C3([H])[H])C4([H])[H])c([H])c([H])c2C1([H])[H]

>  <smiles>  (82) 
[H]c1c([H])c([H])c2c(c1[H])C([H])([H])C([H])([H])C([H])([H])C2([H])N([H])C(=O)C1([H])N(C(=O)C([H])(N([H])C(=O)C([H])(N([H])C([H])([H])[H])C([H])([H])[H])C(C([H])([H])[H])(C([H])([H])[H])C([H])([H])[H])C([H])([H])c2c([H])c(OC3([H])C4([H])C([H])([H])C([H])([H])C([H])([H])C3([H])C([H])([H])C([H])([N+]([H])([H])C([H])([H])C([H])([H])C([H])([H])N([H])C(=O)N3C([H])([H])C([H])([H])C([H])([H])C([H])(n5nc(-c6c([H])c([H])c(Oc7c([H])c([H])c(F)c([H])c7F)c([H])c6[H])c(C(=O)N([H])[H])c5N([H])[H])C3([H])[H])C4([H])[H])c([H])c([H])c2C1([H])[H]

$$$$
83:0:0
     RDKit          3D

 92100  0  0  1  0  0  0  0  0999 V2000
  -31.2210  -17.8150   18.5380 C   0  0  0  0  0  2  0  0  0  0  0  0
  -31.2020  -19.3000   18.0980 C   0  0  0  0  0  2  0  0  0  0  0  0
  -30.4380  -19.1180   20.3810 C   0  0  0  0  0  3  0  0  0  0  0  0
  -31.2580  -17.7920   20.0710 C   0  0  0  0  0  3  0  0  0  0  0  0
  -30.8860  -20.2010   19.3200 C   0  0  0  0  0  3  0  0  0  0  0  0
  -30.6110  -19.6070   21.8270 C   0  0  0  0  0  0  0  0  0  0  0  0
  -29.5170  -19.9420   22.5010 N   0  0  0  0  0  0  0  0  0  0  0  0
  -31.7230  -19.6810   22.3460 O   0  0  0  0  0  0  0  0  0  0  0  0
  -28.6070  -19.8800   22.0640 H   0  0  0  0  0  0  0  0  0  0  0  0
  -29.5840  -20.2660   23.4550 H   0  0  0  0  0  0  0  0  0  0  0  0
  -30.8120  -16.4190   20.7700 C   0  0  0  0  0  2  0  0  0  0  0  0
  -31.6340  -15.0720   20.5760 C   0  0  0  0  0  0  0  0  0  0  0  0
  -31.4570  -12.7140   19.7840 C   0  0  0  0  0  2  0  0  0  0  0  0
  -30.6290  -12.7040   18.4790 C   0  0  0  0  0  2  0  0  0  0  0  0
  -29.1190  -12.6240   18.7850 C   0  0  0  0  0  2  0  0  0  0  0  0
  -28.6780  -13.6510   19.8580 C   0  0  0  0  0  3  0  0  0  0  0  0
  -29.6270  -13.6330   21.0770 C   0  0  0  0  0  2  0  0  0  0  0  0
  -30.9950  -13.8580   20.5940 N   0  0  0  0  0  0  0  0  0  0  0  0
  -32.8290  -15.1380   20.2770 O   0  0  0  0  0  0  0  0  0  0  0  0
  -26.2820  -14.4200   20.3750 C   0  0  0  0  0  0  0  0  0  0  0  0
  -25.1460  -13.7270   20.6910 C   0  0  0  0  0  0  0  0  0  0  0  0
  -25.5260  -12.3510   20.7450 C   0  0  0  0  0  0  0  0  0  0  0  0
  -27.2840  -13.4710   20.2510 N   0  0  0  0  0  0  0  0  0  0  0  0
  -26.8300  -12.2240   20.5360 N   0  0  0  0  0  0  0  0  0  0  0  0
  -24.7130  -11.1400   20.9240 C   0  0  0  0  0  0  0  0  0  0  0  0
  -25.0240  -10.1820   21.9130 C   0  0  0  0  0  3  0  0  0  0  0  0
  -24.2160   -9.0360   22.0780 C   0  0  0  0  0  3  0  0  0  0  0  0
  -23.0830   -8.8420   21.2520 C   0  0  0  0  0  0  0  0  0  0  0  0
  -22.7900   -9.7890   20.2550 C   0  0  0  0  0  3  0  0  0  0  0  0
  -23.5990  -10.9260   20.0890 C   0  0  0  0  0  3  0  0  0  0  0  0
  -22.2550   -7.7470   21.3240 O   0  0  0  0  0  0  0  0  0  0  0  0
  -22.1000   -7.0370   22.4870 C   0  0  0  0  0  0  0  0  0  0  0  0
  -21.6310   -7.6430   23.6730 C   0  0  0  0  0  3  0  0  0  0  0  0
  -21.4200   -6.8620   24.8260 C   0  0  0  0  0  3  0  0  0  0  0  0
  -21.6680   -5.4760   24.7950 C   0  0  0  0  0  0  0  0  0  0  0  0
  -22.1290   -4.8700   23.6130 C   0  0  0  0  0  3  0  0  0  0  0  0
  -22.3420   -5.6490   22.4610 C   0  0  0  0  0  0  0  0  0  0  0  0
  -22.7670   -5.0570   21.3190 F   0  0  0  0  0  0  0  0  0  0  0  0
  -21.4570   -4.7240   25.9000 F   0  0  0  0  0  0  0  0  0  0  0  0
  -23.7630  -14.2940   20.8370 C   0  0  0  0  0  0  0  0  0  0  0  0
  -22.9350  -13.6830   21.6760 N   0  0  0  0  0  0  0  0  0  0  0  0
  -23.4250  -15.3160   20.2400 O   0  0  0  0  0  0  0  0  0  0  0  0
  -23.2200  -12.8560   22.1820 H   0  0  0  0  0  0  0  0  0  0  0  0
  -22.0030  -14.0460   21.8170 H   0  0  0  0  0  0  0  0  0  0  0  0
  -26.5430  -15.7700   20.1620 N   0  0  0  0  0  0  0  0  0  0  0  0
  -25.8120  -16.4730   20.1880 H   0  0  0  0  0  0  0  0  0  0  0  0
  -27.4410  -16.1430   19.8820 H   0  0  0  0  0  0  0  0  0  0  0  0
  -29.9520  -21.4470   18.9260 C   0  0  0  0  0  2  0  0  0  0  0  0
  -29.9180  -22.7960   19.7740 C   0  0  0  0  0  2  0  0  0  0  0  0
  -29.3770  -24.1170   19.0470 C   0  0  0  0  0  3  0  0  0  0  0  0
  -28.9410  -25.3610   19.9380 C   0  0  0  0  0  3  0  0  0  0  0  0
  -28.8570  -26.7060   19.3330 O   0  0  0  0  0  0  0  0  0  0  0  0
  -24.5970  -31.3320   22.8740 C   0  0  0  0  0  0  0  0  0  0  0  0
  -27.6490  -27.4020   19.4120 C   0  0  0  0  0  0  0  0  0  0  0  0
  -23.5370  -30.0040   21.0780 C   0  0  0  0  0  3  0  0  0  0  0  0
  -25.1360  -28.7480   19.5270 C   0  0  0  0  0  0  0  0  0  0  0  0
  -26.0310  -30.5870   20.9620 C   0  0  0  0  0  2  0  0  0  0  0  0
  -26.2470  -29.2960   20.1830 C   0  0  0  0  0  0  0  0  0  0  0  0
  -27.5090  -28.6370   20.1110 C   0  0  0  0  0  3  0  0  0  0  0  0
  -26.5140  -26.8900   18.7500 C   0  0  0  0  0  3  0  0  0  0  0  0
  -25.2700  -27.5500   18.8030 C   0  0  0  0  0  3  0  0  0  0  0  0
  -23.8220  -29.4920   19.6410 C   0  0  0  0  0  2  0  0  0  0  0  0
  -24.7390  -30.6540   21.6980 N   0  0  0  0  0  0  0  0  0  0  0  0
  -23.4900  -31.4490   23.4200 O   0  0  0  0  0  0  0  0  0  0  0  0
  -22.9690  -28.8380   21.9200 C   0  0  0  0  0  0  0  0  0  0  0  0
  -21.6640  -28.5590   21.7620 N   0  0  0  0  0  0  0  0  0  0  0  0
  -23.7010  -28.1900   22.6740 O   0  0  0  0  0  0  0  0  0  0  0  0
  -21.1290  -29.1400   21.1320 H   0  0  0  0  0  0  0  0  0  0  0  0
  -18.4050  -27.0270   22.0980 C   0  0  0  0  0  0  0  0  0  0  0  0
  -20.9310  -27.4770   22.4200 C   0  0  0  0  0  3  0  0  0  0  0  0
  -21.1580  -26.1290   21.6950 C   0  0  0  0  0  2  0  0  0  0  0  0
  -20.0890  -25.8240   20.6420 C   0  0  0  0  0  2  0  0  0  0  0  0
  -18.7000  -25.7780   21.2830 C   0  0  0  0  0  2  0  0  0  0  0  0
  -19.4530  -27.8320   22.6180 C   0  0  0  0  0  0  0  0  0  0  0  0
  -19.1240  -29.0010   23.3390 C   0  0  0  0  0  3  0  0  0  0  0  0
  -17.7800  -29.3660   23.5450 C   0  0  0  0  0  3  0  0  0  0  0  0
  -16.7470  -28.5570   23.0410 C   0  0  0  0  0  3  0  0  0  0  0  0
  -17.0610  -27.3880   22.3240 C   0  0  0  0  0  3  0  0  0  0  0  0
  -25.8120  -32.0100   23.5790 C   0  0  0  0  0  3  0  0  0  0  0  0
  -25.3800  -33.3420   24.0260 N   0  0  0  0  0  0  0  0  0  0  0  0
  -25.6440  -34.4850   23.3800 C   0  0  0  0  0  0  0  0  0  0  0  0
  -26.3470  -34.5340   22.3660 O   0  0  0  0  0  0  0  0  0  0  0  0
  -24.7550  -33.3720   24.8180 H   0  0  0  0  0  0  0  0  0  0  0  0
  -23.7770  -36.1540   23.1440 C   0  0  0  0  0  1  0  0  0  0  0  0
  -25.0330  -35.7800   23.9470 C   0  0  0  0  0  3  0  0  0  0  0  0
  -27.0690  -36.7610   24.9090 C   0  0  0  0  0  1  0  0  0  0  0  0
  -25.9740  -36.9220   23.9550 N   0  0  0  0  0  0  0  0  0  0  0  0
  -25.4900  -37.7870   24.1730 H   0  0  0  0  0  0  0  0  0  0  0  0
  -26.3760  -31.1720   24.7910 C   0  0  1  0  0  0  0  0  0  0  0  0
  -25.2940  -30.7530   25.8150 C   0  0  0  0  0  1  0  0  0  0  0  0
  -27.0720  -29.8860   24.2900 C   0  0  0  0  0  1  0  0  0  0  0  0
  -27.4520  -31.9920   25.5400 C   0  0  0  0  0  1  0  0  0  0  0  0
  1  4  1  0
  2  1  1  0
  2  5  1  0
  3  6  1  0
  4  3  1  0
  4 11  1  0
  5 48  1  0
  5  3  1  0
  6  8  2  0
  6  7  1  0
  7 10  1  0
  9  7  1  0
 12 18  1  0
 12 11  1  0
 13 18  1  0
 14 15  1  0
 14 13  1  0
 16 15  1  0
 16 23  1  0
 16 17  1  0
 18 17  1  0
 19 12  2  0
 20 21  2  0
 21 22  1  0
 21 40  1  0
 22 25  1  0
 23 20  1  0
 23 24  1  0
 24 22  2  0
 25 26  1  0
 26 27  2  0
 28 31  1  0
 28 27  1  0
 29 28  2  0
 30 29  1  0
 30 25  2  0
 31 32  1  0
 32 33  1  0
 33 34  2  0
 35 34  1  0
 35 39  1  0
 36 35  2  0
 37 32  2  0
 37 36  1  0
 38 37  1  0
 40 41  1  0
 41 44  1  0
 41 43  1  0
 42 40  2  0
 45 46  1  0
 45 20  1  0
 47 45  1  0
 48 49  1  0
 50 49  1  0
 50 51  2  0
 52 54  1  0
 52 51  1  0
 53 64  2  0
 54 59  1  0
 55 63  1  0
 55 65  1  0
 56 62  1  0
 56 58  1  0
 57 63  1  0
 58 57  1  0
 59 58  2  0
 60 61  1  0
 60 54  2  0
 61 56  2  0
 62 55  1  0
 63 53  1  0
 65 67  2  0
 66 65  1  0
 68 66  1  0
 69 78  2  0
 69 74  1  0
 70 66  1  0
 70 74  1  0
 71 70  1  0
 72 73  1  0
 72 71  1  0
 73 69  1  0
 74 75  2  0
 75 76  1  0
 77 76  2  0
 78 77  1  0
 79 53  1  0
 79 80  1  0
 79 89  1  0
 80 83  1  0
 81 85  1  0
 81 80  1  0
 82 81  2  0
 85 84  1  0
 85 87  1  0
 87 88  1  0
 87 86  1  0
 89 92  1  1
 89 90  1  0
 91 89  1  0
M  ISO  4  11 100  12 100  51 101  52 101
M  END
>  <TORSDO>  (83) 
F 22

>  <SCORE>  (83) 
-9.570

>  <name>  (83) 
83

>  <ligand_id>  (83) 
83

>  <original_smiles>  (83) 
[H]c1c([H])c([H])c2c(c1[H])C([H])([H])C([H])([H])C([H])([H])C2([H])N([H])C(=O)C1([H])N(C(=O)C([H])(N([H])C(=O)C([H])(N([H])C([H])([H])[H])C([H])([H])[H])C(C([H])([H])[H])(C([H])([H])[H])C([H])([H])[H])C([H])([H])c2c([H])c(OC([H])([H])C([H])([H])C([H])([H])C([H])([H])C3([H])C([H])([H])C([H])([H])C([H])(C([H])([H])C(=O)N4C([H])([H])C([H])([H])C([H])([H])C([H])(n5nc(-c6c([H])c([H])c(Oc7c([H])c([H])c(F)c([H])c7F)c([H])c6[H])c(C(=O)N([H])[H])c5N([H])[H])C4([H])[H])C3([H])C(=O)N([H])[H])c([H])c([H])c2C1([H])[H]

>  <smiles>  (83) 
[H]c1c([H])c([H])c2c(c1[H])C([H])([H])C([H])([H])C([H])([H])C2([H])N([H])C(=O)C1([H])N(C(=O)C([H])(N([H])C(=O)C([H])(N([H])C([H])([H])[H])C([H])([H])[H])C(C([H])([H])[H])(C([H])([H])[H])C([H])([H])[H])C([H])([H])c2c([H])c(OC([H])([H])C([H])([H])C([H])([H])C([H])([H])C3([H])C([H])([H])C([H])([H])C([H])(C([H])([H])C(=O)N4C([H])([H])C([H])([H])C([H])([H])C([H])(n5nc(-c6c([H])c([H])c(Oc7c([H])c([H])c(F)c([H])c7F)c([H])c6[H])c(C(=O)N([H])[H])c5N([H])[H])C4([H])[H])C3([H])C(=O)N([H])[H])c([H])c([H])c2C1([H])[H]

$$$$
84:0:0
     RDKit          3D

 89 97  0  0  1  0  0  0  0  0999 V2000
  -29.7980  -20.7650   20.3110 C   0  0  0  0  0  0  0  0  0  0  0  0
  -28.9590  -21.8770   20.5410 N   0  0  0  0  0  0  0  0  0  0  0  0
  -30.8860  -20.9740   19.7730 O   0  0  0  0  0  0  0  0  0  0  0  0
  -28.0610  -21.6460   20.9430 H   0  0  0  0  0  0  0  0  0  0  0  0
  -31.1020  -18.3300   22.4030 C   0  0  0  0  0  2  0  0  0  0  0  0
  -29.7390  -19.0330   22.2330 C   0  0  0  0  0  2  0  0  0  0  0  0
  -31.5870  -17.9570   21.0000 C   0  0  0  0  0  2  0  0  0  0  0  0
  -29.4730  -19.1920   20.7220 C   0  0  0  0  0  3  0  0  0  0  0  0
  -30.3150  -17.8600   20.1520 C   0  0  0  0  0  3  0  0  0  0  0  0
  -29.7750  -16.2810   20.2710 C   0  0  0  0  0  2  0  0  0  0  0  0
  -30.6450  -14.9050   19.9930 C   0  0  0  0  0  0  0  0  0  0  0  0
  -30.5010  -12.5710   19.0190 C   0  0  0  0  0  2  0  0  0  0  0  0
  -29.5410  -12.6030   17.8030 C   0  0  0  0  0  2  0  0  0  0  0  0
  -28.0800  -12.4170   18.2570 C   0  0  0  0  0  2  0  0  0  0  0  0
  -27.7180  -13.3250   19.4600 C   0  0  0  0  0  3  0  0  0  0  0  0
  -28.7930  -13.2610   20.5660 C   0  0  0  0  0  2  0  0  0  0  0  0
  -30.0750  -13.6400   19.9640 N   0  0  0  0  0  0  0  0  0  0  0  0
  -31.8250  -14.9950   19.6400 O   0  0  0  0  0  0  0  0  0  0  0  0
  -25.3560  -13.9450   20.2330 C   0  0  0  0  0  0  0  0  0  0  0  0
  -24.2870  -13.1860   20.6290 C   0  0  0  0  0  0  0  0  0  0  0  0
  -24.7370  -11.8290   20.5990 C   0  0  0  0  0  0  0  0  0  0  0  0
  -26.3840  -13.0510   19.9850 N   0  0  0  0  0  0  0  0  0  0  0  0
  -26.0210  -11.7730   20.2650 N   0  0  0  0  0  0  0  0  0  0  0  0
  -23.9980  -10.5770   20.8090 C   0  0  0  0  0  0  0  0  0  0  0  0
  -24.3830   -9.6530   21.8060 C   0  0  0  0  0  3  0  0  0  0  0  0
  -23.6450   -8.4650   22.0000 C   0  0  0  0  0  3  0  0  0  0  0  0
  -22.5120   -8.1920   21.2000 C   0  0  0  0  0  0  0  0  0  0  0  0
  -22.1490   -9.1060   20.1940 C   0  0  0  0  0  3  0  0  0  0  0  0
  -22.8850  -10.2850   19.9970 C   0  0  0  0  0  3  0  0  0  0  0  0
  -21.7510   -7.0540   21.3000 O   0  0  0  0  0  0  0  0  0  0  0  0
  -21.5830   -6.4040   22.4970 C   0  0  0  0  0  0  0  0  0  0  0  0
  -21.0220   -7.0470   23.6220 C   0  0  0  0  0  3  0  0  0  0  0  0
  -20.8010   -6.3230   24.8110 C   0  0  0  0  0  3  0  0  0  0  0  0
  -21.1350   -4.9570   24.8750 C   0  0  0  0  0  0  0  0  0  0  0  0
  -21.6900   -4.3130   23.7550 C   0  0  0  0  0  3  0  0  0  0  0  0
  -21.9100   -5.0360   22.5670 C   0  0  0  0  0  0  0  0  0  0  0  0
  -22.4250   -4.4030   21.4860 F   0  0  0  0  0  0  0  0  0  0  0  0
  -20.9180   -4.2580   26.0150 F   0  0  0  0  0  0  0  0  0  0  0  0
  -22.9030  -13.6810   20.9190 C   0  0  0  0  0  0  0  0  0  0  0  0
  -22.1850  -13.0030   21.8080 N   0  0  0  0  0  0  0  0  0  0  0  0
  -22.4630  -14.7030   20.3930 O   0  0  0  0  0  0  0  0  0  0  0  0
  -22.5520  -12.1770   22.2560 H   0  0  0  0  0  0  0  0  0  0  0  0
  -21.2550  -13.3170   22.0490 H   0  0  0  0  0  0  0  0  0  0  0  0
  -25.5350  -15.3130   20.0500 N   0  0  0  0  0  0  0  0  0  0  0  0
  -24.7820  -15.9790   20.1830 H   0  0  0  0  0  0  0  0  0  0  0  0
  -26.3890  -15.7460   19.7240 H   0  0  0  0  0  0  0  0  0  0  0  0
  -29.2270  -23.4220   20.3830 C   0  0  0  0  0  3  0  0  0  0  0  0
  -28.0660  -24.6300   20.3330 C   0  0  0  0  0  3  0  0  0  0  0  0
  -28.3200  -26.1630   20.2300 O   0  0  0  0  0  0  0  0  0  0  0  0
  -24.5050  -31.7350   23.1150 C   0  0  0  0  0  0  0  0  0  0  0  0
  -27.2340  -27.1050   20.1360 C   0  0  0  0  0  0  0  0  0  0  0  0
  -23.3590  -30.3030   21.4690 C   0  0  0  0  0  3  0  0  0  0  0  0
  -24.8620  -28.7760   20.0580 C   0  0  0  0  0  0  0  0  0  0  0  0
  -25.9030  -30.6510   21.3170 C   0  0  0  0  0  2  0  0  0  0  0  0
  -26.0240  -29.2610   20.6740 C   0  0  0  0  0  0  0  0  0  0  0  0
  -27.2090  -28.4400   20.6990 C   0  0  0  0  0  3  0  0  0  0  0  0
  -26.0510  -26.7230   19.4600 C   0  0  0  0  0  3  0  0  0  0  0  0
  -24.8910  -27.5250   19.4290 C   0  0  0  0  0  3  0  0  0  0  0  0
  -23.6090  -29.6380   20.0910 C   0  0  0  0  0  2  0  0  0  0  0  0
  -24.6080  -30.9200   22.0220 N   0  0  0  0  0  0  0  0  0  0  0  0
  -23.4080  -31.9860   23.6360 O   0  0  0  0  0  0  0  0  0  0  0  0
  -22.7070  -29.2740   22.4270 C   0  0  0  0  0  0  0  0  0  0  0  0
  -21.3850  -29.0650   22.2950 N   0  0  0  0  0  0  0  0  0  0  0  0
  -23.3950  -28.6670   23.2510 O   0  0  0  0  0  0  0  0  0  0  0  0
  -20.8840  -29.6140   21.6100 H   0  0  0  0  0  0  0  0  0  0  0  0
  -18.0400  -27.7660   22.7820 C   0  0  0  0  0  0  0  0  0  0  0  0
  -20.5880  -28.1040   23.0640 C   0  0  0  0  0  3  0  0  0  0  0  0
  -20.7350  -26.6750   22.4950 C   0  0  0  0  0  2  0  0  0  0  0  0
  -19.6500  -26.3160   21.4740 C   0  0  0  0  0  2  0  0  0  0  0  0
  -18.2610  -26.4200   22.1080 C   0  0  0  0  0  2  0  0  0  0  0  0
  -19.1310  -28.5630   23.2170 C   0  0  0  0  0  0  0  0  0  0  0  0
  -18.8710  -29.8190   23.8080 C   0  0  0  0  0  3  0  0  0  0  0  0
  -17.5500  -30.2790   23.9670 C   0  0  0  0  0  3  0  0  0  0  0  0
  -16.4730  -29.4800   23.5450 C   0  0  0  0  0  3  0  0  0  0  0  0
  -16.7180  -28.2260   22.9600 C   0  0  0  0  0  3  0  0  0  0  0  0
  -25.7610  -32.4080   23.7490 C   0  0  0  0  0  3  0  0  0  0  0  0
  -26.2970  -31.6460   25.0230 C   0  0  1  0  0  0  0  0  0  0  0  0
  -25.2080  -31.3660   26.0850 C   0  0  0  0  0  1  0  0  0  0  0  0
  -26.9290  -30.2920   24.6290 C   0  0  0  0  0  1  0  0  0  0  0  0
  -27.4140  -32.4770   25.6980 C   0  0  0  0  0  1  0  0  0  0  0  0
  -25.4000  -33.7920   24.0930 N   0  0  0  0  0  0  0  0  0  0  0  0
  -25.7010  -34.8680   23.3510 C   0  0  0  0  0  0  0  0  0  0  0  0
  -26.3830  -34.8020   22.3250 O   0  0  0  0  0  0  0  0  0  0  0  0
  -24.7970  -33.9170   24.8930 H   0  0  0  0  0  0  0  0  0  0  0  0
  -23.9220  -36.6170   23.0080 C   0  0  0  0  0  1  0  0  0  0  0  0
  -25.1670  -36.2360   23.8270 C   0  0  0  0  0  3  0  0  0  0  0  0
  -27.2610  -37.1780   24.6960 C   0  0  0  0  0  1  0  0  0  0  0  0
  -26.1660  -37.3220   23.7390 N   0  0  0  0  0  0  0  0  0  0  0  0
  -25.7290  -38.2260   23.8930 H   0  0  0  0  0  0  0  0  0  0  0  0
  1  2  1  0
  2  4  1  0
  3  1  2  0
  6  5  1  0
  7  5  1  0
  8  1  1  0
  8  6  1  0
  9 10  1  0
  9  8  1  0
  9  7  1  0
 11 10  1  0
 12 17  1  0
 13 14  1  0
 13 12  1  0
 15 14  1  0
 15 22  1  0
 15 16  1  0
 17 11  1  0
 17 16  1  0
 18 11  2  0
 19 20  2  0
 20 39  1  0
 21 20  1  0
 21 24  1  0
 22 19  1  0
 22 23  1  0
 23 21  2  0
 24 25  1  0
 25 26  2  0
 27 30  1  0
 27 26  1  0
 28 27  2  0
 29 28  1  0
 29 24  2  0
 30 31  1  0
 31 36  2  0
 31 32  1  0
 32 33  2  0
 33 34  1  0
 34 38  1  0
 35 34  2  0
 36 35  1  0
 37 36  1  0
 39 40  1  0
 40 43  1  0
 40 42  1  0
 41 39  2  0
 44 45  1  0
 44 19  1  0
 46 44  1  0
 47  2  1  0
 48 47  2  0
 49 48  1  0
 50 61  2  0
 51 49  1  0
 51 56  1  0
 52 60  1  0
 52 62  1  0
 53 59  1  0
 53 55  1  0
 54 60  1  0
 55 56  2  0
 55 54  1  0
 57 51  2  0
 58 57  1  0
 58 53  2  0
 59 52  1  0
 60 50  1  0
 62 64  2  0
 63 62  1  0
 65 63  1  0
 66 75  2  0
 66 71  1  0
 67 63  1  0
 67 71  1  0
 68 67  1  0
 69 70  1  0
 69 68  1  0
 70 66  1  0
 71 72  2  0
 72 73  1  0
 74 73  2  0
 75 74  1  0
 76 50  1  0
 76 81  1  0
 76 77  1  0
 77 80  1  1
 77 78  1  0
 79 77  1  0
 81 84  1  0
 82 86  1  0
 82 81  1  0
 83 82  2  0
 86 85  1  0
 88 86  1  0
 88 89  1  0
 88 87  1  0
M  ISO  4  10 100  11 100  48 101  49 101
M  END
>  <TORSDO>  (84) 
F 20

>  <SCORE>  (84) 
-12.193

>  <name>  (84) 
84

>  <ligand_id>  (84) 
84

>  <original_smiles>  (84) 
[H]c1c([H])c([H])c2c(c1[H])C([H])([H])C([H])([H])C([H])([H])C2([H])N([H])C(=O)C1([H])N(C(=O)C([H])(N([H])C(=O)C([H])(N([H])C([H])([H])[H])C([H])([H])[H])C(C([H])([H])[H])(C([H])([H])[H])C([H])([H])[H])C([H])([H])c2c([H])c(OC([H])([H])C([H])([H])N([H])C(=O)C3([H])C([H])([H])C([H])([H])C([H])([H])C3([H])C([H])([H])C(=O)N3C([H])([H])C([H])([H])C([H])([H])C([H])(n4nc(-c5c([H])c([H])c(Oc6c([H])c([H])c(F)c([H])c6F)c([H])c5[H])c(C(=O)N([H])[H])c4N([H])[H])C3([H])[H])c([H])c([H])c2C1([H])[H]

>  <smiles>  (84) 
[H]c1c([H])c([H])c2c(c1[H])C([H])([H])C([H])([H])C([H])([H])C2([H])N([H])C(=O)C1([H])N(C(=O)C([H])(N([H])C(=O)C([H])(N([H])C([H])([H])[H])C([H])([H])[H])C(C([H])([H])[H])(C([H])([H])[H])C([H])([H])[H])C([H])([H])c2c([H])c(OC([H])([H])C([H])([H])N([H])C(=O)C3([H])C([H])([H])C([H])([H])C([H])([H])C3([H])C([H])([H])C(=O)N3C([H])([H])C([H])([H])C([H])([H])C([H])(n4nc(-c5c([H])c([H])c(Oc6c([H])c([H])c(F)c([H])c6F)c([H])c5[H])c(C(=O)N([H])[H])c4N([H])[H])C3([H])[H])c([H])c([H])c2C1([H])[H]

$$$$
85:0:0
     RDKit          3D

 86 93  0  0  1  0  0  0  0  0999 V2000
  -28.9460  -23.3610   20.1510 C   0  0  0  0  0  2  0  0  0  0  0  0
  -28.7640  -21.7840   20.7160 C   0  0  0  0  0  2  0  0  0  0  0  0
  -29.3360  -19.2680   20.4530 C   0  0  0  0  0  0  0  0  0  0  0  0
  -28.7470  -18.9670   21.8180 C   0  0  0  0  0  1  0  0  0  0  0  0
  -29.3420  -20.5330   19.9830 N   0  0  0  0  0  0  0  0  0  0  0  0
  -31.3400  -18.2180   19.1870 C   0  0  0  0  0  1  0  0  0  0  0  0
  -29.9150  -17.9150   19.6950 C   0  0  0  0  0  3  0  0  0  0  0  0
  -29.8030  -16.3280   20.2860 C   0  0  0  0  0  2  0  0  0  0  0  0
  -30.5520  -14.8910   19.9290 C   0  0  0  0  0  0  0  0  0  0  0  0
  -30.3080  -12.5810   18.9430 C   0  0  0  0  0  2  0  0  0  0  0  0
  -29.3020  -12.6470   17.7710 C   0  0  0  0  0  2  0  0  0  0  0  0
  -27.8600  -12.4630   18.2820 C   0  0  0  0  0  2  0  0  0  0  0  0
  -27.5560  -13.3440   19.5220 C   0  0  0  0  0  3  0  0  0  0  0  0
  -28.6800  -13.2800   20.5770 C   0  0  0  0  0  2  0  0  0  0  0  0
  -29.9370  -13.6450   19.9160 N   0  0  0  0  0  0  0  0  0  0  0  0
  -31.7210  -14.9250   19.5200 O   0  0  0  0  0  0  0  0  0  0  0  0
  -25.2420  -13.9280   20.4490 C   0  0  0  0  0  0  0  0  0  0  0  0
  -24.1910  -13.1540   20.8590 C   0  0  0  0  0  0  0  0  0  0  0  0
  -24.6260  -11.7990   20.7400 C   0  0  0  0  0  0  0  0  0  0  0  0
  -26.2490  -13.0450   20.0990 N   0  0  0  0  0  0  0  0  0  0  0  0
  -25.8920  -11.7550   20.3390 N   0  0  0  0  0  0  0  0  0  0  0  0
  -23.8900  -10.5410   20.9270 C   0  0  0  0  0  0  0  0  0  0  0  0
  -24.3660   -9.5240   21.7840 C   0  0  0  0  0  3  0  0  0  0  0  0
  -23.6280   -8.3340   21.9630 C   0  0  0  0  0  3  0  0  0  0  0  0
  -22.3990   -8.1520   21.2850 C   0  0  0  0  0  0  0  0  0  0  0  0
  -21.9410   -9.1580   20.4150 C   0  0  0  0  0  3  0  0  0  0  0  0
  -22.6790  -10.3390   20.2350 C   0  0  0  0  0  3  0  0  0  0  0  0
  -21.6270   -7.0190   21.3780 O   0  0  0  0  0  0  0  0  0  0  0  0
  -21.6450   -6.2240   22.4970 C   0  0  0  0  0  0  0  0  0  0  0  0
  -21.3500   -6.7360   23.7790 C   0  0  0  0  0  3  0  0  0  0  0  0
  -21.3120   -5.8720   24.8910 C   0  0  0  0  0  3  0  0  0  0  0  0
  -21.5600   -4.4970   24.7230 C   0  0  0  0  0  0  0  0  0  0  0  0
  -21.8490   -3.9840   23.4450 C   0  0  0  0  0  3  0  0  0  0  0  0
  -21.8890   -4.8460   22.3360 C   0  0  0  0  0  0  0  0  0  0  0  0
  -22.1480   -4.3430   21.1040 F   0  0  0  0  0  0  0  0  0  0  0  0
  -21.5150   -3.6640   25.7890 F   0  0  0  0  0  0  0  0  0  0  0  0
  -22.8250  -13.6420   21.2440 C   0  0  0  0  0  0  0  0  0  0  0  0
  -22.1460  -12.9270   22.1330 N   0  0  0  0  0  0  0  0  0  0  0  0
  -22.3690  -14.6920   20.7910 O   0  0  0  0  0  0  0  0  0  0  0  0
  -22.5270  -12.0770   22.5230 H   0  0  0  0  0  0  0  0  0  0  0  0
  -21.2310  -13.2340   22.4330 H   0  0  0  0  0  0  0  0  0  0  0  0
  -25.4210  -15.3020   20.3210 N   0  0  0  0  0  0  0  0  0  0  0  0
  -24.6810  -15.9670   20.5220 H   0  0  0  0  0  0  0  0  0  0  0  0
  -26.2660  -15.7400   19.9770 H   0  0  0  0  0  0  0  0  0  0  0  0
  -27.9670  -24.7220   19.9590 C   0  0  0  0  0  2  0  0  0  0  0  0
  -28.2600  -26.2140   20.2200 O   0  0  0  0  0  0  0  0  0  0  0  0
  -24.6390  -31.8680   23.1990 C   0  0  0  0  0  0  0  0  0  0  0  0
  -27.1980  -27.1810   20.1510 C   0  0  0  0  0  0  0  0  0  0  0  0
  -23.4230  -30.4630   21.5790 C   0  0  0  0  0  3  0  0  0  0  0  0
  -24.8590  -28.8960   20.1440 C   0  0  0  0  0  0  0  0  0  0  0  0
  -25.9730  -30.7450   21.3820 C   0  0  0  0  0  2  0  0  0  0  0  0
  -26.0440  -29.3540   20.7360 C   0  0  0  0  0  0  0  0  0  0  0  0
  -27.2140  -28.5110   20.7250 C   0  0  0  0  0  3  0  0  0  0  0  0
  -25.9850  -26.8230   19.5160 C   0  0  0  0  0  3  0  0  0  0  0  0
  -24.8400  -27.6420   19.5210 C   0  0  0  0  0  3  0  0  0  0  0  0
  -23.6290  -29.7860   20.2000 C   0  0  0  0  0  2  0  0  0  0  0  0
  -24.6990  -31.0460   22.1080 N   0  0  0  0  0  0  0  0  0  0  0  0
  -23.5580  -32.1500   23.7390 O   0  0  0  0  0  0  0  0  0  0  0  0
  -22.7610  -29.4530   22.5510 C   0  0  0  0  0  0  0  0  0  0  0  0
  -21.4320  -29.2770   22.4410 N   0  0  0  0  0  0  0  0  0  0  0  0
  -23.4460  -28.8330   23.3690 O   0  0  0  0  0  0  0  0  0  0  0  0
  -20.9360  -29.8330   21.7580 H   0  0  0  0  0  0  0  0  0  0  0  0
  -18.0660  -28.0520   22.9720 C   0  0  0  0  0  0  0  0  0  0  0  0
  -20.6230  -28.3420   23.2270 C   0  0  0  0  0  3  0  0  0  0  0  0
  -20.7350  -26.9030   22.6730 C   0  0  0  0  0  2  0  0  0  0  0  0
  -19.6340  -26.5560   21.6660 C   0  0  0  0  0  2  0  0  0  0  0  0
  -18.2530  -26.6960   22.3120 C   0  0  0  0  0  2  0  0  0  0  0  0
  -19.1790  -28.8310   23.3870 C   0  0  0  0  0  0  0  0  0  0  0  0
  -18.9490  -30.0980   23.9670 C   0  0  0  0  0  3  0  0  0  0  0  0
  -17.6400  -30.5880   24.1300 C   0  0  0  0  0  3  0  0  0  0  0  0
  -16.5410  -29.8080   23.7290 C   0  0  0  0  0  3  0  0  0  0  0  0
  -16.7560  -28.5410   23.1560 C   0  0  0  0  0  3  0  0  0  0  0  0
  -25.9230  -32.5100   23.8070 C   0  0  0  0  0  3  0  0  0  0  0  0
  -25.6060  -33.9050   24.1500 N   0  0  0  0  0  0  0  0  0  0  0  0
  -25.9170  -34.9660   23.3940 C   0  0  0  0  0  0  0  0  0  0  0  0
  -26.5660  -34.8750   22.3490 O   0  0  0  0  0  0  0  0  0  0  0  0
  -25.0290  -34.0510   24.9660 H   0  0  0  0  0  0  0  0  0  0  0  0
  -24.1650  -36.7480   23.0930 C   0  0  0  0  0  1  0  0  0  0  0  0
  -25.4290  -36.3480   23.8710 C   0  0  0  0  0  3  0  0  0  0  0  0
  -27.5780  -37.2450   24.6500 C   0  0  0  0  0  1  0  0  0  0  0  0
  -26.4480  -37.4120   23.7390 N   0  0  0  0  0  0  0  0  0  0  0  0
  -26.0390  -38.3270   23.9050 H   0  0  0  0  0  0  0  0  0  0  0  0
  -26.4600  -31.7400   25.0760 C   0  0  1  0  0  0  0  0  0  0  0  0
  -25.3840  -31.4980   26.1590 C   0  0  0  0  0  1  0  0  0  0  0  0
  -27.0430  -30.3640   24.6780 C   0  0  0  0  0  1  0  0  0  0  0  0
  -27.6180  -32.5370   25.7220 C   0  0  0  0  0  1  0  0  0  0  0  0
  1  2  1  0
  3  4  1  0
  5  3  2  0
  5  2  1  0
  7  6  1  0
  7  8  1  0
  7  3  1  0
  9  8  1  0
 10 15  1  0
 11 12  1  0
 11 10  1  0
 13 12  1  0
 13 20  1  0
 13 14  1  0
 15  9  1  0
 15 14  1  0
 16  9  2  0
 17 18  2  0
 18 37  1  0
 19 18  1  0
 19 22  1  0
 20 21  1  0
 20 17  1  0
 21 19  2  0
 22 23  1  0
 23 24  2  0
 25 28  1  0
 25 24  1  0
 26 25  2  0
 27 26  1  0
 27 22  2  0
 28 29  1  0
 29 30  1  0
 30 31  2  0
 32 31  1  0
 32 36  1  0
 33 32  2  0
 34 29  2  0
 34 33  1  0
 35 34  1  0
 37 38  1  0
 38 41  1  0
 38 40  1  0
 39 37  2  0
 42 17  1  0
 42 43  1  0
 44 42  1  0
 45  1  1  0
 45 46  1  0
 47 58  2  0
 48 46  1  0
 48 53  1  0
 49 57  1  0
 49 59  1  0
 50 56  1  0
 50 52  1  0
 51 57  1  0
 52 51  1  0
 53 52  2  0
 54 55  1  0
 54 48  2  0
 55 50  2  0
 56 49  1  0
 57 47  1  0
 59 61  2  0
 60 59  1  0
 62 60  1  0
 63 72  2  0
 63 68  1  0
 64 60  1  0
 64 68  1  0
 65 64  1  0
 66 67  1  0
 66 65  1  0
 67 63  1  0
 68 69  2  0
 69 70  1  0
 71 70  2  0
 72 71  1  0
 73 47  1  0
 73 74  1  0
 73 83  1  0
 74 77  1  0
 75 79  1  0
 75 74  1  0
 76 75  2  0
 79 78  1  0
 81 79  1  0
 81 82  1  0
 81 80  1  0
 83 86  1  1
 83 84  1  0
 85 83  1  0
M  ISO  4   8 100   9 100  45 101  46 101
M  END
>  <TORSDO>  (85) 
F 21

>  <SCORE>  (85) 
-11.911

>  <name>  (85) 
85

>  <ligand_id>  (85) 
85

>  <original_smiles>  (85) 
[H]c1c([H])c([H])c2c(c1[H])C([H])([H])C([H])([H])C([H])([H])C2([H])N([H])C(=O)C1([H])N(C(=O)C([H])(N([H])C(=O)C([H])(N([H])C([H])([H])[H])C([H])([H])[H])C(C([H])([H])[H])(C([H])([H])[H])C([H])([H])[H])C([H])([H])c2c([H])c(OC([H])([H])C([H])([H])C([H])([H])N=C(C([H])([H])[H])C([H])(C([H])([H])[H])C([H])([H])C(=O)N3C([H])([H])C([H])([H])C([H])([H])C([H])(n4nc(-c5c([H])c([H])c(Oc6c([H])c([H])c(F)c([H])c6F)c([H])c5[H])c(C(=O)N([H])[H])c4N([H])[H])C3([H])[H])c([H])c([H])c2C1([H])[H]

>  <smiles>  (85) 
[H]c1c([H])c([H])c2c(c1[H])C([H])([H])C([H])([H])C([H])([H])C2([H])N([H])C(=O)C1([H])N(C(=O)C([H])(N([H])C(=O)C([H])(N([H])C([H])([H])[H])C([H])([H])[H])C(C([H])([H])[H])(C([H])([H])[H])C([H])([H])[H])C([H])([H])c2c([H])c(OC([H])([H])C([H])([H])C([H])([H])N=C(C([H])([H])[H])C([H])(C([H])([H])[H])C([H])([H])C(=O)N3C([H])([H])C([H])([H])C([H])([H])C([H])(n4nc(-c5c([H])c([H])c(Oc6c([H])c([H])c(F)c([H])c6F)c([H])c5[H])c(C(=O)N([H])[H])c4N([H])[H])C3([H])[H])c([H])c([H])c2C1([H])[H]

$$$$
86:0:0
     RDKit          3D

 93102  0  0  1  0  0  0  0  0999 V2000
  -33.9930  -20.5980   19.2480 C   0  0  0  0  0  2  0  0  0  0  0  0
  -33.8970  -20.7000   20.7810 C   0  0  0  0  0  2  0  0  0  0  0  0
  -32.8350  -21.3080   18.5190 C   0  0  0  0  0  2  0  0  0  0  0  0
  -33.0100  -19.6410   21.4640 C   0  0  0  0  0  2  0  0  0  0  0  0
  -31.4790  -20.5810   18.5580 C   0  0  0  0  0  2  0  0  0  0  0  0
  -30.7720  -18.4200   21.5300 C   0  0  0  0  0  2  0  0  0  0  0  0
  -31.7780  -19.1690   20.6660 C   0  0  0  0  0  3  0  0  0  0  0  0
  -30.9640  -20.2890   19.9830 C   0  0  0  0  0  3  0  0  0  0  0  0
  -29.5360  -18.3640   20.6390 C   0  0  0  0  0  3  0  0  0  0  0  0
  -29.5290  -19.8870   19.9850 N   0  0  1  0  0  4  0  0  0  0  0  0
  -29.2800  -19.7410   19.0180 H   0  0  0  0  0  0  0  0  0  0  0  0
  -28.4570  -21.1980   21.9540 C   0  0  0  0  0  1  0  0  0  0  0  0
  -28.6360  -21.2140   20.4270 C   0  0  0  0  0  3  0  0  0  0  0  0
  -28.8960  -22.9210   19.9690 C   0  0  0  0  0  3  0  0  0  0  0  0
  -27.8980  -24.3800   20.1490 C   0  0  0  0  0  3  0  0  0  0  0  0
  -28.1640  -25.9820   19.9890 O   0  0  0  0  0  0  0  0  0  0  0  0
  -24.6390  -31.8580   23.0800 C   0  0  0  0  0  0  0  0  0  0  0  0
  -27.1350  -27.0450   19.9800 C   0  0  0  0  0  0  0  0  0  0  0  0
  -23.4090  -30.4710   21.4590 C   0  0  0  0  0  3  0  0  0  0  0  0
  -24.8280  -28.8880   19.9940 C   0  0  0  0  0  0  0  0  0  0  0  0
  -25.9680  -30.7040   21.2510 C   0  0  0  0  0  2  0  0  0  0  0  0
  -26.0280  -29.3020   20.5880 C   0  0  0  0  0  0  0  0  0  0  0  0
  -27.1790  -28.4010   20.5550 C   0  0  0  0  0  3  0  0  0  0  0  0
  -25.9080  -26.7730   19.3380 C   0  0  0  0  0  3  0  0  0  0  0  0
  -24.7900  -27.6430   19.3480 C   0  0  0  0  0  3  0  0  0  0  0  0
  -23.6060  -29.7990   20.0730 C   0  0  0  0  0  2  0  0  0  0  0  0
  -24.6940  -31.0360   21.9840 N   0  0  0  0  0  0  0  0  0  0  0  0
  -23.5620  -32.1390   23.6300 O   0  0  0  0  0  0  0  0  0  0  0  0
  -22.7430  -29.4630   22.4320 C   0  0  0  0  0  0  0  0  0  0  0  0
  -21.4100  -29.3010   22.3410 N   0  0  0  0  0  0  0  0  0  0  0  0
  -23.4320  -28.8280   23.2360 O   0  0  0  0  0  0  0  0  0  0  0  0
  -20.9090  -29.8630   21.6680 H   0  0  0  0  0  0  0  0  0  0  0  0
  -18.0400  -28.0910   22.9230 C   0  0  0  0  0  0  0  0  0  0  0  0
  -20.6060  -28.3570   23.1260 C   0  0  0  0  0  3  0  0  0  0  0  0
  -20.6950  -26.9290   22.5380 C   0  0  0  0  0  2  0  0  0  0  0  0
  -19.5680  -26.6130   21.5490 C   0  0  0  0  0  2  0  0  0  0  0  0
  -18.2030  -26.7490   22.2290 C   0  0  0  0  0  2  0  0  0  0  0  0
  -19.1680  -28.8530   23.3300 C   0  0  0  0  0  0  0  0  0  0  0  0
  -18.9600  -30.1070   23.9430 C   0  0  0  0  0  3  0  0  0  0  0  0
  -17.6590  -30.6020   24.1490 C   0  0  0  0  0  3  0  0  0  0  0  0
  -16.5460  -29.8380   23.7570 C   0  0  0  0  0  3  0  0  0  0  0  0
  -16.7390  -28.5830   23.1510 C   0  0  0  0  0  3  0  0  0  0  0  0
  -25.9240  -32.4970   23.6860 C   0  0  0  0  0  3  0  0  0  0  0  0
  -26.4910  -31.6940   24.9220 C   0  0  1  0  0  0  0  0  0  0  0  0
  -25.4370  -31.4090   26.0180 C   0  0  0  0  0  1  0  0  0  0  0  0
  -27.0770  -30.3350   24.4760 C   0  0  0  0  0  1  0  0  0  0  0  0
  -27.6550  -32.4800   25.5690 C   0  0  0  0  0  1  0  0  0  0  0  0
  -25.5980  -33.8770   24.0830 N   0  0  0  0  0  0  0  0  0  0  0  0
  -25.8790  -34.9700   23.3600 C   0  0  0  0  0  0  0  0  0  0  0  0
  -26.5030  -34.9230   22.2980 O   0  0  0  0  0  0  0  0  0  0  0  0
  -25.0350  -33.9850   24.9130 H   0  0  0  0  0  0  0  0  0  0  0  0
  -24.1020  -36.7440   23.1750 C   0  0  0  0  0  1  0  0  0  0  0  0
  -25.3940  -36.3310   23.8990 C   0  0  0  0  0  3  0  0  0  0  0  0
  -27.5560  -37.2280   24.6430 C   0  0  0  0  0  1  0  0  0  0  0  0
  -26.3990  -37.4100   23.7700 N   0  0  0  0  0  0  0  0  0  0  0  0
  -25.9870  -38.3150   23.9760 H   0  0  0  0  0  0  0  0  0  0  0  0
  -29.5450  -16.7790   19.8380 C   0  0  0  0  0  2  0  0  0  0  0  0
  -30.3810  -15.2650   20.0300 C   0  0  0  0  0  0  0  0  0  0  0  0
  -30.3350  -12.8270   19.1860 C   0  0  0  0  0  2  0  0  0  0  0  0
  -29.3840  -12.6650   17.9730 C   0  0  0  0  0  2  0  0  0  0  0  0
  -27.9370  -12.4180   18.4380 C   0  0  0  0  0  2  0  0  0  0  0  0
  -27.5210  -13.3770   19.5810 C   0  0  0  0  0  3  0  0  0  0  0  0
  -28.5930  -13.4960   20.6800 C   0  0  0  0  0  2  0  0  0  0  0  0
  -29.8310  -13.9580   20.0390 N   0  0  0  0  0  0  0  0  0  0  0  0
  -31.6060  -15.2600   19.8460 O   0  0  0  0  0  0  0  0  0  0  0  0
  -25.1670  -13.9400   20.3890 C   0  0  0  0  0  0  0  0  0  0  0  0
  -24.1150  -13.1640   20.7900 C   0  0  0  0  0  0  0  0  0  0  0  0
  -24.5850  -11.8150   20.7620 C   0  0  0  0  0  0  0  0  0  0  0  0
  -26.2050  -13.0650   20.1250 N   0  0  0  0  0  0  0  0  0  0  0  0
  -25.8690  -11.7820   20.4200 N   0  0  0  0  0  0  0  0  0  0  0  0
  -23.8670  -10.5520   20.9800 C   0  0  0  0  0  0  0  0  0  0  0  0
  -24.3310   -9.5830   21.8970 C   0  0  0  0  0  3  0  0  0  0  0  0
  -23.6080   -8.3880   22.1020 C   0  0  0  0  0  3  0  0  0  0  0  0
  -22.4060   -8.1530   21.3920 C   0  0  0  0  0  0  0  0  0  0  0  0
  -21.9610   -9.1110   20.4640 C   0  0  0  0  0  3  0  0  0  0  0  0
  -22.6840  -10.2970   20.2560 C   0  0  0  0  0  3  0  0  0  0  0  0
  -21.6520   -7.0110   21.5090 O   0  0  0  0  0  0  0  0  0  0  0  0
  -21.6610   -6.2570   22.6550 C   0  0  0  0  0  0  0  0  0  0  0  0
  -21.3200   -6.8050   23.9110 C   0  0  0  0  0  3  0  0  0  0  0  0
  -21.2750   -5.9780   25.0520 C   0  0  0  0  0  3  0  0  0  0  0  0
  -21.5600   -4.6040   24.9380 C   0  0  0  0  0  0  0  0  0  0  0  0
  -21.8960   -4.0560   23.6870 C   0  0  0  0  0  3  0  0  0  0  0  0
  -21.9430   -4.8800   22.5480 C   0  0  0  0  0  0  0  0  0  0  0  0
  -22.2450   -4.3420   21.3420 F   0  0  0  0  0  0  0  0  0  0  0  0
  -21.5100   -3.8080   26.0310 F   0  0  0  0  0  0  0  0  0  0  0  0
  -22.7230  -13.6390   21.0830 C   0  0  0  0  0  0  0  0  0  0  0  0
  -22.0160  -12.9520   21.9730 N   0  0  0  0  0  0  0  0  0  0  0  0
  -22.2720  -14.6580   20.5580 O   0  0  0  0  0  0  0  0  0  0  0  0
  -22.3960  -12.1300   22.4190 H   0  0  0  0  0  0  0  0  0  0  0  0
  -21.0820  -13.2530   22.2130 H   0  0  0  0  0  0  0  0  0  0  0  0
  -25.3200  -15.3100   20.1970 N   0  0  0  0  0  0  0  0  0  0  0  0
  -24.5500  -15.9580   20.3180 H   0  0  0  0  0  0  0  0  0  0  0  0
  -26.1530  -15.7510   19.8300 H   0  0  0  0  0  0  0  0  0  0  0  0
  1  2  1  0
  2  4  1  0
  3  5  1  0
  3  1  1  0
  7  4  1  0
  7  6  1  0
  8  5  1  0
  8 10  1  0
  8  7  1  0
  9 57  1  0
  9  6  1  0
 10 13  1  0
 10  9  1  0
 10 11  1  6
 13 12  1  0
 14 15  2  0
 14 13  1  0
 16 15  1  0
 17 28  2  0
 18 16  1  0
 18 23  1  0
 19 27  1  0
 19 29  1  0
 20 26  1  0
 20 22  1  0
 21 27  1  0
 22 21  1  0
 23 22  2  0
 24 25  1  0
 24 18  2  0
 25 20  2  0
 26 19  1  0
 27 17  1  0
 29 31  2  0
 30 29  1  0
 32 30  1  0
 33 42  2  0
 33 38  1  0
 34 30  1  0
 34 38  1  0
 35 34  1  0
 36 37  1  0
 36 35  1  0
 37 33  1  0
 38 39  2  0
 39 40  1  0
 41 40  2  0
 42 41  1  0
 43 17  1  0
 43 48  1  0
 43 44  1  0
 44 47  1  1
 44 45  1  0
 46 44  1  0
 48 51  1  0
 49 53  1  0
 49 48  1  0
 50 49  2  0
 53 52  1  0
 55 53  1  0
 55 56  1  0
 55 54  1  0
 57 58  1  0
 58 64  1  0
 59 64  1  0
 60 61  1  0
 60 59  1  0
 62 61  1  0
 62 69  1  0
 62 63  1  0
 64 63  1  0
 65 58  2  0
 66 67  2  0
 67 86  1  0
 68 67  1  0
 68 71  1  0
 69 66  1  0
 69 70  1  0
 70 68  2  0
 71 72  1  0
 72 73  2  0
 74 77  1  0
 74 73  1  0
 75 74  2  0
 76 75  1  0
 76 71  2  0
 77 78  1  0
 78 79  1  0
 79 80  2  0
 81 80  1  0
 81 85  1  0
 82 81  2  0
 83 78  2  0
 83 82  1  0
 84 83  1  0
 86 87  1  0
 87 90  1  0
 87 89  1  0
 88 86  2  0
 91 92  1  0
 91 66  1  0
 93 91  1  0
M  ISO  4  15 101  16 101  57 100  58 100
M  END
>  <TORSDO>  (86) 
F 20

>  <SCORE>  (86) 
-15.492

>  <name>  (86) 
86

>  <ligand_id>  (86) 
86

>  <original_smiles>  (86) 
[H]c1c([H])c([H])c2c(c1[H])C([H])([H])C([H])([H])C([H])([H])C2([H])N([H])C(=O)C1([H])N(C(=O)C([H])(N([H])C(=O)C([H])(N([H])C([H])([H])[H])C([H])([H])[H])C(C([H])([H])[H])(C([H])([H])[H])C([H])([H])[H])C([H])([H])c2c([H])c(OC([H])([H])C([H])([H])C([H])(C([H])([H])[H])[N+]3([H])C([H])(C([H])([H])C(=O)N4C([H])([H])C([H])([H])C([H])([H])C([H])(n5nc(-c6c([H])c([H])c(Oc7c([H])c([H])c(F)c([H])c7F)c([H])c6[H])c(C(=O)N([H])[H])c5N([H])[H])C4([H])[H])C([H])([H])C4([H])C([H])([H])C([H])([H])C([H])([H])C([H])([H])C([H])([H])C43[H])c([H])c([H])c2C1([H])[H]

>  <smiles>  (86) 
[H]c1c([H])c([H])c2c(c1[H])C([H])([H])C([H])([H])C([H])([H])C2([H])N([H])C(=O)C1([H])N(C(=O)C([H])(N([H])C(=O)C([H])(N([H])C([H])([H])[H])C([H])([H])[H])C(C([H])([H])[H])(C([H])([H])[H])C([H])([H])[H])C([H])([H])c2c([H])c(OC([H])([H])C([H])([H])C([H])(C([H])([H])[H])[N+]3([H])C([H])(C([H])([H])C(=O)N4C([H])([H])C([H])([H])C([H])([H])C([H])(n5nc(-c6c([H])c([H])c(Oc7c([H])c([H])c(F)c([H])c7F)c([H])c6[H])c(C(=O)N([H])[H])c5N([H])[H])C4([H])[H])C([H])([H])C4([H])C([H])([H])C([H])([H])C([H])([H])C([H])([H])C([H])([H])C43[H])c([H])c([H])c2C1([H])[H]

$$$$
87:0:0
     RDKit          3D

 90 99  0  0  1  0  0  0  0  0999 V2000
  -29.8010  -22.1720   23.4740 C   0  0  0  0  0  2  0  0  0  0  0  0
  -29.8240  -23.3480   22.4870 C   0  0  0  0  0  2  0  0  0  0  0  0
  -28.7610  -20.4110   21.9590 C   0  0  0  0  0  2  0  0  0  0  0  0
  -28.8180  -20.4200   20.4180 C   0  0  0  0  0  3  0  0  0  0  0  0
  -29.0480  -22.3470   20.1720 C   0  0  0  0  0  3  0  0  0  0  0  0
  -30.0880  -20.9550   22.5830 C   0  0  0  0  0  3  0  0  0  0  0  0
  -30.2320  -22.7390   21.1150 C   0  0  0  0  0  3  0  0  0  0  0  0
  -32.3770  -21.6980   21.8230 C   0  0  0  0  0  1  0  0  0  0  0  0
  -30.9410  -21.5090   21.5030 N   0  0  1  0  0  4  0  0  0  0  0  0
  -30.8940  -20.8680   20.7240 H   0  0  0  0  0  0  0  0  0  0  0  0
  -29.5370  -17.2880   20.2400 C   0  0  0  0  0  3  0  0  0  0  0  0
  -29.6990  -18.8120   20.0740 C   0  0  0  0  0  3  0  0  0  0  0  0
  -30.3800  -15.8150   19.9840 C   0  0  0  0  0  0  0  0  0  0  0  0
  -30.5010  -13.2690   19.1830 C   0  0  0  0  0  2  0  0  0  0  0  0
  -29.5770  -12.8970   17.9860 C   0  0  0  0  0  2  0  0  0  0  0  0
  -28.1690  -12.5190   18.4700 C   0  0  0  0  0  2  0  0  0  0  0  0
  -27.6820  -13.4930   19.5690 C   0  0  0  0  0  3  0  0  0  0  0  0
  -28.7410  -13.7950   20.6550 C   0  0  0  0  0  2  0  0  0  0  0  0
  -29.9000  -14.4290   19.9870 N   0  0  0  0  0  0  0  0  0  0  0  0
  -31.5870  -15.7720   19.6790 O   0  0  0  0  0  0  0  0  0  0  0  0
  -25.3550  -13.9710   20.4600 C   0  0  0  0  0  0  0  0  0  0  0  0
  -24.3210  -13.1670   20.8520 C   0  0  0  0  0  0  0  0  0  0  0  0
  -24.8050  -11.8250   20.7590 C   0  0  0  0  0  0  0  0  0  0  0  0
  -26.3930  -13.1210   20.1350 N   0  0  0  0  0  0  0  0  0  0  0  0
  -26.0820  -11.8220   20.3840 N   0  0  0  0  0  0  0  0  0  0  0  0
  -24.0990  -10.5500   20.9480 C   0  0  0  0  0  0  0  0  0  0  0  0
  -24.5190   -9.6080   21.9120 C   0  0  0  0  0  3  0  0  0  0  0  0
  -23.8080   -8.4010   22.0910 C   0  0  0  0  0  3  0  0  0  0  0  0
  -22.6620   -8.1270   21.3080 C   0  0  0  0  0  0  0  0  0  0  0  0
  -22.2610   -9.0590   20.3330 C   0  0  0  0  0  3  0  0  0  0  0  0
  -22.9730  -10.2570   20.1530 C   0  0  0  0  0  3  0  0  0  0  0  0
  -21.9260   -6.9710   21.3950 O   0  0  0  0  0  0  0  0  0  0  0  0
  -21.7690   -6.3030   22.5830 C   0  0  0  0  0  0  0  0  0  0  0  0
  -21.1910   -6.9190   23.7150 C   0  0  0  0  0  3  0  0  0  0  0  0
  -20.9870   -6.1750   24.8940 C   0  0  0  0  0  3  0  0  0  0  0  0
  -21.3500   -4.8170   24.9410 C   0  0  0  0  0  0  0  0  0  0  0  0
  -21.9200   -4.2000   23.8140 C   0  0  0  0  0  3  0  0  0  0  0  0
  -22.1260   -4.9410   22.6370 C   0  0  0  0  0  0  0  0  0  0  0  0
  -22.6560   -4.3370   21.5470 F   0  0  0  0  0  0  0  0  0  0  0  0
  -21.1460   -4.0990   26.0700 F   0  0  0  0  0  0  0  0  0  0  0  0
  -22.9320  -13.6200   21.1940 C   0  0  0  0  0  0  0  0  0  0  0  0
  -22.2470  -12.8960   22.0700 N   0  0  0  0  0  0  0  0  0  0  0  0
  -22.4660  -14.6530   20.7160 O   0  0  0  0  0  0  0  0  0  0  0  0
  -22.6390  -12.0630   22.4850 H   0  0  0  0  0  0  0  0  0  0  0  0
  -21.3110  -13.1770   22.3280 H   0  0  0  0  0  0  0  0  0  0  0  0
  -25.4930  -15.3490   20.3170 N   0  0  0  0  0  0  0  0  0  0  0  0
  -24.7320  -15.9910   20.5050 H   0  0  0  0  0  0  0  0  0  0  0  0
  -26.3250  -15.8110   19.9730 H   0  0  0  0  0  0  0  0  0  0  0  0
  -28.0150  -23.9820   20.1570 C   0  0  0  0  0  2  0  0  0  0  0  0
  -28.2180  -25.7190   20.2390 O   0  0  0  0  0  0  0  0  0  0  0  0
  -24.7130  -31.9080   23.2810 C   0  0  0  0  0  0  0  0  0  0  0  0
  -27.2380  -26.9120   20.2110 C   0  0  0  0  0  0  0  0  0  0  0  0
  -23.5240  -30.5430   21.6170 C   0  0  0  0  0  3  0  0  0  0  0  0
  -24.9710  -28.9250   20.1780 C   0  0  0  0  0  0  0  0  0  0  0  0
  -26.1010  -30.6940   21.4990 C   0  0  0  0  0  2  0  0  0  0  0  0
  -26.1650  -29.2770   20.8200 C   0  0  0  0  0  0  0  0  0  0  0  0
  -27.2850  -28.2980   20.8030 C   0  0  0  0  0  3  0  0  0  0  0  0
  -26.0110  -26.7580   19.5210 C   0  0  0  0  0  3  0  0  0  0  0  0
  -24.9300  -27.6900   19.5060 C   0  0  0  0  0  3  0  0  0  0  0  0
  -23.7640  -29.8720   20.2330 C   0  0  0  0  0  2  0  0  0  0  0  0
  -24.8030  -31.0810   22.1850 N   0  0  0  0  0  0  0  0  0  0  0  0
  -23.6190  -32.1990   23.7970 O   0  0  0  0  0  0  0  0  0  0  0  0
  -22.8090  -29.5450   22.5680 C   0  0  0  0  0  0  0  0  0  0  0  0
  -21.4840  -29.3590   22.4040 N   0  0  0  0  0  0  0  0  0  0  0  0
  -23.4540  -28.9370   23.4230 O   0  0  0  0  0  0  0  0  0  0  0  0
  -21.0110  -29.9010   21.6960 H   0  0  0  0  0  0  0  0  0  0  0  0
  -18.1210  -28.0400   22.7940 C   0  0  0  0  0  0  0  0  0  0  0  0
  -20.6590  -28.4030   23.1540 C   0  0  0  0  0  3  0  0  0  0  0  0
  -20.8320  -26.9690   22.6020 C   0  0  0  0  0  2  0  0  0  0  0  0
  -19.7850  -26.5960   21.5480 C   0  0  0  0  0  2  0  0  0  0  0  0
  -18.3740  -26.6940   22.1350 C   0  0  0  0  0  2  0  0  0  0  0  0
  -19.1940  -28.8490   23.2570 C   0  0  0  0  0  0  0  0  0  0  0  0
  -18.9020  -30.1030   23.8370 C   0  0  0  0  0  3  0  0  0  0  0  0
  -17.5720  -30.5500   23.9560 C   0  0  0  0  0  3  0  0  0  0  0  0
  -16.5150  -29.7410   23.5050 C   0  0  0  0  0  3  0  0  0  0  0  0
  -16.7900  -28.4880   22.9290 C   0  0  0  0  0  3  0  0  0  0  0  0
  -25.9750  -32.5430   23.9380 C   0  0  0  0  0  3  0  0  0  0  0  0
  -25.6670  -33.9500   24.2620 N   0  0  0  0  0  0  0  0  0  0  0  0
  -25.9920  -35.0060   23.5050 C   0  0  0  0  0  0  0  0  0  0  0  0
  -26.6450  -34.8990   22.4630 O   0  0  0  0  0  0  0  0  0  0  0  0
  -25.0840  -34.1050   25.0720 H   0  0  0  0  0  0  0  0  0  0  0  0
  -24.2500  -36.8060   23.2210 C   0  0  0  0  0  1  0  0  0  0  0  0
  -25.5280  -36.4010   23.9750 C   0  0  0  0  0  3  0  0  0  0  0  0
  -27.6910  -37.3080   24.7080 C   0  0  0  0  0  1  0  0  0  0  0  0
  -26.5530  -37.4560   23.8040 N   0  0  0  0  0  0  0  0  0  0  0  0
  -26.1500  -38.3780   23.9480 H   0  0  0  0  0  0  0  0  0  0  0  0
  -26.4410  -31.7820   25.2420 C   0  0  1  0  0  0  0  0  0  0  0  0
  -25.3140  -31.5780   26.2810 C   0  0  0  0  0  1  0  0  0  0  0  0
  -27.0150  -30.3900   24.8960 C   0  0  0  0  0  1  0  0  0  0  0  0
  -27.5860  -32.5680   25.9250 C   0  0  0  0  0  1  0  0  0  0  0  0
  2  1  1  0
  4 12  1  0
  4  3  1  0
  5 49  1  0
  5  4  1  0
  5  7  1  0
  6  3  1  0
  6  1  1  0
  7  9  1  0
  7  2  1  0
  9  8  1  0
  9  6  1  0
  9 10  1  6
 12 11  2  0
 13 19  1  0
 13 11  1  0
 14 19  1  0
 15 16  1  0
 15 14  1  0
 17 16  1  0
 17 24  1  0
 17 18  1  0
 19 18  1  0
 20 13  2  0
 21 22  2  0
 22 41  1  0
 23 22  1  0
 23 26  1  0
 24 25  1  0
 24 21  1  0
 25 23  2  0
 26 27  1  0
 27 28  2  0
 29 32  1  0
 29 28  1  0
 30 29  2  0
 31 30  1  0
 31 26  2  0
 32 33  1  0
 33 38  2  0
 33 34  1  0
 34 35  2  0
 35 36  1  0
 36 40  1  0
 37 36  2  0
 38 37  1  0
 39 38  1  0
 41 42  1  0
 42 45  1  0
 42 44  1  0
 43 41  2  0
 46 21  1  0
 46 47  1  0
 48 46  1  0
 49 50  1  0
 51 62  2  0
 52 50  1  0
 52 57  1  0
 53 61  1  0
 53 63  1  0
 54 60  1  0
 54 56  1  0
 55 61  1  0
 56 55  1  0
 57 56  2  0
 58 52  2  0
 59 58  1  0
 59 54  2  0
 60 53  1  0
 61 51  1  0
 63 65  2  0
 64 63  1  0
 66 64  1  0
 67 76  2  0
 67 72  1  0
 68 64  1  0
 68 72  1  0
 69 68  1  0
 70 71  1  0
 70 69  1  0
 71 67  1  0
 72 73  2  0
 73 74  1  0
 75 74  2  0
 76 75  1  0
 77 51  1  0
 77 78  1  0
 77 87  1  0
 78 81  1  0
 79 83  1  0
 79 78  1  0
 80 79  2  0
 83 82  1  0
 85 86  1  0
 85 83  1  0
 85 84  1  0
 87 90  1  1
 87 88  1  0
 89 87  1  0
M  ISO  4  11 100  13 100  49 101  50 101
M  END
>  <TORSDO>  (87) 
F 18

>  <SCORE>  (87) 
-15.371

>  <name>  (87) 
87

>  <ligand_id>  (87) 
87

>  <original_smiles>  (87) 
[H]C(C(=O)N1C([H])([H])C([H])([H])C([H])([H])C([H])(n2nc(-c3c([H])c([H])c(Oc4c([H])c([H])c(F)c([H])c4F)c([H])c3[H])c(C(=O)N([H])[H])c2N([H])[H])C1([H])[H])=C([H])C1([H])C([H])([H])C2([H])C([H])([H])C([H])([H])C([H])(C1([H])C([H])([H])Oc1c([H])c([H])c3c(c1[H])C([H])([H])N(C(=O)C([H])(N([H])C(=O)C([H])(N([H])C([H])([H])[H])C([H])([H])[H])C(C([H])([H])[H])(C([H])([H])[H])C([H])([H])[H])C([H])(C(=O)N([H])C1([H])c4c([H])c([H])c([H])c([H])c4C([H])([H])C([H])([H])C1([H])[H])C3([H])[H])[N+]2([H])C([H])([H])[H]

>  <smiles>  (87) 
[H]C(C(=O)N1C([H])([H])C([H])([H])C([H])([H])C([H])(n2nc(-c3c([H])c([H])c(Oc4c([H])c([H])c(F)c([H])c4F)c([H])c3[H])c(C(=O)N([H])[H])c2N([H])[H])C1([H])[H])=C([H])C1([H])C([H])([H])C2([H])C([H])([H])C([H])([H])C([H])(C1([H])C([H])([H])Oc1c([H])c([H])c3c(c1[H])C([H])([H])N(C(=O)C([H])(N([H])C(=O)C([H])(N([H])C([H])([H])[H])C([H])([H])[H])C(C([H])([H])[H])(C([H])([H])[H])C([H])([H])[H])C([H])(C(=O)N([H])C1([H])c4c([H])c([H])c([H])c([H])c4C([H])([H])C([H])([H])C1([H])[H])C3([H])[H])[N+]2([H])C([H])([H])[H]

$$$$
88:0:0
     RDKit          3D

 86 95  0  0  1  0  0  0  0  0999 V2000
  -31.0160  -20.9310   20.1090 C   0  0  0  0  0  2  0  0  0  0  0  0
  -30.9090  -19.3950   19.6710 C   0  0  0  0  0  2  0  0  0  0  0  0
  -28.0440  -21.2300   19.6660 C   0  0  0  0  0  2  0  0  0  0  0  0
  -29.7040  -21.4730   20.7610 C   0  0  0  0  0  3  0  0  0  0  0  0
  -28.8010  -20.1570   20.6460 C   0  0  0  0  0  3  0  0  0  0  0  0
  -29.7690  -18.6940   20.4460 C   0  0  0  0  0  3  0  0  0  0  0  0
  -28.7750  -22.6570   20.0250 C   0  0  0  0  0  3  0  0  0  0  0  0
  -29.4170  -16.9200   20.2080 C   0  0  0  0  0  2  0  0  0  0  0  0
  -30.3210  -15.3910   20.1200 C   0  0  0  0  0  0  0  0  0  0  0  0
  -30.3360  -12.9280   19.2530 C   0  0  0  0  0  2  0  0  0  0  0  0
  -29.3710  -12.7250   18.0530 C   0  0  0  0  0  2  0  0  0  0  0  0
  -27.9390  -12.4380   18.5370 C   0  0  0  0  0  2  0  0  0  0  0  0
  -27.5190  -13.3880   19.6850 C   0  0  0  0  0  3  0  0  0  0  0  0
  -28.6030  -13.5320   20.7700 C   0  0  0  0  0  2  0  0  0  0  0  0
  -29.8150  -14.0530   20.1170 N   0  0  0  0  0  0  0  0  0  0  0  0
  -31.5340  -15.4100   19.8590 O   0  0  0  0  0  0  0  0  0  0  0  0
  -25.1840  -13.9260   20.5510 C   0  0  0  0  0  0  0  0  0  0  0  0
  -24.1370  -13.1410   20.9460 C   0  0  0  0  0  0  0  0  0  0  0  0
  -24.6020  -11.7920   20.8680 C   0  0  0  0  0  0  0  0  0  0  0  0
  -26.2140  -13.0570   20.2420 N   0  0  0  0  0  0  0  0  0  0  0  0
  -25.8800  -11.7660   20.5020 N   0  0  0  0  0  0  0  0  0  0  0  0
  -23.8810  -10.5260   21.0600 C   0  0  0  0  0  0  0  0  0  0  0  0
  -24.3380   -9.5450   21.9680 C   0  0  0  0  0  3  0  0  0  0  0  0
  -23.6150   -8.3460   22.1500 C   0  0  0  0  0  3  0  0  0  0  0  0
  -22.4200   -8.1200   21.4270 C   0  0  0  0  0  0  0  0  0  0  0  0
  -21.9820   -9.0900   20.5080 C   0  0  0  0  0  3  0  0  0  0  0  0
  -22.7060  -10.2800   20.3230 C   0  0  0  0  0  3  0  0  0  0  0  0
  -21.6660   -6.9750   21.5190 O   0  0  0  0  0  0  0  0  0  0  0  0
  -21.6380   -6.2220   22.6660 C   0  0  0  0  0  0  0  0  0  0  0  0
  -21.2160   -6.7620   23.9010 C   0  0  0  0  0  3  0  0  0  0  0  0
  -21.1360   -5.9350   25.0390 C   0  0  0  0  0  3  0  0  0  0  0  0
  -21.4680   -4.5710   24.9450 C   0  0  0  0  0  0  0  0  0  0  0  0
  -21.8830   -4.0310   23.7150 C   0  0  0  0  0  3  0  0  0  0  0  0
  -21.9640   -4.8540   22.5780 C   0  0  0  0  0  0  0  0  0  0  0  0
  -22.3450   -4.3230   21.3910 F   0  0  0  0  0  0  0  0  0  0  0  0
  -21.3850   -3.7750   26.0370 F   0  0  0  0  0  0  0  0  0  0  0  0
  -22.7510  -13.6120   21.2790 C   0  0  0  0  0  0  0  0  0  0  0  0
  -22.0560  -12.8980   22.1550 N   0  0  0  0  0  0  0  0  0  0  0  0
  -22.2980  -14.6490   20.7970 O   0  0  0  0  0  0  0  0  0  0  0  0
  -22.4370  -12.0580   22.5660 H   0  0  0  0  0  0  0  0  0  0  0  0
  -21.1270  -13.1950   22.4220 H   0  0  0  0  0  0  0  0  0  0  0  0
  -25.3400  -15.3010   20.3990 N   0  0  0  0  0  0  0  0  0  0  0  0
  -24.5810  -15.9530   20.5650 H   0  0  0  0  0  0  0  0  0  0  0  0
  -26.1780  -15.7500   20.0550 H   0  0  0  0  0  0  0  0  0  0  0  0
  -28.0030  -24.2490   20.4950 C   0  0  0  0  0  2  0  0  0  0  0  0
  -28.2420  -25.8870   20.2950 O   0  0  0  0  0  0  0  0  0  0  0  0
  -24.6540  -31.8950   23.2630 C   0  0  0  0  0  0  0  0  0  0  0  0
  -27.2230  -26.9890   20.2760 C   0  0  0  0  0  0  0  0  0  0  0  0
  -23.4680  -30.4930   21.6230 C   0  0  0  0  0  3  0  0  0  0  0  0
  -24.9230  -28.8820   20.2140 C   0  0  0  0  0  0  0  0  0  0  0  0
  -26.0370  -30.7010   21.4870 C   0  0  0  0  0  2  0  0  0  0  0  0
  -26.1110  -29.2860   20.8360 C   0  0  0  0  0  0  0  0  0  0  0  0
  -27.2560  -28.3640   20.8370 C   0  0  0  0  0  3  0  0  0  0  0  0
  -26.0030  -26.7440   19.6050 C   0  0  0  0  0  3  0  0  0  0  0  0
  -24.8960  -27.6320   19.5770 C   0  0  0  0  0  3  0  0  0  0  0  0
  -23.7050  -29.8060   20.2510 C   0  0  0  0  0  2  0  0  0  0  0  0
  -24.7410  -31.0580   22.1780 N   0  0  0  0  0  0  0  0  0  0  0  0
  -23.5610  -32.1850   23.7790 O   0  0  0  0  0  0  0  0  0  0  0  0
  -22.7690  -29.5010   22.5900 C   0  0  0  0  0  0  0  0  0  0  0  0
  -21.4410  -29.3310   22.4570 N   0  0  0  0  0  0  0  0  0  0  0  0
  -23.4300  -28.8820   23.4270 O   0  0  0  0  0  0  0  0  0  0  0  0
  -20.9590  -29.8810   21.7590 H   0  0  0  0  0  0  0  0  0  0  0  0
  -18.0590  -28.1050   22.9460 C   0  0  0  0  0  0  0  0  0  0  0  0
  -20.6160  -28.3930   23.2270 C   0  0  0  0  0  3  0  0  0  0  0  0
  -20.7320  -26.9580   22.6620 C   0  0  0  0  0  2  0  0  0  0  0  0
  -19.6390  -26.6210   21.6410 C   0  0  0  0  0  2  0  0  0  0  0  0
  -18.2520  -26.7550   22.2750 C   0  0  0  0  0  2  0  0  0  0  0  0
  -19.1690  -28.8810   23.3790 C   0  0  0  0  0  0  0  0  0  0  0  0
  -18.9330  -30.1400   23.9710 C   0  0  0  0  0  3  0  0  0  0  0  0
  -17.6210  -30.6270   24.1310 C   0  0  0  0  0  3  0  0  0  0  0  0
  -16.5270  -29.8500   23.7120 C   0  0  0  0  0  3  0  0  0  0  0  0
  -16.7480  -28.5910   23.1260 C   0  0  0  0  0  3  0  0  0  0  0  0
  -25.9210  -32.5420   23.9000 C   0  0  0  0  0  3  0  0  0  0  0  0
  -25.5990  -33.9430   24.2260 N   0  0  0  0  0  0  0  0  0  0  0  0
  -25.9320  -35.0020   23.4770 C   0  0  0  0  0  0  0  0  0  0  0  0
  -26.6040  -34.9040   22.4460 O   0  0  0  0  0  0  0  0  0  0  0  0
  -25.0030  -34.0930   25.0260 H   0  0  0  0  0  0  0  0  0  0  0  0
  -24.2060  -36.8050   23.1340 C   0  0  0  0  0  1  0  0  0  0  0  0
  -25.4470  -36.3920   23.9420 C   0  0  0  0  0  3  0  0  0  0  0  0
  -27.5800  -37.2790   24.7800 C   0  0  0  0  0  1  0  0  0  0  0  0
  -26.4820  -37.4450   23.8320 N   0  0  0  0  0  0  0  0  0  0  0  0
  -26.0750  -38.3660   23.9760 H   0  0  0  0  0  0  0  0  0  0  0  0
  -26.4170  -31.7850   25.1940 C   0  0  1  0  0  0  0  0  0  0  0  0
  -25.3080  -31.5610   26.2490 C   0  0  0  0  0  1  0  0  0  0  0  0
  -27.0040  -30.4020   24.8350 C   0  0  0  0  0  1  0  0  0  0  0  0
  -27.5590  -32.5860   25.8620 C   0  0  0  0  0  1  0  0  0  0  0  0
  2  1  1  0
  2  6  1  0
  3  7  1  0
  4  1  1  0
  5  3  1  0
  5  4  1  0
  6  8  1  0
  6  5  1  0
  7 45  1  0
  7  4  1  0
  9  8  1  0
 10 15  1  0
 11 12  1  0
 11 10  1  0
 13 12  1  0
 13 20  1  0
 13 14  1  0
 15  9  1  0
 15 14  1  0
 16  9  2  0
 17 18  2  0
 18 37  1  0
 19 18  1  0
 19 22  1  0
 20 21  1  0
 20 17  1  0
 21 19  2  0
 22 23  1  0
 23 24  2  0
 25 28  1  0
 25 24  1  0
 26 25  2  0
 27 26  1  0
 27 22  2  0
 28 29  1  0
 29 30  1  0
 30 31  2  0
 32 31  1  0
 32 36  1  0
 33 32  2  0
 34 29  2  0
 34 33  1  0
 35 34  1  0
 37 38  1  0
 38 41  1  0
 38 40  1  0
 39 37  2  0
 42 17  1  0
 42 43  1  0
 44 42  1  0
 46 45  1  0
 47 58  2  0
 48 46  1  0
 48 53  1  0
 49 57  1  0
 49 59  1  0
 50 56  1  0
 50 52  1  0
 51 57  1  0
 52 53  2  0
 52 51  1  0
 54 48  2  0
 55 54  1  0
 55 50  2  0
 56 49  1  0
 57 47  1  0
 59 61  2  0
 60 59  1  0
 62 60  1  0
 63 72  2  0
 63 68  1  0
 64 60  1  0
 64 68  1  0
 65 64  1  0
 66 67  1  0
 66 65  1  0
 67 63  1  0
 68 69  2  0
 69 70  1  0
 71 70  2  0
 72 71  1  0
 73 47  1  0
 73 74  1  0
 73 83  1  0
 74 77  1  0
 75 79  1  0
 75 74  1  0
 76 75  2  0
 79 78  1  0
 81 79  1  0
 81 82  1  0
 81 80  1  0
 83 86  1  1
 83 84  1  0
 85 83  1  0
M  ISO  4   8 100   9 100  45 101  46 101
M  END
>  <TORSDO>  (88) 
F 18

>  <SCORE>  (88) 
-16.691

>  <name>  (88) 
88

>  <ligand_id>  (88) 
88

>  <original_smiles>  (88) 
[H]c1c([H])c([H])c2c(c1[H])C([H])([H])C([H])([H])C([H])([H])C2([H])N([H])C(=O)C1([H])N(C(=O)C([H])(N([H])C(=O)C([H])(N([H])C([H])([H])[H])C([H])([H])[H])C(C([H])([H])[H])(C([H])([H])[H])C([H])([H])[H])C([H])([H])c2c([H])c(OC([H])([H])C3([H])C([H])([H])C4([H])C([H])(C([H])([H])C(=O)N5C([H])([H])C([H])([H])C([H])([H])C([H])(n6nc(-c7c([H])c([H])c(Oc8c([H])c([H])c(F)c([H])c8F)c([H])c7[H])c(C(=O)N([H])[H])c6N([H])[H])C5([H])[H])C([H])([H])C([H])([H])C34[H])c([H])c([H])c2C1([H])[H]

>  <smiles>  (88) 
[H]c1c([H])c([H])c2c(c1[H])C([H])([H])C([H])([H])C([H])([H])C2([H])N([H])C(=O)C1([H])N(C(=O)C([H])(N([H])C(=O)C([H])(N([H])C([H])([H])[H])C([H])([H])[H])C(C([H])([H])[H])(C([H])([H])[H])C([H])([H])[H])C([H])([H])c2c([H])c(OC([H])([H])C3([H])C([H])([H])C4([H])C([H])(C([H])([H])C(=O)N5C([H])([H])C([H])([H])C([H])([H])C([H])(n6nc(-c7c([H])c([H])c(Oc8c([H])c([H])c(F)c([H])c8F)c([H])c7[H])c(C(=O)N([H])[H])c6N([H])[H])C5([H])[H])C([H])([H])C([H])([H])C34[H])c([H])c([H])c2C1([H])[H]

$$$$
89:0:0
     RDKit          3D

 93102  0  0  1  0  0  0  0  0999 V2000
  -30.2030  -21.5190   20.4280 N   0  0  0  0  0  4  0  0  0  0  0  0
  -30.9180  -21.8870   21.0380 H   0  0  0  0  0  0  0  0  0  0  0  0
  -30.6070  -21.4960   19.5030 H   0  0  0  0  0  0  0  0  0  0  0  0
  -29.0620  -22.5110   20.3510 C   0  0  0  0  0  2  0  0  0  0  0  0
  -29.4490  -24.0490   20.1660 C   0  0  0  0  0  2  0  0  0  0  0  0
  -28.2270  -25.0120   19.9120 C   0  0  0  0  0  2  0  0  0  0  0  0
  -28.4100  -26.4740   19.8570 O   0  0  0  0  0  0  0  0  0  0  0  0
  -24.4520  -31.6410   22.9420 C   0  0  0  0  0  0  0  0  0  0  0  0
  -27.2420  -27.2490   19.8250 C   0  0  0  0  0  0  0  0  0  0  0  0
  -23.2850  -30.1630   21.3440 C   0  0  0  0  0  3  0  0  0  0  0  0
  -24.7830  -28.7010   19.8830 C   0  0  0  0  0  0  0  0  0  0  0  0
  -25.7910  -30.6380   21.0830 C   0  0  0  0  0  2  0  0  0  0  0  0
  -25.9360  -29.2640   20.4400 C   0  0  0  0  0  0  0  0  0  0  0  0
  -27.1690  -28.5490   20.4010 C   0  0  0  0  0  3  0  0  0  0  0  0
  -26.0570  -26.7370   19.2390 C   0  0  0  0  0  3  0  0  0  0  0  0
  -24.8440  -27.4400   19.2750 C   0  0  0  0  0  3  0  0  0  0  0  0
  -23.4980  -29.4950   19.9600 C   0  0  0  0  0  2  0  0  0  0  0  0
  -24.5290  -30.8310   21.8460 N   0  0  0  0  0  0  0  0  0  0  0  0
  -23.3730  -31.8570   23.5080 O   0  0  0  0  0  0  0  0  0  0  0  0
  -22.7180  -29.1120   22.3270 C   0  0  0  0  0  0  0  0  0  0  0  0
  -21.4080  -28.8370   22.2200 N   0  0  0  0  0  0  0  0  0  0  0  0
  -23.4500  -28.5540   23.1480 O   0  0  0  0  0  0  0  0  0  0  0  0
  -20.8750  -29.3420   21.5260 H   0  0  0  0  0  0  0  0  0  0  0  0
  -18.1440  -27.3740   22.7460 C   0  0  0  0  0  0  0  0  0  0  0  0
  -20.6680  -27.8560   23.0160 C   0  0  0  0  0  3  0  0  0  0  0  0
  -20.8920  -26.4230   22.4810 C   0  0  0  0  0  2  0  0  0  0  0  0
  -19.8260  -25.9800   21.4740 C   0  0  0  0  0  2  0  0  0  0  0  0
  -18.4350  -26.0260   22.1120 C   0  0  0  0  0  2  0  0  0  0  0  0
  -19.1900  -28.2410   23.1570 C   0  0  0  0  0  0  0  0  0  0  0  0
  -18.8600  -29.4970   23.7120 C   0  0  0  0  0  3  0  0  0  0  0  0
  -17.5160  -29.8880   23.8610 C   0  0  0  0  0  3  0  0  0  0  0  0
  -16.4830  -29.0200   23.4670 C   0  0  0  0  0  3  0  0  0  0  0  0
  -16.7990  -27.7650   22.9150 C   0  0  0  0  0  3  0  0  0  0  0  0
  -25.7160  -32.3520   23.5210 C   0  0  0  0  0  3  0  0  0  0  0  0
  -25.3270  -33.7200   23.8880 N   0  0  0  0  0  0  0  0  0  0  0  0
  -25.6070  -34.8110   23.1630 C   0  0  0  0  0  0  0  0  0  0  0  0
  -26.2940  -34.7740   22.1390 O   0  0  0  0  0  0  0  0  0  0  0  0
  -24.7180  -33.8170   24.6880 H   0  0  0  0  0  0  0  0  0  0  0  0
  -23.8020  -36.5250   22.8160 C   0  0  0  0  0  1  0  0  0  0  0  0
  -25.0370  -36.1570   23.6520 C   0  0  0  0  0  3  0  0  0  0  0  0
  -27.1000  -37.1140   24.5830 C   0  0  0  0  0  1  0  0  0  0  0  0
  -26.0200  -37.2620   23.6100 N   0  0  0  0  0  0  0  0  0  0  0  0
  -25.5660  -38.1560   23.7740 H   0  0  0  0  0  0  0  0  0  0  0  0
  -26.3320  -31.6010   24.7650 C   0  0  1  0  0  0  0  0  0  0  0  0
  -25.3020  -31.2730   25.8710 C   0  0  0  0  0  1  0  0  0  0  0  0
  -26.9890  -30.2730   24.3240 C   0  0  0  0  0  1  0  0  0  0  0  0
  -27.4550  -32.4600   25.3910 C   0  0  0  0  0  1  0  0  0  0  0  0
  -29.9340  -20.0660   20.8160 C   0  0  0  0  0  3  0  0  0  0  0  0
  -32.4740  -19.2190   20.0600 C   0  0  0  0  0  2  0  0  0  0  0  0
  -32.5500  -17.6950   20.3280 C   0  0  0  0  0  2  0  0  0  0  0  0
  -30.2010  -16.7890   19.4230 C   0  0  0  0  0  2  0  0  0  0  0  0
  -30.3640  -16.0950   20.7270 C   0  0  0  0  0  3  0  0  0  0  0  0
  -30.9210  -19.0390   20.1070 C   0  0  0  0  0  3  0  0  0  0  0  0
  -31.0640  -17.5070   20.4480 C   0  0  1  0  0  0  0  0  0  0  0  0
  -31.0940  -14.7360   20.5170 C   0  0  0  0  0  0  0  0  0  0  0  0
  -30.7480  -12.6810   19.1940 C   0  0  0  0  0  2  0  0  0  0  0  0
  -29.8410  -13.0330   17.9970 C   0  0  0  0  0  2  0  0  0  0  0  0
  -28.3530  -12.9000   18.3750 C   0  0  0  0  0  2  0  0  0  0  0  0
  -28.0110  -13.6020   19.7160 C   0  0  0  0  0  3  0  0  0  0  0  0
  -29.0430  -13.2790   20.8150 C   0  0  0  0  0  2  0  0  0  0  0  0
  -30.3820  -13.5870   20.3020 N   0  0  0  0  0  0  0  0  0  0  0  0
  -32.3040  -14.7520   20.2800 O   0  0  0  0  0  0  0  0  0  0  0  0
  -25.5850  -14.1750   20.3450 C   0  0  0  0  0  0  0  0  0  0  0  0
  -24.5120  -13.3920   20.6740 C   0  0  0  0  0  0  0  0  0  0  0  0
  -24.9890  -12.0450   20.6650 C   0  0  0  0  0  0  0  0  0  0  0  0
  -26.6480  -13.3080   20.1530 N   0  0  0  0  0  0  0  0  0  0  0  0
  -26.2920  -12.0230   20.4090 N   0  0  0  0  0  0  0  0  0  0  0  0
  -24.2700  -10.7730   20.8190 C   0  0  0  0  0  0  0  0  0  0  0  0
  -24.6160   -9.8480   21.8310 C   0  0  0  0  0  3  0  0  0  0  0  0
  -23.8930   -8.6430   21.9760 C   0  0  0  0  0  3  0  0  0  0  0  0
  -22.8130   -8.3560   21.1060 C   0  0  0  0  0  0  0  0  0  0  0  0
  -22.4890   -9.2680   20.0830 C   0  0  0  0  0  3  0  0  0  0  0  0
  -23.2150  -10.4630   19.9380 C   0  0  0  0  0  3  0  0  0  0  0  0
  -22.0690   -7.2000   21.1550 O   0  0  0  0  0  0  0  0  0  0  0  0
  -21.8560   -6.5290   22.3330 C   0  0  0  0  0  0  0  0  0  0  0  0
  -21.2550   -7.1540   23.4480 C   0  0  0  0  0  3  0  0  0  0  0  0
  -20.9910   -6.4090   24.6150 C   0  0  0  0  0  3  0  0  0  0  0  0
  -21.3160   -5.0410   24.6680 C   0  0  0  0  0  0  0  0  0  0  0  0
  -21.9050   -4.4140   23.5560 C   0  0  0  0  0  3  0  0  0  0  0  0
  -22.1720   -5.1570   22.3910 C   0  0  0  0  0  0  0  0  0  0  0  0
  -22.7200   -4.5440   21.3160 F   0  0  0  0  0  0  0  0  0  0  0  0
  -21.0560   -4.3230   25.7860 F   0  0  0  0  0  0  0  0  0  0  0  0
  -23.0980  -13.8530   20.8870 C   0  0  0  0  0  0  0  0  0  0  0  0
  -22.3570  -13.1820   21.7610 N   0  0  0  0  0  0  0  0  0  0  0  0
  -22.6580  -14.8460   20.3080 O   0  0  0  0  0  0  0  0  0  0  0  0
  -22.7270  -12.3810   22.2530 H   0  0  0  0  0  0  0  0  0  0  0  0
  -21.4040  -13.4680   21.9360 H   0  0  0  0  0  0  0  0  0  0  0  0
  -25.7400  -15.5480   20.1690 N   0  0  0  0  0  0  0  0  0  0  0  0
  -24.9650  -16.1960   20.2590 H   0  0  0  0  0  0  0  0  0  0  0  0
  -26.5960  -15.9940   19.8680 H   0  0  0  0  0  0  0  0  0  0  0  0
  -29.7580  -19.8410   22.3360 C   0  0  0  0  0  2  0  0  0  0  0  0
  -31.2350  -19.0080   24.2320 C   0  0  0  0  0  1  0  0  0  0  0  0
  -30.9670  -20.1510   23.2390 C   0  0  0  0  0  2  0  0  0  0  0  0
  1 48  1  0
  1  2  1  0
  3  1  1  0
  4  1  1  0
  5  4  1  0
  6  5  1  0
  7  6  1  0
  8 19  2  0
  9  7  1  0
  9 14  1  0
 10 18  1  0
 10 20  1  0
 11 17  1  0
 11 13  1  0
 12 18  1  0
 13 12  1  0
 14 13  2  0
 15 16  1  0
 15  9  2  0
 16 11  2  0
 17 10  1  0
 18  8  1  0
 20 22  2  0
 21 20  1  0
 23 21  1  0
 24 33  2  0
 24 29  1  0
 25 21  1  0
 25 29  1  0
 26 25  1  0
 27 28  1  0
 27 26  1  0
 28 24  1  0
 29 30  2  0
 30 31  1  0
 32 31  2  0
 33 32  1  0
 34  8  1  0
 34 35  1  0
 34 44  1  0
 35 38  1  0
 36 40  1  0
 36 35  1  0
 37 36  2  0
 40 39  1  0
 42 40  1  0
 42 43  1  0
 42 41  1  0
 44 47  1  1
 44 45  1  0
 46 44  1  0
 48 91  1  0
 49 53  1  0
 49 50  1  0
 54 50  1  6
 51 52  1  0
 52 55  1  0
 53 54  1  0
 53 48  1  0
 54 51  1  0
 54 52  1  0
 56 61  1  0
 57 58  1  0
 57 56  1  0
 59 58  1  0
 59 66  1  0
 59 60  1  0
 61 55  1  0
 61 60  1  0
 62 55  2  0
 63 64  2  0
 64 83  1  0
 65 64  1  0
 65 68  1  0
 66 63  1  0
 66 67  1  0
 67 65  2  0
 68 69  1  0
 69 70  2  0
 71 74  1  0
 71 70  1  0
 72 71  2  0
 73 72  1  0
 73 68  2  0
 74 75  1  0
 75 80  2  0
 75 76  1  0
 76 77  2  0
 77 78  1  0
 78 82  1  0
 79 78  2  0
 80 79  1  0
 81 80  1  0
 83 84  1  0
 84 87  1  0
 84 86  1  0
 85 83  2  0
 88 89  1  0
 88 63  1  0
 90 88  1  0
 91 93  1  0
 93 92  1  0
M  ISO  4   6 101   7 101  52 100  55 100
M  END
>  <TORSDO>  (89) 
F 23

>  <SCORE>  (89) 
-10.519

>  <name>  (89) 
89

>  <ligand_id>  (89) 
89

>  <original_smiles>  (89) 
[H]c1c([H])c([H])c2c(c1[H])C([H])([H])C([H])([H])C([H])([H])C2([H])N([H])C(=O)C1([H])N(C(=O)C([H])(N([H])C(=O)C([H])(N([H])C([H])([H])[H])C([H])([H])[H])C(C([H])([H])[H])(C([H])([H])[H])C([H])([H])[H])C([H])([H])c2c([H])c(OC([H])([H])C([H])([H])C([H])([H])[N+]([H])([H])C([H])(C([H])([H])C([H])([H])C([H])([H])[H])C3([H])C([H])([H])C([H])([H])C34C([H])([H])C4([H])C(=O)N3C([H])([H])C([H])([H])C([H])([H])C([H])(n4nc(-c5c([H])c([H])c(Oc6c([H])c([H])c(F)c([H])c6F)c([H])c5[H])c(C(=O)N([H])[H])c4N([H])[H])C3([H])[H])c([H])c([H])c2C1([H])[H]

>  <smiles>  (89) 
[H]c1c([H])c([H])c2c(c1[H])C([H])([H])C([H])([H])C([H])([H])C2([H])N([H])C(=O)C1([H])N(C(=O)C([H])(N([H])C(=O)C([H])(N([H])C([H])([H])[H])C([H])([H])[H])C(C([H])([H])[H])(C([H])([H])[H])C([H])([H])[H])C([H])([H])c2c([H])c(OC([H])([H])C([H])([H])C([H])([H])[N+]([H])([H])C([H])(C([H])([H])C([H])([H])C([H])([H])[H])C3([H])C([H])([H])C([H])([H])C34C([H])([H])C4([H])C(=O)N3C([H])([H])C([H])([H])C([H])([H])C([H])(n4nc(-c5c([H])c([H])c(Oc6c([H])c([H])c(F)c([H])c6F)c([H])c5[H])c(C(=O)N([H])[H])c4N([H])[H])C3([H])[H])c([H])c([H])c2C1([H])[H]

$$$$
90:0:0
     RDKit          3D

 89 98  0  0  1  0  0  0  0  0999 V2000
  -31.7690  -19.5610   21.0280 C   0  0  0  0  0  2  0  0  0  0  0  0
  -30.2980  -21.2760   22.3760 C   0  0  0  0  0  2  0  0  0  0  0  0
  -31.3420  -18.3060   20.2200 C   0  0  0  0  0  2  0  0  0  0  0  0
  -28.8850  -21.8660   22.1700 C   0  0  0  0  0  2  0  0  0  0  0  0
  -28.9490  -19.0750   20.4160 C   0  0  0  0  0  2  0  0  0  0  0  0
  -30.7920  -20.7780   21.0030 C   0  0  0  0  0  3  0  0  0  0  0  0
  -29.5050  -20.6150   20.1950 C   0  0  0  0  0  3  0  0  0  0  0  0
  -29.9710  -17.8120   20.6950 C   0  0  0  0  0  3  0  0  0  0  0  0
  -28.6540  -21.9550   20.6540 C   0  0  0  0  0  3  0  0  0  0  0  0
  -29.5600  -16.2470   20.3230 C   0  0  0  0  0  2  0  0  0  0  0  0
  -30.4960  -14.8950   20.3310 C   0  0  0  0  0  0  0  0  0  0  0  0
  -30.4090  -12.5680   19.3830 C   0  0  0  0  0  2  0  0  0  0  0  0
  -29.4830  -12.6090   18.1440 C   0  0  0  0  0  2  0  0  0  0  0  0
  -28.0020  -12.4320   18.5440 C   0  0  0  0  0  2  0  0  0  0  0  0
  -27.6060  -13.3170   19.7550 C   0  0  0  0  0  3  0  0  0  0  0  0
  -28.6500  -13.2400   20.8860 C   0  0  0  0  0  2  0  0  0  0  0  0
  -29.9470  -13.6240   20.3190 N   0  0  0  0  0  0  0  0  0  0  0  0
  -31.7020  -14.9980   20.0890 O   0  0  0  0  0  0  0  0  0  0  0  0
  -25.2140  -13.9100   20.4580 C   0  0  0  0  0  0  0  0  0  0  0  0
  -24.1440  -13.1400   20.8180 C   0  0  0  0  0  0  0  0  0  0  0  0
  -24.6050  -11.7870   20.8020 C   0  0  0  0  0  0  0  0  0  0  0  0
  -26.2590  -13.0270   20.2360 N   0  0  0  0  0  0  0  0  0  0  0  0
  -25.9010  -11.7460   20.5080 N   0  0  0  0  0  0  0  0  0  0  0  0
  -23.8750  -10.5270   20.9950 C   0  0  0  0  0  0  0  0  0  0  0  0
  -24.2960   -9.5670   21.9420 C   0  0  0  0  0  3  0  0  0  0  0  0
  -23.5680   -8.3710   22.1220 C   0  0  0  0  0  3  0  0  0  0  0  0
  -22.4050   -8.1270   21.3540 C   0  0  0  0  0  0  0  0  0  0  0  0
  -22.0020   -9.0760   20.3990 C   0  0  0  0  0  3  0  0  0  0  0  0
  -22.7300  -10.2640   20.2170 C   0  0  0  0  0  3  0  0  0  0  0  0
  -21.6490   -6.9830   21.4430 O   0  0  0  0  0  0  0  0  0  0  0  0
  -21.5830   -6.2500   22.6000 C   0  0  0  0  0  0  0  0  0  0  0  0
  -21.1320   -6.8150   23.8120 C   0  0  0  0  0  3  0  0  0  0  0  0
  -21.0140   -6.0100   24.9630 C   0  0  0  0  0  3  0  0  0  0  0  0
  -21.3340   -4.6400   24.9010 C   0  0  0  0  0  0  0  0  0  0  0  0
  -21.7760   -4.0750   23.6930 C   0  0  0  0  0  3  0  0  0  0  0  0
  -21.8960   -4.8770   22.5450 C   0  0  0  0  0  0  0  0  0  0  0  0
  -22.3030   -4.3230   21.3770 F   0  0  0  0  0  0  0  0  0  0  0  0
  -21.2120   -3.8650   26.0030 F   0  0  0  0  0  0  0  0  0  0  0  0
  -22.7430  -13.6190   21.0720 C   0  0  0  0  0  0  0  0  0  0  0  0
  -22.0040  -12.9260   21.9300 N   0  0  0  0  0  0  0  0  0  0  0  0
  -22.3130  -14.6430   20.5410 O   0  0  0  0  0  0  0  0  0  0  0  0
  -22.3660  -12.0990   22.3820 H   0  0  0  0  0  0  0  0  0  0  0  0
  -21.0630  -13.2280   22.1380 H   0  0  0  0  0  0  0  0  0  0  0  0
  -25.3830  -15.2790   20.2720 N   0  0  0  0  0  0  0  0  0  0  0  0
  -24.6260  -15.9440   20.3770 H   0  0  0  0  0  0  0  0  0  0  0  0
  -26.2430  -15.7090   19.9570 H   0  0  0  0  0  0  0  0  0  0  0  0
  -28.9940  -23.5120   20.1640 C   0  0  0  0  0  3  0  0  0  0  0  0
  -27.9940  -24.8010   20.4690 C   0  0  0  0  0  3  0  0  0  0  0  0
  -28.2830  -26.2930   20.2200 O   0  0  0  0  0  0  0  0  0  0  0  0
  -24.6330  -31.9190   23.2250 C   0  0  0  0  0  0  0  0  0  0  0  0
  -27.2140  -27.2440   20.1900 C   0  0  0  0  0  0  0  0  0  0  0  0
  -23.4320  -30.5180   21.5910 C   0  0  0  0  0  3  0  0  0  0  0  0
  -24.8790  -28.9500   20.1690 C   0  0  0  0  0  0  0  0  0  0  0  0
  -25.9820  -30.7990   21.4200 C   0  0  0  0  0  2  0  0  0  0  0  0
  -26.0570  -29.4090   20.7730 C   0  0  0  0  0  0  0  0  0  0  0  0
  -27.2280  -28.5700   20.7700 C   0  0  0  0  0  3  0  0  0  0  0  0
  -26.0140  -26.8830   19.5400 C   0  0  0  0  0  3  0  0  0  0  0  0
  -24.8670  -27.7010   19.5400 C   0  0  0  0  0  3  0  0  0  0  0  0
  -23.6520  -29.8410   20.2130 C   0  0  0  0  0  2  0  0  0  0  0  0
  -24.7020  -31.0990   22.1330 N   0  0  0  0  0  0  0  0  0  0  0  0
  -23.5490  -32.2040   23.7550 O   0  0  0  0  0  0  0  0  0  0  0  0
  -22.7610  -29.5090   22.5570 C   0  0  0  0  0  0  0  0  0  0  0  0
  -21.4330  -29.3360   22.4350 N   0  0  0  0  0  0  0  0  0  0  0  0
  -23.4360  -28.8860   23.3810 O   0  0  0  0  0  0  0  0  0  0  0  0
  -20.9460  -29.8890   21.7440 H   0  0  0  0  0  0  0  0  0  0  0  0
  -18.0520  -28.1460   22.9570 C   0  0  0  0  0  0  0  0  0  0  0  0
  -20.6120  -28.4020   23.2100 C   0  0  0  0  0  3  0  0  0  0  0  0
  -20.7090  -26.9700   22.6360 C   0  0  0  0  0  2  0  0  0  0  0  0
  -19.6000  -26.6480   21.6290 C   0  0  0  0  0  2  0  0  0  0  0  0
  -18.2220  -26.7960   22.2800 C   0  0  0  0  0  2  0  0  0  0  0  0
  -19.1750  -28.9070   23.3790 C   0  0  0  0  0  0  0  0  0  0  0  0
  -18.9610  -30.1690   23.9750 C   0  0  0  0  0  3  0  0  0  0  0  0
  -17.6570  -30.6720   24.1490 C   0  0  0  0  0  3  0  0  0  0  0  0
  -16.5490  -29.9100   23.7410 C   0  0  0  0  0  3  0  0  0  0  0  0
  -16.7480  -28.6470   23.1520 C   0  0  0  0  0  3  0  0  0  0  0  0
  -25.9160  -32.5560   23.8450 C   0  0  0  0  0  3  0  0  0  0  0  0
  -26.4340  -31.7860   25.1230 C   0  0  1  0  0  0  0  0  0  0  0  0
  -25.3420  -31.5520   26.1910 C   0  0  0  0  0  1  0  0  0  0  0  0
  -27.0170  -30.4060   24.7370 C   0  0  0  0  0  1  0  0  0  0  0  0
  -27.5840  -32.5820   25.7830 C   0  0  0  0  0  1  0  0  0  0  0  0
  -25.6030  -33.9540   24.1780 N   0  0  0  0  0  0  0  0  0  0  0  0
  -25.9200  -35.0100   23.4160 C   0  0  0  0  0  0  0  0  0  0  0  0
  -26.5770  -34.9100   22.3770 O   0  0  0  0  0  0  0  0  0  0  0  0
  -25.0200  -34.1050   24.9880 H   0  0  0  0  0  0  0  0  0  0  0  0
  -24.1840  -36.8000   23.0870 C   0  0  0  0  0  1  0  0  0  0  0  0
  -25.4360  -36.3970   23.8820 C   0  0  0  0  0  3  0  0  0  0  0  0
  -27.5780  -37.2900   24.6880 C   0  0  0  0  0  1  0  0  0  0  0  0
  -26.4630  -37.4540   23.7570 N   0  0  0  0  0  0  0  0  0  0  0  0
  -26.0550  -38.3730   23.9070 H   0  0  0  0  0  0  0  0  0  0  0  0
  3  8  1  0
  3  1  1  0
  4  2  1  0
  5  8  1  0
  6  1  1  0
  6  2  1  0
  7  5  1  0
  7  9  1  0
  7  6  1  0
  8 10  1  0
  9 47  1  0
  9  4  1  0
 10 11  1  0
 12 17  1  0
 13 14  1  0
 13 12  1  0
 15 14  1  0
 15 22  1  0
 15 16  1  0
 17 11  1  0
 17 16  1  0
 18 11  2  0
 19 20  2  0
 20 39  1  0
 21 20  1  0
 21 24  1  0
 22 19  1  0
 22 23  1  0
 23 21  2  0
 24 25  1  0
 25 26  2  0
 27 30  1  0
 27 26  1  0
 28 27  2  0
 29 28  1  0
 29 24  2  0
 30 31  1  0
 31 32  1  0
 32 33  2  0
 34 33  1  0
 34 38  1  0
 35 34  2  0
 36 31  2  0
 36 35  1  0
 37 36  1  0
 39 40  1  0
 40 43  1  0
 40 42  1  0
 41 39  2  0
 44 45  1  0
 44 19  1  0
 46 44  1  0
 47 48  2  0
 49 48  1  0
 50 61  2  0
 51 49  1  0
 51 56  1  0
 52 60  1  0
 52 62  1  0
 53 59  1  0
 53 55  1  0
 54 60  1  0
 55 54  1  0
 56 55  2  0
 57 58  1  0
 57 51  2  0
 58 53  2  0
 59 52  1  0
 60 50  1  0
 62 64  2  0
 63 62  1  0
 65 63  1  0
 66 75  2  0
 66 71  1  0
 67 63  1  0
 67 71  1  0
 68 67  1  0
 69 70  1  0
 69 68  1  0
 70 66  1  0
 71 72  2  0
 72 73  1  0
 74 73  2  0
 75 74  1  0
 76 50  1  0
 76 81  1  0
 76 77  1  0
 77 80  1  1
 77 78  1  0
 79 77  1  0
 81 84  1  0
 82 86  1  0
 82 81  1  0
 83 82  2  0
 86 85  1  0
 88 86  1  0
 88 89  1  0
 88 87  1  0
M  ISO  4  10 100  11 100  48 101  49 101
M  END
>  <TORSDO>  (90) 
F 19

>  <SCORE>  (90) 
-14.464

>  <name>  (90) 
90

>  <ligand_id>  (90) 
90

>  <original_smiles>  (90) 
[H]c1c([H])c([H])c2c(c1[H])C([H])([H])C([H])([H])C([H])([H])C2([H])N([H])C(=O)C1([H])N(C(=O)C([H])(N([H])C(=O)C([H])(N([H])C([H])([H])[H])C([H])([H])[H])C(C([H])([H])[H])(C([H])([H])[H])C([H])([H])[H])C([H])([H])c2c([H])c(OC([H])([H])C([H])([H])C3([H])C([H])([H])C([H])([H])C4([H])C([H])([H])C([H])([H])C([H])(C([H])([H])C(=O)N5C([H])([H])C([H])([H])C([H])([H])C([H])(n6nc(-c7c([H])c([H])c(Oc8c([H])c([H])c(F)c([H])c8F)c([H])c7[H])c(C(=O)N([H])[H])c6N([H])[H])C5([H])[H])C([H])([H])C34[H])c([H])c([H])c2C1([H])[H]

>  <smiles>  (90) 
[H]c1c([H])c([H])c2c(c1[H])C([H])([H])C([H])([H])C([H])([H])C2([H])N([H])C(=O)C1([H])N(C(=O)C([H])(N([H])C(=O)C([H])(N([H])C([H])([H])[H])C([H])([H])[H])C(C([H])([H])[H])(C([H])([H])[H])C([H])([H])[H])C([H])([H])c2c([H])c(OC([H])([H])C([H])([H])C3([H])C([H])([H])C([H])([H])C4([H])C([H])([H])C([H])([H])C([H])(C([H])([H])C(=O)N5C([H])([H])C([H])([H])C([H])([H])C([H])(n6nc(-c7c([H])c([H])c(Oc8c([H])c([H])c(F)c([H])c8F)c([H])c7[H])c(C(=O)N([H])[H])c6N([H])[H])C5([H])[H])C([H])([H])C34[H])c([H])c([H])c2C1([H])[H]

$$$$
91:0:0
     RDKit          3D

 87 95  0  0  1  0  0  0  0  0999 V2000
  -28.1340  -20.1860   20.2690 C   0  0  0  0  0  3  0  0  0  0  0  0
  -30.2820  -20.9440   20.4580 C   0  0  0  0  0  3  0  0  0  0  0  0
  -27.6820  -21.6030   20.2200 C   0  0  0  0  0  3  0  0  0  0  0  0
  -29.8380  -22.3610   20.4070 C   0  0  0  0  0  3  0  0  0  0  0  0
  -29.4990  -19.6970   20.3790 C   0  0  0  0  0  0  0  0  0  0  0  0
  -28.4770  -22.8320   20.2750 C   0  0  0  0  0  0  0  0  0  0  0  0
  -29.7230  -16.7190   20.4100 C   0  0  0  0  0  3  0  0  0  0  0  0
  -30.1600  -18.1250   20.3740 C   0  0  0  0  0  0  0  0  0  0  0  0
  -31.6700  -18.3390   20.2870 C   0  0  0  0  0  1  0  0  0  0  0  0
  -30.5010  -15.2910   20.3160 C   0  0  0  0  0  0  0  0  0  0  0  0
  -30.4270  -12.8500   19.4710 C   0  0  0  0  0  2  0  0  0  0  0  0
  -29.5280  -12.6910   18.2230 C   0  0  0  0  0  2  0  0  0  0  0  0
  -28.0690  -12.4320   18.6370 C   0  0  0  0  0  2  0  0  0  0  0  0
  -27.6130  -13.3860   19.7710 C   0  0  0  0  0  3  0  0  0  0  0  0
  -28.6490  -13.5290   20.9040 C   0  0  0  0  0  2  0  0  0  0  0  0
  -29.9030  -14.0020   20.2950 N   0  0  0  0  0  0  0  0  0  0  0  0
  -31.7140  -15.2080   20.0860 O   0  0  0  0  0  0  0  0  0  0  0  0
  -25.2360  -13.9210   20.5230 C   0  0  0  0  0  0  0  0  0  0  0  0
  -24.1780  -13.1350   20.8860 C   0  0  0  0  0  0  0  0  0  0  0  0
  -24.6550  -11.7890   20.8520 C   0  0  0  0  0  0  0  0  0  0  0  0
  -26.2850  -13.0560   20.2750 N   0  0  0  0  0  0  0  0  0  0  0  0
  -25.9480  -11.7660   20.5420 N   0  0  0  0  0  0  0  0  0  0  0  0
  -23.9350  -10.5210   21.0360 C   0  0  0  0  0  0  0  0  0  0  0  0
  -24.3590   -9.5560   21.9760 C   0  0  0  0  0  3  0  0  0  0  0  0
  -23.6370   -8.3570   22.1500 C   0  0  0  0  0  3  0  0  0  0  0  0
  -22.4720   -8.1110   21.3840 C   0  0  0  0  0  0  0  0  0  0  0  0
  -22.0660   -9.0630   20.4320 C   0  0  0  0  0  3  0  0  0  0  0  0
  -22.7900  -10.2550   20.2580 C   0  0  0  0  0  3  0  0  0  0  0  0
  -21.7220   -6.9630   21.4660 O   0  0  0  0  0  0  0  0  0  0  0  0
  -21.6500   -6.2310   22.6230 C   0  0  0  0  0  0  0  0  0  0  0  0
  -21.1630   -6.7870   23.8270 C   0  0  0  0  0  3  0  0  0  0  0  0
  -21.0410   -5.9790   24.9750 C   0  0  0  0  0  3  0  0  0  0  0  0
  -21.3940   -4.6180   24.9210 C   0  0  0  0  0  0  0  0  0  0  0  0
  -21.8730   -4.0610   23.7220 C   0  0  0  0  0  3  0  0  0  0  0  0
  -21.9980   -4.8660   22.5760 C   0  0  0  0  0  0  0  0  0  0  0  0
  -22.4400   -4.3200   21.4160 F   0  0  0  0  0  0  0  0  0  0  0  0
  -21.2690   -3.8390   26.0210 F   0  0  0  0  0  0  0  0  0  0  0  0
  -22.7770  -13.6030   21.1490 C   0  0  0  0  0  0  0  0  0  0  0  0
  -22.0520  -12.9070   22.0180 N   0  0  0  0  0  0  0  0  0  0  0  0
  -22.3350  -14.6220   20.6200 O   0  0  0  0  0  0  0  0  0  0  0  0
  -22.4220  -12.0840   22.4700 H   0  0  0  0  0  0  0  0  0  0  0  0
  -21.1110  -13.2060   22.2360 H   0  0  0  0  0  0  0  0  0  0  0  0
  -25.3870  -15.2930   20.3530 N   0  0  0  0  0  0  0  0  0  0  0  0
  -24.6120  -15.9370   20.4670 H   0  0  0  0  0  0  0  0  0  0  0  0
  -26.2300  -15.7470   20.0270 H   0  0  0  0  0  0  0  0  0  0  0  0
  -27.7890  -24.4120   20.0510 C   0  0  0  0  0  2  0  0  0  0  0  0
  -28.1780  -25.9590   20.3520 O   0  0  0  0  0  0  0  0  0  0  0  0
  -24.6560  -31.9030   23.3050 C   0  0  0  0  0  0  0  0  0  0  0  0
  -27.1960  -27.0680   20.2670 C   0  0  0  0  0  0  0  0  0  0  0  0
  -23.4580  -30.5220   21.6590 C   0  0  0  0  0  3  0  0  0  0  0  0
  -24.9040  -28.9350   20.2240 C   0  0  0  0  0  0  0  0  0  0  0  0
  -26.0240  -30.7370   21.5150 C   0  0  0  0  0  2  0  0  0  0  0  0
  -26.0910  -29.3350   20.8510 C   0  0  0  0  0  0  0  0  0  0  0  0
  -27.2320  -28.4200   20.8540 C   0  0  0  0  0  3  0  0  0  0  0  0
  -25.9850  -26.8200   19.5810 C   0  0  0  0  0  3  0  0  0  0  0  0
  -24.8740  -27.6960   19.5680 C   0  0  0  0  0  3  0  0  0  0  0  0
  -23.6870  -29.8530   20.2760 C   0  0  0  0  0  2  0  0  0  0  0  0
  -24.7340  -31.0790   22.2130 N   0  0  0  0  0  0  0  0  0  0  0  0
  -23.5680  -32.1930   23.8280 O   0  0  0  0  0  0  0  0  0  0  0  0
  -22.7650  -29.5170   22.6170 C   0  0  0  0  0  0  0  0  0  0  0  0
  -21.4360  -29.3450   22.4820 N   0  0  0  0  0  0  0  0  0  0  0  0
  -23.4280  -28.8960   23.4510 O   0  0  0  0  0  0  0  0  0  0  0  0
  -20.9550  -29.8960   21.7850 H   0  0  0  0  0  0  0  0  0  0  0  0
  -18.0560  -28.1170   22.9590 C   0  0  0  0  0  0  0  0  0  0  0  0
  -20.6110  -28.4060   23.2490 C   0  0  0  0  0  3  0  0  0  0  0  0
  -20.7300  -26.9710   22.6830 C   0  0  0  0  0  2  0  0  0  0  0  0
  -19.6420  -26.6350   21.6590 C   0  0  0  0  0  2  0  0  0  0  0  0
  -18.2520  -26.7680   22.2870 C   0  0  0  0  0  2  0  0  0  0  0  0
  -19.1640  -28.8920   23.3960 C   0  0  0  0  0  0  0  0  0  0  0  0
  -18.9250  -30.1520   23.9880 C   0  0  0  0  0  3  0  0  0  0  0  0
  -17.6130  -30.6380   24.1450 C   0  0  0  0  0  3  0  0  0  0  0  0
  -16.5210  -29.8630   23.7210 C   0  0  0  0  0  3  0  0  0  0  0  0
  -16.7430  -28.6040   23.1340 C   0  0  0  0  0  3  0  0  0  0  0  0
  -25.9300  -32.5380   23.9400 C   0  0  0  0  0  3  0  0  0  0  0  0
  -25.6240  -33.9450   24.2540 N   0  0  0  0  0  0  0  0  0  0  0  0
  -25.9460  -34.9910   23.4830 C   0  0  0  0  0  0  0  0  0  0  0  0
  -26.5950  -34.8750   22.4390 O   0  0  0  0  0  0  0  0  0  0  0  0
  -25.0410  -34.1070   25.0630 H   0  0  0  0  0  0  0  0  0  0  0  0
  -24.2080  -36.7870   23.1660 C   0  0  0  0  0  1  0  0  0  0  0  0
  -25.4760  -36.3890   23.9370 C   0  0  0  0  0  3  0  0  0  0  0  0
  -27.6370  -37.2900   24.6840 C   0  0  0  0  0  1  0  0  0  0  0  0
  -26.5050  -37.4390   23.7720 N   0  0  0  0  0  0  0  0  0  0  0  0
  -26.1040  -38.3620   23.9130 H   0  0  0  0  0  0  0  0  0  0  0  0
  -26.4170  -31.7810   25.2380 C   0  0  1  0  0  0  0  0  0  0  0  0
  -25.3050  -31.5750   26.2940 C   0  0  0  0  0  1  0  0  0  0  0  0
  -26.9880  -30.3890   24.8860 C   0  0  0  0  0  1  0  0  0  0  0  0
  -27.5680  -32.5720   25.9030 C   0  0  0  0  0  1  0  0  0  0  0  0
  1  5  1  0
  3  1  2  0
  3  6  1  0
  4  2  1  0
  5  2  2  0
  6  4  2  0
  8  5  1  0
  8  7  2  0
  9  8  1  0
 10  7  1  0
 11 16  1  0
 12 13  1  0
 12 11  1  0
 14 13  1  0
 14 21  1  0
 14 15  1  0
 16 10  1  0
 16 15  1  0
 17 10  2  0
 18 19  2  0
 19 38  1  0
 20 19  1  0
 20 23  1  0
 21 18  1  0
 21 22  1  0
 22 20  2  0
 23 24  1  0
 24 25  2  0
 26 29  1  0
 26 25  1  0
 27 26  2  0
 28 27  1  0
 28 23  2  0
 29 30  1  0
 30 31  1  0
 31 32  2  0
 33 32  1  0
 33 37  1  0
 34 33  2  0
 35 30  2  0
 35 34  1  0
 36 35  1  0
 38 39  1  0
 39 42  1  0
 39 41  1  0
 40 38  2  0
 43 44  1  0
 43 18  1  0
 45 43  1  0
 46  6  1  0
 46 47  1  0
 48 59  2  0
 49 47  1  0
 49 54  1  0
 50 58  1  0
 50 60  1  0
 51 57  1  0
 51 53  1  0
 52 58  1  0
 53 54  2  0
 53 52  1  0
 55 49  2  0
 56 55  1  0
 56 51  2  0
 57 50  1  0
 58 48  1  0
 60 62  2  0
 61 60  1  0
 63 61  1  0
 64 73  2  0
 64 69  1  0
 65 61  1  0
 65 69  1  0
 66 65  1  0
 67 68  1  0
 67 66  1  0
 68 64  1  0
 69 70  2  0
 70 71  1  0
 72 71  2  0
 73 72  1  0
 74 48  1  0
 74 75  1  0
 74 84  1  0
 75 78  1  0
 76 80  1  0
 76 75  1  0
 77 76  2  0
 80 79  1  0
 82 83  1  0
 82 80  1  0
 82 81  1  0
 84 87  1  1
 84 85  1  0
 86 84  1  0
M  ISO  4   7 100  10 100  46 101  47 101
M  END
>  <TORSDO>  (91) 
F 18

>  <SCORE>  (91) 
-15.612

>  <name>  (91) 
91

>  <ligand_id>  (91) 
91

>  <original_smiles>  (91) 
[H]C(C(=O)N1C([H])([H])C([H])([H])C([H])([H])C([H])(n2nc(-c3c([H])c([H])c(Oc4c([H])c([H])c(F)c([H])c4F)c([H])c3[H])c(C(=O)N([H])[H])c2N([H])[H])C1([H])[H])=C(c1c([H])c([H])c(C([H])([H])Oc2c([H])c([H])c3c(c2[H])C([H])([H])N(C(=O)C([H])(N([H])C(=O)C([H])(N([H])C([H])([H])[H])C([H])([H])[H])C(C([H])([H])[H])(C([H])([H])[H])C([H])([H])[H])C([H])(C(=O)N([H])C2([H])c4c([H])c([H])c([H])c([H])c4C([H])([H])C([H])([H])C2([H])[H])C3([H])[H])c([H])c1[H])C([H])([H])[H]

>  <smiles>  (91) 
[H]C(C(=O)N1C([H])([H])C([H])([H])C([H])([H])C([H])(n2nc(-c3c([H])c([H])c(Oc4c([H])c([H])c(F)c([H])c4F)c([H])c3[H])c(C(=O)N([H])[H])c2N([H])[H])C1([H])[H])=C(c1c([H])c([H])c(C([H])([H])Oc2c([H])c([H])c3c(c2[H])C([H])([H])N(C(=O)C([H])(N([H])C(=O)C([H])(N([H])C([H])([H])[H])C([H])([H])[H])C(C([H])([H])[H])(C([H])([H])[H])C([H])([H])[H])C([H])(C(=O)N([H])C2([H])c4c([H])c([H])c([H])c([H])c4C([H])([H])C([H])([H])C2([H])[H])C3([H])[H])c([H])c1[H])C([H])([H])[H]

$$$$
92:0:0
     RDKit          3D

 92101  0  0  1  0  0  0  0  0999 V2000
  -30.1100  -19.6840   20.9130 C   0  0  0  0  0  0  0  0  0  0  0  0
  -29.4110  -20.7060   20.2210 N   0  0  0  0  0  0  0  0  0  0  0  0
  -30.6730  -19.9900   21.9650 O   0  0  0  0  0  0  0  0  0  0  0  0
  -28.8810  -20.3190   19.4510 H   0  0  0  0  0  0  0  0  0  0  0  0
  -29.0830  -15.8930   18.3420 C   0  0  0  0  0  2  0  0  0  0  0  0
  -30.3360  -16.7610   18.1510 C   0  0  0  0  0  2  0  0  0  0  0  0
  -28.4150  -16.6540   20.7530 C   0  0  0  0  0  2  0  0  0  0  0  0
  -28.4690  -18.1170   18.7070 C   0  0  0  0  0  2  0  0  0  0  0  0
  -29.9100  -16.7070   21.1450 C   0  0  0  0  0  3  0  0  0  0  0  0
  -30.3830  -18.1350   20.3650 C   0  0  0  0  0  3  0  0  0  0  0  0
  -28.1320  -16.7240   19.2160 C   0  0  0  0  0  3  0  0  0  0  0  0
  -29.9940  -18.0870   18.8520 C   0  0  0  0  0  3  0  0  0  0  0  0
  -30.7150  -15.2140   21.0950 C   0  0  0  0  0  0  0  0  0  0  0  0
  -30.7980  -12.7730   20.3480 C   0  0  0  0  0  2  0  0  0  0  0  0
  -30.0410  -12.4690   19.0290 C   0  0  0  0  0  2  0  0  0  0  0  0
  -28.5300  -12.2810   19.2860 C   0  0  0  0  0  2  0  0  0  0  0  0
  -27.9310  -13.3140   20.2770 C   0  0  0  0  0  3  0  0  0  0  0  0
  -28.8350  -13.4810   21.5230 C   0  0  0  0  0  2  0  0  0  0  0  0
  -30.1600  -13.9230   21.0650 N   0  0  0  0  0  0  0  0  0  0  0  0
  -31.9440  -15.2460   20.9690 O   0  0  0  0  0  0  0  0  0  0  0  0
  -25.4710  -13.9220   20.7390 C   0  0  0  0  0  0  0  0  0  0  0  0
  -24.3790  -13.1530   21.0070 C   0  0  0  0  0  0  0  0  0  0  0  0
  -24.8490  -11.8060   21.0420 C   0  0  0  0  0  0  0  0  0  0  0  0
  -26.5430  -13.0450   20.6300 N   0  0  0  0  0  0  0  0  0  0  0  0
  -26.1650  -11.7680   20.8800 N   0  0  0  0  0  0  0  0  0  0  0  0
  -24.1100  -10.5490   21.1540 C   0  0  0  0  0  0  0  0  0  0  0  0
  -24.4370   -9.5890   22.1340 C   0  0  0  0  0  3  0  0  0  0  0  0
  -23.7010   -8.3880   22.2290 C   0  0  0  0  0  3  0  0  0  0  0  0
  -22.6260   -8.1440   21.3430 C   0  0  0  0  0  0  0  0  0  0  0  0
  -22.3180   -9.0950   20.3550 C   0  0  0  0  0  3  0  0  0  0  0  0
  -23.0560  -10.2870   20.2580 C   0  0  0  0  0  3  0  0  0  0  0  0
  -21.8710   -6.9970   21.3450 O   0  0  0  0  0  0  0  0  0  0  0  0
  -21.6900   -6.2630   22.4880 C   0  0  0  0  0  0  0  0  0  0  0  0
  -21.1030   -6.8170   23.6470 C   0  0  0  0  0  3  0  0  0  0  0  0
  -20.8660   -6.0010   24.7720 C   0  0  0  0  0  3  0  0  0  0  0  0
  -21.2150   -4.6370   24.7390 C   0  0  0  0  0  0  0  0  0  0  0  0
  -21.8050   -4.0880   23.5850 C   0  0  0  0  0  3  0  0  0  0  0  0
  -22.0350   -4.8990   22.4620 C   0  0  0  0  0  0  0  0  0  0  0  0
  -22.5800   -4.3600   21.3450 F   0  0  0  0  0  0  0  0  0  0  0  0
  -20.9850   -3.8520   25.8180 F   0  0  0  0  0  0  0  0  0  0  0  0
  -22.9610  -13.6300   21.1070 C   0  0  0  0  0  0  0  0  0  0  0  0
  -22.1360  -12.9520   21.8920 N   0  0  0  0  0  0  0  0  0  0  0  0
  -22.5870  -14.6450   20.5180 O   0  0  0  0  0  0  0  0  0  0  0  0
  -22.4410  -12.1340   22.4000 H   0  0  0  0  0  0  0  0  0  0  0  0
  -21.1790  -13.2560   21.9820 H   0  0  0  0  0  0  0  0  0  0  0  0
  -25.6040  -15.2910   20.5380 N   0  0  0  0  0  0  0  0  0  0  0  0
  -24.7980  -15.9080   20.5260 H   0  0  0  0  0  0  0  0  0  0  0  0
  -26.4480  -15.7270   20.1960 H   0  0  0  0  0  0  0  0  0  0  0  0
  -29.5980  -22.2650   20.0700 C   0  0  0  0  0  2  0  0  0  0  0  0
  -28.4820  -23.4840   20.3530 C   0  0  0  0  0  2  0  0  0  0  0  0
  -28.5320  -24.9830   19.6020 C   0  0  0  0  0  2  0  0  0  0  0  0
  -28.3790  -26.4020   20.1780 O   0  0  0  0  0  0  0  0  0  0  0  0
  -24.6090  -31.8970   23.1620 C   0  0  0  0  0  0  0  0  0  0  0  0
  -27.2610  -27.2920   20.0740 C   0  0  0  0  0  0  0  0  0  0  0  0
  -23.4180  -30.4980   21.5120 C   0  0  0  0  0  3  0  0  0  0  0  0
  -24.8840  -28.9520   20.0690 C   0  0  0  0  0  0  0  0  0  0  0  0
  -25.9610  -30.8160   21.3330 C   0  0  0  0  0  2  0  0  0  0  0  0
  -26.0540  -29.4320   20.6750 C   0  0  0  0  0  0  0  0  0  0  0  0
  -27.2360  -28.6140   20.6630 C   0  0  0  0  0  3  0  0  0  0  0  0
  -26.0670  -26.8930   19.4390 C   0  0  0  0  0  3  0  0  0  0  0  0
  -24.9020  -27.6950   19.4390 C   0  0  0  0  0  3  0  0  0  0  0  0
  -23.6400  -29.8230   20.1290 C   0  0  0  0  0  2  0  0  0  0  0  0
  -24.6820  -31.0900   22.0580 N   0  0  0  0  0  0  0  0  0  0  0  0
  -23.5220  -32.1620   23.6990 O   0  0  0  0  0  0  0  0  0  0  0  0
  -22.7540  -29.4800   22.4690 C   0  0  0  0  0  0  0  0  0  0  0  0
  -21.4340  -29.2730   22.3220 N   0  0  0  0  0  0  0  0  0  0  0  0
  -23.4310  -28.8750   23.3060 O   0  0  0  0  0  0  0  0  0  0  0  0
  -20.9430  -29.8140   21.6250 H   0  0  0  0  0  0  0  0  0  0  0  0
  -18.0880  -27.9670   22.7580 C   0  0  0  0  0  0  0  0  0  0  0  0
  -20.6270  -28.3190   23.0860 C   0  0  0  0  0  3  0  0  0  0  0  0
  -20.7910  -26.8830   22.5360 C   0  0  0  0  0  2  0  0  0  0  0  0
  -19.7280  -26.5100   21.4960 C   0  0  0  0  0  2  0  0  0  0  0  0
  -18.3270  -26.6160   22.1040 C   0  0  0  0  0  2  0  0  0  0  0  0
  -19.1680  -28.7730   23.2050 C   0  0  0  0  0  0  0  0  0  0  0  0
  -18.8900  -30.0330   23.7760 C   0  0  0  0  0  3  0  0  0  0  0  0
  -17.5630  -30.4900   23.9050 C   0  0  0  0  0  3  0  0  0  0  0  0
  -16.4980  -29.6810   23.4730 C   0  0  0  0  0  3  0  0  0  0  0  0
  -16.7600  -28.4230   22.9050 C   0  0  0  0  0  3  0  0  0  0  0  0
  -25.8840  -32.5380   23.7920 C   0  0  0  0  0  3  0  0  0  0  0  0
  -26.4040  -31.7670   25.0680 C   0  0  1  0  0  0  0  0  0  0  0  0
  -25.3130  -31.5230   26.1360 C   0  0  0  0  0  1  0  0  0  0  0  0
  -26.9940  -30.3930   24.6750 C   0  0  0  0  0  1  0  0  0  0  0  0
  -27.5550  -32.5640   25.7300 C   0  0  0  0  0  1  0  0  0  0  0  0
  -25.5640  -33.9330   24.1330 N   0  0  0  0  0  0  0  0  0  0  0  0
  -25.9090  -34.9970   23.3950 C   0  0  0  0  0  0  0  0  0  0  0  0
  -26.5960  -34.9070   22.3750 O   0  0  0  0  0  0  0  0  0  0  0  0
  -24.9590  -34.0770   24.9280 H   0  0  0  0  0  0  0  0  0  0  0  0
  -24.1970  -36.8000   23.0210 C   0  0  0  0  0  1  0  0  0  0  0  0
  -25.4120  -36.3790   23.8630 C   0  0  0  0  0  3  0  0  0  0  0  0
  -27.5210  -37.2440   24.7770 C   0  0  0  0  0  1  0  0  0  0  0  0
  -26.4500  -37.4310   23.8020 N   0  0  0  0  0  0  0  0  0  0  0  0
  -26.0420  -38.3490   23.9490 H   0  0  0  0  0  0  0  0  0  0  0  0
  1  3  2  0
  2  1  1  0
  4  2  1  0
  6  5  1  0
  7  9  1  0
  8 12  1  0
  8 11  1  0
  9 13  1  0
 10  1  1  0
 10  9  1  0
 11  5  1  0
 11  7  1  0
 12  6  1  0
 12 10  1  0
 14 19  1  0
 15 16  1  0
 15 14  1  0
 17 16  1  0
 17 24  1  0
 17 18  1  0
 19 13  1  0
 19 18  1  0
 20 13  2  0
 21 22  2  0
 22 23  1  0
 22 41  1  0
 23 26  1  0
 24 21  1  0
 24 25  1  0
 25 23  2  0
 26 27  1  0
 27 28  2  0
 29 32  1  0
 29 28  1  0
 30 29  2  0
 31 30  1  0
 31 26  2  0
 32 33  1  0
 33 34  1  0
 34 35  2  0
 36 35  1  0
 36 40  1  0
 37 36  2  0
 38 33  2  0
 38 37  1  0
 39 38  1  0
 41 42  1  0
 42 45  1  0
 42 44  1  0
 43 41  2  0
 46 21  1  0
 47 46  1  0
 48 46  1  0
 49  2  1  0
 49 50  1  0
 51 52  1  0
 51 50  1  0
 53 64  2  0
 54 52  1  0
 54 59  1  0
 55 63  1  0
 55 65  1  0
 56 62  1  0
 56 58  1  0
 57 63  1  0
 58 57  1  0
 59 58  2  0
 60 54  2  0
 61 60  1  0
 61 56  2  0
 62 55  1  0
 63 53  1  0
 65 67  2  0
 66 65  1  0
 68 66  1  0
 69 78  2  0
 69 74  1  0
 70 66  1  0
 70 74  1  0
 71 70  1  0
 72 73  1  0
 72 71  1  0
 73 69  1  0
 74 75  2  0
 75 76  1  0
 77 76  2  0
 78 77  1  0
 79 53  1  0
 79 84  1  0
 79 80  1  0
 80 83  1  1
 80 81  1  0
 82 80  1  0
 84 87  1  0
 85 89  1  0
 85 84  1  0
 86 85  2  0
 89 88  1  0
 91 89  1  0
 91 92  1  0
 91 90  1  0
M  ISO  4   9 100  13 100  51 101  52 101
M  END
>  <TORSDO>  (92) 
F 20

>  <SCORE>  (92) 
-13.084

>  <name>  (92) 
92

>  <ligand_id>  (92) 
92

>  <original_smiles>  (92) 
[H]c1c([H])c([H])c2c(c1[H])C([H])([H])C([H])([H])C([H])([H])C2([H])N([H])C(=O)C1([H])N(C(=O)C([H])(N([H])C(=O)C([H])(N([H])C([H])([H])[H])C([H])([H])[H])C(C([H])([H])[H])(C([H])([H])[H])C([H])([H])[H])C([H])([H])c2c([H])c(OC([H])([H])C([H])([H])C([H])([H])N([H])C(=O)C3([H])C([H])(C(=O)N4C([H])([H])C([H])([H])C([H])([H])C([H])(n5nc(-c6c([H])c([H])c(Oc7c([H])c([H])c(F)c([H])c7F)c([H])c6[H])c(C(=O)N([H])[H])c5N([H])[H])C4([H])[H])C([H])([H])C4([H])C([H])([H])C([H])([H])C3([H])C4([H])[H])c([H])c([H])c2C1([H])[H]

>  <smiles>  (92) 
[H]c1c([H])c([H])c2c(c1[H])C([H])([H])C([H])([H])C([H])([H])C2([H])N([H])C(=O)C1([H])N(C(=O)C([H])(N([H])C(=O)C([H])(N([H])C([H])([H])[H])C([H])([H])[H])C(C([H])([H])[H])(C([H])([H])[H])C([H])([H])[H])C([H])([H])c2c([H])c(OC([H])([H])C([H])([H])C([H])([H])N([H])C(=O)C3([H])C([H])(C(=O)N4C([H])([H])C([H])([H])C([H])([H])C([H])(n5nc(-c6c([H])c([H])c(Oc7c([H])c([H])c(F)c([H])c7F)c([H])c6[H])c(C(=O)N([H])[H])c5N([H])[H])C4([H])[H])C([H])([H])C4([H])C([H])([H])C([H])([H])C3([H])C4([H])[H])c([H])c([H])c2C1([H])[H]

$$$$
93:0:0
     RDKit          3D

 85 89  0  0  1  0  0  0  0  0999 V2000
  -32.0070  -20.6560   20.3260 C   0  0  0  0  0  3  0  0  0  0  0  0
  -31.7040  -22.0040   20.3400 C   0  0  0  0  0  3  0  0  0  0  0  0
  -30.9970  -19.6970   20.2940 C   0  0  0  0  0  3  0  0  0  0  0  0
  -30.3800  -22.4350   20.3150 C   0  0  0  0  0  3  0  0  0  0  0  0
  -29.5920  -19.9030   20.2700 C   0  0  0  0  0  3  0  0  0  0  0  0
  -29.2010  -21.6430   20.2760 C   0  0  0  0  0  3  0  0  0  0  0  0
  -29.2080  -17.9430   20.2620 C   0  0  0  0  0 15  0  0  0  0  0  0
  -30.0650  -16.1050   20.1520 C   0  0  0  0  0  2  0  0  0  0  0  0
  -30.3270  -13.4520   19.3720 C   0  0  0  0  0  2  0  0  0  0  0  0
  -29.4720  -12.8800   18.1890 C   0  0  0  0  0  2  0  0  0  0  0  0
  -28.0840  -12.4270   18.6590 C   0  0  0  0  0  2  0  0  0  0  0  0
  -27.5150  -13.4370   19.6740 C   0  0  0  0  0  3  0  0  0  0  0  0
  -28.5230  -13.8990   20.7640 C   0  0  0  0  0  2  0  0  0  0  0  0
  -29.6390  -14.6500   20.1060 N   0  0  0  0  0  0  0  0  0  0  0  0
  -31.3050  -15.9860   19.9740 O   0  0  0  0  0  1  0  0  0  0  0  0
  -25.1590  -13.8970   20.4690 C   0  0  0  0  0  0  0  0  0  0  0  0
  -24.1180  -13.0970   20.8420 C   0  0  0  0  0  0  0  0  0  0  0  0
  -24.6140  -11.7560   20.8070 C   0  0  0  0  0  0  0  0  0  0  0  0
  -26.2190  -13.0500   20.2150 N   0  0  0  0  0  0  0  0  0  0  0  0
  -25.9080  -11.7520   20.4840 N   0  0  0  0  0  0  0  0  0  0  0  0
  -23.9070  -10.4820   21.0040 C   0  0  0  0  0  0  0  0  0  0  0  0
  -24.3520   -9.5210   21.9390 C   0  0  0  0  0  3  0  0  0  0  0  0
  -23.6360   -8.3180   22.1280 C   0  0  0  0  0  3  0  0  0  0  0  0
  -22.4620   -8.0650   21.3800 C   0  0  0  0  0  0  0  0  0  0  0  0
  -22.0350   -9.0150   20.4350 C   0  0  0  0  0  3  0  0  0  0  0  0
  -22.7500  -10.2080   20.2450 C   0  0  0  0  0  3  0  0  0  0  0  0
  -21.7180   -6.9130   21.4780 O   0  0  0  0  0  0  0  0  0  0  0  0
  -21.6850   -6.1720   22.6310 C   0  0  0  0  0  0  0  0  0  0  0  0
  -21.2560   -6.7230   23.8580 C   0  0  0  0  0  3  0  0  0  0  0  0
  -21.1700   -5.9090   25.0050 C   0  0  0  0  0  3  0  0  0  0  0  0
  -21.5030   -4.5430   24.9250 C   0  0  0  0  0  0  0  0  0  0  0  0
  -21.9240   -3.9910   23.7030 C   0  0  0  0  0  3  0  0  0  0  0  0
  -22.0120   -4.8020   22.5590 C   0  0  0  0  0  0  0  0  0  0  0  0
  -22.3970   -4.2600   21.3790 F   0  0  0  0  0  0  0  0  0  0  0  0
  -21.4140   -3.7580   26.0240 F   0  0  0  0  0  0  0  0  0  0  0  0
  -22.7140  -13.5500   21.1120 C   0  0  0  0  0  0  0  0  0  0  0  0
  -22.0020  -12.8520   21.9880 N   0  0  0  0  0  0  0  0  0  0  0  0
  -22.2590  -14.5620   20.5820 O   0  0  0  0  0  0  0  0  0  0  0  0
  -22.3850  -12.0350   22.4400 H   0  0  0  0  0  0  0  0  0  0  0  0
  -21.0610  -13.1400   22.2130 H   0  0  0  0  0  0  0  0  0  0  0  0
  -25.2900  -15.2720   20.2880 N   0  0  0  0  0  0  0  0  0  0  0  0
  -24.5090  -15.9080   20.4070 H   0  0  0  0  0  0  0  0  0  0  0  0
  -26.1270  -15.7290   19.9530 H   0  0  0  0  0  0  0  0  0  0  0  0
  -28.0240  -23.2510   20.2460 C   0  0  0  0  0 15  0  0  0  0  0  0
  -28.1400  -25.1540   20.3190 O   0  0  0  0  0  1  0  0  0  0  0  0
  -24.7070  -31.8480   23.1620 C   0  0  0  0  0  0  0  0  0  0  0  0
  -27.2050  -26.4940   20.2680 C   0  0  0  0  0  0  0  0  0  0  0  0
  -23.5310  -30.4380   21.5330 C   0  0  0  0  0  3  0  0  0  0  0  0
  -24.9780  -28.7140   20.1640 C   0  0  0  0  0  0  0  0  0  0  0  0
  -26.1230  -30.4840   21.4600 C   0  0  0  0  0  2  0  0  0  0  0  0
  -26.1780  -29.0160   20.8180 C   0  0  0  0  0  0  0  0  0  0  0  0
  -27.2610  -27.9440   20.8280 C   0  0  0  0  0  3  0  0  0  0  0  0
  -25.9680  -26.4730   19.5500 C   0  0  0  0  0  3  0  0  0  0  0  0
  -24.9290  -27.4710   19.5030 C   0  0  0  0  0  3  0  0  0  0  0  0
  -23.7900  -29.7060   20.1800 C   0  0  0  0  0  2  0  0  0  0  0  0
  -24.8140  -30.9640   22.1030 N   0  0  0  0  0  0  0  0  0  0  0  0
  -23.6070  -32.1730   23.6470 O   0  0  0  0  0  0  0  0  0  0  0  0
  -22.7750  -29.4990   22.5140 C   0  0  0  0  0  0  0  0  0  0  0  0
  -21.4370  -29.3810   22.3920 N   0  0  0  0  0  0  0  0  0  0  0  0
  -23.4100  -28.8700   23.3630 O   0  0  0  0  0  0  0  0  0  0  0  0
  -20.9710  -29.9370   21.6890 H   0  0  0  0  0  0  0  0  0  0  0  0
  -18.0230  -28.2370   22.9290 C   0  0  0  0  0  0  0  0  0  0  0  0
  -20.5920  -28.4640   23.1690 C   0  0  0  0  0  3  0  0  0  0  0  0
  -20.6600  -27.0280   22.5970 C   0  0  0  0  0  2  0  0  0  0  0  0
  -19.5470  -26.7260   21.5890 C   0  0  0  0  0  2  0  0  0  0  0  0
  -18.1720  -26.8900   22.2420 C   0  0  0  0  0  2  0  0  0  0  0  0
  -19.1570  -28.9830   23.3490 C   0  0  0  0  0  0  0  0  0  0  0  0
  -18.9580  -30.2400   23.9600 C   0  0  0  0  0  3  0  0  0  0  0  0
  -17.6610  -30.7530   24.1470 C   0  0  0  0  0  3  0  0  0  0  0  0
  -16.5420  -30.0060   23.7390 C   0  0  0  0  0  3  0  0  0  0  0  0
  -16.7240  -28.7490   23.1350 C   0  0  0  0  0  3  0  0  0  0  0  0
  -25.9580  -32.5100   23.8170 C   0  0  0  0  0  3  0  0  0  0  0  0
  -25.6240  -33.9100   24.1610 N   0  0  0  0  0  0  0  0  0  0  0  0
  -25.9370  -34.9870   23.4270 C   0  0  0  0  0  0  0  0  0  0  0  0
  -26.5850  -34.9080   22.3820 O   0  0  0  0  0  0  0  0  0  0  0  0
  -25.0410  -34.0430   24.9740 H   0  0  0  0  0  0  0  0  0  0  0  0
  -24.1770  -36.7790   23.1840 C   0  0  0  0  0  1  0  0  0  0  0  0
  -25.4600  -36.3700   23.9260 C   0  0  0  0  0  3  0  0  0  0  0  0
  -27.6210  -37.2810   24.6660 C   0  0  0  0  0  1  0  0  0  0  0  0
  -26.4740  -37.4380   23.7750 N   0  0  0  0  0  0  0  0  0  0  0  0
  -26.0640  -38.3520   23.9450 H   0  0  0  0  0  0  0  0  0  0  0  0
  -26.4440  -31.7530   25.1170 C   0  0  1  0  0  0  0  0  0  0  0  0
  -25.3290  -31.5340   26.1680 C   0  0  0  0  0  1  0  0  0  0  0  0
  -27.0300  -30.3680   24.7690 C   0  0  0  0  0  1  0  0  0  0  0  0
  -27.5850  -32.5510   25.7910 C   0  0  0  0  0  1  0  0  0  0  0  0
  1  2  1  0
  3  1  2  0
  4  2  2  0
  5  6  2  0
  5  3  1  0
  6  4  1  0
  9 14  1  0
 10 11  1  0
 10  9  1  0
 12 11  1  0
 12 19  1  0
 12 13  1  0
 14  8  1  0
 14 13  1  0
 15  8  1  0
 16 17  2  0
 17 36  1  0
 18 17  1  0
 18 21  1  0
 19 16  1  0
 19 20  1  0
 20 18  2  0
 21 22  1  0
 22 23  2  0
 24 27  1  0
 24 23  1  0
 25 24  2  0
 26 25  1  0
 26 21  2  0
 27 28  1  0
 28 29  1  0
 29 30  2  0
 31 30  1  0
 31 35  1  0
 32 31  2  0
 33 28  2  0
 33 32  1  0
 34 33  1  0
 36 37  1  0
 37 40  1  0
 37 39  1  0
 38 36  2  0
 41 42  1  0
 41 16  1  0
 43 41  1  0
 46 57  2  0
 47 45  1  0
 47 52  1  0
 48 56  1  0
 48 58  1  0
 49 55  1  0
 49 51  1  0
 50 56  1  0
 51 52  2  0
 51 50  1  0
 53 47  2  0
 54 53  1  0
 54 49  2  0
 55 48  1  0
 56 46  1  0
 58 60  2  0
 59 58  1  0
 61 59  1  0
 62 71  2  0
 62 67  1  0
 63 59  1  0
 63 67  1  0
 64 63  1  0
 65 66  1  0
 65 64  1  0
 66 62  1  0
 67 68  2  0
 68 69  1  0
 70 69  2  0
 71 70  1  0
 72 46  1  0
 72 73  1  0
 72 82  1  0
 73 76  1  0
 74 78  1  0
 74 73  1  0
 75 74  2  0
 78 77  1  0
 80 78  1  0
 80 81  1  0
 80 79  1  0
 82 85  1  1
 82 83  1  0
 84 82  1  0
M  ISO  4   7 100   8 100  44 101  45 101
M  END
>  <TORSDO>  (93) 
F 18

>  <SCORE>  (93) 
-16.409

>  <name>  (93) 
93

>  <ligand_id>  (93) 
93

>  <original_smiles>  (93) 
[H]c1c([H])c([H])c(C([H])([H])C(=O)N2C([H])([H])C([H])([H])C([H])([H])C([H])(n3nc(-c4c([H])c([H])c(Oc5c([H])c([H])c(F)c([H])c5F)c([H])c4[H])c(C(=O)N([H])[H])c3N([H])[H])C2([H])[H])c(C([H])([H])Oc2c([H])c([H])c3c(c2[H])C([H])([H])N(C(=O)C([H])(N([H])C(=O)C([H])(N([H])C([H])([H])[H])C([H])([H])[H])C(C([H])([H])[H])(C([H])([H])[H])C([H])([H])[H])C([H])(C(=O)N([H])C2([H])c4c([H])c([H])c([H])c([H])c4C([H])([H])C([H])([H])C2([H])[H])C3([H])[H])c1[H]

>  <smiles>  (93) 
[H]c1c([H])c([H])c(C([H])([H])C(=O)N2C([H])([H])C([H])([H])C([H])([H])C([H])(n3nc(-c4c([H])c([H])c(Oc5c([H])c([H])c(F)c([H])c5F)c([H])c4[H])c(C(=O)N([H])[H])c3N([H])[H])C2([H])[H])c(C([H])([H])Oc2c([H])c([H])c3c(c2[H])C([H])([H])N(C(=O)C([H])(N([H])C(=O)C([H])(N([H])C([H])([H])[H])C([H])([H])[H])C(C([H])([H])[H])(C([H])([H])[H])C([H])([H])[H])C([H])(C(=O)N([H])C2([H])c4c([H])c([H])c([H])c([H])c4C([H])([H])C([H])([H])C2([H])[H])C3([H])[H])c1[H]

$$$$
94:0:0
     RDKit          3D

 87 96  0  0  1  0  0  0  0  0999 V2000
  -30.4310  -22.3270   20.3140 C   0  0  0  0  0  2  0  0  0  0  0  0
  -28.6760  -20.5690   20.2120 C   0  0  0  0  0  3  0  0  0  0  0  0
  -28.9200  -22.3710   20.0550 C   0  0  0  0  0  3  0  0  0  0  0  0
  -29.5660  -18.9480   20.4890 C   0  0  0  0  0  3  0  0  0  0  0  0
  -29.8700  -20.0270   19.4680 C   0  0  0  0  0  3  0  0  0  0  0  0
  -30.9500  -21.0100   19.8060 N   0  0  0  0  0  4  0  0  0  0  0  0
  -31.5890  -20.6200   20.4790 H   0  0  0  0  0  0  0  0  0  0  0  0
  -31.4870  -21.1860   18.9720 H   0  0  0  0  0  0  0  0  0  0  0  0
  -29.3550  -17.1180   20.1900 C   0  0  0  0  0  2  0  0  0  0  0  0
  -30.2600  -15.5250   20.1770 C   0  0  0  0  0  0  0  0  0  0  0  0
  -30.3500  -13.0050   19.3650 C   0  0  0  0  0  2  0  0  0  0  0  0
  -29.4320  -12.7070   18.1460 C   0  0  0  0  0  2  0  0  0  0  0  0
  -27.9950  -12.3900   18.5950 C   0  0  0  0  0  2  0  0  0  0  0  0
  -27.5200  -13.3660   19.6960 C   0  0  0  0  0  3  0  0  0  0  0  0
  -28.5670  -13.5940   20.8060 C   0  0  0  0  0  2  0  0  0  0  0  0
  -29.7730  -14.1600   20.1710 N   0  0  0  0  0  0  0  0  0  0  0  0
  -31.4870  -15.5120   19.9720 O   0  0  0  0  0  0  0  0  0  0  0  0
  -25.1610  -13.8990   20.4870 C   0  0  0  0  0  0  0  0  0  0  0  0
  -24.1080  -13.1150   20.8660 C   0  0  0  0  0  0  0  0  0  0  0  0
  -24.5820  -11.7670   20.8300 C   0  0  0  0  0  0  0  0  0  0  0  0
  -26.2040  -13.0300   20.2270 N   0  0  0  0  0  0  0  0  0  0  0  0
  -25.8710  -11.7420   20.5020 N   0  0  0  0  0  0  0  0  0  0  0  0
  -23.8610  -10.5020   21.0290 C   0  0  0  0  0  0  0  0  0  0  0  0
  -24.3080   -9.5310   21.9520 C   0  0  0  0  0  3  0  0  0  0  0  0
  -23.5830   -8.3340   22.1400 C   0  0  0  0  0  3  0  0  0  0  0  0
  -22.3980   -8.0990   21.4050 C   0  0  0  0  0  0  0  0  0  0  0  0
  -21.9690   -9.0570   20.4700 C   0  0  0  0  0  3  0  0  0  0  0  0
  -22.6940  -10.2460   20.2800 C   0  0  0  0  0  3  0  0  0  0  0  0
  -21.6450   -6.9540   21.5020 O   0  0  0  0  0  0  0  0  0  0  0  0
  -21.6210   -6.2010   22.6480 C   0  0  0  0  0  0  0  0  0  0  0  0
  -21.2270   -6.7470   23.8900 C   0  0  0  0  0  3  0  0  0  0  0  0
  -21.1510   -5.9220   25.0300 C   0  0  0  0  0  3  0  0  0  0  0  0
  -21.4600   -4.5520   24.9300 C   0  0  0  0  0  0  0  0  0  0  0  0
  -21.8460   -4.0050   23.6950 C   0  0  0  0  0  3  0  0  0  0  0  0
  -21.9230   -4.8270   22.5560 C   0  0  0  0  0  0  0  0  0  0  0  0
  -22.2760   -4.2910   21.3630 F   0  0  0  0  0  0  0  0  0  0  0  0
  -21.3790   -3.7580   26.0230 F   0  0  0  0  0  0  0  0  0  0  0  0
  -22.7110  -13.5850   21.1460 C   0  0  0  0  0  0  0  0  0  0  0  0
  -21.9950  -12.8910   22.0230 N   0  0  0  0  0  0  0  0  0  0  0  0
  -22.2640  -14.6050   20.6230 O   0  0  0  0  0  0  0  0  0  0  0  0
  -22.3710  -12.0680   22.4680 H   0  0  0  0  0  0  0  0  0  0  0  0
  -21.0580  -13.1890   22.2540 H   0  0  0  0  0  0  0  0  0  0  0  0
  -25.3160  -15.2710   20.3110 N   0  0  0  0  0  0  0  0  0  0  0  0
  -24.5510  -15.9250   20.4370 H   0  0  0  0  0  0  0  0  0  0  0  0
  -26.1630  -15.7140   19.9790 H   0  0  0  0  0  0  0  0  0  0  0  0
  -28.0260  -23.9910   20.4510 C   0  0  0  0  0  2  0  0  0  0  0  0
  -28.2010  -25.6920   20.2670 O   0  0  0  0  0  0  0  0  0  0  0  0
  -24.6560  -31.8720   23.1870 C   0  0  0  0  0  0  0  0  0  0  0  0
  -27.1920  -26.8420   20.2480 C   0  0  0  0  0  0  0  0  0  0  0  0
  -23.4610  -30.4540   21.5730 C   0  0  0  0  0  3  0  0  0  0  0  0
  -24.9060  -28.8060   20.1750 C   0  0  0  0  0  0  0  0  0  0  0  0
  -26.0350  -30.6270   21.4290 C   0  0  0  0  0  2  0  0  0  0  0  0
  -26.1020  -29.1950   20.7910 C   0  0  0  0  0  0  0  0  0  0  0  0
  -27.2350  -28.2410   20.7920 C   0  0  0  0  0  3  0  0  0  0  0  0
  -25.9600  -26.6350   19.5830 C   0  0  0  0  0  3  0  0  0  0  0  0
  -24.8670  -27.5500   19.5470 C   0  0  0  0  0  3  0  0  0  0  0  0
  -23.6940  -29.7440   20.2090 C   0  0  0  0  0  2  0  0  0  0  0  0
  -24.7410  -31.0160   22.1150 N   0  0  0  0  0  0  0  0  0  0  0  0
  -23.5660  -32.1740   23.7030 O   0  0  0  0  0  0  0  0  0  0  0  0
  -22.7590  -29.4800   22.5570 C   0  0  0  0  0  0  0  0  0  0  0  0
  -21.4280  -29.3150   22.4360 N   0  0  0  0  0  0  0  0  0  0  0  0
  -23.4210  -28.8720   23.4010 O   0  0  0  0  0  0  0  0  0  0  0  0
  -20.9450  -29.8560   21.7320 H   0  0  0  0  0  0  0  0  0  0  0  0
  -18.0480  -28.0960   22.9640 C   0  0  0  0  0  0  0  0  0  0  0  0
  -20.6060  -28.3870   23.2230 C   0  0  0  0  0  3  0  0  0  0  0  0
  -20.7160  -26.9450   22.6720 C   0  0  0  0  0  2  0  0  0  0  0  0
  -19.6170  -26.5970   21.6640 C   0  0  0  0  0  2  0  0  0  0  0  0
  -18.2340  -26.7400   22.3060 C   0  0  0  0  0  2  0  0  0  0  0  0
  -19.1600  -28.8760   23.3800 C   0  0  0  0  0  0  0  0  0  0  0  0
  -18.9270  -30.1410   23.9610 C   0  0  0  0  0  3  0  0  0  0  0  0
  -17.6160  -30.6280   24.1270 C   0  0  0  0  0  3  0  0  0  0  0  0
  -16.5200  -29.8470   23.7250 C   0  0  0  0  0  3  0  0  0  0  0  0
  -16.7360  -28.5820   23.1500 C   0  0  0  0  0  3  0  0  0  0  0  0
  -25.9240  -32.5300   23.8130 C   0  0  0  0  0  3  0  0  0  0  0  0
  -25.5930  -33.9250   24.1580 N   0  0  0  0  0  0  0  0  0  0  0  0
  -25.8960  -34.9960   23.4120 C   0  0  0  0  0  0  0  0  0  0  0  0
  -26.5420  -34.9150   22.3650 O   0  0  0  0  0  0  0  0  0  0  0  0
  -25.0150  -34.0600   24.9740 H   0  0  0  0  0  0  0  0  0  0  0  0
  -24.1330  -36.7770   23.1410 C   0  0  0  0  0  1  0  0  0  0  0  0
  -25.4090  -36.3780   23.9010 C   0  0  0  0  0  3  0  0  0  0  0  0
  -27.5600  -37.2880   24.6630 C   0  0  0  0  0  1  0  0  0  0  0  0
  -26.4220  -37.4460   23.7600 N   0  0  0  0  0  0  0  0  0  0  0  0
  -26.0090  -38.3600   23.9290 H   0  0  0  0  0  0  0  0  0  0  0  0
  -26.4450  -31.7700   25.0950 C   0  0  1  0  0  0  0  0  0  0  0  0
  -25.3540  -31.5320   26.1680 C   0  0  0  0  0  1  0  0  0  0  0  0
  -27.0360  -30.3920   24.7200 C   0  0  0  0  0  1  0  0  0  0  0  0
  -27.5940  -32.5720   25.7490 C   0  0  0  0  0  1  0  0  0  0  0  0
  2  4  1  0
  3  2  1  0
  3  1  1  0
  3 46  1  0
  5  6  1  0
  5  2  1  0
  5  4  1  0
  6  1  1  0
  6  7  1  0
  8  6  1  0
  9  4  1  0
 10  9  1  0
 11 16  1  0
 12 13  1  0
 12 11  1  0
 13 14  1  0
 14 21  1  0
 14 15  1  0
 16 10  1  0
 16 15  1  0
 17 10  2  0
 18 19  2  0
 19 38  1  0
 20 19  1  0
 20 23  1  0
 21 18  1  0
 21 22  1  0
 22 20  2  0
 23 24  1  0
 24 25  2  0
 26 29  1  0
 26 25  1  0
 27 26  2  0
 28 27  1  0
 28 23  2  0
 29 30  1  0
 30 31  1  0
 31 32  2  0
 33 32  1  0
 33 37  1  0
 34 33  2  0
 35 30  2  0
 35 34  1  0
 36 35  1  0
 38 39  1  0
 39 42  1  0
 39 41  1  0
 40 38  2  0
 43 44  1  0
 43 18  1  0
 45 43  1  0
 47 46  1  0
 48 59  2  0
 48 74  1  0
 49 47  1  0
 49 54  1  0
 50 58  1  0
 50 60  1  0
 51 57  1  0
 51 53  1  0
 52 58  1  0
 53 54  2  0
 53 52  1  0
 55 49  2  0
 56 55  1  0
 56 51  2  0
 57 50  1  0
 58 48  1  0
 60 62  2  0
 61 60  1  0
 61 65  1  0
 63 61  1  0
 64 73  2  0
 64 69  1  0
 65 69  1  0
 66 65  1  0
 67 68  1  0
 67 66  1  0
 68 64  1  0
 69 70  2  0
 70 71  1  0
 72 71  2  0
 73 72  1  0
 74 75  1  0
 74 84  1  0
 75 78  1  0
 76 80  1  0
 76 75  1  0
 77 76  2  0
 79 80  1  0
 82 80  1  0
 82 83  1  0
 82 81  1  0
 84 87  1  1
 84 85  1  0
 86 84  1  0
M  ISO  4   9 100  10 100  46 101  47 101
M  END
>  <TORSDO>  (94) 
F 18

>  <SCORE>  (94) 
-16.527

>  <name>  (94) 
94

>  <ligand_id>  (94) 
94

>  <original_smiles>  (94) 
[H]c1c([H])c([H])c2c(c1[H])C([H])([H])C([H])([H])C([H])([H])C2([H])N([H])C(=O)C1([H])N(C(=O)C([H])(N([H])C(=O)C([H])(N([H])C([H])([H])[H])C([H])([H])[H])C(C([H])([H])[H])(C([H])([H])[H])C([H])([H])[H])C([H])([H])c2c([H])c(OC([H])([H])C3([H])C4([H])C([H])(C([H])([H])C(=O)N5C([H])([H])C([H])([H])C([H])([H])C([H])(n6nc(-c7c([H])c([H])c(Oc8c([H])c([H])c(F)c([H])c8F)c([H])c7[H])c(C(=O)N([H])[H])c6N([H])[H])C5([H])[H])C4([H])[N+]([H])([H])C3([H])[H])c([H])c([H])c2C1([H])[H]

>  <smiles>  (94) 
[H]c1c([H])c([H])c2c(c1[H])C([H])([H])C([H])([H])C([H])([H])C2([H])N([H])C(=O)C1([H])N(C(=O)C([H])(N([H])C(=O)C([H])(N([H])C([H])([H])[H])C([H])([H])[H])C(C([H])([H])[H])(C([H])([H])[H])C([H])([H])[H])C([H])([H])c2c([H])c(OC([H])([H])C3([H])C4([H])C([H])(C([H])([H])C(=O)N5C([H])([H])C([H])([H])C([H])([H])C([H])(n6nc(-c7c([H])c([H])c(Oc8c([H])c([H])c(F)c([H])c8F)c([H])c7[H])c(C(=O)N([H])[H])c6N([H])[H])C5([H])[H])C4([H])[N+]([H])([H])C3([H])[H])c([H])c([H])c2C1([H])[H]

$$$$
95:0:0
     RDKit          3D

 93101  0  0  1  0  0  0  0  0999 V2000
  -27.2540  -22.7990   20.3940 C   0  0  0  0  0  2  0  0  0  0  0  0
  -27.4760  -21.2610   20.1930 C   0  0  0  0  0  3  0  0  0  0  0  0
  -28.5930  -23.4080   20.7450 C   0  0  0  0  0  3  0  0  0  0  0  0
  -28.9890  -20.8280   20.5190 C   0  0  0  0  0  3  0  0  0  0  0  0
  -26.2710  -20.5120   20.8330 C   0  0  0  0  0  1  0  0  0  0  0  0
  -30.9000  -22.3860   21.1610 C   0  0  0  0  0  1  0  0  0  0  0  0
  -29.6410  -22.2670   20.3940 N   0  0  2  0  0  4  0  0  0  0  0  0
  -29.8960  -22.3870   19.4280 H   0  0  0  0  0  0  0  0  0  0  0  0
  -29.7280  -19.5400   18.3040 C   0  0  0  0  0  1  0  0  0  0  0  0
  -28.1580  -18.4710   19.9810 C   0  0  0  0  0  1  0  0  0  0  0  0
  -29.4670  -19.2800   19.8010 C   0  0  2  0  0  0  0  0  0  0  0  0
  -30.4060  -16.6510   19.8460 C   0  0  0  0  0  3  0  0  0  0  0  0
  -30.5550  -18.0490   20.1470 C   0  0  0  0  0  0  0  0  0  0  0  0
  -31.2520  -15.3410   19.9170 C   0  0  0  0  0  0  0  0  0  0  0  0
  -31.0530  -12.9260   19.1170 C   0  0  0  0  0  2  0  0  0  0  0  0
  -30.1170  -12.8290   17.8870 C   0  0  0  0  0  2  0  0  0  0  0  0
  -28.6470  -12.6690   18.3290 C   0  0  0  0  0  2  0  0  0  0  0  0
  -28.2620  -13.6850   19.4370 C   0  0  0  0  0  3  0  0  0  0  0  0
  -29.3180  -13.7630   20.5580 C   0  0  0  0  0  2  0  0  0  0  0  0
  -30.6120  -14.0950   19.9360 N   0  0  0  0  0  0  0  0  0  0  0  0
  -32.4710  -15.3190   19.6880 O   0  0  0  0  0  0  0  0  0  0  0  0
  -25.9500  -14.3920   20.2730 C   0  0  0  0  0  0  0  0  0  0  0  0
  -24.8450  -13.6800   20.6400 C   0  0  0  0  0  0  0  0  0  0  0  0
  -25.2110  -12.3000   20.5360 C   0  0  0  0  0  0  0  0  0  0  0  0
  -26.9220  -13.4560   19.9630 N   0  0  0  0  0  0  0  0  0  0  0  0
  -26.4880  -12.1860   20.1850 N   0  0  0  0  0  0  0  0  0  0  0  0
  -24.4000  -11.0870   20.6930 C   0  0  0  0  0  0  0  0  0  0  0  0
  -24.7320  -10.0870   21.6330 C   0  0  0  0  0  3  0  0  0  0  0  0
  -23.9230   -8.9390   21.7760 C   0  0  0  0  0  3  0  0  0  0  0  0
  -22.7610   -8.7830   20.9810 C   0  0  0  0  0  0  0  0  0  0  0  0
  -22.4540   -9.7670   20.0220 C   0  0  0  0  0  3  0  0  0  0  0  0
  -23.2640  -10.9040   19.8790 C   0  0  0  0  0  3  0  0  0  0  0  0
  -21.9350   -7.6860   21.0280 O   0  0  0  0  0  0  0  0  0  0  0  0
  -21.7210   -7.0000   22.1980 C   0  0  0  0  0  0  0  0  0  0  0  0
  -21.2010   -7.6320   23.3480 C   0  0  0  0  0  3  0  0  0  0  0  0
  -20.9280   -6.8730   24.5050 C   0  0  0  0  0  3  0  0  0  0  0  0
  -21.1740   -5.4860   24.5100 C   0  0  0  0  0  0  0  0  0  0  0  0
  -21.6830   -4.8550   23.3630 C   0  0  0  0  0  3  0  0  0  0  0  0
  -21.9570   -5.6110   22.2090 C   0  0  0  0  0  0  0  0  0  0  0  0
  -22.4310   -4.9960   21.1000 F   0  0  0  0  0  0  0  0  0  0  0  0
  -20.9040   -4.7550   25.6180 F   0  0  0  0  0  0  0  0  0  0  0  0
  -23.4940  -14.2390   20.9750 C   0  0  0  0  0  0  0  0  0  0  0  0
  -22.7480  -13.5670   21.8440 N   0  0  0  0  0  0  0  0  0  0  0  0
  -23.1110  -15.3040   20.4940 O   0  0  0  0  0  0  0  0  0  0  0  0
  -23.0720  -12.7010   22.2500 H   0  0  0  0  0  0  0  0  0  0  0  0
  -21.8400  -13.9220   22.1090 H   0  0  0  0  0  0  0  0  0  0  0  0
  -26.2040  -15.7550   20.1470 N   0  0  0  0  0  0  0  0  0  0  0  0
  -25.4760  -16.4460   20.2920 H   0  0  0  0  0  0  0  0  0  0  0  0
  -27.0530  -16.1470   19.7660 H   0  0  0  0  0  0  0  0  0  0  0  0
  -31.6310  -18.5420   20.7830 O   0  0  0  0  0  0  0  0  0  0  0  0
  -31.4700  -19.4510   20.9910 H   0  0  0  0  0  0  0  0  0  0  0  0
  -28.7260  -25.1130   21.0330 C   0  0  0  0  0  2  0  0  0  0  0  0
  -28.5540  -26.4870   20.2820 O   0  0  0  0  0  0  0  0  0  0  0  0
  -24.6000  -32.0180   23.2530 C   0  0  0  0  0  0  0  0  0  0  0  0
  -27.4390  -27.4100   20.3290 C   0  0  0  0  0  0  0  0  0  0  0  0
  -23.5120  -30.5850   21.5660 C   0  0  0  0  0  3  0  0  0  0  0  0
  -25.0570  -29.0740   20.1870 C   0  0  0  0  0  0  0  0  0  0  0  0
  -26.0570  -30.9610   21.4780 C   0  0  0  0  0  2  0  0  0  0  0  0
  -26.1940  -29.5670   20.8420 C   0  0  0  0  0  0  0  0  0  0  0  0
  -27.3910  -28.7520   20.8860 C   0  0  0  0  0  3  0  0  0  0  0  0
  -26.2820  -27.0230   19.6250 C   0  0  0  0  0  3  0  0  0  0  0  0
  -25.1100  -27.8100   19.5650 C   0  0  0  0  0  3  0  0  0  0  0  0
  -23.7980  -29.9260   20.1910 C   0  0  0  0  0  2  0  0  0  0  0  0
  -24.7390  -31.2190   22.1510 N   0  0  0  0  0  0  0  0  0  0  0  0
  -23.4900  -32.2490   23.7540 O   0  0  0  0  0  0  0  0  0  0  0  0
  -22.8420  -29.5530   22.5030 C   0  0  0  0  0  0  0  0  0  0  0  0
  -21.5180  -29.3590   22.3470 N   0  0  0  0  0  0  0  0  0  0  0  0
  -23.5130  -28.9340   23.3310 O   0  0  0  0  0  0  0  0  0  0  0  0
  -21.0270  -29.9850   21.7310 H   0  0  0  0  0  0  0  0  0  0  0  0
  -18.1560  -28.0410   22.7500 C   0  0  0  0  0  0  0  0  0  0  0  0
  -20.7040  -28.3730   23.0580 C   0  0  0  0  0  3  0  0  0  0  0  0
  -20.8540  -26.9530   22.4510 C   0  0  0  0  0  2  0  0  0  0  0  0
  -19.7760  -26.6410   21.4160 C   0  0  0  0  0  2  0  0  0  0  0  0
  -18.3810  -26.7100   22.0420 C   0  0  0  0  0  2  0  0  0  0  0  0
  -19.2480  -28.8380   23.1940 C   0  0  0  0  0  0  0  0  0  0  0  0
  -18.9830  -30.0870   23.8010 C   0  0  0  0  0  3  0  0  0  0  0  0
  -17.6640  -30.5560   23.9380 C   0  0  0  0  0  3  0  0  0  0  0  0
  -16.5860  -29.7600   23.5180 C   0  0  0  0  0  3  0  0  0  0  0  0
  -16.8300  -28.5030   22.9280 C   0  0  0  0  0  3  0  0  0  0  0  0
  -25.8340  -32.6890   23.9330 C   0  0  0  0  0  3  0  0  0  0  0  0
  -26.2900  -31.9610   25.2600 C   0  0  1  0  0  0  0  0  0  0  0  0
  -25.1400  -31.7200   26.2690 C   0  0  0  0  0  1  0  0  0  0  0  0
  -26.9430  -30.5960   24.9470 C   0  0  0  0  0  1  0  0  0  0  0  0
  -27.3730  -32.8030   25.9790 C   0  0  0  0  0  1  0  0  0  0  0  0
  -25.4830  -34.0890   24.2230 N   0  0  0  0  0  0  0  0  0  0  0  0
  -25.8380  -35.1430   23.4710 C   0  0  0  0  0  0  0  0  0  0  0  0
  -26.5590  -35.0320   22.4760 O   0  0  0  0  0  0  0  0  0  0  0  0
  -24.8730  -34.2470   25.0130 H   0  0  0  0  0  0  0  0  0  0  0  0
  -24.1050  -36.9080   23.0010 C   0  0  0  0  0  1  0  0  0  0  0  0
  -25.3090  -36.5290   23.8820 C   0  0  0  0  0  3  0  0  0  0  0  0
  -27.3850  -37.4690   24.8030 C   0  0  0  0  0  1  0  0  0  0  0  0
  -26.3270  -37.5990   23.8060 N   0  0  0  0  0  0  0  0  0  0  0  0
  -25.8920  -38.5120   23.9190 H   0  0  0  0  0  0  0  0  0  0  0  0
  1  3  1  0
  2  1  1  0
  2  4  1  0
  2  5  1  0
  3 52  1  0
  4 11  1  0
  7  4  1  0
  7  3  1  0
  7  6  1  0
  7  8  1  6
 11  9  1  6
 11 10  1  0
 11 13  1  0
 12 14  1  0
 12 13  2  0
 13 50  1  0
 14 20  1  0
 15 20  1  0
 16 17  1  0
 16 15  1  0
 18 17  1  0
 18 25  1  0
 18 19  1  0
 20 19  1  0
 21 14  2  0
 22 23  2  0
 23 42  1  0
 24 23  1  0
 24 27  1  0
 25 26  1  0
 25 22  1  0
 26 24  2  0
 27 28  1  0
 28 29  2  0
 30 33  1  0
 30 29  1  0
 31 30  2  0
 32 31  1  0
 32 27  2  0
 33 34  1  0
 34 39  2  0
 34 35  1  0
 35 36  2  0
 36 37  1  0
 37 41  1  0
 38 37  2  0
 39 38  1  0
 40 39  1  0
 42 43  1  0
 43 46  1  0
 43 45  1  0
 44 42  2  0
 47 22  1  0
 47 48  1  0
 49 47  1  0
 50 51  1  0
 53 55  1  0
 53 52  1  0
 54 65  2  0
 55 60  1  0
 56 64  1  0
 56 66  1  0
 57 63  1  0
 57 59  1  0
 58 64  1  0
 59 60  2  0
 59 58  1  0
 61 55  2  0
 62 61  1  0
 62 57  2  0
 63 56  1  0
 64 54  1  0
 66 68  2  0
 67 66  1  0
 69 67  1  0
 70 79  2  0
 70 75  1  0
 71 67  1  0
 71 75  1  0
 72 71  1  0
 73 74  1  0
 73 72  1  0
 74 70  1  0
 75 76  2  0
 76 77  1  0
 78 77  2  0
 79 78  1  0
 80 54  1  0
 80 85  1  0
 80 81  1  0
 81 84  1  1
 81 82  1  0
 83 81  1  0
 85 88  1  0
 86 90  1  0
 86 85  1  0
 87 86  2  0
 90 89  1  0
 92 90  1  0
 92 93  1  0
 92 91  1  0
M  ISO  4  12 100  14 100  52 101  53 101
M  END
>  <TORSDO>  (95) 
F 20

>  <SCORE>  (95) 
-10.731

>  <name>  (95) 
95

>  <ligand_id>  (95) 
95

>  <original_smiles>  (95) 
[H]OC(=C([H])C(=O)N1C([H])([H])C([H])([H])C([H])([H])C([H])(n2nc(-c3c([H])c([H])c(Oc4c([H])c([H])c(F)c([H])c4F)c([H])c3[H])c(C(=O)N([H])[H])c2N([H])[H])C1([H])[H])C(C([H])([H])[H])(C([H])([H])[H])C1([H])C([H])(C([H])([H])[H])C([H])([H])C([H])(C([H])([H])Oc2c([H])c([H])c3c(c2[H])C([H])([H])N(C(=O)C([H])(N([H])C(=O)C([H])(N([H])C([H])([H])[H])C([H])([H])[H])C(C([H])([H])[H])(C([H])([H])[H])C([H])([H])[H])C([H])(C(=O)N([H])C2([H])c4c([H])c([H])c([H])c([H])c4C([H])([H])C([H])([H])C2([H])[H])C3([H])[H])[N+]1([H])C([H])([H])[H]

>  <smiles>  (95) 
[H]OC(=C([H])C(=O)N1C([H])([H])C([H])([H])C([H])([H])C([H])(n2nc(-c3c([H])c([H])c(Oc4c([H])c([H])c(F)c([H])c4F)c([H])c3[H])c(C(=O)N([H])[H])c2N([H])[H])C1([H])[H])C(C([H])([H])[H])(C([H])([H])[H])C1([H])C([H])(C([H])([H])[H])C([H])([H])C([H])(C([H])([H])Oc2c([H])c([H])c3c(c2[H])C([H])([H])N(C(=O)C([H])(N([H])C(=O)C([H])(N([H])C([H])([H])[H])C([H])([H])[H])C(C([H])([H])[H])(C([H])([H])[H])C([H])([H])[H])C([H])(C(=O)N([H])C2([H])c4c([H])c([H])c([H])c([H])c4C([H])([H])C([H])([H])C2([H])[H])C3([H])[H])[N+]1([H])C([H])([H])[H]

$$$$
