0:0:0
     RDKit          3D

 90 98  0  0  1  0  0  0  0  0999 V2000
  -31.1140  -23.9350   20.8390 C   0  0  0  0  0  2  0  0  0  0  0  0
  -30.0050  -23.0170   21.3550 C   0  0  0  0  0  2  0  0  0  0  0  0
  -29.9060  -23.0940   18.9260 C   0  0  0  0  0  2  0  0  0  0  0  0
  -31.3150  -23.4730   19.4000 C   0  0  0  0  0  3  0  0  0  0  0  0
  -29.0230  -22.8330   20.1770 C   0  0  1  0  0  0  0  0  0  0  0  0
  -32.0000  -24.5080   18.4960 C   0  0  0  0  0  1  0  0  0  0  0  0
  -28.6500  -21.1250   20.0430 C   0  0  0  0  0  0  0  0  0  0  0  0
  -29.4440  -19.9220   20.3610 N   0  0  0  0  0  0  0  0  0  0  0  0
  -27.5610  -20.8990   19.5140 O   0  0  0  0  0  0  0  0  0  0  0  0
  -30.2900  -20.1750   20.8570 H   0  0  0  0  0  0  0  0  0  0  0  0
  -29.4990  -18.3300   19.8690 C   0  0  0  0  0  2  0  0  0  0  0  0
  -29.7170  -16.7660   20.7020 C   0  0  0  0  0  2  0  0  0  0  0  0
  -30.4360  -15.2310   20.2680 C   0  0  0  0  0  0  0  0  0  0  0  0
  -30.3960  -12.7860   19.3900 C   0  0  0  0  0  2  0  0  0  0  0  0
  -29.4790  -12.6380   18.1470 C   0  0  0  0  0  2  0  0  0  0  0  0
  -28.0190  -12.3940   18.5640 C   0  0  0  0  0  2  0  0  0  0  0  0
  -27.5800  -13.3390   19.7110 C   0  0  0  0  0  3  0  0  0  0  0  0
  -28.6240  -13.4450   20.8430 C   0  0  0  0  0  2  0  0  0  0  0  0
  -29.8800  -13.9200   20.2430 N   0  0  0  0  0  0  0  0  0  0  0  0
  -31.6280  -15.2290   19.9310 O   0  0  0  0  0  0  0  0  0  0  0  0
  -25.2000  -13.9040   20.4310 C   0  0  0  0  0  0  0  0  0  0  0  0
  -24.1360  -13.1300   20.8020 C   0  0  0  0  0  0  0  0  0  0  0  0
  -24.6060  -11.7820   20.7960 C   0  0  0  0  0  0  0  0  0  0  0  0
  -26.2470  -13.0290   20.2100 N   0  0  0  0  0  0  0  0  0  0  0  0
  -25.9000  -11.7460   20.4980 N   0  0  0  0  0  0  0  0  0  0  0  0
  -23.8780  -10.5210   21.0000 C   0  0  0  0  0  0  0  0  0  0  0  0
  -24.3120   -9.5580   21.9380 C   0  0  0  0  0  3  0  0  0  0  0  0
  -23.5830   -8.3650   22.1300 C   0  0  0  0  0  3  0  0  0  0  0  0
  -22.4040   -8.1250   21.3830 C   0  0  0  0  0  0  0  0  0  0  0  0
  -21.9890   -9.0760   20.4330 C   0  0  0  0  0  3  0  0  0  0  0  0
  -22.7200  -10.2600   20.2410 C   0  0  0  0  0  3  0  0  0  0  0  0
  -21.6440   -6.9840   21.4830 O   0  0  0  0  0  0  0  0  0  0  0  0
  -21.6140   -6.2390   22.6340 C   0  0  0  0  0  0  0  0  0  0  0  0
  -21.2250   -6.7970   23.8730 C   0  0  0  0  0  3  0  0  0  0  0  0
  -21.1400   -5.9800   25.0160 C   0  0  0  0  0  3  0  0  0  0  0  0
  -21.4330   -4.6050   24.9240 C   0  0  0  0  0  0  0  0  0  0  0  0
  -21.8130   -4.0470   23.6920 C   0  0  0  0  0  3  0  0  0  0  0  0
  -21.9000   -4.8620   22.5490 C   0  0  0  0  0  0  0  0  0  0  0  0
  -22.2480   -4.3150   21.3610 F   0  0  0  0  0  0  0  0  0  0  0  0
  -21.3420   -3.8190   26.0240 F   0  0  0  0  0  0  0  0  0  0  0  0
  -22.7350  -13.6100   21.0480 C   0  0  0  0  0  0  0  0  0  0  0  0
  -21.9990  -12.9300   21.9190 N   0  0  0  0  0  0  0  0  0  0  0  0
  -22.3010  -14.6230   20.5020 O   0  0  0  0  0  0  0  0  0  0  0  0
  -22.3650  -12.1120   22.3840 H   0  0  0  0  0  0  0  0  0  0  0  0
  -21.0570  -13.2350   22.1280 H   0  0  0  0  0  0  0  0  0  0  0  0
  -25.3640  -15.2730   20.2360 N   0  0  0  0  0  0  0  0  0  0  0  0
  -24.5950  -15.9290   20.3280 H   0  0  0  0  0  0  0  0  0  0  0  0
  -26.2170  -15.7060   19.9110 H   0  0  0  0  0  0  0  0  0  0  0  0
  -27.9380  -24.2660   20.2030 C   0  0  0  0  0  2  0  0  0  0  0  0
  -28.1940  -25.8890   20.2370 O   0  0  0  0  0  0  0  0  0  0  0  0
  -24.6260  -31.8410   23.1890 C   0  0  0  0  0  0  0  0  0  0  0  0
  -27.1730  -26.9670   20.1900 C   0  0  0  0  0  0  0  0  0  0  0  0
  -23.4270  -30.4340   21.5650 C   0  0  0  0  0  3  0  0  0  0  0  0
  -24.8680  -28.8260   20.1470 C   0  0  0  0  0  0  0  0  0  0  0  0
  -25.9910  -30.6530   21.4070 C   0  0  0  0  0  2  0  0  0  0  0  0
  -26.0600  -29.2420   20.7560 C   0  0  0  0  0  0  0  0  0  0  0  0
  -27.2090  -28.3330   20.7520 C   0  0  0  0  0  3  0  0  0  0  0  0
  -25.9500  -26.6950   19.5410 C   0  0  0  0  0  3  0  0  0  0  0  0
  -24.8390  -27.5730   19.5180 C   0  0  0  0  0  3  0  0  0  0  0  0
  -23.6500  -29.7440   20.1920 C   0  0  0  0  0  2  0  0  0  0  0  0
  -24.7030  -31.0030   22.1070 N   0  0  0  0  0  0  0  0  0  0  0  0
  -23.5390  -32.1320   23.7130 O   0  0  0  0  0  0  0  0  0  0  0  0
  -22.7370  -29.4420   22.5370 C   0  0  0  0  0  0  0  0  0  0  0  0
  -21.4060  -29.2820   22.4220 N   0  0  0  0  0  0  0  0  0  0  0  0
  -23.4070  -28.8190   23.3650 O   0  0  0  0  0  0  0  0  0  0  0  0
  -20.9190  -29.8340   21.7300 H   0  0  0  0  0  0  0  0  0  0  0  0
  -18.0240  -28.0790   22.9520 C   0  0  0  0  0  0  0  0  0  0  0  0
  -20.5860  -28.3490   23.2030 C   0  0  0  0  0  3  0  0  0  0  0  0
  -20.6850  -26.9130   22.6400 C   0  0  0  0  0  2  0  0  0  0  0  0
  -19.5780  -26.5820   21.6330 C   0  0  0  0  0  2  0  0  0  0  0  0
  -18.2000  -26.7280   22.2820 C   0  0  0  0  0  2  0  0  0  0  0  0
  -19.1450  -28.8470   23.3700 C   0  0  0  0  0  0  0  0  0  0  0  0
  -18.9230  -30.1110   23.9610 C   0  0  0  0  0  3  0  0  0  0  0  0
  -17.6160  -30.6080   24.1340 C   0  0  0  0  0  3  0  0  0  0  0  0
  -16.5130  -29.8370   23.7290 C   0  0  0  0  0  3  0  0  0  0  0  0
  -16.7180  -28.5750   23.1450 C   0  0  0  0  0  3  0  0  0  0  0  0
  -25.8980  -32.4870   23.8140 C   0  0  0  0  0  3  0  0  0  0  0  0
  -26.4240  -31.7160   25.0880 C   0  0  1  0  0  0  0  0  0  0  0  0
  -25.3370  -31.4710   26.1610 C   0  0  0  0  0  1  0  0  0  0  0  0
  -27.0120  -30.3390   24.6980 C   0  0  0  0  0  1  0  0  0  0  0  0
  -27.5760  -32.5130   25.7450 C   0  0  0  0  0  1  0  0  0  0  0  0
  -25.5730  -33.8800   24.1650 N   0  0  0  0  0  0  0  0  0  0  0  0
  -25.8770  -34.9520   23.4180 C   0  0  0  0  0  0  0  0  0  0  0  0
  -26.5240  -34.8710   22.3720 O   0  0  0  0  0  0  0  0  0  0  0  0
  -24.9930  -34.0160   24.9800 H   0  0  0  0  0  0  0  0  0  0  0  0
  -24.1140  -36.7290   23.1510 C   0  0  0  0  0  1  0  0  0  0  0  0
  -25.3890  -36.3300   23.9110 C   0  0  0  0  0  3  0  0  0  0  0  0
  -27.5400  -37.2360   24.6740 C   0  0  0  0  0  1  0  0  0  0  0  0
  -26.4020  -37.3980   23.7730 N   0  0  0  0  0  0  0  0  0  0  0  0
  -25.9900  -38.3120   23.9450 H   0  0  0  0  0  0  0  0  0  0  0  0
  1  2  1  0
  3  4  1  0
  3  5  1  0
  4  6  1  0
  4  1  1  0
  5 49  1  1
  5  2  1  0
  7  5  1  0
  7  8  1  0
  8 10  1  0
  9  7  2  0
 11  8  1  0
 11 12  1  0
 13 12  1  0
 14 19  1  0
 15 16  1  0
 15 14  1  0
 17 16  1  0
 17 24  1  0
 17 18  1  0
 19 13  1  0
 19 18  1  0
 20 13  2  0
 21 22  2  0
 22 41  1  0
 23 22  1  0
 23 26  1  0
 24 21  1  0
 24 25  1  0
 25 23  2  0
 26 27  1  0
 27 28  2  0
 29 32  1  0
 29 28  1  0
 30 29  2  0
 31 30  1  0
 31 26  2  0
 32 33  1  0
 33 34  1  0
 34 35  2  0
 36 35  1  0
 36 40  1  0
 37 36  2  0
 38 33  2  0
 38 37  1  0
 39 38  1  0
 41 42  1  0
 42 45  1  0
 42 44  1  0
 43 41  2  0
 46 47  1  0
 46 21  1  0
 48 46  1  0
 49 50  1  0
 51 62  2  0
 52 50  1  0
 52 57  1  0
 53 61  1  0
 53 63  1  0
 54 60  1  0
 54 56  1  0
 55 61  1  0
 56 55  1  0
 57 56  2  0
 58 52  2  0
 59 58  1  0
 59 54  2  0
 60 53  1  0
 61 51  1  0
 63 65  2  0
 64 63  1  0
 66 64  1  0
 67 76  2  0
 67 72  1  0
 68 64  1  0
 68 72  1  0
 69 68  1  0
 70 71  1  0
 70 69  1  0
 71 67  1  0
 72 73  2  0
 73 74  1  0
 75 74  2  0
 76 75  1  0
 77 51  1  0
 77 82  1  0
 77 78  1  0
 78 81  1  1
 78 79  1  0
 80 78  1  0
 82 85  1  0
 83 87  1  0
 83 82  1  0
 84 83  2  0
 87 86  1  0
 89 87  1  0
 89 90  1  0
 89 88  1  0
M  ISO  4  12 100  13 100  49 101  50 101
M  END
>  <TORSDO>  (1) 
F 20

>  <SCORE>  (1) 
-15.844

>  <name>  (1) 
0

>  <ligand_id>  (1) 
0

>  <original_smiles>  (1) 
[H]c1c([H])c([H])c2c(c1[H])C([H])([H])C([H])([H])C([H])([H])C2([H])N([H])C(=O)C1([H])N(C(=O)C([H])(N([H])C(=O)C([H])(N([H])C([H])([H])[H])C([H])([H])[H])C(C([H])([H])[H])(C([H])([H])[H])C([H])([H])[H])C([H])([H])c2c([H])c(OC([H])([H])C3(C(=O)N([H])C([H])([H])C([H])([H])C(=O)N4C([H])([H])C([H])([H])C([H])([H])C([H])(n5nc(-c6c([H])c([H])c(Oc7c([H])c([H])c(F)c([H])c7F)c([H])c6[H])c(C(=O)N([H])[H])c5N([H])[H])C4([H])[H])C([H])([H])C([H])([H])C([H])(C([H])([H])[H])C3([H])[H])c([H])c([H])c2C1([H])[H]

>  <smiles>  (1) 
[H]c1c([H])c([H])c2c(c1[H])C([H])([H])C([H])([H])C([H])([H])C2([H])N([H])C(=O)C1([H])N(C(=O)C([H])(N([H])C(=O)C([H])(N([H])C([H])([H])[H])C([H])([H])[H])C(C([H])([H])[H])(C([H])([H])[H])C([H])([H])[H])C([H])([H])c2c([H])c(OC([H])([H])C3(C(=O)N([H])C([H])([H])C([H])([H])C(=O)N4C([H])([H])C([H])([H])C([H])([H])C([H])(n5nc(-c6c([H])c([H])c(Oc7c([H])c([H])c(F)c([H])c7F)c([H])c6[H])c(C(=O)N([H])[H])c5N([H])[H])C4([H])[H])C([H])([H])C([H])([H])C([H])(C([H])([H])[H])C3([H])[H])c([H])c([H])c2C1([H])[H]

$$$$
1:0:0
     RDKit          3D

 91100  0  0  1  0  0  0  0  0999 V2000
  -28.7510  -21.1700   19.9060 C   0  0  0  0  0  3  0  0  0  0  0  0
  -24.4190  -20.2800   17.8760 C   0  0  0  0  0  2  0  0  0  0  0  0
  -25.1450  -20.7090   16.6120 C   0  0  0  0  0  2  0  0  0  0  0  0
  -26.9350  -19.7690   18.4680 C   0  0  0  0  0  2  0  0  0  0  0  0
  -26.3450  -21.8080   18.8260 C   0  0  0  0  0  2  0  0  0  0  0  0
  -27.2870  -20.8180   19.5390 C   0  0  0  0  0  3  0  0  0  0  0  0
  -25.8690  -20.6900   17.9310 C   0  0  2  0  0  0  0  0  0  0  0  0
  -29.3470  -19.8330   20.6560 N   0  0  0  0  0  4  0  0  0  0  0  0
  -30.1810  -20.1420   21.1290 H   0  0  0  0  0  0  0  0  0  0  0  0
  -28.6910  -19.6270   21.3920 H   0  0  0  0  0  0  0  0  0  0  0  0
  -29.7550  -18.3790   19.9910 C   0  0  0  0  0  3  0  0  0  0  0  0
  -29.7770  -16.7690   20.7170 C   0  0  0  0  0  3  0  0  0  0  0  0
  -30.5390  -15.2840   20.2680 C   0  0  0  0  0  0  0  0  0  0  0  0
  -30.4980  -12.8760   19.3310 C   0  0  0  0  0  2  0  0  0  0  0  0
  -29.5680  -12.7720   18.0940 C   0  0  0  0  0  2  0  0  0  0  0  0
  -28.1110  -12.5230   18.5200 C   0  0  0  0  0  2  0  0  0  0  0  0
  -27.6870  -13.4440   19.6910 C   0  0  0  0  0  3  0  0  0  0  0  0
  -28.7390  -13.5020   20.8200 C   0  0  0  0  0  2  0  0  0  0  0  0
  -29.9940  -13.9780   20.2230 N   0  0  0  0  0  0  0  0  0  0  0  0
  -31.7260  -15.3210   19.9120 O   0  0  0  0  0  0  0  0  0  0  0  0
  -25.3070  -13.9960   20.4310 C   0  0  0  0  0  0  0  0  0  0  0  0
  -24.2490  -13.2150   20.8030 C   0  0  0  0  0  0  0  0  0  0  0  0
  -24.7250  -11.8670   20.7810 C   0  0  0  0  0  0  0  0  0  0  0  0
  -26.3560  -13.1270   20.1940 N   0  0  0  0  0  0  0  0  0  0  0  0
  -26.0170  -11.8400   20.4740 N   0  0  0  0  0  0  0  0  0  0  0  0
  -24.0060  -10.6000   20.9780 C   0  0  0  0  0  0  0  0  0  0  0  0
  -24.4290   -9.6500   21.9320 C   0  0  0  0  0  3  0  0  0  0  0  0
  -23.7090   -8.4500   22.1160 C   0  0  0  0  0  3  0  0  0  0  0  0
  -22.5490   -8.1910   21.3450 C   0  0  0  0  0  0  0  0  0  0  0  0
  -22.1470   -9.1310   20.3800 C   0  0  0  0  0  3  0  0  0  0  0  0
  -22.8680  -10.3220   20.1940 C   0  0  0  0  0  3  0  0  0  0  0  0
  -21.8010   -7.0430   21.4370 O   0  0  0  0  0  0  0  0  0  0  0  0
  -21.7290   -6.3230   22.6030 C   0  0  0  0  0  0  0  0  0  0  0  0
  -21.2530   -6.8960   23.8040 C   0  0  0  0  0  3  0  0  0  0  0  0
  -21.1290   -6.1020   24.9610 C   0  0  0  0  0  3  0  0  0  0  0  0
  -21.4700   -4.7360   24.9200 C   0  0  0  0  0  0  0  0  0  0  0  0
  -21.9380   -4.1630   23.7240 C   0  0  0  0  0  3  0  0  0  0  0  0
  -22.0640   -4.9550   22.5690 C   0  0  0  0  0  0  0  0  0  0  0  0
  -22.4950   -4.3930   21.4130 F   0  0  0  0  0  0  0  0  0  0  0  0
  -21.3430   -3.9710   26.0290 F   0  0  0  0  0  0  0  0  0  0  0  0
  -22.8480  -13.6830   21.0650 C   0  0  0  0  0  0  0  0  0  0  0  0
  -22.1220  -12.9900   21.9340 N   0  0  0  0  0  0  0  0  0  0  0  0
  -22.4050  -14.7010   20.5330 O   0  0  0  0  0  0  0  0  0  0  0  0
  -22.4930  -12.1660   22.3850 H   0  0  0  0  0  0  0  0  0  0  0  0
  -21.1810  -13.2860   22.1530 H   0  0  0  0  0  0  0  0  0  0  0  0
  -25.4630  -15.3670   20.2450 N   0  0  0  0  0  0  0  0  0  0  0  0
  -24.6900  -16.0170   20.3420 H   0  0  0  0  0  0  0  0  0  0  0  0
  -26.3070  -15.8010   19.8970 H   0  0  0  0  0  0  0  0  0  0  0  0
  -28.8130  -22.8950   20.4220 C   0  0  0  0  0  3  0  0  0  0  0  0
  -27.9410  -24.4540   20.1880 C   0  0  0  0  0  3  0  0  0  0  0  0
  -28.2350  -26.0340   20.4080 O   0  0  0  0  0  0  0  0  0  0  0  0
  -24.6280  -31.9400   23.2980 C   0  0  0  0  0  0  0  0  0  0  0  0
  -27.2210  -27.1070   20.3210 C   0  0  0  0  0  0  0  0  0  0  0  0
  -23.4510  -30.5380   21.6520 C   0  0  0  0  0  3  0  0  0  0  0  0
  -24.9150  -28.9450   20.2470 C   0  0  0  0  0  0  0  0  0  0  0  0
  -26.0150  -30.7700   21.5260 C   0  0  0  0  0  2  0  0  0  0  0  0
  -26.0940  -29.3650   20.8750 C   0  0  0  0  0  0  0  0  0  0  0  0
  -27.2450  -28.4640   20.8890 C   0  0  0  0  0  3  0  0  0  0  0  0
  -26.0130  -26.8250   19.6440 C   0  0  0  0  0  3  0  0  0  0  0  0
  -24.8960  -27.6950   19.6110 C   0  0  0  0  0  3  0  0  0  0  0  0
  -23.6920  -29.8550   20.2790 C   0  0  0  0  0  2  0  0  0  0  0  0
  -24.7180  -31.1090   22.2120 N   0  0  0  0  0  0  0  0  0  0  0  0
  -23.5340  -32.2270   23.8110 O   0  0  0  0  0  0  0  0  0  0  0  0
  -22.7550  -29.5390   22.6120 C   0  0  0  0  0  0  0  0  0  0  0  0
  -21.4280  -29.3640   22.4710 N   0  0  0  0  0  0  0  0  0  0  0  0
  -23.4150  -28.9230   23.4520 O   0  0  0  0  0  0  0  0  0  0  0  0
  -20.9490  -29.9130   21.7700 H   0  0  0  0  0  0  0  0  0  0  0  0
  -18.0460  -28.1430   22.9440 C   0  0  0  0  0  0  0  0  0  0  0  0
  -20.6010  -28.4270   23.2370 C   0  0  0  0  0  3  0  0  0  0  0  0
  -20.7180  -26.9910   22.6740 C   0  0  0  0  0  2  0  0  0  0  0  0
  -19.6300  -26.6560   21.6480 C   0  0  0  0  0  2  0  0  0  0  0  0
  -18.2410  -26.7930   22.2740 C   0  0  0  0  0  2  0  0  0  0  0  0
  -19.1550  -28.9160   23.3830 C   0  0  0  0  0  0  0  0  0  0  0  0
  -18.9170  -30.1780   23.9710 C   0  0  0  0  0  3  0  0  0  0  0  0
  -17.6070  -30.6660   24.1240 C   0  0  0  0  0  3  0  0  0  0  0  0
  -16.5130  -29.8910   23.7000 C   0  0  0  0  0  3  0  0  0  0  0  0
  -16.7340  -28.6310   23.1160 C   0  0  0  0  0  3  0  0  0  0  0  0
  -25.8940  -32.5850   23.9390 C   0  0  0  0  0  3  0  0  0  0  0  0
  -25.5790  -33.9910   24.2450 N   0  0  0  0  0  0  0  0  0  0  0  0
  -25.9100  -35.0370   23.4740 C   0  0  0  0  0  0  0  0  0  0  0  0
  -26.5770  -34.9180   22.4430 O   0  0  0  0  0  0  0  0  0  0  0  0
  -24.9870  -34.1570   25.0450 H   0  0  0  0  0  0  0  0  0  0  0  0
  -24.1740  -36.8260   23.1190 C   0  0  0  0  0  1  0  0  0  0  0  0
  -25.4280  -36.4340   23.9160 C   0  0  0  0  0  3  0  0  0  0  0  0
  -27.5700  -37.3430   24.7040 C   0  0  0  0  0  1  0  0  0  0  0  0
  -26.4570  -37.4860   23.7690 N   0  0  0  0  0  0  0  0  0  0  0  0
  -26.0510  -38.4100   23.9000 H   0  0  0  0  0  0  0  0  0  0  0  0
  -26.3750  -31.8400   25.2460 C   0  0  1  0  0  0  0  0  0  0  0  0
  -25.2560  -31.6310   26.2920 C   0  0  0  0  0  1  0  0  0  0  0  0
  -26.9610  -30.4510   24.9070 C   0  0  0  0  0  1  0  0  0  0  0  0
  -27.5140  -32.6430   25.9180 C   0  0  0  0  0  1  0  0  0  0  0  0
  1 49  1  0
  1  8  1  0
  7  2  1  1
  3  2  1  0
  3  7  1  0
  4  6  1  0
  5  6  1  0
  6  1  1  0
  7  4  1  0
  7  5  1  0
  8  9  1  0
  8 10  1  0
 11  8  1  0
 11 12  2  0
 13 12  1  0
 14 19  1  0
 15 16  1  0
 15 14  1  0
 17 16  1  0
 17 24  1  0
 17 18  1  0
 19 13  1  0
 19 18  1  0
 20 13  2  0
 21 22  2  0
 22 41  1  0
 23 22  1  0
 23 26  1  0
 24 21  1  0
 24 25  1  0
 25 23  2  0
 26 27  1  0
 27 28  2  0
 29 32  1  0
 29 28  1  0
 30 29  2  0
 31 30  1  0
 31 26  2  0
 32 33  1  0
 33 34  1  0
 34 35  2  0
 36 35  1  0
 36 40  1  0
 37 36  2  0
 38 33  2  0
 38 37  1  0
 39 38  1  0
 41 42  1  0
 42 45  1  0
 42 44  1  0
 43 41  2  0
 46 47  1  0
 46 21  1  0
 48 46  1  0
 50 51  1  0
 50 49  2  0
 52 63  2  0
 53 51  1  0
 53 58  1  0
 54 62  1  0
 54 64  1  0
 55 61  1  0
 55 57  1  0
 56 62  1  0
 57 58  2  0
 57 56  1  0
 59 53  2  0
 60 59  1  0
 60 55  2  0
 61 54  1  0
 62 52  1  0
 64 66  2  0
 65 64  1  0
 67 65  1  0
 68 77  2  0
 68 73  1  0
 69 65  1  0
 69 73  1  0
 70 69  1  0
 71 72  1  0
 71 70  1  0
 72 68  1  0
 73 74  2  0
 74 75  1  0
 76 75  2  0
 77 76  1  0
 78 52  1  0
 78 79  1  0
 78 88  1  0
 79 82  1  0
 80 84  1  0
 80 79  1  0
 81 80  2  0
 84 83  1  0
 86 87  1  0
 86 84  1  0
 86 85  1  0
 88 91  1  1
 88 89  1  0
 90 88  1  0
M  ISO  4  12 100  13 100  50 101  51 101
M  END
>  <TORSDO>  (2) 
F 22

>  <SCORE>  (2) 
-14.085

>  <name>  (2) 
1

>  <ligand_id>  (2) 
1

>  <original_smiles>  (2) 
[H]c1c([H])c([H])c2c(c1[H])C([H])([H])C([H])([H])C([H])([H])C2([H])N([H])C(=O)C1([H])N(C(=O)C([H])(N([H])C(=O)C([H])(N([H])C([H])([H])[H])C([H])([H])[H])C(C([H])([H])[H])(C([H])([H])[H])C([H])([H])[H])C([H])([H])c2c([H])c(OC([H])([H])C([H])([H])C([H])(C3([H])C([H])([H])C4(C([H])([H])C4([H])[H])C3([H])[H])[N+]([H])([H])C([H])([H])C([H])([H])C(=O)N3C([H])([H])C([H])([H])C([H])([H])C([H])(n4nc(-c5c([H])c([H])c(Oc6c([H])c([H])c(F)c([H])c6F)c([H])c5[H])c(C(=O)N([H])[H])c4N([H])[H])C3([H])[H])c([H])c([H])c2C1([H])[H]

>  <smiles>  (2) 
[H]c1c([H])c([H])c2c(c1[H])C([H])([H])C([H])([H])C([H])([H])C2([H])N([H])C(=O)C1([H])N(C(=O)C([H])(N([H])C(=O)C([H])(N([H])C([H])([H])[H])C([H])([H])[H])C(C([H])([H])[H])(C([H])([H])[H])C([H])([H])[H])C([H])([H])c2c([H])c(OC([H])([H])C([H])([H])C([H])(C3([H])C([H])([H])C4(C([H])([H])C4([H])[H])C3([H])[H])[N+]([H])([H])C([H])([H])C([H])([H])C(=O)N3C([H])([H])C([H])([H])C([H])([H])C([H])(n4nc(-c5c([H])c([H])c(Oc6c([H])c([H])c(F)c([H])c6F)c([H])c5[H])c(C(=O)N([H])[H])c4N([H])[H])C3([H])[H])c([H])c([H])c2C1([H])[H]

$$$$
2:0:0
     RDKit          3D

 91 98  0  0  1  0  0  0  0  0999 V2000
  -31.2500  -14.7100   16.7580 C   0  0  0  0  0  3  0  0  0  0  0  0
  -30.6270  -16.3820   17.2920 C   0  0  0  0  0  3  0  0  0  0  0  0
  -30.8910  -12.9980   17.4250 C   0  0  0  0  0  3  0  0  0  0  0  0
  -28.6400  -15.4870   19.4020 C   0  0  0  0  0  2  0  0  0  0  0  0
  -29.3430  -16.9720   18.4540 C   0  0  0  0  0  0  0  0  0  0  0  0
  -29.5970  -12.7630   18.7730 C   0  0  0  0  0  2  0  0  0  0  0  0
  -29.0240  -10.3080   19.6540 C   0  0  0  0  0  1  0  0  0  0  0  0
  -30.0590  -11.4630   19.6340 C   0  0  0  0  0  3  0  0  0  0  0  0
  -30.9630  -12.5110   21.9140 C   0  0  0  0  0  3  0  0  0  0  0  0
  -30.7910  -11.5210   21.0010 C   0  0  0  0  0  3  0  0  0  0  0  0
  -30.4870  -13.8670   21.7360 C   0  0  0  0  0  0  0  0  0  0  0  0
  -29.6060  -14.5910   19.7190 C   0  0  0  0  0  2  0  0  0  0  0  0
  -27.7290  -14.1530   18.1220 C   0  0  0  0  0  1  0  0  0  0  0  0
  -26.4730  -13.1300   18.9160 C   0  0  0  0  0  2  0  0  0  0  0  0
  -26.6390  -12.7770   20.6170 C   0  0  0  0  0  0  0  0  0  0  0  0
  -28.0040  -13.0080   21.6610 C   0  0  0  0  0  3  0  0  0  0  0  0
  -29.3220  -13.8760   21.2000 N   0  0  0  0  0  0  0  0  0  0  0  0
  -31.2430  -14.8310   21.6090 O   0  0  0  0  0  0  0  0  0  0  0  0
  -24.2100  -13.0930   21.1800 C   0  0  0  0  0  0  0  0  0  0  0  0
  -23.2640  -12.1900   21.5150 C   0  0  0  0  0  0  0  0  0  0  0  0
  -23.9230  -10.9240   21.5160 C   0  0  0  0  0  0  0  0  0  0  0  0
  -25.3810  -12.3350   21.0600 N   0  0  0  0  0  0  0  0  0  0  0  0
  -25.2140  -11.0300   21.2660 N   0  0  0  0  0  0  0  0  0  0  0  0
  -23.3930   -9.5920   21.6880 C   0  0  0  0  0  0  0  0  0  0  0  0
  -23.9250   -8.7230   22.6610 C   0  0  0  0  0  3  0  0  0  0  0  0
  -23.3770   -7.4380   22.8240 C   0  0  0  0  0  3  0  0  0  0  0  0
  -22.2940   -7.0270   22.0130 C   0  0  0  0  0  0  0  0  0  0  0  0
  -21.7930   -7.8930   21.0250 C   0  0  0  0  0  3  0  0  0  0  0  0
  -22.3410   -9.1690   20.8580 C   0  0  0  0  0  3  0  0  0  0  0  0
  -21.7050   -5.7920   22.0900 O   0  0  0  0  0  0  0  0  0  0  0  0
  -21.6840   -5.0900   23.2660 C   0  0  0  0  0  0  0  0  0  0  0  0
  -21.1050   -5.6180   24.4410 C   0  0  0  0  0  3  0  0  0  0  0  0
  -21.0430   -4.8280   25.6070 C   0  0  0  0  0  3  0  0  0  0  0  0
  -21.5510   -3.5150   25.5950 C   0  0  0  0  0  0  0  0  0  0  0  0
  -22.1280   -2.9910   24.4240 C   0  0  0  0  0  3  0  0  0  0  0  0
  -22.1930   -3.7780   23.2630 C   0  0  0  0  0  0  0  0  0  0  0  0
  -22.7310   -3.2650   22.1290 F   0  0  0  0  0  0  0  0  0  0  0  0
  -21.4820   -2.7520   26.7110 F   0  0  0  0  0  0  0  0  0  0  0  0
  -21.8200  -12.4970   21.7320 C   0  0  0  0  0  0  0  0  0  0  0  0
  -21.1650  -11.7310   22.5920 N   0  0  0  0  0  0  0  0  0  0  0  0
  -21.2830  -13.4600   21.1870 O   0  0  0  0  0  0  0  0  0  0  0  0
  -21.6190  -10.9620   23.0600 H   0  0  0  0  0  0  0  0  0  0  0  0
  -20.1930  -11.9220   22.7900 H   0  0  0  0  0  0  0  0  0  0  0  0
  -24.1500  -14.4760   20.9680 N   0  0  0  0  0  0  0  0  0  0  0  0
  -23.2770  -14.9860   21.0340 H   0  0  0  0  0  0  0  0  0  0  0  0
  -24.9300  -15.0580   20.6930 H   0  0  0  0  0  0  0  0  0  0  0  0
  -29.4450  -18.8010   19.0520 C   0  0  0  0  0  3  0  0  0  0  0  0
  -28.6730  -20.5450   18.8740 C   0  0  0  0  0  3  0  0  0  0  0  0
  -28.9660  -22.3460   19.4630 C   0  0  0  0  0  3  0  0  0  0  0  0
  -28.1240  -24.0690   19.4790 C   0  0  0  0  0  3  0  0  0  0  0  0
  -28.3860  -25.7190   19.9710 O   0  0  0  0  0  0  0  0  0  0  0  0
  -24.9170  -31.8610   23.3360 C   0  0  0  0  0  0  0  0  0  0  0  0
  -27.4400  -26.9280   20.0690 C   0  0  0  0  0  0  0  0  0  0  0  0
  -23.7390  -30.5180   21.6550 C   0  0  0  0  0  3  0  0  0  0  0  0
  -25.1800  -28.9270   20.1880 C   0  0  0  0  0  0  0  0  0  0  0  0
  -26.3230  -30.6590   21.5490 C   0  0  0  0  0  2  0  0  0  0  0  0
  -26.3820  -29.2590   20.8240 C   0  0  0  0  0  0  0  0  0  0  0  0
  -27.5050  -28.2810   20.7420 C   0  0  0  0  0  3  0  0  0  0  0  0
  -26.1920  -26.7900   19.4300 C   0  0  0  0  0  3  0  0  0  0  0  0
  -25.1170  -27.7150   19.4850 C   0  0  0  0  0  3  0  0  0  0  0  0
  -23.9780  -29.8740   20.2640 C   0  0  0  0  0  2  0  0  0  0  0  0
  -25.0190  -31.0420   22.2330 N   0  0  0  0  0  0  0  0  0  0  0  0
  -23.8200  -32.1470   23.8440 O   0  0  0  0  0  0  0  0  0  0  0  0
  -23.0190  -29.5060   22.5860 C   0  0  0  0  0  0  0  0  0  0  0  0
  -21.6890  -29.3530   22.4400 N   0  0  0  0  0  0  0  0  0  0  0  0
  -23.6680  -28.8590   23.4120 O   0  0  0  0  0  0  0  0  0  0  0  0
  -21.2160  -29.9280   21.7560 H   0  0  0  0  0  0  0  0  0  0  0  0
  -18.2990  -28.1200   22.8660 C   0  0  0  0  0  0  0  0  0  0  0  0
  -20.8540  -28.3950   23.1750 C   0  0  0  0  0  3  0  0  0  0  0  0
  -20.9710  -26.9770   22.5680 C   0  0  0  0  0  2  0  0  0  0  0  0
  -19.8880  -26.6730   21.5290 C   0  0  0  0  0  2  0  0  0  0  0  0
  -18.4950  -26.7910   22.1550 C   0  0  0  0  0  2  0  0  0  0  0  0
  -19.4060  -28.8800   23.3310 C   0  0  0  0  0  0  0  0  0  0  0  0
  -19.1670  -30.1200   23.9600 C   0  0  0  0  0  3  0  0  0  0  0  0
  -17.8550  -30.6030   24.1270 C   0  0  0  0  0  3  0  0  0  0  0  0
  -16.7630  -29.8410   23.6750 C   0  0  0  0  0  3  0  0  0  0  0  0
  -16.9850  -28.6010   23.0520 C   0  0  0  0  0  3  0  0  0  0  0  0
  -26.1740  -32.4920   24.0080 C   0  0  0  0  0  3  0  0  0  0  0  0
  -25.8380  -33.8730   24.4040 N   0  0  0  0  0  0  0  0  0  0  0  0
  -26.1650  -34.9760   23.7150 C   0  0  0  0  0  0  0  0  0  0  0  0
  -26.8400  -34.9360   22.6840 O   0  0  0  0  0  0  0  0  0  0  0  0
  -25.2350  -33.9750   25.2070 H   0  0  0  0  0  0  0  0  0  0  0  0
  -24.4200  -36.7810   23.4760 C   0  0  0  0  0  1  0  0  0  0  0  0
  -25.6700  -36.3360   24.2530 C   0  0  0  0  0  3  0  0  0  0  0  0
  -27.8020  -37.2010   25.1180 C   0  0  0  0  0  1  0  0  0  0  0  0
  -26.6920  -37.4050   24.1890 N   0  0  0  0  0  0  0  0  0  0  0  0
  -26.2770  -38.3120   24.3860 H   0  0  0  0  0  0  0  0  0  0  0  0
  -26.6690  -31.6810   25.2700 C   0  0  1  0  0  0  0  0  0  0  0  0
  -25.5590  -31.4100   26.3140 C   0  0  0  0  0  1  0  0  0  0  0  0
  -27.2610  -30.3160   24.8560 C   0  0  0  0  0  1  0  0  0  0  0  0
  -27.8080  -32.4550   25.9750 C   0  0  0  0  0  1  0  0  0  0  0  0
  1  2  1  0
  1  3  2  0
  2  5  2  0
  3  6  1  0
  4 12  1  0
  5 47  1  0
  5  4  1  0
  6  8  1  0
  8  7  1  0
  8 10  1  0
 10  9  2  0
 11  9  1  0
 12 17  1  0
 13 14  1  0
 14 15  1  0
 15 22  1  0
 15 16  2  0
 17 16  1  0
 17 11  1  0
 18 11  2  0
 19 20  2  0
 20 21  1  0
 20 39  1  0
 21 24  1  0
 22 19  1  0
 22 23  1  0
 23 21  2  0
 24 25  1  0
 25 26  2  0
 27 30  1  0
 27 26  1  0
 28 27  2  0
 29 28  1  0
 29 24  2  0
 30 31  1  0
 31 32  1  0
 32 33  2  0
 34 33  1  0
 34 38  1  0
 35 34  2  0
 36 31  2  0
 36 35  1  0
 37 36  1  0
 39 40  1  0
 40 43  1  0
 40 42  1  0
 41 39  2  0
 44 45  1  0
 44 19  1  0
 46 44  1  0
 48 47  2  0
 48 49  1  0
 49 50  2  0
 50 51  1  0
 51 53  1  0
 52 63  2  0
 53 58  1  0
 54 62  1  0
 54 64  1  0
 55 61  1  0
 55 57  1  0
 56 62  1  0
 57 56  1  0
 58 57  2  0
 59 60  1  0
 59 53  2  0
 60 55  2  0
 61 54  1  0
 62 52  1  0
 64 66  2  0
 65 64  1  0
 67 65  1  0
 68 77  2  0
 68 73  1  0
 69 65  1  0
 69 73  1  0
 70 69  1  0
 71 72  1  0
 71 70  1  0
 72 68  1  0
 73 74  2  0
 74 75  1  0
 76 75  2  0
 77 76  1  0
 78 52  1  0
 78 79  1  0
 78 88  1  0
 79 82  1  0
 80 84  1  0
 80 79  1  0
 81 80  2  0
 84 83  1  0
 86 84  1  0
 86 87  1  0
 86 85  1  0
 88 91  1  1
 88 89  1  0
 90 88  1  0
M  ISO  4   9 100  11 100  50 101  51 101
M  END
>  <TORSDO>  (3) 
F 22

>  <SCORE>  (3) 
-8.209

>  <name>  (3) 
2

>  <ligand_id>  (3) 
2

>  <original_smiles>  (3) 
[H]C(C(=O)N1C([H])([H])C([H])([H])C([H])([H])C([H])(n2nc(-c3c([H])c([H])c(Oc4c([H])c([H])c(F)c([H])c4F)c([H])c3[H])c(C(=O)N([H])[H])c2N([H])[H])C1([H])[H])=C([H])C([H])(C([H])([H])[H])C1([H])C([H])([H])C([H])([H])C([H])([H])C([H])(C([H])([H])C([H])([H])C([H])([H])C([H])([H])Oc2c([H])c([H])c3c(c2[H])C([H])([H])N(C(=O)C([H])(N([H])C(=O)C([H])(N([H])C([H])([H])[H])C([H])([H])[H])C(C([H])([H])[H])(C([H])([H])[H])C([H])([H])[H])C([H])(C(=O)N([H])C2([H])c4c([H])c([H])c([H])c([H])c4C([H])([H])C([H])([H])C2([H])[H])C3([H])[H])C1([H])[H]

>  <smiles>  (3) 
[H]C(C(=O)N1C([H])([H])C([H])([H])C([H])([H])C([H])(n2nc(-c3c([H])c([H])c(Oc4c([H])c([H])c(F)c([H])c4F)c([H])c3[H])c(C(=O)N([H])[H])c2N([H])[H])C1([H])[H])=C([H])C([H])(C([H])([H])[H])C1([H])C([H])([H])C([H])([H])C([H])([H])C([H])(C([H])([H])C([H])([H])C([H])([H])C([H])([H])Oc2c([H])c([H])c3c(c2[H])C([H])([H])N(C(=O)C([H])(N([H])C(=O)C([H])(N([H])C([H])([H])[H])C([H])([H])[H])C(C([H])([H])[H])(C([H])([H])[H])C([H])([H])[H])C([H])(C(=O)N([H])C2([H])c4c([H])c([H])c([H])c([H])c4C([H])([H])C([H])([H])C2([H])[H])C3([H])[H])C1([H])[H]

$$$$
3:0:0
     RDKit          3D

 91 99  0  0  1  0  0  0  0  0999 V2000
  -29.4140  -20.8130   20.8570 N   0  0  0  0  0  4  0  0  0  0  0  0
  -29.1100  -20.6520   19.9100 H   0  0  0  0  0  0  0  0  0  0  0  0
  -28.5970  -20.7660   21.4420 H   0  0  0  0  0  0  0  0  0  0  0  0
  -29.9900  -22.1890   20.9170 C   0  0  0  0  0  2  0  0  0  0  0  0
  -28.9300  -23.3270   20.8490 C   0  0  0  0  0  2  0  0  0  0  0  0
  -29.5270  -24.7400   21.0970 C   0  0  0  0  0  2  0  0  0  0  0  0
  -28.5050  -25.8940   21.2730 C   0  0  0  0  0  2  0  0  0  0  0  0
  -28.3480  -26.7060   20.1050 O   0  0  0  0  0  0  0  0  0  0  0  0
  -24.6160  -31.9150   23.2580 C   0  0  0  0  0  0  0  0  0  0  0  0
  -27.2100  -27.4780   20.1360 C   0  0  0  0  0  0  0  0  0  0  0  0
  -23.3830  -30.5160   21.6300 C   0  0  0  0  0  3  0  0  0  0  0  0
  -24.8170  -28.9780   20.1830 C   0  0  0  0  0  0  0  0  0  0  0  0
  -25.9060  -30.8740   21.3970 C   0  0  0  0  0  2  0  0  0  0  0  0
  -25.9840  -29.5030   20.7580 C   0  0  0  0  0  0  0  0  0  0  0  0
  -27.1850  -28.7580   20.7360 C   0  0  0  0  0  3  0  0  0  0  0  0
  -26.0340  -26.9660   19.5530 C   0  0  0  0  0  3  0  0  0  0  0  0
  -24.8370  -27.7080   19.5790 C   0  0  0  0  0  3  0  0  0  0  0  0
  -23.5740  -29.8370   20.2470 C   0  0  0  0  0  2  0  0  0  0  0  0
  -24.6540  -31.1160   22.1530 N   0  0  0  0  0  0  0  0  0  0  0  0
  -23.5430  -32.1870   23.8140 O   0  0  0  0  0  0  0  0  0  0  0  0
  -22.7440  -29.4950   22.5990 C   0  0  0  0  0  0  0  0  0  0  0  0
  -21.4240  -29.2890   22.4660 N   0  0  0  0  0  0  0  0  0  0  0  0
  -23.4330  -28.8910   23.4250 O   0  0  0  0  0  0  0  0  0  0  0  0
  -20.9290  -29.8290   21.7700 H   0  0  0  0  0  0  0  0  0  0  0  0
  -18.0760  -28.0090   22.9190 C   0  0  0  0  0  0  0  0  0  0  0  0
  -20.6190  -28.3460   23.2410 C   0  0  0  0  0  3  0  0  0  0  0  0
  -20.7760  -26.9060   22.7010 C   0  0  0  0  0  2  0  0  0  0  0  0
  -19.7060  -26.5290   21.6710 C   0  0  0  0  0  2  0  0  0  0  0  0
  -18.3060  -26.6480   22.2810 C   0  0  0  0  0  2  0  0  0  0  0  0
  -19.1630  -28.8120   23.3560 C   0  0  0  0  0  0  0  0  0  0  0  0
  -18.8960  -30.0820   23.9100 C   0  0  0  0  0  3  0  0  0  0  0  0
  -17.5740  -30.5500   24.0350 C   0  0  0  0  0  3  0  0  0  0  0  0
  -16.5020  -29.7450   23.6170 C   0  0  0  0  0  3  0  0  0  0  0  0
  -16.7530  -28.4760   23.0640 C   0  0  0  0  0  3  0  0  0  0  0  0
  -25.9120  -32.5410   23.8600 C   0  0  0  0  0  3  0  0  0  0  0  0
  -25.6180  -33.9450   24.1800 N   0  0  0  0  0  0  0  0  0  0  0  0
  -25.9650  -34.9870   23.4130 C   0  0  0  0  0  0  0  0  0  0  0  0
  -26.6370  -34.8680   22.3850 O   0  0  0  0  0  0  0  0  0  0  0  0
  -25.0240  -34.1130   24.9790 H   0  0  0  0  0  0  0  0  0  0  0  0
  -24.2630  -36.7980   23.0290 C   0  0  0  0  0  1  0  0  0  0  0  0
  -25.4900  -36.3840   23.8570 C   0  0  0  0  0  3  0  0  0  0  0  0
  -27.6240  -37.2470   24.7080 C   0  0  0  0  0  1  0  0  0  0  0  0
  -26.5370  -37.4230   23.7510 N   0  0  0  0  0  0  0  0  0  0  0  0
  -26.1400  -38.3490   23.8870 H   0  0  0  0  0  0  0  0  0  0  0  0
  -26.4380  -31.7760   25.1360 C   0  0  1  0  0  0  0  0  0  0  0  0
  -25.3550  -31.5510   26.2150 C   0  0  0  0  0  1  0  0  0  0  0  0
  -27.0100  -30.3930   24.7440 C   0  0  0  0  0  1  0  0  0  0  0  0
  -27.6000  -32.5690   25.7810 C   0  0  0  0  0  1  0  0  0  0  0  0
  -30.3310  -19.6990   21.2460 C   0  0  0  0  0  3  0  0  0  0  0  0
  -30.0860  -17.8020   19.3910 C   0  0  0  0  0  2  0  0  0  0  0  0
  -30.6790  -17.1050   20.5960 C   0  0  0  0  0  3  0  0  0  0  0  0
  -29.7850  -18.3390   20.7730 C   0  0  0  0  0  3  0  0  0  0  0  0
  -30.2170  -15.6980   21.0130 C   0  0  0  0  0  2  0  0  0  0  0  0
  -30.8770  -14.5220   20.2490 C   0  0  0  0  0  0  0  0  0  0  0  0
  -30.5490  -12.3720   19.0650 C   0  0  0  0  0  2  0  0  0  0  0  0
  -29.5860  -12.5890   17.8800 C   0  0  0  0  0  2  0  0  0  0  0  0
  -28.1170  -12.4690   18.3340 C   0  0  0  0  0  2  0  0  0  0  0  0
  -27.8140  -13.3090   19.6030 C   0  0  0  0  0  3  0  0  0  0  0  0
  -28.8830  -13.0590   20.6920 C   0  0  0  0  0  2  0  0  0  0  0  0
  -30.2010  -13.3490   20.1070 N   0  0  0  0  0  0  0  0  0  0  0  0
  -31.9750  -14.7080   19.7150 O   0  0  0  0  0  0  0  0  0  0  0  0
  -25.4300  -13.9590   20.3260 C   0  0  0  0  0  0  0  0  0  0  0  0
  -24.3570  -13.2070   20.7210 C   0  0  0  0  0  0  0  0  0  0  0  0
  -24.8030  -11.8490   20.7090 C   0  0  0  0  0  0  0  0  0  0  0  0
  -26.4620  -13.0620   20.1010 N   0  0  0  0  0  0  0  0  0  0  0  0
  -26.0880  -11.7880   20.3870 N   0  0  0  0  0  0  0  0  0  0  0  0
  -24.0650  -10.5980   20.9300 C   0  0  0  0  0  0  0  0  0  0  0  0
  -24.4740   -9.6620   21.9050 C   0  0  0  0  0  3  0  0  0  0  0  0
  -23.7390   -8.4750   22.1120 C   0  0  0  0  0  3  0  0  0  0  0  0
  -22.5790   -8.2170   21.3430 C   0  0  0  0  0  0  0  0  0  0  0  0
  -22.1890   -9.1410   20.3580 C   0  0  0  0  0  3  0  0  0  0  0  0
  -22.9250  -10.3190   20.1500 C   0  0  0  0  0  3  0  0  0  0  0  0
  -21.8170   -7.0790   21.4570 O   0  0  0  0  0  0  0  0  0  0  0  0
  -21.7070   -6.4020   22.6450 C   0  0  0  0  0  0  0  0  0  0  0  0
  -21.2100   -7.0200   23.8120 C   0  0  0  0  0  3  0  0  0  0  0  0
  -21.0490   -6.2680   24.9940 C   0  0  0  0  0  3  0  0  0  0  0  0
  -21.3740   -4.8990   25.0070 C   0  0  0  0  0  0  0  0  0  0  0  0
  -21.8650   -4.2800   23.8440 C   0  0  0  0  0  3  0  0  0  0  0  0
  -22.0280   -5.0300   22.6650 C   0  0  0  0  0  0  0  0  0  0  0  0
  -22.4800   -4.4230   21.5410 F   0  0  0  0  0  0  0  0  0  0  0  0
  -21.2130   -4.1740   26.1390 F   0  0  0  0  0  0  0  0  0  0  0  0
  -22.9690  -13.7040   21.0020 C   0  0  0  0  0  0  0  0  0  0  0  0
  -22.2460  -13.0350   21.8950 N   0  0  0  0  0  0  0  0  0  0  0  0
  -22.5320  -14.7220   20.4650 O   0  0  0  0  0  0  0  0  0  0  0  0
  -22.6110  -12.2120   22.3500 H   0  0  0  0  0  0  0  0  0  0  0  0
  -21.3150  -13.3510   22.1250 H   0  0  0  0  0  0  0  0  0  0  0  0
  -25.6080  -15.3240   20.1220 N   0  0  0  0  0  0  0  0  0  0  0  0
  -24.8510  -15.9910   20.2270 H   0  0  0  0  0  0  0  0  0  0  0  0
  -26.4630  -15.7460   19.7810 H   0  0  0  0  0  0  0  0  0  0  0  0
  -31.6180  -18.7140   23.2860 C   0  0  0  0  0  1  0  0  0  0  0  0
  -30.5510  -19.6970   22.7820 C   0  0  0  0  0  2  0  0  0  0  0  0
  1  4  1  0
  1 49  1  0
  1  3  1  0
  2  1  1  0
  5  4  1  0
  5  6  1  0
  6  7  1  0
  8 10  1  0
  8  7  1  0
  9 20  2  0
 10 15  1  0
 11 19  1  0
 11 21  1  0
 12 18  1  0
 12 14  1  0
 13 19  1  0
 14 13  1  0
 15 14  2  0
 16 17  1  0
 16 10  2  0
 17 12  2  0
 18 11  1  0
 19  9  1  0
 21 23  2  0
 22 21  1  0
 24 22  1  0
 25 34  2  0
 25 30  1  0
 26 22  1  0
 26 30  1  0
 27 26  1  0
 28 29  1  0
 28 27  1  0
 29 25  1  0
 30 31  2  0
 31 32  1  0
 33 32  2  0
 34 33  1  0
 35  9  1  0
 35 36  1  0
 35 45  1  0
 36 39  1  0
 37 41  1  0
 37 36  1  0
 38 37  2  0
 41 40  1  0
 43 41  1  0
 43 44  1  0
 43 42  1  0
 45 48  1  1
 45 46  1  0
 47 45  1  0
 49 91  1  0
 50 51  1  0
 50 52  1  0
 51 52  1  0
 51 53  1  0
 52 49  1  0
 54 53  1  0
 55 60  1  0
 56 57  1  0
 56 55  1  0
 58 57  1  0
 58 65  1  0
 58 59  1  0
 60 54  1  0
 60 59  1  0
 61 54  2  0
 62 63  2  0
 63 82  1  0
 64 63  1  0
 64 67  1  0
 65 62  1  0
 65 66  1  0
 66 64  2  0
 67 68  1  0
 68 69  2  0
 70 73  1  0
 70 69  1  0
 71 70  2  0
 72 71  1  0
 72 67  2  0
 73 74  1  0
 74 79  2  0
 74 75  1  0
 75 76  2  0
 76 77  1  0
 77 81  1  0
 78 77  2  0
 79 78  1  0
 80 79  1  0
 82 83  1  0
 83 86  1  0
 83 85  1  0
 84 82  2  0
 87 88  1  0
 87 62  1  0
 89 87  1  0
 91 90  1  0
M  ISO  4   7 101   8 101  53 100  54 100
M  END
>  <TORSDO>  (4) 
F 24

>  <SCORE>  (4) 
-11.746

>  <name>  (4) 
3

>  <ligand_id>  (4) 
3

>  <original_smiles>  (4) 
[H]c1c([H])c([H])c2c(c1[H])C([H])([H])C([H])([H])C([H])([H])C2([H])N([H])C(=O)C1([H])N(C(=O)C([H])(N([H])C(=O)C([H])(N([H])C([H])([H])[H])C([H])([H])[H])C(C([H])([H])[H])(C([H])([H])[H])C([H])([H])[H])C([H])([H])c2c([H])c(OC([H])([H])C([H])([H])C([H])([H])C([H])([H])[N+]([H])([H])C([H])(C([H])([H])C([H])([H])[H])C3([H])C([H])([H])C3([H])C([H])([H])C(=O)N3C([H])([H])C([H])([H])C([H])([H])C([H])(n4nc(-c5c([H])c([H])c(Oc6c([H])c([H])c(F)c([H])c6F)c([H])c5[H])c(C(=O)N([H])[H])c4N([H])[H])C3([H])[H])c([H])c([H])c2C1([H])[H]

>  <smiles>  (4) 
[H]c1c([H])c([H])c2c(c1[H])C([H])([H])C([H])([H])C([H])([H])C2([H])N([H])C(=O)C1([H])N(C(=O)C([H])(N([H])C(=O)C([H])(N([H])C([H])([H])[H])C([H])([H])[H])C(C([H])([H])[H])(C([H])([H])[H])C([H])([H])[H])C([H])([H])c2c([H])c(OC([H])([H])C([H])([H])C([H])([H])C([H])([H])[N+]([H])([H])C([H])(C([H])([H])C([H])([H])[H])C3([H])C([H])([H])C3([H])C([H])([H])C(=O)N3C([H])([H])C([H])([H])C([H])([H])C([H])(n4nc(-c5c([H])c([H])c(Oc6c([H])c([H])c(F)c([H])c6F)c([H])c5[H])c(C(=O)N([H])[H])c4N([H])[H])C3([H])[H])c([H])c([H])c2C1([H])[H]

$$$$
4:0:0
     RDKit          3D

 99107  0  0  1  0  0  0  0  0999 V2000
  -30.2110  -21.8340   20.3150 C   0  0  0  0  0  2  0  0  0  0  0  0
  -30.2300  -22.1050   18.7820 C   0  0  0  0  0  2  0  0  0  0  0  0
  -31.6950  -24.2570   19.0450 C   0  0  0  0  0  1  0  0  0  0  0  0
  -30.5370  -23.5580   18.3110 C   0  0  0  0  0  3  0  0  0  0  0  0
  -29.3600  -24.4460   18.1200 N   0  0  0  0  0  4  0  0  0  0  0  0
  -29.6740  -25.3900   17.9590 H   0  0  0  0  0  0  0  0  0  0  0  0
  -28.9500  -24.1520   17.2460 H   0  0  0  0  0  0  0  0  0  0  0  0
  -28.2390  -24.4340   19.0940 C   0  0  0  0  0  2  0  0  0  0  0  0
  -28.4260  -25.3230   20.3500 C   0  0  0  0  0  2  0  0  0  0  0  0
  -28.4370  -26.7380   20.1140 O   0  0  0  0  0  0  0  0  0  0  0  0
  -24.5920  -31.8890   23.2220 C   0  0  0  0  0  0  0  0  0  0  0  0
  -27.2370  -27.4240   20.1640 C   0  0  0  0  0  0  0  0  0  0  0  0
  -23.3860  -30.4760   21.5960 C   0  0  0  0  0  3  0  0  0  0  0  0
  -24.8340  -28.9270   20.1910 C   0  0  0  0  0  0  0  0  0  0  0  0
  -25.9130  -30.8350   21.3890 C   0  0  0  0  0  2  0  0  0  0  0  0
  -25.9980  -29.4590   20.7570 C   0  0  0  0  0  0  0  0  0  0  0  0
  -27.2040  -28.7210   20.7270 C   0  0  0  0  0  3  0  0  0  0  0  0
  -26.0370  -26.8950   19.6340 C   0  0  0  0  0  3  0  0  0  0  0  0
  -24.8490  -27.6410   19.6320 C   0  0  0  0  0  3  0  0  0  0  0  0
  -23.5930  -29.7870   20.2220 C   0  0  0  0  0  2  0  0  0  0  0  0
  -24.6490  -31.0810   22.1260 N   0  0  0  0  0  0  0  0  0  0  0  0
  -23.5110  -32.1660   23.7590 O   0  0  0  0  0  0  0  0  0  0  0  0
  -22.7350  -29.4610   22.5610 C   0  0  0  0  0  0  0  0  0  0  0  0
  -21.4130  -29.2670   22.4240 N   0  0  0  0  0  0  0  0  0  0  0  0
  -23.4160  -28.8500   23.3890 O   0  0  0  0  0  0  0  0  0  0  0  0
  -20.9270  -29.8140   21.7270 H   0  0  0  0  0  0  0  0  0  0  0  0
  -18.0450  -28.0430   22.8830 C   0  0  0  0  0  0  0  0  0  0  0  0
  -20.5940  -28.3350   23.1960 C   0  0  0  0  0  3  0  0  0  0  0  0
  -20.7220  -26.8940   22.6490 C   0  0  0  0  0  2  0  0  0  0  0  0
  -19.6420  -26.5390   21.6220 C   0  0  0  0  0  2  0  0  0  0  0  0
  -18.2460  -26.6820   22.2390 C   0  0  0  0  0  2  0  0  0  0  0  0
  -19.1460  -28.8260   23.3180 C   0  0  0  0  0  0  0  0  0  0  0  0
  -18.9030  -30.0990   23.8770 C   0  0  0  0  0  3  0  0  0  0  0  0
  -17.5900  -30.5880   24.0090 C   0  0  0  0  0  3  0  0  0  0  0  0
  -16.5030  -29.8030   23.5920 C   0  0  0  0  0  3  0  0  0  0  0  0
  -16.7290  -28.5320   23.0330 C   0  0  0  0  0  3  0  0  0  0  0  0
  -25.8780  -32.5240   23.8370 C   0  0  0  0  0  3  0  0  0  0  0  0
  -25.5650  -33.9200   24.1700 N   0  0  0  0  0  0  0  0  0  0  0  0
  -25.8950  -34.9740   23.4110 C   0  0  0  0  0  0  0  0  0  0  0  0
  -26.5660  -34.8730   22.3800 O   0  0  0  0  0  0  0  0  0  0  0  0
  -24.9670  -34.0700   24.9680 H   0  0  0  0  0  0  0  0  0  0  0  0
  -24.1600  -36.7600   23.0540 C   0  0  0  0  0  1  0  0  0  0  0  0
  -25.4020  -36.3600   23.8680 C   0  0  0  0  0  3  0  0  0  0  0  0
  -27.5350  -37.2470   24.6990 C   0  0  0  0  0  1  0  0  0  0  0  0
  -26.4310  -37.4170   23.7580 N   0  0  0  0  0  0  0  0  0  0  0  0
  -26.0220  -38.3350   23.9110 H   0  0  0  0  0  0  0  0  0  0  0  0
  -26.4050  -31.7500   25.1090 C   0  0  1  0  0  0  0  0  0  0  0  0
  -25.3180  -31.4970   26.1790 C   0  0  0  0  0  1  0  0  0  0  0  0
  -26.9980  -30.3810   24.7060 C   0  0  0  0  0  1  0  0  0  0  0  0
  -27.5530  -32.5500   25.7700 C   0  0  0  0  0  1  0  0  0  0  0  0
  -30.8070  -20.4770   20.7900 C   0  0  0  0  0  3  0  0  0  0  0  0
  -29.9220  -19.3410   20.4200 N   0  0  0  0  0  4  0  0  0  0  0  0
  -28.9650  -19.6450   20.4980 H   0  0  0  0  0  0  0  0  0  0  0  0
  -30.0830  -19.1030   19.4570 H   0  0  0  0  0  0  0  0  0  0  0  0
  -30.0600  -18.1220   21.2600 C   0  0  0  0  0  2  0  0  0  0  0  0
  -29.7510  -16.8290   20.4740 C   0  0  0  0  0  2  0  0  0  0  0  0
  -29.8810  -15.5340   21.3250 C   0  0  0  0  0  2  0  0  0  0  0  0
  -30.4880  -14.3590   20.5300 C   0  0  0  0  0  0  0  0  0  0  0  0
  -30.1940  -12.2400   19.3020 C   0  0  0  0  0  2  0  0  0  0  0  0
  -29.2270  -12.4750   18.1250 C   0  0  0  0  0  2  0  0  0  0  0  0
  -27.7610  -12.3080   18.5760 C   0  0  0  0  0  2  0  0  0  0  0  0
  -27.4390  -13.0900   19.8780 C   0  0  0  0  0  3  0  0  0  0  0  0
  -28.5220  -12.8260   20.9490 C   0  0  0  0  0  2  0  0  0  0  0  0
  -29.8260  -13.1790   20.3720 N   0  0  0  0  0  0  0  0  0  0  0  0
  -31.5710  -14.5700   19.9790 O   0  0  0  0  0  0  0  0  0  0  0  0
  -25.0300  -13.6230   20.6120 C   0  0  0  0  0  0  0  0  0  0  0  0
  -23.9890  -12.8160   20.9930 C   0  0  0  0  0  0  0  0  0  0  0  0
  -24.4890  -11.4790   20.9530 C   0  0  0  0  0  0  0  0  0  0  0  0
  -26.1000  -12.7740   20.3700 N   0  0  0  0  0  0  0  0  0  0  0  0
  -25.7760  -11.4790   20.6290 N   0  0  0  0  0  0  0  0  0  0  0  0
  -23.8010  -10.1960   21.1520 C   0  0  0  0  0  0  0  0  0  0  0  0
  -24.2690   -9.2430   22.0820 C   0  0  0  0  0  3  0  0  0  0  0  0
  -23.5830   -8.0240   22.2680 C   0  0  0  0  0  3  0  0  0  0  0  0
  -22.4120   -7.7500   21.5200 C   0  0  0  0  0  0  0  0  0  0  0  0
  -21.9640   -8.6920   20.5770 C   0  0  0  0  0  3  0  0  0  0  0  0
  -22.6530   -9.9030   20.3910 C   0  0  0  0  0  3  0  0  0  0  0  0
  -21.6930   -6.5820   21.6140 O   0  0  0  0  0  0  0  0  0  0  0  0
  -21.6740   -5.8380   22.7660 C   0  0  0  0  0  0  0  0  0  0  0  0
  -21.2570   -6.3840   23.9990 C   0  0  0  0  0  3  0  0  0  0  0  0
  -21.1900   -5.5680   25.1450 C   0  0  0  0  0  3  0  0  0  0  0  0
  -21.5290   -4.2040   25.0580 C   0  0  0  0  0  0  0  0  0  0  0  0
  -21.9400   -3.6560   23.8300 C   0  0  0  0  0  3  0  0  0  0  0  0
  -22.0090   -4.4710   22.6860 C   0  0  0  0  0  0  0  0  0  0  0  0
  -22.3870   -3.9340   21.5010 F   0  0  0  0  0  0  0  0  0  0  0  0
  -21.4560   -3.4160   26.1560 F   0  0  0  0  0  0  0  0  0  0  0  0
  -22.5820  -13.2510   21.2870 C   0  0  0  0  0  0  0  0  0  0  0  0
  -21.8930  -12.5360   22.1700 N   0  0  0  0  0  0  0  0  0  0  0  0
  -22.1020  -14.2580   20.7690 O   0  0  0  0  0  0  0  0  0  0  0  0
  -22.2950  -11.7210   22.6090 H   0  0  0  0  0  0  0  0  0  0  0  0
  -20.9480  -12.8030   22.4110 H   0  0  0  0  0  0  0  0  0  0  0  0
  -25.1510  -14.9960   20.4340 N   0  0  0  0  0  0  0  0  0  0  0  0
  -24.3680  -15.6300   20.5500 H   0  0  0  0  0  0  0  0  0  0  0  0
  -25.9930  -15.4600   20.1110 H   0  0  0  0  0  0  0  0  0  0  0  0
  -32.2650  -20.2360   20.3070 C   0  0  0  0  0  2  0  0  0  0  0  0
  -35.0540  -21.1400   22.7610 C   0  0  0  0  0  2  0  0  0  0  0  0
  -35.7350  -21.3570   21.4010 C   0  0  0  0  0  2  0  0  0  0  0  0
  -33.6420  -20.6230   22.4610 C   0  0  0  0  0  2  0  0  0  0  0  0
  -34.7170  -20.9340   20.3390 C   0  0  0  0  0  2  0  0  0  0  0  0
  -33.3520  -21.0570   21.0210 C   0  0  0  0  0  3  0  0  0  0  0  0
  1 51  1  0
  2  1  1  0
  4  2  1  0
  4  3  1  0
  5  4  1  0
  5  8  1  0
  6  5  1  0
  7  5  1  0
  8  9  1  0
 10 12  1  0
 10  9  1  0
 11 22  2  0
 12 17  1  0
 13 21  1  0
 13 23  1  0
 14 20  1  0
 14 16  1  0
 15 21  1  0
 16 15  1  0
 17 16  2  0
 18 12  2  0
 19 18  1  0
 19 14  2  0
 20 13  1  0
 21 11  1  0
 23 25  2  0
 24 23  1  0
 26 24  1  0
 27 36  2  0
 27 32  1  0
 28 24  1  0
 28 32  1  0
 29 28  1  0
 30 31  1  0
 30 29  1  0
 31 27  1  0
 32 33  2  0
 33 34  1  0
 35 34  2  0
 36 35  1  0
 37 11  1  0
 37 38  1  0
 37 47  1  0
 38 41  1  0
 39 43  1  0
 39 38  1  0
 40 39  2  0
 43 42  1  0
 45 43  1  0
 45 46  1  0
 45 44  1  0
 47 50  1  1
 47 48  1  0
 49 47  1  0
 51 94  1  0
 52 53  1  0
 52 51  1  0
 52 55  1  0
 54 52  1  0
 56 55  1  0
 56 57  1  0
 58 57  1  0
 59 64  1  0
 60 61  1  0
 60 59  1  0
 62 61  1  0
 62 69  1  0
 62 63  1  0
 64 58  1  0
 64 63  1  0
 65 58  2  0
 66 67  2  0
 67 86  1  0
 68 67  1  0
 68 71  1  0
 69 66  1  0
 69 70  1  0
 70 68  2  0
 71 72  1  0
 72 73  2  0
 74 77  1  0
 74 73  1  0
 75 74  2  0
 76 75  1  0
 76 71  2  0
 77 78  1  0
 78 79  1  0
 79 80  2  0
 81 80  1  0
 81 85  1  0
 82 81  2  0
 83 78  2  0
 83 82  1  0
 84 83  1  0
 86 87  1  0
 87 90  1  0
 87 89  1  0
 88 86  2  0
 91 92  1  0
 91 66  1  0
 93 91  1  0
 94 99  1  0
 96 95  1  0
 97 95  1  0
 98 99  1  0
 98 96  1  0
 99 97  1  0
M  ISO  4   9 101  10 101  57 100  58 100
M  END
>  <TORSDO>  (5) 
F 28

>  <SCORE>  (5) 
-11.350

>  <name>  (5) 
4

>  <ligand_id>  (5) 
4

>  <original_smiles>  (5) 
[H]c1c([H])c([H])c2c(c1[H])C([H])([H])C([H])([H])C([H])([H])C2([H])N([H])C(=O)C1([H])N(C(=O)C([H])(N([H])C(=O)C([H])(N([H])C([H])([H])[H])C([H])([H])[H])C(C([H])([H])[H])(C([H])([H])[H])C([H])([H])[H])C([H])([H])c2c([H])c(OC([H])([H])C([H])([H])[N+]([H])([H])C([H])(C([H])([H])[H])C([H])([H])C([H])([H])C([H])(C([H])([H])C3([H])C([H])([H])C([H])([H])C([H])([H])C3([H])[H])[N+]([H])([H])C([H])([H])C([H])([H])C([H])([H])C(=O)N3C([H])([H])C([H])([H])C([H])([H])C([H])(n4nc(-c5c([H])c([H])c(Oc6c([H])c([H])c(F)c([H])c6F)c([H])c5[H])c(C(=O)N([H])[H])c4N([H])[H])C3([H])[H])c([H])c([H])c2C1([H])[H]

>  <smiles>  (5) 
[H]c1c([H])c([H])c2c(c1[H])C([H])([H])C([H])([H])C([H])([H])C2([H])N([H])C(=O)C1([H])N(C(=O)C([H])(N([H])C(=O)C([H])(N([H])C([H])([H])[H])C([H])([H])[H])C(C([H])([H])[H])(C([H])([H])[H])C([H])([H])[H])C([H])([H])c2c([H])c(OC([H])([H])C([H])([H])[N+]([H])([H])C([H])(C([H])([H])[H])C([H])([H])C([H])([H])C([H])(C([H])([H])C3([H])C([H])([H])C([H])([H])C([H])([H])C3([H])[H])[N+]([H])([H])C([H])([H])C([H])([H])C([H])([H])C(=O)N3C([H])([H])C([H])([H])C([H])([H])C([H])(n4nc(-c5c([H])c([H])c(Oc6c([H])c([H])c(F)c([H])c6F)c([H])c5[H])c(C(=O)N([H])[H])c4N([H])[H])C3([H])[H])c([H])c([H])c2C1([H])[H]

$$$$
5:0:0
     RDKit          3D

 92100  0  0  1  0  0  0  0  0999 V2000
  -29.5370  -21.5610   20.2460 C   0  0  0  0  0  3  0  0  0  0  0  0
  -30.4210  -19.3890   17.7320 C   0  0  0  0  0  2  0  0  0  0  0  0
  -31.2760  -18.8090   18.8690 C   0  0  0  0  0  2  0  0  0  0  0  0
  -29.1050  -19.8710   18.3600 C   0  0  0  0  0  2  0  0  0  0  0  0
  -30.3570  -18.6960   20.0910 C   0  0  0  0  0  3  0  0  0  0  0  0
  -29.3510  -19.9750   19.8100 N   0  0  1  0  0  4  0  0  0  0  0  0
  -28.4800  -19.7330   20.2590 H   0  0  0  0  0  0  0  0  0  0  0  0
  -29.9390  -16.9820   20.3150 C   0  0  0  0  0  2  0  0  0  0  0  0
  -30.8460  -15.4940   20.3690 C   0  0  0  0  0  0  0  0  0  0  0  0
  -30.8790  -13.0440   19.5580 C   0  0  0  0  0  2  0  0  0  0  0  0
  -30.0020  -12.8730   18.2890 C   0  0  0  0  0  2  0  0  0  0  0  0
  -28.5270  -12.6360   18.6700 C   0  0  0  0  0  2  0  0  0  0  0  0
  -28.0480  -13.6160   19.7690 C   0  0  0  0  0  3  0  0  0  0  0  0
  -29.0470  -13.7240   20.9330 C   0  0  0  0  0  2  0  0  0  0  0  0
  -30.3250  -14.1780   20.3730 N   0  0  0  0  0  0  0  0  0  0  0  0
  -32.0740  -15.5160   20.1940 O   0  0  0  0  0  0  0  0  0  0  0  0
  -25.6660  -14.2170   20.4580 C   0  0  0  0  0  0  0  0  0  0  0  0
  -24.5800  -13.4590   20.7920 C   0  0  0  0  0  0  0  0  0  0  0  0
  -25.0240  -12.1000   20.7660 C   0  0  0  0  0  0  0  0  0  0  0  0
  -26.6980  -13.3260   20.2330 N   0  0  0  0  0  0  0  0  0  0  0  0
  -26.3230  -12.0460   20.4910 N   0  0  0  0  0  0  0  0  0  0  0  0
  -24.2700  -10.8510   20.9270 C   0  0  0  0  0  0  0  0  0  0  0  0
  -24.6520   -9.8740   21.8740 C   0  0  0  0  0  3  0  0  0  0  0  0
  -23.8980   -8.6900   22.0230 C   0  0  0  0  0  3  0  0  0  0  0  0
  -22.7480   -8.4740   21.2260 C   0  0  0  0  0  0  0  0  0  0  0  0
  -22.3870   -9.4390   20.2710 C   0  0  0  0  0  3  0  0  0  0  0  0
  -23.1400  -10.6150   20.1190 C   0  0  0  0  0  3  0  0  0  0  0  0
  -21.9700   -7.3430   21.2850 O   0  0  0  0  0  0  0  0  0  0  0  0
  -21.8590   -6.6060   22.4360 C   0  0  0  0  0  0  0  0  0  0  0  0
  -21.3960   -7.1740   23.6440 C   0  0  0  0  0  3  0  0  0  0  0  0
  -21.2280   -6.3620   24.7850 C   0  0  0  0  0  3  0  0  0  0  0  0
  -21.5150   -4.9850   24.7180 C   0  0  0  0  0  0  0  0  0  0  0  0
  -21.9700   -4.4180   23.5150 C   0  0  0  0  0  3  0  0  0  0  0  0
  -22.1380   -5.2260   22.3780 C   0  0  0  0  0  0  0  0  0  0  0  0
  -22.5580   -4.6700   21.2150 F   0  0  0  0  0  0  0  0  0  0  0  0
  -21.3480   -4.2040   25.8110 F   0  0  0  0  0  0  0  0  0  0  0  0
  -23.1840  -13.9600   21.0200 C   0  0  0  0  0  0  0  0  0  0  0  0
  -22.4210  -13.2820   21.8690 N   0  0  0  0  0  0  0  0  0  0  0  0
  -22.7800  -14.9890   20.4800 O   0  0  0  0  0  0  0  0  0  0  0  0
  -22.7600  -12.4520   22.3320 H   0  0  0  0  0  0  0  0  0  0  0  0
  -21.4820  -13.5990   22.0620 H   0  0  0  0  0  0  0  0  0  0  0  0
  -25.8570  -15.5870   20.2960 N   0  0  0  0  0  0  0  0  0  0  0  0
  -25.0960  -16.2460   20.4090 H   0  0  0  0  0  0  0  0  0  0  0  0
  -26.7140  -16.0150   19.9780 H   0  0  0  0  0  0  0  0  0  0  0  0
  -28.2070  -21.0580   22.2970 C   0  0  0  0  0  2  0  0  0  0  0  0
  -29.3040  -21.6170   21.7530 C   0  0  0  0  0  0  0  0  0  0  0  0
  -29.8110  -22.9010   23.9200 C   0  0  0  0  0  1  0  0  0  0  0  0
  -31.5930  -21.4720   22.8360 C   0  0  0  0  0  1  0  0  0  0  0  0
  -30.3570  -22.3530   22.5880 C   0  0  0  0  0  3  0  0  0  0  0  0
  -28.8080  -23.0260   19.5320 C   0  0  0  0  0  2  0  0  0  0  0  0
  -28.4210  -24.6320   20.1900 C   0  0  0  0  0  2  0  0  0  0  0  0
  -28.4490  -26.1670   19.6450 O   0  0  0  0  0  0  0  0  0  0  0  0
  -24.7250  -31.7740   22.9990 C   0  0  0  0  0  0  0  0  0  0  0  0
  -27.3730  -27.1750   19.7230 C   0  0  0  0  0  0  0  0  0  0  0  0
  -23.5360  -30.4000   21.3330 C   0  0  0  0  0  3  0  0  0  0  0  0
  -25.0020  -28.9240   19.8050 C   0  0  0  0  0  0  0  0  0  0  0  0
  -26.0800  -30.7400   21.1160 C   0  0  0  0  0  2  0  0  0  0  0  0
  -26.1880  -29.3650   20.4070 C   0  0  0  0  0  0  0  0  0  0  0  0
  -27.3720  -28.5140   20.3340 C   0  0  0  0  0  3  0  0  0  0  0  0
  -26.1550  -26.8690   19.0840 C   0  0  0  0  0  3  0  0  0  0  0  0
  -25.0060  -27.7000   19.1190 C   0  0  0  0  0  3  0  0  0  0  0  0
  -23.7500  -29.7880   19.9220 C   0  0  0  0  0  2  0  0  0  0  0  0
  -24.8020  -30.9960   21.8710 N   0  0  0  0  0  0  0  0  0  0  0  0
  -23.6430  -31.9920   23.5660 O   0  0  0  0  0  0  0  0  0  0  0  0
  -22.9170  -29.3330   22.2740 C   0  0  0  0  0  0  0  0  0  0  0  0
  -21.5990  -29.0910   22.1540 N   0  0  0  0  0  0  0  0  0  0  0  0
  -23.6280  -28.7270   23.0780 O   0  0  0  0  0  0  0  0  0  0  0  0
  -21.0740  -29.6400   21.4860 H   0  0  0  0  0  0  0  0  0  0  0  0
  -18.3150  -27.6180   22.5980 C   0  0  0  0  0  0  0  0  0  0  0  0
  -20.8410  -28.0830   22.9030 C   0  0  0  0  0  3  0  0  0  0  0  0
  -21.0640  -26.6700   22.3160 C   0  0  0  0  0  2  0  0  0  0  0  0
  -20.0050  -26.2720   21.2820 C   0  0  0  0  0  2  0  0  0  0  0  0
  -18.6070  -26.2960   21.9080 C   0  0  0  0  0  2  0  0  0  0  0  0
  -19.3620  -28.4640   23.0520 C   0  0  0  0  0  0  0  0  0  0  0  0
  -19.0320  -29.6930   23.6600 C   0  0  0  0  0  3  0  0  0  0  0  0
  -17.6880  -30.0820   23.8180 C   0  0  0  0  0  3  0  0  0  0  0  0
  -16.6560  -29.2360   23.3790 C   0  0  0  0  0  3  0  0  0  0  0  0
  -16.9700  -28.0050   22.7750 C   0  0  0  0  0  3  0  0  0  0  0  0
  -25.9920  -32.4380   23.6200 C   0  0  0  0  0  3  0  0  0  0  0  0
  -25.6340  -33.8110   24.0150 N   0  0  0  0  0  0  0  0  0  0  0  0
  -25.9260  -34.9140   23.3120 C   0  0  0  0  0  0  0  0  0  0  0  0
  -26.5890  -34.8820   22.2720 O   0  0  0  0  0  0  0  0  0  0  0  0
  -25.0450  -33.9040   24.8300 H   0  0  0  0  0  0  0  0  0  0  0  0
  -24.1390  -36.6700   23.0680 C   0  0  0  0  0  1  0  0  0  0  0  0
  -25.4030  -36.2620   23.8430 C   0  0  0  0  0  3  0  0  0  0  0  0
  -27.5180  -37.1780   24.6910 C   0  0  0  0  0  1  0  0  0  0  0  0
  -26.4000  -37.3530   23.7690 N   0  0  0  0  0  0  0  0  0  0  0  0
  -25.9660  -38.2510   23.9650 H   0  0  0  0  0  0  0  0  0  0  0  0
  -26.5610  -31.6450   24.8610 C   0  0  1  0  0  0  0  0  0  0  0  0
  -25.5020  -31.3440   25.9490 C   0  0  0  0  0  1  0  0  0  0  0  0
  -27.1750  -30.2960   24.4200 C   0  0  0  0  0  1  0  0  0  0  0  0
  -27.7040  -32.4530   25.5210 C   0  0  0  0  0  1  0  0  0  0  0  0
  1 50  1  0
  1 46  1  0
  2  4  1  0
  2  3  1  0
  3  5  1  0
  4  6  1  0
  5  8  1  0
  6  5  1  0
  6  1  1  0
  6  7  1  1
  8  9  1  0
  9 15  1  0
 10 15  1  0
 11 12  1  0
 11 10  1  0
 13 12  1  0
 13 20  1  0
 13 14  1  0
 15 14  1  0
 16  9  2  0
 17 18  2  0
 18 37  1  0
 19 18  1  0
 19 22  1  0
 20 17  1  0
 20 21  1  0
 21 19  2  0
 22 23  1  0
 23 24  2  0
 25 28  1  0
 25 24  1  0
 26 25  2  0
 27 26  1  0
 27 22  2  0
 28 29  1  0
 29 30  1  0
 30 31  2  0
 32 31  1  0
 32 36  1  0
 33 32  2  0
 34 29  2  0
 34 33  1  0
 35 34  1  0
 37 38  1  0
 38 41  1  0
 38 40  1  0
 39 37  2  0
 42 43  1  0
 42 17  1  0
 44 42  1  0
 46 45  2  0
 46 49  1  0
 49 48  1  0
 49 47  1  0
 50 51  1  0
 52 54  1  0
 52 51  1  0
 53 64  2  0
 54 59  1  0
 55 63  1  0
 55 65  1  0
 56 62  1  0
 56 58  1  0
 57 63  1  0
 58 57  1  0
 59 58  2  0
 60 61  1  0
 60 54  2  0
 61 56  2  0
 62 55  1  0
 63 53  1  0
 65 67  2  0
 66 65  1  0
 68 66  1  0
 69 78  2  0
 69 74  1  0
 70 66  1  0
 70 74  1  0
 71 70  1  0
 72 73  1  0
 72 71  1  0
 73 69  1  0
 74 75  2  0
 75 76  1  0
 77 76  2  0
 78 77  1  0
 79 53  1  0
 79 80  1  0
 79 89  1  0
 80 83  1  0
 81 85  1  0
 81 80  1  0
 82 81  2  0
 85 84  1  0
 87 85  1  0
 87 88  1  0
 87 86  1  0
 89 92  1  1
 89 90  1  0
 91 89  1  0
M  ISO  4   8 100   9 100  51 101  52 101
M  END
>  <TORSDO>  (6) 
F 22

>  <SCORE>  (6) 
-12.878

>  <name>  (6) 
5

>  <ligand_id>  (6) 
5

>  <original_smiles>  (6) 
[H]C([H])=C(C([H])(C([H])([H])[H])C([H])([H])[H])C([H])(C([H])([H])C([H])([H])Oc1c([H])c([H])c2c(c1[H])C([H])([H])N(C(=O)C([H])(N([H])C(=O)C([H])(N([H])C([H])([H])[H])C([H])([H])[H])C(C([H])([H])[H])(C([H])([H])[H])C([H])([H])[H])C([H])(C(=O)N([H])C1([H])c3c([H])c([H])c([H])c([H])c3C([H])([H])C([H])([H])C1([H])[H])C2([H])[H])[N+]1([H])C([H])([H])C([H])([H])C([H])([H])C1([H])C([H])([H])C(=O)N1C([H])([H])C([H])([H])C([H])([H])C([H])(n2nc(-c3c([H])c([H])c(Oc4c([H])c([H])c(F)c([H])c4F)c([H])c3[H])c(C(=O)N([H])[H])c2N([H])[H])C1([H])[H]

>  <smiles>  (6) 
[H]C([H])=C(C([H])(C([H])([H])[H])C([H])([H])[H])C([H])(C([H])([H])C([H])([H])Oc1c([H])c([H])c2c(c1[H])C([H])([H])N(C(=O)C([H])(N([H])C(=O)C([H])(N([H])C([H])([H])[H])C([H])([H])[H])C(C([H])([H])[H])(C([H])([H])[H])C([H])([H])[H])C([H])(C(=O)N([H])C1([H])c3c([H])c([H])c([H])c([H])c3C([H])([H])C([H])([H])C1([H])[H])C2([H])[H])[N+]1([H])C([H])([H])C([H])([H])C([H])([H])C1([H])C([H])([H])C(=O)N1C([H])([H])C([H])([H])C([H])([H])C([H])(n2nc(-c3c([H])c([H])c(Oc4c([H])c([H])c(F)c([H])c4F)c([H])c3[H])c(C(=O)N([H])[H])c2N([H])[H])C1([H])[H]

$$$$
6:0:0
     RDKit          3D

 95104  0  0  1  0  0  0  0  0999 V2000
  -30.9280  -23.7650   19.9880 C   0  0  0  0  0  2  0  0  0  0  0  0
  -31.2890  -23.7730   21.4930 C   0  0  0  0  0  2  0  0  0  0  0  0
  -29.8210  -21.4480   19.7910 C   0  0  0  0  0  2  0  0  0  0  0  0
  -30.3690  -21.5360   22.2830 C   0  0  0  0  0  2  0  0  0  0  0  0
  -29.5950  -22.9920   19.9110 C   0  0  0  0  0  3  0  0  0  0  0  0
  -30.7740  -20.9310   20.9050 C   0  0  0  0  0  3  0  0  0  0  0  0
  -30.0860  -23.0800   22.1850 C   0  0  1  0  0  0  0  0  0  0  0  0
  -29.8000  -23.6470   23.5930 C   0  0  0  0  0  1  0  0  0  0  0  0
  -28.9610  -23.2650   21.2200 N   0  0  1  0  0  4  0  0  0  0  0  0
  -28.3180  -22.5030   21.3810 H   0  0  0  0  0  0  0  0  0  0  0  0
  -31.1240  -19.4750   20.8760 N   0  0  0  0  0  4  0  0  0  0  0  0
  -31.8690  -19.3310   21.5410 H   0  0  0  0  0  0  0  0  0  0  0  0
  -31.5350  -19.2930   19.9720 H   0  0  0  0  0  0  0  0  0  0  0  0
  -30.1210  -18.4020   21.1100 C   0  0  0  0  0  2  0  0  0  0  0  0
  -30.7890  -17.0230   20.8250 C   0  0  0  0  0  2  0  0  0  0  0  0
  -29.9840  -15.7140   21.1000 C   0  0  0  0  0  2  0  0  0  0  0  0
  -30.6690  -14.4590   20.4900 C   0  0  0  0  0  0  0  0  0  0  0  0
  -30.3640  -12.3010   19.3280 C   0  0  0  0  0  2  0  0  0  0  0  0
  -29.4430  -12.5180   18.1090 C   0  0  0  0  0  2  0  0  0  0  0  0
  -27.9630  -12.3860   18.5200 C   0  0  0  0  0  2  0  0  0  0  0  0
  -27.6140  -13.2280   19.7750 C   0  0  0  0  0  3  0  0  0  0  0  0
  -28.6540  -13.0190   20.8980 C   0  0  0  0  0  2  0  0  0  0  0  0
  -29.9860  -13.2910   20.3490 N   0  0  0  0  0  0  0  0  0  0  0  0
  -31.8060  -14.5980   20.0270 O   0  0  0  0  0  0  0  0  0  0  0  0
  -25.2100  -13.8460   20.4470 C   0  0  0  0  0  0  0  0  0  0  0  0
  -24.1360  -13.0800   20.8090 C   0  0  0  0  0  0  0  0  0  0  0  0
  -24.5940  -11.7270   20.7990 C   0  0  0  0  0  0  0  0  0  0  0  0
  -26.2550  -12.9610   20.2410 N   0  0  0  0  0  0  0  0  0  0  0  0
  -25.8880  -11.6820   20.5100 N   0  0  0  0  0  0  0  0  0  0  0  0
  -23.8620  -10.4690   20.9930 C   0  0  0  0  0  0  0  0  0  0  0  0
  -24.2810   -9.5130   21.9440 C   0  0  0  0  0  3  0  0  0  0  0  0
  -23.5530   -8.3180   22.1260 C   0  0  0  0  0  3  0  0  0  0  0  0
  -22.3910   -8.0700   21.3570 C   0  0  0  0  0  0  0  0  0  0  0  0
  -21.9920   -9.0150   20.3950 C   0  0  0  0  0  3  0  0  0  0  0  0
  -22.7200  -10.2020   20.2120 C   0  0  0  0  0  3  0  0  0  0  0  0
  -21.6360   -6.9260   21.4460 O   0  0  0  0  0  0  0  0  0  0  0  0
  -21.5660   -6.1970   22.6070 C   0  0  0  0  0  0  0  0  0  0  0  0
  -21.1200   -6.7670   23.8180 C   0  0  0  0  0  3  0  0  0  0  0  0
  -21.0000   -5.9650   24.9710 C   0  0  0  0  0  3  0  0  0  0  0  0
  -21.3130   -4.5940   24.9110 C   0  0  0  0  0  0  0  0  0  0  0  0
  -21.7520   -4.0230   23.7030 C   0  0  0  0  0  3  0  0  0  0  0  0
  -21.8760   -4.8230   22.5530 C   0  0  0  0  0  0  0  0  0  0  0  0
  -22.2800   -4.2650   21.3870 F   0  0  0  0  0  0  0  0  0  0  0  0
  -21.1890   -3.8210   26.0150 F   0  0  0  0  0  0  0  0  0  0  0  0
  -22.7360  -13.5620   21.0560 C   0  0  0  0  0  0  0  0  0  0  0  0
  -21.9950  -12.8750   21.9200 N   0  0  0  0  0  0  0  0  0  0  0  0
  -22.3060  -14.5810   20.5190 O   0  0  0  0  0  0  0  0  0  0  0  0
  -22.3580  -12.0510   22.3780 H   0  0  0  0  0  0  0  0  0  0  0  0
  -21.0540  -13.1770   22.1250 H   0  0  0  0  0  0  0  0  0  0  0  0
  -25.3820  -15.2150   20.2580 N   0  0  0  0  0  0  0  0  0  0  0  0
  -24.6140  -15.8710   20.3450 H   0  0  0  0  0  0  0  0  0  0  0  0
  -26.2400  -15.6480   19.9380 H   0  0  0  0  0  0  0  0  0  0  0  0
  -28.0560  -24.4720   21.2940 C   0  0  0  0  0  2  0  0  0  0  0  0
  -28.6620  -25.9130   21.2570 C   0  0  0  0  0  2  0  0  0  0  0  0
  -28.3550  -26.6500   20.0620 O   0  0  0  0  0  0  0  0  0  0  0  0
  -24.6090  -31.8620   23.2070 C   0  0  0  0  0  0  0  0  0  0  0  0
  -27.2080  -27.4100   20.1110 C   0  0  0  0  0  0  0  0  0  0  0  0
  -23.3850  -30.4650   21.5730 C   0  0  0  0  0  3  0  0  0  0  0  0
  -24.8200  -28.9210   20.1360 C   0  0  0  0  0  0  0  0  0  0  0  0
  -25.9060  -30.8170   21.3520 C   0  0  0  0  0  2  0  0  0  0  0  0
  -25.9830  -29.4420   20.7190 C   0  0  0  0  0  0  0  0  0  0  0  0
  -27.1800  -28.6900   20.7110 C   0  0  0  0  0  3  0  0  0  0  0  0
  -26.0360  -26.9060   19.5120 C   0  0  0  0  0  3  0  0  0  0  0  0
  -24.8410  -27.6500   19.5300 C   0  0  0  0  0  3  0  0  0  0  0  0
  -23.5790  -29.7840   20.1900 C   0  0  0  0  0  2  0  0  0  0  0  0
  -24.6520  -31.0640   22.1030 N   0  0  0  0  0  0  0  0  0  0  0  0
  -23.5340  -32.1370   23.7580 O   0  0  0  0  0  0  0  0  0  0  0  0
  -22.7400  -29.4460   22.5400 C   0  0  0  0  0  0  0  0  0  0  0  0
  -21.4140  -29.2690   22.4260 N   0  0  0  0  0  0  0  0  0  0  0  0
  -23.4290  -28.8170   23.3480 O   0  0  0  0  0  0  0  0  0  0  0  0
  -20.9200  -29.8290   21.7460 H   0  0  0  0  0  0  0  0  0  0  0  0
  -18.0400  -28.0830   22.9520 C   0  0  0  0  0  0  0  0  0  0  0  0
  -20.6020  -28.3300   23.2010 C   0  0  0  0  0  3  0  0  0  0  0  0
  -20.6930  -26.9010   22.6220 C   0  0  0  0  0  2  0  0  0  0  0  0
  -19.5810  -26.5840   21.6170 C   0  0  0  0  0  2  0  0  0  0  0  0
  -18.2060  -26.7330   22.2740 C   0  0  0  0  0  2  0  0  0  0  0  0
  -19.1650  -28.8390   23.3740 C   0  0  0  0  0  0  0  0  0  0  0  0
  -18.9580  -30.1030   23.9690 C   0  0  0  0  0  3  0  0  0  0  0  0
  -17.6560  -30.6090   24.1470 C   0  0  0  0  0  3  0  0  0  0  0  0
  -16.5460  -29.8490   23.7420 C   0  0  0  0  0  3  0  0  0  0  0  0
  -16.7390  -28.5870   23.1500 C   0  0  0  0  0  3  0  0  0  0  0  0
  -25.9030  -32.4880   23.8150 C   0  0  0  0  0  3  0  0  0  0  0  0
  -25.5970  -33.8810   24.1640 N   0  0  0  0  0  0  0  0  0  0  0  0
  -25.9180  -34.9410   23.4120 C   0  0  0  0  0  0  0  0  0  0  0  0
  -26.5740  -34.8490   22.3700 O   0  0  0  0  0  0  0  0  0  0  0  0
  -25.0090  -34.0270   24.9720 H   0  0  0  0  0  0  0  0  0  0  0  0
  -24.1860  -36.7370   23.0910 C   0  0  0  0  0  1  0  0  0  0  0  0
  -25.4350  -36.3250   23.8870 C   0  0  0  0  0  3  0  0  0  0  0  0
  -27.5810  -37.1990   24.7010 C   0  0  0  0  0  1  0  0  0  0  0  0
  -26.4670  -37.3790   23.7740 N   0  0  0  0  0  0  0  0  0  0  0  0
  -26.0650  -38.2980   23.9360 H   0  0  0  0  0  0  0  0  0  0  0  0
  -26.4410  -31.7020   25.0740 C   0  0  1  0  0  0  0  0  0  0  0  0
  -25.3720  -31.4630   26.1650 C   0  0  0  0  0  1  0  0  0  0  0  0
  -27.0060  -30.3240   24.6550 C   0  0  0  0  0  1  0  0  0  0  0  0
  -27.6130  -32.4830   25.7140 C   0  0  0  0  0  1  0  0  0  0  0  0
  1  2  1  0
  2  7  1  0
  3  6  1  0
  5  3  1  0
  5  1  1  0
  5  9  1  0
  6 11  1  0
  6  4  1  0
  7  4  1  0
  7  8  1  1
  9 53  1  0
  9 10  1  1
  9  7  1  0
 11 14  1  0
 11 12  1  0
 13 11  1  0
 15 16  1  0
 15 14  1  0
 17 16  1  0
 18 23  1  0
 19 20  1  0
 19 18  1  0
 21 20  1  0
 21 28  1  0
 21 22  1  0
 23 17  1  0
 23 22  1  0
 24 17  2  0
 25 26  2  0
 26 45  1  0
 27 26  1  0
 27 30  1  0
 28 25  1  0
 28 29  1  0
 29 27  2  0
 30 31  1  0
 31 32  2  0
 33 36  1  0
 33 32  1  0
 34 33  2  0
 35 34  1  0
 35 30  2  0
 36 37  1  0
 37 38  1  0
 38 39  2  0
 40 39  1  0
 40 44  1  0
 41 40  2  0
 42 37  2  0
 42 41  1  0
 43 42  1  0
 45 46  1  0
 46 49  1  0
 46 48  1  0
 47 45  2  0
 50 51  1  0
 50 25  1  0
 52 50  1  0
 54 53  1  0
 55 57  1  0
 55 54  1  0
 56 67  2  0
 57 62  1  0
 58 66  1  0
 58 68  1  0
 59 65  1  0
 59 61  1  0
 60 66  1  0
 61 60  1  0
 62 61  2  0
 63 64  1  0
 63 57  2  0
 64 59  2  0
 65 58  1  0
 66 56  1  0
 68 70  2  0
 69 68  1  0
 71 69  1  0
 72 81  2  0
 72 77  1  0
 73 69  1  0
 73 77  1  0
 74 73  1  0
 75 76  1  0
 75 74  1  0
 76 72  1  0
 77 78  2  0
 78 79  1  0
 80 79  2  0
 81 80  1  0
 82 56  1  0
 82 83  1  0
 82 92  1  0
 83 86  1  0
 84 88  1  0
 84 83  1  0
 85 84  2  0
 88 87  1  0
 90 88  1  0
 90 91  1  0
 90 89  1  0
 92 95  1  1
 92 93  1  0
 94 92  1  0
M  ISO  4  16 100  17 100  54 101  55 101
M  END
>  <TORSDO>  (7) 
F 22

>  <SCORE>  (7) 
-12.767

>  <name>  (7) 
6

>  <ligand_id>  (7) 
6

>  <original_smiles>  (7) 
[H]c1c([H])c([H])c2c(c1[H])C([H])([H])C([H])([H])C([H])([H])C2([H])N([H])C(=O)C1([H])N(C(=O)C([H])(N([H])C(=O)C([H])(N([H])C([H])([H])[H])C([H])([H])[H])C(C([H])([H])[H])(C([H])([H])[H])C([H])([H])[H])C([H])([H])c2c([H])c(OC([H])([H])C([H])([H])[N+]3([H])C4([H])C([H])([H])C([H])([H])C3(C([H])([H])[H])C([H])([H])C([H])([N+]([H])([H])C([H])([H])C([H])([H])C([H])([H])C(=O)N3C([H])([H])C([H])([H])C([H])([H])C([H])(n5nc(-c6c([H])c([H])c(Oc7c([H])c([H])c(F)c([H])c7F)c([H])c6[H])c(C(=O)N([H])[H])c5N([H])[H])C3([H])[H])C4([H])[H])c([H])c([H])c2C1([H])[H]

>  <smiles>  (7) 
[H]c1c([H])c([H])c2c(c1[H])C([H])([H])C([H])([H])C([H])([H])C2([H])N([H])C(=O)C1([H])N(C(=O)C([H])(N([H])C(=O)C([H])(N([H])C([H])([H])[H])C([H])([H])[H])C(C([H])([H])[H])(C([H])([H])[H])C([H])([H])[H])C([H])([H])c2c([H])c(OC([H])([H])C([H])([H])[N+]3([H])C4([H])C([H])([H])C([H])([H])C3(C([H])([H])[H])C([H])([H])C([H])([N+]([H])([H])C([H])([H])C([H])([H])C([H])([H])C(=O)N3C([H])([H])C([H])([H])C([H])([H])C([H])(n5nc(-c6c([H])c([H])c(Oc7c([H])c([H])c(F)c([H])c7F)c([H])c6[H])c(C(=O)N([H])[H])c5N([H])[H])C3([H])[H])C4([H])[H])c([H])c([H])c2C1([H])[H]

$$$$
7:0:0
     RDKit          3D

 92101  0  0  1  0  0  0  0  0999 V2000
  -29.3310  -21.2730   20.7470 N   0  0  0  0  0  4  0  0  0  0  0  0
  -30.1310  -21.5330   21.3000 H   0  0  0  0  0  0  0  0  0  0  0  0
  -28.5740  -21.1170   21.3950 H   0  0  0  0  0  0  0  0  0  0  0  0
  -31.1540  -19.5400   20.1570 C   0  0  0  0  0  2  0  0  0  0  0  0
  -28.8910  -18.6300   20.5620 C   0  0  0  0  0  2  0  0  0  0  0  0
  -31.2560  -18.0540   20.5210 C   0  0  0  0  0  3  0  0  0  0  0  0
  -29.6540  -19.9390   20.0690 C   0  0  0  0  0  3  0  0  0  0  0  0
  -29.8970  -17.4480   20.7760 C   0  0  1  0  0  0  0  0  0  0  0  0
  -30.9140  -17.5730   21.9210 C   0  0  1  0  0  0  0  0  0  0  0  0
  -31.6600  -16.3720   22.4860 C   0  0  0  0  0  1  0  0  0  0  0  0
  -30.6340  -18.5340   23.0750 C   0  0  0  0  0  1  0  0  0  0  0  0
  -29.3440  -15.9830   20.4350 C   0  0  0  0  0  2  0  0  0  0  0  0
  -30.1650  -14.7500   19.8350 C   0  0  0  0  0  0  0  0  0  0  0  0
  -29.9480  -12.5000   18.7660 C   0  0  0  0  0  2  0  0  0  0  0  0
  -28.8720  -12.5860   17.6570 C   0  0  0  0  0  2  0  0  0  0  0  0
  -27.4620  -12.3560   18.2390 C   0  0  0  0  0  2  0  0  0  0  0  0
  -27.2040  -13.1970   19.5160 C   0  0  0  0  0  3  0  0  0  0  0  0
  -28.3820  -13.0860   20.5080 C   0  0  0  0  0  2  0  0  0  0  0  0
  -29.6070  -13.4920   19.8060 N   0  0  0  0  0  0  0  0  0  0  0  0
  -31.2360  -14.9490   19.2530 O   0  0  0  0  0  0  0  0  0  0  0  0
  -24.9050  -13.7090   20.5410 C   0  0  0  0  0  0  0  0  0  0  0  0
  -23.9040  -12.8960   20.9980 C   0  0  0  0  0  0  0  0  0  0  0  0
  -24.3820  -11.5580   20.8490 C   0  0  0  0  0  0  0  0  0  0  0  0
  -25.9280  -12.8630   20.1420 N   0  0  0  0  0  0  0  0  0  0  0  0
  -25.6270  -11.5630   20.3870 N   0  0  0  0  0  0  0  0  0  0  0  0
  -23.7070  -10.2720   21.0660 C   0  0  0  0  0  0  0  0  0  0  0  0
  -24.2280   -9.3030   21.9540 C   0  0  0  0  0  3  0  0  0  0  0  0
  -23.5510   -8.0820   22.1590 C   0  0  0  0  0  3  0  0  0  0  0  0
  -22.3390   -7.8210   21.4760 C   0  0  0  0  0  0  0  0  0  0  0  0
  -21.8370   -8.7780   20.5770 C   0  0  0  0  0  3  0  0  0  0  0  0
  -22.5150   -9.9910   20.3700 C   0  0  0  0  0  3  0  0  0  0  0  0
  -21.6250   -6.6520   21.5930 O   0  0  0  0  0  0  0  0  0  0  0  0
  -21.6410   -5.9100   22.7480 C   0  0  0  0  0  0  0  0  0  0  0  0
  -21.2140   -6.4460   23.9820 C   0  0  0  0  0  3  0  0  0  0  0  0
  -21.1820   -5.6300   25.1310 C   0  0  0  0  0  3  0  0  0  0  0  0
  -21.5670   -4.2790   25.0450 C   0  0  0  0  0  0  0  0  0  0  0  0
  -21.9870   -3.7420   23.8160 C   0  0  0  0  0  3  0  0  0  0  0  0
  -22.0210   -4.5550   22.6700 C   0  0  0  0  0  0  0  0  0  0  0  0
  -22.4080   -4.0280   21.4820 F   0  0  0  0  0  0  0  0  0  0  0  0
  -21.5290   -3.4910   26.1450 F   0  0  0  0  0  0  0  0  0  0  0  0
  -22.5400  -13.3270   21.4570 C   0  0  0  0  0  0  0  0  0  0  0  0
  -21.9390  -12.5800   22.3750 N   0  0  0  0  0  0  0  0  0  0  0  0
  -22.0220  -14.3620   21.0380 O   0  0  0  0  0  0  0  0  0  0  0  0
  -22.3750  -11.7420   22.7330 H   0  0  0  0  0  0  0  0  0  0  0  0
  -21.0300  -12.8470   22.7260 H   0  0  0  0  0  0  0  0  0  0  0  0
  -25.0220  -15.0890   20.4120 N   0  0  0  0  0  0  0  0  0  0  0  0
  -24.2620  -15.7200   20.6440 H   0  0  0  0  0  0  0  0  0  0  0  0
  -25.8220  -15.5620   20.0100 H   0  0  0  0  0  0  0  0  0  0  0  0
  -28.9330  -22.4760   19.8940 C   0  0  0  0  0  2  0  0  0  0  0  0
  -28.9230  -23.9350   20.5730 C   0  0  0  0  0  3  0  0  0  0  0  0
  -28.0880  -25.0890   19.8470 C   0  0  0  0  0  3  0  0  0  0  0  0
  -28.2130  -26.5160   20.2590 O   0  0  0  0  0  0  0  0  0  0  0  0
  -24.5250  -31.9630   23.2230 C   0  0  0  0  0  0  0  0  0  0  0  0
  -27.0960  -27.3710   20.1760 C   0  0  0  0  0  0  0  0  0  0  0  0
  -23.3010  -30.5560   21.6050 C   0  0  0  0  0  3  0  0  0  0  0  0
  -24.7340  -28.9970   20.1720 C   0  0  0  0  0  0  0  0  0  0  0  0
  -25.8390  -30.8650   21.3960 C   0  0  0  0  0  2  0  0  0  0  0  0
  -25.9080  -29.4810   20.7600 C   0  0  0  0  0  0  0  0  0  0  0  0
  -27.0890  -28.6790   20.7590 C   0  0  0  0  0  3  0  0  0  0  0  0
  -25.9030  -26.9560   19.5370 C   0  0  0  0  0  3  0  0  0  0  0  0
  -24.7340  -27.7390   19.5500 C   0  0  0  0  0  3  0  0  0  0  0  0
  -23.4990  -29.8710   20.2280 C   0  0  0  0  0  2  0  0  0  0  0  0
  -24.5750  -31.1450   22.1310 N   0  0  0  0  0  0  0  0  0  0  0  0
  -23.4470  -32.2480   23.7660 O   0  0  0  0  0  0  0  0  0  0  0  0
  -22.6460  -29.5470   22.5800 C   0  0  0  0  0  0  0  0  0  0  0  0
  -21.3210  -29.3590   22.4560 N   0  0  0  0  0  0  0  0  0  0  0  0
  -23.3290  -28.9370   23.4070 O   0  0  0  0  0  0  0  0  0  0  0  0
  -20.8280  -29.9040   21.7600 H   0  0  0  0  0  0  0  0  0  0  0  0
  -17.9490  -28.1600   22.9810 C   0  0  0  0  0  0  0  0  0  0  0  0
  -20.5080  -28.4280   23.2400 C   0  0  0  0  0  3  0  0  0  0  0  0
  -20.6110  -26.9910   22.6790 C   0  0  0  0  0  2  0  0  0  0  0  0
  -19.5060  -26.6540   21.6720 C   0  0  0  0  0  2  0  0  0  0  0  0
  -18.1270  -26.8030   22.3200 C   0  0  0  0  0  2  0  0  0  0  0  0
  -19.0670  -28.9290   23.3980 C   0  0  0  0  0  0  0  0  0  0  0  0
  -18.8470  -30.1980   23.9760 C   0  0  0  0  0  3  0  0  0  0  0  0
  -17.5410  -30.6980   24.1410 C   0  0  0  0  0  3  0  0  0  0  0  0
  -16.4380  -29.9250   23.7400 C   0  0  0  0  0  3  0  0  0  0  0  0
  -16.6420  -28.6580   23.1660 C   0  0  0  0  0  3  0  0  0  0  0  0
  -25.8160  -32.5960   23.8270 C   0  0  0  0  0  3  0  0  0  0  0  0
  -25.5120  -33.9960   24.1540 N   0  0  0  0  0  0  0  0  0  0  0  0
  -25.8340  -35.0460   23.3860 C   0  0  0  0  0  0  0  0  0  0  0  0
  -26.4870  -34.9370   22.3450 O   0  0  0  0  0  0  0  0  0  0  0  0
  -24.9280  -34.1540   24.9620 H   0  0  0  0  0  0  0  0  0  0  0  0
  -24.1060  -36.8430   23.0460 C   0  0  0  0  0  1  0  0  0  0  0  0
  -25.3550  -36.4370   23.8440 C   0  0  0  0  0  3  0  0  0  0  0  0
  -27.4980  -37.3240   24.6510 C   0  0  0  0  0  1  0  0  0  0  0  0
  -26.3890  -37.4870   23.7140 N   0  0  0  0  0  0  0  0  0  0  0  0
  -25.9850  -38.4090   23.8580 H   0  0  0  0  0  0  0  0  0  0  0  0
  -26.3450  -31.8290   25.1020 C   0  0  1  0  0  0  0  0  0  0  0  0
  -25.2600  -31.5860   26.1760 C   0  0  0  0  0  1  0  0  0  0  0  0
  -26.9350  -30.4550   24.7080 C   0  0  0  0  0  1  0  0  0  0  0  0
  -27.4950  -32.6320   25.7550 C   0  0  0  0  0  1  0  0  0  0  0  0
  1  2  1  0
  1  3  1  0
  5  8  1  0
  6  4  1  0
  6  8  1  0
  6  9  1  0
  7  4  1  0
  7  5  1  0
  7  1  1  0
  8 12  1  6
  8  9  1  0
  9 10  1  1
  9 11  1  0
 13 12  1  0
 14 19  1  0
 15 16  1  0
 15 14  1  0
 17 16  1  0
 17 24  1  0
 17 18  1  0
 19 13  1  0
 19 18  1  0
 20 13  2  0
 21 22  2  0
 22 41  1  0
 23 22  1  0
 23 26  1  0
 24 25  1  0
 24 21  1  0
 25 23  2  0
 26 27  1  0
 27 28  2  0
 29 32  1  0
 29 28  1  0
 30 29  2  0
 31 30  1  0
 31 26  2  0
 32 33  1  0
 33 34  1  0
 34 35  2  0
 36 35  1  0
 36 40  1  0
 37 36  2  0
 38 33  2  0
 38 37  1  0
 39 38  1  0
 41 42  1  0
 42 45  1  0
 42 44  1  0
 43 41  2  0
 46 21  1  0
 46 47  1  0
 48 46  1  0
 49 50  1  0
 49  1  1  0
 51 52  1  0
 51 50  2  0
 53 64  2  0
 54 52  1  0
 54 59  1  0
 55 63  1  0
 55 65  1  0
 56 62  1  0
 56 58  1  0
 57 63  1  0
 58 57  1  0
 59 58  2  0
 60 61  1  0
 60 54  2  0
 61 56  2  0
 62 55  1  0
 63 53  1  0
 65 67  2  0
 66 65  1  0
 68 66  1  0
 69 78  2  0
 69 74  1  0
 70 66  1  0
 70 74  1  0
 71 70  1  0
 72 73  1  0
 72 71  1  0
 73 69  1  0
 74 75  2  0
 75 76  1  0
 77 76  2  0
 78 77  1  0
 79 53  1  0
 79 80  1  0
 79 89  1  0
 80 83  1  0
 81 85  1  0
 81 80  1  0
 82 81  2  0
 85 84  1  0
 87 85  1  0
 87 88  1  0
 87 86  1  0
 89 92  1  1
 89 90  1  0
 91 89  1  0
M  ISO  4  12 100  13 100  51 101  52 101
M  END
>  <TORSDO>  (8) 
F 21

>  <SCORE>  (8) 
-11.628

>  <name>  (8) 
7

>  <ligand_id>  (8) 
7

>  <original_smiles>  (8) 
[H]c1c([H])c([H])c2c(c1[H])C([H])([H])C([H])([H])C([H])([H])C2([H])N([H])C(=O)C1([H])N(C(=O)C([H])(N([H])C(=O)C([H])(N([H])C([H])([H])[H])C([H])([H])[H])C(C([H])([H])[H])(C([H])([H])[H])C([H])([H])[H])C([H])([H])c2c([H])c(OC([H])([H])C([H])([H])C([H])([H])[N+]([H])([H])C3([H])C([H])([H])C4([H])C(C([H])([H])[H])(C([H])([H])[H])C4(C([H])([H])C(=O)N4C([H])([H])C([H])([H])C([H])([H])C([H])(n5nc(-c6c([H])c([H])c(Oc7c([H])c([H])c(F)c([H])c7F)c([H])c6[H])c(C(=O)N([H])[H])c5N([H])[H])C4([H])[H])C3([H])[H])c([H])c([H])c2C1([H])[H]

>  <smiles>  (8) 
[H]c1c([H])c([H])c2c(c1[H])C([H])([H])C([H])([H])C([H])([H])C2([H])N([H])C(=O)C1([H])N(C(=O)C([H])(N([H])C(=O)C([H])(N([H])C([H])([H])[H])C([H])([H])[H])C(C([H])([H])[H])(C([H])([H])[H])C([H])([H])[H])C([H])([H])c2c([H])c(OC([H])([H])C([H])([H])C([H])([H])[N+]([H])([H])C3([H])C([H])([H])C4([H])C(C([H])([H])[H])(C([H])([H])[H])C4(C([H])([H])C(=O)N4C([H])([H])C([H])([H])C([H])([H])C([H])(n5nc(-c6c([H])c([H])c(Oc7c([H])c([H])c(F)c([H])c7F)c([H])c6[H])c(C(=O)N([H])[H])c5N([H])[H])C4([H])[H])C3([H])[H])c([H])c([H])c2C1([H])[H]

$$$$
8:0:0
     RDKit          3D

 92101  0  0  1  0  0  0  0  0999 V2000
  -29.2560  -16.7600   18.3110 C   0  0  0  0  0  2  0  0  0  0  0  0
  -28.0610  -17.6680   17.8340 C   0  0  0  0  0  2  0  0  0  0  0  0
  -26.6460  -18.3590   21.2550 C   0  0  0  0  0  2  0  0  0  0  0  0
  -25.3320  -18.5600   20.4220 C   0  0  0  0  0  2  0  0  0  0  0  0
  -29.4880  -16.6900   19.8580 C   0  0  0  0  0  3  0  0  0  0  0  0
  -27.7290  -18.6360   20.2170 C   0  0  0  0  0  3  0  0  0  0  0  0
  -27.1050  -17.9560   19.0010 C   0  0  0  0  0  3  0  0  0  0  0  0
  -29.2630  -18.3800   20.3750 C   0  0  0  0  0  3  0  0  0  0  0  0
  -25.7180  -18.6240   18.9040 C   0  0  1  0  0  0  0  0  0  0  0  0
  -24.7340  -17.8720   17.9860 C   0  0  0  0  0  1  0  0  0  0  0  0
  -25.7590  -20.0860   18.3930 C   0  0  0  0  0  1  0  0  0  0  0  0
  -30.4100  -15.2600   20.2630 C   0  0  0  0  0  0  0  0  0  0  0  0
  -30.4940  -12.7360   19.7410 C   0  0  0  0  0  2  0  0  0  0  0  0
  -29.6460  -12.4150   18.4830 C   0  0  0  0  0  2  0  0  0  0  0  0
  -28.1690  -12.1860   18.8530 C   0  0  0  0  0  2  0  0  0  0  0  0
  -27.6430  -13.2500   19.8490 C   0  0  0  0  0  3  0  0  0  0  0  0
  -28.6250  -13.5180   21.0060 C   0  0  0  0  0  2  0  0  0  0  0  0
  -29.9060  -13.9420   20.4150 N   0  0  0  0  0  0  0  0  0  0  0  0
  -31.6450  -15.2900   20.1670 O   0  0  0  0  0  0  0  0  0  0  0  0
  -25.2620  -13.8550   20.5300 C   0  0  0  0  0  0  0  0  0  0  0  0
  -24.1630  -13.1230   20.8540 C   0  0  0  0  0  0  0  0  0  0  0  0
  -24.6020  -11.7670   20.8600 C   0  0  0  0  0  0  0  0  0  0  0  0
  -26.2930  -12.9640   20.3190 N   0  0  0  0  0  0  0  0  0  0  0  0
  -25.9050  -11.6930   20.5930 N   0  0  0  0  0  0  0  0  0  0  0  0
  -23.8400  -10.5320   21.0470 C   0  0  0  0  0  0  0  0  0  0  0  0
  -24.2440   -9.5530   21.9790 C   0  0  0  0  0  3  0  0  0  0  0  0
  -23.4790   -8.3810   22.1560 C   0  0  0  0  0  3  0  0  0  0  0  0
  -22.2970   -8.1860   21.4020 C   0  0  0  0  0  0  0  0  0  0  0  0
  -21.9110   -9.1560   20.4620 C   0  0  0  0  0  3  0  0  0  0  0  0
  -22.6760  -10.3190   20.2830 C   0  0  0  0  0  3  0  0  0  0  0  0
  -21.5060   -7.0660   21.4890 O   0  0  0  0  0  0  0  0  0  0  0  0
  -21.4850   -6.2870   22.6170 C   0  0  0  0  0  0  0  0  0  0  0  0
  -21.1500   -6.8190   23.8830 C   0  0  0  0  0  3  0  0  0  0  0  0
  -21.0710   -5.9690   25.0030 C   0  0  0  0  0  3  0  0  0  0  0  0
  -21.3170   -4.5900   24.8600 C   0  0  0  0  0  0  0  0  0  0  0  0
  -21.6470   -4.0590   23.6000 C   0  0  0  0  0  3  0  0  0  0  0  0
  -21.7270   -4.9060   22.4800 C   0  0  0  0  0  0  0  0  0  0  0  0
  -22.0230   -4.3880   21.2640 F   0  0  0  0  0  0  0  0  0  0  0  0
  -21.2350   -3.7700   25.9330 F   0  0  0  0  0  0  0  0  0  0  0  0
  -22.7720  -13.6510   21.0540 C   0  0  0  0  0  0  0  0  0  0  0  0
  -21.9900  -13.0050   21.9100 N   0  0  0  0  0  0  0  0  0  0  0  0
  -22.3860  -14.6730   20.4850 O   0  0  0  0  0  0  0  0  0  0  0  0
  -22.3130  -12.1770   22.3910 H   0  0  0  0  0  0  0  0  0  0  0  0
  -21.0560  -13.3440   22.0900 H   0  0  0  0  0  0  0  0  0  0  0  0
  -25.4650  -15.2070   20.3830 N   0  0  0  0  0  0  0  0  0  0  0  0
  -24.7150  -15.8820   20.4700 H   0  0  0  0  0  0  0  0  0  0  0  0
  -26.3380  -15.6140   20.0850 H   0  0  0  0  0  0  0  0  0  0  0  0
  -29.7650  -19.9010   19.6540 C   0  0  0  0  0  2  0  0  0  0  0  0
  -29.5750  -21.6150   20.0760 C   0  0  0  0  0  2  0  0  0  0  0  0
  -28.4000  -22.8900   19.8390 C   0  0  0  0  0  2  0  0  0  0  0  0
  -28.4920  -24.5870   19.3640 C   0  0  0  0  0  2  0  0  0  0  0  0
  -28.3430  -26.0510   20.0100 O   0  0  0  0  0  0  0  0  0  0  0  0
  -24.7400  -31.7260   23.1980 C   0  0  0  0  0  0  0  0  0  0  0  0
  -27.2820  -27.0670   19.9290 C   0  0  0  0  0  0  0  0  0  0  0  0
  -23.5200  -30.4030   21.5150 C   0  0  0  0  0  3  0  0  0  0  0  0
  -24.9490  -28.8690   19.9990 C   0  0  0  0  0  0  0  0  0  0  0  0
  -26.0750  -30.6450   21.3360 C   0  0  0  0  0  2  0  0  0  0  0  0
  -26.1380  -29.2730   20.6200 C   0  0  0  0  0  0  0  0  0  0  0  0
  -27.2920  -28.3880   20.5700 C   0  0  0  0  0  3  0  0  0  0  0  0
  -26.0630  -26.7880   19.2680 C   0  0  0  0  0  3  0  0  0  0  0  0
  -24.9300  -27.6440   19.3080 C   0  0  0  0  0  3  0  0  0  0  0  0
  -23.7250  -29.7760   20.1060 C   0  0  0  0  0  2  0  0  0  0  0  0
  -24.7990  -30.9480   22.0710 N   0  0  0  0  0  0  0  0  0  0  0  0
  -23.6600  -31.9940   23.7470 O   0  0  0  0  0  0  0  0  0  0  0  0
  -22.8410  -29.3670   22.4460 C   0  0  0  0  0  0  0  0  0  0  0  0
  -21.5100  -29.2070   22.3280 N   0  0  0  0  0  0  0  0  0  0  0  0
  -23.5180  -28.7060   23.2380 O   0  0  0  0  0  0  0  0  0  0  0  0
  -21.0180  -29.7940   21.6690 H   0  0  0  0  0  0  0  0  0  0  0  0
  -18.1350  -27.9670   22.8030 C   0  0  0  0  0  0  0  0  0  0  0  0
  -20.6950  -28.2370   23.0660 C   0  0  0  0  0  3  0  0  0  0  0  0
  -20.8010  -26.8260   22.4370 C   0  0  0  0  0  2  0  0  0  0  0  0
  -19.6940  -26.5320   21.4220 C   0  0  0  0  0  2  0  0  0  0  0  0
  -18.3150  -26.6460   22.0760 C   0  0  0  0  0  2  0  0  0  0  0  0
  -19.2520  -28.7210   23.2540 C   0  0  0  0  0  0  0  0  0  0  0  0
  -19.0270  -29.9570   23.8980 C   0  0  0  0  0  3  0  0  0  0  0  0
  -17.7200  -30.4410   24.0920 C   0  0  0  0  0  3  0  0  0  0  0  0
  -16.6190  -29.6840   23.6560 C   0  0  0  0  0  3  0  0  0  0  0  0
  -16.8270  -28.4490   23.0180 C   0  0  0  0  0  3  0  0  0  0  0  0
  -26.0240  -32.3350   23.8390 C   0  0  0  0  0  3  0  0  0  0  0  0
  -26.5620  -31.4970   25.0650 C   0  0  1  0  0  0  0  0  0  0  0  0
  -25.4880  -31.2030   26.1390 C   0  0  0  0  0  1  0  0  0  0  0  0
  -27.1340  -30.1400   24.5940 C   0  0  0  0  0  1  0  0  0  0  0  0
  -27.7260  -32.2540   25.7460 C   0  0  0  0  0  1  0  0  0  0  0  0
  -25.7090  -33.7100   24.2620 N   0  0  0  0  0  0  0  0  0  0  0  0
  -26.0370  -34.8160   23.5810 C   0  0  0  0  0  0  0  0  0  0  0  0
  -26.7000  -34.7850   22.5400 O   0  0  0  0  0  0  0  0  0  0  0  0
  -25.1200  -33.8100   25.0770 H   0  0  0  0  0  0  0  0  0  0  0  0
  -24.3060  -36.6320   23.3740 C   0  0  0  0  0  1  0  0  0  0  0  0
  -25.5560  -36.1720   24.1390 C   0  0  0  0  0  3  0  0  0  0  0  0
  -27.7020  -37.0000   25.0010 C   0  0  0  0  0  1  0  0  0  0  0  0
  -26.5890  -37.2310   24.0850 N   0  0  0  0  0  0  0  0  0  0  0  0
  -26.1850  -38.1380   24.3000 H   0  0  0  0  0  0  0  0  0  0  0  0
  1  5  1  0
  2  1  1  0
  4  3  1  0
  5 12  1  0
  5  8  1  0
  6  8  1  0
  6  3  1  0
  7  2  1  0
  7  6  1  0
  8 48  1  0
  9  7  1  0
  9  4  1  0
  9 10  1  6
 11  9  1  0
 12 18  1  0
 13 18  1  0
 14 15  1  0
 14 13  1  0
 16 15  1  0
 16 23  1  0
 16 17  1  0
 18 17  1  0
 19 12  2  0
 20 21  2  0
 21 22  1  0
 21 40  1  0
 22 25  1  0
 23 20  1  0
 23 24  1  0
 24 22  2  0
 25 26  1  0
 26 27  2  0
 28 31  1  0
 28 27  1  0
 29 28  2  0
 30 29  1  0
 30 25  2  0
 31 32  1  0
 32 33  1  0
 33 34  2  0
 35 34  1  0
 35 39  1  0
 36 35  2  0
 37 32  2  0
 37 36  1  0
 38 37  1  0
 40 41  1  0
 41 44  1  0
 41 43  1  0
 42 40  2  0
 45 46  1  0
 45 20  1  0
 47 45  1  0
 48 49  1  0
 50 49  1  0
 51 50  1  0
 51 52  1  0
 53 64  2  0
 54 52  1  0
 54 59  1  0
 55 63  1  0
 55 65  1  0
 56 62  1  0
 56 58  1  0
 57 63  1  0
 58 57  1  0
 59 58  2  0
 60 61  1  0
 60 54  2  0
 61 56  2  0
 62 55  1  0
 63 53  1  0
 65 67  2  0
 66 65  1  0
 68 66  1  0
 69 78  2  0
 69 74  1  0
 70 66  1  0
 70 74  1  0
 71 70  1  0
 72 73  1  0
 72 71  1  0
 73 69  1  0
 74 75  2  0
 75 76  1  0
 77 76  2  0
 78 77  1  0
 79 53  1  0
 79 84  1  0
 79 80  1  0
 80 83  1  1
 80 81  1  0
 82 80  1  0
 84 87  1  0
 85 89  1  0
 85 84  1  0
 86 85  2  0
 89 88  1  0
 91 89  1  0
 91 92  1  0
 91 90  1  0
M  ISO  4   5 100  12 100  51 101  52 101
M  END
>  <TORSDO>  (9) 
F 20

>  <SCORE>  (9) 
-5.557

>  <name>  (9) 
8

>  <ligand_id>  (9) 
8

>  <original_smiles>  (9) 
[H]c1c([H])c([H])c2c(c1[H])C([H])([H])C([H])([H])C([H])([H])C2([H])N([H])C(=O)C1([H])N(C(=O)C([H])(N([H])C(=O)C([H])(N([H])C([H])([H])[H])C([H])([H])[H])C(C([H])([H])[H])(C([H])([H])[H])C([H])([H])[H])C([H])([H])c2c([H])c(OC([H])([H])C([H])([H])C([H])([H])C([H])([H])C3([H])C([H])(C(=O)N4C([H])([H])C([H])([H])C([H])([H])C([H])(n5nc(-c6c([H])c([H])c(Oc7c([H])c([H])c(F)c([H])c7F)c([H])c6[H])c(C(=O)N([H])[H])c5N([H])[H])C4([H])[H])C([H])([H])C([H])([H])C4([H])C3([H])C([H])([H])C([H])([H])C4(C([H])([H])[H])C([H])([H])[H])c([H])c([H])c2C1([H])[H]

>  <smiles>  (9) 
[H]c1c([H])c([H])c2c(c1[H])C([H])([H])C([H])([H])C([H])([H])C2([H])N([H])C(=O)C1([H])N(C(=O)C([H])(N([H])C(=O)C([H])(N([H])C([H])([H])[H])C([H])([H])[H])C(C([H])([H])[H])(C([H])([H])[H])C([H])([H])[H])C([H])([H])c2c([H])c(OC([H])([H])C([H])([H])C([H])([H])C([H])([H])C3([H])C([H])(C(=O)N4C([H])([H])C([H])([H])C([H])([H])C([H])(n5nc(-c6c([H])c([H])c(Oc7c([H])c([H])c(F)c([H])c7F)c([H])c6[H])c(C(=O)N([H])[H])c5N([H])[H])C4([H])[H])C([H])([H])C([H])([H])C4([H])C3([H])C([H])([H])C([H])([H])C4(C([H])([H])[H])C([H])([H])[H])c([H])c([H])c2C1([H])[H]

$$$$
9:0:0
     RDKit          3D

 96105  0  0  1  0  0  0  0  0999 V2000
  -27.4860  -20.0760   21.3140 C   0  0  0  0  0  2  0  0  0  0  0  0
  -25.8280  -22.3430   20.4370 C   0  0  0  0  0  2  0  0  0  0  0  0
  -27.7440  -19.9570   19.8240 C   0  0  0  0  0  3  0  0  0  0  0  0
  -26.0580  -21.7950   19.0440 C   0  0  0  0  0  3  0  0  0  0  0  0
  -26.9660  -21.4860   20.9750 C   0  0  0  0  0  3  0  0  0  0  0  0
  -26.4160  -20.6020   19.8370 N   0  0  2  0  0  4  0  0  0  0  0  0
  -25.6590  -20.0130   20.1410 H   0  0  0  0  0  0  0  0  0  0  0  0
  -27.8690  -18.4560   19.4200 C   0  0  0  0  0  0  0  0  0  0  0  0
  -28.9810  -17.7820   19.8410 N   0  0  0  0  0  0  0  0  0  0  0  0
  -26.9830  -17.9140   18.7590 O   0  0  0  0  0  0  0  0  0  0  0  0
  -29.6220  -18.3360   20.3870 H   0  0  0  0  0  0  0  0  0  0  0  0
  -29.3270  -16.3420   19.6740 C   0  0  0  0  0  2  0  0  0  0  0  0
  -30.5240  -15.8460   20.5790 C   0  0  0  0  0  2  0  0  0  0  0  0
  -31.2360  -14.4960   20.1990 C   0  0  0  0  0  0  0  0  0  0  0  0
  -31.2620  -12.0030   20.0560 C   0  0  0  0  0  2  0  0  0  0  0  0
  -30.4860  -11.5050   18.8190 C   0  0  0  0  0  2  0  0  0  0  0  0
  -28.9720  -11.4270   19.0880 C   0  0  0  0  0  2  0  0  0  0  0  0
  -28.4300  -12.6990   19.7930 C   0  0  0  0  0  3  0  0  0  0  0  0
  -29.3130  -13.0760   20.9940 C   0  0  0  0  0  2  0  0  0  0  0  0
  -30.6790  -13.2870   20.4990 N   0  0  0  0  0  0  0  0  0  0  0  0
  -32.3450  -14.5560   19.6500 O   0  0  0  0  0  0  0  0  0  0  0  0
  -26.0690  -13.5330   20.3670 C   0  0  0  0  0  0  0  0  0  0  0  0
  -24.9080  -12.8620   20.6670 C   0  0  0  0  0  0  0  0  0  0  0  0
  -25.2380  -11.4750   20.6450 C   0  0  0  0  0  0  0  0  0  0  0  0
  -27.0320  -12.5520   20.1830 N   0  0  0  0  0  0  0  0  0  0  0  0
  -26.5330  -11.3100   20.4040 N   0  0  0  0  0  0  0  0  0  0  0  0
  -24.3850  -10.2900   20.7890 C   0  0  0  0  0  0  0  0  0  0  0  0
  -24.5460   -9.3870   21.8630 C   0  0  0  0  0  3  0  0  0  0  0  0
  -23.7000   -8.2630   21.9850 C   0  0  0  0  0  3  0  0  0  0  0  0
  -22.6810   -8.0340   21.0280 C   0  0  0  0  0  0  0  0  0  0  0  0
  -22.5440   -8.9240   19.9480 C   0  0  0  0  0  3  0  0  0  0  0  0
  -23.3900  -10.0380   19.8250 C   0  0  0  0  0  3  0  0  0  0  0  0
  -21.8300   -6.9550   21.0490 O   0  0  0  0  0  0  0  0  0  0  0  0
  -21.3600   -6.4340   22.2290 C   0  0  0  0  0  0  0  0  0  0  0  0
  -20.5860   -7.2020   23.1270 C   0  0  0  0  0  3  0  0  0  0  0  0
  -20.0630   -6.6060   24.2910 C   0  0  0  0  0  3  0  0  0  0  0  0
  -20.3040   -5.2450   24.5560 C   0  0  0  0  0  0  0  0  0  0  0  0
  -21.0690   -4.4780   23.6600 C   0  0  0  0  0  3  0  0  0  0  0  0
  -21.5930   -5.0710   22.4980 C   0  0  0  0  0  0  0  0  0  0  0  0
  -22.3110   -4.3220   21.6280 F   0  0  0  0  0  0  0  0  0  0  0  0
  -19.7950   -4.6710   25.6710 F   0  0  0  0  0  0  0  0  0  0  0  0
  -23.5550  -13.4760   20.8670 C   0  0  0  0  0  0  0  0  0  0  0  0
  -22.7160  -12.8490   21.6890 N   0  0  0  0  0  0  0  0  0  0  0  0
  -23.2490  -14.5430   20.3410 O   0  0  0  0  0  0  0  0  0  0  0  0
  -22.9790  -11.9850   22.1410 H   0  0  0  0  0  0  0  0  0  0  0  0
  -21.8020  -13.2410   21.8660 H   0  0  0  0  0  0  0  0  0  0  0  0
  -26.3700  -14.8810   20.2150 N   0  0  0  0  0  0  0  0  0  0  0  0
  -25.6600  -15.5990   20.2980 H   0  0  0  0  0  0  0  0  0  0  0  0
  -27.2750  -15.2480   19.9420 H   0  0  0  0  0  0  0  0  0  0  0  0
  -24.6810  -21.8680   18.2820 C   0  0  0  0  0  0  0  0  0  0  0  0
  -24.5470  -21.6990   16.9460 N   0  0  0  0  0  0  0  0  0  0  0  0
  -23.6700  -22.1720   18.9310 O   0  0  0  0  0  0  0  0  0  0  0  0
  -25.3450  -21.4880   16.3680 H   0  0  0  0  0  0  0  0  0  0  0  0
  -23.2070  -21.8370   16.3070 C   0  0  0  0  0  2  0  0  0  0  0  0
  -23.1890  -22.1850   14.7940 C   0  0  0  0  0  2  0  0  0  0  0  0
  -22.2620  -23.2000   14.3180 O   0  0  0  0  0  0  0  0  0  0  0  0
  -22.5160  -27.1980   20.2240 C   0  0  0  0  0  0  0  0  0  0  0  0
  -21.6110  -24.0350   15.1980 C   0  0  0  0  0  0  0  0  0  0  0  0
  -20.2740  -26.8680   19.2410 C   0  0  0  0  0  3  0  0  0  0  0  0
  -20.2370  -25.8360   16.8990 C   0  0  0  0  0  0  0  0  0  0  0  0
  -22.3640  -26.8200   17.7600 C   0  0  0  0  0  2  0  0  0  0  0  0
  -21.6350  -25.8360   16.8660 C   0  0  0  0  0  0  0  0  0  0  0  0
  -22.3310  -24.9400   16.0140 C   0  0  0  0  0  3  0  0  0  0  0  0
  -20.2030  -24.0700   15.2180 C   0  0  0  0  0  3  0  0  0  0  0  0
  -19.5150  -24.9510   16.0770 C   0  0  0  0  0  3  0  0  0  0  0  0
  -19.5790  -26.8210   17.8540 C   0  0  0  0  0  2  0  0  0  0  0  0
  -21.7670  -26.9450   19.1170 N   0  0  0  0  0  0  0  0  0  0  0  0
  -21.9940  -27.4080   21.3300 O   0  0  0  0  0  0  0  0  0  0  0  0
  -19.7840  -25.6670   20.0830 C   0  0  0  0  0  0  0  0  0  0  0  0
  -18.5340  -25.7540   20.5720 N   0  0  0  0  0  0  0  0  0  0  0  0
  -20.5160  -24.6920   20.2700 O   0  0  0  0  0  0  0  0  0  0  0  0
  -17.9860  -26.5780   20.3710 H   0  0  0  0  0  0  0  0  0  0  0  0
  -15.3950  -24.9330   22.1590 C   0  0  0  0  0  0  0  0  0  0  0  0
  -17.8670  -24.7350   21.3770 C   0  0  0  0  0  3  0  0  0  0  0  0
  -17.3770  -23.5760   20.4870 C   0  0  0  0  0  2  0  0  0  0  0  0
  -15.9440  -23.7700   19.9800 C   0  0  0  0  0  2  0  0  0  0  0  0
  -14.9480  -23.9210   21.1320 C   0  0  0  0  0  2  0  0  0  0  0  0
  -16.7560  -25.3460   22.2500 C   0  0  0  0  0  0  0  0  0  0  0  0
  -17.0920  -26.3770   23.1620 C   0  0  0  0  0  3  0  0  0  0  0  0
  -16.1170  -26.9550   23.9900 C   0  0  0  0  0  3  0  0  0  0  0  0
  -14.7800  -26.5160   23.9090 C   0  0  0  0  0  3  0  0  0  0  0  0
  -14.4160  -25.5130   22.9990 C   0  0  0  0  0  3  0  0  0  0  0  0
  -24.0760  -27.2570   20.1520 C   0  0  0  0  0  3  0  0  0  0  0  0
  -24.5400  -28.0960   21.2650 N   0  0  0  0  0  0  0  0  0  0  0  0
  -25.0060  -29.3450   21.1360 C   0  0  0  0  0  0  0  0  0  0  0  0
  -25.1620  -29.8910   20.0430 O   0  0  0  0  0  0  0  0  0  0  0  0
  -24.4150  -27.7260   22.1950 H   0  0  0  0  0  0  0  0  0  0  0  0
  -24.2420  -31.1630   22.7010 C   0  0  0  0  0  1  0  0  0  0  0  0
  -25.3430  -30.1250   22.4250 C   0  0  0  0  0  3  0  0  0  0  0  0
  -27.7790  -29.8420   22.4160 C   0  0  0  0  0  1  0  0  0  0  0  0
  -26.6650  -30.7870   22.3870 N   0  0  0  0  0  0  0  0  0  0  0  0
  -26.7750  -31.4190   23.1740 H   0  0  0  0  0  0  0  0  0  0  0  0
  -24.7450  -25.8320   20.2190 C   0  0  1  0  0  0  0  0  0  0  0  0
  -24.2620  -24.9760   21.4100 C   0  0  0  0  0  1  0  0  0  0  0  0
  -24.4720  -25.0330   18.9220 C   0  0  0  0  0  1  0  0  0  0  0  0
  -26.2790  -25.9830   20.3460 C   0  0  0  0  0  1  0  0  0  0  0  0
  3  8  1  0
  3  6  1  0
  3  1  1  0
  4 50  1  0
  4  6  1  0
  4  2  1  0
  5  2  1  0
  5  1  1  0
  6  7  1  1
  6  5  1  0
  8  9  1  0
  9 11  1  0
 10  8  2  0
 12  9  1  0
 12 13  1  0
 14 20  1  0
 14 13  1  0
 15 20  1  0
 16 17  1  0
 16 15  1  0
 18 17  1  0
 18 25  1  0
 18 19  1  0
 20 19  1  0
 21 14  2  0
 22 23  2  0
 23 42  1  0
 24 23  1  0
 24 27  1  0
 25 22  1  0
 25 26  1  0
 26 24  2  0
 27 28  1  0
 28 29  2  0
 30 33  1  0
 30 29  1  0
 31 30  2  0
 32 31  1  0
 32 27  2  0
 33 34  1  0
 34 39  2  0
 34 35  1  0
 35 36  2  0
 36 37  1  0
 37 41  1  0
 38 37  2  0
 39 38  1  0
 40 39  1  0
 42 43  1  0
 43 46  1  0
 43 45  1  0
 44 42  2  0
 47 48  1  0
 47 22  1  0
 49 47  1  0
 50 52  2  0
 51 50  1  0
 53 51  1  0
 54 51  1  0
 55 54  1  0
 56 55  1  0
 56 58  1  0
 57 68  2  0
 58 64  2  0
 58 63  1  0
 59 69  1  0
 60 66  1  0
 61 67  1  0
 62 60  1  0
 62 61  1  0
 63 62  2  0
 64 65  1  0
 65 60  2  0
 66 59  1  0
 67 59  1  0
 67 57  1  0
 69 71  2  0
 69 70  1  0
 72 70  1  0
 73 78  2  0
 73 82  1  0
 74 70  1  0
 74 78  1  0
 75 74  1  0
 76 75  1  0
 76 77  1  0
 77 73  1  0
 78 79  1  0
 79 80  2  0
 81 80  1  0
 82 81  2  0
 83 93  1  0
 83 57  1  0
 83 84  1  0
 84 87  1  0
 85 84  1  0
 85 89  1  0
 86 85  2  0
 89 88  1  0
 91 90  1  0
 91 89  1  0
 91 92  1  0
 93 96  1  1
 93 94  1  0
 95 93  1  0
M  ISO  4  13 100  14 100  55 101  56 101
M  END
>  <TORSDO>  (10) 
F 22

>  <SCORE>  (10) 
-4.794

>  <name>  (10) 
9

>  <ligand_id>  (10) 
9

>  <original_smiles>  (10) 
[H]c1c([H])c([H])c2c(c1[H])C([H])([H])C([H])([H])C([H])([H])C2([H])N([H])C(=O)C1([H])N(C(=O)C([H])(N([H])C(=O)C([H])(N([H])C([H])([H])[H])C([H])([H])[H])C(C([H])([H])[H])(C([H])([H])[H])C([H])([H])[H])C([H])([H])c2c([H])c(OC([H])([H])C([H])([H])N([H])C(=O)C3([H])C([H])([H])C4([H])C([H])([H])C([H])(C(=O)N([H])C([H])([H])C([H])([H])C(=O)N5C([H])([H])C([H])([H])C([H])([H])C([H])(n6nc(-c7c([H])c([H])c(Oc8c([H])c([H])c(F)c([H])c8F)c([H])c7[H])c(C(=O)N([H])[H])c6N([H])[H])C5([H])[H])[N+]34[H])c([H])c([H])c2C1([H])[H]

>  <smiles>  (10) 
[H]c1c([H])c([H])c2c(c1[H])C([H])([H])C([H])([H])C([H])([H])C2([H])N([H])C(=O)C1([H])N(C(=O)C([H])(N([H])C(=O)C([H])(N([H])C([H])([H])[H])C([H])([H])[H])C(C([H])([H])[H])(C([H])([H])[H])C([H])([H])[H])C([H])([H])c2c([H])c(OC([H])([H])C([H])([H])N([H])C(=O)C3([H])C([H])([H])C4([H])C([H])([H])C([H])(C(=O)N([H])C([H])([H])C([H])([H])C(=O)N5C([H])([H])C([H])([H])C([H])([H])C([H])(n6nc(-c7c([H])c([H])c(Oc8c([H])c([H])c(F)c([H])c8F)c([H])c7[H])c(C(=O)N([H])[H])c6N([H])[H])C5([H])[H])[N+]34[H])c([H])c([H])c2C1([H])[H]

$$$$
10:0:0
     RDKit          3D

 87 95  0  0  1  0  0  0  0  0999 V2000
  -29.0320  -22.1280   21.0280 C   0  0  0  0  0  2  0  0  0  0  0  0
  -28.9470  -22.1040   19.0590 C   0  0  0  0  0  2  0  0  0  0  0  0
  -29.1020  -23.3750   20.0270 C   0  0  0  0  0  3  0  0  0  0  0  0
  -29.5690  -21.1080   20.0200 N   0  0  2  0  0  4  0  0  0  0  0  0
  -30.5720  -21.1950   19.9670 H   0  0  0  0  0  0  0  0  0  0  0  0
  -28.2110  -19.2320   21.1840 C   0  0  0  0  0  1  0  0  0  0  0  0
  -29.1700  -19.5450   20.0170 C   0  0  0  0  0  3  0  0  0  0  0  0
  -30.2700  -18.2380   19.9130 C   0  0  0  0  0  3  0  0  0  0  0  0
  -29.9010  -16.5950   20.2100 C   0  0  0  0  0  3  0  0  0  0  0  0
  -30.7890  -15.2100   19.8910 C   0  0  0  0  0  0  0  0  0  0  0  0
  -30.7230  -12.8300   18.9820 C   0  0  0  0  0  2  0  0  0  0  0  0
  -29.7290  -12.7490   17.7980 C   0  0  0  0  0  2  0  0  0  0  0  0
  -28.2940  -12.5010   18.3030 C   0  0  0  0  0  2  0  0  0  0  0  0
  -27.9210  -13.4310   19.4840 C   0  0  0  0  0  3  0  0  0  0  0  0
  -29.0270  -13.4770   20.5580 C   0  0  0  0  0  2  0  0  0  0  0  0
  -30.2660  -13.9140   19.9000 N   0  0  0  0  0  0  0  0  0  0  0  0
  -31.9590  -15.3200   19.5070 O   0  0  0  0  0  0  0  0  0  0  0  0
  -25.5880  -13.9740   20.3890 C   0  0  0  0  0  0  0  0  0  0  0  0
  -24.5490  -13.1810   20.7920 C   0  0  0  0  0  0  0  0  0  0  0  0
  -25.0130  -11.8340   20.6810 C   0  0  0  0  0  0  0  0  0  0  0  0
  -26.6160  -13.1090   20.0510 N   0  0  0  0  0  0  0  0  0  0  0  0
  -26.2830  -11.8140   20.2930 N   0  0  0  0  0  0  0  0  0  0  0  0
  -24.3000  -10.5630   20.8660 C   0  0  0  0  0  0  0  0  0  0  0  0
  -24.6750   -9.6440   21.8700 C   0  0  0  0  0  3  0  0  0  0  0  0
  -23.9610   -8.4370   22.0400 C   0  0  0  0  0  3  0  0  0  0  0  0
  -22.8570   -8.1430   21.2060 C   0  0  0  0  0  0  0  0  0  0  0  0
  -22.5020   -9.0500   20.1930 C   0  0  0  0  0  3  0  0  0  0  0  0
  -23.2170  -10.2470   20.0200 C   0  0  0  0  0  3  0  0  0  0  0  0
  -22.1210   -6.9850   21.2800 O   0  0  0  0  0  0  0  0  0  0  0  0
  -21.8370   -6.3890   22.4830 C   0  0  0  0  0  0  0  0  0  0  0  0
  -21.1200   -7.0600   23.4970 C   0  0  0  0  0  3  0  0  0  0  0  0
  -20.7900   -6.3870   24.6910 C   0  0  0  0  0  3  0  0  0  0  0  0
  -21.1670   -5.0430   24.8690 C   0  0  0  0  0  0  0  0  0  0  0  0
  -21.8780   -4.3710   23.8580 C   0  0  0  0  0  3  0  0  0  0  0  0
  -22.2090   -5.0410   22.6670 C   0  0  0  0  0  0  0  0  0  0  0  0
  -22.8740   -4.3830   21.6880 F   0  0  0  0  0  0  0  0  0  0  0  0
  -20.8450   -4.3930   26.0110 F   0  0  0  0  0  0  0  0  0  0  0  0
  -23.1700  -13.6430   21.1630 C   0  0  0  0  0  0  0  0  0  0  0  0
  -22.4960  -12.9140   22.0450 N   0  0  0  0  0  0  0  0  0  0  0  0
  -22.7010  -14.6850   20.7070 O   0  0  0  0  0  0  0  0  0  0  0  0
  -22.8900  -12.0690   22.4350 H   0  0  0  0  0  0  0  0  0  0  0  0
  -21.5740  -13.2040   22.3370 H   0  0  0  0  0  0  0  0  0  0  0  0
  -25.7400  -15.3500   20.2570 N   0  0  0  0  0  0  0  0  0  0  0  0
  -24.9800  -15.9970   20.4430 H   0  0  0  0  0  0  0  0  0  0  0  0
  -26.5690  -15.8060   19.8980 H   0  0  0  0  0  0  0  0  0  0  0  0
  -28.1120  -24.7630   19.9740 C   0  0  0  0  0  2  0  0  0  0  0  0
  -28.3940  -26.2910   20.2210 O   0  0  0  0  0  0  0  0  0  0  0  0
  -24.6730  -31.9100   23.2890 C   0  0  0  0  0  0  0  0  0  0  0  0
  -27.3420  -27.2910   20.1640 C   0  0  0  0  0  0  0  0  0  0  0  0
  -23.5200  -30.5680   21.5740 C   0  0  0  0  0  3  0  0  0  0  0  0
  -25.0100  -29.0490   20.1310 C   0  0  0  0  0  0  0  0  0  0  0  0
  -26.0790  -30.8420   21.4820 C   0  0  0  0  0  2  0  0  0  0  0  0
  -26.1750  -29.4720   20.7840 C   0  0  0  0  0  0  0  0  0  0  0  0
  -27.3420  -28.6120   20.7810 C   0  0  0  0  0  3  0  0  0  0  0  0
  -26.1470  -26.9810   19.4760 C   0  0  0  0  0  3  0  0  0  0  0  0
  -25.0110  -27.8190   19.4630 C   0  0  0  0  0  3  0  0  0  0  0  0
  -23.7790  -29.9420   20.1790 C   0  0  0  0  0  2  0  0  0  0  0  0
  -24.7770  -31.1270   22.1710 N   0  0  0  0  0  0  0  0  0  0  0  0
  -23.5730  -32.1720   23.7990 O   0  0  0  0  0  0  0  0  0  0  0  0
  -22.8230  -29.5250   22.4840 C   0  0  0  0  0  0  0  0  0  0  0  0
  -21.5030  -29.3390   22.3050 N   0  0  0  0  0  0  0  0  0  0  0  0
  -23.4730  -28.8870   23.3150 O   0  0  0  0  0  0  0  0  0  0  0  0
  -21.0320  -29.9080   21.6150 H   0  0  0  0  0  0  0  0  0  0  0  0
  -18.1190  -28.0940   22.6710 C   0  0  0  0  0  0  0  0  0  0  0  0
  -20.6670  -28.3700   23.0200 C   0  0  0  0  0  3  0  0  0  0  0  0
  -20.8000  -26.9580   22.4030 C   0  0  0  0  0  2  0  0  0  0  0  0
  -19.7300  -26.6580   21.3470 C   0  0  0  0  0  2  0  0  0  0  0  0
  -18.3290  -26.7700   21.9550 C   0  0  0  0  0  2  0  0  0  0  0  0
  -19.2170  -28.8520   23.1560 C   0  0  0  0  0  0  0  0  0  0  0  0
  -18.9670  -30.0920   23.7850 C   0  0  0  0  0  3  0  0  0  0  0  0
  -17.6510  -30.5720   23.9310 C   0  0  0  0  0  3  0  0  0  0  0  0
  -16.5680  -29.8110   23.4600 C   0  0  0  0  0  3  0  0  0  0  0  0
  -16.8030  -28.5720   22.8350 C   0  0  0  0  0  3  0  0  0  0  0  0
  -25.9320  -32.5290   23.9690 C   0  0  0  0  0  3  0  0  0  0  0  0
  -26.3790  -31.7510   25.2680 C   0  0  1  0  0  0  0  0  0  0  0  0
  -25.2330  -31.5180   26.2810 C   0  0  0  0  0  1  0  0  0  0  0  0
  -26.9730  -30.3710   24.9060 C   0  0  0  0  0  1  0  0  0  0  0  0
  -27.5000  -32.5380   25.9880 C   0  0  0  0  0  1  0  0  0  0  0  0
  -25.6230  -33.9310   24.2940 N   0  0  0  0  0  0  0  0  0  0  0  0
  -25.9560  -34.9820   23.5350 C   0  0  0  0  0  0  0  0  0  0  0  0
  -26.6230  -34.8750   22.5010 O   0  0  0  0  0  0  0  0  0  0  0  0
  -25.0320  -34.0890   25.0970 H   0  0  0  0  0  0  0  0  0  0  0  0
  -24.2150  -36.7700   23.2080 C   0  0  0  0  0  1  0  0  0  0  0  0
  -25.4770  -36.3750   23.9920 C   0  0  0  0  0  3  0  0  0  0  0  0
  -27.6210  -37.2840   24.7720 C   0  0  0  0  0  1  0  0  0  0  0  0
  -26.5030  -37.4290   23.8430 N   0  0  0  0  0  0  0  0  0  0  0  0
  -26.0960  -38.3510   23.9800 H   0  0  0  0  0  0  0  0  0  0  0  0
  2  4  1  0
  2  3  1  0
  3 46  1  0
  3  1  1  0
  4  1  1  0
  4  5  1  6
  7  4  1  0
  7  6  1  0
  8  7  1  0
  8  9  2  0
 10 16  1  0
 10  9  1  0
 11 16  1  0
 12 13  1  0
 12 11  1  0
 14 13  1  0
 14 21  1  0
 14 15  1  0
 16 15  1  0
 17 10  2  0
 18 19  2  0
 19 38  1  0
 20 19  1  0
 20 23  1  0
 21 22  1  0
 21 18  1  0
 22 20  2  0
 23 24  1  0
 24 25  2  0
 26 29  1  0
 26 25  1  0
 27 26  2  0
 28 27  1  0
 28 23  2  0
 29 30  1  0
 30 35  2  0
 30 31  1  0
 31 32  2  0
 32 33  1  0
 33 37  1  0
 34 33  2  0
 35 34  1  0
 36 35  1  0
 38 39  1  0
 39 42  1  0
 39 41  1  0
 40 38  2  0
 43 18  1  0
 43 44  1  0
 45 43  1  0
 46 47  1  0
 48 59  2  0
 49 47  1  0
 49 54  1  0
 50 58  1  0
 50 60  1  0
 51 57  1  0
 51 53  1  0
 52 58  1  0
 53 52  1  0
 54 53  2  0
 55 49  2  0
 56 55  1  0
 56 51  2  0
 57 50  1  0
 58 48  1  0
 60 62  2  0
 61 60  1  0
 63 61  1  0
 64 73  2  0
 64 69  1  0
 65 61  1  0
 65 69  1  0
 66 65  1  0
 67 68  1  0
 67 66  1  0
 68 64  1  0
 69 70  2  0
 70 71  1  0
 72 71  2  0
 73 72  1  0
 74 48  1  0
 74 79  1  0
 74 75  1  0
 75 78  1  1
 75 76  1  0
 77 75  1  0
 79 82  1  0
 80 84  1  0
 80 79  1  0
 81 80  2  0
 84 83  1  0
 86 87  1  0
 86 84  1  0
 86 85  1  0
M  ISO  4   9 100  10 100  46 101  47 101
M  END
>  <TORSDO>  (11) 
F 20

>  <SCORE>  (11) 
-13.643

>  <name>  (11) 
10

>  <ligand_id>  (11) 
10

>  <original_smiles>  (11) 
[H]c1c([H])c([H])c2c(c1[H])C([H])([H])C([H])([H])C([H])([H])C2([H])N([H])C(=O)C1([H])N(C(=O)C([H])(N([H])C(=O)C([H])(N([H])C([H])([H])[H])C([H])([H])[H])C(C([H])([H])[H])(C([H])([H])[H])C([H])([H])[H])C([H])([H])c2c([H])c(OC([H])([H])C3([H])C([H])([H])[N+]([H])(C([H])(C([H])([H])[H])C([H])([H])C([H])([H])C(=O)N4C([H])([H])C([H])([H])C([H])([H])C([H])(n5nc(-c6c([H])c([H])c(Oc7c([H])c([H])c(F)c([H])c7F)c([H])c6[H])c(C(=O)N([H])[H])c5N([H])[H])C4([H])[H])C3([H])[H])c([H])c([H])c2C1([H])[H]

>  <smiles>  (11) 
[H]c1c([H])c([H])c2c(c1[H])C([H])([H])C([H])([H])C([H])([H])C2([H])N([H])C(=O)C1([H])N(C(=O)C([H])(N([H])C(=O)C([H])(N([H])C([H])([H])[H])C([H])([H])[H])C(C([H])([H])[H])(C([H])([H])[H])C([H])([H])[H])C([H])([H])c2c([H])c(OC([H])([H])C3([H])C([H])([H])[N+]([H])(C([H])(C([H])([H])[H])C([H])([H])C([H])([H])C(=O)N4C([H])([H])C([H])([H])C([H])([H])C([H])(n5nc(-c6c([H])c([H])c(Oc7c([H])c([H])c(F)c([H])c7F)c([H])c6[H])c(C(=O)N([H])[H])c5N([H])[H])C4([H])[H])C3([H])[H])c([H])c([H])c2C1([H])[H]

$$$$
11:0:0
     RDKit          3D

 89 97  0  0  1  0  0  0  0  0999 V2000
  -28.3090  -18.1800   20.2170 C   0  0  0  0  0  0  0  0  0  0  0  0
  -28.9290  -18.7770   21.4940 C   0  0  0  0  0  3  0  0  0  0  0  0
  -30.2380  -19.6230   21.3000 C   0  0  0  0  0  3  0  0  0  0  0  0
  -30.6710  -20.0260   19.8600 C   0  0  0  0  0  2  0  0  0  0  0  0
  -29.2960  -18.0530   19.0790 C   0  0  0  0  0  3  0  0  0  0  0  0
  -29.6480  -19.6670   18.8590 N   0  0  1  0  0  4  0  0  0  0  0  0
  -27.1220  -17.8530   20.1560 O   0  0  0  0  0  0  0  0  0  0  0  0
  -30.1160  -19.6760   17.9650 H   0  0  0  0  0  0  0  0  0  0  0  0
  -30.3300  -16.7170   19.6910 C   0  0  0  0  0  2  0  0  0  0  0  0
  -30.8270  -15.1280   19.2140 C   0  0  0  0  0  0  0  0  0  0  0  0
  -30.6800  -12.6410   18.5140 C   0  0  0  0  0  2  0  0  0  0  0  0
  -29.6090  -12.3440   17.4310 C   0  0  0  0  0  2  0  0  0  0  0  0
  -28.2010  -12.1880   18.0330 C   0  0  0  0  0  2  0  0  0  0  0  0
  -27.9120  -13.2240   19.1460 C   0  0  0  0  0  3  0  0  0  0  0  0
  -29.0940  -13.3730   20.1280 C   0  0  0  0  0  2  0  0  0  0  0  0
  -30.2540  -13.8300   19.3460 N   0  0  0  0  0  0  0  0  0  0  0  0
  -31.9580  -15.0710   18.7220 O   0  0  0  0  0  0  0  0  0  0  0  0
  -25.7130  -13.8700   20.2610 C   0  0  0  0  0  0  0  0  0  0  0  0
  -24.6680  -13.1380   20.7550 C   0  0  0  0  0  0  0  0  0  0  0  0
  -25.0310  -11.7680   20.5810 C   0  0  0  0  0  0  0  0  0  0  0  0
  -26.6480  -12.9520   19.8210 N   0  0  0  0  0  0  0  0  0  0  0  0
  -26.2660  -11.6790   20.0900 N   0  0  0  0  0  0  0  0  0  0  0  0
  -24.2460  -10.5420   20.7880 C   0  0  0  0  0  0  0  0  0  0  0  0
  -24.6480   -9.5580   21.7190 C   0  0  0  0  0  3  0  0  0  0  0  0
  -23.8690   -8.3970   21.9220 C   0  0  0  0  0  3  0  0  0  0  0  0
  -22.6720   -8.2100   21.1970 C   0  0  0  0  0  0  0  0  0  0  0  0
  -22.2800   -9.1800   20.2560 C   0  0  0  0  0  3  0  0  0  0  0  0
  -23.0600  -10.3320   20.0490 C   0  0  0  0  0  3  0  0  0  0  0  0
  -21.8680   -7.1000   21.3170 O   0  0  0  0  0  0  0  0  0  0  0  0
  -21.7210   -6.4420   22.5120 C   0  0  0  0  0  0  0  0  0  0  0  0
  -21.1940   -7.0830   23.6550 C   0  0  0  0  0  3  0  0  0  0  0  0
  -20.9970   -6.3530   24.8440 C   0  0  0  0  0  3  0  0  0  0  0  0
  -21.3170   -4.9850   24.8880 C   0  0  0  0  0  0  0  0  0  0  0  0
  -21.8390   -4.3420   23.7520 C   0  0  0  0  0  3  0  0  0  0  0  0
  -22.0380   -5.0700   22.5650 C   0  0  0  0  0  0  0  0  0  0  0  0
  -22.5200   -4.4460   21.4630 F   0  0  0  0  0  0  0  0  0  0  0  0
  -21.1210   -4.2780   26.0260 F   0  0  0  0  0  0  0  0  0  0  0  0
  -23.3580  -13.6870   21.2260 C   0  0  0  0  0  0  0  0  0  0  0  0
  -22.7100  -12.9930   22.1550 N   0  0  0  0  0  0  0  0  0  0  0  0
  -22.9220  -14.7590   20.8130 O   0  0  0  0  0  0  0  0  0  0  0  0
  -23.0810  -12.1350   22.5300 H   0  0  0  0  0  0  0  0  0  0  0  0
  -21.8320  -13.3460   22.5040 H   0  0  0  0  0  0  0  0  0  0  0  0
  -25.9260  -15.2270   20.1110 N   0  0  0  0  0  0  0  0  0  0  0  0
  -25.3550  -15.9370   20.5580 H   0  0  0  0  0  0  0  0  0  0  0  0
  -26.5440  -15.6060   19.4020 H   0  0  0  0  0  0  0  0  0  0  0  0
  -28.5920  -20.9430   18.7270 C   0  0  0  0  0  2  0  0  0  0  0  0
  -28.9110  -22.6990   18.6530 C   0  0  0  0  0  3  0  0  0  0  0  0
  -27.8400  -24.1060   18.7840 C   0  0  0  0  0  3  0  0  0  0  0  0
  -28.1070  -25.7040   18.9330 O   0  0  0  0  0  0  0  0  0  0  0  0
  -24.5660  -31.1600   22.6450 C   0  0  0  0  0  0  0  0  0  0  0  0
  -27.0750  -26.7530   19.0180 C   0  0  0  0  0  0  0  0  0  0  0  0
  -23.3340  -29.9310   20.9010 C   0  0  0  0  0  3  0  0  0  0  0  0
  -24.7510  -28.5360   19.2580 C   0  0  0  0  0  0  0  0  0  0  0  0
  -25.8800  -30.2340   20.6770 C   0  0  0  0  0  2  0  0  0  0  0  0
  -25.9490  -28.9050   19.8810 C   0  0  0  0  0  0  0  0  0  0  0  0
  -27.1100  -28.0330   19.7430 C   0  0  0  0  0  3  0  0  0  0  0  0
  -25.8540  -26.5350   18.3440 C   0  0  0  0  0  3  0  0  0  0  0  0
  -24.7250  -27.3780   18.4680 C   0  0  0  0  0  3  0  0  0  0  0  0
  -23.5150  -29.4010   19.4510 C   0  0  0  0  0  2  0  0  0  0  0  0
  -24.6170  -30.4610   21.4640 N   0  0  0  0  0  0  0  0  0  0  0  0
  -23.4940  -31.3610   23.2380 O   0  0  0  0  0  0  0  0  0  0  0  0
  -22.6990  -28.8200   21.7780 C   0  0  0  0  0  0  0  0  0  0  0  0
  -21.3640  -28.6700   21.7210 N   0  0  0  0  0  0  0  0  0  0  0  0
  -23.4120  -28.0960   22.4790 O   0  0  0  0  0  0  0  0  0  0  0  0
  -20.8430  -29.3020   21.1310 H   0  0  0  0  0  0  0  0  0  0  0  0
  -18.0170  -27.3800   22.2720 C   0  0  0  0  0  0  0  0  0  0  0  0
  -20.5880  -27.6380   22.4180 C   0  0  0  0  0  3  0  0  0  0  0  0
  -20.6610  -26.2870   21.6690 C   0  0  0  0  0  2  0  0  0  0  0  0
  -19.5020  -26.0780   20.6900 C   0  0  0  0  0  2  0  0  0  0  0  0
  -18.1590  -26.1280   21.4240 C   0  0  0  0  0  2  0  0  0  0  0  0
  -19.1570  -28.0960   22.7280 C   0  0  0  0  0  0  0  0  0  0  0  0
  -18.9660  -29.2690   23.4910 C   0  0  0  0  0  3  0  0  0  0  0  0
  -17.6710  -29.7250   23.7980 C   0  0  0  0  0  3  0  0  0  0  0  0
  -16.5470  -29.0050   23.3530 C   0  0  0  0  0  3  0  0  0  0  0  0
  -16.7230  -27.8350   22.5950 C   0  0  0  0  0  3  0  0  0  0  0  0
  -25.8520  -31.7550   23.3020 C   0  0  0  0  0  3  0  0  0  0  0  0
  -26.4310  -30.8510   24.4610 C   0  0  1  0  0  0  0  0  0  0  0  0
  -25.3880  -30.4790   25.5420 C   0  0  0  0  0  1  0  0  0  0  0  0
  -27.0130  -29.5370   23.8940 C   0  0  0  0  0  1  0  0  0  0  0  0
  -27.6000  -31.5870   25.1630 C   0  0  0  0  0  1  0  0  0  0  0  0
  -25.5170  -33.0920   23.8200 N   0  0  0  0  0  0  0  0  0  0  0  0
  -25.8100  -34.2490   23.2100 C   0  0  0  0  0  0  0  0  0  0  0  0
  -26.4570  -34.2990   22.1610 O   0  0  0  0  0  0  0  0  0  0  0  0
  -24.9400  -33.1210   24.6500 H   0  0  0  0  0  0  0  0  0  0  0  0
  -24.0440  -36.0490   23.1480 C   0  0  0  0  0  1  0  0  0  0  0  0
  -25.3110  -35.5560   23.8630 C   0  0  0  0  0  3  0  0  0  0  0  0
  -27.4460  -36.3790   24.7630 C   0  0  0  0  0  1  0  0  0  0  0  0
  -26.3220  -36.6340   23.8680 N   0  0  0  0  0  0  0  0  0  0  0  0
  -25.8990  -37.5200   24.1330 H   0  0  0  0  0  0  0  0  0  0  0  0
  1  2  1  0
  3  2  2  0
  4  3  1  0
  5  9  1  0
  5  1  1  0
  6  5  1  0
  6  4  1  0
  7  1  2  0
  6  8  1  6
 10 16  1  0
 10  9  1  0
 11 16  1  0
 12 13  1  0
 12 11  1  0
 14 13  1  0
 14 21  1  0
 14 15  1  0
 16 15  1  0
 17 10  2  0
 18 19  2  0
 19 38  1  0
 20 19  1  0
 20 23  1  0
 21 22  1  0
 21 18  1  0
 22 20  2  0
 23 24  1  0
 24 25  2  0
 26 29  1  0
 26 25  1  0
 27 26  2  0
 28 27  1  0
 28 23  2  0
 29 30  1  0
 30 35  2  0
 30 31  1  0
 31 32  2  0
 32 33  1  0
 33 37  1  0
 34 33  2  0
 35 34  1  0
 36 35  1  0
 38 39  1  0
 39 42  1  0
 39 41  1  0
 40 38  2  0
 43 18  1  0
 43 44  1  0
 45 43  1  0
 46  6  1  0
 47 46  1  0
 47 48  2  0
 48 49  1  0
 49 51  1  0
 50 61  2  0
 51 56  1  0
 52 60  1  0
 52 62  1  0
 53 59  1  0
 53 55  1  0
 54 60  1  0
 55 54  1  0
 56 55  2  0
 57 58  1  0
 57 51  2  0
 58 53  2  0
 59 52  1  0
 60 50  1  0
 62 64  2  0
 63 62  1  0
 65 63  1  0
 66 75  2  0
 66 71  1  0
 67 63  1  0
 67 71  1  0
 68 67  1  0
 69 70  1  0
 69 68  1  0
 70 66  1  0
 71 72  2  0
 72 73  1  0
 74 73  2  0
 75 74  1  0
 76 50  1  0
 76 81  1  0
 76 77  1  0
 77 80  1  1
 77 78  1  0
 79 77  1  0
 81 84  1  0
 82 81  1  0
 82 86  1  0
 83 82  2  0
 86 85  1  0
 86 88  1  0
 88 89  1  0
 88 87  1  0
M  ISO  4   9 100  10 100  48 101  49 101
M  END
>  <TORSDO>  (12) 
F 20

>  <SCORE>  (12) 
-12.412

>  <name>  (12) 
11

>  <ligand_id>  (12) 
11

>  <original_smiles>  (12) 
[H]c1c([H])c([H])c2c(c1[H])C([H])([H])C([H])([H])C([H])([H])C2([H])N([H])C(=O)C1([H])N(C(=O)C([H])(N([H])C(=O)C([H])(N([H])C([H])([H])[H])C([H])([H])[H])C(C([H])([H])[H])(C([H])([H])[H])C([H])([H])[H])C([H])([H])c2c([H])c(OC([H])([H])C([H])([H])C([H])([H])[N+]3([H])C([H])([H])C([H])([H])C([H])([H])C(=O)C3([H])C([H])([H])C(=O)N3C([H])([H])C([H])([H])C([H])([H])C([H])(n4nc(-c5c([H])c([H])c(Oc6c([H])c([H])c(F)c([H])c6F)c([H])c5[H])c(C(=O)N([H])[H])c4N([H])[H])C3([H])[H])c([H])c([H])c2C1([H])[H]

>  <smiles>  (12) 
[H]c1c([H])c([H])c2c(c1[H])C([H])([H])C([H])([H])C([H])([H])C2([H])N([H])C(=O)C1([H])N(C(=O)C([H])(N([H])C(=O)C([H])(N([H])C([H])([H])[H])C([H])([H])[H])C(C([H])([H])[H])(C([H])([H])[H])C([H])([H])[H])C([H])([H])c2c([H])c(OC([H])([H])C([H])([H])C([H])([H])[N+]3([H])C([H])([H])C([H])([H])C([H])([H])C(=O)C3([H])C([H])([H])C(=O)N3C([H])([H])C([H])([H])C([H])([H])C([H])(n4nc(-c5c([H])c([H])c(Oc6c([H])c([H])c(F)c([H])c6F)c([H])c5[H])c(C(=O)N([H])[H])c4N([H])[H])C3([H])[H])c([H])c([H])c2C1([H])[H]

$$$$
12:0:0
     RDKit          3D

 94102  0  0  1  0  0  0  0  0999 V2000
  -31.0990  -21.3220   20.7470 C   0  0  0  0  0  3  0  0  0  0  0  0
  -29.3820  -18.2720   20.7700 C   0  0  0  0  0  2  0  0  0  0  0  0
  -29.0290  -19.7200   20.4770 C   0  0  0  0  0  2  0  0  0  0  0  0
  -30.4040  -17.9390   19.6860 C   0  0  0  0  0  3  0  0  0  0  0  0
  -30.3040  -20.3200   19.8600 C   0  0  0  0  0  3  0  0  0  0  0  0
  -31.7810  -19.3090   18.2240 C   0  0  0  0  0  1  0  0  0  0  0  0
  -31.1710  -19.1770   19.5480 N   0  0  0  0  0  0  0  0  0  0  0  0
  -31.3400  -16.7760   20.0650 C   0  0  0  0  0  2  0  0  0  0  0  0
  -30.5970  -15.4640   20.4320 C   0  0  0  0  0  2  0  0  0  0  0  0
  -31.1570  -14.2080   19.7320 C   0  0  0  0  0  0  0  0  0  0  0  0
  -30.7530  -11.9480   18.8320 C   0  0  0  0  0  2  0  0  0  0  0  0
  -29.7370  -12.0290   17.6760 C   0  0  0  0  0  2  0  0  0  0  0  0
  -28.2950  -11.9520   18.2150 C   0  0  0  0  0  2  0  0  0  0  0  0
  -28.0430  -12.9430   19.3830 C   0  0  0  0  0  3  0  0  0  0  0  0
  -29.1660  -12.8470   20.4400 C   0  0  0  0  0  2  0  0  0  0  0  0
  -30.4540  -13.0470   19.7620 N   0  0  0  0  0  0  0  0  0  0  0  0
  -32.2130  -14.3070   19.1000 O   0  0  0  0  0  0  0  0  0  0  0  0
  -25.7500  -13.6800   20.2940 C   0  0  0  0  0  0  0  0  0  0  0  0
  -24.6740  -12.9660   20.7490 C   0  0  0  0  0  0  0  0  0  0  0  0
  -25.0530  -11.5910   20.6710 C   0  0  0  0  0  0  0  0  0  0  0  0
  -26.7220  -12.7440   19.9730 N   0  0  0  0  0  0  0  0  0  0  0  0
  -26.3080  -11.4820   20.2530 N   0  0  0  0  0  0  0  0  0  0  0  0
  -24.2760  -10.3700   20.9170 C   0  0  0  0  0  0  0  0  0  0  0  0
  -24.6610   -9.4350   21.9050 C   0  0  0  0  0  3  0  0  0  0  0  0
  -23.8870   -8.2770   22.1360 C   0  0  0  0  0  3  0  0  0  0  0  0
  -22.7140   -8.0450   21.3790 C   0  0  0  0  0  0  0  0  0  0  0  0
  -22.3480   -8.9660   20.3800 C   0  0  0  0  0  3  0  0  0  0  0  0
  -23.1230  -10.1150   20.1490 C   0  0  0  0  0  3  0  0  0  0  0  0
  -21.9140   -6.9360   21.5150 O   0  0  0  0  0  0  0  0  0  0  0  0
  -21.7450   -6.3160   22.7270 C   0  0  0  0  0  0  0  0  0  0  0  0
  -21.1820   -6.9860   23.8350 C   0  0  0  0  0  3  0  0  0  0  0  0
  -20.9630   -6.2910   25.0410 C   0  0  0  0  0  3  0  0  0  0  0  0
  -21.2950   -4.9270   25.1390 C   0  0  0  0  0  0  0  0  0  0  0  0
  -21.8490   -4.2560   24.0330 C   0  0  0  0  0  3  0  0  0  0  0  0
  -22.0700   -4.9480   22.8310 C   0  0  0  0  0  0  0  0  0  0  0  0
  -22.5860   -4.2920   21.7630 F   0  0  0  0  0  0  0  0  0  0  0  0
  -21.0770   -4.2560   26.2940 F   0  0  0  0  0  0  0  0  0  0  0  0
  -23.3360  -13.5180   21.1450 C   0  0  0  0  0  0  0  0  0  0  0  0
  -22.6450  -12.8490   22.0640 N   0  0  0  0  0  0  0  0  0  0  0  0
  -22.9140  -14.5740   20.6760 O   0  0  0  0  0  0  0  0  0  0  0  0
  -23.0010  -11.9930   22.4630 H   0  0  0  0  0  0  0  0  0  0  0  0
  -21.7490  -13.1990   22.3720 H   0  0  0  0  0  0  0  0  0  0  0  0
  -25.9800  -15.0400   20.1080 N   0  0  0  0  0  0  0  0  0  0  0  0
  -25.2660  -15.7410   20.2760 H   0  0  0  0  0  0  0  0  0  0  0  0
  -26.8290  -15.4270   19.7190 H   0  0  0  0  0  0  0  0  0  0  0  0
  -30.4290  -22.6390   20.8000 N   0  0  0  0  0  4  0  0  0  0  0  0
  -29.4360  -22.5060   20.9180 H   0  0  0  0  0  0  0  0  0  0  0  0
  -30.7780  -23.0920   21.6280 H   0  0  0  0  0  0  0  0  0  0  0  0
  -30.7050  -23.5340   19.6520 C   0  0  0  0  0  2  0  0  0  0  0  0
  -30.3810  -25.0040   19.9720 C   0  0  0  0  0  2  0  0  0  0  0  0
  -28.9070  -25.3930   19.7990 C   0  0  0  0  0  2  0  0  0  0  0  0
  -28.8090  -26.7440   20.2230 O   0  0  0  0  0  0  0  0  0  0  0  0
  -24.7470  -31.6460   23.3260 C   0  0  0  0  0  0  0  0  0  0  0  0
  -27.5890  -27.3760   20.2000 C   0  0  0  0  0  0  0  0  0  0  0  0
  -23.6330  -30.3010   21.5720 C   0  0  0  0  0  3  0  0  0  0  0  0
  -25.1680  -28.8320   20.1640 C   0  0  0  0  0  0  0  0  0  0  0  0
  -26.1590  -30.6920   21.5120 C   0  0  0  0  0  2  0  0  0  0  0  0
  -26.2870  -29.3510   20.8250 C   0  0  0  0  0  0  0  0  0  0  0  0
  -27.4970  -28.6300   20.8380 C   0  0  0  0  0  3  0  0  0  0  0  0
  -26.4460  -26.8530   19.5510 C   0  0  0  0  0  3  0  0  0  0  0  0
  -25.2400  -27.5790   19.5280 C   0  0  0  0  0  3  0  0  0  0  0  0
  -23.9140  -29.6750   20.1800 C   0  0  0  0  0  2  0  0  0  0  0  0
  -24.8610  -30.8930   22.1960 N   0  0  0  0  0  0  0  0  0  0  0  0
  -23.6380  -31.8890   23.8230 O   0  0  0  0  0  0  0  0  0  0  0  0
  -22.9480  -29.2370   22.4580 C   0  0  0  0  0  0  0  0  0  0  0  0
  -21.6340  -29.0520   22.2560 N   0  0  0  0  0  0  0  0  0  0  0  0
  -23.5960  -28.5840   23.2790 O   0  0  0  0  0  0  0  0  0  0  0  0
  -21.1750  -29.6330   21.5700 H   0  0  0  0  0  0  0  0  0  0  0  0
  -18.2360  -27.8780   22.5870 C   0  0  0  0  0  0  0  0  0  0  0  0
  -20.7870  -28.0800   22.9460 C   0  0  0  0  0  3  0  0  0  0  0  0
  -20.8870  -26.6860   22.2860 C   0  0  0  0  0  2  0  0  0  0  0  0
  -19.8130  -26.4450   21.2200 C   0  0  0  0  0  2  0  0  0  0  0  0
  -18.4130  -26.5720   21.8290 C   0  0  0  0  0  2  0  0  0  0  0  0
  -19.3520  -28.5950   23.0950 C   0  0  0  0  0  0  0  0  0  0  0  0
  -19.1350  -29.8220   23.7560 C   0  0  0  0  0  3  0  0  0  0  0  0
  -17.8330  -30.3330   23.9180 C   0  0  0  0  0  3  0  0  0  0  0  0
  -16.7300  -29.6100   23.4300 C   0  0  0  0  0  3  0  0  0  0  0  0
  -16.9320  -28.3860   22.7680 C   0  0  0  0  0  3  0  0  0  0  0  0
  -25.9970  -32.2570   24.0330 C   0  0  0  0  0  3  0  0  0  0  0  0
  -25.6790  -33.6530   24.3640 N   0  0  0  0  0  0  0  0  0  0  0  0
  -26.0740  -34.7130   23.6460 C   0  0  0  0  0  0  0  0  0  0  0  0
  -26.8130  -34.6180   22.6620 O   0  0  0  0  0  0  0  0  0  0  0  0
  -25.0330  -33.8030   25.1240 H   0  0  0  0  0  0  0  0  0  0  0  0
  -24.3910  -36.5260   23.1950 C   0  0  0  0  0  1  0  0  0  0  0  0
  -25.5660  -36.0980   24.0890 C   0  0  0  0  0  3  0  0  0  0  0  0
  -27.6290  -36.9560   25.1050 C   0  0  0  0  0  1  0  0  0  0  0  0
  -26.6130  -37.1420   24.0720 N   0  0  0  0  0  0  0  0  0  0  0  0
  -26.2040  -38.0650   24.1910 H   0  0  0  0  0  0  0  0  0  0  0  0
  -26.4340  -31.4630   25.3250 C   0  0  1  0  0  0  0  0  0  0  0  0
  -25.2750  -31.1970   26.3110 C   0  0  0  0  0  1  0  0  0  0  0  0
  -27.0520  -30.0980   24.9420 C   0  0  0  0  0  1  0  0  0  0  0  0
  -27.5320  -32.2510   26.0780 C   0  0  0  0  0  1  0  0  0  0  0  0
  -32.6110  -21.4960   22.8340 C   0  0  0  0  0  1  0  0  0  0  0  0
  -31.4050  -20.8050   22.1730 C   0  0  0  0  0  2  0  0  0  0  0  0
  1 46  1  0
  1 94  1  0
  3  2  1  0
  4  8  1  0
  4  2  1  0
  5  3  1  0
  5  1  1  0
  6  7  1  0
  7  4  1  0
  7  5  1  0
  8  9  1  0
 10 16  1  0
 10  9  1  0
 11 16  1  0
 12 13  1  0
 12 11  1  0
 14 13  1  0
 14 21  1  0
 14 15  1  0
 16 15  1  0
 17 10  2  0
 18 19  2  0
 19 38  1  0
 20 19  1  0
 20 23  1  0
 21 22  1  0
 21 18  1  0
 22 20  2  0
 23 24  1  0
 24 25  2  0
 26 29  1  0
 26 25  1  0
 27 26  2  0
 28 27  1  0
 28 23  2  0
 29 30  1  0
 30 35  2  0
 30 31  1  0
 31 32  2  0
 32 33  1  0
 33 37  1  0
 34 33  2  0
 35 34  1  0
 36 35  1  0
 38 39  1  0
 39 42  1  0
 39 41  1  0
 40 38  2  0
 43 44  1  0
 43 18  1  0
 45 43  1  0
 46 47  1  0
 46 48  1  0
 49 50  1  0
 49 46  1  0
 51 50  1  0
 51 52  1  0
 53 64  2  0
 54 52  1  0
 54 59  1  0
 55 63  1  0
 55 65  1  0
 56 62  1  0
 56 58  1  0
 57 63  1  0
 58 59  2  0
 58 57  1  0
 60 54  2  0
 61 60  1  0
 61 56  2  0
 62 55  1  0
 63 53  1  0
 65 67  2  0
 66 65  1  0
 68 66  1  0
 69 78  2  0
 69 74  1  0
 70 66  1  0
 70 74  1  0
 71 70  1  0
 72 73  1  0
 72 71  1  0
 73 69  1  0
 74 75  2  0
 75 76  1  0
 77 76  2  0
 78 77  1  0
 79 53  1  0
 79 80  1  0
 79 89  1  0
 80 83  1  0
 81 85  1  0
 81 80  1  0
 82 81  2  0
 85 84  1  0
 87 85  1  0
 87 88  1  0
 87 86  1  0
 89 92  1  1
 89 90  1  0
 91 89  1  0
 94 93  1  0
M  ISO  4   9 100  10 100  51 101  52 101
M  END
>  <TORSDO>  (13) 
F 24

>  <SCORE>  (13) 
-11.345

>  <name>  (13) 
12

>  <ligand_id>  (13) 
12

>  <original_smiles>  (13) 
[H]c1c([H])c([H])c2c(c1[H])C([H])([H])C([H])([H])C([H])([H])C2([H])N([H])C(=O)C1([H])N(C(=O)C([H])(N([H])C(=O)C([H])(N([H])C([H])([H])[H])C([H])([H])[H])C(C([H])([H])[H])(C([H])([H])[H])C([H])([H])[H])C([H])([H])c2c([H])c(OC([H])([H])C([H])([H])C([H])([H])[N+]([H])([H])C([H])(C([H])([H])C([H])([H])[H])C3([H])N(C([H])([H])[H])C([H])(C([H])([H])C([H])([H])C(=O)N4C([H])([H])C([H])([H])C([H])([H])C([H])(n5nc(-c6c([H])c([H])c(Oc7c([H])c([H])c(F)c([H])c7F)c([H])c6[H])c(C(=O)N([H])[H])c5N([H])[H])C4([H])[H])C([H])([H])C3([H])[H])c([H])c([H])c2C1([H])[H]

>  <smiles>  (13) 
[H]c1c([H])c([H])c2c(c1[H])C([H])([H])C([H])([H])C([H])([H])C2([H])N([H])C(=O)C1([H])N(C(=O)C([H])(N([H])C(=O)C([H])(N([H])C([H])([H])[H])C([H])([H])[H])C(C([H])([H])[H])(C([H])([H])[H])C([H])([H])[H])C([H])([H])c2c([H])c(OC([H])([H])C([H])([H])C([H])([H])[N+]([H])([H])C([H])(C([H])([H])C([H])([H])[H])C3([H])N(C([H])([H])[H])C([H])(C([H])([H])C([H])([H])C(=O)N4C([H])([H])C([H])([H])C([H])([H])C([H])(n5nc(-c6c([H])c([H])c(Oc7c([H])c([H])c(F)c([H])c7F)c([H])c6[H])c(C(=O)N([H])[H])c5N([H])[H])C4([H])[H])C([H])([H])C3([H])[H])c([H])c([H])c2C1([H])[H]

$$$$
13:0:0
     RDKit          3D

 94102  0  0  1  0  0  0  0  0999 V2000
  -27.1840  -23.2830   20.5240 C   0  0  0  0  0  2  0  0  0  0  0  0
  -29.3430  -23.0660   21.6840 C   0  0  0  0  0  2  0  0  0  0  0  0
  -28.3610  -23.6350   19.6100 C   0  0  0  0  0  3  0  0  0  0  0  0
  -29.5310  -22.5890   20.2100 C   0  0  0  0  0  3  0  0  0  0  0  0
  -27.8210  -23.2460   21.9290 C   0  0  0  0  0  3  0  0  0  0  0  0
  -27.2260  -22.2220   22.8090 N   0  0  0  0  0  4  0  0  0  0  0  0
  -27.2980  -21.2940   22.4360 H   0  0  0  0  0  0  0  0  0  0  0  0
  -26.2500  -22.4210   22.9490 H   0  0  0  0  0  0  0  0  0  0  0  0
  -27.6610  -22.2380   23.7150 H   0  0  0  0  0  0  0  0  0  0  0  0
  -31.3790  -20.9210   20.8350 C   0  0  0  0  0  1  0  0  0  0  0  0
  -29.8720  -20.9080   20.4410 C   0  0  0  0  0  3  0  0  0  0  0  0
  -29.6600  -19.6040   19.5760 N   0  0  0  0  0  4  0  0  0  0  0  0
  -28.6680  -19.4300   19.5470 H   0  0  0  0  0  0  0  0  0  0  0  0
  -29.9340  -19.8050   18.6260 H   0  0  0  0  0  0  0  0  0  0  0  0
  -30.3900  -18.2480   20.0070 C   0  0  0  0  0  3  0  0  0  0  0  0
  -29.8820  -16.6860   19.6840 C   0  0  0  0  0  3  0  0  0  0  0  0
  -30.7980  -15.3060   19.7610 C   0  0  0  0  0  0  0  0  0  0  0  0
  -30.6980  -12.9010   18.9970 C   0  0  0  0  0  2  0  0  0  0  0  0
  -29.7080  -12.8130   17.8090 C   0  0  0  0  0  2  0  0  0  0  0  0
  -28.2630  -12.6230   18.3080 C   0  0  0  0  0  2  0  0  0  0  0  0
  -27.9030  -13.5990   19.4570 C   0  0  0  0  0  3  0  0  0  0  0  0
  -29.0070  -13.6550   20.5320 C   0  0  0  0  0  2  0  0  0  0  0  0
  -30.2600  -14.0270   19.8660 N   0  0  0  0  0  0  0  0  0  0  0  0
  -31.9970  -15.3830   19.4640 O   0  0  0  0  0  0  0  0  0  0  0  0
  -25.5990  -14.2110   20.3880 C   0  0  0  0  0  0  0  0  0  0  0  0
  -24.5380  -13.4480   20.7950 C   0  0  0  0  0  0  0  0  0  0  0  0
  -24.9570  -12.0880   20.6680 C   0  0  0  0  0  0  0  0  0  0  0  0
  -26.5940  -13.3150   20.0330 N   0  0  0  0  0  0  0  0  0  0  0  0
  -26.2210  -12.0300   20.2660 N   0  0  0  0  0  0  0  0  0  0  0  0
  -24.2050  -10.8390   20.8490 C   0  0  0  0  0  0  0  0  0  0  0  0
  -24.6220   -9.8480   21.7660 C   0  0  0  0  0  3  0  0  0  0  0  0
  -23.8700   -8.6660   21.9340 C   0  0  0  0  0  3  0  0  0  0  0  0
  -22.6860   -8.4650   21.1850 C   0  0  0  0  0  0  0  0  0  0  0  0
  -22.2870   -9.4440   20.2570 C   0  0  0  0  0  3  0  0  0  0  0  0
  -23.0410  -10.6170   20.0870 C   0  0  0  0  0  3  0  0  0  0  0  0
  -21.9050   -7.3380   21.2640 O   0  0  0  0  0  0  0  0  0  0  0  0
  -21.7900   -6.6230   22.4290 C   0  0  0  0  0  0  0  0  0  0  0  0
  -21.2830   -7.2030   23.6130 C   0  0  0  0  0  3  0  0  0  0  0  0
  -21.1180   -6.4130   24.7680 C   0  0  0  0  0  3  0  0  0  0  0  0
  -21.4490   -5.0440   24.7390 C   0  0  0  0  0  0  0  0  0  0  0  0
  -21.9480   -4.4640   23.5600 C   0  0  0  0  0  3  0  0  0  0  0  0
  -22.1160   -5.2520   22.4070 C   0  0  0  0  0  0  0  0  0  0  0  0
  -22.5780   -4.6840   21.2680 F   0  0  0  0  0  0  0  0  0  0  0  0
  -21.2820   -4.2840   25.8460 F   0  0  0  0  0  0  0  0  0  0  0  0
  -23.1780  -13.9510   21.1830 C   0  0  0  0  0  0  0  0  0  0  0  0
  -22.4980  -13.2430   22.0780 N   0  0  0  0  0  0  0  0  0  0  0  0
  -22.7320  -15.0040   20.7300 O   0  0  0  0  0  0  0  0  0  0  0  0
  -22.8730  -12.3890   22.4630 H   0  0  0  0  0  0  0  0  0  0  0  0
  -21.5880  -13.5590   22.3850 H   0  0  0  0  0  0  0  0  0  0  0  0
  -25.7930  -15.5820   20.2640 N   0  0  0  0  0  0  0  0  0  0  0  0
  -25.0550  -16.2510   20.4560 H   0  0  0  0  0  0  0  0  0  0  0  0
  -26.6230  -16.0100   19.8740 H   0  0  0  0  0  0  0  0  0  0  0  0
  -28.5880  -25.3120   19.7820 C   0  0  0  0  0  2  0  0  0  0  0  0
  -28.1680  -26.5560   18.9830 O   0  0  0  0  0  0  0  0  0  0  0  0
  -24.7590  -31.7350   22.9940 C   0  0  0  0  0  0  0  0  0  0  0  0
  -27.0730  -27.4260   19.2790 C   0  0  0  0  0  0  0  0  0  0  0  0
  -23.4150  -30.4960   21.3380 C   0  0  0  0  0  3  0  0  0  0  0  0
  -24.7310  -29.0900   19.6410 C   0  0  0  0  0  0  0  0  0  0  0  0
  -25.9350  -30.8310   20.9560 C   0  0  0  0  0  2  0  0  0  0  0  0
  -25.9580  -29.5110   20.1710 C   0  0  0  0  0  0  0  0  0  0  0  0
  -27.1310  -28.6980   19.9680 C   0  0  0  0  0  3  0  0  0  0  0  0
  -25.8170  -27.0870   18.7380 C   0  0  0  0  0  3  0  0  0  0  0  0
  -24.6680  -27.8910   18.9120 C   0  0  0  0  0  3  0  0  0  0  0  0
  -23.5080  -29.9600   19.8850 C   0  0  0  0  0  2  0  0  0  0  0  0
  -24.7280  -31.0360   21.8190 N   0  0  0  0  0  0  0  0  0  0  0  0
  -23.7260  -31.9440   23.6490 O   0  0  0  0  0  0  0  0  0  0  0  0
  -22.8370  -29.3860   22.2510 C   0  0  0  0  0  0  0  0  0  0  0  0
  -21.5150  -29.1540   22.1720 N   0  0  0  0  0  0  0  0  0  0  0  0
  -23.5790  -28.7350   22.9890 O   0  0  0  0  0  0  0  0  0  0  0  0
  -20.9680  -29.7360   21.5530 H   0  0  0  0  0  0  0  0  0  0  0  0
  -18.2430  -27.6790   22.6590 C   0  0  0  0  0  0  0  0  0  0  0  0
  -20.7790  -28.1190   22.9040 C   0  0  0  0  0  3  0  0  0  0  0  0
  -20.9770  -26.7300   22.2550 C   0  0  0  0  0  2  0  0  0  0  0  0
  -19.8850  -26.3760   21.2410 C   0  0  0  0  0  2  0  0  0  0  0  0
  -18.5070  -26.3840   21.9100 C   0  0  0  0  0  2  0  0  0  0  0  0
  -19.3090  -28.5010   23.1110 C   0  0  0  0  0  0  0  0  0  0  0  0
  -19.0060  -29.7110   23.7730 C   0  0  0  0  0  3  0  0  0  0  0  0
  -17.6710  -30.1010   23.9860 C   0  0  0  0  0  3  0  0  0  0  0  0
  -16.6200  -29.2770   23.5490 C   0  0  0  0  0  3  0  0  0  0  0  0
  -16.9070  -28.0680   22.8920 C   0  0  0  0  0  3  0  0  0  0  0  0
  -26.0880  -32.3190   23.5600 C   0  0  0  0  0  3  0  0  0  0  0  0
  -25.8050  -33.6770   24.0540 N   0  0  0  0  0  0  0  0  0  0  0  0
  -26.1180  -34.8070   23.4040 C   0  0  0  0  0  0  0  0  0  0  0  0
  -26.7420  -34.8130   22.3400 O   0  0  0  0  0  0  0  0  0  0  0  0
  -25.2440  -33.7450   24.8900 H   0  0  0  0  0  0  0  0  0  0  0  0
  -24.4070  -36.6510   23.3210 C   0  0  0  0  0  1  0  0  0  0  0  0
  -25.6690  -36.1410   24.0340 C   0  0  0  0  0  3  0  0  0  0  0  0
  -27.8420  -36.9060   24.8820 C   0  0  0  0  0  1  0  0  0  0  0  0
  -26.7130  -37.1890   24.0010 N   0  0  0  0  0  0  0  0  0  0  0  0
  -26.3270  -38.0920   24.2620 H   0  0  0  0  0  0  0  0  0  0  0  0
  -26.7120  -31.4360   24.7100 C   0  0  1  0  0  0  0  0  0  0  0  0
  -25.7190  -31.1000   25.8480 C   0  0  0  0  0  1  0  0  0  0  0  0
  -27.2480  -30.1010   24.1480 C   0  0  0  0  0  1  0  0  0  0  0  0
  -27.9220  -32.1700   25.3360 C   0  0  0  0  0  1  0  0  0  0  0  0
  1  5  1  0
  2  5  1  0
  3 53  1  0
  3  4  1  0
  3  1  1  0
  4 11  1  0
  4  2  1  0
  5  6  1  0
  6  8  1  0
  6  9  1  0
  7  6  1  0
 11 10  1  0
 12 15  1  0
 12 11  1  0
 13 12  1  0
 14 12  1  0
 16 17  1  0
 16 15  2  0
 17 23  1  0
 18 23  1  0
 19 20  1  0
 19 18  1  0
 21 20  1  0
 21 28  1  0
 21 22  1  0
 23 22  1  0
 24 17  2  0
 25 26  2  0
 26 45  1  0
 27 26  1  0
 27 30  1  0
 28 29  1  0
 28 25  1  0
 29 27  2  0
 30 31  1  0
 31 32  2  0
 33 36  1  0
 33 32  1  0
 34 33  2  0
 35 34  1  0
 35 30  2  0
 36 37  1  0
 37 38  1  0
 38 39  2  0
 40 39  1  0
 40 44  1  0
 41 40  2  0
 42 37  2  0
 42 41  1  0
 43 42  1  0
 45 46  1  0
 46 49  1  0
 46 48  1  0
 47 45  2  0
 50 25  1  0
 50 51  1  0
 52 50  1  0
 54 56  1  0
 54 53  1  0
 55 66  2  0
 56 61  1  0
 57 65  1  0
 57 67  1  0
 58 64  1  0
 58 60  1  0
 59 65  1  0
 60 59  1  0
 61 60  2  0
 62 63  1  0
 62 56  2  0
 63 58  2  0
 64 57  1  0
 65 55  1  0
 67 69  2  0
 68 67  1  0
 70 68  1  0
 71 80  2  0
 71 76  1  0
 72 68  1  0
 72 76  1  0
 73 72  1  0
 74 75  1  0
 74 73  1  0
 75 71  1  0
 76 77  2  0
 77 78  1  0
 79 78  2  0
 80 79  1  0
 81 55  1  0
 81 82  1  0
 81 91  1  0
 82 85  1  0
 83 87  1  0
 83 82  1  0
 84 83  2  0
 87 86  1  0
 89 87  1  0
 89 90  1  0
 89 88  1  0
 91 94  1  1
 91 92  1  0
 93 91  1  0
M  ISO  4  16 100  17 100  53 101  54 101
M  END
>  <TORSDO>  (14) 
F 22

>  <SCORE>  (14) 
-11.251

>  <name>  (14) 
13

>  <ligand_id>  (14) 
13

>  <original_smiles>  (14) 
[H]c1c([H])c([H])c2c(c1[H])C([H])([H])C([H])([H])C([H])([H])C2([H])N([H])C(=O)C1([H])N(C(=O)C([H])(N([H])C(=O)C([H])(N([H])C([H])([H])[H])C([H])([H])[H])C(C([H])([H])[H])(C([H])([H])[H])C([H])([H])[H])C([H])([H])c2c([H])c(OC([H])([H])C3([H])C([H])([H])C([H])([N+]([H])([H])[H])C([H])([H])C3([H])C([H])(C([H])([H])[H])[N+]([H])([H])C([H])([H])C([H])([H])C(=O)N3C([H])([H])C([H])([H])C([H])([H])C([H])(n4nc(-c5c([H])c([H])c(Oc6c([H])c([H])c(F)c([H])c6F)c([H])c5[H])c(C(=O)N([H])[H])c4N([H])[H])C3([H])[H])c([H])c([H])c2C1([H])[H]

>  <smiles>  (14) 
[H]c1c([H])c([H])c2c(c1[H])C([H])([H])C([H])([H])C([H])([H])C2([H])N([H])C(=O)C1([H])N(C(=O)C([H])(N([H])C(=O)C([H])(N([H])C([H])([H])[H])C([H])([H])[H])C(C([H])([H])[H])(C([H])([H])[H])C([H])([H])[H])C([H])([H])c2c([H])c(OC([H])([H])C3([H])C([H])([H])C([H])([N+]([H])([H])[H])C([H])([H])C3([H])C([H])(C([H])([H])[H])[N+]([H])([H])C([H])([H])C([H])([H])C(=O)N3C([H])([H])C([H])([H])C([H])([H])C([H])(n4nc(-c5c([H])c([H])c(Oc6c([H])c([H])c(F)c([H])c6F)c([H])c5[H])c(C(=O)N([H])[H])c4N([H])[H])C3([H])[H])c([H])c([H])c2C1([H])[H]

$$$$
14:0:0
     RDKit          3D

 88 96  0  0  1  0  0  0  0  0999 V2000
  -29.2240  -22.6700   19.1130 C   0  0  0  0  0  2  0  0  0  0  0  0
  -28.6850  -21.8040   20.2310 C   0  0  0  0  0  3  0  0  0  0  0  0
  -28.9460  -23.4600   20.3620 C   0  0  1  0  0  0  0  0  0  0  0  0
  -30.0570  -23.9080   21.3010 C   0  0  0  0  0  1  0  0  0  0  0  0
  -29.6560  -20.5390   20.5110 C   0  0  0  0  0  0  0  0  0  0  0  0
  -29.2580  -19.1840   20.4540 N   0  0  0  0  0  0  0  0  0  0  0  0
  -30.8460  -20.7510   20.7400 O   0  0  0  0  0  0  0  0  0  0  0  0
  -28.2700  -19.0350   20.2860 H   0  0  0  0  0  0  0  0  0  0  0  0
  -30.1550  -17.8870   20.4500 C   0  0  0  0  0  3  0  0  0  0  0  0
  -29.6290  -16.3290   20.7380 C   0  0  0  0  0  3  0  0  0  0  0  0
  -30.4910  -14.9510   20.4280 C   0  0  0  0  0  0  0  0  0  0  0  0
  -30.3800  -12.6270   19.4220 C   0  0  0  0  0  2  0  0  0  0  0  0
  -29.4420  -12.6590   18.1890 C   0  0  0  0  0  2  0  0  0  0  0  0
  -27.9760  -12.4490   18.6180 C   0  0  0  0  0  2  0  0  0  0  0  0
  -27.5850  -13.3450   19.8210 C   0  0  0  0  0  3  0  0  0  0  0  0
  -28.6380  -13.2880   20.9450 C   0  0  0  0  0  2  0  0  0  0  0  0
  -29.9260  -13.6840   20.3670 N   0  0  0  0  0  0  0  0  0  0  0  0
  -31.6780  -15.0510   20.0950 O   0  0  0  0  0  0  0  0  0  0  0  0
  -25.2040  -13.9340   20.5630 C   0  0  0  0  0  0  0  0  0  0  0  0
  -24.1380  -13.1590   20.9300 C   0  0  0  0  0  0  0  0  0  0  0  0
  -24.6010  -11.8080   20.8920 C   0  0  0  0  0  0  0  0  0  0  0  0
  -26.2450  -13.0530   20.3170 N   0  0  0  0  0  0  0  0  0  0  0  0
  -25.8910  -11.7700   20.5820 N   0  0  0  0  0  0  0  0  0  0  0  0
  -23.8750  -10.5450   21.0740 C   0  0  0  0  0  0  0  0  0  0  0  0
  -24.3030   -9.5740   22.0060 C   0  0  0  0  0  3  0  0  0  0  0  0
  -23.5760   -8.3760   22.1780 C   0  0  0  0  0  3  0  0  0  0  0  0
  -22.4040   -8.1430   21.4170 C   0  0  0  0  0  0  0  0  0  0  0  0
  -21.9950   -9.1030   20.4760 C   0  0  0  0  0  3  0  0  0  0  0  0
  -22.7240  -10.2910   20.3030 C   0  0  0  0  0  3  0  0  0  0  0  0
  -21.6480   -6.9980   21.4990 O   0  0  0  0  0  0  0  0  0  0  0  0
  -21.5960   -6.2490   22.6480 C   0  0  0  0  0  0  0  0  0  0  0  0
  -21.1490   -6.7940   23.8730 C   0  0  0  0  0  3  0  0  0  0  0  0
  -21.0470   -5.9720   25.0130 C   0  0  0  0  0  3  0  0  0  0  0  0
  -21.3800   -4.6060   24.9290 C   0  0  0  0  0  0  0  0  0  0  0  0
  -21.8160   -4.0610   23.7090 C   0  0  0  0  0  3  0  0  0  0  0  0
  -21.9230   -4.8810   22.5720 C   0  0  0  0  0  0  0  0  0  0  0  0
  -22.3270   -4.3460   21.3930 F   0  0  0  0  0  0  0  0  0  0  0  0
  -21.2710   -3.8140   26.0210 F   0  0  0  0  0  0  0  0  0  0  0  0
  -22.7420  -13.6370   21.2020 C   0  0  0  0  0  0  0  0  0  0  0  0
  -22.0110  -12.9370   22.0630 N   0  0  0  0  0  0  0  0  0  0  0  0
  -22.3070  -14.6640   20.6850 O   0  0  0  0  0  0  0  0  0  0  0  0
  -22.3740  -12.1040   22.5010 H   0  0  0  0  0  0  0  0  0  0  0  0
  -21.0770  -13.2450   22.2910 H   0  0  0  0  0  0  0  0  0  0  0  0
  -25.3690  -15.3040   20.3950 N   0  0  0  0  0  0  0  0  0  0  0  0
  -24.6000  -15.9540   20.5060 H   0  0  0  0  0  0  0  0  0  0  0  0
  -26.2220  -15.7460   20.0750 H   0  0  0  0  0  0  0  0  0  0  0  0
  -27.9220  -24.7410   20.1480 C   0  0  0  0  0  2  0  0  0  0  0  0
  -28.2340  -26.2470   20.2590 O   0  0  0  0  0  0  0  0  0  0  0  0
  -24.6250  -31.8940   23.2650 C   0  0  0  0  0  0  0  0  0  0  0  0
  -27.1780  -27.2150   20.1910 C   0  0  0  0  0  0  0  0  0  0  0  0
  -23.4150  -30.5020   21.6310 C   0  0  0  0  0  3  0  0  0  0  0  0
  -24.8540  -28.9470   20.1770 C   0  0  0  0  0  0  0  0  0  0  0  0
  -25.9670  -30.7640   21.4630 C   0  0  0  0  0  2  0  0  0  0  0  0
  -26.0330  -29.3850   20.7920 C   0  0  0  0  0  0  0  0  0  0  0  0
  -27.1990  -28.5330   20.7900 C   0  0  0  0  0  3  0  0  0  0  0  0
  -25.9760  -26.8750   19.5290 C   0  0  0  0  0  3  0  0  0  0  0  0
  -24.8370  -27.7050   19.5270 C   0  0  0  0  0  3  0  0  0  0  0  0
  -23.6270  -29.8400   20.2430 C   0  0  0  0  0  2  0  0  0  0  0  0
  -24.6880  -31.0760   22.1710 N   0  0  0  0  0  0  0  0  0  0  0  0
  -23.5430  -32.1810   23.7970 O   0  0  0  0  0  0  0  0  0  0  0  0
  -22.7470  -29.4860   22.5910 C   0  0  0  0  0  0  0  0  0  0  0  0
  -21.4220  -29.3070   22.4680 N   0  0  0  0  0  0  0  0  0  0  0  0
  -23.4260  -28.8630   23.4120 O   0  0  0  0  0  0  0  0  0  0  0  0
  -20.9320  -29.8640   21.7810 H   0  0  0  0  0  0  0  0  0  0  0  0
  -18.0470  -28.0840   22.9670 C   0  0  0  0  0  0  0  0  0  0  0  0
  -20.6030  -28.3660   23.2410 C   0  0  0  0  0  3  0  0  0  0  0  0
  -20.7190  -26.9320   22.6730 C   0  0  0  0  0  2  0  0  0  0  0  0
  -19.6220  -26.5950   21.6580 C   0  0  0  0  0  2  0  0  0  0  0  0
  -18.2360  -26.7320   22.2980 C   0  0  0  0  0  2  0  0  0  0  0  0
  -19.1580  -28.8590   23.3930 C   0  0  0  0  0  0  0  0  0  0  0  0
  -18.9240  -30.1220   23.9770 C   0  0  0  0  0  3  0  0  0  0  0  0
  -17.6150  -30.6120   24.1420 C   0  0  0  0  0  3  0  0  0  0  0  0
  -16.5190  -29.8320   23.7330 C   0  0  0  0  0  3  0  0  0  0  0  0
  -16.7350  -28.5730   23.1490 C   0  0  0  0  0  3  0  0  0  0  0  0
  -25.9110  -32.5270   23.8800 C   0  0  0  0  0  3  0  0  0  0  0  0
  -26.4250  -31.7690   25.1660 C   0  0  1  0  0  0  0  0  0  0  0  0
  -25.3320  -31.5420   26.2380 C   0  0  0  0  0  1  0  0  0  0  0  0
  -27.0120  -30.3880   24.7970 C   0  0  0  0  0  1  0  0  0  0  0  0
  -27.5790  -32.5710   25.8150 C   0  0  0  0  0  1  0  0  0  0  0  0
  -25.6070  -33.9290   24.2040 N   0  0  0  0  0  0  0  0  0  0  0  0
  -25.9210  -34.9780   23.4320 C   0  0  0  0  0  0  0  0  0  0  0  0
  -26.5620  -34.8690   22.3850 O   0  0  0  0  0  0  0  0  0  0  0  0
  -25.0340  -34.0910   25.0190 H   0  0  0  0  0  0  0  0  0  0  0  0
  -24.1750  -36.7650   23.1260 C   0  0  0  0  0  1  0  0  0  0  0  0
  -25.4450  -36.3700   23.8950 C   0  0  0  0  0  3  0  0  0  0  0  0
  -27.6050  -37.2640   24.6470 C   0  0  0  0  0  1  0  0  0  0  0  0
  -26.4710  -37.4260   23.7410 N   0  0  0  0  0  0  0  0  0  0  0  0
  -26.0660  -38.3450   23.9010 H   0  0  0  0  0  0  0  0  0  0  0  0
  1  2  1  0
  1  3  1  0
  2  3  1  0
  2  5  1  0
  3  4  1  1
  5  7  2  0
  6  5  1  0
  8  6  1  0
  9  6  1  0
  9 10  2  0
 11 10  1  0
 12 17  1  0
 13 14  1  0
 13 12  1  0
 15 14  1  0
 15 22  1  0
 15 16  1  0
 17 11  1  0
 17 16  1  0
 18 11  2  0
 19 20  2  0
 20 39  1  0
 21 20  1  0
 21 24  1  0
 22 19  1  0
 22 23  1  0
 23 21  2  0
 24 25  1  0
 25 26  2  0
 27 30  1  0
 27 26  1  0
 28 27  2  0
 29 28  1  0
 29 24  2  0
 30 31  1  0
 31 32  1  0
 32 33  2  0
 34 33  1  0
 34 38  1  0
 35 34  2  0
 36 31  2  0
 36 35  1  0
 37 36  1  0
 39 40  1  0
 40 43  1  0
 40 42  1  0
 41 39  2  0
 44 45  1  0
 44 19  1  0
 46 44  1  0
 47 48  1  0
 47  3  1  0
 49 60  2  0
 50 48  1  0
 50 55  1  0
 51 59  1  0
 51 61  1  0
 52 58  1  0
 52 54  1  0
 53 59  1  0
 54 53  1  0
 55 54  2  0
 56 50  2  0
 57 56  1  0
 57 52  2  0
 58 51  1  0
 59 49  1  0
 61 63  2  0
 62 61  1  0
 64 62  1  0
 65 74  2  0
 65 70  1  0
 66 62  1  0
 66 70  1  0
 67 66  1  0
 68 69  1  0
 68 67  1  0
 69 65  1  0
 70 71  2  0
 71 72  1  0
 73 72  2  0
 74 73  1  0
 75 49  1  0
 75 80  1  0
 75 76  1  0
 76 79  1  1
 76 77  1  0
 78 76  1  0
 80 83  1  0
 81 85  1  0
 81 80  1  0
 82 81  2  0
 85 84  1  0
 87 85  1  0
 87 88  1  0
 87 86  1  0
M  ISO  4  10 100  11 100  47 101  48 101
M  END
>  <TORSDO>  (15) 
F 20

>  <SCORE>  (15) 
-13.789

>  <name>  (15) 
14

>  <ligand_id>  (15) 
14

>  <original_smiles>  (15) 
[H]c1c([H])c([H])c2c(c1[H])C([H])([H])C([H])([H])C([H])([H])C2([H])N([H])C(=O)C1([H])N(C(=O)C([H])(N([H])C(=O)C([H])(N([H])C([H])([H])[H])C([H])([H])[H])C(C([H])([H])[H])(C([H])([H])[H])C([H])([H])[H])C([H])([H])c2c([H])c(OC([H])([H])C3(C([H])([H])[H])C([H])([H])C3([H])C(=O)N([H])C([H])([H])C([H])([H])C(=O)N3C([H])([H])C([H])([H])C([H])([H])C([H])(n4nc(-c5c([H])c([H])c(Oc6c([H])c([H])c(F)c([H])c6F)c([H])c5[H])c(C(=O)N([H])[H])c4N([H])[H])C3([H])[H])c([H])c([H])c2C1([H])[H]

>  <smiles>  (15) 
[H]c1c([H])c([H])c2c(c1[H])C([H])([H])C([H])([H])C([H])([H])C2([H])N([H])C(=O)C1([H])N(C(=O)C([H])(N([H])C(=O)C([H])(N([H])C([H])([H])[H])C([H])([H])[H])C(C([H])([H])[H])(C([H])([H])[H])C([H])([H])[H])C([H])([H])c2c([H])c(OC([H])([H])C3(C([H])([H])[H])C([H])([H])C3([H])C(=O)N([H])C([H])([H])C([H])([H])C(=O)N3C([H])([H])C([H])([H])C([H])([H])C([H])(n4nc(-c5c([H])c([H])c(Oc6c([H])c([H])c(F)c([H])c6F)c([H])c5[H])c(C(=O)N([H])[H])c4N([H])[H])C3([H])[H])c([H])c([H])c2C1([H])[H]

$$$$
15:0:0
     RDKit          3D

 93101  0  0  1  0  0  0  0  0999 V2000
  -29.4110  -21.1920   20.6790 N   0  0  0  0  0  4  0  0  0  0  0  0
  -29.8080  -20.7620   21.5040 H   0  0  0  0  0  0  0  0  0  0  0  0
  -30.1990  -21.4120   20.0900 H   0  0  0  0  0  0  0  0  0  0  0  0
  -28.7130  -22.4760   21.1440 C   0  0  0  0  0  2  0  0  0  0  0  0
  -29.1080  -23.8910   20.5140 C   0  0  0  0  0  3  0  0  0  0  0  0
  -27.9940  -25.0250   20.6360 C   0  0  0  0  0  3  0  0  0  0  0  0
  -28.2790  -26.4370   20.2660 O   0  0  0  0  0  0  0  0  0  0  0  0
  -24.5940  -31.8720   23.2350 C   0  0  0  0  0  0  0  0  0  0  0  0
  -27.1790  -27.3090   20.2010 C   0  0  0  0  0  0  0  0  0  0  0  0
  -23.3770  -30.4720   21.6030 C   0  0  0  0  0  3  0  0  0  0  0  0
  -24.8230  -28.9270   20.1710 C   0  0  0  0  0  0  0  0  0  0  0  0
  -25.9070  -30.8040   21.3860 C   0  0  0  0  0  2  0  0  0  0  0  0
  -25.9950  -29.4150   20.7640 C   0  0  0  0  0  0  0  0  0  0  0  0
  -27.1780  -28.6200   20.7710 C   0  0  0  0  0  3  0  0  0  0  0  0
  -25.9920  -26.8820   19.5620 C   0  0  0  0  0  3  0  0  0  0  0  0
  -24.8250  -27.6660   19.5580 C   0  0  0  0  0  3  0  0  0  0  0  0
  -23.5820  -29.7940   20.2230 C   0  0  0  0  0  2  0  0  0  0  0  0
  -24.6480  -31.0650   22.1350 N   0  0  0  0  0  0  0  0  0  0  0  0
  -23.5130  -32.1500   23.7740 O   0  0  0  0  0  0  0  0  0  0  0  0
  -22.7260  -29.4530   22.5660 C   0  0  0  0  0  0  0  0  0  0  0  0
  -21.3990  -29.2740   22.4490 N   0  0  0  0  0  0  0  0  0  0  0  0
  -23.4100  -28.8240   23.3760 O   0  0  0  0  0  0  0  0  0  0  0  0
  -20.9070  -29.8390   21.7710 H   0  0  0  0  0  0  0  0  0  0  0  0
  -18.0220  -28.0900   22.9570 C   0  0  0  0  0  0  0  0  0  0  0  0
  -20.5810  -28.3370   23.2200 C   0  0  0  0  0  3  0  0  0  0  0  0
  -20.6770  -26.9070   22.6440 C   0  0  0  0  0  2  0  0  0  0  0  0
  -19.5680  -26.5880   21.6340 C   0  0  0  0  0  2  0  0  0  0  0  0
  -18.1880  -26.7390   22.2830 C   0  0  0  0  0  2  0  0  0  0  0  0
  -19.1460  -28.8470   23.3840 C   0  0  0  0  0  0  0  0  0  0  0  0
  -18.9340  -30.1120   23.9730 C   0  0  0  0  0  3  0  0  0  0  0  0
  -17.6310  -30.6170   24.1470 C   0  0  0  0  0  3  0  0  0  0  0  0
  -16.5210  -29.8560   23.7380 C   0  0  0  0  0  3  0  0  0  0  0  0
  -16.7190  -28.5970   23.1430 C   0  0  0  0  0  3  0  0  0  0  0  0
  -25.8770  -32.5040   23.8500 C   0  0  0  0  0  3  0  0  0  0  0  0
  -25.5650  -33.9020   24.1770 N   0  0  0  0  0  0  0  0  0  0  0  0
  -25.9000  -34.9560   23.4200 C   0  0  0  0  0  0  0  0  0  0  0  0
  -26.5730  -34.8540   22.3920 O   0  0  0  0  0  0  0  0  0  0  0  0
  -24.9490  -34.0510   24.9610 H   0  0  0  0  0  0  0  0  0  0  0  0
  -24.1710  -36.7580   23.0720 C   0  0  0  0  0  1  0  0  0  0  0  0
  -25.4100  -36.3430   23.8790 C   0  0  0  0  0  3  0  0  0  0  0  0
  -27.5450  -37.2290   24.7100 C   0  0  0  0  0  1  0  0  0  0  0  0
  -26.4400  -37.3970   23.7720 N   0  0  0  0  0  0  0  0  0  0  0  0
  -26.0310  -38.3140   23.9300 H   0  0  0  0  0  0  0  0  0  0  0  0
  -26.3970  -31.7310   25.1240 C   0  0  1  0  0  0  0  0  0  0  0  0
  -25.3060  -31.4970   26.1950 C   0  0  0  0  0  1  0  0  0  0  0  0
  -26.9740  -30.3500   24.7250 C   0  0  0  0  0  1  0  0  0  0  0  0
  -27.5460  -32.5240   25.7900 C   0  0  0  0  0  1  0  0  0  0  0  0
  -28.4880  -20.1800   20.0120 C   0  0  0  0  0  3  0  0  0  0  0  0
  -27.7230  -17.8610   19.1390 C   0  0  0  0  0  2  0  0  0  0  0  0
  -28.9480  -18.6630   19.6360 C   0  0  0  0  0  3  0  0  0  0  0  0
  -29.1840  -17.2690   20.4470 C   0  0  0  0  0  3  0  0  0  0  0  0
  -27.7240  -17.1520   20.4170 N   0  0  0  0  0  4  0  0  0  0  0  0
  -27.2870  -16.2380   20.3690 H   0  0  0  0  0  0  0  0  0  0  0  0
  -27.2760  -17.6910   21.1390 H   0  0  0  0  0  0  0  0  0  0  0  0
  -29.8300  -15.9790   19.7030 C   0  0  0  0  0  2  0  0  0  0  0  0
  -30.5840  -14.7050   20.3100 C   0  0  0  0  0  0  0  0  0  0  0  0
  -30.3950  -12.4160   19.3910 C   0  0  0  0  0  2  0  0  0  0  0  0
  -29.4750  -12.5080   18.1500 C   0  0  0  0  0  2  0  0  0  0  0  0
  -27.9930  -12.3750   18.5520 C   0  0  0  0  0  2  0  0  0  0  0  0
  -27.6100  -13.2550   19.7650 C   0  0  0  0  0  3  0  0  0  0  0  0
  -28.6590  -13.1760   20.8950 C   0  0  0  0  0  2  0  0  0  0  0  0
  -29.9730  -13.4740   20.3270 N   0  0  0  0  0  0  0  0  0  0  0  0
  -31.8160  -14.7650   20.2670 O   0  0  0  0  0  0  0  0  0  0  0  0
  -25.2320  -13.8620   20.4840 C   0  0  0  0  0  0  0  0  0  0  0  0
  -24.1580  -13.0950   20.8220 C   0  0  0  0  0  0  0  0  0  0  0  0
  -24.6210  -11.7430   20.8110 C   0  0  0  0  0  0  0  0  0  0  0  0
  -26.2700  -12.9780   20.2450 N   0  0  0  0  0  0  0  0  0  0  0  0
  -25.9130  -11.6990   20.5170 N   0  0  0  0  0  0  0  0  0  0  0  0
  -23.8940  -10.4890   21.0130 C   0  0  0  0  0  0  0  0  0  0  0  0
  -24.3190   -9.5340   21.9610 C   0  0  0  0  0  3  0  0  0  0  0  0
  -23.5920   -8.3380   22.1460 C   0  0  0  0  0  3  0  0  0  0  0  0
  -22.4280   -8.0930   21.3780 C   0  0  0  0  0  0  0  0  0  0  0  0
  -22.0240   -9.0380   20.4200 C   0  0  0  0  0  3  0  0  0  0  0  0
  -22.7490  -10.2240   20.2380 C   0  0  0  0  0  3  0  0  0  0  0  0
  -21.6700   -6.9510   21.4670 O   0  0  0  0  0  0  0  0  0  0  0  0
  -21.6120   -6.2170   22.6230 C   0  0  0  0  0  0  0  0  0  0  0  0
  -21.1910   -6.7860   23.8460 C   0  0  0  0  0  3  0  0  0  0  0  0
  -21.0820   -5.9760   24.9940 C   0  0  0  0  0  3  0  0  0  0  0  0
  -21.3840   -4.6030   24.9200 C   0  0  0  0  0  0  0  0  0  0  0  0
  -21.7950   -4.0350   23.7040 C   0  0  0  0  0  3  0  0  0  0  0  0
  -21.9080   -4.8410   22.5570 C   0  0  0  0  0  0  0  0  0  0  0  0
  -22.2870   -4.2860   21.3800 F   0  0  0  0  0  0  0  0  0  0  0  0
  -21.2690   -3.8250   26.0220 F   0  0  0  0  0  0  0  0  0  0  0  0
  -22.7580  -13.5790   21.0560 C   0  0  0  0  0  0  0  0  0  0  0  0
  -22.0090  -12.9010   21.9140 N   0  0  0  0  0  0  0  0  0  0  0  0
  -22.3470  -14.5990   20.5040 O   0  0  0  0  0  0  0  0  0  0  0  0
  -22.3660  -12.0730   22.3680 H   0  0  0  0  0  0  0  0  0  0  0  0
  -21.0710  -13.2090   22.1340 H   0  0  0  0  0  0  0  0  0  0  0  0
  -25.4030  -15.2430   20.3460 N   0  0  0  0  0  0  0  0  0  0  0  0
  -24.7880  -15.4610   19.5620 H   0  0  0  0  0  0  0  0  0  0  0  0
  -24.8380  -15.5870   21.1210 H   0  0  0  0  0  0  0  0  0  0  0  0
  -28.9260  -21.2680   17.6360 C   0  0  0  0  0  1  0  0  0  0  0  0
  -27.9040  -20.8900   18.7340 C   0  0  0  0  0  2  0  0  0  0  0  0
  1  4  1  0
  1  2  1  0
  3  1  1  0
  5  6  2  0
  5  4  1  0
  7  6  1  0
  8 19  2  0
  9  7  1  0
  9 14  1  0
 10 18  1  0
 10 20  1  0
 11 17  1  0
 11 13  1  0
 12 18  1  0
 13 14  2  0
 13 12  1  0
 15  9  2  0
 16 15  1  0
 16 11  2  0
 17 10  1  0
 18  8  1  0
 20 22  2  0
 21 20  1  0
 23 21  1  0
 24 33  2  0
 24 29  1  0
 25 21  1  0
 25 29  1  0
 26 25  1  0
 27 28  1  0
 27 26  1  0
 28 24  1  0
 29 30  2  0
 30 31  1  0
 32 31  2  0
 33 32  1  0
 34  8  1  0
 34 35  1  0
 34 44  1  0
 35 38  1  0
 36 40  1  0
 36 35  1  0
 37 36  2  0
 40 39  1  0
 42 40  1  0
 42 43  1  0
 42 41  1  0
 44 47  1  1
 44 45  1  0
 46 44  1  0
 48 93  1  0
 48  1  1  0
 49 50  1  0
 49 52  1  0
 50 48  1  0
 50 51  1  0
 51 55  1  0
 52 51  1  0
 52 54  1  0
 53 52  1  0
 55 56  1  0
 56 62  1  0
 57 62  1  0
 58 59  1  0
 58 57  1  0
 60 59  1  0
 60 67  1  0
 60 61  1  0
 62 61  1  0
 63 56  2  0
 64 65  2  0
 65 84  1  0
 66 65  1  0
 66 69  1  0
 67 64  1  0
 67 68  1  0
 68 66  2  0
 69 70  1  0
 70 71  2  0
 72 75  1  0
 72 71  1  0
 73 72  2  0
 74 73  1  0
 74 69  2  0
 75 76  1  0
 76 77  1  0
 77 78  2  0
 79 78  1  0
 79 83  1  0
 80 79  2  0
 81 76  2  0
 81 80  1  0
 82 81  1  0
 84 85  1  0
 85 88  1  0
 85 87  1  0
 86 84  2  0
 89 64  1  0
 89 91  1  0
 90 89  1  0
 92 93  1  0
M  ISO  4   6 101   7 101  55 100  56 100
M  END
>  <TORSDO>  (16) 
F 23

>  <SCORE>  (16) 
-12.938

>  <name>  (16) 
15

>  <ligand_id>  (16) 
15

>  <original_smiles>  (16) 
[H]c1c([H])c([H])c2c(c1[H])C([H])([H])C([H])([H])C([H])([H])C2([H])N([H])C(=O)C1([H])N(C(=O)C([H])(N([H])C(=O)C([H])(N([H])C([H])([H])[H])C([H])([H])[H])C(C([H])([H])[H])(C([H])([H])[H])C([H])([H])[H])C([H])([H])c2c([H])c(OC([H])([H])C([H])([H])C([H])([H])[N+]([H])([H])C([H])(C([H])([H])C([H])([H])[H])C3([H])C([H])([H])[N+]([H])([H])C3([H])C([H])([H])C(=O)N3C([H])([H])C([H])([H])C([H])([H])C([H])(n4nc(-c5c([H])c([H])c(Oc6c([H])c([H])c(F)c([H])c6F)c([H])c5[H])c(C(=O)N([H])[H])c4N([H])[H])C3([H])[H])c([H])c([H])c2C1([H])[H]

>  <smiles>  (16) 
[H]c1c([H])c([H])c2c(c1[H])C([H])([H])C([H])([H])C([H])([H])C2([H])N([H])C(=O)C1([H])N(C(=O)C([H])(N([H])C(=O)C([H])(N([H])C([H])([H])[H])C([H])([H])[H])C(C([H])([H])[H])(C([H])([H])[H])C([H])([H])[H])C([H])([H])c2c([H])c(OC([H])([H])C([H])([H])C([H])([H])[N+]([H])([H])C([H])(C([H])([H])C([H])([H])[H])C3([H])C([H])([H])[N+]([H])([H])C3([H])C([H])([H])C(=O)N3C([H])([H])C([H])([H])C([H])([H])C([H])(n4nc(-c5c([H])c([H])c(Oc6c([H])c([H])c(F)c([H])c6F)c([H])c5[H])c(C(=O)N([H])[H])c4N([H])[H])C3([H])[H])c([H])c([H])c2C1([H])[H]

$$$$
16:0:0
     RDKit          3D

 90 99  0  0  1  0  0  0  0  0999 V2000
  -28.9150  -22.0050   20.6360 C   0  0  0  0  0  0  0  0  0  0  0  0
  -29.8770  -19.5350   20.7340 C   0  0  0  0  0  0  0  0  0  0  0  0
  -28.8860  -20.6010   21.2680 C   0  0  0  0  0  3  0  0  0  0  0  0
  -31.0800  -20.0440   19.9180 C   0  0  0  0  0  2  0  0  0  0  0  0
  -31.2420  -21.5850   19.8600 C   0  0  0  0  0  2  0  0  0  0  0  0
  -29.9170  -23.8300   19.5780 C   0  0  0  0  0  2  0  0  0  0  0  0
  -29.9130  -22.2950   19.5590 C   0  0  0  0  0  3  0  0  0  0  0  0
  -28.5220  -24.1670   20.1480 C   0  0  0  0  0  3  0  0  0  0  0  0
  -28.1890  -23.0020   20.9750 N   0  0  0  0  0  2  0  0  0  0  0  0
  -29.6500  -18.2910   20.9930 N   0  0  0  0  0  0  0  0  0  0  0  0
  -28.4140  -25.5030   20.9520 C   0  0  0  0  0  2  0  0  0  0  0  0
  -28.4330  -26.7140   20.1650 O   0  0  0  0  0  0  0  0  0  0  0  0
  -24.6010  -31.9010   23.2510 C   0  0  0  0  0  0  0  0  0  0  0  0
  -27.2670  -27.4570   20.1800 C   0  0  0  0  0  0  0  0  0  0  0  0
  -23.4010  -30.4930   21.6100 C   0  0  0  0  0  3  0  0  0  0  0  0
  -24.8630  -28.9540   20.1900 C   0  0  0  0  0  0  0  0  0  0  0  0
  -25.9250  -30.8610   21.4090 C   0  0  0  0  0  2  0  0  0  0  0  0
  -26.0200  -29.4870   20.7730 C   0  0  0  0  0  0  0  0  0  0  0  0
  -27.2280  -28.7480   20.7600 C   0  0  0  0  0  3  0  0  0  0  0  0
  -26.0940  -26.9370   19.5950 C   0  0  0  0  0  3  0  0  0  0  0  0
  -24.8960  -27.6780   19.5980 C   0  0  0  0  0  3  0  0  0  0  0  0
  -23.6130  -29.8070   20.2340 C   0  0  0  0  0  2  0  0  0  0  0  0
  -24.6610  -31.1000   22.1490 N   0  0  0  0  0  0  0  0  0  0  0  0
  -23.5190  -32.1700   23.7900 O   0  0  0  0  0  0  0  0  0  0  0  0
  -22.7520  -29.4720   22.5710 C   0  0  0  0  0  0  0  0  0  0  0  0
  -21.4270  -29.2880   22.4440 N   0  0  0  0  0  0  0  0  0  0  0  0
  -23.4360  -28.8480   23.3860 O   0  0  0  0  0  0  0  0  0  0  0  0
  -20.9360  -29.8430   21.7570 H   0  0  0  0  0  0  0  0  0  0  0  0
  -18.0560  -28.0900   22.9460 C   0  0  0  0  0  0  0  0  0  0  0  0
  -20.6130  -28.3480   23.2140 C   0  0  0  0  0  3  0  0  0  0  0  0
  -20.7160  -26.9190   22.6330 C   0  0  0  0  0  2  0  0  0  0  0  0
  -19.6120  -26.5980   21.6200 C   0  0  0  0  0  2  0  0  0  0  0  0
  -18.2310  -26.7420   22.2660 C   0  0  0  0  0  2  0  0  0  0  0  0
  -19.1750  -28.8510   23.3760 C   0  0  0  0  0  0  0  0  0  0  0  0
  -18.9570  -30.1130   23.9690 C   0  0  0  0  0  3  0  0  0  0  0  0
  -17.6520  -30.6150   24.1380 C   0  0  0  0  0  3  0  0  0  0  0  0
  -16.5470  -29.8490   23.7250 C   0  0  0  0  0  3  0  0  0  0  0  0
  -16.7500  -28.5890   23.1350 C   0  0  0  0  0  3  0  0  0  0  0  0
  -25.8850  -32.5380   23.8720 C   0  0  0  0  0  3  0  0  0  0  0  0
  -26.4020  -31.7710   25.1510 C   0  0  1  0  0  0  0  0  0  0  0  0
  -25.3090  -31.5330   26.2170 C   0  0  0  0  0  1  0  0  0  0  0  0
  -26.9900  -30.3940   24.7630 C   0  0  0  0  0  1  0  0  0  0  0  0
  -27.5500  -32.5700   25.8130 C   0  0  0  0  0  1  0  0  0  0  0  0
  -25.5750  -33.9360   24.1930 N   0  0  0  0  0  0  0  0  0  0  0  0
  -25.9100  -34.9850   23.4300 C   0  0  0  0  0  0  0  0  0  0  0  0
  -26.5850  -34.8780   22.4020 O   0  0  0  0  0  0  0  0  0  0  0  0
  -24.9750  -34.0950   24.9890 H   0  0  0  0  0  0  0  0  0  0  0  0
  -24.1810  -36.7730   23.0570 C   0  0  0  0  0  1  0  0  0  0  0  0
  -25.4170  -36.3740   23.8790 C   0  0  0  0  0  3  0  0  0  0  0  0
  -27.5520  -37.2580   24.7120 C   0  0  0  0  0  1  0  0  0  0  0  0
  -26.4470  -37.4310   23.7710 N   0  0  0  0  0  0  0  0  0  0  0  0
  -26.0370  -38.3470   23.9350 H   0  0  0  0  0  0  0  0  0  0  0  0
  -30.5110  -17.1990   20.4960 C   0  0  0  0  0  2  0  0  0  0  0  0
  -29.9900  -15.7930   20.9560 C   0  0  0  0  0  2  0  0  0  0  0  0
  -30.6790  -14.5620   20.2890 C   0  0  0  0  0  0  0  0  0  0  0  0
  -30.3590  -12.4090   19.1010 C   0  0  0  0  0  2  0  0  0  0  0  0
  -29.3890  -12.6380   17.9220 C   0  0  0  0  0  2  0  0  0  0  0  0
  -27.9250  -12.4920   18.3830 C   0  0  0  0  0  2  0  0  0  0  0  0
  -27.6190  -13.3040   19.6690 C   0  0  0  0  0  3  0  0  0  0  0  0
  -28.7030  -13.0700   20.7460 C   0  0  0  0  0  2  0  0  0  0  0  0
  -30.0130  -13.3780   20.1550 N   0  0  0  0  0  0  0  0  0  0  0  0
  -31.7970  -14.7270   19.7920 O   0  0  0  0  0  0  0  0  0  0  0  0
  -25.2310  -13.9020   20.4190 C   0  0  0  0  0  0  0  0  0  0  0  0
  -24.1720  -13.1250   20.8060 C   0  0  0  0  0  0  0  0  0  0  0  0
  -24.6370  -11.7740   20.7720 C   0  0  0  0  0  0  0  0  0  0  0  0
  -26.2760  -13.0240   20.1750 N   0  0  0  0  0  0  0  0  0  0  0  0
  -25.9240  -11.7400   20.4440 N   0  0  0  0  0  0  0  0  0  0  0  0
  -23.9190  -10.5110   20.9790 C   0  0  0  0  0  0  0  0  0  0  0  0
  -24.3700   -9.5450   21.9060 C   0  0  0  0  0  3  0  0  0  0  0  0
  -23.6500   -8.3470   22.1000 C   0  0  0  0  0  3  0  0  0  0  0  0
  -22.4650   -8.1040   21.3670 C   0  0  0  0  0  0  0  0  0  0  0  0
  -22.0320   -9.0590   20.4280 C   0  0  0  0  0  3  0  0  0  0  0  0
  -22.7530  -10.2490   20.2330 C   0  0  0  0  0  3  0  0  0  0  0  0
  -21.7170   -6.9570   21.4690 O   0  0  0  0  0  0  0  0  0  0  0  0
  -21.6940   -6.2140   22.6230 C   0  0  0  0  0  0  0  0  0  0  0  0
  -21.2930   -6.7680   23.8580 C   0  0  0  0  0  3  0  0  0  0  0  0
  -21.2160   -5.9530   25.0030 C   0  0  0  0  0  3  0  0  0  0  0  0
  -21.5310   -4.5830   24.9170 C   0  0  0  0  0  0  0  0  0  0  0  0
  -21.9260   -4.0280   23.6870 C   0  0  0  0  0  3  0  0  0  0  0  0
  -22.0040   -4.8400   22.5420 C   0  0  0  0  0  0  0  0  0  0  0  0
  -22.3640   -4.2960   21.3550 F   0  0  0  0  0  0  0  0  0  0  0  0
  -21.4500   -3.7960   26.0150 F   0  0  0  0  0  0  0  0  0  0  0  0
  -22.7770  -13.5980   21.1010 C   0  0  0  0  0  0  0  0  0  0  0  0
  -22.0680  -12.9010   21.9820 N   0  0  0  0  0  0  0  0  0  0  0  0
  -22.3260  -14.6190   20.5860 O   0  0  0  0  0  0  0  0  0  0  0  0
  -22.4450  -12.0700   22.4150 H   0  0  0  0  0  0  0  0  0  0  0  0
  -21.1350  -13.2010   22.2250 H   0  0  0  0  0  0  0  0  0  0  0  0
  -25.3870  -15.2730   20.2360 N   0  0  0  0  0  0  0  0  0  0  0  0
  -24.6250  -15.9290   20.3590 H   0  0  0  0  0  0  0  0  0  0  0  0
  -26.2390  -15.7150   19.9120 H   0  0  0  0  0  0  0  0  0  0  0  0
  1  9  1  0
  1  3  2  0
  2 10  2  0
  2  3  1  0
  4  2  1  0
  5  4  1  0
  6  8  1  0
  7  6  1  0
  7  5  1  0
  7  1  1  0
  8 11  1  0
  8  9  1  0
 12 14  1  0
 12 11  1  0
 13 24  2  0
 14 19  1  0
 15 23  1  0
 15 25  1  0
 16 22  1  0
 16 18  1  0
 17 23  1  0
 18 17  1  0
 19 18  2  0
 20 21  1  0
 20 14  2  0
 21 16  2  0
 22 15  1  0
 23 13  1  0
 25 27  2  0
 26 25  1  0
 28 26  1  0
 29 38  2  0
 29 34  1  0
 30 26  1  0
 30 34  1  0
 31 30  1  0
 32 33  1  0
 32 31  1  0
 33 29  1  0
 34 35  2  0
 35 36  1  0
 37 36  2  0
 38 37  1  0
 39 13  1  0
 39 44  1  0
 39 40  1  0
 40 43  1  1
 40 41  1  0
 42 40  1  0
 44 47  1  0
 45 49  1  0
 45 44  1  0
 46 45  2  0
 49 48  1  0
 51 49  1  0
 51 52  1  0
 51 50  1  0
 53 54  1  0
 53 10  1  0
 55 54  1  0
 56 61  1  0
 57 58  1  0
 57 56  1  0
 59 58  1  0
 59 66  1  0
 59 60  1  0
 61 55  1  0
 61 60  1  0
 62 55  2  0
 63 64  2  0
 64 83  1  0
 65 64  1  0
 65 68  1  0
 66 63  1  0
 66 67  1  0
 67 65  2  0
 68 69  1  0
 69 70  2  0
 71 74  1  0
 71 70  1  0
 72 71  2  0
 73 72  1  0
 73 68  2  0
 74 75  1  0
 75 76  1  0
 76 77  2  0
 78 77  1  0
 78 82  1  0
 79 78  2  0
 80 75  2  0
 80 79  1  0
 81 80  1  0
 83 84  1  0
 84 87  1  0
 84 86  1  0
 85 83  2  0
 88 89  1  0
 88 63  1  0
 90 88  1  0
M  ISO  4  11 101  12 101  54 100  55 100
M  END
>  <TORSDO>  (17) 
F 19

>  <SCORE>  (17) 
-14.169

>  <name>  (17) 
16

>  <ligand_id>  (17) 
16

>  <original_smiles>  (17) 
[H]c1c([H])c([H])c2c(c1[H])C([H])([H])C([H])([H])C([H])([H])C2([H])N([H])C(=O)C1([H])N(C(=O)C([H])(N([H])C(=O)C([H])(N([H])C([H])([H])[H])C([H])([H])[H])C(C([H])([H])[H])(C([H])([H])[H])C([H])([H])[H])C([H])([H])c2c([H])c(OC([H])([H])C3([H])N=C4C([H])([H])C(=NC([H])([H])C([H])([H])C(=O)N5C([H])([H])C([H])([H])C([H])([H])C([H])(n6nc(-c7c([H])c([H])c(Oc8c([H])c([H])c(F)c([H])c8F)c([H])c7[H])c(C(=O)N([H])[H])c6N([H])[H])C5([H])[H])C([H])([H])C([H])([H])C4([H])C3([H])[H])c([H])c([H])c2C1([H])[H]

>  <smiles>  (17) 
[H]c1c([H])c([H])c2c(c1[H])C([H])([H])C([H])([H])C([H])([H])C2([H])N([H])C(=O)C1([H])N(C(=O)C([H])(N([H])C(=O)C([H])(N([H])C([H])([H])[H])C([H])([H])[H])C(C([H])([H])[H])(C([H])([H])[H])C([H])([H])[H])C([H])([H])c2c([H])c(OC([H])([H])C3([H])N=C4C([H])([H])C(=NC([H])([H])C([H])([H])C(=O)N5C([H])([H])C([H])([H])C([H])([H])C([H])(n6nc(-c7c([H])c([H])c(Oc8c([H])c([H])c(F)c([H])c8F)c([H])c7[H])c(C(=O)N([H])[H])c6N([H])[H])C5([H])[H])C([H])([H])C([H])([H])C4([H])C3([H])[H])c([H])c([H])c2C1([H])[H]

$$$$
17:0:0
     RDKit          3D

 88 96  0  0  1  0  0  0  0  0999 V2000
  -29.7260  -21.6390   21.5590 C   0  0  0  0  0  0  0  0  0  0  0  0
  -30.0580  -20.0600   21.5890 C   0  0  0  0  0  2  0  0  0  0  0  0
  -28.9580  -22.1730   20.2990 C   0  0  0  0  0  3  0  0  0  0  0  0
  -29.5980  -19.2910   20.2820 C   0  0  2  0  0  0  0  0  0  0  0  0
  -30.7240  -19.4010   19.2370 C   0  0  0  0  0  1  0  0  0  0  0  0
  -28.5620  -20.5760   19.9450 N   0  0  0  0  0  4  0  0  0  0  0  0
  -30.0860  -22.3610   22.4920 O   0  0  0  0  0  0  0  0  0  0  0  0
  -28.2550  -20.5250   18.9900 H   0  0  0  0  0  0  0  0  0  0  0  0
  -27.7440  -20.3980   20.5040 H   0  0  0  0  0  0  0  0  0  0  0  0
  -29.3450  -17.3630   20.3650 C   0  0  0  0  0  2  0  0  0  0  0  0
  -30.2270  -15.7180   20.1780 C   0  0  0  0  0  0  0  0  0  0  0  0
  -30.3530  -13.1840   19.3160 C   0  0  0  0  0  2  0  0  0  0  0  0
  -29.4290  -12.8470   18.1080 C   0  0  0  0  0  2  0  0  0  0  0  0
  -28.0130  -12.4760   18.5760 C   0  0  0  0  0  2  0  0  0  0  0  0
  -27.5300  -13.4330   19.6880 C   0  0  0  0  0  3  0  0  0  0  0  0
  -28.5840  -13.7050   20.7840 C   0  0  0  0  0  2  0  0  0  0  0  0
  -29.7590  -14.3300   20.1380 N   0  0  0  0  0  0  0  0  0  0  0  0
  -31.4470  -15.6870   19.9200 O   0  0  0  0  0  0  0  0  0  0  0  0
  -25.1860  -13.9250   20.5360 C   0  0  0  0  0  0  0  0  0  0  0  0
  -24.1450  -13.1290   20.9150 C   0  0  0  0  0  0  0  0  0  0  0  0
  -24.6260  -11.7840   20.8370 C   0  0  0  0  0  0  0  0  0  0  0  0
  -26.2290  -13.0700   20.2350 N   0  0  0  0  0  0  0  0  0  0  0  0
  -25.9090  -11.7720   20.4840 N   0  0  0  0  0  0  0  0  0  0  0  0
  -23.9130  -10.5130   21.0180 C   0  0  0  0  0  0  0  0  0  0  0  0
  -24.3510   -9.5440   21.9480 C   0  0  0  0  0  3  0  0  0  0  0  0
  -23.6330   -8.3410   22.1210 C   0  0  0  0  0  3  0  0  0  0  0  0
  -22.4600   -8.0990   21.3660 C   0  0  0  0  0  0  0  0  0  0  0  0
  -22.0420   -9.0560   20.4240 C   0  0  0  0  0  3  0  0  0  0  0  0
  -22.7620  -10.2490   20.2490 C   0  0  0  0  0  3  0  0  0  0  0  0
  -21.7150   -6.9470   21.4460 O   0  0  0  0  0  0  0  0  0  0  0  0
  -21.6360   -6.2180   22.6060 C   0  0  0  0  0  0  0  0  0  0  0  0
  -21.1430   -6.7760   23.8050 C   0  0  0  0  0  3  0  0  0  0  0  0
  -21.0160   -5.9730   24.9560 C   0  0  0  0  0  3  0  0  0  0  0  0
  -21.3700   -4.6110   24.9070 C   0  0  0  0  0  0  0  0  0  0  0  0
  -21.8540   -4.0510   23.7120 C   0  0  0  0  0  3  0  0  0  0  0  0
  -21.9840   -4.8530   22.5640 C   0  0  0  0  0  0  0  0  0  0  0  0
  -22.4290   -4.3030   21.4100 F   0  0  0  0  0  0  0  0  0  0  0  0
  -21.2410   -3.8370   26.0110 F   0  0  0  0  0  0  0  0  0  0  0  0
  -22.7530  -13.5860   21.2290 C   0  0  0  0  0  0  0  0  0  0  0  0
  -22.0560  -12.8690   22.1020 N   0  0  0  0  0  0  0  0  0  0  0  0
  -22.2930  -14.6170   20.7390 O   0  0  0  0  0  0  0  0  0  0  0  0
  -22.4460  -12.0410   22.5260 H   0  0  0  0  0  0  0  0  0  0  0  0
  -21.1180  -13.1510   22.3490 H   0  0  0  0  0  0  0  0  0  0  0  0
  -25.3280  -15.3030   20.3930 N   0  0  0  0  0  0  0  0  0  0  0  0
  -24.5550  -15.9400   20.5560 H   0  0  0  0  0  0  0  0  0  0  0  0
  -26.1620  -15.7710   20.0650 H   0  0  0  0  0  0  0  0  0  0  0  0
  -27.9800  -23.8570   20.3210 C   0  0  0  0  0  2  0  0  0  0  0  0
  -28.1570  -25.6140   20.3670 O   0  0  0  0  0  0  0  0  0  0  0  0
  -24.6440  -31.9050   23.2510 C   0  0  0  0  0  0  0  0  0  0  0  0
  -27.1740  -26.8150   20.3030 C   0  0  0  0  0  0  0  0  0  0  0  0
  -23.4550  -30.5000   21.6200 C   0  0  0  0  0  3  0  0  0  0  0  0
  -24.9020  -28.8420   20.2190 C   0  0  0  0  0  0  0  0  0  0  0  0
  -26.0340  -30.6360   21.5090 C   0  0  0  0  0  2  0  0  0  0  0  0
  -26.0950  -29.2050   20.8550 C   0  0  0  0  0  0  0  0  0  0  0  0
  -27.2160  -28.2200   20.8610 C   0  0  0  0  0  3  0  0  0  0  0  0
  -25.9480  -26.6630   19.6040 C   0  0  0  0  0  3  0  0  0  0  0  0
  -24.8680  -27.5970   19.5640 C   0  0  0  0  0  3  0  0  0  0  0  0
  -23.6960  -29.7950   20.2530 C   0  0  0  0  0  2  0  0  0  0  0  0
  -24.7330  -31.0490   22.1770 N   0  0  0  0  0  0  0  0  0  0  0  0
  -23.5510  -32.2140   23.7560 O   0  0  0  0  0  0  0  0  0  0  0  0
  -22.7330  -29.5310   22.5970 C   0  0  0  0  0  0  0  0  0  0  0  0
  -21.4010  -29.3750   22.4680 N   0  0  0  0  0  0  0  0  0  0  0  0
  -23.3840  -28.9180   23.4450 O   0  0  0  0  0  0  0  0  0  0  0  0
  -20.9230  -29.9230   21.7670 H   0  0  0  0  0  0  0  0  0  0  0  0
  -18.0100  -28.1630   22.9780 C   0  0  0  0  0  0  0  0  0  0  0  0
  -20.5690  -28.4460   23.2460 C   0  0  0  0  0  3  0  0  0  0  0  0
  -20.6750  -27.0050   22.6930 C   0  0  0  0  0  2  0  0  0  0  0  0
  -19.5800  -26.6660   21.6770 C   0  0  0  0  0  2  0  0  0  0  0  0
  -18.1950  -26.8100   22.3130 C   0  0  0  0  0  2  0  0  0  0  0  0
  -19.1240  -28.9400   23.4000 C   0  0  0  0  0  0  0  0  0  0  0  0
  -18.8910  -30.2030   23.9860 C   0  0  0  0  0  3  0  0  0  0  0  0
  -17.5800  -30.6920   24.1490 C   0  0  0  0  0  3  0  0  0  0  0  0
  -16.4830  -29.9140   23.7400 C   0  0  0  0  0  3  0  0  0  0  0  0
  -16.6990  -28.6500   23.1610 C   0  0  0  0  0  3  0  0  0  0  0  0
  -25.9100  -32.5570   23.8880 C   0  0  0  0  0  3  0  0  0  0  0  0
  -25.5890  -33.9590   24.2210 N   0  0  0  0  0  0  0  0  0  0  0  0
  -25.8870  -35.0220   23.4640 C   0  0  0  0  0  0  0  0  0  0  0  0
  -26.5180  -34.9280   22.4080 O   0  0  0  0  0  0  0  0  0  0  0  0
  -25.0260  -34.1050   25.0470 H   0  0  0  0  0  0  0  0  0  0  0  0
  -24.1190  -36.8030   23.2190 C   0  0  0  0  0  1  0  0  0  0  0  0
  -25.4130  -36.4090   23.9500 C   0  0  0  0  0  3  0  0  0  0  0  0
  -27.5800  -37.3300   24.6520 C   0  0  0  0  0  1  0  0  0  0  0  0
  -26.4240  -37.4760   23.7720 N   0  0  0  0  0  0  0  0  0  0  0  0
  -26.0140  -38.3900   23.9380 H   0  0  0  0  0  0  0  0  0  0  0  0
  -26.4110  -31.8030   25.1830 C   0  0  1  0  0  0  0  0  0  0  0  0
  -25.3070  -31.5830   26.2450 C   0  0  0  0  0  1  0  0  0  0  0  0
  -26.9990  -30.4180   24.8360 C   0  0  0  0  0  1  0  0  0  0  0  0
  -27.5550  -32.6090   25.8440 C   0  0  0  0  0  1  0  0  0  0  0  0
  1  2  1  0
  1  7  2  0
  3 47  1  0
  3  1  1  0
  4  5  1  6
  4 10  1  0
  4  2  1  0
  6  4  1  0
  6  3  1  0
  6  9  1  0
  8  6  1  0
 11 10  1  0
 12 17  1  0
 13 14  1  0
 13 12  1  0
 15 14  1  0
 15 22  1  0
 15 16  1  0
 17 11  1  0
 17 16  1  0
 18 11  2  0
 19 20  2  0
 20 39  1  0
 21 20  1  0
 21 24  1  0
 22 23  1  0
 22 19  1  0
 23 21  2  0
 24 25  1  0
 25 26  2  0
 27 30  1  0
 27 26  1  0
 28 27  2  0
 29 28  1  0
 29 24  2  0
 30 31  1  0
 31 32  1  0
 32 33  2  0
 34 33  1  0
 34 38  1  0
 35 34  2  0
 36 31  2  0
 36 35  1  0
 37 36  1  0
 39 40  1  0
 40 43  1  0
 40 42  1  0
 41 39  2  0
 44 19  1  0
 44 45  1  0
 46 44  1  0
 47 48  1  0
 49 60  2  0
 50 48  1  0
 50 55  1  0
 51 59  1  0
 51 61  1  0
 52 58  1  0
 52 54  1  0
 53 59  1  0
 54 55  2  0
 54 53  1  0
 56 50  2  0
 57 56  1  0
 57 52  2  0
 58 51  1  0
 59 49  1  0
 61 63  2  0
 62 61  1  0
 64 62  1  0
 65 74  2  0
 65 70  1  0
 66 62  1  0
 66 70  1  0
 67 66  1  0
 68 69  1  0
 68 67  1  0
 69 65  1  0
 70 71  2  0
 71 72  1  0
 73 72  2  0
 74 73  1  0
 75 49  1  0
 75 76  1  0
 75 85  1  0
 76 79  1  0
 77 81  1  0
 77 76  1  0
 78 77  2  0
 81 80  1  0
 83 84  1  0
 83 81  1  0
 83 82  1  0
 85 88  1  1
 85 86  1  0
 87 85  1  0
M  ISO  4  10 100  11 100  47 101  48 101
M  END
>  <TORSDO>  (18) 
F 18

>  <SCORE>  (18) 
-16.591

>  <name>  (18) 
17

>  <ligand_id>  (18) 
17

>  <original_smiles>  (18) 
[H]c1c([H])c([H])c2c(c1[H])C([H])([H])C([H])([H])C([H])([H])C2([H])N([H])C(=O)C1([H])N(C(=O)C([H])(N([H])C(=O)C([H])(N([H])C([H])([H])[H])C([H])([H])[H])C(C([H])([H])[H])(C([H])([H])[H])C([H])([H])[H])C([H])([H])c2c([H])c(OC([H])([H])C3([H])C(=O)C([H])([H])C(C([H])([H])[H])(C([H])([H])C(=O)N4C([H])([H])C([H])([H])C([H])([H])C([H])(n5nc(-c6c([H])c([H])c(Oc7c([H])c([H])c(F)c([H])c7F)c([H])c6[H])c(C(=O)N([H])[H])c5N([H])[H])C4([H])[H])[N+]3([H])[H])c([H])c([H])c2C1([H])[H]

>  <smiles>  (18) 
[H]c1c([H])c([H])c2c(c1[H])C([H])([H])C([H])([H])C([H])([H])C2([H])N([H])C(=O)C1([H])N(C(=O)C([H])(N([H])C(=O)C([H])(N([H])C([H])([H])[H])C([H])([H])[H])C(C([H])([H])[H])(C([H])([H])[H])C([H])([H])[H])C([H])([H])c2c([H])c(OC([H])([H])C3([H])C(=O)C([H])([H])C(C([H])([H])[H])(C([H])([H])C(=O)N4C([H])([H])C([H])([H])C([H])([H])C([H])(n5nc(-c6c([H])c([H])c(Oc7c([H])c([H])c(F)c([H])c7F)c([H])c6[H])c(C(=O)N([H])[H])c5N([H])[H])C4([H])[H])[N+]3([H])[H])c([H])c([H])c2C1([H])[H]

$$$$
18:0:0
     RDKit          3D

 96104  0  0  1  0  0  0  0  0999 V2000
  -28.5080  -22.5130   20.8950 C   0  0  0  0  0  3  0  0  0  0  0  0
  -31.5920  -21.0800   22.6650 C   0  0  0  0  0  2  0  0  0  0  0  0
  -30.6890  -22.2250   22.2680 C   0  0  0  0  0  2  0  0  0  0  0  0
  -31.0580  -19.8850   21.8830 C   0  0  0  0  0  2  0  0  0  0  0  0
  -29.3920  -21.5570   21.7760 C   0  0  0  0  0  3  0  0  0  0  0  0
  -29.9290  -20.3730   21.0860 N   0  0  0  0  0  0  0  0  0  0  0  0
  -28.9570  -19.2950   20.8440 C   0  0  0  0  0  2  0  0  0  0  0  0
  -29.4290  -18.3500   19.7140 C   0  0  0  0  0  2  0  0  0  0  0  0
  -29.7240  -16.8840   20.0940 C   0  0  0  0  0  2  0  0  0  0  0  0
  -30.9910  -16.6740   20.9440 C   0  0  0  0  0  2  0  0  0  0  0  0
  -31.2790  -15.2090   21.3250 C   0  0  0  0  0  2  0  0  0  0  0  0
  -31.4220  -14.2820   20.1090 C   0  0  0  0  0  0  0  0  0  0  0  0
  -30.8850  -12.1750   18.9420 C   0  0  0  0  0  2  0  0  0  0  0  0
  -29.9110  -12.3550   17.7660 C   0  0  0  0  0  2  0  0  0  0  0  0
  -28.4550  -12.2810   18.2600 C   0  0  0  0  0  2  0  0  0  0  0  0
  -28.1980  -13.2250   19.4600 C   0  0  0  0  0  3  0  0  0  0  0  0
  -29.2710  -13.0300   20.5560 C   0  0  0  0  0  2  0  0  0  0  0  0
  -30.6040  -13.2080   19.9510 N   0  0  0  0  0  0  0  0  0  0  0  0
  -32.3580  -14.5180   19.3380 O   0  0  0  0  0  0  0  0  0  0  0  0
  -25.8920  -14.0160   20.3020 C   0  0  0  0  0  0  0  0  0  0  0  0
  -24.7760  -13.3210   20.6910 C   0  0  0  0  0  0  0  0  0  0  0  0
  -25.1170  -11.9380   20.5860 C   0  0  0  0  0  0  0  0  0  0  0  0
  -26.8460  -13.0560   19.9900 N   0  0  0  0  0  0  0  0  0  0  0  0
  -26.3840  -11.8000   20.2150 N   0  0  0  0  0  0  0  0  0  0  0  0
  -24.2950  -10.7340   20.7630 C   0  0  0  0  0  0  0  0  0  0  0  0
  -24.6540   -9.7290   21.6860 C   0  0  0  0  0  3  0  0  0  0  0  0
  -23.8410   -8.5870   21.8520 C   0  0  0  0  0  3  0  0  0  0  0  0
  -22.6550   -8.4450   21.0940 C   0  0  0  0  0  0  0  0  0  0  0  0
  -22.3160   -9.4380   20.1570 C   0  0  0  0  0  3  0  0  0  0  0  0
  -23.1280  -10.5700   19.9910 C   0  0  0  0  0  3  0  0  0  0  0  0
  -21.8150   -7.3600   21.1680 O   0  0  0  0  0  0  0  0  0  0  0  0
  -21.6450   -6.6570   22.3350 C   0  0  0  0  0  0  0  0  0  0  0  0
  -21.1960   -7.2790   23.5220 C   0  0  0  0  0  3  0  0  0  0  0  0
  -20.9710   -6.5070   24.6780 C   0  0  0  0  0  3  0  0  0  0  0  0
  -21.1860   -5.1150   24.6500 C   0  0  0  0  0  0  0  0  0  0  0  0
  -21.6280   -4.4950   23.4670 C   0  0  0  0  0  3  0  0  0  0  0  0
  -21.8550   -5.2650   22.3140 C   0  0  0  0  0  0  0  0  0  0  0  0
  -22.2600   -4.6590   21.1710 F   0  0  0  0  0  0  0  0  0  0  0  0
  -20.9630   -4.3720   25.7580 F   0  0  0  0  0  0  0  0  0  0  0  0
  -23.4400  -13.9020   21.0530 C   0  0  0  0  0  0  0  0  0  0  0  0
  -22.7020  -13.2370   21.9360 N   0  0  0  0  0  0  0  0  0  0  0  0
  -23.0610  -14.9750   20.5870 O   0  0  0  0  0  0  0  0  0  0  0  0
  -23.0230  -12.3680   22.3370 H   0  0  0  0  0  0  0  0  0  0  0  0
  -21.8030  -13.6010   22.2160 H   0  0  0  0  0  0  0  0  0  0  0  0
  -26.1710  -15.3700   20.1680 N   0  0  0  0  0  0  0  0  0  0  0  0
  -25.4810  -16.0900   20.3490 H   0  0  0  0  0  0  0  0  0  0  0  0
  -27.0550  -15.7410   19.8410 H   0  0  0  0  0  0  0  0  0  0  0  0
  -28.9030  -23.9240   21.1070 N   0  0  0  0  0  4  0  0  0  0  0  0
  -29.8930  -23.9300   21.2960 H   0  0  0  0  0  0  0  0  0  0  0  0
  -28.7470  -24.3970   20.2310 H   0  0  0  0  0  0  0  0  0  0  0  0
  -28.1710  -24.6610   22.1620 C   0  0  0  0  0  2  0  0  0  0  0  0
  -28.8220  -26.0210   22.5100 C   0  0  0  0  0  2  0  0  0  0  0  0
  -29.3750  -26.8050   21.3020 C   0  0  0  0  0  2  0  0  0  0  0  0
  -28.4770  -26.7380   20.1990 O   0  0  0  0  0  0  0  0  0  0  0  0
  -24.5800  -31.8860   23.2720 C   0  0  0  0  0  0  0  0  0  0  0  0
  -27.3220  -27.4830   20.2530 C   0  0  0  0  0  0  0  0  0  0  0  0
  -23.4050  -30.4590   21.6220 C   0  0  0  0  0  3  0  0  0  0  0  0
  -24.8900  -28.9210   20.2350 C   0  0  0  0  0  0  0  0  0  0  0  0
  -25.9220  -30.8470   21.4540 C   0  0  0  0  0  2  0  0  0  0  0  0
  -26.0260  -29.4710   20.8380 C   0  0  0  0  0  0  0  0  0  0  0  0
  -27.2390  -28.7560   20.8630 C   0  0  0  0  0  3  0  0  0  0  0  0
  -26.1750  -26.9430   19.6370 C   0  0  0  0  0  3  0  0  0  0  0  0
  -24.9550  -27.6470   19.6380 C   0  0  0  0  0  3  0  0  0  0  0  0
  -23.6370  -29.7640   20.2520 C   0  0  0  0  0  2  0  0  0  0  0  0
  -24.6520  -31.0820   22.1740 N   0  0  0  0  0  0  0  0  0  0  0  0
  -23.4900  -32.1540   23.7970 O   0  0  0  0  0  0  0  0  0  0  0  0
  -22.7540  -29.4420   22.5840 C   0  0  0  0  0  0  0  0  0  0  0  0
  -21.4340  -29.2430   22.4390 N   0  0  0  0  0  0  0  0  0  0  0  0
  -23.4340  -28.8290   23.4130 O   0  0  0  0  0  0  0  0  0  0  0  0
  -20.9480  -29.7860   21.7390 H   0  0  0  0  0  0  0  0  0  0  0  0
  -18.0640  -28.0460   22.9220 C   0  0  0  0  0  0  0  0  0  0  0  0
  -20.6190  -28.3070   23.2080 C   0  0  0  0  0  3  0  0  0  0  0  0
  -20.7270  -26.8760   22.6340 C   0  0  0  0  0  2  0  0  0  0  0  0
  -19.6310  -26.5510   21.6150 C   0  0  0  0  0  2  0  0  0  0  0  0
  -18.2440  -26.6950   22.2480 C   0  0  0  0  0  2  0  0  0  0  0  0
  -19.1790  -28.8100   23.3570 C   0  0  0  0  0  0  0  0  0  0  0  0
  -18.9560  -30.0760   23.9420 C   0  0  0  0  0  3  0  0  0  0  0  0
  -17.6510  -30.5770   24.0970 C   0  0  0  0  0  3  0  0  0  0  0  0
  -16.5490  -29.8120   23.6760 C   0  0  0  0  0  3  0  0  0  0  0  0
  -16.7570  -28.5470   23.0950 C   0  0  0  0  0  3  0  0  0  0  0  0
  -25.8560  -32.5280   23.9000 C   0  0  0  0  0  3  0  0  0  0  0  0
  -25.5370  -33.9280   24.2080 N   0  0  0  0  0  0  0  0  0  0  0  0
  -25.8860  -34.9730   23.4430 C   0  0  0  0  0  0  0  0  0  0  0  0
  -26.5810  -34.8580   22.4300 O   0  0  0  0  0  0  0  0  0  0  0  0
  -24.9190  -34.0890   24.9890 H   0  0  0  0  0  0  0  0  0  0  0  0
  -24.1650  -36.7590   23.0160 C   0  0  0  0  0  1  0  0  0  0  0  0
  -25.3810  -36.3660   23.8710 C   0  0  0  0  0  3  0  0  0  0  0  0
  -27.4870  -37.2650   24.7580 C   0  0  0  0  0  1  0  0  0  0  0  0
  -26.4140  -37.4190   23.7800 N   0  0  0  0  0  0  0  0  0  0  0  0
  -26.0040  -38.3400   23.9040 H   0  0  0  0  0  0  0  0  0  0  0  0
  -26.3680  -31.7720   25.1890 C   0  0  1  0  0  0  0  0  0  0  0  0
  -25.2640  -31.5240   26.2440 C   0  0  0  0  0  1  0  0  0  0  0  0
  -26.9730  -30.3980   24.8140 C   0  0  0  0  0  1  0  0  0  0  0  0
  -27.5030  -32.5810   25.8600 C   0  0  0  0  0  1  0  0  0  0  0  0
  -27.7010  -23.1970   18.5300 C   0  0  0  0  0  1  0  0  0  0  0  0
  -28.5620  -22.2320   19.3710 C   0  0  0  0  0  2  0  0  0  0  0  0
  1 96  1  0
  1 48  1  0
  3  2  1  0
  4  2  1  0
  5  1  1  0
  5  3  1  0
  6  5  1  0
  6  4  1  0
  7  6  1  0
  8  9  1  0
  8  7  1  0
  9 10  1  0
 10 11  1  0
 12 11  1  0
 13 18  1  0
 14 15  1  0
 14 13  1  0
 16 15  1  0
 16 23  1  0
 16 17  1  0
 18 12  1  0
 18 17  1  0
 19 12  2  0
 20 21  2  0
 21 40  1  0
 22 21  1  0
 22 25  1  0
 23 24  1  0
 23 20  1  0
 24 22  2  0
 25 26  1  0
 26 27  2  0
 28 31  1  0
 28 27  1  0
 29 28  2  0
 30 29  1  0
 30 25  2  0
 31 32  1  0
 32 33  1  0
 33 34  2  0
 35 34  1  0
 35 39  1  0
 36 35  2  0
 37 32  2  0
 37 36  1  0
 38 37  1  0
 40 41  1  0
 41 44  1  0
 41 43  1  0
 42 40  2  0
 45 20  1  0
 45 46  1  0
 47 45  1  0
 48 49  1  0
 48 51  1  0
 50 48  1  0
 51 52  1  0
 53 52  1  0
 54 56  1  0
 54 53  1  0
 55 66  2  0
 56 61  1  0
 57 65  1  0
 57 67  1  0
 58 64  1  0
 58 60  1  0
 59 65  1  0
 60 61  2  0
 60 59  1  0
 62 63  1  0
 62 56  2  0
 63 58  2  0
 64 57  1  0
 65 55  1  0
 67 69  2  0
 68 67  1  0
 70 68  1  0
 71 80  2  0
 71 76  1  0
 72 68  1  0
 72 76  1  0
 73 72  1  0
 74 75  1  0
 74 73  1  0
 75 71  1  0
 76 77  2  0
 77 78  1  0
 79 78  2  0
 80 79  1  0
 81 55  1  0
 81 82  1  0
 81 91  1  0
 82 85  1  0
 83 87  1  0
 83 82  1  0
 84 83  2  0
 87 86  1  0
 89 87  1  0
 89 90  1  0
 89 88  1  0
 91 94  1  1
 91 92  1  0
 93 91  1  0
 95 96  1  0
M  ISO  4  11 100  12 100  53 101  54 101
M  END
>  <TORSDO>  (19) 
F 27

>  <SCORE>  (19) 
-11.677

>  <name>  (19) 
18

>  <ligand_id>  (19) 
18

>  <original_smiles>  (19) 
[H]c1c([H])c([H])c2c(c1[H])C([H])([H])C([H])([H])C([H])([H])C2([H])N([H])C(=O)C1([H])N(C(=O)C([H])(N([H])C(=O)C([H])(N([H])C([H])([H])[H])C([H])([H])[H])C(C([H])([H])[H])(C([H])([H])[H])C([H])([H])[H])C([H])([H])c2c([H])c(OC([H])([H])C([H])([H])C([H])([H])[N+]([H])([H])C([H])(C([H])([H])C([H])([H])[H])C3([H])N(C([H])([H])C([H])([H])C([H])([H])C([H])([H])C([H])([H])C(=O)N4C([H])([H])C([H])([H])C([H])([H])C([H])(n5nc(-c6c([H])c([H])c(Oc7c([H])c([H])c(F)c([H])c7F)c([H])c6[H])c(C(=O)N([H])[H])c5N([H])[H])C4([H])[H])C([H])([H])C([H])([H])C3([H])[H])c([H])c([H])c2C1([H])[H]

>  <smiles>  (19) 
[H]c1c([H])c([H])c2c(c1[H])C([H])([H])C([H])([H])C([H])([H])C2([H])N([H])C(=O)C1([H])N(C(=O)C([H])(N([H])C(=O)C([H])(N([H])C([H])([H])[H])C([H])([H])[H])C(C([H])([H])[H])(C([H])([H])[H])C([H])([H])[H])C([H])([H])c2c([H])c(OC([H])([H])C([H])([H])C([H])([H])[N+]([H])([H])C([H])(C([H])([H])C([H])([H])[H])C3([H])N(C([H])([H])C([H])([H])C([H])([H])C([H])([H])C([H])([H])C(=O)N4C([H])([H])C([H])([H])C([H])([H])C([H])(n5nc(-c6c([H])c([H])c(Oc7c([H])c([H])c(F)c([H])c7F)c([H])c6[H])c(C(=O)N([H])[H])c5N([H])[H])C4([H])[H])C([H])([H])C([H])([H])C3([H])[H])c([H])c([H])c2C1([H])[H]

$$$$
19:0:0
     RDKit          3D

 92100  0  0  1  0  0  0  0  0999 V2000
  -29.3610  -20.4460   20.7560 C   0  0  0  0  0  0  0  0  0  0  0  0
  -28.8960  -21.6040   20.2320 N   0  0  0  0  0  0  0  0  0  0  0  0
  -29.7540  -20.3680   21.9230 O   0  0  0  0  0  0  0  0  0  0  0  0
  -28.5950  -21.5870   19.2650 H   0  0  0  0  0  0  0  0  0  0  0  0
  -30.4490  -19.2350   18.7690 C   0  0  0  0  0  2  0  0  0  0  0  0
  -29.3920  -19.1760   19.8670 C   0  0  0  0  0  3  0  0  0  0  0  0
  -31.1640  -18.0660   19.4380 C   0  0  0  0  0  3  0  0  0  0  0  0
  -32.5780  -18.2540   19.9810 C   0  0  0  0  0  1  0  0  0  0  0  0
  -30.1460  -18.0710   20.5010 N   0  0  2  0  0  4  0  0  0  0  0  0
  -30.4830  -18.4640   21.3730 H   0  0  0  0  0  0  0  0  0  0  0  0
  -29.4150  -16.7780   20.7020 C   0  0  0  0  0  2  0  0  0  0  0  0
  -30.2330  -15.6490   21.4130 C   0  0  0  0  0  2  0  0  0  0  0  0
  -30.7530  -14.5130   20.4920 C   0  0  0  0  0  0  0  0  0  0  0  0
  -30.4260  -12.3950   19.2480 C   0  0  0  0  0  2  0  0  0  0  0  0
  -29.4790  -12.6190   18.0510 C   0  0  0  0  0  2  0  0  0  0  0  0
  -28.0070  -12.4720   18.4810 C   0  0  0  0  0  2  0  0  0  0  0  0
  -27.6790  -13.2890   19.7580 C   0  0  0  0  0  3  0  0  0  0  0  0
  -28.7320  -13.0350   20.8580 C   0  0  0  0  0  2  0  0  0  0  0  0
  -30.0590  -13.3530   20.3070 N   0  0  0  0  0  0  0  0  0  0  0  0
  -31.8230  -14.7210   19.9130 O   0  0  0  0  0  0  0  0  0  0  0  0
  -25.2800  -13.9050   20.4520 C   0  0  0  0  0  0  0  0  0  0  0  0
  -24.2100  -13.1390   20.8260 C   0  0  0  0  0  0  0  0  0  0  0  0
  -24.6700  -11.7860   20.8100 C   0  0  0  0  0  0  0  0  0  0  0  0
  -26.3250  -13.0210   20.2340 N   0  0  0  0  0  0  0  0  0  0  0  0
  -25.9600  -11.7420   20.5060 N   0  0  0  0  0  0  0  0  0  0  0  0
  -23.9430  -10.5260   21.0100 C   0  0  0  0  0  0  0  0  0  0  0  0
  -24.3790   -9.5620   21.9460 C   0  0  0  0  0  3  0  0  0  0  0  0
  -23.6530   -8.3660   22.1330 C   0  0  0  0  0  3  0  0  0  0  0  0
  -22.4750   -8.1270   21.3860 C   0  0  0  0  0  0  0  0  0  0  0  0
  -22.0570   -9.0790   20.4400 C   0  0  0  0  0  3  0  0  0  0  0  0
  -22.7850  -10.2660   20.2510 C   0  0  0  0  0  3  0  0  0  0  0  0
  -21.7200   -6.9830   21.4830 O   0  0  0  0  0  0  0  0  0  0  0  0
  -21.6810   -6.2410   22.6360 C   0  0  0  0  0  0  0  0  0  0  0  0
  -21.2770   -6.8000   23.8680 C   0  0  0  0  0  3  0  0  0  0  0  0
  -21.1860   -5.9850   25.0150 C   0  0  0  0  0  3  0  0  0  0  0  0
  -21.4880   -4.6120   24.9290 C   0  0  0  0  0  0  0  0  0  0  0  0
  -21.8860   -4.0530   23.7020 C   0  0  0  0  0  3  0  0  0  0  0  0
  -21.9790   -4.8660   22.5580 C   0  0  0  0  0  0  0  0  0  0  0  0
  -22.3430   -4.3180   21.3730 F   0  0  0  0  0  0  0  0  0  0  0  0
  -21.3930   -3.8280   26.0280 F   0  0  0  0  0  0  0  0  0  0  0  0
  -22.8120  -13.6190   21.0880 C   0  0  0  0  0  0  0  0  0  0  0  0
  -22.0810  -12.9330   21.9600 N   0  0  0  0  0  0  0  0  0  0  0  0
  -22.3760  -14.6400   20.5550 O   0  0  0  0  0  0  0  0  0  0  0  0
  -22.4480  -12.1090   22.4130 H   0  0  0  0  0  0  0  0  0  0  0  0
  -21.1430  -13.2370   22.1790 H   0  0  0  0  0  0  0  0  0  0  0  0
  -25.4450  -15.2740   20.2580 N   0  0  0  0  0  0  0  0  0  0  0  0
  -24.6680  -15.9210   20.3360 H   0  0  0  0  0  0  0  0  0  0  0  0
  -26.2780  -15.6980   19.8730 H   0  0  0  0  0  0  0  0  0  0  0  0
  -28.7240  -22.8720   20.9750 C   0  0  0  0  0  2  0  0  0  0  0  0
  -28.5730  -24.1490   20.0890 C   0  0  0  0  0  2  0  0  0  0  0  0
  -28.3320  -25.4430   20.9230 C   0  0  0  0  0  2  0  0  0  0  0  0
  -28.4060  -26.6870   20.1910 O   0  0  0  0  0  0  0  0  0  0  0  0
  -24.5930  -31.9040   23.2450 C   0  0  0  0  0  0  0  0  0  0  0  0
  -27.2530  -27.4470   20.1890 C   0  0  0  0  0  0  0  0  0  0  0  0
  -23.3980  -30.5010   21.5950 C   0  0  0  0  0  3  0  0  0  0  0  0
  -24.8630  -28.9630   20.1790 C   0  0  0  0  0  0  0  0  0  0  0  0
  -25.9260  -30.8600   21.4130 C   0  0  0  0  0  2  0  0  0  0  0  0
  -26.0180  -29.4870   20.7720 C   0  0  0  0  0  0  0  0  0  0  0  0
  -27.2200  -28.7380   20.7710 C   0  0  0  0  0  3  0  0  0  0  0  0
  -26.0840  -26.9400   19.5910 C   0  0  0  0  0  3  0  0  0  0  0  0
  -24.8910  -27.6900   19.5830 C   0  0  0  0  0  3  0  0  0  0  0  0
  -23.6180  -29.8210   20.2170 C   0  0  0  0  0  2  0  0  0  0  0  0
  -24.6580  -31.1020   22.1430 N   0  0  0  0  0  0  0  0  0  0  0  0
  -23.5070  -32.1740   23.7790 O   0  0  0  0  0  0  0  0  0  0  0  0
  -22.7410  -29.4790   22.5510 C   0  0  0  0  0  0  0  0  0  0  0  0
  -21.4160  -29.3000   22.4220 N   0  0  0  0  0  0  0  0  0  0  0  0
  -23.4210  -28.8500   23.3670 O   0  0  0  0  0  0  0  0  0  0  0  0
  -20.9280  -29.8580   21.7340 H   0  0  0  0  0  0  0  0  0  0  0  0
  -18.0370  -28.1140   22.9070 C   0  0  0  0  0  0  0  0  0  0  0  0
  -20.5950  -28.3630   23.1880 C   0  0  0  0  0  3  0  0  0  0  0  0
  -20.6950  -26.9340   22.6080 C   0  0  0  0  0  2  0  0  0  0  0  0
  -19.5950  -26.6170   21.5880 C   0  0  0  0  0  2  0  0  0  0  0  0
  -18.2120  -26.7660   22.2300 C   0  0  0  0  0  2  0  0  0  0  0  0
  -19.1570  -28.8710   23.3440 C   0  0  0  0  0  0  0  0  0  0  0  0
  -18.9410  -30.1330   23.9380 C   0  0  0  0  0  3  0  0  0  0  0  0
  -17.6390  -30.6400   24.1020 C   0  0  0  0  0  3  0  0  0  0  0  0
  -16.5330  -29.8800   23.6840 C   0  0  0  0  0  3  0  0  0  0  0  0
  -16.7320  -28.6190   23.0920 C   0  0  0  0  0  3  0  0  0  0  0  0
  -25.8740  -32.5380   23.8720 C   0  0  0  0  0  3  0  0  0  0  0  0
  -25.5650  -33.9370   24.1960 N   0  0  0  0  0  0  0  0  0  0  0  0
  -25.9030  -34.9860   23.4340 C   0  0  0  0  0  0  0  0  0  0  0  0
  -26.5810  -34.8780   22.4080 O   0  0  0  0  0  0  0  0  0  0  0  0
  -24.9650  -34.0940   24.9940 H   0  0  0  0  0  0  0  0  0  0  0  0
  -24.1770  -36.7770   23.0600 C   0  0  0  0  0  1  0  0  0  0  0  0
  -25.4120  -36.3750   23.8830 C   0  0  0  0  0  3  0  0  0  0  0  0
  -27.5410  -37.2610   24.7280 C   0  0  0  0  0  1  0  0  0  0  0  0
  -26.4470  -37.4290   23.7760 N   0  0  0  0  0  0  0  0  0  0  0  0
  -26.0380  -38.3480   23.9210 H   0  0  0  0  0  0  0  0  0  0  0  0
  -26.3870  -31.7680   25.1510 C   0  0  1  0  0  0  0  0  0  0  0  0
  -25.2890  -31.5330   26.2150 C   0  0  0  0  0  1  0  0  0  0  0  0
  -26.9710  -30.3900   24.7640 C   0  0  0  0  0  1  0  0  0  0  0  0
  -27.5350  -32.5630   25.8160 C   0  0  0  0  0  1  0  0  0  0  0  0
  1  3  2  0
  2  1  1  0
  2 49  1  0
  4  2  1  0
  5  7  1  0
  5  6  1  0
  6  9  1  0
  6  1  1  0
  7  8  1  0
  7  9  1  0
  9 11  1  0
  9 10  1  1
 11 12  1  0
 13 12  1  0
 14 19  1  0
 15 16  1  0
 15 14  1  0
 17 16  1  0
 17 24  1  0
 17 18  1  0
 19 13  1  0
 19 18  1  0
 20 13  2  0
 21 22  2  0
 22 41  1  0
 23 22  1  0
 23 26  1  0
 24 21  1  0
 24 25  1  0
 25 23  2  0
 26 27  1  0
 27 28  2  0
 29 32  1  0
 29 28  1  0
 30 29  2  0
 31 30  1  0
 31 26  2  0
 32 33  1  0
 33 34  1  0
 34 35  2  0
 36 35  1  0
 36 40  1  0
 37 36  2  0
 38 33  2  0
 38 37  1  0
 39 38  1  0
 41 42  1  0
 42 45  1  0
 42 44  1  0
 43 41  2  0
 46 47  1  0
 46 21  1  0
 48 46  1  0
 50 51  1  0
 50 49  1  0
 52 51  1  0
 53 64  2  0
 54 52  1  0
 54 59  1  0
 55 63  1  0
 55 65  1  0
 56 62  1  0
 56 58  1  0
 57 63  1  0
 58 57  1  0
 59 58  2  0
 60 54  2  0
 61 60  1  0
 61 56  2  0
 62 55  1  0
 63 53  1  0
 65 67  2  0
 66 65  1  0
 68 66  1  0
 69 78  2  0
 69 74  1  0
 70 66  1  0
 70 74  1  0
 71 70  1  0
 72 73  1  0
 72 71  1  0
 73 69  1  0
 74 75  2  0
 75 76  1  0
 77 76  2  0
 78 77  1  0
 79 53  1  0
 79 80  1  0
 79 89  1  0
 80 83  1  0
 81 85  1  0
 81 80  1  0
 82 81  2  0
 85 84  1  0
 87 85  1  0
 87 88  1  0
 87 86  1  0
 89 92  1  1
 89 90  1  0
 91 89  1  0
M  ISO  4  12 100  13 100  51 101  52 101
M  END
>  <TORSDO>  (20) 
F 22

>  <SCORE>  (20) 
-13.288

>  <name>  (20) 
19

>  <ligand_id>  (20) 
19

>  <original_smiles>  (20) 
[H]c1c([H])c([H])c2c(c1[H])C([H])([H])C([H])([H])C([H])([H])C2([H])N([H])C(=O)C1([H])N(C(=O)C([H])(N([H])C(=O)C([H])(N([H])C([H])([H])[H])C([H])([H])[H])C(C([H])([H])[H])(C([H])([H])[H])C([H])([H])[H])C([H])([H])c2c([H])c(OC([H])([H])C([H])([H])C([H])([H])N([H])C(=O)C3([H])C([H])([H])C([H])(C([H])([H])[H])[N+]3([H])C([H])([H])C([H])([H])C(=O)N3C([H])([H])C([H])([H])C([H])([H])C([H])(n4nc(-c5c([H])c([H])c(Oc6c([H])c([H])c(F)c([H])c6F)c([H])c5[H])c(C(=O)N([H])[H])c4N([H])[H])C3([H])[H])c([H])c([H])c2C1([H])[H]

>  <smiles>  (20) 
[H]c1c([H])c([H])c2c(c1[H])C([H])([H])C([H])([H])C([H])([H])C2([H])N([H])C(=O)C1([H])N(C(=O)C([H])(N([H])C(=O)C([H])(N([H])C([H])([H])[H])C([H])([H])[H])C(C([H])([H])[H])(C([H])([H])[H])C([H])([H])[H])C([H])([H])c2c([H])c(OC([H])([H])C([H])([H])C([H])([H])N([H])C(=O)C3([H])C([H])([H])C([H])(C([H])([H])[H])[N+]3([H])C([H])([H])C([H])([H])C(=O)N3C([H])([H])C([H])([H])C([H])([H])C([H])(n4nc(-c5c([H])c([H])c(Oc6c([H])c([H])c(F)c([H])c6F)c([H])c5[H])c(C(=O)N([H])[H])c4N([H])[H])C3([H])[H])c([H])c([H])c2C1([H])[H]

$$$$
20:0:0
     RDKit          3D

 90 98  0  0  1  0  0  0  0  0999 V2000
  -29.2790  -20.5230   19.9650 C   0  0  0  0  0  0  0  0  0  0  0  0
  -28.8390  -20.3590   18.4880 C   0  0  0  0  0  0  0  0  0  0  0  0
  -29.7610  -19.8630   17.6260 N   0  0  0  0  0  0  0  0  0  0  0  0
  -27.7080  -20.7060   18.1350 O   0  0  0  0  0  0  0  0  0  0  0  0
  -30.6540  -19.6160   18.0270 H   0  0  0  0  0  0  0  0  0  0  0  0
  -29.9030  -20.8250   15.2570 C   0  0  0  0  0  2  0  0  0  0  0  0
  -30.9510  -19.7480   15.3990 C   0  0  0  0  0  2  0  0  0  0  0  0
  -29.6570  -19.6610   16.2000 C   0  0  1  0  0  0  0  0  0  0  0  0
  -28.7440  -18.4950   15.8300 C   0  0  0  0  0  1  0  0  0  0  0  0
  -29.5730  -18.8110   20.7010 C   0  0  0  0  0  2  0  0  0  0  0  0
  -29.4520  -16.9950   20.2260 C   0  0  0  0  0  2  0  0  0  0  0  0
  -30.3450  -15.4140   20.4130 C   0  0  0  0  0  0  0  0  0  0  0  0
  -30.4680  -12.8900   19.6570 C   0  0  0  0  0  2  0  0  0  0  0  0
  -29.5970  -12.5920   18.4040 C   0  0  0  0  0  2  0  0  0  0  0  0
  -28.1270  -12.3300   18.7810 C   0  0  0  0  0  2  0  0  0  0  0  0
  -27.6270  -13.3020   19.8740 C   0  0  0  0  0  3  0  0  0  0  0  0
  -28.6310  -13.5000   21.0230 C   0  0  0  0  0  2  0  0  0  0  0  0
  -29.8630  -14.0540   20.4220 N   0  0  0  0  0  0  0  0  0  0  0  0
  -31.5870  -15.4010   20.3210 O   0  0  0  0  0  0  0  0  0  0  0  0
  -25.2430  -13.8500   20.5560 C   0  0  0  0  0  0  0  0  0  0  0  0
  -24.1660  -13.0730   20.8900 C   0  0  0  0  0  0  0  0  0  0  0  0
  -24.6330  -11.7240   20.8840 C   0  0  0  0  0  0  0  0  0  0  0  0
  -26.2880  -12.9740   20.3470 N   0  0  0  0  0  0  0  0  0  0  0  0
  -25.9370  -11.6890   20.6170 N   0  0  0  0  0  0  0  0  0  0  0  0
  -23.8970  -10.4640   21.0540 C   0  0  0  0  0  0  0  0  0  0  0  0
  -24.3010   -9.4900   21.9940 C   0  0  0  0  0  3  0  0  0  0  0  0
  -23.5600   -8.2980   22.1510 C   0  0  0  0  0  3  0  0  0  0  0  0
  -22.4030   -8.0720   21.3680 C   0  0  0  0  0  0  0  0  0  0  0  0
  -22.0230   -9.0320   20.4120 C   0  0  0  0  0  3  0  0  0  0  0  0
  -22.7640  -10.2170   20.2560 C   0  0  0  0  0  3  0  0  0  0  0  0
  -21.6360   -6.9320   21.4350 O   0  0  0  0  0  0  0  0  0  0  0  0
  -21.5690   -6.1730   22.5730 C   0  0  0  0  0  0  0  0  0  0  0  0
  -21.1340   -6.7160   23.8010 C   0  0  0  0  0  3  0  0  0  0  0  0
  -21.0150   -5.8880   24.9350 C   0  0  0  0  0  3  0  0  0  0  0  0
  -21.3180   -4.5170   24.8410 C   0  0  0  0  0  0  0  0  0  0  0  0
  -21.7500   -3.9730   23.6180 C   0  0  0  0  0  3  0  0  0  0  0  0
  -21.8700   -4.7980   22.4870 C   0  0  0  0  0  0  0  0  0  0  0  0
  -22.2620   -4.2630   21.3060 F   0  0  0  0  0  0  0  0  0  0  0  0
  -21.1970   -3.7190   25.9310 F   0  0  0  0  0  0  0  0  0  0  0  0
  -22.7610  -13.5500   21.1030 C   0  0  0  0  0  0  0  0  0  0  0  0
  -22.0070  -12.8660   21.9540 N   0  0  0  0  0  0  0  0  0  0  0  0
  -22.3410  -14.5670   20.5550 O   0  0  0  0  0  0  0  0  0  0  0  0
  -22.3610  -12.0430   22.4170 H   0  0  0  0  0  0  0  0  0  0  0  0
  -21.0660  -13.1710   22.1490 H   0  0  0  0  0  0  0  0  0  0  0  0
  -25.4160  -15.2220   20.3840 N   0  0  0  0  0  0  0  0  0  0  0  0
  -24.6670  -15.8980   20.4880 H   0  0  0  0  0  0  0  0  0  0  0  0
  -26.2850  -15.6430   20.0680 H   0  0  0  0  0  0  0  0  0  0  0  0
  -28.8980  -22.2700   20.5870 C   0  0  0  0  0  3  0  0  0  0  0  0
  -28.2910  -23.9470   19.9650 C   0  0  0  0  0  2  0  0  0  0  0  0
  -28.3800  -25.6100   20.3770 O   0  0  0  0  0  0  0  0  0  0  0  0
  -24.7310  -31.7550   23.2100 C   0  0  0  0  0  0  0  0  0  0  0  0
  -27.3970  -26.7730   20.2720 C   0  0  0  0  0  0  0  0  0  0  0  0
  -23.6070  -30.3510   21.5320 C   0  0  0  0  0  3  0  0  0  0  0  0
  -25.1160  -28.7330   20.1620 C   0  0  0  0  0  0  0  0  0  0  0  0
  -26.1850  -30.5270   21.4990 C   0  0  0  0  0  2  0  0  0  0  0  0
  -26.2810  -29.1090   20.8380 C   0  0  0  0  0  0  0  0  0  0  0  0
  -27.4140  -28.1520   20.8650 C   0  0  0  0  0  3  0  0  0  0  0  0
  -26.1970  -26.5790   19.5520 C   0  0  0  0  0  3  0  0  0  0  0  0
  -25.1060  -27.4940   19.5010 C   0  0  0  0  0  3  0  0  0  0  0  0
  -23.8930  -29.6590   20.1700 C   0  0  0  0  0  2  0  0  0  0  0  0
  -24.8620  -30.9120   22.1320 N   0  0  0  0  0  0  0  0  0  0  0  0
  -23.6190  -32.0470   23.6820 O   0  0  0  0  0  0  0  0  0  0  0  0
  -22.8710  -29.3640   22.4720 C   0  0  0  0  0  0  0  0  0  0  0  0
  -21.5380  -29.2340   22.3270 N   0  0  0  0  0  0  0  0  0  0  0  0
  -23.5110  -28.7090   23.3000 O   0  0  0  0  0  0  0  0  0  0  0  0
  -21.0810  -29.8090   21.6300 H   0  0  0  0  0  0  0  0  0  0  0  0
  -18.1150  -28.1150   22.8100 C   0  0  0  0  0  0  0  0  0  0  0  0
  -20.6830  -28.2980   23.0690 C   0  0  0  0  0  3  0  0  0  0  0  0
  -20.7390  -26.8800   22.4530 C   0  0  0  0  0  2  0  0  0  0  0  0
  -19.6260  -26.6250   21.4290 C   0  0  0  0  0  2  0  0  0  0  0  0
  -18.2490  -26.7880   22.0800 C   0  0  0  0  0  2  0  0  0  0  0  0
  -19.2570  -28.8330   23.2560 C   0  0  0  0  0  0  0  0  0  0  0  0
  -19.0750  -30.0740   23.9000 C   0  0  0  0  0  3  0  0  0  0  0  0
  -17.7870  -30.6060   24.0920 C   0  0  0  0  0  3  0  0  0  0  0  0
  -16.6580  -29.8880   23.6590 C   0  0  0  0  0  3  0  0  0  0  0  0
  -16.8240  -28.6410   23.0300 C   0  0  0  0  0  3  0  0  0  0  0  0
  -25.9690  -32.4060   23.8990 C   0  0  0  0  0  3  0  0  0  0  0  0
  -25.6190  -33.7950   24.2500 N   0  0  0  0  0  0  0  0  0  0  0  0
  -25.9990  -34.8820   23.5650 C   0  0  0  0  0  0  0  0  0  0  0  0
  -26.7420  -34.8220   22.5820 O   0  0  0  0  0  0  0  0  0  0  0  0
  -24.9580  -33.9100   25.0060 H   0  0  0  0  0  0  0  0  0  0  0  0
  -24.2830  -36.6830   23.1760 C   0  0  0  0  0  1  0  0  0  0  0  0
  -25.4790  -36.2550   24.0430 C   0  0  0  0  0  3  0  0  0  0  0  0
  -27.5520  -37.1140   25.0360 C   0  0  0  0  0  1  0  0  0  0  0  0
  -26.5110  -37.3160   24.0310 N   0  0  0  0  0  0  0  0  0  0  0  0
  -26.0910  -38.2270   24.1990 H   0  0  0  0  0  0  0  0  0  0  0  0
  -26.4420  -31.6310   25.1910 C   0  0  1  0  0  0  0  0  0  0  0  0
  -25.3090  -31.3730   26.2150 C   0  0  0  0  0  1  0  0  0  0  0  0
  -27.0530  -30.2630   24.8240 C   0  0  0  0  0  1  0  0  0  0  0  0
  -27.5650  -32.4260   25.9020 C   0  0  0  0  0  1  0  0  0  0  0  0
  1 48  2  0
  1 10  1  0
  2  1  1  0
  3  5  1  0
  3  2  1  0
  4  2  2  0
  6  7  1  0
  6  8  1  0
  7  8  1  0
  8  3  1  0
  8  9  1  1
 11 12  1  0
 11 10  1  0
 12 18  1  0
 13 18  1  0
 14 15  1  0
 14 13  1  0
 16 15  1  0
 16 23  1  0
 16 17  1  0
 18 17  1  0
 19 12  2  0
 20 21  2  0
 21 40  1  0
 22 21  1  0
 22 25  1  0
 23 20  1  0
 23 24  1  0
 24 22  2  0
 25 26  1  0
 26 27  2  0
 28 31  1  0
 28 27  1  0
 29 28  2  0
 30 29  1  0
 30 25  2  0
 31 32  1  0
 32 33  1  0
 33 34  2  0
 35 34  1  0
 35 39  1  0
 36 35  2  0
 37 32  2  0
 37 36  1  0
 38 37  1  0
 40 41  1  0
 41 44  1  0
 41 43  1  0
 42 40  2  0
 45 46  1  0
 45 20  1  0
 47 45  1  0
 49 50  1  0
 49 48  1  0
 51 62  2  0
 52 50  1  0
 52 57  1  0
 53 61  1  0
 53 63  1  0
 54 60  1  0
 54 56  1  0
 55 61  1  0
 56 57  2  0
 56 55  1  0
 58 52  2  0
 59 58  1  0
 59 54  2  0
 60 53  1  0
 61 51  1  0
 63 65  2  0
 64 63  1  0
 66 64  1  0
 67 76  2  0
 67 72  1  0
 68 64  1  0
 68 72  1  0
 69 68  1  0
 70 71  1  0
 70 69  1  0
 71 67  1  0
 72 73  2  0
 73 74  1  0
 75 74  2  0
 76 75  1  0
 77 51  1  0
 77 78  1  0
 77 87  1  0
 78 81  1  0
 79 83  1  0
 79 78  1  0
 80 79  2  0
 83 82  1  0
 85 83  1  0
 85 86  1  0
 85 84  1  0
 87 90  1  1
 87 88  1  0
 89 87  1  0
M  ISO  4  11 100  12 100  49 101  50 101
M  END
>  <TORSDO>  (21) 
F 22

>  <SCORE>  (21) 
-15.481

>  <name>  (21) 
20

>  <ligand_id>  (21) 
20

>  <original_smiles>  (21) 
[H]c1c([H])c([H])c2c(c1[H])C([H])([H])C([H])([H])C([H])([H])C2([H])N([H])C(=O)C1([H])N(C(=O)C([H])(N([H])C(=O)C([H])(N([H])C([H])([H])[H])C([H])([H])[H])C(C([H])([H])[H])(C([H])([H])[H])C([H])([H])[H])C([H])([H])c2c([H])c(OC([H])([H])C([H])([H])C([H])(C(=O)N([H])C3(C([H])([H])[H])C([H])([H])C3([H])[H])C([H])([H])C([H])([H])C(=O)N3C([H])([H])C([H])([H])C([H])([H])C([H])(n4nc(-c5c([H])c([H])c(Oc6c([H])c([H])c(F)c([H])c6F)c([H])c5[H])c(C(=O)N([H])[H])c4N([H])[H])C3([H])[H])c([H])c([H])c2C1([H])[H]

>  <smiles>  (21) 
[H]c1c([H])c([H])c2c(c1[H])C([H])([H])C([H])([H])C([H])([H])C2([H])N([H])C(=O)C1([H])N(C(=O)C([H])(N([H])C(=O)C([H])(N([H])C([H])([H])[H])C([H])([H])[H])C(C([H])([H])[H])(C([H])([H])[H])C([H])([H])[H])C([H])([H])c2c([H])c(OC([H])([H])C([H])([H])C([H])(C(=O)N([H])C3(C([H])([H])[H])C([H])([H])C3([H])[H])C([H])([H])C([H])([H])C(=O)N3C([H])([H])C([H])([H])C([H])([H])C([H])(n4nc(-c5c([H])c([H])c(Oc6c([H])c([H])c(F)c([H])c6F)c([H])c5[H])c(C(=O)N([H])[H])c4N([H])[H])C3([H])[H])c([H])c([H])c2C1([H])[H]

$$$$
21:0:0
     RDKit          3D

 92101  0  0  1  0  0  0  0  0999 V2000
  -30.1860  -23.0500   20.4300 C   0  0  0  0  0  2  0  0  0  0  0  0
  -27.9060  -22.5230   19.7290 C   0  0  0  0  0  2  0  0  0  0  0  0
  -30.4210  -21.5320   20.8710 C   0  0  0  0  0  2  0  0  0  0  0  0
  -28.1020  -20.9960   20.1520 C   0  0  0  0  0  2  0  0  0  0  0  0
  -29.9410  -18.2690   18.7980 C   0  0  0  0  0  2  0  0  0  0  0  0
  -28.7130  -23.5340   20.5950 C   0  0  0  0  0  3  0  0  0  0  0  0
  -30.1320  -19.8160   18.8870 C   0  0  0  0  0  3  0  0  0  0  0  0
  -30.2840  -17.7120   20.1860 C   0  0  0  0  0  3  0  0  0  0  0  0
  -29.5560  -20.3340   20.2540 C   0  0  1  0  0  0  0  0  0  0  0  0
  -29.6250  -18.8910   21.0750 C   0  0  2  0  0  0  0  0  0  0  0  0
  -29.6670  -20.5430   17.6150 C   0  0  0  0  0  1  0  0  0  0  0  0
  -30.4650  -18.9900   22.3680 C   0  0  0  0  0  1  0  0  0  0  0  0
  -28.2140  -18.4200   21.5070 C   0  0  0  0  0  1  0  0  0  0  0  0
  -29.9460  -16.1290   20.5030 C   0  0  0  0  0  2  0  0  0  0  0  0
  -30.7080  -14.8420   19.8860 C   0  0  0  0  0  0  0  0  0  0  0  0
  -30.4680  -12.5770   18.8180 C   0  0  0  0  0  2  0  0  0  0  0  0
  -29.4070  -12.6670   17.6960 C   0  0  0  0  0  2  0  0  0  0  0  0
  -27.9890  -12.4580   18.2610 C   0  0  0  0  0  2  0  0  0  0  0  0
  -27.7290  -13.3100   19.5310 C   0  0  0  0  0  3  0  0  0  0  0  0
  -28.8920  -13.1940   20.5390 C   0  0  0  0  0  2  0  0  0  0  0  0
  -30.1250  -13.5890   19.8450 N   0  0  0  0  0  0  0  0  0  0  0  0
  -31.8190  -14.9950   19.3680 O   0  0  0  0  0  0  0  0  0  0  0  0
  -25.4390  -13.8690   20.5460 C   0  0  0  0  0  0  0  0  0  0  0  0
  -24.4070  -13.0800   20.9750 C   0  0  0  0  0  0  0  0  0  0  0  0
  -24.8440  -11.7310   20.8080 C   0  0  0  0  0  0  0  0  0  0  0  0
  -26.4390  -12.9990   20.1420 N   0  0  0  0  0  0  0  0  0  0  0  0
  -26.0940  -11.7040   20.3610 N   0  0  0  0  0  0  0  0  0  0  0  0
  -24.1240  -10.4640   20.9940 C   0  0  0  0  0  0  0  0  0  0  0  0
  -24.5970   -9.4670   21.8760 C   0  0  0  0  0  3  0  0  0  0  0  0
  -23.8740   -8.2670   22.0520 C   0  0  0  0  0  3  0  0  0  0  0  0
  -22.6670   -8.0540   21.3460 C   0  0  0  0  0  0  0  0  0  0  0  0
  -22.2130   -9.0390   20.4500 C   0  0  0  0  0  3  0  0  0  0  0  0
  -22.9350  -10.2320   20.2730 C   0  0  0  0  0  3  0  0  0  0  0  0
  -21.9140   -6.9080   21.4330 O   0  0  0  0  0  0  0  0  0  0  0  0
  -21.8600   -6.1690   22.5880 C   0  0  0  0  0  0  0  0  0  0  0  0
  -21.4200   -6.7270   23.8080 C   0  0  0  0  0  3  0  0  0  0  0  0
  -21.3120   -5.9140   24.9550 C   0  0  0  0  0  3  0  0  0  0  0  0
  -21.6350   -4.5450   24.8810 C   0  0  0  0  0  0  0  0  0  0  0  0
  -22.0670   -3.9870   23.6650 C   0  0  0  0  0  3  0  0  0  0  0  0
  -22.1770   -4.7970   22.5210 C   0  0  0  0  0  0  0  0  0  0  0  0
  -22.5740   -4.2510   21.3470 F   0  0  0  0  0  0  0  0  0  0  0  0
  -21.5240   -3.7630   25.9790 F   0  0  0  0  0  0  0  0  0  0  0  0
  -23.0530  -13.5490   21.4240 C   0  0  0  0  0  0  0  0  0  0  0  0
  -22.4200  -12.8150   22.3320 N   0  0  0  0  0  0  0  0  0  0  0  0
  -22.5680  -14.6000   21.0050 O   0  0  0  0  0  0  0  0  0  0  0  0
  -22.8270  -11.9650   22.6920 H   0  0  0  0  0  0  0  0  0  0  0  0
  -21.5160  -13.1100   22.6740 H   0  0  0  0  0  0  0  0  0  0  0  0
  -25.6030  -15.2470   20.4420 N   0  0  0  0  0  0  0  0  0  0  0  0
  -24.8630  -15.8990   20.6830 H   0  0  0  0  0  0  0  0  0  0  0  0
  -26.4230  -15.7020   20.0640 H   0  0  0  0  0  0  0  0  0  0  0  0
  -28.2330  -25.1030   20.8050 C   0  0  0  0  0  2  0  0  0  0  0  0
  -28.4300  -26.3760   20.0300 O   0  0  0  0  0  0  0  0  0  0  0  0
  -24.7190  -31.8480   23.1240 C   0  0  0  0  0  0  0  0  0  0  0  0
  -27.3480  -27.2890   20.0300 C   0  0  0  0  0  0  0  0  0  0  0  0
  -23.5190  -30.4470   21.4850 C   0  0  0  0  0  3  0  0  0  0  0  0
  -24.9770  -28.9140   20.0380 C   0  0  0  0  0  0  0  0  0  0  0  0
  -26.0580  -30.7800   21.2880 C   0  0  0  0  0  2  0  0  0  0  0  0
  -26.1490  -29.4020   20.6300 C   0  0  0  0  0  0  0  0  0  0  0  0
  -27.3420  -28.6040   20.6120 C   0  0  0  0  0  3  0  0  0  0  0  0
  -26.1530  -26.8700   19.4100 C   0  0  0  0  0  3  0  0  0  0  0  0
  -24.9840  -27.6560   19.4140 C   0  0  0  0  0  3  0  0  0  0  0  0
  -23.7320  -29.7810   20.1000 C   0  0  0  0  0  2  0  0  0  0  0  0
  -24.7850  -31.0440   22.0210 N   0  0  0  0  0  0  0  0  0  0  0  0
  -23.6360  -32.1120   23.6680 O   0  0  0  0  0  0  0  0  0  0  0  0
  -22.8700  -29.4210   22.4460 C   0  0  0  0  0  0  0  0  0  0  0  0
  -21.5390  -29.2520   22.3470 N   0  0  0  0  0  0  0  0  0  0  0  0
  -23.5620  -28.7800   23.2410 O   0  0  0  0  0  0  0  0  0  0  0  0
  -21.0390  -29.8210   21.6780 H   0  0  0  0  0  0  0  0  0  0  0  0
  -18.1630  -28.0850   22.9340 C   0  0  0  0  0  0  0  0  0  0  0  0
  -20.7330  -28.3050   23.1210 C   0  0  0  0  0  3  0  0  0  0  0  0
  -20.7950  -26.8880   22.5050 C   0  0  0  0  0  2  0  0  0  0  0  0
  -19.6550  -26.6060   21.5230 C   0  0  0  0  0  2  0  0  0  0  0  0
  -18.2990  -26.7520   22.2170 C   0  0  0  0  0  2  0  0  0  0  0  0
  -19.3070  -28.8220   23.3430 C   0  0  0  0  0  0  0  0  0  0  0  0
  -19.1250  -30.0710   23.9760 C   0  0  0  0  0  3  0  0  0  0  0  0
  -17.8330  -30.5840   24.2010 C   0  0  0  0  0  3  0  0  0  0  0  0
  -16.7050  -29.8430   23.8060 C   0  0  0  0  0  3  0  0  0  0  0  0
  -16.8710  -28.5950   23.1800 C   0  0  0  0  0  3  0  0  0  0  0  0
  -25.9990  -32.4900   23.7420 C   0  0  0  0  0  3  0  0  0  0  0  0
  -25.6680  -33.8750   24.1120 N   0  0  0  0  0  0  0  0  0  0  0  0
  -25.9590  -34.9520   23.3710 C   0  0  0  0  0  0  0  0  0  0  0  0
  -26.6020  -34.8870   22.3200 O   0  0  0  0  0  0  0  0  0  0  0  0
  -25.0940  -33.9980   24.9330 H   0  0  0  0  0  0  0  0  0  0  0  0
  -24.1850  -36.7170   23.1090 C   0  0  0  0  0  1  0  0  0  0  0  0
  -25.4570  -36.3200   23.8740 C   0  0  0  0  0  3  0  0  0  0  0  0
  -27.5940  -37.2340   24.6690 C   0  0  0  0  0  1  0  0  0  0  0  0
  -26.4640  -37.3970   23.7570 N   0  0  0  0  0  0  0  0  0  0  0  0
  -26.0440  -38.3050   23.9340 H   0  0  0  0  0  0  0  0  0  0  0  0
  -26.5490  -31.7010   24.9930 C   0  0  1  0  0  0  0  0  0  0  0  0
  -25.4760  -31.4140   26.0690 C   0  0  0  0  0  1  0  0  0  0  0  0
  -27.1550  -30.3450   24.5620 C   0  0  0  0  0  1  0  0  0  0  0  0
  -27.6920  -32.5030   25.6590 C   0  0  0  0  0  1  0  0  0  0  0  0
  1  6  1  0
  1  3  1  0
  2  4  1  0
  2  6  1  0
  5  7  1  0
  5  8  1  0
  6 51  1  0
  7 11  1  0
  7  9  1  0
  8 14  1  0
  8 10  1  0
  9  4  1  6
  9  3  1  0
  9 10  1  0
 10 13  1  1
 10 12  1  0
 15 14  1  0
 16 21  1  0
 17 18  1  0
 17 16  1  0
 19 18  1  0
 19 26  1  0
 19 20  1  0
 21 15  1  0
 21 20  1  0
 22 15  2  0
 23 24  2  0
 24 43  1  0
 25 24  1  0
 25 28  1  0
 26 27  1  0
 26 23  1  0
 27 25  2  0
 28 29  1  0
 29 30  2  0
 31 34  1  0
 31 30  1  0
 32 31  2  0
 33 32  1  0
 33 28  2  0
 34 35  1  0
 35 36  1  0
 36 37  2  0
 38 37  1  0
 38 42  1  0
 39 38  2  0
 40 35  2  0
 40 39  1  0
 41 40  1  0
 43 44  1  0
 44 47  1  0
 44 46  1  0
 45 43  2  0
 48 23  1  0
 48 49  1  0
 50 48  1  0
 52 54  1  0
 52 51  1  0
 53 64  2  0
 54 59  1  0
 55 63  1  0
 55 65  1  0
 56 62  1  0
 56 58  1  0
 57 63  1  0
 58 57  1  0
 59 58  2  0
 60 61  1  0
 60 54  2  0
 61 56  2  0
 62 55  1  0
 63 53  1  0
 65 67  2  0
 66 65  1  0
 68 66  1  0
 69 78  2  0
 69 74  1  0
 70 66  1  0
 70 74  1  0
 71 70  1  0
 72 73  1  0
 72 71  1  0
 73 69  1  0
 74 75  2  0
 75 76  1  0
 77 76  2  0
 78 77  1  0
 79 53  1  0
 79 80  1  0
 79 89  1  0
 80 83  1  0
 81 85  1  0
 81 80  1  0
 82 81  2  0
 85 84  1  0
 87 85  1  0
 87 88  1  0
 87 86  1  0
 89 92  1  1
 89 90  1  0
 91 89  1  0
M  ISO  4  14 100  15 100  51 101  52 101
M  END
>  <TORSDO>  (22) 
F 18

>  <SCORE>  (22) 
-11.969

>  <name>  (22) 
21

>  <ligand_id>  (22) 
21

>  <original_smiles>  (22) 
[H]c1c([H])c([H])c2c(c1[H])C([H])([H])C([H])([H])C([H])([H])C2([H])N([H])C(=O)C1([H])N(C(=O)C([H])(N([H])C(=O)C([H])(N([H])C([H])([H])[H])C([H])([H])[H])C(C([H])([H])[H])(C([H])([H])[H])C([H])([H])[H])C([H])([H])c2c([H])c(OC([H])([H])C3([H])C([H])([H])C([H])([H])C4(C([H])([H])C3([H])[H])C([H])(C([H])([H])[H])C([H])([H])C([H])(C([H])([H])C(=O)N3C([H])([H])C([H])([H])C([H])([H])C([H])(n5nc(-c6c([H])c([H])c(Oc7c([H])c([H])c(F)c([H])c7F)c([H])c6[H])c(C(=O)N([H])[H])c5N([H])[H])C3([H])[H])C4(C([H])([H])[H])C([H])([H])[H])c([H])c([H])c2C1([H])[H]

>  <smiles>  (22) 
[H]c1c([H])c([H])c2c(c1[H])C([H])([H])C([H])([H])C([H])([H])C2([H])N([H])C(=O)C1([H])N(C(=O)C([H])(N([H])C(=O)C([H])(N([H])C([H])([H])[H])C([H])([H])[H])C(C([H])([H])[H])(C([H])([H])[H])C([H])([H])[H])C([H])([H])c2c([H])c(OC([H])([H])C3([H])C([H])([H])C([H])([H])C4(C([H])([H])C3([H])[H])C([H])(C([H])([H])[H])C([H])([H])C([H])(C([H])([H])C(=O)N3C([H])([H])C([H])([H])C([H])([H])C([H])(n5nc(-c6c([H])c([H])c(Oc7c([H])c([H])c(F)c([H])c7F)c([H])c6[H])c(C(=O)N([H])[H])c5N([H])[H])C3([H])[H])C4(C([H])([H])[H])C([H])([H])[H])c([H])c([H])c2C1([H])[H]

$$$$
22:0:0
     RDKit          3D

 99108  0  0  1  0  0  0  0  0999 V2000
  -31.4050  -21.6130   18.8350 C   0  0  0  0  0  2  0  0  0  0  0  0
  -29.4980  -16.6690   21.1630 C   0  0  0  0  0  2  0  0  0  0  0  0
  -32.3120  -18.5050   18.2170 C   0  0  0  0  0  2  0  0  0  0  0  0
  -30.5800  -17.6590   21.6110 C   0  0  0  0  0  2  0  0  0  0  0  0
  -31.2670  -19.4320   17.5820 C   0  0  0  0  0  2  0  0  0  0  0  0
  -30.1380  -19.5650   19.9040 C   0  0  0  0  0  2  0  0  0  0  0  0
  -29.9300  -15.8040   19.9680 C   0  0  0  0  0  3  0  0  0  0  0  0
  -31.7040  -17.6370   19.3450 C   0  0  0  0  0  3  0  0  0  0  0  0
  -30.5710  -16.6780   18.8390 C   0  0  0  0  0  3  0  0  0  0  0  0
  -31.1810  -18.5550   20.4890 C   0  0  2  0  0  0  0  0  0  0  0  0
  -30.5320  -20.3470   18.5960 C   0  0  1  0  0  0  0  0  0  0  0  0
  -30.9420  -15.8720   17.5730 C   0  0  0  0  0  1  0  0  0  0  0  0
  -32.3240  -19.3260   21.1920 C   0  0  0  0  0  1  0  0  0  0  0  0
  -29.2350  -20.8130   17.8930 C   0  0  0  0  0  1  0  0  0  0  0  0
  -30.7070  -14.5090   20.3550 C   0  0  0  0  0  0  0  0  0  0  0  0
  -30.4140  -12.2670   19.4470 C   0  0  0  0  0  2  0  0  0  0  0  0
  -29.4860  -12.3810   18.2200 C   0  0  0  0  0  2  0  0  0  0  0  0
  -28.0110  -12.2510   18.6410 C   0  0  0  0  0  2  0  0  0  0  0  0
  -27.6320  -13.1720   19.8280 C   0  0  0  0  0  3  0  0  0  0  0  0
  -28.6940  -13.1140   20.9540 C   0  0  0  0  0  2  0  0  0  0  0  0
  -30.0340  -13.3300   20.3860 N   0  0  0  0  0  0  0  0  0  0  0  0
  -31.9320  -14.5580   20.2670 O   0  0  0  0  0  0  0  0  0  0  0  0
  -25.2580  -13.8050   20.5700 C   0  0  0  0  0  0  0  0  0  0  0  0
  -24.1800  -13.0400   20.9200 C   0  0  0  0  0  0  0  0  0  0  0  0
  -24.6310  -11.6840   20.8790 C   0  0  0  0  0  0  0  0  0  0  0  0
  -26.2900  -12.9110   20.3270 N   0  0  0  0  0  0  0  0  0  0  0  0
  -25.9210  -11.6340   20.5820 N   0  0  0  0  0  0  0  0  0  0  0  0
  -23.9000  -10.4270   21.0460 C   0  0  0  0  0  0  0  0  0  0  0  0
  -24.3580   -9.4200   21.9240 C   0  0  0  0  0  3  0  0  0  0  0  0
  -23.6280   -8.2230   22.0790 C   0  0  0  0  0  3  0  0  0  0  0  0
  -22.4270   -8.0270   21.3560 C   0  0  0  0  0  0  0  0  0  0  0  0
  -21.9890   -9.0240   20.4670 C   0  0  0  0  0  3  0  0  0  0  0  0
  -22.7190  -10.2120   20.3090 C   0  0  0  0  0  3  0  0  0  0  0  0
  -21.6650   -6.8860   21.4250 O   0  0  0  0  0  0  0  0  0  0  0  0
  -21.6860   -6.0730   22.5290 C   0  0  0  0  0  0  0  0  0  0  0  0
  -21.4010   -6.5650   23.8210 C   0  0  0  0  0  3  0  0  0  0  0  0
  -21.3660   -5.6810   24.9180 C   0  0  0  0  0  3  0  0  0  0  0  0
  -21.6040   -4.3070   24.7230 C   0  0  0  0  0  0  0  0  0  0  0  0
  -21.8830   -3.8160   23.4360 C   0  0  0  0  0  3  0  0  0  0  0  0
  -21.9190   -4.6960   22.3410 C   0  0  0  0  0  0  0  0  0  0  0  0
  -22.1660   -4.2140   21.0990 F   0  0  0  0  0  0  0  0  0  0  0  0
  -21.5640   -3.4560   25.7750 F   0  0  0  0  0  0  0  0  0  0  0  0
  -22.7840  -13.5230   21.1840 C   0  0  0  0  0  0  0  0  0  0  0  0
  -22.0480  -12.8240   22.0400 N   0  0  0  0  0  0  0  0  0  0  0  0
  -22.3530  -14.5540   20.6670 O   0  0  0  0  0  0  0  0  0  0  0  0
  -22.4100  -11.9880   22.4760 H   0  0  0  0  0  0  0  0  0  0  0  0
  -21.1110  -13.1280   22.2640 H   0  0  0  0  0  0  0  0  0  0  0  0
  -25.4410  -15.1780   20.4140 N   0  0  0  0  0  0  0  0  0  0  0  0
  -24.6880  -15.8490   20.5250 H   0  0  0  0  0  0  0  0  0  0  0  0
  -26.3150  -15.6070   20.1390 H   0  0  0  0  0  0  0  0  0  0  0  0
  -30.9510  -22.5370   19.9830 C   0  0  0  0  0  2  0  0  0  0  0  0
  -32.8440  -24.2470   19.8810 C   0  0  0  0  0  1  0  0  0  0  0  0
  -31.3300  -24.0090   19.7470 C   0  0  0  0  0  3  0  0  0  0  0  0
  -30.5500  -24.8900   20.6410 N   0  0  0  0  0  4  0  0  0  0  0  0
  -29.5730  -24.6800   20.4900 H   0  0  0  0  0  0  0  0  0  0  0  0
  -30.7530  -24.6910   21.6100 H   0  0  0  0  0  0  0  0  0  0  0  0
  -30.7170  -26.3340   20.3680 C   0  0  0  0  0  2  0  0  0  0  0  0
  -29.5150  -27.1300   20.8590 C   0  0  0  0  0  2  0  0  0  0  0  0
  -28.4030  -26.7330   20.0570 O   0  0  0  0  0  0  0  0  0  0  0  0
  -24.6010  -31.8730   23.2150 C   0  0  0  0  0  0  0  0  0  0  0  0
  -27.2560  -27.4930   20.1150 C   0  0  0  0  0  0  0  0  0  0  0  0
  -23.3890  -30.4930   21.5520 C   0  0  0  0  0  3  0  0  0  0  0  0
  -24.8400  -28.9620   20.1140 C   0  0  0  0  0  0  0  0  0  0  0  0
  -25.9010  -30.8580   21.3560 C   0  0  0  0  0  2  0  0  0  0  0  0
  -25.9830  -29.4860   20.7270 C   0  0  0  0  0  0  0  0  0  0  0  0
  -27.1810  -28.7550   20.7470 C   0  0  0  0  0  3  0  0  0  0  0  0
  -26.1020  -26.9780   19.4870 C   0  0  0  0  0  3  0  0  0  0  0  0
  -24.8900  -27.7010   19.4920 C   0  0  0  0  0  3  0  0  0  0  0  0
  -23.5960  -29.8180   20.1660 C   0  0  0  0  0  2  0  0  0  0  0  0
  -24.6480  -31.0890   22.1020 N   0  0  0  0  0  0  0  0  0  0  0  0
  -23.5230  -32.1450   23.7590 O   0  0  0  0  0  0  0  0  0  0  0  0
  -22.7350  -29.4670   22.5040 C   0  0  0  0  0  0  0  0  0  0  0  0
  -21.4090  -29.3020   22.3790 N   0  0  0  0  0  0  0  0  0  0  0  0
  -23.4160  -28.8220   23.3050 O   0  0  0  0  0  0  0  0  0  0  0  0
  -20.9230  -29.8750   21.7040 H   0  0  0  0  0  0  0  0  0  0  0  0
  -18.0250  -28.1390   22.8520 C   0  0  0  0  0  0  0  0  0  0  0  0
  -20.5820  -28.3660   23.1380 C   0  0  0  0  0  3  0  0  0  0  0  0
  -20.6750  -26.9400   22.5470 C   0  0  0  0  0  2  0  0  0  0  0  0
  -19.5740  -26.6400   21.5250 C   0  0  0  0  0  2  0  0  0  0  0  0
  -18.1900  -26.7950   22.1620 C   0  0  0  0  0  2  0  0  0  0  0  0
  -19.1490  -28.8840   23.2950 C   0  0  0  0  0  0  0  0  0  0  0  0
  -18.9410  -30.1450   23.8950 C   0  0  0  0  0  3  0  0  0  0  0  0
  -17.6420  -30.6590   24.0580 C   0  0  0  0  0  3  0  0  0  0  0  0
  -16.5320  -29.9100   23.6320 C   0  0  0  0  0  3  0  0  0  0  0  0
  -16.7240  -28.6520   23.0330 C   0  0  0  0  0  3  0  0  0  0  0  0
  -25.8930  -32.4870   23.8450 C   0  0  0  0  0  3  0  0  0  0  0  0
  -25.5810  -33.8660   24.2370 N   0  0  0  0  0  0  0  0  0  0  0  0
  -25.8990  -34.9500   23.5160 C   0  0  0  0  0  0  0  0  0  0  0  0
  -26.5580  -34.8940   22.4740 O   0  0  0  0  0  0  0  0  0  0  0  0
  -24.9900  -33.9850   25.0480 H   0  0  0  0  0  0  0  0  0  0  0  0
  -24.1480  -36.7400   23.2640 C   0  0  0  0  0  1  0  0  0  0  0  0
  -25.4090  -36.3160   24.0350 C   0  0  0  0  0  3  0  0  0  0  0  0
  -27.5570  -37.1870   24.8460 C   0  0  0  0  0  1  0  0  0  0  0  0
  -26.4310  -37.3810   23.9360 N   0  0  0  0  0  0  0  0  0  0  0  0
  -26.0240  -38.2920   24.1300 H   0  0  0  0  0  0  0  0  0  0  0  0
  -26.4410  -31.6620   25.0750 C   0  0  1  0  0  0  0  0  0  0  0  0
  -25.3720  -31.3680   26.1540 C   0  0  0  0  0  1  0  0  0  0  0  0
  -27.0180  -30.3060   24.6070 C   0  0  0  0  0  1  0  0  0  0  0  0
  -27.6040  -32.4290   25.7470 C   0  0  0  0  0  1  0  0  0  0  0  0
  1 51  1  0
  2  4  1  0
  5  3  1  0
  5 11  1  0
  6 10  1  0
  7 15  1  0
  7  2  1  0
  8  3  1  0
  8 10  1  0
  9 12  1  0
  9  8  1  0
  9  7  1  0
 10 13  1  1
 10  4  1  0
 11 14  1  6
 11  1  1  0
 11  6  1  0
 15 21  1  0
 16 21  1  0
 17 18  1  0
 17 16  1  0
 19 18  1  0
 19 26  1  0
 19 20  1  0
 21 20  1  0
 22 15  2  0
 23 24  2  0
 24 43  1  0
 25 24  1  0
 25 28  1  0
 26 23  1  0
 26 27  1  0
 27 25  2  0
 28 29  1  0
 29 30  2  0
 31 34  1  0
 31 30  1  0
 32 31  2  0
 33 32  1  0
 33 28  2  0
 34 35  1  0
 35 36  1  0
 36 37  2  0
 38 37  1  0
 38 42  1  0
 39 38  2  0
 40 35  2  0
 40 39  1  0
 41 40  1  0
 43 44  1  0
 44 47  1  0
 44 46  1  0
 45 43  2  0
 48 49  1  0
 48 23  1  0
 50 48  1  0
 53 52  1  0
 53 51  1  0
 53 54  1  0
 54 56  1  0
 55 54  1  0
 57 54  1  0
 57 58  1  0
 59 61  1  0
 59 58  1  0
 60 71  2  0
 61 66  1  0
 62 70  1  0
 62 72  1  0
 63 69  1  0
 63 65  1  0
 64 70  1  0
 65 66  2  0
 65 64  1  0
 67 68  1  0
 67 61  2  0
 68 63  2  0
 69 62  1  0
 70 60  1  0
 72 74  2  0
 73 72  1  0
 75 73  1  0
 76 85  2  0
 76 81  1  0
 77 73  1  0
 77 81  1  0
 78 77  1  0
 79 80  1  0
 79 78  1  0
 80 76  1  0
 81 82  2  0
 82 83  1  0
 84 83  2  0
 85 84  1  0
 86 60  1  0
 86 87  1  0
 86 96  1  0
 87 90  1  0
 88 92  1  0
 88 87  1  0
 89 88  2  0
 92 91  1  0
 94 92  1  0
 94 95  1  0
 94 93  1  0
 96 99  1  1
 96 97  1  0
 98 96  1  0
M  ISO  4   7 100  15 100  58 101  59 101
M  END
>  <TORSDO>  (23) 
F 22

>  <SCORE>  (23) 
-12.771

>  <name>  (23) 
22

>  <ligand_id>  (23) 
22

>  <original_smiles>  (23) 
[H]c1c([H])c([H])c2c(c1[H])C([H])([H])C([H])([H])C([H])([H])C2([H])N([H])C(=O)C1([H])N(C(=O)C([H])(N([H])C(=O)C([H])(N([H])C([H])([H])[H])C([H])([H])[H])C(C([H])([H])[H])(C([H])([H])[H])C([H])([H])[H])C([H])([H])c2c([H])c(OC([H])([H])C([H])([H])[N+]([H])([H])C([H])(C([H])([H])[H])C([H])([H])C([H])([H])C3(C([H])([H])[H])C([H])([H])C([H])([H])C4([H])C([H])(C([H])([H])[H])C([H])(C(=O)N5C([H])([H])C([H])([H])C([H])([H])C([H])(n6nc(-c7c([H])c([H])c(Oc8c([H])c([H])c(F)c([H])c8F)c([H])c7[H])c(C(=O)N([H])[H])c6N([H])[H])C5([H])[H])C([H])([H])C([H])([H])C4(C([H])([H])[H])C3([H])[H])c([H])c([H])c2C1([H])[H]

>  <smiles>  (23) 
[H]c1c([H])c([H])c2c(c1[H])C([H])([H])C([H])([H])C([H])([H])C2([H])N([H])C(=O)C1([H])N(C(=O)C([H])(N([H])C(=O)C([H])(N([H])C([H])([H])[H])C([H])([H])[H])C(C([H])([H])[H])(C([H])([H])[H])C([H])([H])[H])C([H])([H])c2c([H])c(OC([H])([H])C([H])([H])[N+]([H])([H])C([H])(C([H])([H])[H])C([H])([H])C([H])([H])C3(C([H])([H])[H])C([H])([H])C([H])([H])C4([H])C([H])(C([H])([H])[H])C([H])(C(=O)N5C([H])([H])C([H])([H])C([H])([H])C([H])(n6nc(-c7c([H])c([H])c(Oc8c([H])c([H])c(F)c([H])c8F)c([H])c7[H])c(C(=O)N([H])[H])c6N([H])[H])C5([H])[H])C([H])([H])C([H])([H])C4(C([H])([H])[H])C3([H])[H])c([H])c([H])c2C1([H])[H]

$$$$
23:0:0
     RDKit          3D

 92100  0  0  1  0  0  0  0  0999 V2000
  -28.1370  -23.2520   20.4280 C   0  0  0  0  0  3  0  0  0  0  0  0
  -29.2190  -21.9340   20.7990 C   0  0  0  0  0  0  0  0  0  0  0  0
  -29.2380  -19.3690   18.3910 C   0  0  0  0  0  2  0  0  0  0  0  0
  -28.3060  -20.1910   19.2970 C   0  0  0  0  0  2  0  0  0  0  0  0
  -30.5500  -19.2420   19.1570 C   0  0  0  0  0  3  0  0  0  0  0  0
  -30.0500  -19.1230   20.6030 C   0  0  0  0  0  3  0  0  0  0  0  0
  -31.4680  -18.1670   18.5730 C   0  0  0  0  0  1  0  0  0  0  0  0
  -29.0880  -20.4820   20.4970 N   0  0  0  0  0  0  0  0  0  0  0  0
  -30.2080  -22.2720   21.4510 O   0  0  0  0  0  0  0  0  0  0  0  0
  -29.6570  -17.3930   20.9320 C   0  0  0  0  0  2  0  0  0  0  0  0
  -30.5680  -15.8900   20.8480 C   0  0  0  0  0  0  0  0  0  0  0  0
  -30.7570  -13.3820   20.1750 C   0  0  0  0  0  2  0  0  0  0  0  0
  -30.0050  -13.0880   18.8520 C   0  0  0  0  0  2  0  0  0  0  0  0
  -28.5150  -12.8130   19.1130 C   0  0  0  0  0  2  0  0  0  0  0  0
  -27.9100  -13.8420   20.0990 C   0  0  0  0  0  3  0  0  0  0  0  0
  -28.7970  -14.0550   21.3430 C   0  0  0  0  0  2  0  0  0  0  0  0
  -30.0940  -14.5500   20.8640 N   0  0  0  0  0  0  0  0  0  0  0  0
  -31.7980  -15.9360   20.6830 O   0  0  0  0  0  0  0  0  0  0  0  0
  -25.4700  -14.4000   20.5790 C   0  0  0  0  0  0  0  0  0  0  0  0
  -24.3760  -13.6260   20.8300 C   0  0  0  0  0  0  0  0  0  0  0  0
  -24.8430  -12.2750   20.8600 C   0  0  0  0  0  0  0  0  0  0  0  0
  -26.5330  -13.5270   20.4550 N   0  0  0  0  0  0  0  0  0  0  0  0
  -26.1610  -12.2410   20.6920 N   0  0  0  0  0  0  0  0  0  0  0  0
  -24.1010  -11.0150   20.9740 C   0  0  0  0  0  0  0  0  0  0  0  0
  -24.4770  -10.0120   21.8960 C   0  0  0  0  0  3  0  0  0  0  0  0
  -23.7290   -8.8200   22.0030 C   0  0  0  0  0  3  0  0  0  0  0  0
  -22.5910   -8.6190   21.1870 C   0  0  0  0  0  0  0  0  0  0  0  0
  -22.2340   -9.6080   20.2530 C   0  0  0  0  0  3  0  0  0  0  0  0
  -22.9840  -10.7920   20.1450 C   0  0  0  0  0  3  0  0  0  0  0  0
  -21.8230   -7.4800   21.2010 O   0  0  0  0  0  0  0  0  0  0  0  0
  -21.7780   -6.6580   22.2980 C   0  0  0  0  0  0  0  0  0  0  0  0
  -21.3920   -7.1310   23.5690 C   0  0  0  0  0  3  0  0  0  0  0  0
  -21.2940   -6.2380   24.6540 C   0  0  0  0  0  3  0  0  0  0  0  0
  -21.5710   -4.8700   24.4680 C   0  0  0  0  0  0  0  0  0  0  0  0
  -21.9540   -4.3950   23.2020 C   0  0  0  0  0  3  0  0  0  0  0  0
  -22.0530   -5.2860   22.1180 C   0  0  0  0  0  0  0  0  0  0  0  0
  -22.4010   -4.8190   20.8940 F   0  0  0  0  0  0  0  0  0  0  0  0
  -21.4690   -4.0100   25.5070 F   0  0  0  0  0  0  0  0  0  0  0  0
  -22.9590  -14.1050   20.9400 C   0  0  0  0  0  0  0  0  0  0  0  0
  -22.1420  -13.4320   21.7390 N   0  0  0  0  0  0  0  0  0  0  0  0
  -22.5820  -15.1210   20.3520 O   0  0  0  0  0  0  0  0  0  0  0  0
  -22.4540  -12.6090   22.2360 H   0  0  0  0  0  0  0  0  0  0  0  0
  -21.1890  -13.7490   21.8620 H   0  0  0  0  0  0  0  0  0  0  0  0
  -25.6560  -15.7710   20.4150 N   0  0  0  0  0  0  0  0  0  0  0  0
  -24.8840  -16.4290   20.4470 H   0  0  0  0  0  0  0  0  0  0  0  0
  -26.5350  -16.2050   20.1760 H   0  0  0  0  0  0  0  0  0  0  0  0
  -26.9070  -22.8600   21.3470 C   0  0  0  0  0  2  0  0  0  0  0  0
  -25.4760  -23.1980   20.8550 C   0  0  0  0  0  2  0  0  0  0  0  0
  -25.0010  -25.0450   22.6680 C   0  0  0  0  0  1  0  0  0  0  0  0
  -24.5490  -23.7340   21.9860 C   0  0  0  0  0  2  0  0  0  0  0  0
  -28.2230  -25.0610   20.5850 C   0  0  0  0  0  2  0  0  0  0  0  0
  -28.1800  -26.4900   19.7810 O   0  0  0  0  0  0  0  0  0  0  0  0
  -24.7210  -32.1200   23.3640 C   0  0  0  0  0  0  0  0  0  0  0  0
  -27.1650  -27.5650   19.8960 C   0  0  0  0  0  0  0  0  0  0  0  0
  -23.4660  -30.8390   21.6730 C   0  0  0  0  0  3  0  0  0  0  0  0
  -24.8570  -29.3940   20.0530 C   0  0  0  0  0  0  0  0  0  0  0  0
  -26.0140  -31.1240   21.4200 C   0  0  0  0  0  2  0  0  0  0  0  0
  -26.0660  -29.7760   20.6510 C   0  0  0  0  0  0  0  0  0  0  0  0
  -27.2220  -28.8840   20.5500 C   0  0  0  0  0  3  0  0  0  0  0  0
  -25.9380  -27.3310   19.2470 C   0  0  0  0  0  3  0  0  0  0  0  0
  -24.8150  -28.1920   19.3270 C   0  0  0  0  0  3  0  0  0  0  0  0
  -23.6300  -30.2860   20.2300 C   0  0  0  0  0  2  0  0  0  0  0  0
  -24.7580  -31.3820   22.2090 N   0  0  0  0  0  0  0  0  0  0  0  0
  -23.6590  -32.3520   23.9620 O   0  0  0  0  0  0  0  0  0  0  0  0
  -22.8420  -29.7500   22.5850 C   0  0  0  0  0  0  0  0  0  0  0  0
  -21.5250  -29.5110   22.4480 N   0  0  0  0  0  0  0  0  0  0  0  0
  -23.5480  -29.1250   23.3820 O   0  0  0  0  0  0  0  0  0  0  0  0
  -21.0080  -30.0850   21.7970 H   0  0  0  0  0  0  0  0  0  0  0  0
  -18.2310  -28.0440   22.8130 C   0  0  0  0  0  0  0  0  0  0  0  0
  -20.7580  -28.4840   23.1600 C   0  0  0  0  0  3  0  0  0  0  0  0
  -20.9750  -27.0870   22.5320 C   0  0  0  0  0  2  0  0  0  0  0  0
  -19.9260  -26.7290   21.4760 C   0  0  0  0  0  2  0  0  0  0  0  0
  -18.5240  -26.7370   22.0910 C   0  0  0  0  0  2  0  0  0  0  0  0
  -19.2810  -28.8670   23.2970 C   0  0  0  0  0  0  0  0  0  0  0  0
  -18.9570  -30.0830   23.9350 C   0  0  0  0  0  3  0  0  0  0  0  0
  -17.6150  -30.4750   24.1010 C   0  0  0  0  0  3  0  0  0  0  0  0
  -16.5790  -29.6430   23.6440 C   0  0  0  0  0  3  0  0  0  0  0  0
  -16.8870  -28.4320   22.9970 C   0  0  0  0  0  3  0  0  0  0  0  0
  -26.0170  -32.7210   23.9860 C   0  0  0  0  0  3  0  0  0  0  0  0
  -25.6980  -34.0800   24.4630 N   0  0  0  0  0  0  0  0  0  0  0  0
  -25.9940  -35.2140   23.8140 C   0  0  0  0  0  0  0  0  0  0  0  0
  -26.6220  -35.2240   22.7510 O   0  0  0  0  0  0  0  0  0  0  0  0
  -25.1270  -34.1430   25.2950 H   0  0  0  0  0  0  0  0  0  0  0  0
  -24.2330  -37.0120   23.7170 C   0  0  0  0  0  1  0  0  0  0  0  0
  -25.5110  -36.5440   24.4320 C   0  0  0  0  0  3  0  0  0  0  0  0
  -27.6690  -37.3770   25.2450 C   0  0  0  0  0  1  0  0  0  0  0  0
  -26.5200  -37.6170   24.3770 N   0  0  0  0  0  0  0  0  0  0  0  0
  -26.1130  -38.5180   24.6240 H   0  0  0  0  0  0  0  0  0  0  0  0
  -26.5960  -31.8530   25.1700 C   0  0  1  0  0  0  0  0  0  0  0  0
  -25.5510  -31.5160   26.2580 C   0  0  0  0  0  1  0  0  0  0  0  0
  -27.1900  -30.5270   24.6500 C   0  0  0  0  0  1  0  0  0  0  0  0
  -27.7670  -32.6090   25.8360 C   0  0  0  0  0  1  0  0  0  0  0  0
  1 51  1  0
  1  2  1  0
  1 47  1  0
  2  9  2  0
  3  5  1  0
  3  4  1  0
  4  8  1  0
  5  7  1  0
  5  6  1  0
  6 10  1  0
  8  6  1  0
  8  2  1  0
 11 17  1  0
 11 10  1  0
 12 17  1  0
 13 14  1  0
 13 12  1  0
 15 14  1  0
 15 22  1  0
 15 16  1  0
 17 16  1  0
 18 11  2  0
 19 20  2  0
 20 21  1  0
 20 39  1  0
 21 24  1  0
 22 19  1  0
 22 23  1  0
 23 21  2  0
 24 25  1  0
 25 26  2  0
 27 30  1  0
 27 26  1  0
 28 27  2  0
 29 28  1  0
 29 24  2  0
 30 31  1  0
 31 32  1  0
 32 33  2  0
 34 33  1  0
 34 38  1  0
 35 34  2  0
 36 31  2  0
 36 35  1  0
 37 36  1  0
 39 40  1  0
 40 43  1  0
 40 42  1  0
 41 39  2  0
 44 45  1  0
 44 19  1  0
 46 44  1  0
 48 47  1  0
 48 50  1  0
 50 49  1  0
 52 54  1  0
 52 51  1  0
 53 64  2  0
 54 59  1  0
 55 63  1  0
 55 65  1  0
 56 62  1  0
 56 58  1  0
 57 63  1  0
 58 57  1  0
 59 58  2  0
 60 61  1  0
 60 54  2  0
 61 56  2  0
 62 55  1  0
 63 53  1  0
 65 67  2  0
 66 65  1  0
 68 66  1  0
 69 78  2  0
 69 74  1  0
 70 66  1  0
 70 74  1  0
 71 70  1  0
 72 73  1  0
 72 71  1  0
 73 69  1  0
 74 75  2  0
 75 76  1  0
 77 76  2  0
 78 77  1  0
 79 53  1  0
 79 80  1  0
 79 89  1  0
 80 83  1  0
 81 85  1  0
 81 80  1  0
 82 81  2  0
 85 84  1  0
 87 85  1  0
 87 88  1  0
 87 86  1  0
 89 92  1  1
 89 90  1  0
 91 89  1  0
M  ISO  4  10 100  11 100  51 101  52 101
M  END
>  <TORSDO>  (24) 
F 22

>  <SCORE>  (24) 
-14.207

>  <name>  (24) 
23

>  <ligand_id>  (24) 
23

>  <original_smiles>  (24) 
[H]c1c([H])c([H])c2c(c1[H])C([H])([H])C([H])([H])C([H])([H])C2([H])N([H])C(=O)C1([H])N(C(=O)C([H])(N([H])C(=O)C([H])(N([H])C([H])([H])[H])C([H])([H])[H])C(C([H])([H])[H])(C([H])([H])[H])C([H])([H])[H])C([H])([H])c2c([H])c(OC([H])([H])C([H])(C(=O)N3C([H])([H])C([H])([H])C([H])(C([H])([H])[H])C3([H])C([H])([H])C(=O)N3C([H])([H])C([H])([H])C([H])([H])C([H])(n4nc(-c5c([H])c([H])c(Oc6c([H])c([H])c(F)c([H])c6F)c([H])c5[H])c(C(=O)N([H])[H])c4N([H])[H])C3([H])[H])C([H])([H])C([H])([H])C([H])([H])C([H])([H])[H])c([H])c([H])c2C1([H])[H]

>  <smiles>  (24) 
[H]c1c([H])c([H])c2c(c1[H])C([H])([H])C([H])([H])C([H])([H])C2([H])N([H])C(=O)C1([H])N(C(=O)C([H])(N([H])C(=O)C([H])(N([H])C([H])([H])[H])C([H])([H])[H])C(C([H])([H])[H])(C([H])([H])[H])C([H])([H])[H])C([H])([H])c2c([H])c(OC([H])([H])C([H])(C(=O)N3C([H])([H])C([H])([H])C([H])(C([H])([H])[H])C3([H])C([H])([H])C(=O)N3C([H])([H])C([H])([H])C([H])([H])C([H])(n4nc(-c5c([H])c([H])c(Oc6c([H])c([H])c(F)c([H])c6F)c([H])c5[H])c(C(=O)N([H])[H])c4N([H])[H])C3([H])[H])C([H])([H])C([H])([H])C([H])([H])C([H])([H])[H])c([H])c([H])c2C1([H])[H]

$$$$
24:0:0
     RDKit          3D

 92100  0  0  1  0  0  0  0  0999 V2000
  -30.4290  -22.0340   20.6350 C   0  0  0  0  0  2  0  0  0  0  0  0
  -29.9550  -23.4250   21.1460 C   0  0  0  0  0  2  0  0  0  0  0  0
  -28.1280  -21.6160   19.7750 C   0  0  0  0  0  2  0  0  0  0  0  0
  -29.2890  -20.9780   20.5920 C   0  0  0  0  0  3  0  0  0  0  0  0
  -28.7440  -24.0070   20.3600 C   0  0  0  0  0  3  0  0  0  0  0  0
  -27.6880  -22.9470   20.3000 N   0  0  0  0  0  4  0  0  0  0  0  0
  -27.2980  -22.8050   21.2190 H   0  0  0  0  0  0  0  0  0  0  0  0
  -26.9320  -23.2680   19.7130 H   0  0  0  0  0  0  0  0  0  0  0  0
  -29.7770  -19.6230   19.9730 C   0  0  0  0  0  0  0  0  0  0  0  0
  -29.7290  -18.4650   20.6810 N   0  0  0  0  0  0  0  0  0  0  0  0
  -30.2320  -19.6340   18.8260 O   0  0  0  0  0  0  0  0  0  0  0  0
  -29.3520  -18.4990   21.6200 H   0  0  0  0  0  0  0  0  0  0  0  0
  -30.3000  -17.1680   20.2070 C   0  0  0  0  0  2  0  0  0  0  0  0
  -29.9120  -15.8630   20.9990 C   0  0  0  0  0  2  0  0  0  0  0  0
  -30.6180  -14.5640   20.4720 C   0  0  0  0  0  0  0  0  0  0  0  0
  -30.3400  -12.3700   19.3580 C   0  0  0  0  0  2  0  0  0  0  0  0
  -29.4100  -12.5590   18.1410 C   0  0  0  0  0  2  0  0  0  0  0  0
  -27.9320  -12.4220   18.5590 C   0  0  0  0  0  2  0  0  0  0  0  0
  -27.5850  -13.2690   19.8110 C   0  0  0  0  0  3  0  0  0  0  0  0
  -28.6340  -13.0750   20.9290 C   0  0  0  0  0  2  0  0  0  0  0  0
  -29.9570  -13.3730   20.3680 N   0  0  0  0  0  0  0  0  0  0  0  0
  -31.7670  -14.6850   20.0360 O   0  0  0  0  0  0  0  0  0  0  0  0
  -25.1850  -13.8850   20.5000 C   0  0  0  0  0  0  0  0  0  0  0  0
  -24.1120  -13.1190   20.8660 C   0  0  0  0  0  0  0  0  0  0  0  0
  -24.5700  -11.7660   20.8530 C   0  0  0  0  0  0  0  0  0  0  0  0
  -26.2300  -12.9990   20.2850 N   0  0  0  0  0  0  0  0  0  0  0  0
  -25.8630  -11.7200   20.5560 N   0  0  0  0  0  0  0  0  0  0  0  0
  -23.8390  -10.5070   21.0470 C   0  0  0  0  0  0  0  0  0  0  0  0
  -24.2720   -9.5370   21.9770 C   0  0  0  0  0  3  0  0  0  0  0  0
  -23.5410   -8.3430   22.1610 C   0  0  0  0  0  3  0  0  0  0  0  0
  -22.3620   -8.1110   21.4130 C   0  0  0  0  0  0  0  0  0  0  0  0
  -21.9470   -9.0700   20.4720 C   0  0  0  0  0  3  0  0  0  0  0  0
  -22.6790  -10.2550   20.2870 C   0  0  0  0  0  3  0  0  0  0  0  0
  -21.6020   -6.9700   21.5050 O   0  0  0  0  0  0  0  0  0  0  0  0
  -21.5720   -6.2160   22.6510 C   0  0  0  0  0  0  0  0  0  0  0  0
  -21.1910   -6.7650   23.8940 C   0  0  0  0  0  3  0  0  0  0  0  0
  -21.1070   -5.9380   25.0320 C   0  0  0  0  0  3  0  0  0  0  0  0
  -21.3940   -4.5640   24.9290 C   0  0  0  0  0  0  0  0  0  0  0  0
  -21.7700   -4.0150   23.6900 C   0  0  0  0  0  3  0  0  0  0  0  0
  -21.8550   -4.8380   22.5530 C   0  0  0  0  0  0  0  0  0  0  0  0
  -22.1970   -4.3000   21.3580 F   0  0  0  0  0  0  0  0  0  0  0  0
  -21.3070   -3.7680   26.0190 F   0  0  0  0  0  0  0  0  0  0  0  0
  -22.7140  -13.6020   21.1220 C   0  0  0  0  0  0  0  0  0  0  0  0
  -21.9760  -12.9160   21.9870 N   0  0  0  0  0  0  0  0  0  0  0  0
  -22.2830  -14.6240   20.5880 O   0  0  0  0  0  0  0  0  0  0  0  0
  -22.3370  -12.0900   22.4410 H   0  0  0  0  0  0  0  0  0  0  0  0
  -21.0380  -13.2220   22.2020 H   0  0  0  0  0  0  0  0  0  0  0  0
  -25.3560  -15.2530   20.3110 N   0  0  0  0  0  0  0  0  0  0  0  0
  -24.5910  -15.9130   20.4100 H   0  0  0  0  0  0  0  0  0  0  0  0
  -26.2140  -15.6870   19.9930 H   0  0  0  0  0  0  0  0  0  0  0  0
  -28.1980  -25.3570   20.9800 C   0  0  0  0  0  2  0  0  0  0  0  0
  -28.3620  -26.5910   20.2180 O   0  0  0  0  0  0  0  0  0  0  0  0
  -24.5980  -31.8920   23.2400 C   0  0  0  0  0  0  0  0  0  0  0  0
  -27.2370  -27.4030   20.1880 C   0  0  0  0  0  0  0  0  0  0  0  0
  -23.3980  -30.4860   21.6000 C   0  0  0  0  0  3  0  0  0  0  0  0
  -24.8560  -28.9440   20.1770 C   0  0  0  0  0  0  0  0  0  0  0  0
  -25.9280  -30.8350   21.4090 C   0  0  0  0  0  2  0  0  0  0  0  0
  -26.0170  -29.4600   20.7690 C   0  0  0  0  0  0  0  0  0  0  0  0
  -27.2150  -28.6990   20.7660 C   0  0  0  0  0  3  0  0  0  0  0  0
  -26.0630  -26.9200   19.5740 C   0  0  0  0  0  3  0  0  0  0  0  0
  -24.8760  -27.6770   19.5730 C   0  0  0  0  0  3  0  0  0  0  0  0
  -23.6110  -29.8050   20.2220 C   0  0  0  0  0  2  0  0  0  0  0  0
  -24.6600  -31.0860   22.1410 N   0  0  0  0  0  0  0  0  0  0  0  0
  -23.5150  -32.1640   23.7770 O   0  0  0  0  0  0  0  0  0  0  0  0
  -22.7420  -29.4670   22.5620 C   0  0  0  0  0  0  0  0  0  0  0  0
  -21.4200  -29.2750   22.4220 N   0  0  0  0  0  0  0  0  0  0  0  0
  -23.4210  -28.8520   23.3870 O   0  0  0  0  0  0  0  0  0  0  0  0
  -20.9320  -29.8230   21.7280 H   0  0  0  0  0  0  0  0  0  0  0  0
  -18.0560  -28.0310   22.8730 C   0  0  0  0  0  0  0  0  0  0  0  0
  -20.6020  -28.3360   23.1920 C   0  0  0  0  0  3  0  0  0  0  0  0
  -20.7400  -26.8980   22.6420 C   0  0  0  0  0  2  0  0  0  0  0  0
  -19.6650  -26.5410   21.6100 C   0  0  0  0  0  2  0  0  0  0  0  0
  -18.2670  -26.6740   22.2230 C   0  0  0  0  0  2  0  0  0  0  0  0
  -19.1520  -28.8170   23.3130 C   0  0  0  0  0  0  0  0  0  0  0  0
  -18.9000  -30.0870   23.8790 C   0  0  0  0  0  3  0  0  0  0  0  0
  -17.5860  -30.5700   24.0090 C   0  0  0  0  0  3  0  0  0  0  0  0
  -16.5030  -29.7800   23.5860 C   0  0  0  0  0  3  0  0  0  0  0  0
  -16.7380  -28.5120   23.0230 C   0  0  0  0  0  3  0  0  0  0  0  0
  -25.8820  -32.5260   23.8610 C   0  0  0  0  0  3  0  0  0  0  0  0
  -26.4010  -31.7550   25.1370 C   0  0  1  0  0  0  0  0  0  0  0  0
  -25.3090  -31.5170   26.2060 C   0  0  0  0  0  1  0  0  0  0  0  0
  -26.9840  -30.3780   24.7450 C   0  0  0  0  0  1  0  0  0  0  0  0
  -27.5520  -32.5500   25.7970 C   0  0  0  0  0  1  0  0  0  0  0  0
  -25.5710  -33.9230   24.1900 N   0  0  0  0  0  0  0  0  0  0  0  0
  -25.9050  -34.9760   23.4310 C   0  0  0  0  0  0  0  0  0  0  0  0
  -26.5780  -34.8710   22.4010 O   0  0  0  0  0  0  0  0  0  0  0  0
  -24.9740  -34.0780   24.9890 H   0  0  0  0  0  0  0  0  0  0  0  0
  -24.1760  -36.7660   23.0690 C   0  0  0  0  0  1  0  0  0  0  0  0
  -25.4150  -36.3630   23.8860 C   0  0  0  0  0  3  0  0  0  0  0  0
  -27.5470  -37.2490   24.7210 C   0  0  0  0  0  1  0  0  0  0  0  0
  -26.4460  -37.4170   23.7760 N   0  0  0  0  0  0  0  0  0  0  0  0
  -26.0400  -38.3370   23.9240 H   0  0  0  0  0  0  0  0  0  0  0  0
  1  2  1  0
  3  6  1  0
  3  4  1  0
  4  9  1  0
  4  1  1  0
  5 51  1  0
  5  2  1  0
  6  5  1  0
  6  7  1  0
  8  6  1  0
  9 10  1  0
 10 12  1  0
 11  9  2  0
 13 10  1  0
 13 14  1  0
 15 14  1  0
 16 21  1  0
 17 18  1  0
 17 16  1  0
 19 18  1  0
 19 26  1  0
 19 20  1  0
 21 15  1  0
 21 20  1  0
 22 15  2  0
 23 24  2  0
 24 43  1  0
 25 24  1  0
 25 28  1  0
 26 23  1  0
 26 27  1  0
 27 25  2  0
 28 29  1  0
 29 30  2  0
 31 34  1  0
 31 30  1  0
 32 31  2  0
 33 32  1  0
 33 28  2  0
 34 35  1  0
 35 36  1  0
 36 37  2  0
 38 37  1  0
 38 42  1  0
 39 38  2  0
 40 35  2  0
 40 39  1  0
 41 40  1  0
 43 44  1  0
 44 47  1  0
 44 46  1  0
 45 43  2  0
 48 49  1  0
 48 23  1  0
 50 48  1  0
 52 51  1  0
 53 64  2  0
 54 52  1  0
 54 59  1  0
 55 63  1  0
 55 65  1  0
 56 62  1  0
 56 58  1  0
 57 63  1  0
 58 57  1  0
 59 58  2  0
 60 54  2  0
 61 60  1  0
 61 56  2  0
 62 55  1  0
 63 53  1  0
 65 67  2  0
 66 65  1  0
 68 66  1  0
 69 78  2  0
 69 74  1  0
 70 66  1  0
 70 74  1  0
 71 70  1  0
 72 73  1  0
 72 71  1  0
 73 69  1  0
 74 75  2  0
 75 76  1  0
 77 76  2  0
 78 77  1  0
 79 53  1  0
 79 84  1  0
 79 80  1  0
 80 83  1  1
 80 81  1  0
 82 80  1  0
 84 87  1  0
 85 89  1  0
 85 84  1  0
 86 85  2  0
 89 88  1  0
 91 89  1  0
 91 92  1  0
 91 90  1  0
M  ISO  4  14 100  15 100  51 101  52 101
M  END
>  <TORSDO>  (25) 
F 20

>  <SCORE>  (25) 
-13.962

>  <name>  (25) 
24

>  <ligand_id>  (25) 
24

>  <original_smiles>  (25) 
[H]c1c([H])c([H])c2c(c1[H])C([H])([H])C([H])([H])C([H])([H])C2([H])N([H])C(=O)C1([H])N(C(=O)C([H])(N([H])C(=O)C([H])(N([H])C([H])([H])[H])C([H])([H])[H])C(C([H])([H])[H])(C([H])([H])[H])C([H])([H])[H])C([H])([H])c2c([H])c(OC([H])([H])C3([H])C([H])([H])C([H])([H])C([H])(C(=O)N([H])C([H])([H])C([H])([H])C(=O)N4C([H])([H])C([H])([H])C([H])([H])C([H])(n5nc(-c6c([H])c([H])c(Oc7c([H])c([H])c(F)c([H])c7F)c([H])c6[H])c(C(=O)N([H])[H])c5N([H])[H])C4([H])[H])C([H])([H])[N+]3([H])[H])c([H])c([H])c2C1([H])[H]

>  <smiles>  (25) 
[H]c1c([H])c([H])c2c(c1[H])C([H])([H])C([H])([H])C([H])([H])C2([H])N([H])C(=O)C1([H])N(C(=O)C([H])(N([H])C(=O)C([H])(N([H])C([H])([H])[H])C([H])([H])[H])C(C([H])([H])[H])(C([H])([H])[H])C([H])([H])[H])C([H])([H])c2c([H])c(OC([H])([H])C3([H])C([H])([H])C([H])([H])C([H])(C(=O)N([H])C([H])([H])C([H])([H])C(=O)N4C([H])([H])C([H])([H])C([H])([H])C([H])(n5nc(-c6c([H])c([H])c(Oc7c([H])c([H])c(F)c([H])c7F)c([H])c6[H])c(C(=O)N([H])[H])c5N([H])[H])C4([H])[H])C([H])([H])[N+]3([H])[H])c([H])c([H])c2C1([H])[H]

$$$$
25:0:0
     RDKit          3D

 88 94  0  0  1  0  0  0  0  0999 V2000
  -31.6290  -20.0320   20.3260 C   0  0  0  0  0  2  0  0  0  0  0  0
  -28.2660  -20.3650   19.2330 C   0  0  0  0  0  3  0  0  0  0  0  0
  -28.6180  -18.7010   19.1720 C   0  0  0  0  0  3  0  0  0  0  0  0
  -31.1960  -19.3470   21.6210 C   0  0  0  0  0  2  0  0  0  0  0  0
  -30.4110  -19.9350   19.4390 C   0  0  0  0  0  3  0  0  0  0  0  0
  -29.3290  -21.5020   19.7220 C   0  0  0  0  0  2  0  0  0  0  0  0
  -30.0130  -18.0850   19.7310 C   0  0  0  0  0  3  0  0  0  0  0  0
  -30.1620  -18.2110   21.3270 C   0  0  1  0  0  0  0  0  0  0  0  0
  -30.6640  -16.9510   22.0790 C   0  0  0  0  0  1  0  0  0  0  0  0
  -28.8270  -18.5520   22.0400 C   0  0  0  0  0  1  0  0  0  0  0  0
  -30.6700  -16.2140   19.3070 C   0  0  0  0  0  2  0  0  0  0  0  0
  -30.8070  -13.5500   18.5660 C   0  0  0  0  0  2  0  0  0  0  0  0
  -29.8260  -12.9890   17.4820 C   0  0  0  0  0  2  0  0  0  0  0  0
  -28.4940  -12.5570   18.1060 C   0  0  0  0  0  2  0  0  0  0  0  0
  -28.0490  -13.5870   19.1630 C   0  0  0  0  0  3  0  0  0  0  0  0
  -29.1690  -14.0520   20.1340 C   0  0  0  0  0  2  0  0  0  0  0  0
  -30.2210  -14.7700   19.3490 N   0  0  0  0  0  0  0  0  0  0  0  0
  -31.8490  -16.0740   18.8970 O   0  0  0  0  0  1  0  0  0  0  0  0
  -25.8450  -14.0890   20.2960 C   0  0  0  0  0  0  0  0  0  0  0  0
  -24.8220  -13.3090   20.7490 C   0  0  0  0  0  0  0  0  0  0  0  0
  -25.2350  -11.9540   20.5510 C   0  0  0  0  0  0  0  0  0  0  0  0
  -26.8140  -13.2190   19.8410 N   0  0  0  0  0  0  0  0  0  0  0  0
  -26.4720  -11.9190   20.0550 N   0  0  0  0  0  0  0  0  0  0  0  0
  -24.4920  -10.7000   20.7500 C   0  0  0  0  0  0  0  0  0  0  0  0
  -24.9200   -9.7230   21.6760 C   0  0  0  0  0  3  0  0  0  0  0  0
  -24.1720   -8.5410   21.8700 C   0  0  0  0  0  3  0  0  0  0  0  0
  -22.9800   -8.3270   21.1350 C   0  0  0  0  0  0  0  0  0  0  0  0
  -22.5710   -9.2910   20.1980 C   0  0  0  0  0  3  0  0  0  0  0  0
  -23.3200  -10.4640   20.0050 C   0  0  0  0  0  3  0  0  0  0  0  0
  -22.2040   -7.1980   21.2360 O   0  0  0  0  0  0  0  0  0  0  0  0
  -21.9540   -6.6020   22.4470 C   0  0  0  0  0  0  0  0  0  0  0  0
  -21.3040   -7.2900   23.4950 C   0  0  0  0  0  3  0  0  0  0  0  0
  -21.0030   -6.6190   24.6970 C   0  0  0  0  0  3  0  0  0  0  0  0
  -21.3390   -5.2610   24.8500 C   0  0  0  0  0  0  0  0  0  0  0  0
  -21.9790   -4.5720   23.8050 C   0  0  0  0  0  3  0  0  0  0  0  0
  -22.2820   -5.2400   22.6050 C   0  0  0  0  0  0  0  0  0  0  0  0
  -22.8790   -4.5640   21.5930 F   0  0  0  0  0  0  0  0  0  0  0  0
  -21.0430   -4.6150   26.0030 F   0  0  0  0  0  0  0  0  0  0  0  0
  -23.4920  -13.7980   21.2420 C   0  0  0  0  0  0  0  0  0  0  0  0
  -22.8780  -13.0770   22.1710 N   0  0  0  0  0  0  0  0  0  0  0  0
  -23.0140  -14.8580   20.8370 O   0  0  0  0  0  0  0  0  0  0  0  0
  -23.2840  -12.2210   22.5200 H   0  0  0  0  0  0  0  0  0  0  0  0
  -21.9910  -13.3850   22.5410 H   0  0  0  0  0  0  0  0  0  0  0  0
  -26.0250  -15.4670   20.1960 N   0  0  0  0  0  0  0  0  0  0  0  0
  -25.3090  -16.1280   20.4740 H   0  0  0  0  0  0  0  0  0  0  0  0
  -26.8300  -15.9110   19.7760 H   0  0  0  0  0  0  0  0  0  0  0  0
  -28.9370  -23.5460   19.3490 C   0  0  0  0  0 15  0  0  0  0  0  0
  -28.7800  -25.3610   19.8600 O   0  0  0  0  0  1  0  0  0  0  0  0
  -24.8110  -31.5870   22.9360 C   0  0  0  0  0  0  0  0  0  0  0  0
  -27.7760  -26.6420   19.7950 C   0  0  0  0  0  0  0  0  0  0  0  0
  -23.8000  -30.2270   21.1580 C   0  0  0  0  0  3  0  0  0  0  0  0
  -25.4150  -28.7040   19.7400 C   0  0  0  0  0  0  0  0  0  0  0  0
  -26.3810  -30.4430   21.2120 C   0  0  0  0  0  2  0  0  0  0  0  0
  -26.5580  -29.0340   20.4740 C   0  0  0  0  0  0  0  0  0  0  0  0
  -27.7070  -28.0380   20.4680 C   0  0  0  0  0  3  0  0  0  0  0  0
  -26.5860  -26.5900   19.0060 C   0  0  0  0  0  3  0  0  0  0  0  0
  -25.4820  -27.5160   18.9860 C   0  0  0  0  0  3  0  0  0  0  0  0
  -24.1620  -29.6130   19.7710 C   0  0  0  0  0  2  0  0  0  0  0  0
  -25.0200  -30.7890   21.8240 N   0  0  0  0  0  0  0  0  0  0  0  0
  -23.6730  -31.8070   23.3900 O   0  0  0  0  0  0  0  0  0  0  0  0
  -23.0670  -29.1750   22.0340 C   0  0  0  0  0  0  0  0  0  0  0  0
  -21.7350  -29.0290   21.8860 N   0  0  0  0  0  0  0  0  0  0  0  0
  -23.7140  -28.4850   22.8270 O   0  0  0  0  0  0  0  0  0  0  0  0
  -21.2570  -29.6380   21.2370 H   0  0  0  0  0  0  0  0  0  0  0  0
  -18.3380  -27.8110   22.3610 C   0  0  0  0  0  0  0  0  0  0  0  0
  -20.9120  -28.0150   22.5610 C   0  0  0  0  0  3  0  0  0  0  0  0
  -20.9660  -26.6640   21.8080 C   0  0  0  0  0  2  0  0  0  0  0  0
  -19.8280  -26.4900   20.7990 C   0  0  0  0  0  2  0  0  0  0  0  0
  -18.4710  -26.5630   21.5040 C   0  0  0  0  0  2  0  0  0  0  0  0
  -19.4820  -28.5010   22.8430 C   0  0  0  0  0  0  0  0  0  0  0  0
  -19.2990  -29.6680   23.6160 C   0  0  0  0  0  3  0  0  0  0  0  0
  -18.0070  -30.1480   23.9030 C   0  0  0  0  0  3  0  0  0  0  0  0
  -16.8790  -29.4550   23.4320 C   0  0  0  0  0  3  0  0  0  0  0  0
  -17.0460  -28.2870   22.6670 C   0  0  0  0  0  3  0  0  0  0  0  0
  -25.9890  -32.2740   23.6930 C   0  0  0  0  0  3  0  0  0  0  0  0
  -25.5770  -33.6470   24.0580 N   0  0  0  0  0  0  0  0  0  0  0  0
  -25.8470  -34.7540   23.3510 C   0  0  0  0  0  0  0  0  0  0  0  0
  -26.5200  -34.7290   22.3190 O   0  0  0  0  0  0  0  0  0  0  0  0
  -24.9720  -33.7340   24.8620 H   0  0  0  0  0  0  0  0  0  0  0  0
  -23.9890  -36.4450   23.1190 C   0  0  0  0  0  1  0  0  0  0  0  0
  -25.2880  -36.1000   23.8660 C   0  0  0  0  0  3  0  0  0  0  0  0
  -27.3740  -37.1340   24.6540 C   0  0  0  0  0  1  0  0  0  0  0  0
  -26.2400  -37.2260   23.7380 N   0  0  0  0  0  0  0  0  0  0  0  0
  -25.7720  -38.1130   23.9050 H   0  0  0  0  0  0  0  0  0  0  0  0
  -26.4220  -31.4930   24.9980 C   0  0  1  0  0  0  0  0  0  0  0  0
  -25.2500  -31.1880   25.9620 C   0  0  0  0  0  1  0  0  0  0  0  0
  -27.0930  -30.1470   24.6460 C   0  0  0  0  0  1  0  0  0  0  0  0
  -27.4770  -32.3150   25.7760 C   0  0  0  0  0  1  0  0  0  0  0  0
  1  4  1  0
  2  6  1  0
  3  2  2  0
  5  6  1  0
  5  7  1  0
  5  1  1  0
  7  3  1  0
  7  8  1  0
  8  4  1  0
  8 10  1  1
  8  9  1  0
 11 17  1  0
 12 17  1  0
 13 14  1  0
 13 12  1  0
 15 14  1  0
 15 22  1  0
 15 16  1  0
 17 16  1  0
 18 11  1  0
 19 20  2  0
 20 39  1  0
 21 20  1  0
 21 24  1  0
 22 23  1  0
 22 19  1  0
 23 21  2  0
 24 25  1  0
 25 26  2  0
 27 30  1  0
 27 26  1  0
 28 27  2  0
 29 28  1  0
 29 24  2  0
 30 31  1  0
 31 36  2  0
 31 32  1  0
 32 33  2  0
 33 34  1  0
 34 38  1  0
 35 34  2  0
 36 35  1  0
 37 36  1  0
 39 40  1  0
 40 42  1  0
 40 43  1  0
 41 39  2  0
 44 19  1  0
 44 45  1  0
 46 44  1  0
 49 60  2  0
 50 48  1  0
 50 55  1  0
 51 59  1  0
 51 61  1  0
 52 58  1  0
 52 54  1  0
 53 59  1  0
 54 53  1  0
 55 54  2  0
 56 50  2  0
 57 56  1  0
 57 52  2  0
 58 51  1  0
 59 49  1  0
 61 63  2  0
 62 61  1  0
 64 62  1  0
 65 74  2  0
 65 70  1  0
 66 62  1  0
 66 70  1  0
 67 66  1  0
 68 69  1  0
 68 67  1  0
 69 65  1  0
 70 71  2  0
 71 72  1  0
 73 72  2  0
 74 73  1  0
 75 49  1  0
 75 76  1  0
 75 85  1  0
 76 79  1  0
 77 81  1  0
 77 76  1  0
 78 77  2  0
 81 80  1  0
 83 81  1  0
 83 84  1  0
 83 82  1  0
 85 88  1  1
 85 86  1  0
 87 85  1  0
M  ISO  4   7 100  11 100  47 101  48 101
M  END
>  <TORSDO>  (26) 
F 17

>  <SCORE>  (26) 
-12.238

>  <name>  (26) 
25

>  <ligand_id>  (26) 
25

>  <original_smiles>  (26) 
[H]c1c([H])c([H])c2c(c1[H])C([H])([H])C([H])([H])C([H])([H])C2([H])N([H])C(=O)C1([H])N(C(=O)C([H])(N([H])C(=O)C([H])(N([H])C([H])([H])[H])C([H])([H])[H])C(C([H])([H])[H])(C([H])([H])[H])C([H])([H])[H])C([H])([H])c2c([H])c(OC([H])([H])C3([H])C([H])([H])C([H])([H])C4(C(=O)N5C([H])([H])C([H])([H])C([H])([H])C([H])(n6nc(-c7c([H])c([H])c(Oc8c([H])c([H])c(F)c([H])c8F)c([H])c7[H])c(C(=O)N([H])[H])c6N([H])[H])C5([H])[H])C3([H])C([H])([H])C([H])([H])C4(C([H])([H])[H])C([H])([H])[H])c([H])c([H])c2C1([H])[H]

>  <smiles>  (26) 
[H]c1c([H])c([H])c2c(c1[H])C([H])([H])C([H])([H])C([H])([H])C2([H])N([H])C(=O)C1([H])N(C(=O)C([H])(N([H])C(=O)C([H])(N([H])C([H])([H])[H])C([H])([H])[H])C(C([H])([H])[H])(C([H])([H])[H])C([H])([H])[H])C([H])([H])c2c([H])c(OC([H])([H])C3([H])C([H])([H])C([H])([H])C4(C(=O)N5C([H])([H])C([H])([H])C([H])([H])C([H])(n6nc(-c7c([H])c([H])c(Oc8c([H])c([H])c(F)c([H])c8F)c([H])c7[H])c(C(=O)N([H])[H])c6N([H])[H])C5([H])[H])C3([H])C([H])([H])C([H])([H])C4(C([H])([H])[H])C([H])([H])[H])c([H])c([H])c2C1([H])[H]

$$$$
26:0:0
     RDKit          3D

 96104  0  0  1  0  0  0  0  0999 V2000
  -31.4450  -20.4210   21.0820 C   0  0  0  0  0  2  0  0  0  0  0  0
  -30.3990  -21.3230   20.3710 C   0  0  0  0  0  2  0  0  0  0  0  0
  -30.9770  -22.6850   19.9130 C   0  0  0  0  0  2  0  0  0  0  0  0
  -30.0460  -24.8770   19.5050 C   0  0  0  0  0  0  0  0  0  0  0  0
  -31.3300  -25.6500   19.8040 C   0  0  0  0  0  1  0  0  0  0  0  0
  -29.9010  -23.5970   19.5400 N   0  0  0  0  0  0  0  0  0  0  0  0
  -28.8560  -25.7510   19.0850 C   0  0  0  0  0  2  0  0  0  0  0  0
  -28.7630  -27.0230   19.7500 O   0  0  0  0  0  0  0  0  0  0  0  0
  -24.5880  -31.7320   23.1270 C   0  0  0  0  0  0  0  0  0  0  0  0
  -27.5320  -27.6610   19.7730 C   0  0  0  0  0  0  0  0  0  0  0  0
  -23.4810  -30.3830   21.3720 C   0  0  0  0  0  3  0  0  0  0  0  0
  -25.0390  -29.0230   19.8760 C   0  0  0  0  0  0  0  0  0  0  0  0
  -25.9910  -30.8810   21.2520 C   0  0  0  0  0  2  0  0  0  0  0  0
  -26.1590  -29.5660   20.5130 C   0  0  0  0  0  0  0  0  0  0  0  0
  -27.4040  -28.8930   20.4600 C   0  0  0  0  0  3  0  0  0  0  0  0
  -26.3830  -27.1360   19.1330 C   0  0  0  0  0  3  0  0  0  0  0  0
  -25.1440  -27.8030   19.1860 C   0  0  0  0  0  3  0  0  0  0  0  0
  -23.7520  -29.8130   19.9540 C   0  0  0  0  0  2  0  0  0  0  0  0
  -24.7010  -31.0120   21.9760 N   0  0  0  0  0  0  0  0  0  0  0  0
  -23.4860  -31.9110   23.6650 O   0  0  0  0  0  0  0  0  0  0  0  0
  -22.8710  -29.2640   22.2490 C   0  0  0  0  0  0  0  0  0  0  0  0
  -21.5530  -29.0490   22.1180 N   0  0  0  0  0  0  0  0  0  0  0  0
  -23.5840  -28.5950   23.0030 O   0  0  0  0  0  0  0  0  0  0  0  0
  -21.0360  -29.6530   21.4940 H   0  0  0  0  0  0  0  0  0  0  0  0
  -18.2190  -27.7270   22.5830 C   0  0  0  0  0  0  0  0  0  0  0  0
  -20.7770  -28.0230   22.8170 C   0  0  0  0  0  3  0  0  0  0  0  0
  -20.8960  -26.6540   22.1110 C   0  0  0  0  0  2  0  0  0  0  0  0
  -19.7800  -26.3990   21.0920 C   0  0  0  0  0  2  0  0  0  0  0  0
  -18.4110  -26.4510   21.7770 C   0  0  0  0  0  2  0  0  0  0  0  0
  -19.3320  -28.4740   23.0550 C   0  0  0  0  0  0  0  0  0  0  0  0
  -19.1020  -29.6700   23.7680 C   0  0  0  0  0  3  0  0  0  0  0  0
  -17.7930  -30.1260   24.0070 C   0  0  0  0  0  3  0  0  0  0  0  0
  -16.6940  -29.3780   23.5480 C   0  0  0  0  0  3  0  0  0  0  0  0
  -16.9090  -28.1790   22.8470 C   0  0  0  0  0  3  0  0  0  0  0  0
  -25.8300  -32.3900   23.8080 C   0  0  0  0  0  3  0  0  0  0  0  0
  -26.3360  -31.6000   25.0770 C   0  0  1  0  0  0  0  0  0  0  0  0
  -25.2220  -31.2990   26.1060 C   0  0  0  0  0  1  0  0  0  0  0  0
  -26.9800  -30.2550   24.6720 C   0  0  0  0  0  1  0  0  0  0  0  0
  -27.4380  -32.4160   25.7940 C   0  0  0  0  0  1  0  0  0  0  0  0
  -25.4620  -33.7650   24.1660 N   0  0  0  0  0  0  0  0  0  0  0  0
  -25.7770  -34.8490   23.4450 C   0  0  0  0  0  0  0  0  0  0  0  0
  -26.4780  -34.7990   22.4310 O   0  0  0  0  0  0  0  0  0  0  0  0
  -24.8360  -33.8790   24.9500 H   0  0  0  0  0  0  0  0  0  0  0  0
  -23.9850  -36.5840   23.0990 C   0  0  0  0  0  1  0  0  0  0  0  0
  -25.2230  -36.2050   23.9260 C   0  0  0  0  0  3  0  0  0  0  0  0
  -27.3020  -37.1440   24.8290 C   0  0  0  0  0  1  0  0  0  0  0  0
  -26.2140  -37.3000   23.8680 N   0  0  0  0  0  0  0  0  0  0  0  0
  -25.7700  -38.1990   24.0340 H   0  0  0  0  0  0  0  0  0  0  0  0
  -30.9090  -19.3990   22.1340 C   0  0  0  0  0  3  0  0  0  0  0  0
  -30.1780  -21.3450   25.3110 C   0  0  0  0  0  2  0  0  0  0  0  0
  -30.7690  -21.2890   23.9060 C   0  0  0  0  0  2  0  0  0  0  0  0
  -30.0800  -19.8650   25.6830 C   0  0  0  0  0  2  0  0  0  0  0  0
  -30.0890  -20.0610   23.2800 C   0  0  0  0  0  3  0  0  0  0  0  0
  -29.8540  -19.1410   24.4160 N   0  0  0  0  0  4  0  0  0  0  0  0
  -28.9000  -18.8170   24.3930 H   0  0  0  0  0  0  0  0  0  0  0  0
  -30.4640  -18.3400   24.3710 H   0  0  0  0  0  0  0  0  0  0  0  0
  -30.1210  -18.3320   21.4920 N   0  0  0  0  0  0  0  0  0  0  0  0
  -29.3100  -18.0910   22.0490 H   0  0  0  0  0  0  0  0  0  0  0  0
  -30.9040  -17.1200   21.1990 C   0  0  0  0  0  2  0  0  0  0  0  0
  -30.0260  -15.8320   21.2060 C   0  0  0  0  0  2  0  0  0  0  0  0
  -30.6500  -14.6390   20.4400 C   0  0  0  0  0  0  0  0  0  0  0  0
  -30.3530  -12.4840   19.2640 C   0  0  0  0  0  2  0  0  0  0  0  0
  -29.4100  -12.6600   18.0580 C   0  0  0  0  0  2  0  0  0  0  0  0
  -27.9430  -12.4910   18.4880 C   0  0  0  0  0  2  0  0  0  0  0  0
  -27.5850  -13.3420   19.7330 C   0  0  0  0  0  3  0  0  0  0  0  0
  -28.6410  -13.1740   20.8520 C   0  0  0  0  0  2  0  0  0  0  0  0
  -29.9670  -13.4690   20.2880 N   0  0  0  0  0  0  0  0  0  0  0  0
  -31.7480  -14.8180   19.9040 O   0  0  0  0  0  0  0  0  0  0  0  0
  -25.2090  -13.9170   20.5370 C   0  0  0  0  0  0  0  0  0  0  0  0
  -24.1320  -13.1300   20.8470 C   0  0  0  0  0  0  0  0  0  0  0  0
  -24.5670  -11.7800   20.6820 C   0  0  0  0  0  0  0  0  0  0  0  0
  -26.2360  -13.0440   20.2080 N   0  0  0  0  0  0  0  0  0  0  0  0
  -25.8530  -11.7490   20.3510 N   0  0  0  0  0  0  0  0  0  0  0  0
  -23.8190  -10.5180   20.7610 C   0  0  0  0  0  0  0  0  0  0  0  0
  -24.2700   -9.4400   21.5550 C   0  0  0  0  0  3  0  0  0  0  0  0
  -23.5230   -8.2440   21.6310 C   0  0  0  0  0  3  0  0  0  0  0  0
  -22.3110   -8.1190   20.9110 C   0  0  0  0  0  0  0  0  0  0  0  0
  -21.8780   -9.1860   20.1030 C   0  0  0  0  0  3  0  0  0  0  0  0
  -22.6250  -10.3740   20.0250 C   0  0  0  0  0  3  0  0  0  0  0  0
  -21.5320   -6.9860   20.9030 O   0  0  0  0  0  0  0  0  0  0  0  0
  -21.5340   -6.1050   21.9550 C   0  0  0  0  0  0  0  0  0  0  0  0
  -21.1990   -6.5110   23.2660 C   0  0  0  0  0  3  0  0  0  0  0  0
  -21.1440   -5.5600   24.3050 C   0  0  0  0  0  3  0  0  0  0  0  0
  -21.4150   -4.2040   24.0350 C   0  0  0  0  0  0  0  0  0  0  0  0
  -21.7450   -3.7990   22.7300 C   0  0  0  0  0  3  0  0  0  0  0  0
  -21.8000   -4.7470   21.6930 C   0  0  0  0  0  0  0  0  0  0  0  0
  -22.0980   -4.3470   20.4330 F   0  0  0  0  0  0  0  0  0  0  0  0
  -21.3550   -3.2900   25.0300 F   0  0  0  0  0  0  0  0  0  0  0  0
  -22.7460  -13.6020   21.1850 C   0  0  0  0  0  0  0  0  0  0  0  0
  -22.0250  -12.8490   22.0070 N   0  0  0  0  0  0  0  0  0  0  0  0
  -22.3130  -14.6730   20.7580 O   0  0  0  0  0  0  0  0  0  0  0  0
  -22.3890  -11.9820   22.3760 H   0  0  0  0  0  0  0  0  0  0  0  0
  -21.0950  -13.1420   22.2730 H   0  0  0  0  0  0  0  0  0  0  0  0
  -25.3960  -15.2950   20.4890 N   0  0  0  0  0  0  0  0  0  0  0  0
  -24.6440  -15.9540   20.6630 H   0  0  0  0  0  0  0  0  0  0  0  0
  -26.2590  -15.7460   20.2110 H   0  0  0  0  0  0  0  0  0  0  0  0
  2  1  1  0
  3  2  1  0
  4  6  2  0
  4  5  1  0
  6  3  1  0
  7  4  1  0
  7  8  1  0
  8 10  1  0
  9 20  2  0
 10 15  1  0
 11 19  1  0
 11 21  1  0
 12 18  1  0
 12 14  1  0
 13 19  1  0
 14 13  1  0
 15 14  2  0
 16 17  1  0
 16 10  2  0
 17 12  2  0
 18 11  1  0
 19  9  1  0
 21 23  2  0
 22 21  1  0
 24 22  1  0
 25 34  2  0
 25 30  1  0
 26 22  1  0
 26 30  1  0
 27 26  1  0
 28 29  1  0
 28 27  1  0
 29 25  1  0
 30 31  2  0
 31 32  1  0
 33 32  2  0
 34 33  1  0
 35  9  1  0
 35 40  1  0
 35 36  1  0
 36 39  1  1
 36 37  1  0
 38 36  1  0
 40 43  1  0
 41 45  1  0
 41 40  1  0
 42 41  2  0
 45 44  1  0
 47 45  1  0
 47 48  1  0
 47 46  1  0
 49  1  1  0
 50 52  1  0
 51 50  1  0
 53 49  1  0
 53 51  1  0
 53 54  1  0
 54 52  1  0
 55 54  1  0
 56 54  1  0
 57 58  1  0
 57 49  1  0
 59 60  1  0
 59 57  1  0
 61 60  1  0
 62 67  1  0
 63 64  1  0
 63 62  1  0
 65 64  1  0
 65 72  1  0
 65 66  1  0
 67 61  1  0
 67 66  1  0
 68 61  2  0
 69 70  2  0
 70 89  1  0
 71 74  1  0
 71 70  1  0
 72 73  1  0
 72 69  1  0
 73 71  2  0
 74 75  1  0
 75 76  2  0
 77 76  1  0
 78 77  2  0
 79 78  1  0
 79 74  2  0
 80 77  1  0
 80 81  1  0
 81 82  1  0
 82 83  2  0
 84 83  1  0
 84 88  1  0
 85 84  2  0
 86 81  2  0
 86 85  1  0
 87 86  1  0
 89 90  1  0
 90 93  1  0
 90 92  1  0
 91 89  2  0
 94 69  1  0
 94 95  1  0
 96 94  1  0
M  ISO  4   7 101   8 101  60 100  61 100
M  END
>  <TORSDO>  (27) 
F 25

>  <SCORE>  (27) 
-8.074

>  <name>  (27) 
26

>  <ligand_id>  (27) 
26

>  <original_smiles>  (27) 
[H]c1c([H])c([H])c2c(c1[H])C([H])([H])C([H])([H])C([H])([H])C2([H])N([H])C(=O)C1([H])N(C(=O)C([H])(N([H])C(=O)C([H])(N([H])C([H])([H])[H])C([H])([H])[H])C(C([H])([H])[H])(C([H])([H])[H])C([H])([H])[H])C([H])([H])c2c([H])c(OC([H])([H])C(=NC([H])([H])C([H])([H])C([H])([H])C([H])(N([H])C([H])([H])C([H])([H])C(=O)N3C([H])([H])C([H])([H])C([H])([H])C([H])(n4nc(-c5c([H])c([H])c(Oc6c([H])c([H])c(F)c([H])c6F)c([H])c5[H])c(C(=O)N([H])[H])c4N([H])[H])C3([H])[H])C3([H])C([H])([H])C([H])([H])C([H])([H])[N+]3([H])[H])C([H])([H])[H])c([H])c([H])c2C1([H])[H]

>  <smiles>  (27) 
[H]c1c([H])c([H])c2c(c1[H])C([H])([H])C([H])([H])C([H])([H])C2([H])N([H])C(=O)C1([H])N(C(=O)C([H])(N([H])C(=O)C([H])(N([H])C([H])([H])[H])C([H])([H])[H])C(C([H])([H])[H])(C([H])([H])[H])C([H])([H])[H])C([H])([H])c2c([H])c(OC([H])([H])C(=NC([H])([H])C([H])([H])C([H])([H])C([H])(N([H])C([H])([H])C([H])([H])C(=O)N3C([H])([H])C([H])([H])C([H])([H])C([H])(n4nc(-c5c([H])c([H])c(Oc6c([H])c([H])c(F)c([H])c6F)c([H])c5[H])c(C(=O)N([H])[H])c4N([H])[H])C3([H])[H])C3([H])C([H])([H])C([H])([H])C([H])([H])[N+]3([H])[H])C([H])([H])[H])c([H])c([H])c2C1([H])[H]

$$$$
27:0:0
     RDKit          3D

 88 96  0  0  1  0  0  0  0  0999 V2000
  -29.4940  -20.7640   20.1950 C   0  0  0  0  0  3  0  0  0  0  0  0
  -27.9190  -18.2370   19.1040 C   0  0  0  0  0  2  0  0  0  0  0  0
  -27.8820  -18.7620   20.5510 C   0  0  0  0  0  2  0  0  0  0  0  0
  -29.4010  -17.9090   18.8010 C   0  0  0  0  0  3  0  0  0  0  0  0
  -29.3180  -19.2190   20.8140 C   0  0  0  0  0  3  0  0  0  0  0  0
  -30.1060  -17.9010   20.1790 C   0  0  0  0  0  3  0  0  0  0  0  0
  -29.6350  -16.7460   17.8200 C   0  0  0  0  0  1  0  0  0  0  0  0
  -30.0260  -16.4020   20.9130 C   0  0  0  0  0  2  0  0  0  0  0  0
  -30.8370  -15.0490   20.4660 C   0  0  0  0  0  0  0  0  0  0  0  0
  -30.7370  -12.7470   19.4450 C   0  0  0  0  0  2  0  0  0  0  0  0
  -29.8190  -12.7910   18.2050 C   0  0  0  0  0  2  0  0  0  0  0  0
  -28.3350  -12.6290   18.5910 C   0  0  0  0  0  2  0  0  0  0  0  0
  -27.9370  -13.4850   19.8240 C   0  0  0  0  0  3  0  0  0  0  0  0
  -28.9710  -13.3820   20.9600 C   0  0  0  0  0  2  0  0  0  0  0  0
  -30.2700  -13.7880   20.4020 N   0  0  0  0  0  0  0  0  0  0  0  0
  -32.0160  -15.1630   20.1110 O   0  0  0  0  0  0  0  0  0  0  0  0
  -25.5300  -14.0690   20.4680 C   0  0  0  0  0  0  0  0  0  0  0  0
  -24.4540  -13.2950   20.8090 C   0  0  0  0  0  0  0  0  0  0  0  0
  -24.9260  -11.9480   20.8060 C   0  0  0  0  0  0  0  0  0  0  0  0
  -26.5830  -13.1950   20.2710 N   0  0  0  0  0  0  0  0  0  0  0  0
  -26.2260  -11.9130   20.5340 N   0  0  0  0  0  0  0  0  0  0  0  0
  -24.2030  -10.6830   20.9860 C   0  0  0  0  0  0  0  0  0  0  0  0
  -24.6020   -9.7390   21.9560 C   0  0  0  0  0  3  0  0  0  0  0  0
  -23.8770   -8.5390   22.1230 C   0  0  0  0  0  3  0  0  0  0  0  0
  -22.7440   -8.2770   21.3200 C   0  0  0  0  0  0  0  0  0  0  0  0
  -22.3640   -9.2120   20.3420 C   0  0  0  0  0  3  0  0  0  0  0  0
  -23.0870  -10.4040   20.1720 C   0  0  0  0  0  3  0  0  0  0  0  0
  -21.9940   -7.1290   21.3960 O   0  0  0  0  0  0  0  0  0  0  0  0
  -21.8830   -6.4180   22.5630 C   0  0  0  0  0  0  0  0  0  0  0  0
  -21.3250   -6.9830   23.7310 C   0  0  0  0  0  3  0  0  0  0  0  0
  -21.1690   -6.1930   24.8880 C   0  0  0  0  0  3  0  0  0  0  0  0
  -21.5600   -4.8420   24.8780 C   0  0  0  0  0  0  0  0  0  0  0  0
  -22.1110   -4.2770   23.7140 C   0  0  0  0  0  3  0  0  0  0  0  0
  -22.2700   -5.0620   22.5590 C   0  0  0  0  0  0  0  0  0  0  0  0
  -22.7840   -4.5080   21.4350 F   0  0  0  0  0  0  0  0  0  0  0  0
  -21.4010   -4.0810   25.9850 F   0  0  0  0  0  0  0  0  0  0  0  0
  -23.0510  -13.7720   21.0360 C   0  0  0  0  0  0  0  0  0  0  0  0
  -22.3040  -13.0840   21.8960 N   0  0  0  0  0  0  0  0  0  0  0  0
  -22.6200  -14.7810   20.4850 O   0  0  0  0  0  0  0  0  0  0  0  0
  -22.6630  -12.2640   22.3610 H   0  0  0  0  0  0  0  0  0  0  0  0
  -21.3590  -13.3820   22.0930 H   0  0  0  0  0  0  0  0  0  0  0  0
  -25.6970  -15.4410   20.3040 N   0  0  0  0  0  0  0  0  0  0  0  0
  -24.9410  -16.0960   20.4500 H   0  0  0  0  0  0  0  0  0  0  0  0
  -26.5780  -15.8910   20.0930 H   0  0  0  0  0  0  0  0  0  0  0  0
  -28.7870  -22.1330   20.8110 C   0  0  0  0  0  3  0  0  0  0  0  0
  -28.9390  -23.6470   20.1400 C   0  0  0  0  0  3  0  0  0  0  0  0
  -28.1200  -24.9680   20.7180 C   0  0  0  0  0  3  0  0  0  0  0  0
  -28.3200  -26.4320   20.3080 O   0  0  0  0  0  0  0  0  0  0  0  0
  -24.5480  -31.9570   23.3170 C   0  0  0  0  0  0  0  0  0  0  0  0
  -27.2240  -27.3440   20.2990 C   0  0  0  0  0  0  0  0  0  0  0  0
  -23.3770  -30.5570   21.6560 C   0  0  0  0  0  3  0  0  0  0  0  0
  -24.8630  -29.0150   20.2370 C   0  0  0  0  0  0  0  0  0  0  0  0
  -25.9240  -30.8730   21.5080 C   0  0  0  0  0  2  0  0  0  0  0  0
  -26.0250  -29.4870   20.8600 C   0  0  0  0  0  0  0  0  0  0  0  0
  -27.2070  -28.6660   20.8740 C   0  0  0  0  0  3  0  0  0  0  0  0
  -26.0340  -26.9520   19.6440 C   0  0  0  0  0  3  0  0  0  0  0  0
  -24.8760  -27.7540   19.6190 C   0  0  0  0  0  3  0  0  0  0  0  0
  -23.6200  -29.8870   20.2750 C   0  0  0  0  0  2  0  0  0  0  0  0
  -24.6350  -31.1520   22.2160 N   0  0  0  0  0  0  0  0  0  0  0  0
  -23.4550  -32.2210   23.8440 O   0  0  0  0  0  0  0  0  0  0  0  0
  -22.7080  -29.5330   22.6050 C   0  0  0  0  0  0  0  0  0  0  0  0
  -21.3900  -29.3230   22.4460 N   0  0  0  0  0  0  0  0  0  0  0  0
  -23.3790  -28.9300   23.4460 O   0  0  0  0  0  0  0  0  0  0  0  0
  -20.9060  -29.8650   21.7440 H   0  0  0  0  0  0  0  0  0  0  0  0
  -18.0400  -28.0320   22.8680 C   0  0  0  0  0  0  0  0  0  0  0  0
  -20.5790  -28.3680   23.2020 C   0  0  0  0  0  3  0  0  0  0  0  0
  -20.7370  -26.9360   22.6410 C   0  0  0  0  0  2  0  0  0  0  0  0
  -19.6740  -26.5750   21.5980 C   0  0  0  0  0  2  0  0  0  0  0  0
  -18.2700  -26.6870   22.2000 C   0  0  0  0  0  2  0  0  0  0  0  0
  -19.1220  -28.8290   23.3230 C   0  0  0  0  0  0  0  0  0  0  0  0
  -18.8520  -30.0870   23.9040 C   0  0  0  0  0  3  0  0  0  0  0  0
  -17.5300  -30.5510   24.0350 C   0  0  0  0  0  3  0  0  0  0  0  0
  -16.4600  -29.7530   23.5960 C   0  0  0  0  0  3  0  0  0  0  0  0
  -16.7130  -28.4950   23.0200 C   0  0  0  0  0  3  0  0  0  0  0  0
  -25.8130  -32.6020   23.9590 C   0  0  0  0  0  3  0  0  0  0  0  0
  -25.5100  -34.0150   24.2330 N   0  0  0  0  0  0  0  0  0  0  0  0
  -25.8850  -35.0410   23.4560 C   0  0  0  0  0  0  0  0  0  0  0  0
  -26.5960  -34.8980   22.4580 O   0  0  0  0  0  0  0  0  0  0  0  0
  -24.8820  -34.2000   25.0020 H   0  0  0  0  0  0  0  0  0  0  0  0
  -24.2180  -36.8590   22.9630 C   0  0  0  0  0  1  0  0  0  0  0  0
  -25.4010  -36.4510   23.8540 C   0  0  0  0  0  3  0  0  0  0  0  0
  -27.4950  -37.3270   24.7950 C   0  0  0  0  0  1  0  0  0  0  0  0
  -26.4600  -37.4800   23.7740 N   0  0  0  0  0  0  0  0  0  0  0  0
  -26.0640  -38.4120   23.8630 H   0  0  0  0  0  0  0  0  0  0  0  0
  -26.2810  -31.8730   25.2780 C   0  0  1  0  0  0  0  0  0  0  0  0
  -25.1510  -31.6760   26.3160 C   0  0  0  0  0  1  0  0  0  0  0  0
  -26.8700  -30.4790   24.9580 C   0  0  0  0  0  1  0  0  0  0  0  0
  -27.4130  -32.6840   25.9540 C   0  0  0  0  0  1  0  0  0  0  0  0
  1 45  2  0
  2  3  1  0
  3  5  1  0
  4  7  1  0
  4  2  1  0
  4  6  1  0
  5  1  1  0
  6  5  1  0
  6  8  1  0
  9  8  1  0
 10 15  1  0
 11 12  1  0
 11 10  1  0
 13 12  1  0
 13 20  1  0
 13 14  1  0
 15  9  1  0
 15 14  1  0
 16  9  2  0
 17 18  2  0
 18 37  1  0
 19 18  1  0
 19 22  1  0
 20 17  1  0
 20 21  1  0
 21 19  2  0
 22 23  1  0
 23 24  2  0
 25 28  1  0
 25 24  1  0
 26 25  2  0
 27 26  1  0
 27 22  2  0
 28 29  1  0
 29 30  1  0
 30 31  2  0
 32 31  1  0
 32 36  1  0
 33 32  2  0
 34 29  2  0
 34 33  1  0
 35 34  1  0
 37 38  1  0
 38 41  1  0
 38 40  1  0
 39 37  2  0
 42 43  1  0
 42 17  1  0
 44 42  1  0
 46 47  2  0
 46 45  1  0
 48 47  1  0
 49 60  2  0
 50 48  1  0
 50 55  1  0
 51 59  1  0
 51 61  1  0
 52 58  1  0
 52 54  1  0
 53 59  1  0
 54 55  2  0
 54 53  1  0
 56 50  2  0
 57 56  1  0
 57 52  2  0
 58 51  1  0
 59 49  1  0
 61 63  2  0
 62 61  1  0
 64 62  1  0
 65 74  2  0
 65 70  1  0
 66 62  1  0
 66 70  1  0
 67 66  1  0
 68 69  1  0
 68 67  1  0
 69 65  1  0
 70 71  2  0
 71 72  1  0
 73 72  2  0
 74 73  1  0
 75 49  1  0
 75 76  1  0
 75 85  1  0
 76 79  1  0
 77 81  1  0
 77 76  1  0
 78 77  2  0
 81 80  1  0
 83 81  1  0
 83 84  1  0
 83 82  1  0
 85 88  1  1
 85 86  1  0
 87 85  1  0
M  ISO  4   8 100   9 100  47 101  48 101
M  END
>  <TORSDO>  (28) 
F 21

>  <SCORE>  (28) 
-12.329

>  <name>  (28) 
27

>  <ligand_id>  (28) 
27

>  <original_smiles>  (28) 
[H]c1c([H])c([H])c2c(c1[H])C([H])([H])C([H])([H])C([H])([H])C2([H])N([H])C(=O)C1([H])N(C(=O)C([H])(N([H])C(=O)C([H])(N([H])C([H])([H])[H])C([H])([H])[H])C(C([H])([H])[H])(C([H])([H])[H])C([H])([H])[H])C([H])([H])c2c([H])c(OC([H])([H])C([H])([H])C([H])([H])C([H])([H])C3([H])C([H])([H])C([H])([H])C([H])(C([H])([H])[H])C3([H])C([H])([H])C(=O)N3C([H])([H])C([H])([H])C([H])([H])C([H])(n4nc(-c5c([H])c([H])c(Oc6c([H])c([H])c(F)c([H])c6F)c([H])c5[H])c(C(=O)N([H])[H])c4N([H])[H])C3([H])[H])c([H])c([H])c2C1([H])[H]

>  <smiles>  (28) 
[H]c1c([H])c([H])c2c(c1[H])C([H])([H])C([H])([H])C([H])([H])C2([H])N([H])C(=O)C1([H])N(C(=O)C([H])(N([H])C(=O)C([H])(N([H])C([H])([H])[H])C([H])([H])[H])C(C([H])([H])[H])(C([H])([H])[H])C([H])([H])[H])C([H])([H])c2c([H])c(OC([H])([H])C([H])([H])C([H])([H])C([H])([H])C3([H])C([H])([H])C([H])([H])C([H])(C([H])([H])[H])C3([H])C([H])([H])C(=O)N3C([H])([H])C([H])([H])C([H])([H])C([H])(n4nc(-c5c([H])c([H])c(Oc6c([H])c([H])c(F)c([H])c6F)c([H])c5[H])c(C(=O)N([H])[H])c4N([H])[H])C3([H])[H])c([H])c([H])c2C1([H])[H]

$$$$
28:0:0
     RDKit          3D

 90 98  0  0  1  0  0  0  0  0999 V2000
  -27.9410  -21.0030   21.7440 C   0  0  0  0  0  2  0  0  0  0  0  0
  -27.5450  -21.8700   20.5280 C   0  0  0  0  0  2  0  0  0  0  0  0
  -28.9690  -19.9300   21.3570 C   0  0  0  0  0  2  0  0  0  0  0  0
  -28.6160  -21.8330   19.4200 C   0  0  0  0  0  2  0  0  0  0  0  0
  -30.2780  -20.5230   20.7520 C   0  0  0  0  0  3  0  0  0  0  0  0
  -29.9910  -21.8390   19.9870 N   0  0  2  0  0  4  0  0  0  0  0  0
  -30.5940  -21.7960   19.1830 H   0  0  0  0  0  0  0  0  0  0  0  0
  -30.9620  -19.3370   19.9130 C   0  0  0  0  0  2  0  0  0  0  0  0
  -31.5790  -18.0490   20.6540 C   0  0  0  0  0  2  0  0  0  0  0  0
  -30.9910  -16.6060   20.2960 C   0  0  0  0  0  2  0  0  0  0  0  0
  -31.8780  -15.2860   20.3270 C   0  0  0  0  0  0  0  0  0  0  0  0
  -31.6810  -12.9850   19.4220 C   0  0  0  0  0  2  0  0  0  0  0  0
  -30.7910  -13.0880   18.1590 C   0  0  0  0  0  2  0  0  0  0  0  0
  -29.2930  -13.0070   18.5260 C   0  0  0  0  0  2  0  0  0  0  0  0
  -28.9150  -13.9430   19.7060 C   0  0  0  0  0  3  0  0  0  0  0  0
  -29.9200  -13.7960   20.8690 C   0  0  0  0  0  2  0  0  0  0  0  0
  -31.2640  -14.0600   20.3450 N   0  0  0  0  0  0  0  0  0  0  0  0
  -33.0830  -15.3790   20.0760 O   0  0  0  0  0  0  0  0  0  0  0  0
  -26.5470  -14.6820   20.3760 C   0  0  0  0  0  0  0  0  0  0  0  0
  -25.4230  -13.9740   20.6970 C   0  0  0  0  0  0  0  0  0  0  0  0
  -25.7970  -12.5950   20.6440 C   0  0  0  0  0  0  0  0  0  0  0  0
  -27.5400  -13.7400   20.1490 N   0  0  0  0  0  0  0  0  0  0  0  0
  -27.0920  -12.4780   20.3710 N   0  0  0  0  0  0  0  0  0  0  0  0
  -24.9880  -11.3790   20.7820 C   0  0  0  0  0  0  0  0  0  0  0  0
  -25.2880  -10.3940   21.7500 C   0  0  0  0  0  3  0  0  0  0  0  0
  -24.4830   -9.2410   21.8720 C   0  0  0  0  0  3  0  0  0  0  0  0
  -23.3630   -9.0650   21.0240 C   0  0  0  0  0  0  0  0  0  0  0  0
  -23.0820  -10.0380   20.0480 C   0  0  0  0  0  3  0  0  0  0  0  0
  -23.8880  -11.1810   19.9250 C   0  0  0  0  0  3  0  0  0  0  0  0
  -22.5390   -7.9680   21.0570 O   0  0  0  0  0  0  0  0  0  0  0  0
  -22.2640   -7.3070   22.2290 C   0  0  0  0  0  0  0  0  0  0  0  0
  -21.6580   -7.9560   23.3260 C   0  0  0  0  0  3  0  0  0  0  0  0
  -21.3300   -7.2240   24.4850 C   0  0  0  0  0  3  0  0  0  0  0  0
  -21.6010   -5.8440   24.5460 C   0  0  0  0  0  0  0  0  0  0  0  0
  -22.1990   -5.1940   23.4520 C   0  0  0  0  0  3  0  0  0  0  0  0
  -22.5290   -5.9240   22.2960 C   0  0  0  0  0  0  0  0  0  0  0  0
  -23.0860   -5.2890   21.2380 F   0  0  0  0  0  0  0  0  0  0  0  0
  -21.2790   -5.1400   25.6550 F   0  0  0  0  0  0  0  0  0  0  0  0
  -24.0510  -14.5340   20.9410 C   0  0  0  0  0  0  0  0  0  0  0  0
  -23.2580  -13.8750   21.7780 N   0  0  0  0  0  0  0  0  0  0  0  0
  -23.6880  -15.5900   20.4220 O   0  0  0  0  0  0  0  0  0  0  0  0
  -23.5550  -13.0200   22.2180 H   0  0  0  0  0  0  0  0  0  0  0  0
  -22.3360  -14.2330   21.9850 H   0  0  0  0  0  0  0  0  0  0  0  0
  -26.8010  -16.0450   20.2360 N   0  0  0  0  0  0  0  0  0  0  0  0
  -26.0700  -16.7400   20.3390 H   0  0  0  0  0  0  0  0  0  0  0  0
  -27.6870  -16.4340   19.9340 H   0  0  0  0  0  0  0  0  0  0  0  0
  -30.3880  -23.1630   20.6690 C   0  0  0  0  0  2  0  0  0  0  0  0
  -29.4830  -24.5100   20.5870 C   0  0  0  0  0  2  0  0  0  0  0  0
  -30.0750  -25.8710   20.0050 C   0  0  0  0  0  2  0  0  0  0  0  0
  -29.7200  -27.1780   20.6010 O   0  0  0  0  0  0  0  0  0  0  0  0
  -25.0510  -31.8200   23.4760 C   0  0  0  0  0  0  0  0  0  0  0  0
  -28.4850  -27.8210   20.4560 C   0  0  0  0  0  0  0  0  0  0  0  0
  -24.1760  -30.3690   21.6760 C   0  0  0  0  0  3  0  0  0  0  0  0
  -25.9310  -29.0900   20.3160 C   0  0  0  0  0  0  0  0  0  0  0  0
  -26.6540  -31.0290   21.7210 C   0  0  0  0  0  2  0  0  0  0  0  0
  -26.9650  -29.7070   21.0270 C   0  0  0  0  0  0  0  0  0  0  0  0
  -28.2420  -29.0790   21.0860 C   0  0  0  0  0  3  0  0  0  0  0  0
  -27.4220  -27.2420   19.7350 C   0  0  0  0  0  3  0  0  0  0  0  0
  -26.1580  -27.8630   19.6670 C   0  0  0  0  0  3  0  0  0  0  0  0
  -24.5880  -29.7950   20.2940 C   0  0  0  0  0  2  0  0  0  0  0  0
  -25.3050  -31.0870   22.3530 N   0  0  0  0  0  0  0  0  0  0  0  0
  -23.9000  -31.9240   23.9240 O   0  0  0  0  0  0  0  0  0  0  0  0
  -23.5780  -29.2270   22.5310 C   0  0  0  0  0  0  0  0  0  0  0  0
  -22.2980  -28.8930   22.2900 N   0  0  0  0  0  0  0  0  0  0  0  0
  -24.2670  -28.6470   23.3730 O   0  0  0  0  0  0  0  0  0  0  0  0
  -21.7910  -29.4370   21.6070 H   0  0  0  0  0  0  0  0  0  0  0  0
  -19.0810  -27.2430   22.4660 C   0  0  0  0  0  0  0  0  0  0  0  0
  -21.5610  -27.8030   22.9360 C   0  0  0  0  0  3  0  0  0  0  0  0
  -21.8920  -26.4440   22.2790 C   0  0  0  0  0  2  0  0  0  0  0  0
  -20.9000  -26.0450   21.1800 C   0  0  0  0  0  2  0  0  0  0  0  0
  -19.4720  -25.9760   21.7300 C   0  0  0  0  0  2  0  0  0  0  0  0
  -20.0610  -28.1100   23.0170 C   0  0  0  0  0  0  0  0  0  0  0  0
  -19.6420  -29.2990   23.6530 C   0  0  0  0  0  3  0  0  0  0  0  0
  -18.2740  -29.6260   23.7450 C   0  0  0  0  0  3  0  0  0  0  0  0
  -17.3090  -28.7560   23.2080 C   0  0  0  0  0  3  0  0  0  0  0  0
  -17.7110  -27.5660   22.5760 C   0  0  0  0  0  3  0  0  0  0  0  0
  -26.1870  -32.5750   24.2310 C   0  0  0  0  0  3  0  0  0  0  0  0
  -25.7310  -33.9560   24.4520 N   0  0  0  0  0  0  0  0  0  0  0  0
  -26.0540  -34.9970   23.6740 C   0  0  0  0  0  0  0  0  0  0  0  0
  -26.8320  -34.9050   22.7200 O   0  0  0  0  0  0  0  0  0  0  0  0
  -25.0400  -34.0910   25.1730 H   0  0  0  0  0  0  0  0  0  0  0  0
  -24.2230  -36.6090   23.0560 C   0  0  0  0  0  1  0  0  0  0  0  0
  -25.4120  -36.3580   24.0000 C   0  0  0  0  0  3  0  0  0  0  0  0
  -27.3740  -37.4720   24.9700 C   0  0  0  0  0  1  0  0  0  0  0  0
  -26.3580  -37.4930   23.9180 N   0  0  0  0  0  0  0  0  0  0  0  0
  -25.8610  -38.3770   23.9710 H   0  0  0  0  0  0  0  0  0  0  0  0
  -26.5790  -31.8960   25.6000 C   0  0  1  0  0  0  0  0  0  0  0  0
  -25.3640  -31.5780   26.5020 C   0  0  0  0  0  1  0  0  0  0  0  0
  -27.3470  -30.5750   25.3580 C   0  0  0  0  0  1  0  0  0  0  0  0
  -27.5330  -32.8220   26.3900 C   0  0  0  0  0  1  0  0  0  0  0  0
  2  1  1  0
  3  1  1  0
  4  6  1  0
  4  2  1  0
  5  8  1  0
  5  3  1  0
  6 47  1  0
  6  5  1  0
  6  7  1  6
  8  9  1  0
 10 11  1  0
 10  9  1  0
 11 17  1  0
 12 17  1  0
 13 14  1  0
 13 12  1  0
 15 14  1  0
 15 22  1  0
 15 16  1  0
 17 16  1  0
 18 11  2  0
 19 20  2  0
 20 39  1  0
 21 20  1  0
 21 24  1  0
 22 23  1  0
 22 19  1  0
 23 21  2  0
 24 25  1  0
 25 26  2  0
 27 30  1  0
 27 26  1  0
 28 27  2  0
 29 28  1  0
 29 24  2  0
 30 31  1  0
 31 36  2  0
 31 32  1  0
 32 33  2  0
 33 34  1  0
 34 38  1  0
 35 34  2  0
 36 35  1  0
 37 36  1  0
 39 40  1  0
 40 43  1  0
 40 42  1  0
 41 39  2  0
 44 45  1  0
 44 19  1  0
 46 44  1  0
 48 47  1  0
 49 48  1  0
 49 50  1  0
 51 62  2  0
 52 50  1  0
 52 57  1  0
 53 61  1  0
 53 63  1  0
 54 56  1  0
 55 61  1  0
 56 57  2  0
 56 55  1  0
 58 52  2  0
 59 58  1  0
 59 54  2  0
 60 54  1  0
 60 53  1  0
 61 51  1  0
 63 65  2  0
 64 63  1  0
 66 64  1  0
 67 76  2  0
 67 72  1  0
 68 64  1  0
 68 72  1  0
 69 68  1  0
 70 71  1  0
 70 69  1  0
 71 67  1  0
 72 73  2  0
 73 74  1  0
 75 74  2  0
 76 75  1  0
 77 51  1  0
 77 78  1  0
 77 87  1  0
 78 81  1  0
 79 83  1  0
 79 78  1  0
 80 79  2  0
 83 82  1  0
 85 86  1  0
 85 83  1  0
 85 84  1  0
 87 90  1  1
 87 88  1  0
 89 87  1  0
M  ISO  4  10 100  11 100  49 101  50 101
M  END
>  <TORSDO>  (29) 
F 22

>  <SCORE>  (29) 
-8.703

>  <name>  (29) 
28

>  <ligand_id>  (29) 
28

>  <original_smiles>  (29) 
[H]c1c([H])c([H])c2c(c1[H])C([H])([H])C([H])([H])C([H])([H])C2([H])N([H])C(=O)C1([H])N(C(=O)C([H])(N([H])C(=O)C([H])(N([H])C([H])([H])[H])C([H])([H])[H])C(C([H])([H])[H])(C([H])([H])[H])C([H])([H])[H])C([H])([H])c2c([H])c(OC([H])([H])C([H])([H])C([H])([H])[N+]3([H])C([H])([H])C([H])([H])C([H])([H])C([H])([H])C3([H])C([H])([H])C([H])([H])C([H])([H])C(=O)N3C([H])([H])C([H])([H])C([H])([H])C([H])(n4nc(-c5c([H])c([H])c(Oc6c([H])c([H])c(F)c([H])c6F)c([H])c5[H])c(C(=O)N([H])[H])c4N([H])[H])C3([H])[H])c([H])c([H])c2C1([H])[H]

>  <smiles>  (29) 
[H]c1c([H])c([H])c2c(c1[H])C([H])([H])C([H])([H])C([H])([H])C2([H])N([H])C(=O)C1([H])N(C(=O)C([H])(N([H])C(=O)C([H])(N([H])C([H])([H])[H])C([H])([H])[H])C(C([H])([H])[H])(C([H])([H])[H])C([H])([H])[H])C([H])([H])c2c([H])c(OC([H])([H])C([H])([H])C([H])([H])[N+]3([H])C([H])([H])C([H])([H])C([H])([H])C([H])([H])C3([H])C([H])([H])C([H])([H])C([H])([H])C(=O)N3C([H])([H])C([H])([H])C([H])([H])C([H])(n4nc(-c5c([H])c([H])c(Oc6c([H])c([H])c(F)c([H])c6F)c([H])c5[H])c(C(=O)N([H])[H])c4N([H])[H])C3([H])[H])c([H])c([H])c2C1([H])[H]

$$$$
29:0:0
     RDKit          3D

 89 97  0  0  1  0  0  0  0  0999 V2000
  -28.9900  -21.2250   20.1040 C   0  0  0  0  0  3  0  0  0  0  0  0
  -29.8370  -20.0200   20.7160 C   0  0  0  0  0  3  0  0  0  0  0  0
  -29.1590  -16.6110   18.8870 C   0  0  0  0  0  2  0  0  0  0  0  0
  -29.2770  -18.1530   18.9380 C   0  0  0  0  0  2  0  0  0  0  0  0
  -29.6560  -16.0180   20.2350 C   0  0  0  0  0  3  0  0  0  0  0  0
  -29.3890  -18.5200   20.4170 C   0  0  0  0  0  3  0  0  0  0  0  0
  -30.2580  -17.3030   20.9360 C   0  0  0  0  0  3  0  0  0  0  0  0
  -30.5230  -14.6970   20.0090 C   0  0  0  0  0  0  0  0  0  0  0  0
  -30.2390  -12.5030   18.8950 C   0  0  0  0  0  2  0  0  0  0  0  0
  -29.2130  -12.7150   17.7580 C   0  0  0  0  0  2  0  0  0  0  0  0
  -27.7700  -12.5450   18.2780 C   0  0  0  0  0  2  0  0  0  0  0  0
  -27.5120  -13.3380   19.5850 C   0  0  0  0  0  3  0  0  0  0  0  0
  -28.6470  -13.1150   20.6090 C   0  0  0  0  0  2  0  0  0  0  0  0
  -29.9190  -13.4680   19.9650 N   0  0  0  0  0  0  0  0  0  0  0  0
  -31.6910  -14.8290   19.6300 O   0  0  0  0  0  0  0  0  0  0  0  0
  -25.1790  -13.9290   20.4850 C   0  0  0  0  0  0  0  0  0  0  0  0
  -24.1340  -13.1480   20.9000 C   0  0  0  0  0  0  0  0  0  0  0  0
  -24.5850  -11.7960   20.7930 C   0  0  0  0  0  0  0  0  0  0  0  0
  -26.1990  -13.0500   20.1510 N   0  0  0  0  0  0  0  0  0  0  0  0
  -25.8510  -11.7610   20.3960 N   0  0  0  0  0  0  0  0  0  0  0  0
  -23.8650  -10.5320   20.9900 C   0  0  0  0  0  0  0  0  0  0  0  0
  -24.3410   -9.5430   21.8800 C   0  0  0  0  0  3  0  0  0  0  0  0
  -23.6210   -8.3420   22.0650 C   0  0  0  0  0  3  0  0  0  0  0  0
  -22.4140   -8.1230   21.3610 C   0  0  0  0  0  0  0  0  0  0  0  0
  -21.9570   -9.1010   20.4600 C   0  0  0  0  0  3  0  0  0  0  0  0
  -22.6770  -10.2930   20.2720 C   0  0  0  0  0  3  0  0  0  0  0  0
  -21.6620   -6.9760   21.4590 O   0  0  0  0  0  0  0  0  0  0  0  0
  -21.6450   -6.2230   22.6050 C   0  0  0  0  0  0  0  0  0  0  0  0
  -21.2730   -6.7720   23.8510 C   0  0  0  0  0  3  0  0  0  0  0  0
  -21.2010   -5.9460   24.9920 C   0  0  0  0  0  3  0  0  0  0  0  0
  -21.4910   -4.5730   24.8860 C   0  0  0  0  0  0  0  0  0  0  0  0
  -21.8570   -4.0230   23.6440 C   0  0  0  0  0  3  0  0  0  0  0  0
  -21.9310   -4.8470   22.5070 C   0  0  0  0  0  0  0  0  0  0  0  0
  -22.2630   -4.3080   21.3090 F   0  0  0  0  0  0  0  0  0  0  0  0
  -21.4150   -3.7770   25.9780 F   0  0  0  0  0  0  0  0  0  0  0  0
  -22.7600  -13.6220   21.2800 C   0  0  0  0  0  0  0  0  0  0  0  0
  -22.0960  -12.9090   22.1830 N   0  0  0  0  0  0  0  0  0  0  0  0
  -22.2880  -14.6560   20.8130 O   0  0  0  0  0  0  0  0  0  0  0  0
  -22.4930  -12.0700   22.5810 H   0  0  0  0  0  0  0  0  0  0  0  0
  -21.1780  -13.2070   22.4820 H   0  0  0  0  0  0  0  0  0  0  0  0
  -25.3410  -15.3040   20.3440 N   0  0  0  0  0  0  0  0  0  0  0  0
  -24.5890  -15.9580   20.5320 H   0  0  0  0  0  0  0  0  0  0  0  0
  -26.1740  -15.7520   19.9850 H   0  0  0  0  0  0  0  0  0  0  0  0
  -31.2310  -16.1580   23.0430 C   0  0  0  0  0  1  0  0  0  0  0  0
  -30.2840  -17.2240   22.4770 C   0  0  0  0  0  2  0  0  0  0  0  0
  -29.1510  -22.6660   20.7660 C   0  0  0  0  0  3  0  0  0  0  0  0
  -28.6240  -23.9590   19.9950 C   0  0  0  0  0  3  0  0  0  0  0  0
  -28.4510  -25.2920   20.8460 C   0  0  0  0  0  2  0  0  0  0  0  0
  -28.4730  -26.6050   20.1820 O   0  0  0  0  0  0  0  0  0  0  0  0
  -24.6180  -31.8810   23.2370 C   0  0  0  0  0  0  0  0  0  0  0  0
  -27.3180  -27.3840   20.2070 C   0  0  0  0  0  0  0  0  0  0  0  0
  -23.4370  -30.4520   21.6040 C   0  0  0  0  0  3  0  0  0  0  0  0
  -24.9140  -28.9150   20.1900 C   0  0  0  0  0  0  0  0  0  0  0  0
  -25.9640  -30.8270   21.4090 C   0  0  0  0  0  2  0  0  0  0  0  0
  -26.0710  -29.4460   20.7770 C   0  0  0  0  0  0  0  0  0  0  0  0
  -27.2780  -28.6920   20.7700 C   0  0  0  0  0  3  0  0  0  0  0  0
  -26.1410  -26.8860   19.6120 C   0  0  0  0  0  3  0  0  0  0  0  0
  -24.9480  -27.6390   19.6000 C   0  0  0  0  0  3  0  0  0  0  0  0
  -23.6610  -29.7660   20.2290 C   0  0  0  0  0  2  0  0  0  0  0  0
  -24.6910  -31.0700   22.1410 N   0  0  0  0  0  0  0  0  0  0  0  0
  -23.5310  -32.1410   23.7730 O   0  0  0  0  0  0  0  0  0  0  0  0
  -22.7940  -29.4300   22.5700 C   0  0  0  0  0  0  0  0  0  0  0  0
  -21.4720  -29.2270   22.4420 N   0  0  0  0  0  0  0  0  0  0  0  0
  -23.4830  -28.8220   23.3940 O   0  0  0  0  0  0  0  0  0  0  0  0
  -20.9750  -29.7710   21.7490 H   0  0  0  0  0  0  0  0  0  0  0  0
  -18.1180  -27.9660   22.9310 C   0  0  0  0  0  0  0  0  0  0  0  0
  -20.6680  -28.2810   23.2160 C   0  0  0  0  0  3  0  0  0  0  0  0
  -20.8030  -26.8460   22.6520 C   0  0  0  0  0  2  0  0  0  0  0  0
  -19.7150  -26.4920   21.6350 C   0  0  0  0  0  2  0  0  0  0  0  0
  -18.3260  -26.6150   22.2680 C   0  0  0  0  0  2  0  0  0  0  0  0
  -19.2180  -28.7550   23.3610 C   0  0  0  0  0  0  0  0  0  0  0  0
  -18.9700  -30.0190   23.9390 C   0  0  0  0  0  3  0  0  0  0  0  0
  -17.6540  -30.4950   24.0920 C   0  0  0  0  0  3  0  0  0  0  0  0
  -16.5680  -29.7040   23.6790 C   0  0  0  0  0  3  0  0  0  0  0  0
  -16.8010  -28.4410   23.1040 C   0  0  0  0  0  3  0  0  0  0  0  0
  -25.8920  -32.5350   23.8560 C   0  0  0  0  0  3  0  0  0  0  0  0
  -25.5600  -33.9290   24.1840 N   0  0  0  0  0  0  0  0  0  0  0  0
  -25.8710  -34.9860   23.4210 C   0  0  0  0  0  0  0  0  0  0  0  0
  -26.5370  -34.8900   22.3870 O   0  0  0  0  0  0  0  0  0  0  0  0
  -24.9670  -34.0750   24.9870 H   0  0  0  0  0  0  0  0  0  0  0  0
  -24.1060  -36.7450   23.0750 C   0  0  0  0  0  1  0  0  0  0  0  0
  -25.3630  -36.3670   23.8770 C   0  0  0  0  0  3  0  0  0  0  0  0
  -27.4890  -37.2920   24.6810 C   0  0  0  0  0  1  0  0  0  0  0  0
  -26.3750  -37.4380   23.7500 N   0  0  0  0  0  0  0  0  0  0  0  0
  -25.9530  -38.3510   23.9000 H   0  0  0  0  0  0  0  0  0  0  0  0
  -26.4240  -31.7760   25.1340 C   0  0  1  0  0  0  0  0  0  0  0  0
  -25.3360  -31.5230   26.2040 C   0  0  0  0  0  1  0  0  0  0  0  0
  -27.0280  -30.4070   24.7420 C   0  0  0  0  0  1  0  0  0  0  0  0
  -27.5630  -32.5900   25.7900 C   0  0  0  0  0  1  0  0  0  0  0  0
  1  2  2  0
  1 46  1  0
  3  4  1  0
  3  5  1  0
  4  6  1  0
  5  8  1  0
  5  7  1  0
  6  2  1  0
  6  7  1  0
  7 45  1  0
  9 14  1  0
 10 11  1  0
 10  9  1  0
 12 11  1  0
 12 19  1  0
 12 13  1  0
 14  8  1  0
 14 13  1  0
 15  8  2  0
 16 17  2  0
 17 36  1  0
 18 17  1  0
 18 21  1  0
 19 20  1  0
 19 16  1  0
 20 18  2  0
 21 22  1  0
 22 23  2  0
 24 27  1  0
 24 23  1  0
 25 24  2  0
 26 25  1  0
 26 21  2  0
 27 28  1  0
 28 29  1  0
 29 30  2  0
 31 30  1  0
 31 35  1  0
 32 31  2  0
 33 28  2  0
 33 32  1  0
 34 33  1  0
 36 37  1  0
 37 40  1  0
 37 39  1  0
 38 36  2  0
 41 16  1  0
 41 42  1  0
 43 41  1  0
 45 44  1  0
 47 46  2  0
 47 48  1  0
 49 51  1  0
 49 48  1  0
 50 61  2  0
 51 56  1  0
 52 60  1  0
 52 62  1  0
 53 59  1  0
 53 55  1  0
 54 60  1  0
 55 54  1  0
 56 55  2  0
 57 51  2  0
 58 57  1  0
 58 53  2  0
 59 52  1  0
 60 50  1  0
 62 64  2  0
 63 62  1  0
 65 63  1  0
 66 75  2  0
 66 71  1  0
 67 63  1  0
 67 71  1  0
 68 67  1  0
 69 70  1  0
 69 68  1  0
 70 66  1  0
 71 72  2  0
 72 73  1  0
 74 73  2  0
 75 74  1  0
 76 50  1  0
 76 77  1  0
 76 86  1  0
 77 80  1  0
 78 82  1  0
 78 77  1  0
 79 78  2  0
 82 81  1  0
 84 82  1  0
 84 85  1  0
 84 83  1  0
 86 89  1  1
 86 87  1  0
 88 86  1  0
M  ISO  4   5 100   8 100  48 101  49 101
M  END
>  <TORSDO>  (30) 
F 22

>  <SCORE>  (30) 
-11.784

>  <name>  (30) 
29

>  <ligand_id>  (30) 
29

>  <original_smiles>  (30) 
[H]c1c([H])c([H])c2c(c1[H])C([H])([H])C([H])([H])C([H])([H])C2([H])N([H])C(=O)C1([H])N(C(=O)C([H])(N([H])C(=O)C([H])(N([H])C([H])([H])[H])C([H])([H])[H])C(C([H])([H])[H])(C([H])([H])[H])C([H])([H])[H])C([H])([H])c2c([H])c(OC([H])([H])C([H])([H])C([H])([H])C([H])([H])C([H])([H])C3([H])C([H])([H])C([H])([H])C([H])(C(=O)N4C([H])([H])C([H])([H])C([H])([H])C([H])(n5nc(-c6c([H])c([H])c(Oc7c([H])c([H])c(F)c([H])c7F)c([H])c6[H])c(C(=O)N([H])[H])c5N([H])[H])C4([H])[H])C3([H])C([H])([H])C([H])([H])[H])c([H])c([H])c2C1([H])[H]

>  <smiles>  (30) 
[H]c1c([H])c([H])c2c(c1[H])C([H])([H])C([H])([H])C([H])([H])C2([H])N([H])C(=O)C1([H])N(C(=O)C([H])(N([H])C(=O)C([H])(N([H])C([H])([H])[H])C([H])([H])[H])C(C([H])([H])[H])(C([H])([H])[H])C([H])([H])[H])C([H])([H])c2c([H])c(OC([H])([H])C([H])([H])C([H])([H])C([H])([H])C([H])([H])C3([H])C([H])([H])C([H])([H])C([H])(C(=O)N4C([H])([H])C([H])([H])C([H])([H])C([H])(n5nc(-c6c([H])c([H])c(Oc7c([H])c([H])c(F)c([H])c7F)c([H])c6[H])c(C(=O)N([H])[H])c5N([H])[H])C4([H])[H])C3([H])C([H])([H])C([H])([H])[H])c([H])c([H])c2C1([H])[H]

$$$$
30:0:0
     RDKit          3D

 93101  0  0  1  0  0  0  0  0999 V2000
  -27.9800  -20.3980   19.2150 C   0  0  0  0  0  2  0  0  0  0  0  0
  -28.9120  -19.4290   18.4650 C   0  0  0  0  0  2  0  0  0  0  0  0
  -28.4450  -21.8650   19.0790 C   0  0  0  0  0  2  0  0  0  0  0  0
  -30.7770  -21.1170   18.8080 C   0  0  0  0  0  2  0  0  0  0  0  0
  -30.3790  -19.6170   18.8970 C   0  0  0  0  0  3  0  0  0  0  0  0
  -29.8510  -22.0520   19.5260 N   0  0  1  0  0  4  0  0  0  0  0  0
  -29.8870  -21.7790   20.5000 H   0  0  0  0  0  0  0  0  0  0  0  0
  -30.6510  -18.9750   20.2700 C   0  0  0  0  0  0  0  0  0  0  0  0
  -30.9460  -17.6650   20.2870 N   0  0  0  0  0  0  0  0  0  0  0  0
  -30.5610  -19.6580   21.2920 O   0  0  0  0  0  0  0  0  0  0  0  0
  -31.0680  -17.2100   19.3910 H   0  0  0  0  0  0  0  0  0  0  0  0
  -31.1050  -16.8180   21.4780 C   0  0  0  0  0  2  0  0  0  0  0  0
  -30.2400  -15.5280   21.4330 C   0  0  0  0  0  2  0  0  0  0  0  0
  -30.7490  -14.4240   20.4870 C   0  0  0  0  0  0  0  0  0  0  0  0
  -30.3470  -12.3350   19.2310 C   0  0  0  0  0  2  0  0  0  0  0  0
  -29.3970  -12.5790   18.0450 C   0  0  0  0  0  2  0  0  0  0  0  0
  -27.9310  -12.4500   18.4950 C   0  0  0  0  0  2  0  0  0  0  0  0
  -27.6200  -13.2770   19.7680 C   0  0  0  0  0  3  0  0  0  0  0  0
  -28.6830  -13.0340   20.8650 C   0  0  0  0  0  2  0  0  0  0  0  0
  -30.0120  -13.2990   20.2890 N   0  0  0  0  0  0  0  0  0  0  0  0
  -31.8110  -14.6210   19.8890 O   0  0  0  0  0  0  0  0  0  0  0  0
  -25.2230  -13.8980   20.4750 C   0  0  0  0  0  0  0  0  0  0  0  0
  -24.1480  -13.1340   20.8470 C   0  0  0  0  0  0  0  0  0  0  0  0
  -24.6030  -11.7810   20.8280 C   0  0  0  0  0  0  0  0  0  0  0  0
  -26.2640  -13.0120   20.2520 N   0  0  0  0  0  0  0  0  0  0  0  0
  -25.8940  -11.7330   20.5210 N   0  0  0  0  0  0  0  0  0  0  0  0
  -23.8710  -10.5240   21.0240 C   0  0  0  0  0  0  0  0  0  0  0  0
  -24.3060   -9.5550   21.9540 C   0  0  0  0  0  3  0  0  0  0  0  0
  -23.5760   -8.3610   22.1390 C   0  0  0  0  0  3  0  0  0  0  0  0
  -22.3970   -8.1280   21.3930 C   0  0  0  0  0  0  0  0  0  0  0  0
  -21.9820   -9.0850   20.4490 C   0  0  0  0  0  3  0  0  0  0  0  0
  -22.7120  -10.2700   20.2640 C   0  0  0  0  0  3  0  0  0  0  0  0
  -21.6410   -6.9850   21.4850 O   0  0  0  0  0  0  0  0  0  0  0  0
  -21.6000   -6.2390   22.6360 C   0  0  0  0  0  0  0  0  0  0  0  0
  -21.2040   -6.7970   23.8720 C   0  0  0  0  0  3  0  0  0  0  0  0
  -21.1140   -5.9820   25.0170 C   0  0  0  0  0  3  0  0  0  0  0  0
  -21.4070   -4.6080   24.9270 C   0  0  0  0  0  0  0  0  0  0  0  0
  -21.7960   -4.0480   23.6980 C   0  0  0  0  0  3  0  0  0  0  0  0
  -21.8890   -4.8620   22.5540 C   0  0  0  0  0  0  0  0  0  0  0  0
  -22.2440   -4.3140   21.3680 F   0  0  0  0  0  0  0  0  0  0  0  0
  -21.3140   -3.8230   26.0250 F   0  0  0  0  0  0  0  0  0  0  0  0
  -22.7550  -13.6210   21.1200 C   0  0  0  0  0  0  0  0  0  0  0  0
  -22.0280  -12.9270   21.9920 N   0  0  0  0  0  0  0  0  0  0  0  0
  -22.3190  -14.6450   20.5960 O   0  0  0  0  0  0  0  0  0  0  0  0
  -22.3950  -12.0990   22.4340 H   0  0  0  0  0  0  0  0  0  0  0  0
  -21.0900  -13.2280   22.2170 H   0  0  0  0  0  0  0  0  0  0  0  0
  -25.3990  -15.2650   20.2870 N   0  0  0  0  0  0  0  0  0  0  0  0
  -24.6440  -15.9340   20.3950 H   0  0  0  0  0  0  0  0  0  0  0  0
  -26.2620  -15.6890   19.9710 H   0  0  0  0  0  0  0  0  0  0  0  0
  -30.3510  -23.4640   19.4430 C   0  0  0  0  0  2  0  0  0  0  0  0
  -29.5920  -24.5680   20.2480 C   0  0  0  0  0  2  0  0  0  0  0  0
  -28.5530  -25.4370   19.4830 C   0  0  0  0  0  2  0  0  0  0  0  0
  -28.3920  -26.7140   20.1420 O   0  0  0  0  0  0  0  0  0  0  0  0
  -24.5680  -31.8840   23.2360 C   0  0  0  0  0  0  0  0  0  0  0  0
  -27.1950  -27.4190   20.1160 C   0  0  0  0  0  0  0  0  0  0  0  0
  -23.3520  -30.4890   21.5990 C   0  0  0  0  0  3  0  0  0  0  0  0
  -24.7940  -28.9440   20.1660 C   0  0  0  0  0  0  0  0  0  0  0  0
  -25.8850  -30.8230   21.4050 C   0  0  0  0  0  2  0  0  0  0  0  0
  -25.9580  -29.4550   20.7520 C   0  0  0  0  0  0  0  0  0  0  0  0
  -27.1540  -28.6970   20.7290 C   0  0  0  0  0  3  0  0  0  0  0  0
  -26.0070  -26.9310   19.5200 C   0  0  0  0  0  3  0  0  0  0  0  0
  -24.8130  -27.6780   19.5570 C   0  0  0  0  0  3  0  0  0  0  0  0
  -23.5560  -29.8100   20.2190 C   0  0  0  0  0  2  0  0  0  0  0  0
  -24.6190  -31.0820   22.1370 N   0  0  0  0  0  0  0  0  0  0  0  0
  -23.4880  -32.1640   23.7760 O   0  0  0  0  0  0  0  0  0  0  0  0
  -22.6980  -29.4690   22.5600 C   0  0  0  0  0  0  0  0  0  0  0  0
  -21.3720  -29.2940   22.4350 N   0  0  0  0  0  0  0  0  0  0  0  0
  -23.3800  -28.8400   23.3730 O   0  0  0  0  0  0  0  0  0  0  0  0
  -20.8840  -29.8510   21.7480 H   0  0  0  0  0  0  0  0  0  0  0  0
  -17.9940  -28.1230   22.9470 C   0  0  0  0  0  0  0  0  0  0  0  0
  -20.5540  -28.3610   23.2070 C   0  0  0  0  0  3  0  0  0  0  0  0
  -20.6440  -26.9320   22.6270 C   0  0  0  0  0  2  0  0  0  0  0  0
  -19.5330  -26.6200   21.6160 C   0  0  0  0  0  2  0  0  0  0  0  0
  -18.1560  -26.7740   22.2680 C   0  0  0  0  0  2  0  0  0  0  0  0
  -19.1200  -28.8750   23.3750 C   0  0  0  0  0  0  0  0  0  0  0  0
  -18.9140  -30.1400   23.9690 C   0  0  0  0  0  3  0  0  0  0  0  0
  -17.6130  -30.6500   24.1410 C   0  0  0  0  0  3  0  0  0  0  0  0
  -16.5020  -29.8950   23.7330 C   0  0  0  0  0  3  0  0  0  0  0  0
  -16.6920  -28.6330   23.1410 C   0  0  0  0  0  3  0  0  0  0  0  0
  -25.8570  -32.5100   23.8510 C   0  0  0  0  0  3  0  0  0  0  0  0
  -25.5560  -33.9100   24.1800 N   0  0  0  0  0  0  0  0  0  0  0  0
  -25.8960  -34.9600   23.4200 C   0  0  0  0  0  0  0  0  0  0  0  0
  -26.5650  -34.8520   22.3890 O   0  0  0  0  0  0  0  0  0  0  0  0
  -24.9590  -34.0690   24.9770 H   0  0  0  0  0  0  0  0  0  0  0  0
  -24.1750  -36.7590   23.0650 C   0  0  0  0  0  1  0  0  0  0  0  0
  -25.4150  -36.3500   23.8760 C   0  0  0  0  0  3  0  0  0  0  0  0
  -27.5530  -37.2240   24.7060 C   0  0  0  0  0  1  0  0  0  0  0  0
  -26.4520  -37.3970   23.7620 N   0  0  0  0  0  0  0  0  0  0  0  0
  -26.0520  -38.3200   23.9100 H   0  0  0  0  0  0  0  0  0  0  0  0
  -26.3760  -31.7390   25.1270 C   0  0  1  0  0  0  0  0  0  0  0  0
  -25.2860  -31.5090   26.1990 C   0  0  0  0  0  1  0  0  0  0  0  0
  -26.9550  -30.3580   24.7380 C   0  0  0  0  0  1  0  0  0  0  0  0
  -27.5320  -32.5300   25.7830 C   0  0  0  0  0  1  0  0  0  0  0  0
  2  5  1  0
  2  1  1  0
  3  1  1  0
  3  6  1  0
  4  5  1  0
  4  6  1  0
  5  8  1  0
  6  7  1  1
  8  9  1  0
  8 10  2  0
  9 12  1  0
 11  9  1  0
 13 12  1  0
 14 13  1  0
 15 20  1  0
 16 17  1  0
 16 15  1  0
 18 17  1  0
 18 25  1  0
 18 19  1  0
 20 14  1  0
 20 19  1  0
 21 14  2  0
 22 23  2  0
 23 42  1  0
 24 23  1  0
 24 27  1  0
 25 22  1  0
 25 26  1  0
 26 24  2  0
 27 28  1  0
 28 29  2  0
 30 33  1  0
 30 29  1  0
 31 30  2  0
 32 31  1  0
 32 27  2  0
 33 34  1  0
 34 35  1  0
 35 36  2  0
 37 36  1  0
 37 41  1  0
 38 37  2  0
 39 34  2  0
 39 38  1  0
 40 39  1  0
 42 43  1  0
 43 46  1  0
 43 45  1  0
 44 42  2  0
 47 48  1  0
 47 22  1  0
 49 47  1  0
 50  6  1  0
 50 51  1  0
 52 53  1  0
 52 51  1  0
 54 65  2  0
 55 53  1  0
 55 60  1  0
 56 64  1  0
 56 66  1  0
 57 63  1  0
 57 59  1  0
 58 64  1  0
 59 58  1  0
 60 59  2  0
 61 62  1  0
 61 55  2  0
 62 57  2  0
 63 56  1  0
 64 54  1  0
 66 68  2  0
 67 66  1  0
 69 67  1  0
 70 79  2  0
 70 75  1  0
 71 67  1  0
 71 75  1  0
 72 71  1  0
 73 74  1  0
 73 72  1  0
 74 70  1  0
 75 76  2  0
 76 77  1  0
 78 77  2  0
 79 78  1  0
 80 54  1  0
 80 81  1  0
 80 90  1  0
 81 84  1  0
 82 86  1  0
 82 81  1  0
 83 82  2  0
 86 85  1  0
 88 86  1  0
 88 89  1  0
 88 87  1  0
 90 93  1  1
 90 91  1  0
 92 90  1  0
M  ISO  4  13 100  14 100  52 101  53 101
M  END
>  <TORSDO>  (31) 
F 22

>  <SCORE>  (31) 
-13.255

>  <name>  (31) 
30

>  <ligand_id>  (31) 
30

>  <original_smiles>  (31) 
[H]c1c([H])c([H])c2c(c1[H])C([H])([H])C([H])([H])C([H])([H])C2([H])N([H])C(=O)C1([H])N(C(=O)C([H])(N([H])C(=O)C([H])(N([H])C([H])([H])[H])C([H])([H])[H])C(C([H])([H])[H])(C([H])([H])[H])C([H])([H])[H])C([H])([H])c2c([H])c(OC([H])([H])C([H])([H])C([H])([H])[N+]3([H])C([H])([H])C([H])([H])C([H])([H])C([H])(C(=O)N([H])C([H])([H])C([H])([H])C(=O)N4C([H])([H])C([H])([H])C([H])([H])C([H])(n5nc(-c6c([H])c([H])c(Oc7c([H])c([H])c(F)c([H])c7F)c([H])c6[H])c(C(=O)N([H])[H])c5N([H])[H])C4([H])[H])C3([H])[H])c([H])c([H])c2C1([H])[H]

>  <smiles>  (31) 
[H]c1c([H])c([H])c2c(c1[H])C([H])([H])C([H])([H])C([H])([H])C2([H])N([H])C(=O)C1([H])N(C(=O)C([H])(N([H])C(=O)C([H])(N([H])C([H])([H])[H])C([H])([H])[H])C(C([H])([H])[H])(C([H])([H])[H])C([H])([H])[H])C([H])([H])c2c([H])c(OC([H])([H])C([H])([H])C([H])([H])[N+]3([H])C([H])([H])C([H])([H])C([H])([H])C([H])(C(=O)N([H])C([H])([H])C([H])([H])C(=O)N4C([H])([H])C([H])([H])C([H])([H])C([H])(n5nc(-c6c([H])c([H])c(Oc7c([H])c([H])c(F)c([H])c7F)c([H])c6[H])c(C(=O)N([H])[H])c5N([H])[H])C4([H])[H])C3([H])[H])c([H])c([H])c2C1([H])[H]

$$$$
31:0:0
     RDKit          3D

 97105  0  0  1  0  0  0  0  0999 V2000
  -29.9420  -23.3210   20.1150 C   0  0  0  0  0  0  0  0  0  0  0  0
  -29.5040  -24.4790   20.6490 C   0  0  0  0  0  3  0  0  0  0  0  0
  -31.0620  -22.4760   20.6720 C   0  0  0  0  0  2  0  0  0  0  0  0
  -29.3010  -22.5890   18.9550 C   0  0  0  0  0  2  0  0  0  0  0  0
  -30.7240  -21.0550   20.1810 C   0  0  0  0  0  3  0  0  0  0  0  0
  -30.0910  -21.2710   18.7760 C   0  0  2  0  0  0  0  0  0  0  0  0
  -31.1370  -21.4610   17.6550 C   0  0  0  0  0  1  0  0  0  0  0  0
  -29.1440  -20.1180   18.3860 C   0  0  0  0  0  1  0  0  0  0  0  0
  -28.2660  -25.2260   20.1890 C   0  0  0  0  0  2  0  0  0  0  0  0
  -28.4030  -26.6470   20.2850 O   0  0  0  0  0  0  0  0  0  0  0  0
  -24.5950  -31.8760   23.2340 C   0  0  0  0  0  0  0  0  0  0  0  0
  -27.2280  -27.3740   20.2360 C   0  0  0  0  0  0  0  0  0  0  0  0
  -23.3870  -30.4510   21.6150 C   0  0  0  0  0  3  0  0  0  0  0  0
  -24.8360  -28.8880   20.2190 C   0  0  0  0  0  0  0  0  0  0  0  0
  -25.9150  -30.7960   21.4170 C   0  0  0  0  0  2  0  0  0  0  0  0
  -25.9960  -29.4160   20.8000 C   0  0  0  0  0  0  0  0  0  0  0  0
  -27.1940  -28.6670   20.8050 C   0  0  0  0  0  3  0  0  0  0  0  0
  -26.0480  -26.8650   19.6400 C   0  0  0  0  0  3  0  0  0  0  0  0
  -24.8580  -27.6110   19.6370 C   0  0  0  0  0  3  0  0  0  0  0  0
  -23.5960  -29.7490   20.2470 C   0  0  0  0  0  2  0  0  0  0  0  0
  -24.6510  -31.0560   22.1470 N   0  0  0  0  0  0  0  0  0  0  0  0
  -23.5140  -32.1610   23.7660 O   0  0  0  0  0  0  0  0  0  0  0  0
  -22.7300  -29.4470   22.5900 C   0  0  0  0  0  0  0  0  0  0  0  0
  -21.4080  -29.2540   22.4490 N   0  0  0  0  0  0  0  0  0  0  0  0
  -23.4070  -28.8430   23.4270 O   0  0  0  0  0  0  0  0  0  0  0  0
  -20.9240  -29.7920   21.7440 H   0  0  0  0  0  0  0  0  0  0  0  0
  -18.0400  -28.0300   22.9040 C   0  0  0  0  0  0  0  0  0  0  0  0
  -20.5860  -28.3320   23.2310 C   0  0  0  0  0  3  0  0  0  0  0  0
  -20.7220  -26.8840   22.7070 C   0  0  0  0  0  2  0  0  0  0  0  0
  -19.6500  -26.5120   21.6770 C   0  0  0  0  0  2  0  0  0  0  0  0
  -18.2510  -26.6610   22.2810 C   0  0  0  0  0  2  0  0  0  0  0  0
  -19.1370  -28.8210   23.3360 C   0  0  0  0  0  0  0  0  0  0  0  0
  -18.8880  -30.1020   23.8750 C   0  0  0  0  0  3  0  0  0  0  0  0
  -17.5740  -30.5920   23.9900 C   0  0  0  0  0  3  0  0  0  0  0  0
  -16.4910  -29.7980   23.5760 C   0  0  0  0  0  3  0  0  0  0  0  0
  -16.7240  -28.5200   23.0380 C   0  0  0  0  0  3  0  0  0  0  0  0
  -25.8830  -32.5110   23.8450 C   0  0  0  0  0  3  0  0  0  0  0  0
  -25.5730  -33.9090   24.1720 N   0  0  0  0  0  0  0  0  0  0  0  0
  -25.9090  -34.9600   23.4130 C   0  0  0  0  0  0  0  0  0  0  0  0
  -26.5840  -34.8560   22.3850 O   0  0  0  0  0  0  0  0  0  0  0  0
  -24.9730  -34.0650   24.9690 H   0  0  0  0  0  0  0  0  0  0  0  0
  -24.1820  -36.7500   23.0420 C   0  0  0  0  0  1  0  0  0  0  0  0
  -25.4170  -36.3480   23.8640 C   0  0  0  0  0  3  0  0  0  0  0  0
  -27.5450  -37.2320   24.7080 C   0  0  0  0  0  1  0  0  0  0  0  0
  -26.4490  -37.4020   23.7590 N   0  0  0  0  0  0  0  0  0  0  0  0
  -26.0410  -38.3210   23.9060 H   0  0  0  0  0  0  0  0  0  0  0  0
  -26.4120  -31.7430   25.1170 C   0  0  1  0  0  0  0  0  0  0  0  0
  -25.3270  -31.5020   26.1930 C   0  0  0  0  0  1  0  0  0  0  0  0
  -26.9970  -30.3680   24.7200 C   0  0  0  0  0  1  0  0  0  0  0  0
  -27.5630  -32.5420   25.7710 C   0  0  0  0  0  1  0  0  0  0  0  0
  -31.8360  -19.9640   20.3090 C   0  0  0  0  0  3  0  0  0  0  0  0
  -31.7900  -19.3100   21.6430 N   0  0  0  0  0  4  0  0  0  0  0  0
  -31.5310  -20.0110   22.3190 H   0  0  0  0  0  0  0  0  0  0  0  0
  -32.7220  -19.0090   21.8790 H   0  0  0  0  0  0  0  0  0  0  0  0
  -30.5600  -17.9030   23.2660 C   0  0  0  0  0  1  0  0  0  0  0  0
  -30.8780  -18.1430   21.7800 C   0  0  0  0  0  3  0  0  0  0  0  0
  -31.4820  -16.8830   21.1100 C   0  0  0  0  0  2  0  0  0  0  0  0
  -30.5960  -15.6090   21.1530 C   0  0  0  0  0  2  0  0  0  0  0  0
  -31.1250  -14.4670   20.2640 C   0  0  0  0  0  0  0  0  0  0  0  0
  -30.6870  -12.3810   19.0160 C   0  0  0  0  0  2  0  0  0  0  0  0
  -29.7320  -12.6610   17.8390 C   0  0  0  0  0  2  0  0  0  0  0  0
  -28.2640  -12.5650   18.2970 C   0  0  0  0  0  2  0  0  0  0  0  0
  -27.9860  -13.3880   19.5830 C   0  0  0  0  0  3  0  0  0  0  0  0
  -29.0510  -13.1030   20.6660 C   0  0  0  0  0  2  0  0  0  0  0  0
  -30.3790  -13.3460   20.0810 N   0  0  0  0  0  0  0  0  0  0  0  0
  -32.2000  -14.6350   19.6810 O   0  0  0  0  0  0  0  0  0  0  0  0
  -25.6110  -14.0640   20.3150 C   0  0  0  0  0  0  0  0  0  0  0  0
  -24.5280  -13.3220   20.7050 C   0  0  0  0  0  0  0  0  0  0  0  0
  -24.9540  -11.9590   20.6800 C   0  0  0  0  0  0  0  0  0  0  0  0
  -26.6310  -13.1540   20.0810 N   0  0  0  0  0  0  0  0  0  0  0  0
  -26.2390  -11.8840   20.3570 N   0  0  0  0  0  0  0  0  0  0  0  0
  -24.1990  -10.7180   20.8910 C   0  0  0  0  0  0  0  0  0  0  0  0
  -24.6080   -9.7570   21.8430 C   0  0  0  0  0  3  0  0  0  0  0  0
  -23.8560   -8.5790   22.0420 C   0  0  0  0  0  3  0  0  0  0  0  0
  -22.6790   -8.3530   21.2870 C   0  0  0  0  0  0  0  0  0  0  0  0
  -22.2900   -9.3020   20.3250 C   0  0  0  0  0  3  0  0  0  0  0  0
  -23.0430  -10.4710   20.1250 C   0  0  0  0  0  3  0  0  0  0  0  0
  -21.9000   -7.2270   21.3930 O   0  0  0  0  0  0  0  0  0  0  0  0
  -21.8080   -6.5230   22.5670 C   0  0  0  0  0  0  0  0  0  0  0  0
  -21.3790   -7.1300   23.7680 C   0  0  0  0  0  3  0  0  0  0  0  0
  -21.2330   -6.3530   24.9350 C   0  0  0  0  0  3  0  0  0  0  0  0
  -21.5030   -4.9730   24.9020 C   0  0  0  0  0  0  0  0  0  0  0  0
  -21.9250   -4.3660   23.7060 C   0  0  0  0  0  3  0  0  0  0  0  0
  -22.0740   -5.1400   22.5410 C   0  0  0  0  0  0  0  0  0  0  0  0
  -22.4600   -4.5460   21.3860 F   0  0  0  0  0  0  0  0  0  0  0  0
  -21.3550   -4.2250   26.0210 F   0  0  0  0  0  0  0  0  0  0  0  0
  -23.1460  -13.8370   20.9910 C   0  0  0  0  0  0  0  0  0  0  0  0
  -22.4170  -13.1720   21.8800 N   0  0  0  0  0  0  0  0  0  0  0  0
  -22.7240  -14.8630   20.4600 O   0  0  0  0  0  0  0  0  0  0  0  0
  -22.7710  -12.3420   22.3300 H   0  0  0  0  0  0  0  0  0  0  0  0
  -21.4910  -13.5000   22.1140 H   0  0  0  0  0  0  0  0  0  0  0  0
  -25.8090  -15.4280   20.1220 N   0  0  0  0  0  0  0  0  0  0  0  0
  -25.0610  -16.1050   20.2330 H   0  0  0  0  0  0  0  0  0  0  0  0
  -26.6690  -15.8410   19.7850 H   0  0  0  0  0  0  0  0  0  0  0  0
  -33.2740  -20.4640   20.0240 C   0  0  0  0  0  2  0  0  0  0  0  0
  -35.6870  -19.8380   19.4570 C   0  0  0  0  0  1  0  0  0  0  0  0
  -34.2840  -19.3220   19.8030 C   0  0  0  0  0  2  0  0  0  0  0  0
  1  2  2  0
  1  3  1  0
  4  1  1  0
  5 51  1  0
  5  3  1  0
  6  4  1  0
  6  5  1  0
  6  7  1  6
  8  6  1  0
  9 10  1  0
  9  2  1  0
 11 22  2  0
 12 10  1  0
 12 17  1  0
 13 21  1  0
 13 23  1  0
 14 20  1  0
 14 16  1  0
 15 21  1  0
 16 17  2  0
 16 15  1  0
 18 12  2  0
 19 18  1  0
 19 14  2  0
 20 13  1  0
 21 11  1  0
 23 25  2  0
 24 23  1  0
 26 24  1  0
 27 36  2  0
 27 32  1  0
 28 24  1  0
 28 32  1  0
 29 28  1  0
 30 31  1  0
 30 29  1  0
 31 27  1  0
 32 33  2  0
 33 34  1  0
 35 34  2  0
 36 35  1  0
 37 11  1  0
 37 38  1  0
 37 47  1  0
 38 41  1  0
 39 43  1  0
 39 38  1  0
 40 39  2  0
 43 42  1  0
 45 43  1  0
 45 46  1  0
 45 44  1  0
 47 50  1  1
 47 48  1  0
 49 47  1  0
 51 95  1  0
 51 52  1  0
 52 56  1  0
 52 54  1  0
 52 53  1  0
 56 55  1  0
 57 58  1  0
 57 56  1  0
 59 58  1  0
 60 65  1  0
 61 62  1  0
 61 60  1  0
 63 62  1  0
 63 70  1  0
 63 64  1  0
 65 59  1  0
 65 64  1  0
 66 59  2  0
 67 68  2  0
 68 87  1  0
 69 68  1  0
 69 72  1  0
 70 67  1  0
 70 71  1  0
 71 69  2  0
 72 73  1  0
 73 74  2  0
 75 78  1  0
 75 74  1  0
 76 75  2  0
 77 76  1  0
 77 72  2  0
 78 79  1  0
 79 80  1  0
 80 81  2  0
 82 81  1  0
 82 86  1  0
 83 82  2  0
 84 79  2  0
 84 83  1  0
 85 84  1  0
 87 88  1  0
 88 91  1  0
 88 90  1  0
 89 87  2  0
 92 93  1  0
 92 67  1  0
 94 92  1  0
 96 97  1  0
 97 95  1  0
M  ISO  4   9 101  10 101  58 100  59 100
M  END
>  <TORSDO>  (32) 
F 24

>  <SCORE>  (32) 
-12.205

>  <name>  (32) 
31

>  <ligand_id>  (32) 
31

>  <original_smiles>  (32) 
[H]C(=C1C([H])([H])C([H])(C([H])(C([H])([H])C([H])([H])C([H])([H])[H])[N+]([H])([H])C([H])(C([H])([H])[H])C([H])([H])C([H])([H])C(=O)N2C([H])([H])C([H])([H])C([H])([H])C([H])(n3nc(-c4c([H])c([H])c(Oc5c([H])c([H])c(F)c([H])c5F)c([H])c4[H])c(C(=O)N([H])[H])c3N([H])[H])C2([H])[H])C(C([H])([H])[H])(C([H])([H])[H])C1([H])[H])C([H])([H])Oc1c([H])c([H])c2c(c1[H])C([H])([H])N(C(=O)C([H])(N([H])C(=O)C([H])(N([H])C([H])([H])[H])C([H])([H])[H])C(C([H])([H])[H])(C([H])([H])[H])C([H])([H])[H])C([H])(C(=O)N([H])C1([H])c3c([H])c([H])c([H])c([H])c3C([H])([H])C([H])([H])C1([H])[H])C2([H])[H]

>  <smiles>  (32) 
[H]C(=C1C([H])([H])C([H])(C([H])(C([H])([H])C([H])([H])C([H])([H])[H])[N+]([H])([H])C([H])(C([H])([H])[H])C([H])([H])C([H])([H])C(=O)N2C([H])([H])C([H])([H])C([H])([H])C([H])(n3nc(-c4c([H])c([H])c(Oc5c([H])c([H])c(F)c([H])c5F)c([H])c4[H])c(C(=O)N([H])[H])c3N([H])[H])C2([H])[H])C(C([H])([H])[H])(C([H])([H])[H])C1([H])[H])C([H])([H])Oc1c([H])c([H])c2c(c1[H])C([H])([H])N(C(=O)C([H])(N([H])C(=O)C([H])(N([H])C([H])([H])[H])C([H])([H])[H])C(C([H])([H])[H])(C([H])([H])[H])C([H])([H])[H])C([H])(C(=O)N([H])C1([H])c3c([H])c([H])c([H])c([H])c3C([H])([H])C([H])([H])C1([H])[H])C2([H])[H]

$$$$
32:0:0
     RDKit          3D

 90 98  0  0  1  0  0  0  0  0999 V2000
  -29.1670  -20.7100   20.7100 C   0  0  0  0  0  2  0  0  0  0  0  0
  -28.3950  -21.7190   18.5550 C   0  0  0  0  0  2  0  0  0  0  0  0
  -28.3030  -22.2040   20.0510 C   0  0  0  0  0  3  0  0  0  0  0  0
  -29.1640  -19.2250   18.6350 C   0  0  0  0  0  3  0  0  0  0  0  0
  -29.0700  -18.9420   20.1600 C   0  0  2  0  0  0  0  0  0  0  0  0
  -28.9670  -17.9610   17.7780 C   0  0  0  0  0  1  0  0  0  0  0  0
  -28.1310  -20.2600   18.2800 N   0  0  0  0  0  4  0  0  0  0  0  0
  -27.9250  -20.1660   17.2990 H   0  0  0  0  0  0  0  0  0  0  0  0
  -27.3190  -19.9670   18.8070 H   0  0  0  0  0  0  0  0  0  0  0  0
  -27.6780  -18.7180   20.3590 O   0  0  0  0  0  0  0  0  0  0  0  0
  -27.5180  -18.6580   21.2960 H   0  0  0  0  0  0  0  0  0  0  0  0
  -29.7380  -17.2580   20.7480 C   0  0  0  0  0  2  0  0  0  0  0  0
  -30.3360  -15.5940   20.2370 C   0  0  0  0  0  0  0  0  0  0  0  0
  -30.3890  -13.0770   19.4070 C   0  0  0  0  0  2  0  0  0  0  0  0
  -29.4920  -12.7880   18.1720 C   0  0  0  0  0  2  0  0  0  0  0  0
  -28.0590  -12.4540   18.6100 C   0  0  0  0  0  2  0  0  0  0  0  0
  -27.5720  -13.4200   19.7160 C   0  0  0  0  0  3  0  0  0  0  0  0
  -28.6050  -13.6610   20.8420 C   0  0  0  0  0  2  0  0  0  0  0  0
  -29.8160  -14.2370   20.2220 N   0  0  0  0  0  0  0  0  0  0  0  0
  -31.5240  -15.5330   19.8730 O   0  0  0  0  0  0  0  0  0  0  0  0
  -25.2020  -13.9260   20.4810 C   0  0  0  0  0  0  0  0  0  0  0  0
  -24.1530  -13.1310   20.8480 C   0  0  0  0  0  0  0  0  0  0  0  0
  -24.6400  -11.7870   20.8130 C   0  0  0  0  0  0  0  0  0  0  0  0
  -26.2560  -13.0680   20.2310 N   0  0  0  0  0  0  0  0  0  0  0  0
  -25.9330  -11.7750   20.4990 N   0  0  0  0  0  0  0  0  0  0  0  0
  -23.9290  -10.5140   21.0020 C   0  0  0  0  0  0  0  0  0  0  0  0
  -24.3680   -9.5530   21.9390 C   0  0  0  0  0  3  0  0  0  0  0  0
  -23.6540   -8.3490   22.1190 C   0  0  0  0  0  3  0  0  0  0  0  0
  -22.4850   -8.0970   21.3610 C   0  0  0  0  0  0  0  0  0  0  0  0
  -22.0650   -9.0470   20.4140 C   0  0  0  0  0  3  0  0  0  0  0  0
  -22.7800  -10.2430   20.2330 C   0  0  0  0  0  3  0  0  0  0  0  0
  -21.7420   -6.9450   21.4490 O   0  0  0  0  0  0  0  0  0  0  0  0
  -21.6910   -6.2060   22.6050 C   0  0  0  0  0  0  0  0  0  0  0  0
  -21.2340   -6.7580   23.8220 C   0  0  0  0  0  3  0  0  0  0  0  0
  -21.1320   -5.9460   24.9680 C   0  0  0  0  0  3  0  0  0  0  0  0
  -21.4760   -4.5830   24.8990 C   0  0  0  0  0  0  0  0  0  0  0  0
  -21.9240   -4.0300   23.6870 C   0  0  0  0  0  3  0  0  0  0  0  0
  -22.0280   -4.8400   22.5420 C   0  0  0  0  0  0  0  0  0  0  0  0
  -22.4400   -4.2960   21.3710 F   0  0  0  0  0  0  0  0  0  0  0  0
  -21.3720   -3.8000   25.9990 F   0  0  0  0  0  0  0  0  0  0  0  0
  -22.7500  -13.5880   21.1190 C   0  0  0  0  0  0  0  0  0  0  0  0
  -22.0290  -12.8810   21.9810 N   0  0  0  0  0  0  0  0  0  0  0  0
  -22.3020  -14.6110   20.6010 O   0  0  0  0  0  0  0  0  0  0  0  0
  -22.4070  -12.0550   22.4230 H   0  0  0  0  0  0  0  0  0  0  0  0
  -21.0880  -13.1690   22.2030 H   0  0  0  0  0  0  0  0  0  0  0  0
  -25.3460  -15.2990   20.3110 N   0  0  0  0  0  0  0  0  0  0  0  0
  -24.5740  -15.9440   20.4370 H   0  0  0  0  0  0  0  0  0  0  0  0
  -26.1960  -15.7580   20.0050 H   0  0  0  0  0  0  0  0  0  0  0  0
  -28.3670  -24.1140   19.8960 C   0  0  0  0  0  2  0  0  0  0  0  0
  -28.1180  -25.7130   20.4870 O   0  0  0  0  0  0  0  0  0  0  0  0
  -24.6020  -31.9190   23.2350 C   0  0  0  0  0  0  0  0  0  0  0  0
  -27.1480  -26.8810   20.2960 C   0  0  0  0  0  0  0  0  0  0  0  0
  -23.4190  -30.5090   21.6020 C   0  0  0  0  0  3  0  0  0  0  0  0
  -24.8730  -28.8600   20.2020 C   0  0  0  0  0  0  0  0  0  0  0  0
  -25.9930  -30.6670   21.4910 C   0  0  0  0  0  2  0  0  0  0  0  0
  -26.0570  -29.2380   20.8460 C   0  0  0  0  0  0  0  0  0  0  0  0
  -27.1750  -28.2680   20.8730 C   0  0  0  0  0  3  0  0  0  0  0  0
  -25.9420  -26.6960   19.5780 C   0  0  0  0  0  3  0  0  0  0  0  0
  -24.8500  -27.6150   19.5460 C   0  0  0  0  0  3  0  0  0  0  0  0
  -23.6620  -29.8010   20.2360 C   0  0  0  0  0  2  0  0  0  0  0  0
  -24.6930  -31.0640   22.1610 N   0  0  0  0  0  0  0  0  0  0  0  0
  -23.5080  -32.2240   23.7390 O   0  0  0  0  0  0  0  0  0  0  0  0
  -22.7010  -29.5380   22.5760 C   0  0  0  0  0  0  0  0  0  0  0  0
  -21.3680  -29.3890   22.4470 N   0  0  0  0  0  0  0  0  0  0  0  0
  -23.3520  -28.9180   23.4210 O   0  0  0  0  0  0  0  0  0  0  0  0
  -20.8950  -29.9380   21.7450 H   0  0  0  0  0  0  0  0  0  0  0  0
  -17.9720  -28.2090   22.9600 C   0  0  0  0  0  0  0  0  0  0  0  0
  -20.5340  -28.4630   23.2240 C   0  0  0  0  0  3  0  0  0  0  0  0
  -20.6270  -27.0260   22.6610 C   0  0  0  0  0  2  0  0  0  0  0  0
  -19.5260  -26.7030   21.6470 C   0  0  0  0  0  2  0  0  0  0  0  0
  -18.1430  -26.8570   22.2870 C   0  0  0  0  0  2  0  0  0  0  0  0
  -19.0950  -28.9700   23.3850 C   0  0  0  0  0  0  0  0  0  0  0  0
  -18.8770  -30.2330   23.9800 C   0  0  0  0  0  3  0  0  0  0  0  0
  -17.5730  -30.7340   24.1480 C   0  0  0  0  0  3  0  0  0  0  0  0
  -16.4660  -29.9720   23.7360 C   0  0  0  0  0  3  0  0  0  0  0  0
  -16.6670  -28.7100   23.1490 C   0  0  0  0  0  3  0  0  0  0  0  0
  -25.8660  -32.5680   23.8760 C   0  0  0  0  0  3  0  0  0  0  0  0
  -26.3440  -31.8290   25.1890 C   0  0  1  0  0  0  0  0  0  0  0  0
  -25.2240  -31.6330   26.2380 C   0  0  0  0  0  1  0  0  0  0  0  0
  -26.9230  -30.4350   24.8600 C   0  0  0  0  0  1  0  0  0  0  0  0
  -27.4890  -32.6300   25.8540 C   0  0  0  0  0  1  0  0  0  0  0  0
  -25.5540  -33.9780   24.1810 N   0  0  0  0  0  0  0  0  0  0  0  0
  -25.9110  -35.0280   23.4300 C   0  0  0  0  0  0  0  0  0  0  0  0
  -26.5980  -34.9120   22.4130 O   0  0  0  0  0  0  0  0  0  0  0  0
  -24.9440  -34.1410   24.9700 H   0  0  0  0  0  0  0  0  0  0  0  0
  -24.2150  -36.8510   23.0420 C   0  0  0  0  0  1  0  0  0  0  0  0
  -25.4360  -36.4280   23.8750 C   0  0  0  0  0  3  0  0  0  0  0  0
  -27.5630  -37.2970   24.7450 C   0  0  0  0  0  1  0  0  0  0  0  0
  -26.4840  -37.4680   23.7750 N   0  0  0  0  0  0  0  0  0  0  0  0
  -26.0870  -38.3950   23.9030 H   0  0  0  0  0  0  0  0  0  0  0  0
  2  3  1  0
  3 49  1  0
  3  1  1  0
  4  6  1  0
  4  5  1  0
  5 10  1  0
  5  1  1  0
  5 12  1  1
  7  2  1  0
  7  4  1  0
  7  9  1  0
  8  7  1  0
 10 11  1  0
 13 12  1  0
 14 19  1  0
 15 16  1  0
 15 14  1  0
 17 16  1  0
 17 24  1  0
 17 18  1  0
 19 13  1  0
 19 18  1  0
 20 13  2  0
 21 22  2  0
 22 41  1  0
 23 22  1  0
 23 26  1  0
 24 21  1  0
 24 25  1  0
 25 23  2  0
 26 27  1  0
 27 28  2  0
 29 32  1  0
 29 28  1  0
 30 29  2  0
 31 30  1  0
 31 26  2  0
 32 33  1  0
 33 34  1  0
 34 35  2  0
 36 35  1  0
 36 40  1  0
 37 36  2  0
 38 33  2  0
 38 37  1  0
 39 38  1  0
 41 42  1  0
 42 45  1  0
 42 44  1  0
 43 41  2  0
 46 47  1  0
 46 21  1  0
 48 46  1  0
 49 50  1  0
 51 62  2  0
 52 50  1  0
 52 57  1  0
 53 61  1  0
 53 63  1  0
 54 60  1  0
 54 56  1  0
 55 61  1  0
 56 57  2  0
 56 55  1  0
 58 52  2  0
 59 58  1  0
 59 54  2  0
 60 53  1  0
 61 51  1  0
 63 65  2  0
 64 63  1  0
 66 64  1  0
 67 76  2  0
 67 72  1  0
 68 64  1  0
 68 72  1  0
 69 68  1  0
 70 71  1  0
 70 69  1  0
 71 67  1  0
 72 73  2  0
 73 74  1  0
 75 74  2  0
 76 75  1  0
 77 51  1  0
 77 82  1  0
 77 78  1  0
 78 81  1  1
 78 79  1  0
 80 78  1  0
 82 85  1  0
 83 87  1  0
 83 82  1  0
 84 83  2  0
 87 86  1  0
 89 87  1  0
 89 90  1  0
 89 88  1  0
M  ISO  4  12 100  13 100  49 101  50 101
M  END
>  <TORSDO>  (33) 
F 19

>  <SCORE>  (33) 
-16.607

>  <name>  (33) 
32

>  <ligand_id>  (33) 
32

>  <original_smiles>  (33) 
[H]OC1(C([H])([H])C(=O)N2C([H])([H])C([H])([H])C([H])([H])C([H])(n3nc(-c4c([H])c([H])c(Oc5c([H])c([H])c(F)c([H])c5F)c([H])c4[H])c(C(=O)N([H])[H])c3N([H])[H])C2([H])[H])C([H])([H])C([H])(C([H])([H])Oc2c([H])c([H])c3c(c2[H])C([H])([H])N(C(=O)C([H])(N([H])C(=O)C([H])(N([H])C([H])([H])[H])C([H])([H])[H])C(C([H])([H])[H])(C([H])([H])[H])C([H])([H])[H])C([H])(C(=O)N([H])C2([H])c4c([H])c([H])c([H])c([H])c4C([H])([H])C([H])([H])C2([H])[H])C3([H])[H])C([H])([H])[N+]([H])([H])C1([H])C([H])([H])[H]

>  <smiles>  (33) 
[H]OC1(C([H])([H])C(=O)N2C([H])([H])C([H])([H])C([H])([H])C([H])(n3nc(-c4c([H])c([H])c(Oc5c([H])c([H])c(F)c([H])c5F)c([H])c4[H])c(C(=O)N([H])[H])c3N([H])[H])C2([H])[H])C([H])([H])C([H])(C([H])([H])Oc2c([H])c([H])c3c(c2[H])C([H])([H])N(C(=O)C([H])(N([H])C(=O)C([H])(N([H])C([H])([H])[H])C([H])([H])[H])C(C([H])([H])[H])(C([H])([H])[H])C([H])([H])[H])C([H])(C(=O)N([H])C2([H])c4c([H])c([H])c([H])c([H])c4C([H])([H])C([H])([H])C2([H])[H])C3([H])[H])C([H])([H])[N+]([H])([H])C1([H])C([H])([H])[H]

$$$$
33:0:0
     RDKit          3D

 96105  0  0  1  0  0  0  0  0999 V2000
  -30.0380  -22.6060   21.2700 C   0  0  0  0  0  3  0  0  0  0  0  0
  -31.6660  -21.5220   25.3890 C   0  0  0  0  0  2  0  0  0  0  0  0
  -31.6510  -20.4620   24.2870 C   0  0  0  0  0  2  0  0  0  0  0  0
  -31.7780  -22.6090   24.3150 C   0  0  0  0  0  3  0  0  0  0  0  0
  -31.5930  -21.5660   23.2140 C   0  0  0  0  0  3  0  0  0  0  0  0
  -30.5780  -23.3880   23.7770 C   0  0  0  0  0  3  0  0  0  0  0  0
  -30.2830  -22.2520   22.7640 C   0  0  0  0  0  3  0  0  0  0  0  0
  -29.4800  -23.8240   24.7470 C   0  0  0  0  0  1  0  0  0  0  0  0
  -29.6850  -21.4120   20.4450 N   0  0  0  0  0  4  0  0  0  0  0  0
  -28.9660  -20.8670   20.8910 H   0  0  0  0  0  0  0  0  0  0  0  0
  -29.2840  -21.7730   19.5950 H   0  0  0  0  0  0  0  0  0  0  0  0
  -30.7900  -20.5190   20.0050 C   0  0  0  0  0  2  0  0  0  0  0  0
  -31.1660  -19.4410   21.0470 C   0  0  0  0  0  2  0  0  0  0  0  0
  -30.3930  -18.1070   21.0030 C   0  0  0  0  0  2  0  0  0  0  0  0
  -31.1600  -16.9210   20.3800 C   0  0  0  0  0  2  0  0  0  0  0  0
  -30.6010  -15.5630   20.8690 C   0  0  0  0  0  2  0  0  0  0  0  0
  -31.3120  -14.3120   20.3130 C   0  0  0  0  0  0  0  0  0  0  0  0
  -31.1060  -11.9610   19.5720 C   0  0  0  0  0  2  0  0  0  0  0  0
  -30.2270  -11.8940   18.3080 C   0  0  0  0  0  2  0  0  0  0  0  0
  -28.7300  -11.8220   18.6780 C   0  0  0  0  0  2  0  0  0  0  0  0
  -28.3200  -12.9020   19.7140 C   0  0  0  0  0  3  0  0  0  0  0  0
  -29.3100  -12.9180   20.9000 C   0  0  0  0  0  2  0  0  0  0  0  0
  -30.6640  -13.1180   20.3620 N   0  0  0  0  0  0  0  0  0  0  0  0
  -32.4210  -14.4410   19.7860 O   0  0  0  0  0  0  0  0  0  0  0  0
  -25.9330  -13.6630   20.3170 C   0  0  0  0  0  0  0  0  0  0  0  0
  -24.8160  -12.9610   20.6840 C   0  0  0  0  0  0  0  0  0  0  0  0
  -25.2080  -11.5880   20.7240 C   0  0  0  0  0  0  0  0  0  0  0  0
  -26.9390  -12.7210   20.1600 N   0  0  0  0  0  0  0  0  0  0  0  0
  -26.5030  -11.4710   20.4580 N   0  0  0  0  0  0  0  0  0  0  0  0
  -24.4140  -10.3730   20.9450 C   0  0  0  0  0  0  0  0  0  0  0  0
  -24.6740   -9.5090   22.0320 C   0  0  0  0  0  3  0  0  0  0  0  0
  -23.8860   -8.3550   22.2330 C   0  0  0  0  0  3  0  0  0  0  0  0
  -22.8230   -8.0590   21.3470 C   0  0  0  0  0  0  0  0  0  0  0  0
  -22.5840   -8.9100   20.2540 C   0  0  0  0  0  3  0  0  0  0  0  0
  -23.3720  -10.0550   20.0510 C   0  0  0  0  0  3  0  0  0  0  0  0
  -22.0200   -6.9470   21.4500 O   0  0  0  0  0  0  0  0  0  0  0  0
  -21.6700   -6.4230   22.6670 C   0  0  0  0  0  0  0  0  0  0  0  0
  -20.9470   -7.1740   23.6210 C   0  0  0  0  0  3  0  0  0  0  0  0
  -20.5460   -6.5740   24.8330 C   0  0  0  0  0  3  0  0  0  0  0  0
  -20.8570   -5.2250   25.0880 C   0  0  0  0  0  0  0  0  0  0  0  0
  -21.5720   -4.4750   24.1370 C   0  0  0  0  0  3  0  0  0  0  0  0
  -21.9750   -5.0720   22.9290 C   0  0  0  0  0  0  0  0  0  0  0  0
  -22.6440   -4.3400   22.0070 F   0  0  0  0  0  0  0  0  0  0  0  0
  -20.4660   -4.6450   26.2470 F   0  0  0  0  0  0  0  0  0  0  0  0
  -23.4370  -13.5170   20.8940 C   0  0  0  0  0  0  0  0  0  0  0  0
  -22.6570  -12.9040   21.7760 N   0  0  0  0  0  0  0  0  0  0  0  0
  -23.0610  -14.5330   20.3080 O   0  0  0  0  0  0  0  0  0  0  0  0
  -22.9730  -12.0840   22.2710 H   0  0  0  0  0  0  0  0  0  0  0  0
  -21.7290  -13.2600   21.9580 H   0  0  0  0  0  0  0  0  0  0  0  0
  -26.1730  -15.0140   20.0860 N   0  0  0  0  0  0  0  0  0  0  0  0
  -25.4370  -15.7110   20.1440 H   0  0  0  0  0  0  0  0  0  0  0  0
  -27.0580  -15.3980   19.7810 H   0  0  0  0  0  0  0  0  0  0  0  0
  -28.9090  -23.6710   21.1560 C   0  0  0  0  0  2  0  0  0  0  0  0
  -28.9710  -24.6690   19.9770 C   0  0  0  0  0  2  0  0  0  0  0  0
  -28.1400  -25.9220   20.3240 C   0  0  0  0  0  2  0  0  0  0  0  0
  -28.1210  -26.9230   19.3030 O   0  0  0  0  0  0  0  0  0  0  0  0
  -24.7860  -31.5220   23.5780 C   0  0  0  0  0  0  0  0  0  0  0  0
  -27.0500  -27.7630   19.4760 C   0  0  0  0  0  0  0  0  0  0  0  0
  -23.4520  -30.6160   21.7010 C   0  0  0  0  0  3  0  0  0  0  0  0
  -24.7680  -29.3590   19.9110 C   0  0  0  0  0  0  0  0  0  0  0  0
  -25.9910  -30.8500   21.5050 C   0  0  0  0  0  2  0  0  0  0  0  0
  -25.9700  -29.6630   20.5670 C   0  0  0  0  0  0  0  0  0  0  0  0
  -27.1160  -28.8680   20.3530 C   0  0  0  0  0  3  0  0  0  0  0  0
  -25.8400  -27.4720   18.8140 C   0  0  0  0  0  3  0  0  0  0  0  0
  -24.6950  -28.2610   19.0350 C   0  0  0  0  0  3  0  0  0  0  0  0
  -23.5860  -30.2590   20.1960 C   0  0  0  0  0  2  0  0  0  0  0  0
  -24.7630  -30.9960   22.3210 N   0  0  0  0  0  0  0  0  0  0  0  0
  -23.7380  -31.7350   24.2030 O   0  0  0  0  0  0  0  0  0  0  0  0
  -22.7450  -29.4480   22.4270 C   0  0  0  0  0  0  0  0  0  0  0  0
  -21.4190  -29.3450   22.2410 N   0  0  0  0  0  0  0  0  0  0  0  0
  -23.3880  -28.6470   23.1100 O   0  0  0  0  0  0  0  0  0  0  0  0
  -20.9660  -30.0460   21.6720 H   0  0  0  0  0  0  0  0  0  0  0  0
  -18.0080  -28.1570   22.3640 C   0  0  0  0  0  0  0  0  0  0  0  0
  -20.5520  -28.3040   22.7940 C   0  0  0  0  0  3  0  0  0  0  0  0
  -20.6640  -26.9980   21.9750 C   0  0  0  0  0  2  0  0  0  0  0  0
  -19.6100  -26.8870   20.8690 C   0  0  0  0  0  2  0  0  0  0  0  0
  -18.1990  -26.9460   21.4650 C   0  0  0  0  0  2  0  0  0  0  0  0
  -19.1150  -28.8040   22.9740 C   0  0  0  0  0  0  0  0  0  0  0  0
  -18.8890  -29.9480   23.7700 C   0  0  0  0  0  3  0  0  0  0  0  0
  -17.5860  -30.4450   23.9620 C   0  0  0  0  0  3  0  0  0  0  0  0
  -16.4910  -29.7910   23.3680 C   0  0  0  0  0  3  0  0  0  0  0  0
  -16.7020  -28.6490   22.5760 C   0  0  0  0  0  3  0  0  0  0  0  0
  -26.1270  -31.9060   24.2810 C   0  0  0  0  0  3  0  0  0  0  0  0
  -26.5770  -30.8630   25.3760 C   0  0  1  0  0  0  0  0  0  0  0  0
  -25.4740  -30.5320   26.4080 C   0  0  0  0  0  1  0  0  0  0  0  0
  -27.0180  -29.5350   24.7140 C   0  0  0  0  0  1  0  0  0  0  0  0
  -27.8050  -31.4060   26.1430 C   0  0  0  0  0  1  0  0  0  0  0  0
  -25.9490  -33.2390   24.8720 N   0  0  0  0  0  0  0  0  0  0  0  0
  -26.3980  -34.3780   24.3280 C   0  0  0  0  0  0  0  0  0  0  0  0
  -27.0780  -34.4060   23.2980 O   0  0  0  0  0  0  0  0  0  0  0  0
  -25.3510  -33.2960   25.6840 H   0  0  0  0  0  0  0  0  0  0  0  0
  -24.8700  -36.3740   24.3110 C   0  0  0  0  0  1  0  0  0  0  0  0
  -26.0390  -35.6950   25.0400 C   0  0  0  0  0  3  0  0  0  0  0  0
  -28.2190  -36.1810   26.0580 C   0  0  0  0  0  1  0  0  0  0  0  0
  -27.1740  -36.6370   25.1450 N   0  0  0  0  0  0  0  0  0  0  0  0
  -26.8580  -37.5500   25.4580 H   0  0  0  0  0  0  0  0  0  0  0  0
  1 53  1  0
  3  2  1  0
  4  2  1  0
  5  3  1  0
  5  4  1  0
  6  4  1  0
  6  8  1  0
  7  1  1  0
  7  5  1  0
  7  6  1  0
  9 10  1  0
  9  1  1  0
 11  9  1  0
 12  9  1  0
 12 13  1  0
 14 13  1  0
 15 16  1  0
 15 14  1  0
 17 23  1  0
 17 16  1  0
 18 23  1  0
 19 20  1  0
 19 18  1  0
 21 20  1  0
 21 28  1  0
 21 22  1  0
 23 22  1  0
 24 17  2  0
 25 26  2  0
 26 27  1  0
 26 45  1  0
 27 30  1  0
 28 25  1  0
 28 29  1  0
 29 27  2  0
 30 31  1  0
 31 32  2  0
 33 36  1  0
 33 32  1  0
 34 33  2  0
 35 34  1  0
 35 30  2  0
 36 37  1  0
 37 42  2  0
 37 38  1  0
 38 39  2  0
 39 40  1  0
 40 44  1  0
 41 40  2  0
 42 41  1  0
 43 42  1  0
 45 46  1  0
 46 49  1  0
 46 48  1  0
 47 45  2  0
 50 51  1  0
 50 25  1  0
 52 50  1  0
 54 55  1  0
 54 53  1  0
 56 58  1  0
 56 55  1  0
 57 68  2  0
 58 63  1  0
 59 67  1  0
 59 69  1  0
 60 66  1  0
 60 62  1  0
 61 67  1  0
 62 61  1  0
 63 62  2  0
 64 65  1  0
 64 58  2  0
 65 60  2  0
 66 59  1  0
 67 57  1  0
 69 71  2  0
 70 69  1  0
 72 70  1  0
 73 82  2  0
 73 78  1  0
 74 70  1  0
 74 78  1  0
 75 74  1  0
 76 77  1  0
 76 75  1  0
 77 73  1  0
 78 79  2  0
 79 80  1  0
 81 80  2  0
 82 81  1  0
 83 57  1  0
 83 88  1  0
 83 84  1  0
 84 87  1  1
 84 85  1  0
 86 84  1  0
 88 91  1  0
 89 88  1  0
 89 93  1  0
 90 89  2  0
 93 92  1  0
 93 95  1  0
 95 96  1  0
 95 94  1  0
M  ISO  4  16 100  17 100  55 101  56 101
M  END
>  <TORSDO>  (34) 
F 26

>  <SCORE>  (34) 
-6.774

>  <name>  (34) 
33

>  <ligand_id>  (34) 
33

>  <original_smiles>  (34) 
[H]c1c([H])c([H])c2c(c1[H])C([H])([H])C([H])([H])C([H])([H])C2([H])N([H])C(=O)C1([H])N(C(=O)C([H])(N([H])C(=O)C([H])(N([H])C([H])([H])[H])C([H])([H])[H])C(C([H])([H])[H])(C([H])([H])[H])C([H])([H])[H])C([H])([H])c2c([H])c(OC([H])([H])C([H])([H])C([H])([H])C([H])(C3([H])C([H])(C([H])([H])[H])C4([H])C([H])([H])C([H])([H])C43[H])[N+]([H])([H])C([H])([H])C([H])([H])C([H])([H])C([H])([H])C([H])([H])C(=O)N3C([H])([H])C([H])([H])C([H])([H])C([H])(n4nc(-c5c([H])c([H])c(Oc6c([H])c([H])c(F)c([H])c6F)c([H])c5[H])c(C(=O)N([H])[H])c4N([H])[H])C3([H])[H])c([H])c([H])c2C1([H])[H]

>  <smiles>  (34) 
[H]c1c([H])c([H])c2c(c1[H])C([H])([H])C([H])([H])C([H])([H])C2([H])N([H])C(=O)C1([H])N(C(=O)C([H])(N([H])C(=O)C([H])(N([H])C([H])([H])[H])C([H])([H])[H])C(C([H])([H])[H])(C([H])([H])[H])C([H])([H])[H])C([H])([H])c2c([H])c(OC([H])([H])C([H])([H])C([H])([H])C([H])(C3([H])C([H])(C([H])([H])[H])C4([H])C([H])([H])C([H])([H])C43[H])[N+]([H])([H])C([H])([H])C([H])([H])C([H])([H])C([H])([H])C([H])([H])C(=O)N3C([H])([H])C([H])([H])C([H])([H])C([H])(n4nc(-c5c([H])c([H])c(Oc6c([H])c([H])c(F)c([H])c6F)c([H])c5[H])c(C(=O)N([H])[H])c4N([H])[H])C3([H])[H])c([H])c([H])c2C1([H])[H]

$$$$
34:0:0
     RDKit          3D

 93101  0  0  1  0  0  0  0  0999 V2000
  -31.4510  -20.6380   20.1730 C   0  0  0  0  0  0  0  0  0  0  0  0
  -31.5370  -21.5810   19.2270 N   0  0  0  0  0  0  0  0  0  0  0  0
  -31.7420  -20.8430   21.3530 O   0  0  0  0  0  0  0  0  0  0  0  0
  -31.3510  -21.2920   18.2760 H   0  0  0  0  0  0  0  0  0  0  0  0
  -30.8850  -19.2870   19.7150 C   0  0  0  0  0  2  0  0  0  0  0  0
  -30.6310  -16.6910   21.6000 C   0  0  0  0  0  2  0  0  0  0  0  0
  -29.6290  -16.4890   19.2970 C   0  0  0  0  0  2  0  0  0  0  0  0
  -29.9080  -18.0480   21.7780 C   0  0  0  0  0  2  0  0  0  0  0  0
  -28.8460  -17.7880   19.5150 C   0  0  0  0  0  2  0  0  0  0  0  0
  -29.8770  -15.7490   20.6310 C   0  0  0  0  0  3  0  0  0  0  0  0
  -29.5910  -18.7780   20.4420 C   0  0  2  0  0  0  0  0  0  0  0  0
  -28.6050  -19.9380   20.7260 C   0  0  0  0  0  1  0  0  0  0  0  0
  -30.6630  -14.4540   20.3230 C   0  0  0  0  0  0  0  0  0  0  0  0
  -30.3860  -12.2680   19.2480 C   0  0  0  0  0  2  0  0  0  0  0  0
  -29.4540  -12.4820   18.0360 C   0  0  0  0  0  2  0  0  0  0  0  0
  -27.9730  -12.3620   18.4510 C   0  0  0  0  0  2  0  0  0  0  0  0
  -27.6300  -13.1970   19.7130 C   0  0  0  0  0  3  0  0  0  0  0  0
  -28.6840  -12.9730   20.8220 C   0  0  0  0  0  2  0  0  0  0  0  0
  -30.0130  -13.2610   20.2650 N   0  0  0  0  0  0  0  0  0  0  0  0
  -31.8230  -14.5900   19.9230 O   0  0  0  0  0  0  0  0  0  0  0  0
  -25.2240  -13.8150   20.3870 C   0  0  0  0  0  0  0  0  0  0  0  0
  -24.1560  -13.0460   20.7630 C   0  0  0  0  0  0  0  0  0  0  0  0
  -24.6220  -11.6970   20.7630 C   0  0  0  0  0  0  0  0  0  0  0  0
  -26.2740  -12.9310   20.1850 N   0  0  0  0  0  0  0  0  0  0  0  0
  -25.9150  -11.6550   20.4660 N   0  0  0  0  0  0  0  0  0  0  0  0
  -23.9000  -10.4370   20.9740 C   0  0  0  0  0  0  0  0  0  0  0  0
  -24.3390   -9.4840   21.9200 C   0  0  0  0  0  3  0  0  0  0  0  0
  -23.6180   -8.2880   22.1180 C   0  0  0  0  0  3  0  0  0  0  0  0
  -22.4440   -8.0350   21.3690 C   0  0  0  0  0  0  0  0  0  0  0  0
  -22.0250   -8.9760   20.4110 C   0  0  0  0  0  3  0  0  0  0  0  0
  -22.7460  -10.1640   20.2130 C   0  0  0  0  0  3  0  0  0  0  0  0
  -21.6940   -6.8880   21.4750 O   0  0  0  0  0  0  0  0  0  0  0  0
  -21.6600   -6.1560   22.6350 C   0  0  0  0  0  0  0  0  0  0  0  0
  -21.2470   -6.7220   23.8610 C   0  0  0  0  0  3  0  0  0  0  0  0
  -21.1580   -5.9160   25.0130 C   0  0  0  0  0  3  0  0  0  0  0  0
  -21.4730   -4.5450   24.9420 C   0  0  0  0  0  0  0  0  0  0  0  0
  -21.8800   -3.9800   23.7200 C   0  0  0  0  0  3  0  0  0  0  0  0
  -21.9690   -4.7820   22.5690 C   0  0  0  0  0  0  0  0  0  0  0  0
  -22.3410   -4.2270   21.3910 F   0  0  0  0  0  0  0  0  0  0  0  0
  -21.3820   -3.7690   26.0460 F   0  0  0  0  0  0  0  0  0  0  0  0
  -22.7540  -13.5230   21.0160 C   0  0  0  0  0  0  0  0  0  0  0  0
  -22.0250  -12.8420   21.8940 N   0  0  0  0  0  0  0  0  0  0  0  0
  -22.3130  -14.5340   20.4710 O   0  0  0  0  0  0  0  0  0  0  0  0
  -22.3940  -12.0240   22.3550 H   0  0  0  0  0  0  0  0  0  0  0  0
  -21.0850  -13.1430   22.1070 H   0  0  0  0  0  0  0  0  0  0  0  0
  -25.3850  -15.1820   20.1830 N   0  0  0  0  0  0  0  0  0  0  0  0
  -24.6190  -15.8390   20.2750 H   0  0  0  0  0  0  0  0  0  0  0  0
  -26.2430  -15.6180   19.8680 H   0  0  0  0  0  0  0  0  0  0  0  0
  -31.5550  -23.0160   19.4740 C   0  0  0  0  0  2  0  0  0  0  0  0
  -30.1140  -23.5440   19.3790 C   0  0  0  0  0  2  0  0  0  0  0  0
  -29.9700  -25.0200   19.7600 C   0  0  0  0  0  2  0  0  0  0  0  0
  -28.5200  -25.5000   19.6270 C   0  0  0  0  0  2  0  0  0  0  0  0
  -28.4470  -26.8160   20.1470 O   0  0  0  0  0  0  0  0  0  0  0  0
  -24.5880  -31.8810   23.2470 C   0  0  0  0  0  0  0  0  0  0  0  0
  -27.2320  -27.4650   20.1520 C   0  0  0  0  0  0  0  0  0  0  0  0
  -23.3740  -30.4820   21.6060 C   0  0  0  0  0  3  0  0  0  0  0  0
  -24.8220  -28.9410   20.1830 C   0  0  0  0  0  0  0  0  0  0  0  0
  -25.8970  -30.8440   21.4020 C   0  0  0  0  0  2  0  0  0  0  0  0
  -25.9780  -29.4730   20.7650 C   0  0  0  0  0  0  0  0  0  0  0  0
  -27.1810  -28.7390   20.7510 C   0  0  0  0  0  3  0  0  0  0  0  0
  -26.0530  -26.9300   19.5790 C   0  0  0  0  0  3  0  0  0  0  0  0
  -24.8530  -27.6650   19.5930 C   0  0  0  0  0  3  0  0  0  0  0  0
  -23.5780  -29.7980   20.2280 C   0  0  0  0  0  2  0  0  0  0  0  0
  -24.6380  -31.0840   22.1440 N   0  0  0  0  0  0  0  0  0  0  0  0
  -23.5090  -32.1560   23.7910 O   0  0  0  0  0  0  0  0  0  0  0  0
  -22.7250  -29.4620   22.5680 C   0  0  0  0  0  0  0  0  0  0  0  0
  -21.4000  -29.2810   22.4380 N   0  0  0  0  0  0  0  0  0  0  0  0
  -23.4070  -28.8370   23.3840 O   0  0  0  0  0  0  0  0  0  0  0  0
  -20.9120  -29.8380   21.7510 H   0  0  0  0  0  0  0  0  0  0  0  0
  -18.0250  -28.0930   22.9250 C   0  0  0  0  0  0  0  0  0  0  0  0
  -20.5820  -28.3450   23.2070 C   0  0  0  0  0  3  0  0  0  0  0  0
  -20.6830  -26.9130   22.6320 C   0  0  0  0  0  2  0  0  0  0  0  0
  -19.5840  -26.5920   21.6150 C   0  0  0  0  0  2  0  0  0  0  0  0
  -18.2010  -26.7410   22.2540 C   0  0  0  0  0  2  0  0  0  0  0  0
  -19.1430  -28.8530   23.3590 C   0  0  0  0  0  0  0  0  0  0  0  0
  -18.9260  -30.1190   23.9440 C   0  0  0  0  0  3  0  0  0  0  0  0
  -17.6220  -30.6240   24.1030 C   0  0  0  0  0  3  0  0  0  0  0  0
  -16.5180  -29.8620   23.6870 C   0  0  0  0  0  3  0  0  0  0  0  0
  -16.7190  -28.5970   23.1040 C   0  0  0  0  0  3  0  0  0  0  0  0
  -25.8780  -32.5070   23.8650 C   0  0  0  0  0  3  0  0  0  0  0  0
  -25.5760  -33.9050   24.1960 N   0  0  0  0  0  0  0  0  0  0  0  0
  -25.9100  -34.9550   23.4330 C   0  0  0  0  0  0  0  0  0  0  0  0
  -26.5760  -34.8480   22.4000 O   0  0  0  0  0  0  0  0  0  0  0  0
  -24.9850  -34.0620   24.9990 H   0  0  0  0  0  0  0  0  0  0  0  0
  -24.1840  -36.7500   23.0790 C   0  0  0  0  0  1  0  0  0  0  0  0
  -25.4260  -36.3450   23.8890 C   0  0  0  0  0  3  0  0  0  0  0  0
  -27.5640  -37.2250   24.7130 C   0  0  0  0  0  1  0  0  0  0  0  0
  -26.4610  -37.3950   23.7730 N   0  0  0  0  0  0  0  0  0  0  0  0
  -26.0570  -38.3170   23.9210 H   0  0  0  0  0  0  0  0  0  0  0  0
  -26.3980  -31.7300   25.1370 C   0  0  1  0  0  0  0  0  0  0  0  0
  -25.3080  -31.4920   26.2080 C   0  0  0  0  0  1  0  0  0  0  0  0
  -26.9750  -30.3540   24.7360 C   0  0  0  0  0  1  0  0  0  0  0  0
  -27.5530  -32.5200   25.7980 C   0  0  0  0  0  1  0  0  0  0  0  0
  1  3  2  0
  2 49  1  0
  2  1  1  0
  4  2  1  0
  5  1  1  0
  5 11  1  0
  6  8  1  0
  7  9  1  0
  7 10  1  0
  9 11  1  0
 10 13  1  0
 10  6  1  0
 11 12  1  1
 11  8  1  0
 14 19  1  0
 15 16  1  0
 15 14  1  0
 17 16  1  0
 17 24  1  0
 17 18  1  0
 19 13  1  0
 19 18  1  0
 20 13  2  0
 21 22  2  0
 22 23  1  0
 22 41  1  0
 23 26  1  0
 24 21  1  0
 24 25  1  0
 25 23  2  0
 26 27  1  0
 27 28  2  0
 29 32  1  0
 29 28  1  0
 30 29  2  0
 31 30  1  0
 31 26  2  0
 32 33  1  0
 33 34  1  0
 34 35  2  0
 36 35  1  0
 36 40  1  0
 37 36  2  0
 38 33  2  0
 38 37  1  0
 39 38  1  0
 41 42  1  0
 42 45  1  0
 42 44  1  0
 43 41  2  0
 46 47  1  0
 46 21  1  0
 48 46  1  0
 50 49  1  0
 50 51  1  0
 52 51  1  0
 52 53  1  0
 53 55  1  0
 54 65  2  0
 55 60  1  0
 56 64  1  0
 56 66  1  0
 57 63  1  0
 57 59  1  0
 58 64  1  0
 59 58  1  0
 60 59  2  0
 61 62  1  0
 61 55  2  0
 62 57  2  0
 63 56  1  0
 64 54  1  0
 66 68  2  0
 67 66  1  0
 69 67  1  0
 70 79  2  0
 70 75  1  0
 71 67  1  0
 71 75  1  0
 72 71  1  0
 73 74  1  0
 73 72  1  0
 74 70  1  0
 75 76  2  0
 76 77  1  0
 78 77  2  0
 79 78  1  0
 80 54  1  0
 80 81  1  0
 80 90  1  0
 81 84  1  0
 82 86  1  0
 82 81  1  0
 83 82  2  0
 86 85  1  0
 88 86  1  0
 88 89  1  0
 88 87  1  0
 90 93  1  1
 90 91  1  0
 92 90  1  0
M  ISO  4  10 100  13 100  52 101  53 101
M  END
>  <TORSDO>  (35) 
F 22

>  <SCORE>  (35) 
-13.026

>  <name>  (35) 
34

>  <ligand_id>  (35) 
34

>  <original_smiles>  (35) 
[H]c1c([H])c([H])c2c(c1[H])C([H])([H])C([H])([H])C([H])([H])C2([H])N([H])C(=O)C1([H])N(C(=O)C([H])(N([H])C(=O)C([H])(N([H])C([H])([H])[H])C([H])([H])[H])C(C([H])([H])[H])(C([H])([H])[H])C([H])([H])[H])C([H])([H])c2c([H])c(OC([H])([H])C([H])([H])C([H])([H])C([H])([H])N([H])C(=O)C([H])([H])C3(C([H])([H])[H])C([H])([H])C([H])([H])C([H])(C(=O)N4C([H])([H])C([H])([H])C([H])([H])C([H])(n5nc(-c6c([H])c([H])c(Oc7c([H])c([H])c(F)c([H])c7F)c([H])c6[H])c(C(=O)N([H])[H])c5N([H])[H])C4([H])[H])C([H])([H])C3([H])[H])c([H])c([H])c2C1([H])[H]

>  <smiles>  (35) 
[H]c1c([H])c([H])c2c(c1[H])C([H])([H])C([H])([H])C([H])([H])C2([H])N([H])C(=O)C1([H])N(C(=O)C([H])(N([H])C(=O)C([H])(N([H])C([H])([H])[H])C([H])([H])[H])C(C([H])([H])[H])(C([H])([H])[H])C([H])([H])[H])C([H])([H])c2c([H])c(OC([H])([H])C([H])([H])C([H])([H])C([H])([H])N([H])C(=O)C([H])([H])C3(C([H])([H])[H])C([H])([H])C([H])([H])C([H])(C(=O)N4C([H])([H])C([H])([H])C([H])([H])C([H])(n5nc(-c6c([H])c([H])c(Oc7c([H])c([H])c(F)c([H])c7F)c([H])c6[H])c(C(=O)N([H])[H])c5N([H])[H])C4([H])[H])C([H])([H])C3([H])[H])c([H])c([H])c2C1([H])[H]

$$$$
35:0:0
     RDKit          3D

 88 96  0  0  1  0  0  0  0  0999 V2000
  -28.9670  -23.2170   18.7780 C   0  0  0  0  0  2  0  0  0  0  0  0
  -29.5460  -21.7700   18.8530 C   0  0  0  0  0  2  0  0  0  0  0  0
  -28.7390  -22.4270   20.9740 C   0  0  0  0  0  2  0  0  0  0  0  0
  -29.0050  -23.7840   20.2080 C   0  0  0  0  0  3  0  0  0  0  0  0
  -29.4660  -21.3090   20.2660 N   0  0  1  0  0  4  0  0  0  0  0  0
  -30.4090  -21.3430   20.6260 H   0  0  0  0  0  0  0  0  0  0  0  0
  -28.0170  -25.0050   20.5310 C   0  0  0  0  0  2  0  0  0  0  0  0
  -28.2990  -26.4190   20.1440 O   0  0  0  0  0  0  0  0  0  0  0  0
  -24.6400  -31.8770   23.2220 C   0  0  0  0  0  0  0  0  0  0  0  0
  -27.2010  -27.3000   20.1320 C   0  0  0  0  0  0  0  0  0  0  0  0
  -23.4170  -30.4810   21.5980 C   0  0  0  0  0  3  0  0  0  0  0  0
  -24.8470  -28.9290   20.1570 C   0  0  0  0  0  0  0  0  0  0  0  0
  -25.9570  -30.7860   21.3910 C   0  0  0  0  0  2  0  0  0  0  0  0
  -26.0260  -29.4060   20.7430 C   0  0  0  0  0  0  0  0  0  0  0  0
  -27.2070  -28.6040   20.7240 C   0  0  0  0  0  3  0  0  0  0  0  0
  -26.0040  -26.8900   19.5020 C   0  0  0  0  0  3  0  0  0  0  0  0
  -24.8390  -27.6760   19.5270 C   0  0  0  0  0  3  0  0  0  0  0  0
  -23.6150  -29.8080   20.2140 C   0  0  0  0  0  2  0  0  0  0  0  0
  -24.6920  -31.0630   22.1280 N   0  0  0  0  0  0  0  0  0  0  0  0
  -23.5620  -32.1610   23.7640 O   0  0  0  0  0  0  0  0  0  0  0  0
  -22.7630  -29.4670   22.5650 C   0  0  0  0  0  0  0  0  0  0  0  0
  -21.4360  -29.2950   22.4520 N   0  0  0  0  0  0  0  0  0  0  0  0
  -23.4470  -28.8350   23.3730 O   0  0  0  0  0  0  0  0  0  0  0  0
  -20.9390  -29.8610   21.7760 H   0  0  0  0  0  0  0  0  0  0  0  0
  -18.0620  -28.0910   22.9650 C   0  0  0  0  0  0  0  0  0  0  0  0
  -20.6220  -28.3580   23.2290 C   0  0  0  0  0  3  0  0  0  0  0  0
  -20.7270  -26.9260   22.6600 C   0  0  0  0  0  2  0  0  0  0  0  0
  -19.6250  -26.5990   21.6480 C   0  0  0  0  0  2  0  0  0  0  0  0
  -18.2420  -26.7430   22.2890 C   0  0  0  0  0  2  0  0  0  0  0  0
  -19.1800  -28.8570   23.3880 C   0  0  0  0  0  0  0  0  0  0  0  0
  -18.9610  -30.1230   23.9760 C   0  0  0  0  0  3  0  0  0  0  0  0
  -17.6560  -30.6230   24.1440 C   0  0  0  0  0  3  0  0  0  0  0  0
  -16.5520  -29.8540   23.7380 C   0  0  0  0  0  3  0  0  0  0  0  0
  -16.7560  -28.5910   23.1530 C   0  0  0  0  0  3  0  0  0  0  0  0
  -25.9320  -32.5070   23.8300 C   0  0  0  0  0  3  0  0  0  0  0  0
  -25.6210  -33.9020   24.1800 N   0  0  0  0  0  0  0  0  0  0  0  0
  -25.9350  -34.9620   23.4240 C   0  0  0  0  0  0  0  0  0  0  0  0
  -26.5860  -34.8710   22.3800 O   0  0  0  0  0  0  0  0  0  0  0  0
  -25.0410  -34.0460   24.9920 H   0  0  0  0  0  0  0  0  0  0  0  0
  -24.1880  -36.7480   23.1250 C   0  0  0  0  0  1  0  0  0  0  0  0
  -25.4500  -36.3440   23.9050 C   0  0  0  0  0  3  0  0  0  0  0  0
  -27.5990  -37.2300   24.6920 C   0  0  0  0  0  1  0  0  0  0  0  0
  -26.4740  -37.4040   23.7780 N   0  0  0  0  0  0  0  0  0  0  0  0
  -26.0680  -38.3200   23.9450 H   0  0  0  0  0  0  0  0  0  0  0  0
  -26.4650  -31.7250   25.0910 C   0  0  1  0  0  0  0  0  0  0  0  0
  -25.3880  -31.4810   26.1740 C   0  0  0  0  0  1  0  0  0  0  0  0
  -27.0430  -30.3520   24.6810 C   0  0  0  0  0  1  0  0  0  0  0  0
  -27.6250  -32.5130   25.7430 C   0  0  0  0  0  1  0  0  0  0  0  0
  -28.9770  -19.8730   20.4820 C   0  0  0  0  0  3  0  0  0  0  0  0
  -30.0150  -18.6750   20.2450 C   0  0  0  0  0  3  0  0  0  0  0  0
  -29.4850  -17.1630   20.1130 C   0  0  0  0  0  2  0  0  0  0  0  0
  -30.0020  -15.9680   21.0530 C   0  0  0  0  0  2  0  0  0  0  0  0
  -30.6240  -14.6520   20.4120 C   0  0  0  0  0  0  0  0  0  0  0  0
  -30.3630  -12.4100   19.3440 C   0  0  0  0  0  2  0  0  0  0  0  0
  -29.4230  -12.5420   18.1250 C   0  0  0  0  0  2  0  0  0  0  0  0
  -27.9490  -12.4030   18.5520 C   0  0  0  0  0  2  0  0  0  0  0  0
  -27.6050  -13.2640   19.7980 C   0  0  0  0  0  3  0  0  0  0  0  0
  -28.6650  -13.1050   20.9080 C   0  0  0  0  0  2  0  0  0  0  0  0
  -29.9730  -13.4420   20.3300 N   0  0  0  0  0  0  0  0  0  0  0  0
  -31.7520  -14.7660   19.9260 O   0  0  0  0  0  0  0  0  0  0  0  0
  -25.2150  -13.8760   20.5180 C   0  0  0  0  0  0  0  0  0  0  0  0
  -24.1440  -13.1110   20.8910 C   0  0  0  0  0  0  0  0  0  0  0  0
  -24.5980  -11.7570   20.8650 C   0  0  0  0  0  0  0  0  0  0  0  0
  -26.2560  -12.9890   20.2890 N   0  0  0  0  0  0  0  0  0  0  0  0
  -25.8880  -11.7090   20.5580 N   0  0  0  0  0  0  0  0  0  0  0  0
  -23.8650  -10.5000   21.0670 C   0  0  0  0  0  0  0  0  0  0  0  0
  -24.3100   -9.5210   21.9840 C   0  0  0  0  0  3  0  0  0  0  0  0
  -23.5760   -8.3280   22.1730 C   0  0  0  0  0  3  0  0  0  0  0  0
  -22.3840   -8.1060   21.4420 C   0  0  0  0  0  0  0  0  0  0  0  0
  -21.9590   -9.0730   20.5130 C   0  0  0  0  0  3  0  0  0  0  0  0
  -22.6920  -10.2560   20.3240 C   0  0  0  0  0  3  0  0  0  0  0  0
  -21.6230   -6.9640   21.5370 O   0  0  0  0  0  0  0  0  0  0  0  0
  -21.6100   -6.2020   22.6760 C   0  0  0  0  0  0  0  0  0  0  0  0
  -21.2570   -6.7430   23.9310 C   0  0  0  0  0  3  0  0  0  0  0  0
  -21.1900   -5.9080   25.0640 C   0  0  0  0  0  3  0  0  0  0  0  0
  -21.4680   -4.5340   24.9440 C   0  0  0  0  0  0  0  0  0  0  0  0
  -21.8150   -3.9920   23.6950 C   0  0  0  0  0  3  0  0  0  0  0  0
  -21.8840   -4.8240   22.5620 C   0  0  0  0  0  0  0  0  0  0  0  0
  -22.2000   -4.2940   21.3560 F   0  0  0  0  0  0  0  0  0  0  0  0
  -21.3970   -3.7300   26.0310 F   0  0  0  0  0  0  0  0  0  0  0  0
  -22.7490  -13.5990   21.1630 C   0  0  0  0  0  0  0  0  0  0  0  0
  -22.0190  -12.9140   22.0380 N   0  0  0  0  0  0  0  0  0  0  0  0
  -22.3140  -14.6210   20.6360 O   0  0  0  0  0  0  0  0  0  0  0  0
  -22.3840  -12.0860   22.4840 H   0  0  0  0  0  0  0  0  0  0  0  0
  -21.0860  -13.2250   22.2690 H   0  0  0  0  0  0  0  0  0  0  0  0
  -25.3850  -15.2470   20.3350 N   0  0  0  0  0  0  0  0  0  0  0  0
  -24.6250  -15.9050   20.4650 H   0  0  0  0  0  0  0  0  0  0  0  0
  -26.2450  -15.6820   20.0290 H   0  0  0  0  0  0  0  0  0  0  0  0
  1  2  1  0
  1  4  1  0
  2  5  1  0
  4  7  1  0
  4  3  1  0
  5 49  1  0
  5  6  1  1
  5  3  1  0
  8  7  1  0
  9 20  2  0
 10  8  1  0
 10 15  1  0
 11 19  1  0
 11 21  1  0
 12 18  1  0
 12 14  1  0
 13 19  1  0
 14 13  1  0
 15 14  2  0
 16 17  1  0
 16 10  2  0
 17 12  2  0
 18 11  1  0
 19  9  1  0
 21 23  2  0
 22 21  1  0
 24 22  1  0
 25 34  2  0
 25 30  1  0
 26 22  1  0
 26 30  1  0
 27 26  1  0
 28 29  1  0
 28 27  1  0
 29 25  1  0
 30 31  2  0
 31 32  1  0
 33 32  2  0
 34 33  1  0
 35  9  1  0
 35 36  1  0
 35 45  1  0
 36 39  1  0
 37 41  1  0
 37 36  1  0
 38 37  2  0
 41 40  1  0
 43 41  1  0
 43 44  1  0
 43 42  1  0
 45 48  1  1
 45 46  1  0
 47 45  1  0
 50 49  2  0
 51 50  1  0
 51 52  1  0
 53 52  1  0
 54 59  1  0
 55 56  1  0
 55 54  1  0
 57 56  1  0
 57 64  1  0
 57 58  1  0
 59 53  1  0
 59 58  1  0
 60 53  2  0
 61 62  2  0
 62 81  1  0
 63 62  1  0
 63 66  1  0
 64 61  1  0
 64 65  1  0
 65 63  2  0
 66 67  1  0
 67 68  2  0
 69 72  1  0
 69 68  1  0
 70 69  2  0
 71 70  1  0
 71 66  2  0
 72 73  1  0
 73 74  1  0
 74 75  2  0
 76 75  1  0
 76 80  1  0
 77 76  2  0
 78 73  2  0
 78 77  1  0
 79 78  1  0
 81 82  1  0
 82 85  1  0
 82 84  1  0
 83 81  2  0
 86 87  1  0
 86 61  1  0
 88 86  1  0
M  ISO  4   7 101   8 101  52 100  53 100
M  END
>  <TORSDO>  (36) 
F 21

>  <SCORE>  (36) 
-13.368

>  <name>  (36) 
35

>  <ligand_id>  (36) 
35

>  <original_smiles>  (36) 
[H]c1c([H])c([H])c2c(c1[H])C([H])([H])C([H])([H])C([H])([H])C2([H])N([H])C(=O)C1([H])N(C(=O)C([H])(N([H])C(=O)C([H])(N([H])C([H])([H])[H])C([H])([H])[H])C(C([H])([H])[H])(C([H])([H])[H])C([H])([H])[H])C([H])([H])c2c([H])c(OC([H])([H])C3([H])C([H])([H])C([H])([H])[N+]([H])(C([H])([H])C([H])([H])C([H])([H])C([H])([H])C(=O)N4C([H])([H])C([H])([H])C([H])([H])C([H])(n5nc(-c6c([H])c([H])c(Oc7c([H])c([H])c(F)c([H])c7F)c([H])c6[H])c(C(=O)N([H])[H])c5N([H])[H])C4([H])[H])C3([H])[H])c([H])c([H])c2C1([H])[H]

>  <smiles>  (36) 
[H]c1c([H])c([H])c2c(c1[H])C([H])([H])C([H])([H])C([H])([H])C2([H])N([H])C(=O)C1([H])N(C(=O)C([H])(N([H])C(=O)C([H])(N([H])C([H])([H])[H])C([H])([H])[H])C(C([H])([H])[H])(C([H])([H])[H])C([H])([H])[H])C([H])([H])c2c([H])c(OC([H])([H])C3([H])C([H])([H])C([H])([H])[N+]([H])(C([H])([H])C([H])([H])C([H])([H])C([H])([H])C(=O)N4C([H])([H])C([H])([H])C([H])([H])C([H])(n5nc(-c6c([H])c([H])c(Oc7c([H])c([H])c(F)c([H])c7F)c([H])c6[H])c(C(=O)N([H])[H])c5N([H])[H])C4([H])[H])C3([H])[H])c([H])c([H])c2C1([H])[H]

$$$$
36:0:0
     RDKit          3D

 93101  0  0  1  0  0  0  0  0999 V2000
  -29.4430  -18.9770   18.3800 C   0  0  0  0  0  1  0  0  0  0  0  0
  -29.8510  -19.1400   19.7930 N   0  0  1  0  0  4  0  0  0  0  0  0
  -30.7320  -19.6280   19.7240 H   0  0  0  0  0  0  0  0  0  0  0  0
  -28.9760  -20.2600   20.4940 C   0  0  0  0  0  2  0  0  0  0  0  0
  -29.3610  -21.9000   20.4180 C   0  0  0  0  0  2  0  0  0  0  0  0
  -28.3260  -23.2060   20.1730 C   0  0  0  0  0  2  0  0  0  0  0  0
  -28.3870  -24.7000   20.9330 C   0  0  0  0  0  2  0  0  0  0  0  0
  -28.4000  -26.1350   20.3640 O   0  0  0  0  0  0  0  0  0  0  0  0
  -24.6120  -31.7540   23.2710 C   0  0  0  0  0  0  0  0  0  0  0  0
  -27.2930  -27.0410   20.3780 C   0  0  0  0  0  0  0  0  0  0  0  0
  -23.4630  -30.3410   21.6060 C   0  0  0  0  0  3  0  0  0  0  0  0
  -24.9540  -28.7470   20.2540 C   0  0  0  0  0  0  0  0  0  0  0  0
  -26.0160  -30.6180   21.5150 C   0  0  0  0  0  2  0  0  0  0  0  0
  -26.1120  -29.2180   20.8870 C   0  0  0  0  0  0  0  0  0  0  0  0
  -27.2860  -28.3820   20.9250 C   0  0  0  0  0  3  0  0  0  0  0  0
  -26.1080  -26.6470   19.7250 C   0  0  0  0  0  3  0  0  0  0  0  0
  -24.9630  -27.4740   19.6590 C   0  0  0  0  0  3  0  0  0  0  0  0
  -23.7270  -29.6440   20.2440 C   0  0  0  0  0  2  0  0  0  0  0  0
  -24.7150  -30.9270   22.1860 N   0  0  0  0  0  0  0  0  0  0  0  0
  -23.5100  -32.0430   23.7630 O   0  0  0  0  0  0  0  0  0  0  0  0
  -22.7550  -29.3450   22.5570 C   0  0  0  0  0  0  0  0  0  0  0  0
  -21.4260  -29.1960   22.4080 N   0  0  0  0  0  0  0  0  0  0  0  0
  -23.4040  -28.7070   23.3900 O   0  0  0  0  0  0  0  0  0  0  0  0
  -20.9620  -29.7630   21.7130 H   0  0  0  0  0  0  0  0  0  0  0  0
  -18.0150  -28.0710   22.8700 C   0  0  0  0  0  0  0  0  0  0  0  0
  -20.5770  -28.2720   23.1620 C   0  0  0  0  0  3  0  0  0  0  0  0
  -20.6510  -26.8430   22.5760 C   0  0  0  0  0  2  0  0  0  0  0  0
  -19.5520  -26.5540   21.5500 C   0  0  0  0  0  2  0  0  0  0  0  0
  -18.1680  -26.7250   22.1820 C   0  0  0  0  0  2  0  0  0  0  0  0
  -19.1460  -28.8040   23.3150 C   0  0  0  0  0  0  0  0  0  0  0  0
  -18.9510  -30.0660   23.9190 C   0  0  0  0  0  3  0  0  0  0  0  0
  -17.6560  -30.5930   24.0790 C   0  0  0  0  0  3  0  0  0  0  0  0
  -16.5390  -29.8570   23.6480 C   0  0  0  0  0  3  0  0  0  0  0  0
  -16.7190  -28.5970   23.0490 C   0  0  0  0  0  3  0  0  0  0  0  0
  -25.8710  -32.3930   23.9330 C   0  0  0  0  0  3  0  0  0  0  0  0
  -25.5590  -33.8020   24.2180 N   0  0  0  0  0  0  0  0  0  0  0  0
  -25.9270  -34.8360   23.4520 C   0  0  0  0  0  0  0  0  0  0  0  0
  -26.6290  -34.7050   22.4460 O   0  0  0  0  0  0  0  0  0  0  0  0
  -24.9380  -33.9770   24.9940 H   0  0  0  0  0  0  0  0  0  0  0  0
  -24.2230  -36.6370   23.0120 C   0  0  0  0  0  1  0  0  0  0  0  0
  -25.4390  -36.2400   23.8640 C   0  0  0  0  0  3  0  0  0  0  0  0
  -27.5550  -37.1330   24.7340 C   0  0  0  0  0  1  0  0  0  0  0  0
  -26.4820  -37.2820   23.7530 N   0  0  0  0  0  0  0  0  0  0  0  0
  -26.0790  -38.2080   23.8630 H   0  0  0  0  0  0  0  0  0  0  0  0
  -26.3220  -31.6510   25.2510 C   0  0  1  0  0  0  0  0  0  0  0  0
  -25.1810  -31.4510   26.2760 C   0  0  0  0  0  1  0  0  0  0  0  0
  -26.9080  -30.2570   24.9240 C   0  0  0  0  0  1  0  0  0  0  0  0
  -27.4510  -32.4520   25.9430 C   0  0  0  0  0  1  0  0  0  0  0  0
  -30.3730  -17.7610   20.4040 C   0  0  0  0  0  3  0  0  0  0  0  0
  -30.8850  -17.9100   21.8550 C   0  0  0  0  0  2  0  0  0  0  0  0
  -33.8720  -21.0440   22.2580 C   0  0  0  0  0  3  0  0  0  0  0  0
  -34.0910  -19.9680   21.3780 C   0  0  0  0  0  3  0  0  0  0  0  0
  -32.6900  -21.0990   23.0210 C   0  0  0  0  0  3  0  0  0  0  0  0
  -33.1230  -18.9510   21.2560 C   0  0  0  0  0  3  0  0  0  0  0  0
  -31.7260  -20.0780   22.9050 C   0  0  0  0  0  3  0  0  0  0  0  0
  -31.9310  -19.0060   22.0100 C   0  0  0  0  0  0  0  0  0  0  0  0
  -29.7180  -16.2400   20.1370 C   0  0  0  0  0  2  0  0  0  0  0  0
  -30.5600  -14.8220   19.9720 C   0  0  0  0  0  0  0  0  0  0  0  0
  -30.3200  -12.5380   18.9240 C   0  0  0  0  0  2  0  0  0  0  0  0
  -29.3020  -12.6370   17.7620 C   0  0  0  0  0  2  0  0  0  0  0  0
  -27.8600  -12.4570   18.2780 C   0  0  0  0  0  2  0  0  0  0  0  0
  -27.5750  -13.3060   19.5440 C   0  0  0  0  0  3  0  0  0  0  0  0
  -28.7040  -13.1820   20.5860 C   0  0  0  0  0  2  0  0  0  0  0  0
  -29.9590  -13.5690   19.9330 N   0  0  0  0  0  0  0  0  0  0  0  0
  -31.7500  -14.8790   19.6390 O   0  0  0  0  0  0  0  0  0  0  0  0
  -25.2560  -13.9100   20.4490 C   0  0  0  0  0  0  0  0  0  0  0  0
  -24.2030  -13.1450   20.8670 C   0  0  0  0  0  0  0  0  0  0  0  0
  -24.6390  -11.7870   20.7730 C   0  0  0  0  0  0  0  0  0  0  0  0
  -26.2650  -13.0200   20.1190 N   0  0  0  0  0  0  0  0  0  0  0  0
  -25.9060  -11.7370   20.3800 N   0  0  0  0  0  0  0  0  0  0  0  0
  -23.9010  -10.5340   20.9780 C   0  0  0  0  0  0  0  0  0  0  0  0
  -24.3620   -9.5420   21.8720 C   0  0  0  0  0  3  0  0  0  0  0  0
  -23.6230   -8.3550   22.0660 C   0  0  0  0  0  3  0  0  0  0  0  0
  -22.4100   -8.1510   21.3650 C   0  0  0  0  0  0  0  0  0  0  0  0
  -21.9680   -9.1310   20.4600 C   0  0  0  0  0  3  0  0  0  0  0  0
  -22.7080  -10.3100   20.2630 C   0  0  0  0  0  3  0  0  0  0  0  0
  -21.6400   -7.0180   21.4710 O   0  0  0  0  0  0  0  0  0  0  0  0
  -21.6100   -6.2710   22.6220 C   0  0  0  0  0  0  0  0  0  0  0  0
  -21.2180   -6.8260   23.8590 C   0  0  0  0  0  3  0  0  0  0  0  0
  -21.1350   -6.0070   25.0030 C   0  0  0  0  0  3  0  0  0  0  0  0
  -21.4360   -4.6350   24.9110 C   0  0  0  0  0  0  0  0  0  0  0  0
  -21.8220   -4.0800   23.6780 C   0  0  0  0  0  3  0  0  0  0  0  0
  -21.9060   -4.8960   22.5370 C   0  0  0  0  0  0  0  0  0  0  0  0
  -22.2580   -4.3510   21.3460 F   0  0  0  0  0  0  0  0  0  0  0  0
  -21.3480   -3.8460   26.0080 F   0  0  0  0  0  0  0  0  0  0  0  0
  -22.8350  -13.6390   21.2370 C   0  0  0  0  0  0  0  0  0  0  0  0
  -22.1500  -12.9370   22.1320 N   0  0  0  0  0  0  0  0  0  0  0  0
  -22.3850  -14.6840   20.7670 O   0  0  0  0  0  0  0  0  0  0  0  0
  -22.5270  -12.0910   22.5320 H   0  0  0  0  0  0  0  0  0  0  0  0
  -21.2350  -13.2510   22.4230 H   0  0  0  0  0  0  0  0  0  0  0  0
  -25.4350  -15.2820   20.2970 N   0  0  0  0  0  0  0  0  0  0  0  0
  -24.6870  -15.9450   20.4760 H   0  0  0  0  0  0  0  0  0  0  0  0
  -26.2660  -15.7170   19.9160 H   0  0  0  0  0  0  0  0  0  0  0  0
  1  2  1  0
  2 49  1  0
  2  4  1  0
  2  3  1  6
  5  4  1  0
  6  5  1  0
  6  7  1  0
  8 10  1  0
  8  7  1  0
  9 20  2  0
 10 15  1  0
 11 19  1  0
 11 21  1  0
 12 14  1  0
 13 19  1  0
 14 15  2  0
 14 13  1  0
 16 10  2  0
 17 16  1  0
 17 12  2  0
 18 12  1  0
 18 11  1  0
 19  9  1  0
 21 23  2  0
 22 21  1  0
 24 22  1  0
 25 34  2  0
 25 30  1  0
 26 22  1  0
 26 30  1  0
 27 26  1  0
 28 29  1  0
 28 27  1  0
 29 25  1  0
 30 31  2  0
 31 32  1  0
 33 32  2  0
 34 33  1  0
 35  9  1  0
 35 36  1  0
 35 45  1  0
 36 39  1  0
 37 41  1  0
 37 36  1  0
 38 37  2  0
 41 40  1  0
 43 44  1  0
 43 41  1  0
 43 42  1  0
 45 48  1  1
 45 46  1  0
 47 45  1  0
 49 57  1  0
 49 50  1  0
 50 56  1  0
 51 53  1  0
 52 51  2  0
 54 52  1  0
 54 56  2  0
 55 53  2  0
 56 55  1  0
 58 57  1  0
 59 64  1  0
 60 61  1  0
 60 59  1  0
 62 61  1  0
 62 69  1  0
 62 63  1  0
 64 58  1  0
 64 63  1  0
 65 58  2  0
 66 67  2  0
 67 86  1  0
 68 67  1  0
 68 71  1  0
 69 70  1  0
 69 66  1  0
 70 68  2  0
 71 72  1  0
 72 73  2  0
 74 77  1  0
 74 73  1  0
 75 74  2  0
 76 75  1  0
 76 71  2  0
 77 78  1  0
 78 79  1  0
 79 80  2  0
 81 80  1  0
 81 85  1  0
 82 81  2  0
 83 78  2  0
 83 82  1  0
 84 83  1  0
 86 87  1  0
 87 90  1  0
 87 89  1  0
 88 86  2  0
 91 66  1  0
 91 92  1  0
 93 91  1  0
M  ISO  4   7 101   8 101  57 100  58 100
M  END
>  <TORSDO>  (37) 
F 24

>  <SCORE>  (37) 
-12.484

>  <name>  (37) 
36

>  <ligand_id>  (37) 
36

>  <original_smiles>  (37) 
[H]c1c([H])c([H])c(C([H])([H])C([H])(C([H])([H])C(=O)N2C([H])([H])C([H])([H])C([H])([H])C([H])(n3nc(-c4c([H])c([H])c(Oc5c([H])c([H])c(F)c([H])c5F)c([H])c4[H])c(C(=O)N([H])[H])c3N([H])[H])C2([H])[H])[N+]([H])(C([H])([H])[H])C([H])([H])C([H])([H])C([H])([H])C([H])([H])Oc2c([H])c([H])c3c(c2[H])C([H])([H])N(C(=O)C([H])(N([H])C(=O)C([H])(N([H])C([H])([H])[H])C([H])([H])[H])C(C([H])([H])[H])(C([H])([H])[H])C([H])([H])[H])C([H])(C(=O)N([H])C2([H])c4c([H])c([H])c([H])c([H])c4C([H])([H])C([H])([H])C2([H])[H])C3([H])[H])c([H])c1[H]

>  <smiles>  (37) 
[H]c1c([H])c([H])c(C([H])([H])C([H])(C([H])([H])C(=O)N2C([H])([H])C([H])([H])C([H])([H])C([H])(n3nc(-c4c([H])c([H])c(Oc5c([H])c([H])c(F)c([H])c5F)c([H])c4[H])c(C(=O)N([H])[H])c3N([H])[H])C2([H])[H])[N+]([H])(C([H])([H])[H])C([H])([H])C([H])([H])C([H])([H])C([H])([H])Oc2c([H])c([H])c3c(c2[H])C([H])([H])N(C(=O)C([H])(N([H])C(=O)C([H])(N([H])C([H])([H])[H])C([H])([H])[H])C(C([H])([H])[H])(C([H])([H])[H])C([H])([H])[H])C([H])(C(=O)N([H])C2([H])c4c([H])c([H])c([H])c([H])c4C([H])([H])C([H])([H])C2([H])[H])C3([H])[H])c([H])c1[H]

$$$$
37:0:0
     RDKit          3D

 93101  0  0  1  0  0  0  0  0999 V2000
  -32.5390  -22.8470   22.1300 C   0  0  0  0  0  2  0  0  0  0  0  0
  -32.4740  -21.3350   22.0840 C   0  0  0  0  0  2  0  0  0  0  0  0
  -31.3960  -23.2500   21.1970 C   0  0  0  0  0  3  0  0  0  0  0  0
  -30.9650  -21.1100   22.0730 C   0  0  0  0  0  3  0  0  0  0  0  0
  -30.4760  -22.1520   21.2270 O   0  0  0  0  0  0  0  0  0  0  0  0
  -30.6930  -24.5700   21.5730 C   0  0  0  0  0  2  0  0  0  0  0  0
  -29.6780  -25.0050   20.5020 C   0  0  0  0  0  2  0  0  0  0  0  0
  -28.9590  -26.3400   20.7690 C   0  0  0  0  0  2  0  0  0  0  0  0
  -28.0900  -26.5130   19.6590 O   0  0  0  0  0  0  0  0  0  0  0  0
  -24.4860  -31.7010   23.0490 C   0  0  0  0  0  0  0  0  0  0  0  0
  -26.9710  -27.2920   19.8130 C   0  0  0  0  0  0  0  0  0  0  0  0
  -23.2120  -30.3630   21.4040 C   0  0  0  0  0  3  0  0  0  0  0  0
  -24.6030  -28.8240   19.9200 C   0  0  0  0  0  0  0  0  0  0  0  0
  -25.7380  -30.6730   21.1590 C   0  0  0  0  0  2  0  0  0  0  0  0
  -25.7830  -29.3120   20.5020 C   0  0  0  0  0  0  0  0  0  0  0  0
  -26.9700  -28.5470   20.4610 C   0  0  0  0  0  3  0  0  0  0  0  0
  -25.7810  -26.8180   19.2260 C   0  0  0  0  0  3  0  0  0  0  0  0
  -24.5940  -27.5700   19.2870 C   0  0  0  0  0  3  0  0  0  0  0  0
  -23.3780  -29.7060   20.0070 C   0  0  0  0  0  2  0  0  0  0  0  0
  -24.4990  -30.9250   21.9290 N   0  0  0  0  0  0  0  0  0  0  0  0
  -23.4240  -31.9850   23.6200 O   0  0  0  0  0  0  0  0  0  0  0  0
  -22.5600  -29.3340   22.3560 C   0  0  0  0  0  0  0  0  0  0  0  0
  -21.2260  -29.2060   22.2730 N   0  0  0  0  0  0  0  0  0  0  0  0
  -23.2490  -28.6570   23.1220 O   0  0  0  0  0  0  0  0  0  0  0  0
  -20.7330  -29.8040   21.6250 H   0  0  0  0  0  0  0  0  0  0  0  0
  -17.8260  -28.1520   22.8870 C   0  0  0  0  0  0  0  0  0  0  0  0
  -20.4030  -28.2760   23.0440 C   0  0  0  0  0  3  0  0  0  0  0  0
  -20.4080  -26.8680   22.4050 C   0  0  0  0  0  2  0  0  0  0  0  0
  -19.2460  -26.6430   21.4330 C   0  0  0  0  0  2  0  0  0  0  0  0
  -17.9040  -26.8260   22.1500 C   0  0  0  0  0  2  0  0  0  0  0  0
  -19.0000  -28.8410   23.2930 C   0  0  0  0  0  0  0  0  0  0  0  0
  -18.8720  -30.0880   23.9430 C   0  0  0  0  0  3  0  0  0  0  0  0
  -17.6030  -30.6430   24.1910 C   0  0  0  0  0  3  0  0  0  0  0  0
  -16.4440  -29.9510   23.8020 C   0  0  0  0  0  3  0  0  0  0  0  0
  -16.5570  -28.7060   23.1550 C   0  0  0  0  0  3  0  0  0  0  0  0
  -25.8000  -32.2870   23.6530 C   0  0  0  0  0  3  0  0  0  0  0  0
  -25.5330  -33.6820   24.0270 N   0  0  0  0  0  0  0  0  0  0  0  0
  -25.8950  -34.7470   23.3010 C   0  0  0  0  0  0  0  0  0  0  0  0
  -26.5640  -34.6560   22.2660 O   0  0  0  0  0  0  0  0  0  0  0  0
  -24.9430  -33.8280   24.8340 H   0  0  0  0  0  0  0  0  0  0  0  0
  -24.2210  -36.5970   22.9930 C   0  0  0  0  0  1  0  0  0  0  0  0
  -25.4450  -36.1320   23.8000 C   0  0  0  0  0  3  0  0  0  0  0  0
  -27.5970  -36.9310   24.6720 C   0  0  0  0  0  1  0  0  0  0  0  0
  -26.5080  -37.1580   23.7250 N   0  0  0  0  0  0  0  0  0  0  0  0
  -26.1280  -38.0860   23.8970 H   0  0  0  0  0  0  0  0  0  0  0  0
  -26.3370  -31.4670   24.8890 C   0  0  1  0  0  0  0  0  0  0  0  0
  -25.2700  -31.2230   25.9810 C   0  0  0  0  0  1  0  0  0  0  0  0
  -26.8780  -30.0900   24.4380 C   0  0  0  0  0  1  0  0  0  0  0  0
  -27.5250  -32.2170   25.5390 C   0  0  0  0  0  1  0  0  0  0  0  0
  -30.4950  -19.7210   21.5800 C   0  0  0  0  0  2  0  0  0  0  0  0
  -30.8810  -18.7690   23.9400 C   0  0  0  0  0  1  0  0  0  0  0  0
  -30.9730  -18.5060   22.4240 C   0  0  0  0  0  3  0  0  0  0  0  0
  -30.1980  -17.2790   22.1050 N   0  0  0  0  0  4  0  0  0  0  0  0
  -30.2620  -16.6800   22.9130 H   0  0  0  0  0  0  0  0  0  0  0  0
  -29.2260  -17.5220   21.9950 H   0  0  0  0  0  0  0  0  0  0  0  0
  -30.6520  -16.4750   20.9400 C   0  0  0  0  0  2  0  0  0  0  0  0
  -29.8550  -15.1510   20.8340 C   0  0  0  0  0  2  0  0  0  0  0  0
  -30.3090  -14.1850   19.7210 C   0  0  0  0  0  0  0  0  0  0  0  0
  -29.9270  -12.0850   18.4610 C   0  0  0  0  0  2  0  0  0  0  0  0
  -28.8330  -12.2660   17.3900 C   0  0  0  0  0  2  0  0  0  0  0  0
  -27.4300  -12.0560   17.9900 C   0  0  0  0  0  2  0  0  0  0  0  0
  -27.2160  -12.8620   19.2990 C   0  0  0  0  0  3  0  0  0  0  0  0
  -28.3990  -12.6440   20.2690 C   0  0  0  0  0  2  0  0  0  0  0  0
  -29.6410  -13.0110   19.5660 N   0  0  0  0  0  0  0  0  0  0  0  0
  -31.2580  -14.5060   18.9970 O   0  0  0  0  0  0  0  0  0  0  0  0
  -24.8860  -13.3760   20.2700 C   0  0  0  0  0  0  0  0  0  0  0  0
  -23.8970  -12.5630   20.7540 C   0  0  0  0  0  0  0  0  0  0  0  0
  -24.4040  -11.2310   20.6640 C   0  0  0  0  0  0  0  0  0  0  0  0
  -25.9340  -12.5380   19.9230 N   0  0  0  0  0  0  0  0  0  0  0  0
  -25.6520  -11.2410   20.2120 N   0  0  0  0  0  0  0  0  0  0  0  0
  -23.7550   -9.9400   20.9300 C   0  0  0  0  0  0  0  0  0  0  0  0
  -24.2810   -9.0290   21.8720 C   0  0  0  0  0  3  0  0  0  0  0  0
  -23.6300   -7.8020   22.1220 C   0  0  0  0  0  3  0  0  0  0  0  0
  -22.4380   -7.4770   21.4310 C   0  0  0  0  0  0  0  0  0  0  0  0
  -21.9320   -8.3780   20.4780 C   0  0  0  0  0  3  0  0  0  0  0  0
  -22.5840   -9.5960   20.2260 C   0  0  0  0  0  3  0  0  0  0  0  0
  -21.7520   -6.2980   21.5910 O   0  0  0  0  0  0  0  0  0  0  0  0
  -21.7410   -5.6280   22.7880 C   0  0  0  0  0  0  0  0  0  0  0  0
  -21.2600   -6.2260   23.9730 C   0  0  0  0  0  3  0  0  0  0  0  0
  -21.2030   -5.4770   25.1660 C   0  0  0  0  0  3  0  0  0  0  0  0
  -21.6160   -4.1320   25.1740 C   0  0  0  0  0  0  0  0  0  0  0  0
  -22.0910   -3.5340   23.9950 C   0  0  0  0  0  3  0  0  0  0  0  0
  -22.1500   -4.2790   22.8040 C   0  0  0  0  0  0  0  0  0  0  0  0
  -22.5880   -3.6910   21.6640 F   0  0  0  0  0  0  0  0  0  0  0  0
  -21.5540   -3.4100   26.3180 F   0  0  0  0  0  0  0  0  0  0  0  0
  -22.5210  -12.9830   21.1870 C   0  0  0  0  0  0  0  0  0  0  0  0
  -21.9290  -12.2640   22.1340 N   0  0  0  0  0  0  0  0  0  0  0  0
  -21.9830  -13.9860   20.7190 O   0  0  0  0  0  0  0  0  0  0  0  0
  -22.3790  -11.4530   22.5310 H   0  0  0  0  0  0  0  0  0  0  0  0
  -21.0120  -12.5270   22.4640 H   0  0  0  0  0  0  0  0  0  0  0  0
  -24.9760  -14.7530   20.0810 N   0  0  0  0  0  0  0  0  0  0  0  0
  -24.2010  -15.3770   20.2740 H   0  0  0  0  0  0  0  0  0  0  0  0
  -25.7660  -15.2220   19.6560 H   0  0  0  0  0  0  0  0  0  0  0  0
  2  1  1  0
  3  5  1  0
  3  6  1  0
  3  1  1  0
  4 50  1  0
  4  2  1  0
  5  4  1  0
  7  8  1  0
  7  6  1  0
  9 11  1  0
  9  8  1  0
 10 21  2  0
 11 16  1  0
 12 20  1  0
 12 22  1  0
 13 19  1  0
 13 15  1  0
 14 20  1  0
 15 14  1  0
 16 15  2  0
 17 18  1  0
 17 11  2  0
 18 13  2  0
 19 12  1  0
 20 10  1  0
 22 24  2  0
 23 22  1  0
 25 23  1  0
 26 35  2  0
 26 31  1  0
 27 23  1  0
 27 31  1  0
 28 27  1  0
 29 30  1  0
 29 28  1  0
 30 26  1  0
 31 32  2  0
 32 33  1  0
 34 33  2  0
 35 34  1  0
 36 10  1  0
 36 37  1  0
 36 46  1  0
 37 40  1  0
 38 42  1  0
 38 37  1  0
 39 38  2  0
 42 41  1  0
 44 42  1  0
 44 45  1  0
 44 43  1  0
 46 49  1  1
 46 47  1  0
 48 46  1  0
 50 52  1  0
 52 51  1  0
 53 52  1  0
 53 54  1  0
 55 53  1  0
 56 53  1  0
 57 56  1  0
 58 57  1  0
 59 64  1  0
 60 61  1  0
 60 59  1  0
 62 61  1  0
 62 69  1  0
 62 63  1  0
 64 58  1  0
 64 63  1  0
 65 58  2  0
 66 67  2  0
 67 86  1  0
 68 67  1  0
 68 71  1  0
 69 70  1  0
 69 66  1  0
 70 68  2  0
 71 72  1  0
 72 73  2  0
 74 77  1  0
 74 73  1  0
 75 74  2  0
 76 75  1  0
 76 71  2  0
 77 78  1  0
 78 83  2  0
 78 79  1  0
 79 80  2  0
 80 81  1  0
 81 85  1  0
 82 81  2  0
 83 82  1  0
 84 83  1  0
 86 87  1  0
 87 90  1  0
 87 89  1  0
 88 86  2  0
 91 66  1  0
 91 92  1  0
 93 91  1  0
M  ISO  4   8 101   9 101  57 100  58 100
M  END
>  <TORSDO>  (38) 
F 24

>  <SCORE>  (38) 
-8.345

>  <name>  (38) 
37

>  <ligand_id>  (38) 
37

>  <original_smiles>  (38) 
[H]c1c([H])c([H])c2c(c1[H])C([H])([H])C([H])([H])C([H])([H])C2([H])N([H])C(=O)C1([H])N(C(=O)C([H])(N([H])C(=O)C([H])(N([H])C([H])([H])[H])C([H])([H])[H])C(C([H])([H])[H])(C([H])([H])[H])C([H])([H])[H])C([H])([H])c2c([H])c(OC([H])([H])C([H])([H])C([H])([H])C3([H])OC([H])(C([H])([H])C([H])(C([H])([H])[H])[N+]([H])([H])C([H])([H])C([H])([H])C(=O)N4C([H])([H])C([H])([H])C([H])([H])C([H])(n5nc(-c6c([H])c([H])c(Oc7c([H])c([H])c(F)c([H])c7F)c([H])c6[H])c(C(=O)N([H])[H])c5N([H])[H])C4([H])[H])C([H])([H])C3([H])[H])c([H])c([H])c2C1([H])[H]

>  <smiles>  (38) 
[H]c1c([H])c([H])c2c(c1[H])C([H])([H])C([H])([H])C([H])([H])C2([H])N([H])C(=O)C1([H])N(C(=O)C([H])(N([H])C(=O)C([H])(N([H])C([H])([H])[H])C([H])([H])[H])C(C([H])([H])[H])(C([H])([H])[H])C([H])([H])[H])C([H])([H])c2c([H])c(OC([H])([H])C([H])([H])C([H])([H])C3([H])OC([H])(C([H])([H])C([H])(C([H])([H])[H])[N+]([H])([H])C([H])([H])C([H])([H])C(=O)N4C([H])([H])C([H])([H])C([H])([H])C([H])(n5nc(-c6c([H])c([H])c(Oc7c([H])c([H])c(F)c([H])c7F)c([H])c6[H])c(C(=O)N([H])[H])c5N([H])[H])C4([H])[H])C([H])([H])C3([H])[H])c([H])c([H])c2C1([H])[H]

$$$$
38:0:0
     RDKit          3D

 93101  0  0  1  0  0  0  0  0999 V2000
  -27.0180  -24.7770   22.9290 C   0  0  0  0  0  3  0  0  0  0  0  0
  -27.3870  -23.4540   23.1790 C   0  0  0  0  0  3  0  0  0  0  0  0
  -27.4850  -25.4100   21.7690 C   0  0  0  0  0  3  0  0  0  0  0  0
  -28.2160  -22.7780   22.2700 C   0  0  0  0  0  3  0  0  0  0  0  0
  -28.2590  -24.7370   20.7890 C   0  0  0  0  0  0  0  0  0  0  0  0
  -28.6580  -23.3660   21.0450 C   0  0  0  0  0  0  0  0  0  0  0  0
  -30.9580  -23.0020   19.8940 C   0  0  0  0  0  1  0  0  0  0  0  0
  -29.5140  -22.4740   20.0790 C   0  0  0  0  0  3  0  0  0  0  0  0
  -29.5540  -21.0520   20.5490 N   0  0  0  0  0  4  0  0  0  0  0  0
  -30.0860  -21.0310   21.4020 H   0  0  0  0  0  0  0  0  0  0  0  0
  -28.6060  -20.8150   20.7950 H   0  0  0  0  0  0  0  0  0  0  0  0
  -30.0690  -19.9530   19.6790 C   0  0  0  0  0  2  0  0  0  0  0  0
  -30.0360  -18.6030   20.4600 C   0  0  0  0  0  2  0  0  0  0  0  0
  -30.4590  -17.2980   19.7320 C   0  0  0  0  0  2  0  0  0  0  0  0
  -30.4340  -16.0480   20.6690 C   0  0  0  0  0  2  0  0  0  0  0  0
  -31.0740  -14.7790   20.0530 C   0  0  0  0  0  0  0  0  0  0  0  0
  -30.7520  -12.5880   18.9690 C   0  0  0  0  0  2  0  0  0  0  0  0
  -29.7870  -12.8000   17.7840 C   0  0  0  0  0  2  0  0  0  0  0  0
  -28.3200  -12.6750   18.2470 C   0  0  0  0  0  2  0  0  0  0  0  0
  -28.0220  -13.5060   19.5270 C   0  0  0  0  0  3  0  0  0  0  0  0
  -29.1090  -13.2810   20.6020 C   0  0  0  0  0  2  0  0  0  0  0  0
  -30.4130  -13.5890   19.9960 N   0  0  0  0  0  0  0  0  0  0  0  0
  -32.1820  -14.9260   19.5290 O   0  0  0  0  0  0  0  0  0  0  0  0
  -25.6350  -14.1110   20.2770 C   0  0  0  0  0  0  0  0  0  0  0  0
  -24.5770  -13.3410   20.6730 C   0  0  0  0  0  0  0  0  0  0  0  0
  -25.0390  -11.9890   20.6470 C   0  0  0  0  0  0  0  0  0  0  0  0
  -26.6790  -13.2320   20.0390 N   0  0  0  0  0  0  0  0  0  0  0  0
  -26.3230  -11.9510   20.3110 N   0  0  0  0  0  0  0  0  0  0  0  0
  -24.3190  -10.7300   20.8670 C   0  0  0  0  0  0  0  0  0  0  0  0
  -24.7050   -9.8190   21.8760 C   0  0  0  0  0  3  0  0  0  0  0  0
  -23.9810   -8.6250   22.0780 C   0  0  0  0  0  3  0  0  0  0  0  0
  -22.8580   -8.3300   21.2700 C   0  0  0  0  0  0  0  0  0  0  0  0
  -22.4900   -9.2280   20.2530 C   0  0  0  0  0  3  0  0  0  0  0  0
  -23.2140  -10.4140   20.0500 C   0  0  0  0  0  3  0  0  0  0  0  0
  -22.1130   -7.1780   21.3750 O   0  0  0  0  0  0  0  0  0  0  0  0
  -21.9200   -6.5520   22.5800 C   0  0  0  0  0  0  0  0  0  0  0  0
  -21.3170   -7.2110   23.6730 C   0  0  0  0  0  3  0  0  0  0  0  0
  -21.0740   -6.5090   24.8710 C   0  0  0  0  0  3  0  0  0  0  0  0
  -21.4310   -5.1520   24.9780 C   0  0  0  0  0  0  0  0  0  0  0  0
  -22.0300   -4.4950   23.8890 C   0  0  0  0  0  3  0  0  0  0  0  0
  -22.2730   -5.1930   22.6930 C   0  0  0  0  0  0  0  0  0  0  0  0
  -22.8290   -4.5460   21.6400 F   0  0  0  0  0  0  0  0  0  0  0  0
  -21.1930   -4.4780   26.1270 F   0  0  0  0  0  0  0  0  0  0  0  0
  -23.1870  -13.8210   20.9770 C   0  0  0  0  0  0  0  0  0  0  0  0
  -22.4850  -13.1400   21.8720 N   0  0  0  0  0  0  0  0  0  0  0  0
  -22.7340  -14.8370   20.4490 O   0  0  0  0  0  0  0  0  0  0  0  0
  -22.8670  -12.3160   22.3140 H   0  0  0  0  0  0  0  0  0  0  0  0
  -21.5550  -13.4480   22.1190 H   0  0  0  0  0  0  0  0  0  0  0  0
  -25.7930  -15.4820   20.0820 N   0  0  0  0  0  0  0  0  0  0  0  0
  -25.0300  -16.1350   20.2090 H   0  0  0  0  0  0  0  0  0  0  0  0
  -26.6400  -15.9280   19.7550 H   0  0  0  0  0  0  0  0  0  0  0  0
  -28.5910  -25.5340   19.5030 C   0  0  0  0  0  2  0  0  0  0  0  0
  -28.4660  -26.9820   19.5750 O   0  0  0  0  0  0  0  0  0  0  0  0
  -24.6580  -31.7320   23.2610 C   0  0  0  0  0  0  0  0  0  0  0  0
  -27.2510  -27.6570   19.6250 C   0  0  0  0  0  0  0  0  0  0  0  0
  -23.4080  -30.4960   21.5230 C   0  0  0  0  0  3  0  0  0  0  0  0
  -24.8270  -29.1180   19.8900 C   0  0  0  0  0  0  0  0  0  0  0  0
  -25.9260  -30.8910   21.2810 C   0  0  0  0  0  2  0  0  0  0  0  0
  -26.0000  -29.5990   20.4860 C   0  0  0  0  0  0  0  0  0  0  0  0
  -27.2050  -28.8720   20.3520 C   0  0  0  0  0  3  0  0  0  0  0  0
  -26.0600  -27.1860   19.0300 C   0  0  0  0  0  3  0  0  0  0  0  0
  -24.8500  -27.9130   19.1590 C   0  0  0  0  0  3  0  0  0  0  0  0
  -23.5760  -29.9500   20.0750 C   0  0  0  0  0  2  0  0  0  0  0  0
  -24.6850  -31.0480   22.0820 N   0  0  0  0  0  0  0  0  0  0  0  0
  -23.5930  -31.9420   23.8590 O   0  0  0  0  0  0  0  0  0  0  0  0
  -22.7870  -29.3800   22.3960 C   0  0  0  0  0  0  0  0  0  0  0  0
  -21.4650  -29.1810   22.2660 N   0  0  0  0  0  0  0  0  0  0  0  0
  -23.4930  -28.6970   23.1430 O   0  0  0  0  0  0  0  0  0  0  0  0
  -20.9620  -29.7890   21.6360 H   0  0  0  0  0  0  0  0  0  0  0  0
  -18.1210  -27.8560   22.6690 C   0  0  0  0  0  0  0  0  0  0  0  0
  -20.6740  -28.1590   22.9540 C   0  0  0  0  0  3  0  0  0  0  0  0
  -20.8120  -26.7860   22.2560 C   0  0  0  0  0  2  0  0  0  0  0  0
  -19.7140  -26.5250   21.2210 C   0  0  0  0  0  2  0  0  0  0  0  0
  -18.3290  -26.5750   21.8770 C   0  0  0  0  0  2  0  0  0  0  0  0
  -19.2220  -28.6060   23.1580 C   0  0  0  0  0  0  0  0  0  0  0  0
  -18.9750  -29.8080   23.8580 C   0  0  0  0  0  3  0  0  0  0  0  0
  -17.6580  -30.2600   24.0700 C   0  0  0  0  0  3  0  0  0  0  0  0
  -16.5720  -29.5040   23.6020 C   0  0  0  0  0  3  0  0  0  0  0  0
  -16.8030  -28.3040   22.9070 C   0  0  0  0  0  3  0  0  0  0  0  0
  -25.9610  -32.3060   23.9030 C   0  0  0  0  0  3  0  0  0  0  0  0
  -25.6630  -33.6680   24.3650 N   0  0  0  0  0  0  0  0  0  0  0  0
  -25.9970  -34.7850   23.7040 C   0  0  0  0  0  0  0  0  0  0  0  0
  -26.6580  -34.7730   22.6620 O   0  0  0  0  0  0  0  0  0  0  0  0
  -25.0740  -33.7500   25.1800 H   0  0  0  0  0  0  0  0  0  0  0  0
  -24.2820  -36.6170   23.5350 C   0  0  0  0  0  1  0  0  0  0  0  0
  -25.5250  -36.1270   24.2940 C   0  0  0  0  0  3  0  0  0  0  0  0
  -27.6700  -36.9070   25.1960 C   0  0  0  0  0  1  0  0  0  0  0  0
  -26.5680  -37.1770   24.2770 N   0  0  0  0  0  0  0  0  0  0  0  0
  -26.1710  -38.0820   24.5170 H   0  0  0  0  0  0  0  0  0  0  0  0
  -26.5120  -31.4240   25.0890 C   0  0  1  0  0  0  0  0  0  0  0  0
  -25.4490  -31.0810   26.1590 C   0  0  0  0  0  1  0  0  0  0  0  0
  -27.0940  -30.0920   24.5590 C   0  0  0  0  0  1  0  0  0  0  0  0
  -27.6740  -32.1690   25.7850 C   0  0  0  0  0  1  0  0  0  0  0  0
  1  2  1  0
  3  1  2  0
  4  2  2  0
  5  6  2  0
  5  3  1  0
  6  4  1  0
  8  7  1  0
  8  9  1  0
  8  6  1  0
  9 11  1  0
  9 10  1  0
 12 13  1  0
 12  9  1  0
 14 13  1  0
 14 15  1  0
 16 15  1  0
 17 22  1  0
 18 19  1  0
 18 17  1  0
 20 19  1  0
 20 27  1  0
 20 21  1  0
 22 16  1  0
 22 21  1  0
 23 16  2  0
 24 25  2  0
 25 44  1  0
 26 25  1  0
 26 29  1  0
 27 24  1  0
 27 28  1  0
 28 26  2  0
 29 30  1  0
 30 31  2  0
 32 35  1  0
 32 31  1  0
 33 32  2  0
 34 33  1  0
 34 29  2  0
 35 36  1  0
 36 41  2  0
 36 37  1  0
 37 38  2  0
 38 39  1  0
 39 43  1  0
 40 39  2  0
 41 40  1  0
 42 41  1  0
 44 45  1  0
 45 48  1  0
 45 47  1  0
 46 44  2  0
 49 50  1  0
 49 24  1  0
 51 49  1  0
 52 53  1  0
 52  5  1  0
 53 55  1  0
 54 65  2  0
 55 60  1  0
 56 64  1  0
 56 66  1  0
 57 63  1  0
 57 59  1  0
 58 64  1  0
 59 58  1  0
 60 59  2  0
 61 62  1  0
 61 55  2  0
 62 57  2  0
 63 56  1  0
 64 54  1  0
 66 68  2  0
 67 66  1  0
 69 67  1  0
 70 79  2  0
 70 75  1  0
 71 67  1  0
 71 75  1  0
 72 71  1  0
 73 74  1  0
 73 72  1  0
 74 70  1  0
 75 76  2  0
 76 77  1  0
 78 77  2  0
 79 78  1  0
 80 54  1  0
 80 81  1  0
 80 90  1  0
 81 84  1  0
 82 86  1  0
 82 81  1  0
 83 82  2  0
 86 85  1  0
 88 86  1  0
 88 89  1  0
 88 87  1  0
 90 93  1  1
 90 91  1  0
 92 90  1  0
M  ISO  4  15 100  16 100  52 101  53 101
M  END
>  <TORSDO>  (39) 
F 23

>  <SCORE>  (39) 
-9.570

>  <name>  (39) 
38

>  <ligand_id>  (39) 
38

>  <original_smiles>  (39) 
[H]c1c([H])c([H])c(C([H])(C([H])([H])[H])[N+]([H])([H])C([H])([H])C([H])([H])C([H])([H])C([H])([H])C(=O)N2C([H])([H])C([H])([H])C([H])([H])C([H])(n3nc(-c4c([H])c([H])c(Oc5c([H])c([H])c(F)c([H])c5F)c([H])c4[H])c(C(=O)N([H])[H])c3N([H])[H])C2([H])[H])c(C([H])([H])Oc2c([H])c([H])c3c(c2[H])C([H])([H])N(C(=O)C([H])(N([H])C(=O)C([H])(N([H])C([H])([H])[H])C([H])([H])[H])C(C([H])([H])[H])(C([H])([H])[H])C([H])([H])[H])C([H])(C(=O)N([H])C2([H])c4c([H])c([H])c([H])c([H])c4C([H])([H])C([H])([H])C2([H])[H])C3([H])[H])c1[H]

>  <smiles>  (39) 
[H]c1c([H])c([H])c(C([H])(C([H])([H])[H])[N+]([H])([H])C([H])([H])C([H])([H])C([H])([H])C([H])([H])C(=O)N2C([H])([H])C([H])([H])C([H])([H])C([H])(n3nc(-c4c([H])c([H])c(Oc5c([H])c([H])c(F)c([H])c5F)c([H])c4[H])c(C(=O)N([H])[H])c3N([H])[H])C2([H])[H])c(C([H])([H])Oc2c([H])c([H])c3c(c2[H])C([H])([H])N(C(=O)C([H])(N([H])C(=O)C([H])(N([H])C([H])([H])[H])C([H])([H])[H])C(C([H])([H])[H])(C([H])([H])[H])C([H])([H])[H])C([H])(C(=O)N([H])C2([H])c4c([H])c([H])c([H])c([H])c4C([H])([H])C([H])([H])C2([H])[H])C3([H])[H])c1[H]

$$$$
39:0:0
     RDKit          3D

 95104  0  0  1  0  0  0  0  0999 V2000
  -29.9570  -20.1940   20.6240 C   0  0  0  0  0  3  0  0  0  0  0  0
  -31.8250  -22.6140   24.8580 C   0  0  0  0  0  2  0  0  0  0  0  0
  -31.3770  -21.2250   25.3150 C   0  0  0  0  0  2  0  0  0  0  0  0
  -30.5240  -23.3240   24.4820 C   0  0  0  0  0  2  0  0  0  0  0  0
  -30.4910  -20.0390   23.1970 C   0  0  0  0  0  2  0  0  0  0  0  0
  -29.6860  -22.1050   22.3680 C   0  0  0  0  0  2  0  0  0  0  0  0
  -30.1630  -20.8870   24.4370 C   0  0  0  0  0  3  0  0  0  0  0  0
  -29.6270  -22.2240   23.8980 C   0  0  0  0  0  3  0  0  0  0  0  0
  -29.5910  -20.5960   22.0830 C   0  0  0  0  0  3  0  0  0  0  0  0
  -29.5010  -18.7770   20.2960 N   0  0  0  0  0  4  0  0  0  0  0  0
  -28.6480  -18.6110   20.8040 H   0  0  0  0  0  0  0  0  0  0  0  0
  -29.2600  -18.7490   19.3200 H   0  0  0  0  0  0  0  0  0  0  0  0
  -30.4750  -17.6200   20.5440 C   0  0  0  0  0  2  0  0  0  0  0  0
  -29.8700  -16.1840   20.9100 C   0  0  0  0  0  2  0  0  0  0  0  0
  -30.6980  -14.8820   20.5320 C   0  0  0  0  0  0  0  0  0  0  0  0
  -30.5290  -12.6360   19.4670 C   0  0  0  0  0  2  0  0  0  0  0  0
  -29.6170  -12.7550   18.2230 C   0  0  0  0  0  2  0  0  0  0  0  0
  -28.1360  -12.5790   18.6100 C   0  0  0  0  0  2  0  0  0  0  0  0
  -27.7350  -13.4470   19.8320 C   0  0  0  0  0  3  0  0  0  0  0  0
  -28.7650  -13.3230   20.9770 C   0  0  0  0  0  2  0  0  0  0  0  0
  -30.0890  -13.6550   20.4390 N   0  0  0  0  0  0  0  0  0  0  0  0
  -31.8710  -15.0190   20.1700 O   0  0  0  0  0  0  0  0  0  0  0  0
  -25.3540  -14.0420   20.5890 C   0  0  0  0  0  0  0  0  0  0  0  0
  -24.2650  -13.2660   20.8840 C   0  0  0  0  0  0  0  0  0  0  0  0
  -24.6950  -11.9120   20.7420 C   0  0  0  0  0  0  0  0  0  0  0  0
  -26.3770  -13.1580   20.2850 N   0  0  0  0  0  0  0  0  0  0  0  0
  -25.9870  -11.8670   20.4390 N   0  0  0  0  0  0  0  0  0  0  0  0
  -23.9380  -10.6560   20.8180 C   0  0  0  0  0  0  0  0  0  0  0  0
  -24.3540   -9.5920   21.6480 C   0  0  0  0  0  3  0  0  0  0  0  0
  -23.5990   -8.4020   21.7190 C   0  0  0  0  0  3  0  0  0  0  0  0
  -22.4130   -8.2670   20.9590 C   0  0  0  0  0  0  0  0  0  0  0  0
  -22.0150   -9.3200   20.1160 C   0  0  0  0  0  3  0  0  0  0  0  0
  -22.7710  -10.5030   20.0430 C   0  0  0  0  0  3  0  0  0  0  0  0
  -21.6300   -7.1380   20.9450 O   0  0  0  0  0  0  0  0  0  0  0  0
  -21.5620   -6.2960   22.0260 C   0  0  0  0  0  0  0  0  0  0  0  0
  -21.1410   -6.7470   23.2960 C   0  0  0  0  0  3  0  0  0  0  0  0
  -21.0190   -5.8320   24.3610 C   0  0  0  0  0  3  0  0  0  0  0  0
  -21.3090   -4.4690   24.1580 C   0  0  0  0  0  0  0  0  0  0  0  0
  -21.7230   -4.0190   22.8920 C   0  0  0  0  0  3  0  0  0  0  0  0
  -21.8460   -4.9300   21.8280 C   0  0  0  0  0  0  0  0  0  0  0  0
  -22.2250   -4.4870   20.6060 F   0  0  0  0  0  0  0  0  0  0  0  0
  -21.1840   -3.5900   25.1790 F   0  0  0  0  0  0  0  0  0  0  0  0
  -22.8770  -13.7530   21.1850 C   0  0  0  0  0  0  0  0  0  0  0  0
  -22.1300  -13.0110   21.9970 N   0  0  0  0  0  0  0  0  0  0  0  0
  -22.4630  -14.8220   20.7390 O   0  0  0  0  0  0  0  0  0  0  0  0
  -22.4780  -12.1440   22.3780 H   0  0  0  0  0  0  0  0  0  0  0  0
  -21.1980  -13.3150   22.2400 H   0  0  0  0  0  0  0  0  0  0  0  0
  -25.5520  -15.4170   20.5290 N   0  0  0  0  0  0  0  0  0  0  0  0
  -24.7960  -16.0760   20.6810 H   0  0  0  0  0  0  0  0  0  0  0  0
  -26.4090  -15.8600   20.2240 H   0  0  0  0  0  0  0  0  0  0  0  0
  -29.6150  -21.3640   19.5640 C   0  0  0  0  0  2  0  0  0  0  0  0
  -28.4330  -22.4300   19.7440 C   0  0  0  0  0  2  0  0  0  0  0  0
  -28.6590  -23.9190   19.2020 C   0  0  0  0  0  3  0  0  0  0  0  0
  -27.6000  -25.0260   19.6300 C   0  0  0  0  0  3  0  0  0  0  0  0
  -27.7920  -26.4410   19.2270 O   0  0  0  0  0  0  0  0  0  0  0  0
  -24.4430  -31.5970   23.0190 C   0  0  0  0  0  0  0  0  0  0  0  0
  -26.6950  -27.3030   19.3680 C   0  0  0  0  0  0  0  0  0  0  0  0
  -23.0770  -30.3700   21.3690 C   0  0  0  0  0  3  0  0  0  0  0  0
  -24.3710  -28.9360   19.6940 C   0  0  0  0  0  0  0  0  0  0  0  0
  -25.5990  -30.6700   21.0020 C   0  0  0  0  0  2  0  0  0  0  0  0
  -25.5950  -29.3540   20.2330 C   0  0  0  0  0  0  0  0  0  0  0  0
  -26.7600  -28.5490   20.0620 C   0  0  0  0  0  3  0  0  0  0  0  0
  -25.4520  -26.9480   18.7990 C   0  0  0  0  0  3  0  0  0  0  0  0
  -24.3010  -27.7380   18.9680 C   0  0  0  0  0  3  0  0  0  0  0  0
  -23.1620  -29.8190   19.9220 C   0  0  0  0  0  2  0  0  0  0  0  0
  -24.3970  -30.8900   21.8540 N   0  0  0  0  0  0  0  0  0  0  0  0
  -23.4130  -31.8410   23.6660 O   0  0  0  0  0  0  0  0  0  0  0  0
  -22.4750  -29.2800   22.2870 C   0  0  0  0  0  0  0  0  0  0  0  0
  -21.1440  -29.1040   22.2230 N   0  0  0  0  0  0  0  0  0  0  0  0
  -23.2010  -28.6000   23.0160 O   0  0  0  0  0  0  0  0  0  0  0  0
  -20.6160  -29.7060   21.6070 H   0  0  0  0  0  0  0  0  0  0  0  0
  -17.8080  -27.8240   22.7830 C   0  0  0  0  0  0  0  0  0  0  0  0
  -20.3710  -28.1080   22.9680 C   0  0  0  0  0  3  0  0  0  0  0  0
  -20.4710  -26.7160   22.3040 C   0  0  0  0  0  2  0  0  0  0  0  0
  -19.3330  -26.4350   21.3160 C   0  0  0  0  0  2  0  0  0  0  0  0
  -17.9760  -26.5210   22.0210 C   0  0  0  0  0  2  0  0  0  0  0  0
  -18.9320  -28.5780   23.2140 C   0  0  0  0  0  0  0  0  0  0  0  0
  -18.7200  -29.7990   23.8890 C   0  0  0  0  0  3  0  0  0  0  0  0
  -17.4150  -30.2670   24.1370 C   0  0  0  0  0  3  0  0  0  0  0  0
  -16.3060  -29.5100   23.7210 C   0  0  0  0  0  3  0  0  0  0  0  0
  -16.5030  -28.2900   23.0500 C   0  0  0  0  0  3  0  0  0  0  0  0
  -25.7860  -32.1530   23.5860 C   0  0  0  0  0  3  0  0  0  0  0  0
  -25.5360  -33.5200   24.0630 N   0  0  0  0  0  0  0  0  0  0  0  0
  -25.8480  -34.6330   23.3850 C   0  0  0  0  0  0  0  0  0  0  0  0
  -26.4470  -34.6130   22.3070 O   0  0  0  0  0  0  0  0  0  0  0  0
  -25.0010  -33.6100   24.9140 H   0  0  0  0  0  0  0  0  0  0  0  0
  -24.1560  -36.4910   23.3100 C   0  0  0  0  0  1  0  0  0  0  0  0
  -25.4290  -35.9810   24.0020 C   0  0  0  0  0  3  0  0  0  0  0  0
  -27.6330  -36.7280   24.7830 C   0  0  0  0  0  1  0  0  0  0  0  0
  -26.4830  -37.0160   23.9300 N   0  0  0  0  0  0  0  0  0  0  0  0
  -26.1130  -37.9250   24.1950 H   0  0  0  0  0  0  0  0  0  0  0  0
  -26.3870  -31.2620   24.7410 C   0  0  1  0  0  0  0  0  0  0  0  0
  -25.3840  -30.9540   25.8760 C   0  0  0  0  0  1  0  0  0  0  0  0
  -26.8960  -29.9120   24.1820 C   0  0  0  0  0  1  0  0  0  0  0  0
  -27.6140  -31.9690   25.3620 C   0  0  0  0  0  1  0  0  0  0  0  0
  1 51  1  0
  2  3  1  0
  4  2  1  0
  7  5  1  0
  7  3  1  0
  8  6  1  0
  8  7  1  0
  8  4  1  0
  9  1  1  0
  9  6  1  0
  9  5  1  0
 10 13  1  0
 10  1  1  0
 10 11  1  0
 12 10  1  0
 13 14  1  0
 15 14  1  0
 16 21  1  0
 17 18  1  0
 17 16  1  0
 19 18  1  0
 19 26  1  0
 19 20  1  0
 21 15  1  0
 21 20  1  0
 22 15  2  0
 23 24  2  0
 24 43  1  0
 25 28  1  0
 25 24  1  0
 26 27  1  0
 26 23  1  0
 27 25  2  0
 28 29  1  0
 29 30  2  0
 31 30  1  0
 32 31  2  0
 33 32  1  0
 33 28  2  0
 34 31  1  0
 34 35  1  0
 35 36  1  0
 36 37  2  0
 38 37  1  0
 38 42  1  0
 39 38  2  0
 40 35  2  0
 40 39  1  0
 41 40  1  0
 43 44  1  0
 44 47  1  0
 44 46  1  0
 45 43  2  0
 48 23  1  0
 48 49  1  0
 50 48  1  0
 51 52  1  0
 53 54  2  0
 53 52  1  0
 55 57  1  0
 55 54  1  0
 56 67  2  0
 57 62  1  0
 58 66  1  0
 58 68  1  0
 59 65  1  0
 59 61  1  0
 60 66  1  0
 61 60  1  0
 62 61  2  0
 63 64  1  0
 63 57  2  0
 64 59  2  0
 65 58  1  0
 66 56  1  0
 68 70  2  0
 69 68  1  0
 71 69  1  0
 72 81  2  0
 72 77  1  0
 73 69  1  0
 73 77  1  0
 74 73  1  0
 75 76  1  0
 75 74  1  0
 76 72  1  0
 77 78  2  0
 78 79  1  0
 80 79  2  0
 81 80  1  0
 82 56  1  0
 82 83  1  0
 82 92  1  0
 83 86  1  0
 84 88  1  0
 84 83  1  0
 85 84  2  0
 88 87  1  0
 90 88  1  0
 90 91  1  0
 90 89  1  0
 92 95  1  1
 92 93  1  0
 94 92  1  0
M  ISO  4  14 100  15 100  54 101  55 101
M  END
>  <TORSDO>  (40) 
F 24

>  <SCORE>  (40) 
-8.518

>  <name>  (40) 
39

>  <ligand_id>  (40) 
39

>  <original_smiles>  (40) 
[H]c1c([H])c([H])c2c(c1[H])C([H])([H])C([H])([H])C([H])([H])C2([H])N([H])C(=O)C1([H])N(C(=O)C([H])(N([H])C(=O)C([H])(N([H])C([H])([H])[H])C([H])([H])[H])C(C([H])([H])[H])(C([H])([H])[H])C([H])([H])[H])C([H])([H])c2c([H])c(OC([H])([H])C([H])([H])C([H])([H])C([H])([H])C([H])(C3([H])C([H])([H])C4([H])C([H])([H])C([H])([H])C([H])([H])C4([H])C3([H])[H])[N+]([H])([H])C([H])([H])C([H])([H])C(=O)N3C([H])([H])C([H])([H])C([H])([H])C([H])(n4nc(-c5c([H])c([H])c(Oc6c([H])c([H])c(F)c([H])c6F)c([H])c5[H])c(C(=O)N([H])[H])c4N([H])[H])C3([H])[H])c([H])c([H])c2C1([H])[H]

>  <smiles>  (40) 
[H]c1c([H])c([H])c2c(c1[H])C([H])([H])C([H])([H])C([H])([H])C2([H])N([H])C(=O)C1([H])N(C(=O)C([H])(N([H])C(=O)C([H])(N([H])C([H])([H])[H])C([H])([H])[H])C(C([H])([H])[H])(C([H])([H])[H])C([H])([H])[H])C([H])([H])c2c([H])c(OC([H])([H])C([H])([H])C([H])([H])C([H])([H])C([H])(C3([H])C([H])([H])C4([H])C([H])([H])C([H])([H])C([H])([H])C4([H])C3([H])[H])[N+]([H])([H])C([H])([H])C([H])([H])C(=O)N3C([H])([H])C([H])([H])C([H])([H])C([H])(n4nc(-c5c([H])c([H])c(Oc6c([H])c([H])c(F)c([H])c6F)c([H])c5[H])c(C(=O)N([H])[H])c4N([H])[H])C3([H])[H])c([H])c([H])c2C1([H])[H]

$$$$
40:0:0
     RDKit          3D

 97101  0  0  1  0  0  0  0  0999 V2000
  -23.5170  -24.5510   24.3190 C   0  0  0  0  0  2  0  0  0  0  0  0
  -24.0880  -23.6820   23.1870 C   0  0  0  0  0  2  0  0  0  0  0  0
  -23.2820  -27.1490   24.6790 C   0  0  0  0  0  2  0  0  0  0  0  0
  -24.1690  -25.9390   24.2860 C   0  0  0  0  0  3  0  0  0  0  0  0
  -24.7400  -26.3230   22.8680 C   0  0  0  0  0  2  0  0  0  0  0  0
  -23.6330  -27.8920   23.4200 C   0  0  0  0  0  1  0  0  0  0  0  0
  -25.2800  -24.4440   22.6060 C   0  0  0  0  0  2  0  0  0  0  0  0
  -26.1750  -23.3720   21.5020 N   0  0  0  0  0  4  0  0  0  0  0  0
  -26.6570  -24.0180   20.8980 H   0  0  0  0  0  0  0  0  0  0  0  0
  -25.4550  -22.9800   20.9180 H   0  0  0  0  0  0  0  0  0  0  0  0
  -27.3510  -22.0400   21.6520 C   0  0  0  0  0  3  0  0  0  0  0  0
  -28.1280  -20.6030   20.5640 C   0  0  0  0  0  3  0  0  0  0  0  0
  -29.4950  -19.1910   20.5820 C   0  0  0  0  0  3  0  0  0  0  0  0
  -29.8520  -17.3730   19.9490 C   0  0  0  0  0  3  0  0  0  0  0  0
  -31.0560  -15.9090   19.8740 C   0  0  0  0  0  0  0  0  0  0  0  0
  -31.4710  -13.2970   19.2610 C   0  0  0  0  0  2  0  0  0  0  0  0
  -30.6270  -12.7330   18.0660 C   0  0  0  0  0  2  0  0  0  0  0  0
  -29.1670  -12.4680   18.4790 C   0  0  0  0  0  2  0  0  0  0  0  0
  -28.6570  -13.6150   19.3820 C   0  0  0  0  0  3  0  0  0  0  0  0
  -29.5980  -13.9160   20.5510 C   0  0  0  0  0  2  0  0  0  0  0  0
  -30.7770  -14.4910   19.9410 N   0  0  0  0  0  0  0  0  0  0  0  0
  -32.2640  -16.0030   19.5320 O   0  0  0  0  0  0  0  0  0  0  0  0
  -26.3990  -14.3990   20.1930 C   0  0  0  0  0  0  0  0  0  0  0  0
  -25.2860  -13.7270   20.6000 C   0  0  0  0  0  0  0  0  0  0  0  0
  -25.6140  -12.3370   20.5280 C   0  0  0  0  0  0  0  0  0  0  0  0
  -27.3220  -13.4210   19.8800 N   0  0  0  0  0  0  0  0  0  0  0  0
  -26.8740  -12.1740   20.1510 N   0  0  0  0  0  0  0  0  0  0  0  0
  -24.7790  -11.1510   20.7280 C   0  0  0  0  0  0  0  0  0  0  0  0
  -25.1050  -10.1690   21.6900 C   0  0  0  0  0  3  0  0  0  0  0  0
  -24.2690   -9.0470   21.8730 C   0  0  0  0  0  3  0  0  0  0  0  0
  -23.0960   -8.9020   21.0940 C   0  0  0  0  0  0  0  0  0  0  0  0
  -22.7910   -9.8720   20.1230 C   0  0  0  0  0  3  0  0  0  0  0  0
  -23.6260  -10.9840   19.9370 C   0  0  0  0  0  3  0  0  0  0  0  0
  -22.2380   -7.8340   21.1860 O   0  0  0  0  0  0  0  0  0  0  0  0
  -22.0110   -7.1940   22.3760 C   0  0  0  0  0  0  0  0  0  0  0  0
  -21.5460   -7.8840   23.5170 C   0  0  0  0  0  3  0  0  0  0  0  0
  -21.2610   -7.1740   24.7010 C   0  0  0  0  0  3  0  0  0  0  0  0
  -21.4300   -5.7770   24.7430 C   0  0  0  0  0  0  0  0  0  0  0  0
  -21.8880   -5.0880   23.6060 C   0  0  0  0  0  3  0  0  0  0  0  0
  -22.1760   -5.7950   22.4260 C   0  0  0  0  0  0  0  0  0  0  0  0
  -22.5970   -5.1250   21.3260 F   0  0  0  0  0  0  0  0  0  0  0  0
  -21.1470   -5.0940   25.8770 F   0  0  0  0  0  0  0  0  0  0  0  0
  -23.9620  -14.3390   20.9370 C   0  0  0  0  0  0  0  0  0  0  0  0
  -23.2210  -13.7310   21.8530 N   0  0  0  0  0  0  0  0  0  0  0  0
  -23.6010  -15.3960   20.4190 O   0  0  0  0  0  0  0  0  0  0  0  0
  -23.5290  -12.8750   22.2910 H   0  0  0  0  0  0  0  0  0  0  0  0
  -22.3310  -14.1260   22.1210 H   0  0  0  0  0  0  0  0  0  0  0  0
  -26.7000  -15.7500   20.0370 N   0  0  0  0  0  0  0  0  0  0  0  0
  -26.0040  -16.4720   20.1900 H   0  0  0  0  0  0  0  0  0  0  0  0
  -27.5500  -16.1040   19.6200 H   0  0  0  0  0  0  0  0  0  0  0  0
  -22.0470  -30.3070   23.7870 C   0  0  0  0  0  1  0  0  0  0  0  0
  -22.4720  -29.4190   22.5800 C   0  0  0  0  0  1  0  0  0  0  0  0
  -21.6300  -29.4340   20.7690 N   0  0  0  0  0  2  0  0  0  0  0  0
  -20.6530  -29.2150   20.9340 H   0  0  0  0  0  0  0  0  0  0  0  0
  -21.6300  -30.3890   20.4480 H   0  0  0  0  0  0  0  0  0  0  0  0
  -22.4390  -27.9230   18.9060 C   0  0  0  0  0 15  0  0  0  0  0  0
  -24.1900  -27.1290   18.8030 O   0  0  0  0  0  1  0  0  0  0  0  0
  -25.6640  -30.5390   22.6720 C   0  0  0  0  0  0  0  0  0  0  0  0
  -25.5310  -27.3100   18.1870 C   0  0  0  0  0  3  0  0  0  0  0  0
  -24.3060  -29.4640   20.9630 C   0  0  0  0  0  3  0  0  0  0  0  0
  -24.8710  -29.6690   18.5470 C   0  0  0  0  0  3  0  0  0  0  0  0
  -26.5550  -30.1130   20.3560 C   0  0  0  0  0  2  0  0  0  0  0  0
  -26.1080  -29.3540   19.1160 C   0  0  0  0  0  3  0  0  0  0  0  0
  -26.5620  -28.0780   18.8120 C   0  0  0  0  0  2  0  0  0  0  0  0
  -25.1550  -27.8200   16.9840 C   0  0  0  0  0  2  0  0  0  0  0  0
  -24.4620  -28.9950   17.3460 C   0  0  0  0  0  2  0  0  0  0  0  0
  -23.9900  -30.2620   19.5980 C   0  0  0  0  0  2  0  0  0  0  0  0
  -25.5430  -30.0300   21.4200 N   0  0  0  0  0  0  0  0  0  0  0  0
  -24.7160  -30.6570   23.4730 O   0  0  0  0  0  0  0  0  0  0  0  0
  -24.2710  -27.6940   21.2030 C   0  0  0  0  0  3  0  0  0  0  0  0
  -23.0480  -26.6500   21.0160 N   0  0  0  0  0  0  0  0  0  0  0  0
  -25.2050  -27.3210   21.8240 O   0  0  0  0  0  0  0  0  0  0  0  0
  -23.4860  -25.7350   21.0200 H   0  0  0  0  0  0  0  0  0  0  0  0
  -18.5800  -26.8710   21.8800 C   0  0  0  0  0  0  0  0  0  0  0  0
  -21.3110  -26.3950   21.4750 C   0  0  0  0  0  3  0  0  0  0  0  0
  -20.8290  -25.5370   20.3970 C   0  0  0  0  0  2  0  0  0  0  0  0
  -19.5670  -26.0540   19.7650 C   0  0  0  0  0  2  0  0  0  0  0  0
  -18.4100  -25.9180   20.7440 C   0  0  0  0  0  2  0  0  0  0  0  0
  -19.9170  -27.2910   22.1990 C   0  0  0  0  0  0  0  0  0  0  0  0
  -19.7580  -28.4560   23.0920 C   0  0  0  0  0  3  0  0  0  0  0  0
  -18.5690  -28.9350   23.7270 C   0  0  0  0  0  3  0  0  0  0  0  0
  -17.3410  -28.3460   23.4370 C   0  0  0  0  0  3  0  0  0  0  0  0
  -17.3630  -27.3370   22.4690 C   0  0  0  0  0  3  0  0  0  0  0  0
  -27.0650  -30.9210   23.1410 C   0  0  0  0  0  3  0  0  0  0  0  0
  -26.9440  -32.1340   23.9500 N   0  0  0  0  0  0  0  0  0  0  0  0
  -27.2540  -33.3560   23.5040 C   0  0  0  0  0  0  0  0  0  0  0  0
  -27.7290  -33.5600   22.3840 O   0  0  0  0  0  0  0  0  0  0  0  0
  -26.5250  -32.0400   24.8630 H   0  0  0  0  0  0  0  0  0  0  0  0
  -25.7880  -35.3310   24.0210 C   0  0  0  0  0  1  0  0  0  0  0  0
  -27.0230  -34.5340   24.4670 C   0  0  0  0  0  3  0  0  0  0  0  0
  -29.3410  -34.8100   25.2240 C   0  0  0  0  0  1  0  0  0  0  0  0
  -28.1910  -35.4330   24.5760 N   0  0  0  0  0  0  0  0  0  0  0  0
  -27.9510  -36.2740   25.0950 H   0  0  0  0  0  0  0  0  0  0  0  0
  -27.7190  -29.7420   23.9480 C   0  0  1  0  0  0  0  0  0  0  0  0
  -26.8130  -29.1520   25.0560 C   0  0  0  0  0  1  0  0  0  0  0  0
  -28.1560  -28.5820   23.0250 C   0  0  0  0  0  1  0  0  0  0  0  0
  -29.0220  -30.2580   24.5850 C   0  0  0  0  0  1  0  0  0  0  0  0
  2  1  1  0
  4  5  1  0
  4  1  1  0
  4  3  1  0
  6  3  1  0
  7  2  1  0
  8 11  1  0
  8  7  1  0
  9  8  1  0
 10  8  1  0
 12 13  1  0
 12 11  2  0
 14 13  2  0
 15 21  1  0
 15 14  1  0
 16 21  1  0
 17 18  1  0
 17 16  1  0
 19 18  1  0
 19 26  1  0
 19 20  1  0
 21 20  1  0
 22 15  2  0
 23 24  2  0
 24 43  1  0
 25 24  1  0
 25 28  1  0
 26 27  1  0
 26 23  1  0
 27 25  2  0
 28 29  1  0
 29 30  2  0
 31 34  1  0
 31 30  1  0
 32 31  2  0
 33 32  1  0
 33 28  2  0
 34 35  1  0
 35 40  2  0
 35 36  1  0
 36 37  2  0
 37 38  1  0
 38 42  1  0
 39 38  2  0
 40 39  1  0
 41 40  1  0
 43 44  1  0
 44 47  1  0
 44 46  1  0
 45 43  2  0
 48 49  1  0
 48 23  1  0
 50 48  1  0
 52 51  1  0
 53 54  1  0
 55 53  1  0
 58 69  2  0
 59 57  1  0
 59 64  1  0
 60 70  1  0
 60 68  1  0
 61 66  1  0
 61 63  1  0
 61 67  1  0
 62 68  1  0
 63 64  1  0
 63 62  1  0
 65 66  1  0
 65 59  1  0
 67 60  1  0
 68 58  1  0
 70 72  1  0
 71 73  1  0
 71 70  1  0
 72  5  1  0
 74 79  2  0
 74 83  1  0
 75 71  1  0
 75 79  1  0
 76 75  1  0
 77 76  1  0
 77 78  1  0
 78 74  1  0
 79 80  1  0
 80 81  2  0
 82 81  1  0
 83 82  2  0
 84 58  1  0
 84 94  1  0
 84 85  1  0
 85 88  1  0
 86 85  1  0
 86 90  1  0
 87 86  2  0
 90 89  1  0
 90 92  1  0
 92 93  1  0
 92 91  1  0
 94 97  1  1
 94 95  1  0
 96 94  1  0
M  ISO  4  14 100  15 100  56 101  57 101
M  END
>  <TORSDO>  (41) 
F 24

>  <SCORE>  (41) 
-10.219

>  <name>  (41) 
40

>  <ligand_id>  (41) 
40

>  <original_smiles>  (41) 
[H]c1c([H])c([H])c2c(c1[H])C([H])([H])C([H])([H])C([H])([H])C2([H])N([H])C(=O)C1([H])N(C(=O)C([H])(N([H])C(=O)C([H])(N([H])C([H])([H])[H])C([H])([H])[H])C(C([H])([H])[H])(C([H])([H])[H])C([H])([H])[H])C([H])([H])c2c([H])c(OC([H])([H])[N+]([H])([H])C([H])(C([H])([H])[H])C3([H])C([H])([H])C4([H])C([H])([H])C([H])([H])C([H])([N+]([H])([H])C([H])([H])C([H])([H])C([H])([H])C([H])([H])C(=O)N5C([H])([H])C([H])([H])C([H])([H])C([H])(n6nc(-c7c([H])c([H])c(Oc8c([H])c([H])c(F)c([H])c8F)c([H])c7[H])c(C(=O)N([H])[H])c6N([H])[H])C5([H])[H])C43[H])c([H])c([H])c2C1([H])[H]

>  <smiles>  (41) 
[H]c1c([H])c([H])c2c(c1[H])C([H])([H])C([H])([H])C([H])([H])C2([H])N([H])C(=O)C1([H])N(C(=O)C([H])(N([H])C(=O)C([H])(N([H])C([H])([H])[H])C([H])([H])[H])C(C([H])([H])[H])(C([H])([H])[H])C([H])([H])[H])C([H])([H])c2c([H])c(OC([H])([H])[N+]([H])([H])C([H])(C([H])([H])[H])C3([H])C([H])([H])C4([H])C([H])([H])C([H])([H])C([H])([N+]([H])([H])C([H])([H])C([H])([H])C([H])([H])C([H])([H])C(=O)N5C([H])([H])C([H])([H])C([H])([H])C([H])(n6nc(-c7c([H])c([H])c(Oc8c([H])c([H])c(F)c([H])c8F)c([H])c7[H])c(C(=O)N([H])[H])c6N([H])[H])C5([H])[H])C43[H])c([H])c([H])c2C1([H])[H]

$$$$
41:0:0
     RDKit          3D

 93101  0  0  1  0  0  0  0  0999 V2000
  -28.5600  -21.1580   19.5910 C   0  0  0  0  0  2  0  0  0  0  0  0
  -28.8540  -22.7010   20.2550 C   0  0  0  0  0  3  0  0  0  0  0  0
  -29.7160  -20.6830   21.4850 C   0  0  0  0  0  3  0  0  0  0  0  0
  -29.1230  -19.9240   20.3840 N   0  0  0  0  0  0  0  0  0  0  0  0
  -29.1850  -22.0560   21.5300 O   0  0  0  0  0  0  0  0  0  0  0  0
  -29.0130  -18.2300   18.5280 C   0  0  0  0  0  1  0  0  0  0  0  0
  -29.6550  -18.4280   19.9100 C   0  0  0  0  0  3  0  0  0  0  0  0
  -29.6570  -16.7880   20.6480 C   0  0  0  0  0  2  0  0  0  0  0  0
  -30.4030  -15.2510   20.2290 C   0  0  0  0  0  0  0  0  0  0  0  0
  -30.3820  -12.8070   19.3420 C   0  0  0  0  0  2  0  0  0  0  0  0
  -29.4470  -12.6500   18.1150 C   0  0  0  0  0  2  0  0  0  0  0  0
  -28.0010  -12.3730   18.5600 C   0  0  0  0  0  2  0  0  0  0  0  0
  -27.5680  -13.3110   19.7150 C   0  0  0  0  0  3  0  0  0  0  0  0
  -28.6280  -13.4310   20.8290 C   0  0  0  0  0  2  0  0  0  0  0  0
  -29.8660  -13.9310   20.2100 N   0  0  0  0  0  0  0  0  0  0  0  0
  -31.5890  -15.2630   19.8690 O   0  0  0  0  0  0  0  0  0  0  0  0
  -25.2040  -13.8460   20.5080 C   0  0  0  0  0  0  0  0  0  0  0  0
  -24.1530  -13.0580   20.8890 C   0  0  0  0  0  0  0  0  0  0  0  0
  -24.6290  -11.7120   20.8400 C   0  0  0  0  0  0  0  0  0  0  0  0
  -26.2480  -12.9800   20.2380 N   0  0  0  0  0  0  0  0  0  0  0  0
  -25.9160  -11.6900   20.5060 N   0  0  0  0  0  0  0  0  0  0  0  0
  -23.9120  -10.4430   21.0330 C   0  0  0  0  0  0  0  0  0  0  0  0
  -24.3600   -9.4720   21.9570 C   0  0  0  0  0  3  0  0  0  0  0  0
  -23.6390   -8.2730   22.1390 C   0  0  0  0  0  3  0  0  0  0  0  0
  -22.4580   -8.0320   21.3980 C   0  0  0  0  0  0  0  0  0  0  0  0
  -22.0300   -8.9920   20.4640 C   0  0  0  0  0  3  0  0  0  0  0  0
  -22.7500  -10.1830   20.2790 C   0  0  0  0  0  3  0  0  0  0  0  0
  -21.7090   -6.8840   21.4890 O   0  0  0  0  0  0  0  0  0  0  0  0
  -21.6750   -6.1360   22.6390 C   0  0  0  0  0  0  0  0  0  0  0  0
  -21.2590   -6.6830   23.8730 C   0  0  0  0  0  3  0  0  0  0  0  0
  -21.1740   -5.8600   25.0150 C   0  0  0  0  0  3  0  0  0  0  0  0
  -21.4930   -4.4930   24.9240 C   0  0  0  0  0  0  0  0  0  0  0  0
  -21.9030   -3.9450   23.6950 C   0  0  0  0  0  3  0  0  0  0  0  0
  -21.9910   -4.7640   22.5560 C   0  0  0  0  0  0  0  0  0  0  0  0
  -22.3640   -4.2270   21.3700 F   0  0  0  0  0  0  0  0  0  0  0  0
  -21.4060   -3.7010   26.0180 F   0  0  0  0  0  0  0  0  0  0  0  0
  -22.7570  -13.5240   21.1840 C   0  0  0  0  0  0  0  0  0  0  0  0
  -22.0450  -12.8180   22.0550 N   0  0  0  0  0  0  0  0  0  0  0  0
  -22.3070  -14.5510   20.6750 O   0  0  0  0  0  0  0  0  0  0  0  0
  -22.4230  -11.9900   22.4900 H   0  0  0  0  0  0  0  0  0  0  0  0
  -21.1070  -13.1100   22.2880 H   0  0  0  0  0  0  0  0  0  0  0  0
  -25.3560  -15.2190   20.3420 N   0  0  0  0  0  0  0  0  0  0  0  0
  -24.5910  -15.8690   20.4780 H   0  0  0  0  0  0  0  0  0  0  0  0
  -26.2010  -15.6670   20.0090 H   0  0  0  0  0  0  0  0  0  0  0  0
  -27.8850  -24.2300   20.1870 C   0  0  0  0  0  2  0  0  0  0  0  0
  -28.1550  -25.8520   20.3120 O   0  0  0  0  0  0  0  0  0  0  0  0
  -24.6160  -31.8640   23.2000 C   0  0  0  0  0  0  0  0  0  0  0  0
  -27.1450  -26.9460   20.2420 C   0  0  0  0  0  0  0  0  0  0  0  0
  -23.4120  -30.4540   21.5800 C   0  0  0  0  0  3  0  0  0  0  0  0
  -24.8510  -28.8260   20.1770 C   0  0  0  0  0  0  0  0  0  0  0  0
  -25.9800  -30.6540   21.4250 C   0  0  0  0  0  2  0  0  0  0  0  0
  -26.0420  -29.2370   20.7880 C   0  0  0  0  0  0  0  0  0  0  0  0
  -27.1850  -28.3190   20.7940 C   0  0  0  0  0  3  0  0  0  0  0  0
  -25.9230  -26.6830   19.5830 C   0  0  0  0  0  3  0  0  0  0  0  0
  -24.8160  -27.5690   19.5530 C   0  0  0  0  0  3  0  0  0  0  0  0
  -23.6350  -29.7510   20.2130 C   0  0  0  0  0  2  0  0  0  0  0  0
  -24.6910  -31.0180   22.1210 N   0  0  0  0  0  0  0  0  0  0  0  0
  -23.5300  -32.1640   23.7210 O   0  0  0  0  0  0  0  0  0  0  0  0
  -22.7150  -29.4730   22.5600 C   0  0  0  0  0  0  0  0  0  0  0  0
  -21.3850  -29.3140   22.4380 N   0  0  0  0  0  0  0  0  0  0  0  0
  -23.3790  -28.8560   23.3960 O   0  0  0  0  0  0  0  0  0  0  0  0
  -20.9040  -29.8610   21.7400 H   0  0  0  0  0  0  0  0  0  0  0  0
  -17.9960  -28.1250   22.9630 C   0  0  0  0  0  0  0  0  0  0  0  0
  -20.5580  -28.3900   23.2220 C   0  0  0  0  0  3  0  0  0  0  0  0
  -20.6540  -26.9500   22.6690 C   0  0  0  0  0  2  0  0  0  0  0  0
  -19.5520  -26.6150   21.6590 C   0  0  0  0  0  2  0  0  0  0  0  0
  -18.1700  -26.7680   22.3010 C   0  0  0  0  0  2  0  0  0  0  0  0
  -19.1160  -28.8930   23.3810 C   0  0  0  0  0  0  0  0  0  0  0  0
  -18.8970  -30.1600   23.9650 C   0  0  0  0  0  3  0  0  0  0  0  0
  -17.5920  -30.6610   24.1300 C   0  0  0  0  0  3  0  0  0  0  0  0
  -16.4870  -29.8920   23.7260 C   0  0  0  0  0  3  0  0  0  0  0  0
  -16.6900  -28.6260   23.1490 C   0  0  0  0  0  3  0  0  0  0  0  0
  -25.8920  -32.5070   23.8230 C   0  0  0  0  0  3  0  0  0  0  0  0
  -25.5760  -33.9090   24.1540 N   0  0  0  0  0  0  0  0  0  0  0  0
  -25.9050  -34.9670   23.4020 C   0  0  0  0  0  0  0  0  0  0  0  0
  -26.5680  -34.8670   22.3670 O   0  0  0  0  0  0  0  0  0  0  0  0
  -24.9840  -34.0580   24.9580 H   0  0  0  0  0  0  0  0  0  0  0  0
  -24.1790  -36.7730   23.0730 C   0  0  0  0  0  1  0  0  0  0  0  0
  -25.4250  -36.3580   23.8710 C   0  0  0  0  0  3  0  0  0  0  0  0
  -27.5680  -37.2390   24.6890 C   0  0  0  0  0  1  0  0  0  0  0  0
  -26.4590  -37.4100   23.7530 N   0  0  0  0  0  0  0  0  0  0  0  0
  -26.0560  -38.3310   23.9020 H   0  0  0  0  0  0  0  0  0  0  0  0
  -26.4000  -31.7480   25.1120 C   0  0  1  0  0  0  0  0  0  0  0  0
  -25.3020  -31.5270   26.1800 C   0  0  0  0  0  1  0  0  0  0  0  0
  -26.9790  -30.3630   24.7450 C   0  0  0  0  0  1  0  0  0  0  0  0
  -27.5520  -32.5450   25.7670 C   0  0  0  0  0  1  0  0  0  0  0  0
  -31.2700  -20.7050   21.5770 C   0  0  0  0  0  3  0  0  0  0  0  0
  -33.2260  -20.8550   20.0260 C   0  0  0  0  0  1  0  0  0  0  0  0
  -31.8440  -21.2780   20.3420 N   0  0  0  0  0  4  0  0  0  0  0  0
  -31.2550  -20.9680   19.5870 H   0  0  0  0  0  0  0  0  0  0  0  0
  -31.7960  -22.2820   20.3850 H   0  0  0  0  0  0  0  0  0  0  0  0
  -31.6070  -20.6780   24.1410 C   0  0  0  0  0  1  0  0  0  0  0  0
  -31.7340  -21.4800   22.8380 C   0  0  0  0  0  2  0  0  0  0  0  0
  1  2  1  0
  1  4  1  0
  2 45  1  0
  2  5  1  0
  3  5  1  0
  3 87  1  0
  4  3  1  0
  7  6  1  0
  7  4  1  0
  7  8  1  0
  9  8  1  0
 10 15  1  0
 11 12  1  0
 11 10  1  0
 13 12  1  0
 13 20  1  0
 13 14  1  0
 15  9  1  0
 15 14  1  0
 16  9  2  0
 17 18  2  0
 18 37  1  0
 19 18  1  0
 19 22  1  0
 20 21  1  0
 20 17  1  0
 21 19  2  0
 22 23  1  0
 23 24  2  0
 25 28  1  0
 25 24  1  0
 26 25  2  0
 27 26  1  0
 27 22  2  0
 28 29  1  0
 29 30  1  0
 30 31  2  0
 32 31  1  0
 32 36  1  0
 33 32  2  0
 34 29  2  0
 34 33  1  0
 35 34  1  0
 37 38  1  0
 38 41  1  0
 38 40  1  0
 39 37  2  0
 42 43  1  0
 42 17  1  0
 44 42  1  0
 45 46  1  0
 47 58  2  0
 48 46  1  0
 48 53  1  0
 49 57  1  0
 49 59  1  0
 50 56  1  0
 50 52  1  0
 51 57  1  0
 52 53  2  0
 52 51  1  0
 54 48  2  0
 55 54  1  0
 55 50  2  0
 56 49  1  0
 57 47  1  0
 59 61  2  0
 60 59  1  0
 62 60  1  0
 63 72  2  0
 63 68  1  0
 64 60  1  0
 64 68  1  0
 65 64  1  0
 66 67  1  0
 66 65  1  0
 67 63  1  0
 68 69  2  0
 69 70  1  0
 71 70  2  0
 72 71  1  0
 73 47  1  0
 73 74  1  0
 73 83  1  0
 74 77  1  0
 75 79  1  0
 75 74  1  0
 76 75  2  0
 79 78  1  0
 81 79  1  0
 81 82  1  0
 81 80  1  0
 83 86  1  1
 83 84  1  0
 85 83  1  0
 87 93  1  0
 88 89  1  0
 89 91  1  0
 89 87  1  0
 90 89  1  0
 93 92  1  0
M  ISO  4   8 100   9 100  45 101  46 101
M  END
>  <TORSDO>  (42) 
F 22

>  <SCORE>  (42) 
-14.783

>  <name>  (42) 
41

>  <ligand_id>  (42) 
41

>  <original_smiles>  (42) 
[H]c1c([H])c([H])c2c(c1[H])C([H])([H])C([H])([H])C([H])([H])C2([H])N([H])C(=O)C1([H])N(C(=O)C([H])(N([H])C(=O)C([H])(N([H])C([H])([H])[H])C([H])([H])[H])C(C([H])([H])[H])(C([H])([H])[H])C([H])([H])[H])C([H])([H])c2c([H])c(OC([H])([H])C3([H])OC([H])(C([H])(C([H])([H])C([H])([H])[H])[N+]([H])([H])C([H])([H])[H])N(C([H])(C([H])([H])[H])C([H])([H])C(=O)N4C([H])([H])C([H])([H])C([H])([H])C([H])(n5nc(-c6c([H])c([H])c(Oc7c([H])c([H])c(F)c([H])c7F)c([H])c6[H])c(C(=O)N([H])[H])c5N([H])[H])C4([H])[H])C3([H])[H])c([H])c([H])c2C1([H])[H]

>  <smiles>  (42) 
[H]c1c([H])c([H])c2c(c1[H])C([H])([H])C([H])([H])C([H])([H])C2([H])N([H])C(=O)C1([H])N(C(=O)C([H])(N([H])C(=O)C([H])(N([H])C([H])([H])[H])C([H])([H])[H])C(C([H])([H])[H])(C([H])([H])[H])C([H])([H])[H])C([H])([H])c2c([H])c(OC([H])([H])C3([H])OC([H])(C([H])(C([H])([H])C([H])([H])[H])[N+]([H])([H])C([H])([H])[H])N(C([H])(C([H])([H])[H])C([H])([H])C(=O)N4C([H])([H])C([H])([H])C([H])([H])C([H])(n5nc(-c6c([H])c([H])c(Oc7c([H])c([H])c(F)c([H])c7F)c([H])c6[H])c(C(=O)N([H])[H])c5N([H])[H])C4([H])[H])C3([H])[H])c([H])c([H])c2C1([H])[H]

$$$$
42:0:0
     RDKit          3D

 95103  0  0  1  0  0  0  0  0999 V2000
  -26.4940  -21.2680   19.3550 C   0  0  0  0  0  3  0  0  0  0  0  0
  -26.6960  -22.3970   20.0590 C   0  0  0  0  0  0  0  0  0  0  0  0
  -25.5630  -23.3910   20.2580 C   0  0  0  0  0  1  0  0  0  0  0  0
  -27.5280  -20.2140   19.0100 C   0  0  0  0  0  2  0  0  0  0  0  0
  -27.1260  -18.8600   19.3800 N   0  0  0  0  0  0  0  0  0  0  0  0
  -30.0170  -16.7280   18.3870 C   0  0  0  0  0  3  0  0  0  0  0  0
  -28.9700  -17.6660   18.3220 C   0  0  0  0  0  3  0  0  0  0  0  0
  -29.7240  -16.5520   20.7900 C   0  0  0  0  0  3  0  0  0  0  0  0
  -30.3590  -16.1070   19.6060 C   0  0  0  0  0  0  0  0  0  0  0  0
  -28.6770  -17.5060   20.7350 C   0  0  0  0  0  0  0  0  0  0  0  0
  -28.2580  -18.0240   19.4830 C   0  0  0  0  0  0  0  0  0  0  0  0
  -27.9820  -17.9170   22.0240 C   0  0  0  0  0  1  0  0  0  0  0  0
  -31.2930  -14.9160   19.5550 C   0  0  0  0  0  0  0  0  0  0  0  0
  -30.9550  -12.7330   18.5070 C   0  0  0  0  0  2  0  0  0  0  0  0
  -29.8940  -12.9570   17.4050 C   0  0  0  0  0  2  0  0  0  0  0  0
  -28.4630  -12.8210   17.9740 C   0  0  0  0  0  2  0  0  0  0  0  0
  -28.2540  -13.6410   19.2760 C   0  0  0  0  0  3  0  0  0  0  0  0
  -29.4200  -13.3860   20.2590 C   0  0  0  0  0  2  0  0  0  0  0  0
  -30.6860  -13.6980   19.5800 N   0  0  0  0  0  0  0  0  0  0  0  0
  -32.4290  -15.0990   19.1070 O   0  0  0  0  0  0  0  0  0  0  0  0
  -25.9740  -14.2610   20.2960 C   0  0  0  0  0  0  0  0  0  0  0  0
  -24.9320  -13.5060   20.7420 C   0  0  0  0  0  0  0  0  0  0  0  0
  -25.3430  -12.1490   20.5750 C   0  0  0  0  0  0  0  0  0  0  0  0
  -26.9610  -13.3740   19.8950 N   0  0  0  0  0  0  0  0  0  0  0  0
  -26.5890  -12.0910   20.1220 N   0  0  0  0  0  0  0  0  0  0  0  0
  -24.6020  -10.9040   20.7700 C   0  0  0  0  0  0  0  0  0  0  0  0
  -24.9790   -9.9730   21.7600 C   0  0  0  0  0  3  0  0  0  0  0  0
  -24.2400   -8.7840   21.9400 C   0  0  0  0  0  3  0  0  0  0  0  0
  -23.1110   -8.5220   21.1260 C   0  0  0  0  0  0  0  0  0  0  0  0
  -22.7570   -9.4430   20.1260 C   0  0  0  0  0  3  0  0  0  0  0  0
  -23.4970  -10.6220   19.9440 C   0  0  0  0  0  3  0  0  0  0  0  0
  -22.3510   -7.3820   21.2100 O   0  0  0  0  0  0  0  0  0  0  0  0
  -22.0690   -6.7970   22.4180 C   0  0  0  0  0  0  0  0  0  0  0  0
  -21.3860   -7.4890   23.4410 C   0  0  0  0  0  3  0  0  0  0  0  0
  -21.0510   -6.8230   24.6370 C   0  0  0  0  0  3  0  0  0  0  0  0
  -21.3950   -5.4680   24.8110 C   0  0  0  0  0  0  0  0  0  0  0  0
  -22.0780   -4.7800   23.7920 C   0  0  0  0  0  3  0  0  0  0  0  0
  -22.4100   -5.4420   22.5970 C   0  0  0  0  0  0  0  0  0  0  0  0
  -23.0430   -4.7660   21.6090 F   0  0  0  0  0  0  0  0  0  0  0  0
  -21.0710   -4.8260   25.9570 F   0  0  0  0  0  0  0  0  0  0  0  0
  -23.5960  -14.0080   21.2070 C   0  0  0  0  0  0  0  0  0  0  0  0
  -22.9700  -13.3030   22.1390 N   0  0  0  0  0  0  0  0  0  0  0  0
  -23.1200  -15.0590   20.7770 O   0  0  0  0  0  0  0  0  0  0  0  0
  -23.3630  -12.4470   22.4980 H   0  0  0  0  0  0  0  0  0  0  0  0
  -22.0740  -13.6180   22.4870 H   0  0  0  0  0  0  0  0  0  0  0  0
  -26.1470  -15.6250   20.1790 N   0  0  0  0  0  0  0  0  0  0  0  0
  -25.4030  -16.2790   20.3900 H   0  0  0  0  0  0  0  0  0  0  0  0
  -27.0030  -16.0830   19.8890 H   0  0  0  0  0  0  0  0  0  0  0  0
  -24.6870  -18.2690   19.3040 C   0  0  0  0  0  1  0  0  0  0  0  0
  -26.0480  -18.2570   18.5840 C   0  0  0  0  0  2  0  0  0  0  0  0
  -28.0430  -22.7770   20.6660 C   0  0  0  0  0  2  0  0  0  0  0  0
  -28.8050  -23.7700   19.7730 C   0  0  0  0  0  2  0  0  0  0  0  0
  -28.4840  -25.2290   20.1140 C   0  0  0  0  0  2  0  0  0  0  0  0
  -28.8190  -26.1970   18.9760 C   0  0  0  0  0  2  0  0  0  0  0  0
  -28.6710  -27.5360   19.4330 O   0  0  0  0  0  0  0  0  0  0  0  0
  -24.5840  -31.8990   23.2550 C   0  0  0  0  0  0  0  0  0  0  0  0
  -27.4170  -28.0990   19.5510 C   0  0  0  0  0  0  0  0  0  0  0  0
  -23.4180  -30.6510   21.4630 C   0  0  0  0  0  3  0  0  0  0  0  0
  -24.9210  -29.4030   19.8240 C   0  0  0  0  0  0  0  0  0  0  0  0
  -25.9070  -31.1920   21.2690 C   0  0  0  0  0  2  0  0  0  0  0  0
  -26.0580  -29.9250   20.4540 C   0  0  0  0  0  0  0  0  0  0  0  0
  -27.3030  -29.2770   20.3190 C   0  0  0  0  0  3  0  0  0  0  0  0
  -26.2570  -27.5780   18.9250 C   0  0  0  0  0  3  0  0  0  0  0  0
  -25.0130  -28.2260   19.0620 C   0  0  0  0  0  3  0  0  0  0  0  0
  -23.6270  -30.1640   20.0030 C   0  0  0  0  0  2  0  0  0  0  0  0
  -24.6550  -31.2550   22.0570 N   0  0  0  0  0  0  0  0  0  0  0  0
  -23.5040  -32.0340   23.8460 O   0  0  0  0  0  0  0  0  0  0  0  0
  -22.8540  -29.4760   22.2910 C   0  0  0  0  0  0  0  0  0  0  0  0
  -21.5390  -29.2340   22.1660 N   0  0  0  0  0  0  0  0  0  0  0  0
  -23.5930  -28.7900   23.0020 O   0  0  0  0  0  0  0  0  0  0  0  0
  -21.0000  -29.8490   21.5730 H   0  0  0  0  0  0  0  0  0  0  0  0
  -18.2480  -27.8020   22.5610 C   0  0  0  0  0  0  0  0  0  0  0  0
  -20.7950  -28.1570   22.8160 C   0  0  0  0  0  3  0  0  0  0  0  0
  -20.9570  -26.8250   22.0490 C   0  0  0  0  0  2  0  0  0  0  0  0
  -19.8460  -26.5830   21.0220 C   0  0  0  0  0  2  0  0  0  0  0  0
  -18.4760  -26.5670   21.7070 C   0  0  0  0  0  2  0  0  0  0  0  0
  -19.3370  -28.5590   23.0690 C   0  0  0  0  0  0  0  0  0  0  0  0
  -19.0690  -29.7210   23.8240 C   0  0  0  0  0  3  0  0  0  0  0  0
  -17.7450  -30.1230   24.0820 C   0  0  0  0  0  3  0  0  0  0  0  0
  -16.6710  -29.3580   23.5940 C   0  0  0  0  0  3  0  0  0  0  0  0
  -16.9240  -28.2010   22.8370 C   0  0  0  0  0  3  0  0  0  0  0  0
  -25.8480  -32.5210   23.9300 C   0  0  0  0  0  3  0  0  0  0  0  0
  -25.4900  -33.8690   24.3890 N   0  0  0  0  0  0  0  0  0  0  0  0
  -25.7900  -34.9980   23.7340 C   0  0  0  0  0  0  0  0  0  0  0  0
  -26.4720  -35.0170   22.7050 O   0  0  0  0  0  0  0  0  0  0  0  0
  -24.8900  -33.9270   25.1980 H   0  0  0  0  0  0  0  0  0  0  0  0
  -24.0080  -36.7590   23.5190 C   0  0  0  0  0  1  0  0  0  0  0  0
  -25.2480  -36.3190   24.3140 C   0  0  0  0  0  3  0  0  0  0  0  0
  -27.3310  -37.1840   25.2820 C   0  0  0  0  0  1  0  0  0  0  0  0
  -26.2470  -37.4100   24.3300 N   0  0  0  0  0  0  0  0  0  0  0  0
  -25.8060  -38.2970   24.5610 H   0  0  0  0  0  0  0  0  0  0  0  0
  -26.4050  -31.6560   25.1270 C   0  0  1  0  0  0  0  0  0  0  0  0
  -25.3310  -31.2760   26.1710 C   0  0  0  0  0  1  0  0  0  0  0  0
  -27.0330  -30.3440   24.6030 C   0  0  0  0  0  1  0  0  0  0  0  0
  -27.5350  -32.4250   25.8530 C   0  0  0  0  0  1  0  0  0  0  0  0
  1  2  2  0
  2  3  1  0
  2 51  1  0
  4  1  1  0
  4  5  1  0
  5 11  1  0
  6  9  1  0
  7  6  2  0
  7 11  1  0
  9  8  2  0
 10  8  1  0
 10 12  1  0
 11 10  2  0
 13 19  1  0
 13  9  1  0
 14 19  1  0
 15 16  1  0
 15 14  1  0
 17 16  1  0
 17 24  1  0
 17 18  1  0
 19 18  1  0
 20 13  2  0
 21 22  2  0
 22 41  1  0
 23 22  1  0
 23 26  1  0
 24 25  1  0
 24 21  1  0
 25 23  2  0
 26 27  1  0
 27 28  2  0
 29 32  1  0
 29 28  1  0
 30 29  2  0
 31 30  1  0
 31 26  2  0
 32 33  1  0
 33 38  2  0
 33 34  1  0
 34 35  2  0
 35 36  1  0
 36 40  1  0
 37 36  2  0
 38 37  1  0
 39 38  1  0
 41 42  1  0
 42 45  1  0
 42 44  1  0
 43 41  2  0
 46 21  1  0
 46 47  1  0
 48 46  1  0
 50 49  1  0
 50  5  1  0
 52 53  1  0
 52 51  1  0
 54 55  1  0
 54 53  1  0
 55 57  1  0
 56 67  2  0
 57 62  1  0
 58 66  1  0
 58 68  1  0
 59 65  1  0
 59 61  1  0
 60 66  1  0
 61 60  1  0
 62 61  2  0
 63 64  1  0
 63 57  2  0
 64 59  2  0
 65 58  1  0
 66 56  1  0
 68 70  2  0
 69 68  1  0
 71 69  1  0
 72 81  2  0
 72 77  1  0
 73 69  1  0
 73 77  1  0
 74 73  1  0
 75 76  1  0
 75 74  1  0
 76 72  1  0
 77 78  2  0
 78 79  1  0
 80 79  2  0
 81 80  1  0
 82 56  1  0
 82 83  1  0
 82 92  1  0
 83 86  1  0
 84 88  1  0
 84 83  1  0
 85 84  2  0
 88 87  1  0
 88 90  1  0
 90 91  1  0
 90 89  1  0
 92 95  1  1
 92 93  1  0
 94 92  1  0
M  ISO  4   9 100  13 100  54 101  55 101
M  END
>  <TORSDO>  (43) 
F 24

>  <SCORE>  (43) 
-4.852

>  <name>  (43) 
42

>  <ligand_id>  (43) 
42

>  <original_smiles>  (43) 
[H]C(=C(C([H])([H])[H])C([H])([H])C([H])([H])C([H])([H])C([H])([H])Oc1c([H])c([H])c2c(c1[H])C([H])([H])N(C(=O)C([H])(N([H])C(=O)C([H])(N([H])C([H])([H])[H])C([H])([H])[H])C(C([H])([H])[H])(C([H])([H])[H])C([H])([H])[H])C([H])(C(=O)N([H])C1([H])c3c([H])c([H])c([H])c([H])c3C([H])([H])C([H])([H])C1([H])[H])C2([H])[H])C([H])([H])N(c1c([H])c([H])c(C(=O)N2C([H])([H])C([H])([H])C([H])([H])C([H])(n3nc(-c4c([H])c([H])c(Oc5c([H])c([H])c(F)c([H])c5F)c([H])c4[H])c(C(=O)N([H])[H])c3N([H])[H])C2([H])[H])c([H])c1C([H])([H])[H])C([H])([H])C([H])([H])[H]

>  <smiles>  (43) 
[H]C(=C(C([H])([H])[H])C([H])([H])C([H])([H])C([H])([H])C([H])([H])Oc1c([H])c([H])c2c(c1[H])C([H])([H])N(C(=O)C([H])(N([H])C(=O)C([H])(N([H])C([H])([H])[H])C([H])([H])[H])C(C([H])([H])[H])(C([H])([H])[H])C([H])([H])[H])C([H])(C(=O)N([H])C1([H])c3c([H])c([H])c([H])c([H])c3C([H])([H])C([H])([H])C1([H])[H])C2([H])[H])C([H])([H])N(c1c([H])c([H])c(C(=O)N2C([H])([H])C([H])([H])C([H])([H])C([H])(n3nc(-c4c([H])c([H])c(Oc5c([H])c([H])c(F)c([H])c5F)c([H])c4[H])c(C(=O)N([H])[H])c3N([H])[H])C2([H])[H])c([H])c1C([H])([H])[H])C([H])([H])C([H])([H])[H]

$$$$
43:0:0
     RDKit          3D

 96105  0  0  1  0  0  0  0  0999 V2000
  -30.3540  -21.9830   24.0770 C   0  0  0  0  0  2  0  0  0  0  0  0
  -30.3670  -21.4310   22.0470 C   0  0  0  0  0  2  0  0  0  0  0  0
  -28.7370  -23.4160   22.5830 C   0  0  0  0  0  2  0  0  0  0  0  0
  -31.0560  -23.9290   22.4410 C   0  0  0  0  0  2  0  0  0  0  0  0
  -31.1540  -20.9510   23.2730 C   0  0  0  0  0  3  0  0  0  0  0  0
  -28.9180  -24.6640   21.6970 C   0  0  0  0  0  3  0  0  0  0  0  0
  -30.1090  -22.7720   22.7700 C   0  0  1  0  0  0  0  0  0  0  0  0
  -30.8960  -26.1280   21.3110 C   0  0  0  0  0  1  0  0  0  0  0  0
  -30.3700  -24.7480   21.4220 N   0  0  1  0  0  4  0  0  0  0  0  0
  -30.5330  -24.2890   20.5390 H   0  0  0  0  0  0  0  0  0  0  0  0
  -30.9140  -19.5360   23.6450 N   0  0  0  0  0  4  0  0  0  0  0  0
  -29.9260  -19.3810   23.7630 H   0  0  0  0  0  0  0  0  0  0  0  0
  -31.3550  -19.3460   24.5330 H   0  0  0  0  0  0  0  0  0  0  0  0
  -31.4340  -18.5720   22.6550 C   0  0  0  0  0  2  0  0  0  0  0  0
  -30.5980  -17.2810   22.5890 C   0  0  0  0  0  2  0  0  0  0  0  0
  -31.0680  -16.3470   21.4610 C   0  0  0  0  0  2  0  0  0  0  0  0
  -30.1430  -15.1300   21.2710 C   0  0  0  0  0  2  0  0  0  0  0  0
  -30.5970  -14.1540   20.1690 C   0  0  0  0  0  0  0  0  0  0  0  0
  -30.2140  -12.0570   18.9150 C   0  0  0  0  0  2  0  0  0  0  0  0
  -29.2150  -12.2610   17.7620 C   0  0  0  0  0  2  0  0  0  0  0  0
  -27.7610  -12.1240   18.2570 C   0  0  0  0  0  2  0  0  0  0  0  0
  -27.4850  -12.9680   19.5290 C   0  0  0  0  0  3  0  0  0  0  0  0
  -28.5790  -12.7210   20.5900 C   0  0  0  0  0  2  0  0  0  0  0  0
  -29.8850  -13.0150   19.9780 N   0  0  0  0  0  0  0  0  0  0  0  0
  -31.5930  -14.4340   19.4920 O   0  0  0  0  0  0  0  0  0  0  0  0
  -25.1230  -13.5980   20.3490 C   0  0  0  0  0  0  0  0  0  0  0  0
  -24.0620  -12.8330   20.7540 C   0  0  0  0  0  0  0  0  0  0  0  0
  -24.5030  -11.4760   20.6770 C   0  0  0  0  0  0  0  0  0  0  0  0
  -26.1470  -12.7080   20.0590 N   0  0  0  0  0  0  0  0  0  0  0  0
  -25.7760  -11.4260   20.3090 N   0  0  0  0  0  0  0  0  0  0  0  0
  -23.7700  -10.2200   20.8770 C   0  0  0  0  0  0  0  0  0  0  0  0
  -24.2010   -9.2540   21.8120 C   0  0  0  0  0  3  0  0  0  0  0  0
  -23.4690   -8.0610   21.9990 C   0  0  0  0  0  3  0  0  0  0  0  0
  -22.2900   -7.8280   21.2520 C   0  0  0  0  0  0  0  0  0  0  0  0
  -21.8780   -8.7830   20.3050 C   0  0  0  0  0  3  0  0  0  0  0  0
  -22.6110   -9.9660   20.1160 C   0  0  0  0  0  3  0  0  0  0  0  0
  -21.5290   -6.6870   21.3490 O   0  0  0  0  0  0  0  0  0  0  0  0
  -21.4340   -5.9840   22.5230 C   0  0  0  0  0  0  0  0  0  0  0  0
  -20.9320   -6.5700   23.7060 C   0  0  0  0  0  3  0  0  0  0  0  0
  -20.7860   -5.7910   24.8710 C   0  0  0  0  0  3  0  0  0  0  0  0
  -21.1320   -4.4270   24.8530 C   0  0  0  0  0  0  0  0  0  0  0  0
  -21.6270   -3.8390   23.6750 C   0  0  0  0  0  3  0  0  0  0  0  0
  -21.7740   -4.6160   22.5130 C   0  0  0  0  0  0  0  0  0  0  0  0
  -22.2310   -4.0410   21.3750 F   0  0  0  0  0  0  0  0  0  0  0  0
  -20.9840   -3.6760   25.9690 F   0  0  0  0  0  0  0  0  0  0  0  0
  -22.6850  -13.3220   21.0990 C   0  0  0  0  0  0  0  0  0  0  0  0
  -21.9940  -12.6270   21.9970 N   0  0  0  0  0  0  0  0  0  0  0  0
  -22.2320  -14.3570   20.6100 O   0  0  0  0  0  0  0  0  0  0  0  0
  -22.3730  -11.7900   22.4140 H   0  0  0  0  0  0  0  0  0  0  0  0
  -21.0720  -12.9370   22.2700 H   0  0  0  0  0  0  0  0  0  0  0  0
  -25.2990  -14.9690   20.1880 N   0  0  0  0  0  0  0  0  0  0  0  0
  -24.5480  -15.6330   20.3390 H   0  0  0  0  0  0  0  0  0  0  0  0
  -26.1450  -15.4010   19.8360 H   0  0  0  0  0  0  0  0  0  0  0  0
  -28.0730  -24.6320   20.4020 C   0  0  0  0  0  2  0  0  0  0  0  0
  -26.6170  -25.0450   20.6560 C   0  0  0  0  0  2  0  0  0  0  0  0
  -26.0340  -25.6030   19.4790 O   0  0  0  0  0  0  0  0  0  0  0  0
  -24.5230  -31.1530   23.6310 C   0  0  0  0  0  0  0  0  0  0  0  0
  -25.1730  -26.6330   19.7550 C   0  0  0  0  0  0  0  0  0  0  0  0
  -22.6920  -30.3860   22.1510 C   0  0  0  0  0  3  0  0  0  0  0  0
  -23.3570  -28.7060   20.3490 C   0  0  0  0  0  0  0  0  0  0  0  0
  -25.1340  -30.0580   21.4820 C   0  0  0  0  0  2  0  0  0  0  0  0
  -24.6970  -28.8150   20.7390 C   0  0  0  0  0  0  0  0  0  0  0  0
  -25.6100  -27.7860   20.4410 C   0  0  0  0  0  3  0  0  0  0  0  0
  -23.8280  -26.5350   19.3520 C   0  0  0  0  0  3  0  0  0  0  0  0
  -22.9130  -27.5660   19.6540 C   0  0  0  0  0  3  0  0  0  0  0  0
  -22.4490  -29.8610   20.7090 C   0  0  0  0  0  2  0  0  0  0  0  0
  -24.1480  -30.5330   22.4760 N   0  0  0  0  0  0  0  0  0  0  0  0
  -23.6820  -31.6430   24.3970 O   0  0  0  0  0  0  0  0  0  0  0  0
  -21.9330  -29.4720   23.1380 C   0  0  0  0  0  0  0  0  0  0  0  0
  -20.6070  -29.3620   22.9500 N   0  0  0  0  0  0  0  0  0  0  0  0
  -22.5350  -28.8590   24.0250 O   0  0  0  0  0  0  0  0  0  0  0  0
  -20.1900  -29.9020   22.2040 H   0  0  0  0  0  0  0  0  0  0  0  0
  -17.2260  -28.1010   23.0890 C   0  0  0  0  0  0  0  0  0  0  0  0
  -19.6930  -28.5300   23.7310 C   0  0  0  0  0  3  0  0  0  0  0  0
  -19.9240  -27.0290   23.4440 C   0  0  0  0  0  2  0  0  0  0  0  0
  -19.0210  -26.4820   22.3340 C   0  0  0  0  0  2  0  0  0  0  0  0
  -17.5460  -26.6660   22.7010 C   0  0  0  0  0  2  0  0  0  0  0  0
  -18.2390  -28.9800   23.5570 C   0  0  0  0  0  0  0  0  0  0  0  0
  -17.8970  -30.3140   23.8670 C   0  0  0  0  0  3  0  0  0  0  0  0
  -16.5730  -30.7700   23.7230 C   0  0  0  0  0  3  0  0  0  0  0  0
  -15.5720  -29.8910   23.2750 C   0  0  0  0  0  3  0  0  0  0  0  0
  -15.8980  -28.5600   22.9640 C   0  0  0  0  0  3  0  0  0  0  0  0
  -26.0250  -31.3010   24.0310 C   0  0  0  0  0  3  0  0  0  0  0  0
  -26.1930  -32.6340   24.6240 N   0  0  0  0  0  0  0  0  0  0  0  0
  -26.7840  -33.6690   24.0100 C   0  0  0  0  0  0  0  0  0  0  0  0
  -27.3150  -33.5750   22.8990 O   0  0  0  0  0  0  0  0  0  0  0  0
  -25.7320  -32.8000   25.5060 H   0  0  0  0  0  0  0  0  0  0  0  0
  -25.6940  -35.9280   24.1620 C   0  0  0  0  0  1  0  0  0  0  0  0
  -26.7900  -35.0210   24.7460 C   0  0  0  0  0  3  0  0  0  0  0  0
  -29.1370  -35.0480   25.4640 C   0  0  0  0  0  1  0  0  0  0  0  0
  -28.0950  -35.7170   24.6910 N   0  0  0  0  0  0  0  0  0  0  0  0
  -28.0090  -36.6710   25.0320 H   0  0  0  0  0  0  0  0  0  0  0  0
  -26.5180  -30.1790   25.0260 C   0  0  1  0  0  0  0  0  0  0  0  0
  -25.6180  -30.0180   26.2730 C   0  0  0  0  0  1  0  0  0  0  0  0
  -26.5860  -28.8090   24.3090 C   0  0  0  0  0  1  0  0  0  0  0  0
  -27.9530  -30.5000   25.5080 C   0  0  0  0  0  1  0  0  0  0  0  0
  2  5  1  0
  7  3  1  1
  4  7  1  0
  5 11  1  0
  5  1  1  0
  6 54  1  0
  6  3  1  0
  7  2  1  0
  7  1  1  0
  8  9  1  0
  9  6  1  0
  9  4  1  0
  9 10  1  6
 11 12  1  0
 11 13  1  0
 14 11  1  0
 15 14  1  0
 16 15  1  0
 17 16  1  0
 18 17  1  0
 19 24  1  0
 20 21  1  0
 20 19  1  0
 22 21  1  0
 22 29  1  0
 22 23  1  0
 24 18  1  0
 24 23  1  0
 25 18  2  0
 26 27  2  0
 27 46  1  0
 28 27  1  0
 28 31  1  0
 29 30  1  0
 29 26  1  0
 30 28  2  0
 31 32  1  0
 32 33  2  0
 34 37  1  0
 34 33  1  0
 35 34  2  0
 36 35  1  0
 36 31  2  0
 37 38  1  0
 38 39  1  0
 39 40  2  0
 41 40  1  0
 41 45  1  0
 42 41  2  0
 43 38  2  0
 43 42  1  0
 44 43  1  0
 46 47  1  0
 47 50  1  0
 47 49  1  0
 48 46  2  0
 51 52  1  0
 51 26  1  0
 53 51  1  0
 54 55  1  0
 56 58  1  0
 56 55  1  0
 57 68  2  0
 58 63  1  0
 59 67  1  0
 59 69  1  0
 60 66  1  0
 60 62  1  0
 61 67  1  0
 62 61  1  0
 63 62  2  0
 64 65  1  0
 64 58  2  0
 65 60  2  0
 66 59  1  0
 67 57  1  0
 69 71  2  0
 70 69  1  0
 72 70  1  0
 73 78  1  0
 74 70  1  0
 75 74  1  0
 76 77  1  0
 76 75  1  0
 77 73  1  0
 78 74  1  0
 78 79  2  0
 80 79  1  0
 81 80  2  0
 82 73  2  0
 82 81  1  0
 83 57  1  0
 83 84  1  0
 83 93  1  0
 84 87  1  0
 85 84  1  0
 85 89  1  0
 86 85  2  0
 89 88  1  0
 91 89  1  0
 91 92  1  0
 91 90  1  0
 93 96  1  1
 93 94  1  0
 95 93  1  0
M  ISO  4  17 100  18 100  55 101  56 101
M  END
>  <TORSDO>  (44) 
F 23

>  <SCORE>  (44) 
-8.999

>  <name>  (44) 
43

>  <ligand_id>  (44) 
43

>  <original_smiles>  (44) 
[H]c1c([H])c([H])c2c(c1[H])C([H])([H])C([H])([H])C([H])([H])C2([H])N([H])C(=O)C1([H])N(C(=O)C([H])(N([H])C(=O)C([H])(N([H])C([H])([H])[H])C([H])([H])[H])C(C([H])([H])[H])(C([H])([H])[H])C([H])([H])[H])C([H])([H])c2c([H])c(OC([H])([H])C([H])([H])C3([H])C([H])([H])C4(C([H])([H])C([H])([N+]([H])([H])C([H])([H])C([H])([H])C([H])([H])C([H])([H])C(=O)N5C([H])([H])C([H])([H])C([H])([H])C([H])(n6nc(-c7c([H])c([H])c(Oc8c([H])c([H])c(F)c([H])c8F)c([H])c7[H])c(C(=O)N([H])[H])c6N([H])[H])C5([H])[H])C4([H])[H])C([H])([H])[N+]3([H])C([H])([H])[H])c([H])c([H])c2C1([H])[H]

>  <smiles>  (44) 
[H]c1c([H])c([H])c2c(c1[H])C([H])([H])C([H])([H])C([H])([H])C2([H])N([H])C(=O)C1([H])N(C(=O)C([H])(N([H])C(=O)C([H])(N([H])C([H])([H])[H])C([H])([H])[H])C(C([H])([H])[H])(C([H])([H])[H])C([H])([H])[H])C([H])([H])c2c([H])c(OC([H])([H])C([H])([H])C3([H])C([H])([H])C4(C([H])([H])C([H])([N+]([H])([H])C([H])([H])C([H])([H])C([H])([H])C([H])([H])C(=O)N5C([H])([H])C([H])([H])C([H])([H])C([H])(n6nc(-c7c([H])c([H])c(Oc8c([H])c([H])c(F)c([H])c8F)c([H])c7[H])c(C(=O)N([H])[H])c6N([H])[H])C5([H])[H])C4([H])[H])C([H])([H])[N+]3([H])C([H])([H])[H])c([H])c([H])c2C1([H])[H]

$$$$
44:0:0
     RDKit          3D

 90 99  0  0  1  0  0  0  0  0999 V2000
  -31.0540  -19.4680   21.7160 C   0  0  0  0  0  0  0  0  0  0  0  0
  -31.2390  -17.9510   21.5190 C   0  0  0  0  0  2  0  0  0  0  0  0
  -29.4730  -18.8000   20.1100 C   0  0  0  0  0  2  0  0  0  0  0  0
  -29.0570  -16.5100   21.3410 C   0  0  0  0  0  2  0  0  0  0  0  0
  -29.7940  -20.0160   21.0290 C   0  0  0  0  0  3  0  0  0  0  0  0
  -29.7810  -16.0460   20.0900 C   0  0  2  0  0  0  0  0  0  0  0  0
  -30.0320  -17.4780   20.7240 C   0  0  2  0  0  0  0  0  0  0  0  0
  -29.2530  -16.2040   18.6650 C   0  0  0  0  0  1  0  0  0  0  0  0
  -31.8420  -20.1660   22.3570 O   0  0  0  0  0  0  0  0  0  0  0  0
  -30.6580  -14.7570   20.2280 C   0  0  0  0  0  0  0  0  0  0  0  0
  -30.4530  -12.4590   19.3010 C   0  0  0  0  0  2  0  0  0  0  0  0
  -29.5230  -12.4970   18.0650 C   0  0  0  0  0  2  0  0  0  0  0  0
  -28.0310  -12.4300   18.4710 C   0  0  0  0  0  2  0  0  0  0  0  0
  -27.6630  -13.3090   19.6980 C   0  0  0  0  0  3  0  0  0  0  0  0
  -28.7260  -13.2170   20.8130 C   0  0  0  0  0  2  0  0  0  0  0  0
  -30.0370  -13.5300   20.2300 N   0  0  0  0  0  0  0  0  0  0  0  0
  -31.8680  -14.8380   20.0080 O   0  0  0  0  0  0  0  0  0  0  0  0
  -25.2740  -13.9250   20.4130 C   0  0  0  0  0  0  0  0  0  0  0  0
  -24.2050  -13.1580   20.7880 C   0  0  0  0  0  0  0  0  0  0  0  0
  -24.6680  -11.8070   20.7800 C   0  0  0  0  0  0  0  0  0  0  0  0
  -26.3180  -13.0380   20.1930 N   0  0  0  0  0  0  0  0  0  0  0  0
  -25.9590  -11.7610   20.4780 N   0  0  0  0  0  0  0  0  0  0  0  0
  -23.9420  -10.5480   20.9840 C   0  0  0  0  0  0  0  0  0  0  0  0
  -24.3780   -9.5870   21.9220 C   0  0  0  0  0  3  0  0  0  0  0  0
  -23.6530   -8.3920   22.1120 C   0  0  0  0  0  3  0  0  0  0  0  0
  -22.4760   -8.1500   21.3640 C   0  0  0  0  0  0  0  0  0  0  0  0
  -22.0600   -9.1000   20.4140 C   0  0  0  0  0  3  0  0  0  0  0  0
  -22.7870  -10.2860   20.2220 C   0  0  0  0  0  3  0  0  0  0  0  0
  -21.7200   -7.0070   21.4640 O   0  0  0  0  0  0  0  0  0  0  0  0
  -21.6840   -6.2680   22.6180 C   0  0  0  0  0  0  0  0  0  0  0  0
  -21.2850   -6.8300   23.8500 C   0  0  0  0  0  3  0  0  0  0  0  0
  -21.1940   -6.0180   24.9970 C   0  0  0  0  0  3  0  0  0  0  0  0
  -21.4940   -4.6450   24.9140 C   0  0  0  0  0  0  0  0  0  0  0  0
  -21.8880   -4.0830   23.6880 C   0  0  0  0  0  3  0  0  0  0  0  0
  -21.9790   -4.8920   22.5420 C   0  0  0  0  0  0  0  0  0  0  0  0
  -22.3390   -4.3410   21.3570 F   0  0  0  0  0  0  0  0  0  0  0  0
  -21.4000   -3.8620   26.0150 F   0  0  0  0  0  0  0  0  0  0  0  0
  -22.8070  -13.6390   21.0450 C   0  0  0  0  0  0  0  0  0  0  0  0
  -22.0750  -12.9550   21.9180 N   0  0  0  0  0  0  0  0  0  0  0  0
  -22.3710  -14.6550   20.5060 O   0  0  0  0  0  0  0  0  0  0  0  0
  -22.4430  -12.1320   22.3730 H   0  0  0  0  0  0  0  0  0  0  0  0
  -21.1360  -13.2570   22.1320 H   0  0  0  0  0  0  0  0  0  0  0  0
  -25.4410  -15.2930   20.2190 N   0  0  0  0  0  0  0  0  0  0  0  0
  -24.6770  -15.9530   20.3210 H   0  0  0  0  0  0  0  0  0  0  0  0
  -26.2990  -15.7250   19.9050 H   0  0  0  0  0  0  0  0  0  0  0  0
  -29.9200  -21.4580   20.3500 C   0  0  0  0  0  3  0  0  0  0  0  0
  -29.0560  -22.6550   20.9270 C   0  0  0  0  0  3  0  0  0  0  0  0
  -29.2380  -24.0990   20.2860 C   0  0  0  0  0  3  0  0  0  0  0  0
  -28.2600  -25.2360   20.7950 C   0  0  0  0  0  3  0  0  0  0  0  0
  -28.4290  -26.6000   20.2680 O   0  0  0  0  0  0  0  0  0  0  0  0
  -24.6240  -31.9350   23.2460 C   0  0  0  0  0  0  0  0  0  0  0  0
  -27.2920  -27.4120   20.2360 C   0  0  0  0  0  0  0  0  0  0  0  0
  -23.4340  -30.5190   21.6070 C   0  0  0  0  0  3  0  0  0  0  0  0
  -24.9040  -28.9720   20.1980 C   0  0  0  0  0  0  0  0  0  0  0  0
  -25.9650  -30.8700   21.4230 C   0  0  0  0  0  2  0  0  0  0  0  0
  -26.0630  -29.4880   20.7940 C   0  0  0  0  0  0  0  0  0  0  0  0
  -27.2620  -28.7190   20.8020 C   0  0  0  0  0  3  0  0  0  0  0  0
  -26.1180  -26.9430   19.6100 C   0  0  0  0  0  3  0  0  0  0  0  0
  -24.9310  -27.7020   19.5980 C   0  0  0  0  0  3  0  0  0  0  0  0
  -23.6580  -29.8310   20.2340 C   0  0  0  0  0  2  0  0  0  0  0  0
  -24.6930  -31.1240   22.1510 N   0  0  0  0  0  0  0  0  0  0  0  0
  -23.5380  -32.2080   23.7770 O   0  0  0  0  0  0  0  0  0  0  0  0
  -22.7750  -29.5050   22.5730 C   0  0  0  0  0  0  0  0  0  0  0  0
  -21.4490  -29.3270   22.4470 N   0  0  0  0  0  0  0  0  0  0  0  0
  -23.4560  -28.8810   23.3910 O   0  0  0  0  0  0  0  0  0  0  0  0
  -20.9600  -29.8810   21.7600 H   0  0  0  0  0  0  0  0  0  0  0  0
  -18.0740  -28.1350   22.9560 C   0  0  0  0  0  0  0  0  0  0  0  0
  -20.6320  -28.3920   23.2210 C   0  0  0  0  0  3  0  0  0  0  0  0
  -20.7310  -26.9580   22.6490 C   0  0  0  0  0  2  0  0  0  0  0  0
  -19.6270  -26.6360   21.6360 C   0  0  0  0  0  2  0  0  0  0  0  0
  -18.2470  -26.7840   22.2830 C   0  0  0  0  0  2  0  0  0  0  0  0
  -19.1940  -28.8970   23.3830 C   0  0  0  0  0  0  0  0  0  0  0  0
  -18.9780  -30.1610   23.9730 C   0  0  0  0  0  3  0  0  0  0  0  0
  -17.6740  -30.6650   24.1390 C   0  0  0  0  0  3  0  0  0  0  0  0
  -16.5680  -29.9010   23.7280 C   0  0  0  0  0  3  0  0  0  0  0  0
  -16.7680  -28.6370   23.1430 C   0  0  0  0  0  3  0  0  0  0  0  0
  -25.9020  -32.5780   23.8700 C   0  0  0  0  0  3  0  0  0  0  0  0
  -26.4190  -31.8130   25.1500 C   0  0  1  0  0  0  0  0  0  0  0  0
  -25.3240  -31.5740   26.2150 C   0  0  0  0  0  1  0  0  0  0  0  0
  -27.0090  -30.4380   24.7630 C   0  0  0  0  0  1  0  0  0  0  0  0
  -27.5670  -32.6120   25.8120 C   0  0  0  0  0  1  0  0  0  0  0  0
  -25.5860  -33.9760   24.1930 N   0  0  0  0  0  0  0  0  0  0  0  0
  -25.9160  -35.0270   23.4300 C   0  0  0  0  0  0  0  0  0  0  0  0
  -26.5910  -34.9220   22.4020 O   0  0  0  0  0  0  0  0  0  0  0  0
  -24.9870  -34.1320   24.9910 H   0  0  0  0  0  0  0  0  0  0  0  0
  -24.1820  -36.8110   23.0590 C   0  0  0  0  0  1  0  0  0  0  0  0
  -25.4210  -36.4150   23.8790 C   0  0  0  0  0  3  0  0  0  0  0  0
  -27.5490  -37.3110   24.7140 C   0  0  0  0  0  1  0  0  0  0  0  0
  -26.4490  -37.4720   23.7660 N   0  0  0  0  0  0  0  0  0  0  0  0
  -26.0400  -38.3910   23.9110 H   0  0  0  0  0  0  0  0  0  0  0  0
  1  9  2  0
  2  1  1  0
  3  5  1  0
  5 46  1  0
  5  1  1  0
  6  8  1  6
  6 10  1  0
  6  7  1  0
  6  4  1  0
  7  3  1  6
  7  4  1  0
  7  2  1  0
 10 16  1  0
 11 16  1  0
 12 13  1  0
 12 11  1  0
 14 13  1  0
 14 21  1  0
 14 15  1  0
 16 15  1  0
 17 10  2  0
 18 19  2  0
 19 38  1  0
 20 19  1  0
 20 23  1  0
 21 18  1  0
 21 22  1  0
 22 20  2  0
 23 24  1  0
 24 25  2  0
 26 29  1  0
 26 25  1  0
 27 26  2  0
 28 27  1  0
 28 23  2  0
 29 30  1  0
 30 31  1  0
 31 32  2  0
 33 32  1  0
 33 37  1  0
 34 33  2  0
 35 30  2  0
 35 34  1  0
 36 35  1  0
 38 39  1  0
 39 42  1  0
 39 41  1  0
 40 38  2  0
 43 44  1  0
 43 18  1  0
 45 43  1  0
 46 47  2  0
 48 49  2  0
 48 47  1  0
 50 49  1  0
 51 62  2  0
 52 50  1  0
 52 57  1  0
 53 61  1  0
 53 63  1  0
 54 60  1  0
 54 56  1  0
 55 61  1  0
 56 57  2  0
 56 55  1  0
 58 52  2  0
 59 58  1  0
 59 54  2  0
 60 53  1  0
 61 51  1  0
 63 65  2  0
 64 63  1  0
 66 64  1  0
 67 76  2  0
 67 72  1  0
 68 64  1  0
 68 72  1  0
 69 68  1  0
 70 71  1  0
 70 69  1  0
 71 67  1  0
 72 73  2  0
 73 74  1  0
 75 74  2  0
 76 75  1  0
 77 51  1  0
 77 82  1  0
 77 78  1  0
 78 81  1  1
 78 79  1  0
 80 78  1  0
 82 85  1  0
 83 87  1  0
 83 82  1  0
 84 83  2  0
 87 86  1  0
 89 87  1  0
 89 90  1  0
 89 88  1  0
M  ISO  4   6 100  10 100  49 101  50 101
M  END
>  <TORSDO>  (45) 
F 20

>  <SCORE>  (45) 
-13.651

>  <name>  (45) 
44

>  <ligand_id>  (45) 
44

>  <original_smiles>  (45) 
[H]c1c([H])c([H])c2c(c1[H])C([H])([H])C([H])([H])C([H])([H])C2([H])N([H])C(=O)C1([H])N(C(=O)C([H])(N([H])C(=O)C([H])(N([H])C([H])([H])[H])C([H])([H])[H])C(C([H])([H])[H])(C([H])([H])[H])C([H])([H])[H])C([H])([H])c2c([H])c(OC([H])([H])C([H])([H])C([H])([H])C([H])([H])C3([H])C(=O)C([H])([H])C4(C3([H])[H])C([H])([H])C4(C(=O)N3C([H])([H])C([H])([H])C([H])([H])C([H])(n4nc(-c5c([H])c([H])c(Oc6c([H])c([H])c(F)c([H])c6F)c([H])c5[H])c(C(=O)N([H])[H])c4N([H])[H])C3([H])[H])C([H])([H])[H])c([H])c([H])c2C1([H])[H]

>  <smiles>  (45) 
[H]c1c([H])c([H])c2c(c1[H])C([H])([H])C([H])([H])C([H])([H])C2([H])N([H])C(=O)C1([H])N(C(=O)C([H])(N([H])C(=O)C([H])(N([H])C([H])([H])[H])C([H])([H])[H])C(C([H])([H])[H])(C([H])([H])[H])C([H])([H])[H])C([H])([H])c2c([H])c(OC([H])([H])C([H])([H])C([H])([H])C([H])([H])C3([H])C(=O)C([H])([H])C4(C3([H])[H])C([H])([H])C4(C(=O)N3C([H])([H])C([H])([H])C([H])([H])C([H])(n4nc(-c5c([H])c([H])c(Oc6c([H])c([H])c(F)c([H])c6F)c([H])c5[H])c(C(=O)N([H])[H])c4N([H])[H])C3([H])[H])C([H])([H])[H])c([H])c([H])c2C1([H])[H]

$$$$
45:0:0
     RDKit          3D

 87 95  0  0  1  0  0  0  0  0999 V2000
  -28.8910  -21.2240   20.6880 C   0  0  0  0  0  2  0  0  0  0  0  0
  -31.4600  -19.1290   19.0290 C   0  0  0  0  0  2  0  0  0  0  0  0
  -31.3610  -18.6100   20.4600 C   0  0  0  0  0  2  0  0  0  0  0  0
  -30.2580  -20.0730   18.8590 C   0  0  0  0  0  2  0  0  0  0  0  0
  -29.8590  -18.4020   20.6370 C   0  0  0  0  0  3  0  0  0  0  0  0
  -29.2920  -19.7960   19.9530 N   0  0  1  0  0  4  0  0  0  0  0  0
  -28.4330  -19.5260   19.4960 H   0  0  0  0  0  0  0  0  0  0  0  0
  -29.5080  -16.7150   20.1880 C   0  0  0  0  0  2  0  0  0  0  0  0
  -30.3860  -15.2110   20.2290 C   0  0  0  0  0  0  0  0  0  0  0  0
  -30.3620  -12.7760   19.3700 C   0  0  0  0  0  2  0  0  0  0  0  0
  -29.4260  -12.6300   18.1430 C   0  0  0  0  0  2  0  0  0  0  0  0
  -27.9720  -12.3790   18.5860 C   0  0  0  0  0  2  0  0  0  0  0  0
  -27.5440  -13.3280   19.7340 C   0  0  0  0  0  3  0  0  0  0  0  0
  -28.6030  -13.4290   20.8480 C   0  0  0  0  0  2  0  0  0  0  0  0
  -29.8510  -13.8990   20.2280 N   0  0  0  0  0  0  0  0  0  0  0  0
  -31.6050  -15.2220   20.0110 O   0  0  0  0  0  0  0  0  0  0  0  0
  -25.1820  -13.8880   20.5230 C   0  0  0  0  0  0  0  0  0  0  0  0
  -24.1240  -13.1110   20.9000 C   0  0  0  0  0  0  0  0  0  0  0  0
  -24.5870  -11.7590   20.8540 C   0  0  0  0  0  0  0  0  0  0  0  0
  -26.2190  -13.0120   20.2560 N   0  0  0  0  0  0  0  0  0  0  0  0
  -25.8750  -11.7250   20.5260 N   0  0  0  0  0  0  0  0  0  0  0  0
  -23.8600  -10.4970   21.0440 C   0  0  0  0  0  0  0  0  0  0  0  0
  -24.2980   -9.5220   21.9690 C   0  0  0  0  0  3  0  0  0  0  0  0
  -23.5680   -8.3270   22.1480 C   0  0  0  0  0  3  0  0  0  0  0  0
  -22.3870   -8.0980   21.4040 C   0  0  0  0  0  0  0  0  0  0  0  0
  -21.9670   -9.0610   20.4700 C   0  0  0  0  0  3  0  0  0  0  0  0
  -22.6970  -10.2470   20.2880 C   0  0  0  0  0  3  0  0  0  0  0  0
  -21.6290   -6.9550   21.4930 O   0  0  0  0  0  0  0  0  0  0  0  0
  -21.5870   -6.2060   22.6420 C   0  0  0  0  0  0  0  0  0  0  0  0
  -21.1640   -6.7530   23.8720 C   0  0  0  0  0  3  0  0  0  0  0  0
  -21.0700   -5.9310   25.0130 C   0  0  0  0  0  3  0  0  0  0  0  0
  -21.3880   -4.5630   24.9240 C   0  0  0  0  0  0  0  0  0  0  0  0
  -21.8030   -4.0150   23.6970 C   0  0  0  0  0  3  0  0  0  0  0  0
  -21.8990   -4.8340   22.5590 C   0  0  0  0  0  0  0  0  0  0  0  0
  -22.2790   -4.2960   21.3750 F   0  0  0  0  0  0  0  0  0  0  0  0
  -21.2900   -3.7710   26.0180 F   0  0  0  0  0  0  0  0  0  0  0  0
  -22.7290  -13.5880   21.1890 C   0  0  0  0  0  0  0  0  0  0  0  0
  -22.0070  -12.8870   22.0530 N   0  0  0  0  0  0  0  0  0  0  0  0
  -22.2910  -14.6200   20.6810 O   0  0  0  0  0  0  0  0  0  0  0  0
  -22.3760  -12.0530   22.4870 H   0  0  0  0  0  0  0  0  0  0  0  0
  -21.0720  -13.1890   22.2880 H   0  0  0  0  0  0  0  0  0  0  0  0
  -25.3450  -15.2610   20.3560 N   0  0  0  0  0  0  0  0  0  0  0  0
  -24.5800  -15.9130   20.4820 H   0  0  0  0  0  0  0  0  0  0  0  0
  -26.1880  -15.7000   20.0100 H   0  0  0  0  0  0  0  0  0  0  0  0
  -28.8230  -22.8750   20.0150 C   0  0  0  0  0  3  0  0  0  0  0  0
  -28.0570  -24.3810   20.5710 C   0  0  0  0  0  3  0  0  0  0  0  0
  -28.2550  -25.9680   20.2640 O   0  0  0  0  0  0  0  0  0  0  0  0
  -24.6270  -31.8600   23.2220 C   0  0  0  0  0  0  0  0  0  0  0  0
  -27.2110  -27.0150   20.2530 C   0  0  0  0  0  0  0  0  0  0  0  0
  -23.4400  -30.4500   21.5900 C   0  0  0  0  0  3  0  0  0  0  0  0
  -24.8970  -28.8450   20.1880 C   0  0  0  0  0  0  0  0  0  0  0  0
  -26.0020  -30.6850   21.4410 C   0  0  0  0  0  2  0  0  0  0  0  0
  -26.0800  -29.2740   20.8010 C   0  0  0  0  0  0  0  0  0  0  0  0
  -27.2370  -28.3810   20.8030 C   0  0  0  0  0  3  0  0  0  0  0  0
  -25.9960  -26.7190   19.5990 C   0  0  0  0  0  3  0  0  0  0  0  0
  -24.8750  -27.5860   19.5660 C   0  0  0  0  0  3  0  0  0  0  0  0
  -23.6730  -29.7570   20.2200 C   0  0  0  0  0  2  0  0  0  0  0  0
  -24.7110  -31.0250   22.1380 N   0  0  0  0  0  0  0  0  0  0  0  0
  -23.5360  -32.1480   23.7410 O   0  0  0  0  0  0  0  0  0  0  0  0
  -22.7500  -29.4560   22.5600 C   0  0  0  0  0  0  0  0  0  0  0  0
  -21.4210  -29.2880   22.4350 N   0  0  0  0  0  0  0  0  0  0  0  0
  -23.4170  -28.8370   23.3930 O   0  0  0  0  0  0  0  0  0  0  0  0
  -20.9370  -29.8380   21.7390 H   0  0  0  0  0  0  0  0  0  0  0  0
  -18.0380  -28.0900   22.9560 C   0  0  0  0  0  0  0  0  0  0  0  0
  -20.5990  -28.3530   23.2100 C   0  0  0  0  0  3  0  0  0  0  0  0
  -20.6970  -26.9200   22.6400 C   0  0  0  0  0  2  0  0  0  0  0  0
  -19.5900  -26.5950   21.6300 C   0  0  0  0  0  2  0  0  0  0  0  0
  -18.2110  -26.7400   22.2790 C   0  0  0  0  0  2  0  0  0  0  0  0
  -19.1580  -28.8540   23.3800 C   0  0  0  0  0  0  0  0  0  0  0  0
  -18.9400  -30.1140   23.9760 C   0  0  0  0  0  3  0  0  0  0  0  0
  -17.6340  -30.6120   24.1520 C   0  0  0  0  0  3  0  0  0  0  0  0
  -16.5290  -29.8460   23.7420 C   0  0  0  0  0  3  0  0  0  0  0  0
  -16.7310  -28.5860   23.1510 C   0  0  0  0  0  3  0  0  0  0  0  0
  -25.8960  -32.5100   23.8530 C   0  0  0  0  0  3  0  0  0  0  0  0
  -26.3970  -31.7580   25.1480 C   0  0  1  0  0  0  0  0  0  0  0  0
  -25.2920  -31.5360   26.2070 C   0  0  0  0  0  1  0  0  0  0  0  0
  -26.9860  -30.3750   24.7900 C   0  0  0  0  0  1  0  0  0  0  0  0
  -27.5400  -32.5630   25.8120 C   0  0  0  0  0  1  0  0  0  0  0  0
  -25.5760  -33.9120   24.1710 N   0  0  0  0  0  0  0  0  0  0  0  0
  -25.9150  -34.9670   23.4190 C   0  0  0  0  0  0  0  0  0  0  0  0
  -26.5950  -34.8610   22.3940 O   0  0  0  0  0  0  0  0  0  0  0  0
  -24.9720  -34.0670   24.9650 H   0  0  0  0  0  0  0  0  0  0  0  0
  -24.1960  -36.7690   23.0490 C   0  0  0  0  0  1  0  0  0  0  0  0
  -25.4280  -36.3580   23.8710 C   0  0  0  0  0  3  0  0  0  0  0  0
  -27.5550  -37.2410   24.7250 C   0  0  0  0  0  1  0  0  0  0  0  0
  -26.4640  -37.4100   23.7690 N   0  0  0  0  0  0  0  0  0  0  0  0
  -26.0590  -38.3310   23.9090 H   0  0  0  0  0  0  0  0  0  0  0  0
  2  3  1  0
  3  5  1  0
  4  2  1  0
  4  6  1  0
  5  8  1  0
  6  5  1  0
  6  1  1  0
  6  7  1  6
  8  9  1  0
 10 15  1  0
 11 12  1  0
 11 10  1  0
 13 12  1  0
 13 20  1  0
 13 14  1  0
 15  9  1  0
 15 14  1  0
 16  9  2  0
 17 18  2  0
 18 37  1  0
 19 18  1  0
 19 22  1  0
 20 17  1  0
 20 21  1  0
 21 19  2  0
 22 23  1  0
 23 24  2  0
 25 28  1  0
 25 24  1  0
 26 25  2  0
 27 26  1  0
 27 22  2  0
 28 29  1  0
 29 30  1  0
 30 31  2  0
 32 31  1  0
 32 36  1  0
 33 32  2  0
 34 29  2  0
 34 33  1  0
 35 34  1  0
 37 38  1  0
 38 41  1  0
 38 40  1  0
 39 37  2  0
 42 43  1  0
 42 17  1  0
 44 42  1  0
 45 46  2  0
 45  1  1  0
 47 46  1  0
 48 59  2  0
 49 47  1  0
 49 54  1  0
 50 58  1  0
 50 60  1  0
 51 57  1  0
 51 53  1  0
 52 58  1  0
 53 54  2  0
 53 52  1  0
 55 49  2  0
 56 55  1  0
 56 51  2  0
 57 50  1  0
 58 48  1  0
 60 62  2  0
 61 60  1  0
 63 61  1  0
 64 73  2  0
 64 69  1  0
 65 61  1  0
 65 69  1  0
 66 65  1  0
 67 68  1  0
 67 66  1  0
 68 64  1  0
 69 70  2  0
 70 71  1  0
 72 71  2  0
 73 72  1  0
 74 48  1  0
 74 79  1  0
 74 75  1  0
 75 78  1  1
 75 76  1  0
 77 75  1  0
 79 82  1  0
 80 84  1  0
 80 79  1  0
 81 80  2  0
 84 83  1  0
 86 84  1  0
 86 87  1  0
 86 85  1  0
M  ISO  4   8 100   9 100  46 101  47 101
M  END
>  <TORSDO>  (46) 
F 20

>  <SCORE>  (46) 
-15.835

>  <name>  (46) 
45

>  <ligand_id>  (46) 
45

>  <original_smiles>  (46) 
[H]c1c([H])c([H])c2c(c1[H])C([H])([H])C([H])([H])C([H])([H])C2([H])N([H])C(=O)C1([H])N(C(=O)C([H])(N([H])C(=O)C([H])(N([H])C([H])([H])[H])C([H])([H])[H])C(C([H])([H])[H])(C([H])([H])[H])C([H])([H])[H])C([H])([H])c2c([H])c(OC([H])([H])C([H])([H])C([H])([H])[N+]3([H])C([H])([H])C([H])([H])C([H])([H])C3([H])C([H])([H])C(=O)N3C([H])([H])C([H])([H])C([H])([H])C([H])(n4nc(-c5c([H])c([H])c(Oc6c([H])c([H])c(F)c([H])c6F)c([H])c5[H])c(C(=O)N([H])[H])c4N([H])[H])C3([H])[H])c([H])c([H])c2C1([H])[H]

>  <smiles>  (46) 
[H]c1c([H])c([H])c2c(c1[H])C([H])([H])C([H])([H])C([H])([H])C2([H])N([H])C(=O)C1([H])N(C(=O)C([H])(N([H])C(=O)C([H])(N([H])C([H])([H])[H])C([H])([H])[H])C(C([H])([H])[H])(C([H])([H])[H])C([H])([H])[H])C([H])([H])c2c([H])c(OC([H])([H])C([H])([H])C([H])([H])[N+]3([H])C([H])([H])C([H])([H])C([H])([H])C3([H])C([H])([H])C(=O)N3C([H])([H])C([H])([H])C([H])([H])C([H])(n4nc(-c5c([H])c([H])c(Oc6c([H])c([H])c(F)c([H])c6F)c([H])c5[H])c(C(=O)N([H])[H])c4N([H])[H])C3([H])[H])c([H])c([H])c2C1([H])[H]

$$$$
46:0:0
     RDKit          3D

 97106  0  0  1  0  0  0  0  0999 V2000
  -28.9110  -22.9650   18.2480 C   0  0  0  0  0  3  0  0  0  0  0  0
  -29.5010  -22.2750   21.9570 C   0  0  0  0  0  2  0  0  0  0  0  0
  -29.3490  -23.2040   20.7640 C   0  0  0  0  0  2  0  0  0  0  0  0
  -29.2700  -19.7250   22.1030 C   0  0  0  0  0  2  0  0  0  0  0  0
  -29.4900  -19.6260   19.6990 C   0  0  0  0  0  2  0  0  0  0  0  0
  -28.6990  -21.0380   21.5550 C   0  0  0  0  0  3  0  0  0  0  0  0
  -28.7640  -20.9630   20.0160 C   0  0  0  0  0  3  0  0  0  0  0  0
  -29.4610  -22.2750   19.5400 C   0  0  0  0  0  3  0  0  0  0  0  0
  -30.1890  -19.1880   21.0020 C   0  0  0  0  0  3  0  0  0  0  0  0
  -30.3510  -17.7850   21.2190 O   0  0  0  0  0  0  0  0  0  0  0  0
  -31.2270  -17.0770   20.3450 C   0  0  0  0  0  2  0  0  0  0  0  0
  -31.7380  -15.8060   21.0640 C   0  0  0  0  0  2  0  0  0  0  0  0
  -32.1220  -14.6530   20.1050 C   0  0  0  0  0  0  0  0  0  0  0  0
  -31.5890  -12.5630   18.8910 C   0  0  0  0  0  2  0  0  0  0  0  0
  -30.6360  -12.8610   17.7160 C   0  0  0  0  0  2  0  0  0  0  0  0
  -29.1660  -12.8600   18.1780 C   0  0  0  0  0  2  0  0  0  0  0  0
  -28.9410  -13.7090   19.4570 C   0  0  0  0  0  3  0  0  0  0  0  0
  -29.9920  -13.3490   20.5290 C   0  0  0  0  0  2  0  0  0  0  0  0
  -31.3300  -13.5550   19.9460 N   0  0  0  0  0  0  0  0  0  0  0  0
  -33.1750  -14.7840   19.4720 O   0  0  0  0  0  0  0  0  0  0  0  0
  -26.6360  -14.5320   20.2550 C   0  0  0  0  0  0  0  0  0  0  0  0
  -25.5090  -13.8590   20.6420 C   0  0  0  0  0  0  0  0  0  0  0  0
  -25.8300  -12.4690   20.5600 C   0  0  0  0  0  0  0  0  0  0  0  0
  -27.5800  -13.5600   19.9680 N   0  0  0  0  0  0  0  0  0  0  0  0
  -27.1000  -12.3110   20.2070 N   0  0  0  0  0  0  0  0  0  0  0  0
  -24.9890  -11.2800   20.7420 C   0  0  0  0  0  0  0  0  0  0  0  0
  -25.3060  -10.2880   21.6950 C   0  0  0  0  0  3  0  0  0  0  0  0
  -24.4690   -9.1630   21.8640 C   0  0  0  0  0  3  0  0  0  0  0  0
  -23.3020   -9.0210   21.0780 C   0  0  0  0  0  0  0  0  0  0  0  0
  -23.0000  -10.0020   20.1170 C   0  0  0  0  0  3  0  0  0  0  0  0
  -23.8360  -11.1170   19.9480 C   0  0  0  0  0  3  0  0  0  0  0  0
  -22.4460   -7.9500   21.1550 O   0  0  0  0  0  0  0  0  0  0  0  0
  -22.2320   -7.2810   22.3350 C   0  0  0  0  0  0  0  0  0  0  0  0
  -21.7610   -7.9420   23.4900 C   0  0  0  0  0  3  0  0  0  0  0  0
  -21.4900   -7.2040   24.6580 C   0  0  0  0  0  3  0  0  0  0  0  0
  -21.6810   -5.8090   24.6740 C   0  0  0  0  0  0  0  0  0  0  0  0
  -22.1460   -5.1500   23.5230 C   0  0  0  0  0  3  0  0  0  0  0  0
  -22.4190   -5.8850   22.3550 C   0  0  0  0  0  0  0  0  0  0  0  0
  -22.8470   -5.2440   21.2410 F   0  0  0  0  0  0  0  0  0  0  0  0
  -21.4120   -5.1010   25.7950 F   0  0  0  0  0  0  0  0  0  0  0  0
  -24.1770  -14.4650   20.9780 C   0  0  0  0  0  0  0  0  0  0  0  0
  -23.4370  -13.8500   21.8950 N   0  0  0  0  0  0  0  0  0  0  0  0
  -23.8040  -15.5190   20.4630 O   0  0  0  0  0  0  0  0  0  0  0  0
  -23.7500  -12.9950   22.3300 H   0  0  0  0  0  0  0  0  0  0  0  0
  -22.5440  -14.2370   22.1640 H   0  0  0  0  0  0  0  0  0  0  0  0
  -26.9260  -15.8840   20.1030 N   0  0  0  0  0  0  0  0  0  0  0  0
  -26.2110  -16.5930   20.2380 H   0  0  0  0  0  0  0  0  0  0  0  0
  -27.8050  -16.2580   19.7700 H   0  0  0  0  0  0  0  0  0  0  0  0
  -29.5360  -24.3100   18.1190 N   0  0  0  0  0  4  0  0  0  0  0  0
  -29.5630  -24.6950   19.0490 H   0  0  0  0  0  0  0  0  0  0  0  0
  -30.4890  -24.2180   17.8040 H   0  0  0  0  0  0  0  0  0  0  0  0
  -28.7980  -25.2940   17.2800 C   0  0  0  0  0  2  0  0  0  0  0  0
  -29.3410  -26.7450   17.3630 C   0  0  0  0  0  2  0  0  0  0  0  0
  -29.3830  -27.3760   18.7680 C   0  0  0  0  0  2  0  0  0  0  0  0
  -28.3240  -26.8650   19.5650 O   0  0  0  0  0  0  0  0  0  0  0  0
  -24.5960  -31.7540   23.1420 C   0  0  0  0  0  0  0  0  0  0  0  0
  -27.1880  -27.6260   19.6540 C   0  0  0  0  0  0  0  0  0  0  0  0
  -23.3550  -30.4710   21.4290 C   0  0  0  0  0  3  0  0  0  0  0  0
  -24.7780  -29.0720   19.8530 C   0  0  0  0  0  0  0  0  0  0  0  0
  -25.8660  -30.8900   21.1810 C   0  0  0  0  0  2  0  0  0  0  0  0
  -25.9480  -29.5780   20.4330 C   0  0  0  0  0  0  0  0  0  0  0  0
  -27.1600  -28.8630   20.3290 C   0  0  0  0  0  3  0  0  0  0  0  0
  -25.9960  -27.1060   19.1130 C   0  0  0  0  0  3  0  0  0  0  0  0
  -24.7950  -27.8330   19.1910 C   0  0  0  0  0  3  0  0  0  0  0  0
  -23.5290  -29.9060   19.9950 C   0  0  0  0  0  2  0  0  0  0  0  0
  -24.6270  -31.0470   21.9780 N   0  0  0  0  0  0  0  0  0  0  0  0
  -23.5320  -31.9710   23.7330 O   0  0  0  0  0  0  0  0  0  0  0  0
  -22.7450  -29.3690   22.3260 C   0  0  0  0  0  0  0  0  0  0  0  0
  -21.4260  -29.1580   22.1970 N   0  0  0  0  0  0  0  0  0  0  0  0
  -23.4530  -28.7120   23.0940 O   0  0  0  0  0  0  0  0  0  0  0  0
  -20.9130  -29.7490   21.5580 H   0  0  0  0  0  0  0  0  0  0  0  0
  -18.1000  -27.8070   22.6010 C   0  0  0  0  0  0  0  0  0  0  0  0
  -20.6430  -28.1500   22.9110 C   0  0  0  0  0  3  0  0  0  0  0  0
  -20.8070  -26.7580   22.2590 C   0  0  0  0  0  2  0  0  0  0  0  0
  -19.7260  -26.4450   21.2190 C   0  0  0  0  0  2  0  0  0  0  0  0
  -18.3340  -26.5020   21.8560 C   0  0  0  0  0  2  0  0  0  0  0  0
  -19.1840  -28.5880   23.0800 C   0  0  0  0  0  0  0  0  0  0  0  0
  -18.9100  -29.8100   23.7340 C   0  0  0  0  0  3  0  0  0  0  0  0
  -17.5860  -30.2500   23.9140 C   0  0  0  0  0  3  0  0  0  0  0  0
  -16.5170  -29.4630   23.4520 C   0  0  0  0  0  3  0  0  0  0  0  0
  -16.7730  -28.2440   22.8010 C   0  0  0  0  0  3  0  0  0  0  0  0
  -25.8980  -32.3480   23.7730 C   0  0  0  0  0  3  0  0  0  0  0  0
  -26.4650  -31.4890   24.9690 C   0  0  1  0  0  0  0  0  0  0  0  0
  -25.4110  -31.1560   26.0520 C   0  0  0  0  0  1  0  0  0  0  0  0
  -27.0460  -30.1520   24.4510 C   0  0  0  0  0  1  0  0  0  0  0  0
  -27.6280  -32.2450   25.6560 C   0  0  0  0  0  1  0  0  0  0  0  0
  -25.5970  -33.7170   24.2080 N   0  0  0  0  0  0  0  0  0  0  0  0
  -25.9350  -34.8220   23.5290 C   0  0  0  0  0  0  0  0  0  0  0  0
  -26.6010  -34.7960   22.4910 O   0  0  0  0  0  0  0  0  0  0  0  0
  -25.0090  -33.8170   25.0220 H   0  0  0  0  0  0  0  0  0  0  0  0
  -24.2260  -36.6530   23.2910 C   0  0  0  0  0  1  0  0  0  0  0  0
  -25.4490  -36.1730   24.0890 C   0  0  0  0  0  3  0  0  0  0  0  0
  -27.5720  -36.9680   25.0290 C   0  0  0  0  0  1  0  0  0  0  0  0
  -26.4900  -37.2220   24.0830 N   0  0  0  0  0  0  0  0  0  0  0  0
  -26.0850  -38.1290   24.3010 H   0  0  0  0  0  0  0  0  0  0  0  0
  -28.0700  -21.0450   16.6890 C   0  0  0  0  0  1  0  0  0  0  0  0
  -29.1240  -22.1340   16.9520 C   0  0  0  0  0  2  0  0  0  0  0  0
  1 97  1  0
  3  2  1  0
  5  9  1  0
  6  2  1  0
  6  4  1  0
  7  5  1  0
  7  6  1  0
  8  1  1  0
  8  7  1  0
  8  3  1  0
  9 10  1  0
  9  4  1  0
 11 12  1  0
 11 10  1  0
 13 12  1  0
 14 19  1  0
 15 16  1  0
 15 14  1  0
 17 16  1  0
 17 24  1  0
 17 18  1  0
 19 13  1  0
 19 18  1  0
 20 13  2  0
 21 22  2  0
 22 41  1  0
 23 22  1  0
 23 26  1  0
 24 25  1  0
 24 21  1  0
 25 23  2  0
 26 27  1  0
 27 28  2  0
 29 32  1  0
 29 28  1  0
 30 29  2  0
 31 30  1  0
 31 26  2  0
 32 33  1  0
 33 38  2  0
 33 34  1  0
 34 35  2  0
 35 36  1  0
 36 40  1  0
 37 36  2  0
 38 37  1  0
 39 38  1  0
 41 42  1  0
 42 45  1  0
 42 44  1  0
 43 41  2  0
 46 47  1  0
 46 21  1  0
 48 46  1  0
 49  1  1  0
 49 50  1  0
 51 49  1  0
 52 53  1  0
 52 49  1  0
 53 54  1  0
 54 55  1  0
 55 57  1  0
 56 67  2  0
 57 62  1  0
 58 66  1  0
 58 68  1  0
 59 65  1  0
 59 61  1  0
 60 66  1  0
 61 60  1  0
 62 61  2  0
 63 64  1  0
 63 57  2  0
 64 59  2  0
 65 58  1  0
 66 56  1  0
 68 70  2  0
 69 68  1  0
 71 69  1  0
 72 81  2  0
 72 77  1  0
 73 69  1  0
 73 77  1  0
 74 73  1  0
 75 76  1  0
 75 74  1  0
 76 72  1  0
 77 78  2  0
 78 79  1  0
 80 79  2  0
 81 80  1  0
 82 56  1  0
 82 87  1  0
 82 83  1  0
 83 86  1  1
 83 84  1  0
 85 83  1  0
 87 90  1  0
 88 92  1  0
 88 87  1  0
 89 88  2  0
 92 91  1  0
 94 92  1  0
 94 95  1  0
 94 93  1  0
 96 97  1  0
M  ISO  4  12 100  13 100  54 101  55 101
M  END
>  <TORSDO>  (47) 
F 25

>  <SCORE>  (47) 
-8.851

>  <name>  (47) 
46

>  <ligand_id>  (47) 
46

>  <original_smiles>  (47) 
[H]c1c([H])c([H])c2c(c1[H])C([H])([H])C([H])([H])C([H])([H])C2([H])N([H])C(=O)C1([H])N(C(=O)C([H])(N([H])C(=O)C([H])(N([H])C([H])([H])[H])C([H])([H])[H])C(C([H])([H])[H])(C([H])([H])[H])C([H])([H])[H])C([H])([H])c2c([H])c(OC([H])([H])C([H])([H])C([H])([H])[N+]([H])([H])C([H])(C([H])([H])C([H])([H])[H])C3([H])C([H])([H])C([H])([H])C4([H])C([H])([H])C([H])(OC([H])([H])C([H])([H])C(=O)N5C([H])([H])C([H])([H])C([H])([H])C([H])(n6nc(-c7c([H])c([H])c(Oc8c([H])c([H])c(F)c([H])c8F)c([H])c7[H])c(C(=O)N([H])[H])c6N([H])[H])C5([H])[H])C([H])([H])C43[H])c([H])c([H])c2C1([H])[H]

>  <smiles>  (47) 
[H]c1c([H])c([H])c2c(c1[H])C([H])([H])C([H])([H])C([H])([H])C2([H])N([H])C(=O)C1([H])N(C(=O)C([H])(N([H])C(=O)C([H])(N([H])C([H])([H])[H])C([H])([H])[H])C(C([H])([H])[H])(C([H])([H])[H])C([H])([H])[H])C([H])([H])c2c([H])c(OC([H])([H])C([H])([H])C([H])([H])[N+]([H])([H])C([H])(C([H])([H])C([H])([H])[H])C3([H])C([H])([H])C([H])([H])C4([H])C([H])([H])C([H])(OC([H])([H])C([H])([H])C(=O)N5C([H])([H])C([H])([H])C([H])([H])C([H])(n6nc(-c7c([H])c([H])c(Oc8c([H])c([H])c(F)c([H])c8F)c([H])c7[H])c(C(=O)N([H])[H])c6N([H])[H])C5([H])[H])C([H])([H])C43[H])c([H])c([H])c2C1([H])[H]

$$$$
47:0:0
     RDKit          3D

 91 99  0  0  1  0  0  0  0  0999 V2000
  -28.2580  -19.4770   19.2300 N   0  0  0  0  0  4  0  0  0  0  0  0
  -27.2690  -19.3090   19.1360 H   0  0  0  0  0  0  0  0  0  0  0  0
  -28.4660  -19.3670   20.2060 H   0  0  0  0  0  0  0  0  0  0  0  0
  -28.4350  -21.1050   18.9110 C   0  0  0  0  0  3  0  0  0  0  0  0
  -27.9790  -22.5680   19.8580 C   0  0  0  0  0  3  0  0  0  0  0  0
  -27.9000  -24.3190   19.4450 C   0  0  0  0  0  2  0  0  0  0  0  0
  -27.9450  -25.7740   20.2240 O   0  0  0  0  0  0  0  0  0  0  0  0
  -24.5760  -31.8640   23.2520 C   0  0  0  0  0  0  0  0  0  0  0  0
  -26.9980  -26.9150   20.1950 C   0  0  0  0  0  0  0  0  0  0  0  0
  -23.3600  -30.4760   21.6310 C   0  0  0  0  0  3  0  0  0  0  0  0
  -24.7670  -28.8480   20.2100 C   0  0  0  0  0  0  0  0  0  0  0  0
  -25.9330  -30.6310   21.4860 C   0  0  0  0  0  2  0  0  0  0  0  0
  -25.9660  -29.2190   20.8270 C   0  0  0  0  0  0  0  0  0  0  0  0
  -27.0790  -28.2630   20.8140 C   0  0  0  0  0  3  0  0  0  0  0  0
  -25.7640  -26.6990   19.5560 C   0  0  0  0  0  3  0  0  0  0  0  0
  -24.6860  -27.6080   19.5690 C   0  0  0  0  0  3  0  0  0  0  0  0
  -23.5720  -29.7920   20.2560 C   0  0  0  0  0  2  0  0  0  0  0  0
  -24.6470  -31.0180   22.1760 N   0  0  0  0  0  0  0  0  0  0  0  0
  -23.4910  -32.1790   23.7650 O   0  0  0  0  0  0  0  0  0  0  0  0
  -22.6550  -29.4920   22.5990 C   0  0  0  0  0  0  0  0  0  0  0  0
  -21.3240  -29.3390   22.4690 N   0  0  0  0  0  0  0  0  0  0  0  0
  -23.3110  -28.8660   23.4360 O   0  0  0  0  0  0  0  0  0  0  0  0
  -20.8480  -29.8910   21.7690 H   0  0  0  0  0  0  0  0  0  0  0  0
  -17.9260  -28.1770   22.9750 C   0  0  0  0  0  0  0  0  0  0  0  0
  -20.4880  -28.4230   23.2500 C   0  0  0  0  0  3  0  0  0  0  0  0
  -20.5780  -26.9800   22.6990 C   0  0  0  0  0  2  0  0  0  0  0  0
  -19.4790  -26.6510   21.6840 C   0  0  0  0  0  2  0  0  0  0  0  0
  -18.0950  -26.8170   22.3180 C   0  0  0  0  0  2  0  0  0  0  0  0
  -19.0500  -28.9370   23.3980 C   0  0  0  0  0  0  0  0  0  0  0  0
  -18.8350  -30.2080   23.9730 C   0  0  0  0  0  3  0  0  0  0  0  0
  -17.5310  -30.7180   24.1290 C   0  0  0  0  0  3  0  0  0  0  0  0
  -16.4250  -29.9550   23.7210 C   0  0  0  0  0  3  0  0  0  0  0  0
  -16.6230  -28.6870   23.1470 C   0  0  0  0  0  3  0  0  0  0  0  0
  -25.8560  -32.4940   23.8790 C   0  0  0  0  0  3  0  0  0  0  0  0
  -26.3310  -31.7540   25.1910 C   0  0  1  0  0  0  0  0  0  0  0  0
  -25.2140  -31.5790   26.2470 C   0  0  0  0  0  1  0  0  0  0  0  0
  -26.8910  -30.3520   24.8630 C   0  0  0  0  0  1  0  0  0  0  0  0
  -27.4870  -32.5450   25.8470 C   0  0  0  0  0  1  0  0  0  0  0  0
  -25.5640  -33.9080   24.1750 N   0  0  0  0  0  0  0  0  0  0  0  0
  -25.9180  -34.9430   23.4030 C   0  0  0  0  0  0  0  0  0  0  0  0
  -26.5900  -34.8090   22.3760 O   0  0  0  0  0  0  0  0  0  0  0  0
  -24.9700  -34.0880   24.9720 H   0  0  0  0  0  0  0  0  0  0  0  0
  -24.2210  -36.7630   23.0220 C   0  0  0  0  0  1  0  0  0  0  0  0
  -25.4570  -36.3500   23.8360 C   0  0  0  0  0  3  0  0  0  0  0  0
  -27.6090  -37.2140   24.6440 C   0  0  0  0  0  1  0  0  0  0  0  0
  -26.5080  -37.3830   23.7000 N   0  0  0  0  0  0  0  0  0  0  0  0
  -26.1180  -38.3120   23.8320 H   0  0  0  0  0  0  0  0  0  0  0  0
  -28.9920  -18.1950   18.4670 C   0  0  0  0  0  2  0  0  0  0  0  0
  -28.7320  -16.3860   18.4180 C   0  0  0  0  0  2  0  0  0  0  0  0
  -29.5270  -12.0890   19.0860 C   0  0  0  0  0  2  0  0  0  0  0  0
  -29.6190  -14.9740   19.1350 C   0  0  0  0  0  2  0  0  0  0  0  0
  -28.3590  -16.6950   21.0590 C   0  0  0  0  0  1  0  0  0  0  0  0
  -29.6650  -16.0230   20.5120 C   0  0  0  0  0  3  0  0  0  0  0  0
  -31.2430  -14.7750   22.1000 C   0  0  0  0  0  2  0  0  0  0  0  0
  -30.4350  -15.7880   21.8290 C   0  0  0  0  0  2  0  0  0  0  0  0
  -31.5250  -13.9680   20.9790 C   0  0  0  0  0  0  0  0  0  0  0  0
  -30.9090  -12.7390   18.9250 C   0  0  0  0  0  3  0  0  0  0  0  0
  -29.4840  -12.8690   17.6530 C   0  0  0  0  0  0  0  0  0  0  0  0
  -27.6740  -13.0390   18.2810 C   0  0  0  0  0  3  0  0  0  0  0  0
  -27.4200  -13.2840   20.1840 C   0  0  0  0  0  0  0  0  0  0  0  0
  -28.9390  -13.1310   21.3840 C   0  0  0  0  0  3  0  0  0  0  0  0
  -30.5910  -13.0640   20.6440 N   0  0  0  0  0  0  0  0  0  0  0  0
  -32.4360  -14.3120   20.2370 O   0  0  0  0  0  0  0  0  0  0  0  0
  -25.1180  -13.6040   20.8220 C   0  0  0  0  0  0  0  0  0  0  0  0
  -24.1300  -12.7730   21.1930 C   0  0  0  0  0  0  0  0  0  0  0  0
  -24.6430  -11.4430   21.1040 C   0  0  0  0  0  0  0  0  0  0  0  0
  -26.1900  -12.7840   20.6190 N   0  0  0  0  0  0  0  0  0  0  0  0
  -25.9250  -11.4630   20.7800 N   0  0  0  0  0  0  0  0  0  0  0  0
  -23.9510  -10.1690   21.2650 C   0  0  0  0  0  0  0  0  0  0  0  0
  -24.4070   -9.1810   22.1640 C   0  0  0  0  0  3  0  0  0  0  0  0
  -23.6700   -7.9900   22.3340 C   0  0  0  0  0  3  0  0  0  0  0  0
  -22.4720   -7.7880   21.6070 C   0  0  0  0  0  0  0  0  0  0  0  0
  -22.0480   -8.7630   20.6890 C   0  0  0  0  0  3  0  0  0  0  0  0
  -22.7830   -9.9440   20.5160 C   0  0  0  0  0  3  0  0  0  0  0  0
  -21.6980   -6.6590   21.6960 O   0  0  0  0  0  0  0  0  0  0  0  0
  -21.6540   -5.9070   22.8410 C   0  0  0  0  0  0  0  0  0  0  0  0
  -21.2450   -6.4540   24.0770 C   0  0  0  0  0  3  0  0  0  0  0  0
  -21.1480   -5.6270   25.2150 C   0  0  0  0  0  3  0  0  0  0  0  0
  -21.4480   -4.2550   25.1150 C   0  0  0  0  0  0  0  0  0  0  0  0
  -21.8480   -3.7090   23.8830 C   0  0  0  0  0  3  0  0  0  0  0  0
  -21.9470   -4.5330   22.7490 C   0  0  0  0  0  0  0  0  0  0  0  0
  -22.3130   -3.9990   21.5580 F   0  0  0  0  0  0  0  0  0  0  0  0
  -21.3490   -3.4580   26.2040 F   0  0  0  0  0  0  0  0  0  0  0  0
  -22.7600  -13.2380   21.5170 C   0  0  0  0  0  0  0  0  0  0  0  0
  -22.0930  -12.5460   22.4260 N   0  0  0  0  0  0  0  0  0  0  0  0
  -22.3160  -14.2760   21.0250 O   0  0  0  0  0  0  0  0  0  0  0  0
  -22.4880  -11.7200   22.8510 H   0  0  0  0  0  0  0  0  0  0  0  0
  -21.1690  -12.8430   22.7070 H   0  0  0  0  0  0  0  0  0  0  0  0
  -25.1580  -14.9880   20.6390 N   0  0  0  0  0  0  0  0  0  0  0  0
  -24.3110  -15.5450   20.6950 H   0  0  0  0  0  0  0  0  0  0  0  0
  -25.9640  -15.5060   20.3210 H   0  0  0  0  0  0  0  0  0  0  0  0
  1  3  1  0
  2  1  1  0
  4  1  1  0
  4  5  2  0
  6  5  1  0
  6  7  1  0
  8 19  2  0
  9  7  1  0
  9 14  1  0
 10 18  1  0
 10 20  1  0
 11 17  1  0
 11 13  1  0
 12 18  1  0
 13 12  1  0
 14 13  2  0
 15 16  1  0
 15  9  2  0
 16 11  2  0
 17 10  1  0
 18  8  1  0
 20 22  2  0
 21 20  1  0
 23 21  1  0
 24 33  2  0
 24 29  1  0
 25 21  1  0
 25 29  1  0
 26 25  1  0
 27 28  1  0
 27 26  1  0
 28 24  1  0
 29 30  2  0
 30 31  1  0
 32 31  2  0
 33 32  1  0
 34  8  1  0
 34 39  1  0
 34 35  1  0
 35 38  1  1
 35 36  1  0
 37 35  1  0
 39 42  1  0
 40 44  1  0
 40 39  1  0
 41 40  2  0
 44 43  1  0
 46 47  1  0
 46 44  1  0
 46 45  1  0
 48  1  1  0
 49 48  1  0
 49 51  1  0
 51 53  1  0
 53 52  1  0
 53 55  1  0
 55 54  1  0
 56 54  1  0
 57 50  1  0
 57 62  1  0
 58 59  2  3
 58 57  1  0
 58 50  1  0
 59 60  1  0
 60 67  1  0
 60 61  2  0
 62 56  1  0
 62 61  1  0
 63 56  2  0
 64 65  2  0
 65 84  1  0
 66 65  1  0
 66 69  1  0
 67 68  1  0
 67 64  1  0
 68 66  2  0
 69 70  1  0
 70 71  2  0
 72 75  1  0
 72 71  1  0
 73 72  2  0
 74 73  1  0
 74 69  2  0
 75 76  1  0
 76 77  1  0
 77 78  2  0
 79 78  1  0
 79 83  1  0
 80 79  2  0
 81 76  2  0
 81 80  1  0
 82 81  1  0
 84 85  1  0
 85 88  1  0
 85 87  1  0
 86 84  2  0
 89 90  1  0
 89 64  1  0
 91 89  1  0
M  ISO  4   6 101   7 101  54 100  56 100
M  END
>  <TORSDO>  (48) 
F 24

>  <SCORE>  (48) 
-13.212

>  <name>  (48) 
47

>  <ligand_id>  (48) 
47

>  <original_smiles>  (48) 
[H]C(C(=O)N1C([H])([H])C([H])([H])C([H])([H])C([H])(n2nc(-c3c([H])c([H])c(Oc4c([H])c([H])c(F)c([H])c4F)c([H])c3[H])c(C(=O)N([H])[H])c2N([H])[H])C1([H])[H])=C([H])C([H])(C([H])([H])[H])C([H])(C([H])([H])[H])C([H])([H])C([H])([H])[N+]([H])([H])C([H])([H])C([H])([H])C([H])([H])Oc1c([H])c([H])c2c(c1[H])C([H])([H])N(C(=O)C([H])(N([H])C(=O)C([H])(N([H])C([H])([H])[H])C([H])([H])[H])C(C([H])([H])[H])(C([H])([H])[H])C([H])([H])[H])C([H])(C(=O)N([H])C1([H])c3c([H])c([H])c([H])c([H])c3C([H])([H])C([H])([H])C1([H])[H])C2([H])[H]

>  <smiles>  (48) 
[H]C(C(=O)N1C([H])([H])C([H])([H])C([H])([H])C([H])(n2nc(-c3c([H])c([H])c(Oc4c([H])c([H])c(F)c([H])c4F)c([H])c3[H])c(C(=O)N([H])[H])c2N([H])[H])C1([H])[H])=C([H])C([H])(C([H])([H])[H])C([H])(C([H])([H])[H])C([H])([H])C([H])([H])[N+]([H])([H])C([H])([H])C([H])([H])C([H])([H])Oc1c([H])c([H])c2c(c1[H])C([H])([H])N(C(=O)C([H])(N([H])C(=O)C([H])(N([H])C([H])([H])[H])C([H])([H])[H])C(C([H])([H])[H])(C([H])([H])[H])C([H])([H])[H])C([H])(C(=O)N([H])C1([H])c3c([H])c([H])c([H])c([H])c3C([H])([H])C([H])([H])C1([H])[H])C2([H])[H]

$$$$
48:0:0
     RDKit          3D

 90 98  0  0  1  0  0  0  0  0999 V2000
  -30.2660  -19.7020   21.6430 C   0  0  0  0  0  0  0  0  0  0  0  0
  -30.4800  -18.3610   21.7160 C   0  0  0  0  0  3  0  0  0  0  0  0
  -29.9630  -20.5770   22.8460 C   0  0  0  0  0  2  0  0  0  0  0  0
  -29.5100  -21.9300   22.3110 C   0  0  0  0  0  2  0  0  0  0  0  0
  -30.1800  -22.0440   20.9430 C   0  0  0  0  0  3  0  0  0  0  0  0
  -31.4330  -20.4510   19.5340 C   0  0  0  0  0  1  0  0  0  0  0  0
  -30.2830  -20.6310   20.4500 N   0  0  1  0  0  4  0  0  0  0  0  0
  -29.4520  -20.4490   19.9080 H   0  0  0  0  0  0  0  0  0  0  0  0
  -30.8340  -17.3210   20.6480 C   0  0  0  0  0  2  0  0  0  0  0  0
  -30.4140  -15.8710   21.0580 C   0  0  0  0  0  2  0  0  0  0  0  0
  -31.0150  -14.7170   20.2090 C   0  0  0  0  0  0  0  0  0  0  0  0
  -30.6660  -12.5850   18.9920 C   0  0  0  0  0  2  0  0  0  0  0  0
  -29.6790  -12.8160   17.8300 C   0  0  0  0  0  2  0  0  0  0  0  0
  -28.2200  -12.6830   18.3110 C   0  0  0  0  0  2  0  0  0  0  0  0
  -27.9400  -13.4990   19.6020 C   0  0  0  0  0  3  0  0  0  0  0  0
  -29.0330  -13.2330   20.6640 C   0  0  0  0  0  2  0  0  0  0  0  0
  -30.3350  -13.5450   20.0580 N   0  0  0  0  0  0  0  0  0  0  0  0
  -32.0920  -14.9160   19.6380 O   0  0  0  0  0  0  0  0  0  0  0  0
  -25.5710  -14.1260   20.3920 C   0  0  0  0  0  0  0  0  0  0  0  0
  -24.5060  -13.3630   20.7880 C   0  0  0  0  0  0  0  0  0  0  0  0
  -24.9510  -12.0060   20.7300 C   0  0  0  0  0  0  0  0  0  0  0  0
  -26.5990  -13.2360   20.1210 N   0  0  0  0  0  0  0  0  0  0  0  0
  -26.2300  -11.9550   20.3810 N   0  0  0  0  0  0  0  0  0  0  0  0
  -24.2170  -10.7500   20.9330 C   0  0  0  0  0  0  0  0  0  0  0  0
  -24.6370   -9.7960   21.8850 C   0  0  0  0  0  3  0  0  0  0  0  0
  -23.9060   -8.6030   22.0760 C   0  0  0  0  0  3  0  0  0  0  0  0
  -22.7400   -8.3570   21.3110 C   0  0  0  0  0  0  0  0  0  0  0  0
  -22.3390   -9.3000   20.3480 C   0  0  0  0  0  3  0  0  0  0  0  0
  -23.0710  -10.4840   20.1570 C   0  0  0  0  0  3  0  0  0  0  0  0
  -21.9800   -7.2170   21.4090 O   0  0  0  0  0  0  0  0  0  0  0  0
  -21.8850   -6.5140   22.5840 C   0  0  0  0  0  0  0  0  0  0  0  0
  -21.3700   -7.0980   23.7610 C   0  0  0  0  0  3  0  0  0  0  0  0
  -21.2250   -6.3200   24.9270 C   0  0  0  0  0  3  0  0  0  0  0  0
  -21.5830   -4.9580   24.9160 C   0  0  0  0  0  0  0  0  0  0  0  0
  -22.0910   -4.3740   23.7410 C   0  0  0  0  0  3  0  0  0  0  0  0
  -22.2380   -5.1500   22.5780 C   0  0  0  0  0  0  0  0  0  0  0  0
  -22.7080   -4.5760   21.4440 F   0  0  0  0  0  0  0  0  0  0  0  0
  -21.4370   -4.2090   26.0330 F   0  0  0  0  0  0  0  0  0  0  0  0
  -23.1230  -13.8520   21.1110 C   0  0  0  0  0  0  0  0  0  0  0  0
  -22.4180  -13.1590   21.9980 N   0  0  0  0  0  0  0  0  0  0  0  0
  -22.6780  -14.8850   20.6120 O   0  0  0  0  0  0  0  0  0  0  0  0
  -22.7910  -12.3210   22.4220 H   0  0  0  0  0  0  0  0  0  0  0  0
  -21.4920  -13.4680   22.2560 H   0  0  0  0  0  0  0  0  0  0  0  0
  -25.7460  -15.4960   20.2200 N   0  0  0  0  0  0  0  0  0  0  0  0
  -24.9920  -16.1610   20.3610 H   0  0  0  0  0  0  0  0  0  0  0  0
  -26.5960  -15.9270   19.8780 H   0  0  0  0  0  0  0  0  0  0  0  0
  -29.4290  -23.0400   20.0010 C   0  0  0  0  0  2  0  0  0  0  0  0
  -29.4570  -24.5360   20.4530 C   0  0  0  0  0  2  0  0  0  0  0  0
  -28.3860  -25.4190   19.7620 C   0  0  0  0  0  2  0  0  0  0  0  0
  -28.4250  -26.8170   20.1420 O   0  0  0  0  0  0  0  0  0  0  0  0
  -24.4710  -31.8820   23.2540 C   0  0  0  0  0  0  0  0  0  0  0  0
  -27.2420  -27.5440   20.0990 C   0  0  0  0  0  0  0  0  0  0  0  0
  -23.3130  -30.4830   21.5790 C   0  0  0  0  0  3  0  0  0  0  0  0
  -24.8120  -29.0190   20.1260 C   0  0  0  0  0  0  0  0  0  0  0  0
  -25.8340  -30.9020   21.4090 C   0  0  0  0  0  2  0  0  0  0  0  0
  -25.9570  -29.5470   20.7370 C   0  0  0  0  0  0  0  0  0  0  0  0
  -27.1710  -28.8160   20.7230 C   0  0  0  0  0  3  0  0  0  0  0  0
  -26.0770  -27.0550   19.4570 C   0  0  0  0  0  3  0  0  0  0  0  0
  -24.8700  -27.7730   19.4820 C   0  0  0  0  0  3  0  0  0  0  0  0
  -23.5470  -29.8440   20.1850 C   0  0  0  0  0  2  0  0  0  0  0  0
  -24.5570  -31.1040   22.1380 N   0  0  0  0  0  0  0  0  0  0  0  0
  -23.3790  -32.1150   23.7920 O   0  0  0  0  0  0  0  0  0  0  0  0
  -22.6830  -29.4240   22.5130 C   0  0  0  0  0  0  0  0  0  0  0  0
  -21.3710  -29.1870   22.3530 N   0  0  0  0  0  0  0  0  0  0  0  0
  -23.3740  -28.8190   23.3360 O   0  0  0  0  0  0  0  0  0  0  0  0
  -20.8730  -29.7310   21.6620 H   0  0  0  0  0  0  0  0  0  0  0  0
  -18.0430  -27.8320   22.7450 C   0  0  0  0  0  0  0  0  0  0  0  0
  -20.5770  -28.2080   23.0950 C   0  0  0  0  0  3  0  0  0  0  0  0
  -20.7630  -26.7860   22.5170 C   0  0  0  0  0  2  0  0  0  0  0  0
  -19.7090  -26.4160   21.4690 C   0  0  0  0  0  2  0  0  0  0  0  0
  -18.3030  -26.4950   22.0710 C   0  0  0  0  0  2  0  0  0  0  0  0
  -19.1120  -28.6430   23.2120 C   0  0  0  0  0  0  0  0  0  0  0  0
  -18.8160  -29.8930   23.7980 C   0  0  0  0  0  3  0  0  0  0  0  0
  -17.4850  -30.3320   23.9260 C   0  0  0  0  0  3  0  0  0  0  0  0
  -16.4310  -29.5180   23.4760 C   0  0  0  0  0  3  0  0  0  0  0  0
  -16.7100  -28.2700   22.8910 C   0  0  0  0  0  3  0  0  0  0  0  0
  -25.7360  -32.5350   23.8940 C   0  0  0  0  0  3  0  0  0  0  0  0
  -25.4080  -33.9360   24.1900 N   0  0  0  0  0  0  0  0  0  0  0  0
  -25.7410  -34.9750   23.4140 C   0  0  0  0  0  0  0  0  0  0  0  0
  -26.4280  -34.8580   22.3950 O   0  0  0  0  0  0  0  0  0  0  0  0
  -24.8010  -34.1010   24.9800 H   0  0  0  0  0  0  0  0  0  0  0  0
  -23.9970  -36.7390   22.9980 C   0  0  0  0  0  1  0  0  0  0  0  0
  -25.2320  -36.3680   23.8350 C   0  0  0  0  0  3  0  0  0  0  0  0
  -27.3370  -37.3020   24.6840 C   0  0  0  0  0  1  0  0  0  0  0  0
  -26.2540  -37.4290   23.7130 N   0  0  0  0  0  0  0  0  0  0  0  0
  -25.8330  -38.3480   23.8250 H   0  0  0  0  0  0  0  0  0  0  0  0
  -26.2290  -31.7900   25.1950 C   0  0  1  0  0  0  0  0  0  0  0  0
  -25.1120  -31.5530   26.2370 C   0  0  0  0  0  1  0  0  0  0  0  0
  -26.8420  -30.4170   24.8370 C   0  0  0  0  0  1  0  0  0  0  0  0
  -27.3500  -32.6110   25.8740 C   0  0  0  0  0  1  0  0  0  0  0  0
  1  2  2  0
  1  3  1  0
  4  3  1  0
  5 47  1  0
  5  4  1  0
  6  7  1  0
  7  5  1  0
  7  1  1  0
  7  8  1  6
  9 10  1  0
  9  2  1  0
 11 10  1  0
 12 17  1  0
 13 14  1  0
 13 12  1  0
 15 14  1  0
 15 22  1  0
 15 16  1  0
 17 11  1  0
 17 16  1  0
 18 11  2  0
 19 20  2  0
 20 39  1  0
 21 20  1  0
 21 24  1  0
 22 23  1  0
 22 19  1  0
 23 21  2  0
 24 25  1  0
 25 26  2  0
 27 30  1  0
 27 26  1  0
 28 27  2  0
 29 28  1  0
 29 24  2  0
 30 31  1  0
 31 32  1  0
 32 33  2  0
 34 33  1  0
 34 38  1  0
 35 34  2  0
 36 31  2  0
 36 35  1  0
 37 36  1  0
 39 40  1  0
 40 43  1  0
 40 42  1  0
 41 39  2  0
 44 45  1  0
 44 19  1  0
 46 44  1  0
 47 48  1  0
 49 50  1  0
 49 48  1  0
 51 62  2  0
 52 50  1  0
 52 57  1  0
 53 61  1  0
 53 63  1  0
 54 60  1  0
 54 56  1  0
 55 61  1  0
 56 55  1  0
 57 56  2  0
 58 59  1  0
 58 52  2  0
 59 54  2  0
 60 53  1  0
 61 51  1  0
 63 65  2  0
 64 63  1  0
 66 64  1  0
 67 76  2  0
 67 72  1  0
 68 64  1  0
 68 72  1  0
 69 68  1  0
 70 71  1  0
 70 69  1  0
 71 67  1  0
 72 73  2  0
 73 74  1  0
 75 74  2  0
 76 75  1  0
 77 51  1  0
 77 78  1  0
 77 87  1  0
 78 81  1  0
 79 83  1  0
 79 78  1  0
 80 79  2  0
 83 82  1  0
 85 86  1  0
 85 83  1  0
 85 84  1  0
 87 90  1  1
 87 88  1  0
 89 87  1  0
M  ISO  4  10 100  11 100  49 101  50 101
M  END
>  <TORSDO>  (49) 
F 21

>  <SCORE>  (49) 
-12.647

>  <name>  (49) 
48

>  <ligand_id>  (49) 
48

>  <original_smiles>  (49) 
[H]C(=C1C([H])([H])C([H])([H])C([H])(C([H])([H])C([H])([H])C([H])([H])Oc2c([H])c([H])c3c(c2[H])C([H])([H])N(C(=O)C([H])(N([H])C(=O)C([H])(N([H])C([H])([H])[H])C([H])([H])[H])C(C([H])([H])[H])(C([H])([H])[H])C([H])([H])[H])C([H])(C(=O)N([H])C2([H])c4c([H])c([H])c([H])c([H])c4C([H])([H])C([H])([H])C2([H])[H])C3([H])[H])[N+]1([H])C([H])([H])[H])C([H])([H])C([H])([H])C(=O)N1C([H])([H])C([H])([H])C([H])([H])C([H])(n2nc(-c3c([H])c([H])c(Oc4c([H])c([H])c(F)c([H])c4F)c([H])c3[H])c(C(=O)N([H])[H])c2N([H])[H])C1([H])[H]

>  <smiles>  (49) 
[H]C(=C1C([H])([H])C([H])([H])C([H])(C([H])([H])C([H])([H])C([H])([H])Oc2c([H])c([H])c3c(c2[H])C([H])([H])N(C(=O)C([H])(N([H])C(=O)C([H])(N([H])C([H])([H])[H])C([H])([H])[H])C(C([H])([H])[H])(C([H])([H])[H])C([H])([H])[H])C([H])(C(=O)N([H])C2([H])c4c([H])c([H])c([H])c([H])c4C([H])([H])C([H])([H])C2([H])[H])C3([H])[H])[N+]1([H])C([H])([H])[H])C([H])([H])C([H])([H])C(=O)N1C([H])([H])C([H])([H])C([H])([H])C([H])(n2nc(-c3c([H])c([H])c(Oc4c([H])c([H])c(F)c([H])c4F)c([H])c3[H])c(C(=O)N([H])[H])c2N([H])[H])C1([H])[H]

$$$$
49:0:0
     RDKit          3D

 92 99  0  0  1  0  0  0  0  0999 V2000
  -29.5830  -20.1950   20.4600 C   0  0  0  0  0  2  0  0  0  0  0  0
  -30.5410  -19.1830   20.9880 N   0  0  0  0  0  4  0  0  0  0  0  0
  -30.3810  -19.0700   21.9800 H   0  0  0  0  0  0  0  0  0  0  0  0
  -31.4770  -19.5410   20.8700 H   0  0  0  0  0  0  0  0  0  0  0  0
  -30.5270  -17.8150   20.3820 C   0  0  0  0  0  3  0  0  0  0  0  0
  -31.6370  -17.2190   18.0700 C   0  0  0  0  0  1  0  0  0  0  0  0
  -31.8150  -17.7180   19.5190 C   0  0  0  0  0  2  0  0  0  0  0  0
  -30.5660  -15.3570   21.4340 C   0  0  0  0  0  3  0  0  0  0  0  0
  -30.3490  -16.7100   21.4840 C   0  0  0  0  0  0  0  0  0  0  0  0
  -31.0380  -14.5000   20.3460 C   0  0  0  0  0  0  0  0  0  0  0  0
  -30.5950  -12.4730   18.9810 C   0  0  0  0  0  2  0  0  0  0  0  0
  -29.6300  -12.7970   17.8230 C   0  0  0  0  0  2  0  0  0  0  0  0
  -28.1700  -12.6480   18.2870 C   0  0  0  0  0  2  0  0  0  0  0  0
  -27.8880  -13.4040   19.6120 C   0  0  0  0  0  3  0  0  0  0  0  0
  -28.9600  -13.0690   20.6710 C   0  0  0  0  0  2  0  0  0  0  0  0
  -30.2840  -13.3840   20.0990 N   0  0  0  0  0  0  0  0  0  0  0  0
  -32.0910  -14.7020   19.7420 O   0  0  0  0  0  0  0  0  0  0  0  0
  -25.4990  -14.0240   20.3320 C   0  0  0  0  0  0  0  0  0  0  0  0
  -24.4280  -13.2580   20.7160 C   0  0  0  0  0  0  0  0  0  0  0  0
  -24.8840  -11.9070   20.6950 C   0  0  0  0  0  0  0  0  0  0  0  0
  -26.5380  -13.1360   20.1030 N   0  0  0  0  0  0  0  0  0  0  0  0
  -26.1700  -11.8590   20.3730 N   0  0  0  0  0  0  0  0  0  0  0  0
  -24.1530  -10.6490   20.9030 C   0  0  0  0  0  0  0  0  0  0  0  0
  -24.5750   -9.6970   21.8550 C   0  0  0  0  0  3  0  0  0  0  0  0
  -23.8400   -8.5080   22.0590 C   0  0  0  0  0  3  0  0  0  0  0  0
  -22.6740   -8.2570   21.2980 C   0  0  0  0  0  0  0  0  0  0  0  0
  -22.2660   -9.2000   20.3390 C   0  0  0  0  0  3  0  0  0  0  0  0
  -23.0010  -10.3810   20.1380 C   0  0  0  0  0  3  0  0  0  0  0  0
  -21.9210   -7.1120   21.3990 O   0  0  0  0  0  0  0  0  0  0  0  0
  -21.8450   -6.4040   22.5710 C   0  0  0  0  0  0  0  0  0  0  0  0
  -21.4160   -7.0040   23.7750 C   0  0  0  0  0  3  0  0  0  0  0  0
  -21.2790   -6.2260   24.9430 C   0  0  0  0  0  3  0  0  0  0  0  0
  -21.5640   -4.8470   24.9060 C   0  0  0  0  0  0  0  0  0  0  0  0
  -21.9850   -4.2480   23.7070 C   0  0  0  0  0  3  0  0  0  0  0  0
  -22.1200   -5.0230   22.5420 C   0  0  0  0  0  0  0  0  0  0  0  0
  -22.5060   -4.4340   21.3850 F   0  0  0  0  0  0  0  0  0  0  0  0
  -21.4280   -4.0980   26.0240 F   0  0  0  0  0  0  0  0  0  0  0  0
  -23.0360  -13.7470   20.9920 C   0  0  0  0  0  0  0  0  0  0  0  0
  -22.3180  -13.0860   21.8960 N   0  0  0  0  0  0  0  0  0  0  0  0
  -22.5910  -14.7550   20.4460 O   0  0  0  0  0  0  0  0  0  0  0  0
  -22.6850  -12.2650   22.3530 H   0  0  0  0  0  0  0  0  0  0  0  0
  -21.3920  -13.4100   22.1330 H   0  0  0  0  0  0  0  0  0  0  0  0
  -25.6600  -15.3910   20.1430 N   0  0  0  0  0  0  0  0  0  0  0  0
  -24.8890  -16.0400   20.2580 H   0  0  0  0  0  0  0  0  0  0  0  0
  -26.5120  -15.8380   19.8270 H   0  0  0  0  0  0  0  0  0  0  0  0
  -30.9480  -17.7050   23.7520 C   0  0  0  0  0  1  0  0  0  0  0  0
  -29.8210  -17.2230   22.8290 C   0  0  0  0  0  2  0  0  0  0  0  0
  -29.9730  -21.6630   20.8350 C   0  0  0  0  0  2  0  0  0  0  0  0
  -28.8890  -22.7250   20.4900 C   0  0  0  0  0  2  0  0  0  0  0  0
  -29.3260  -24.2290   20.5100 C   0  0  0  0  0  2  0  0  0  0  0  0
  -28.0980  -25.1810   20.3890 C   0  0  0  0  0  2  0  0  0  0  0  0
  -28.3640  -26.5840   20.1060 O   0  0  0  0  0  0  0  0  0  0  0  0
  -24.6260  -31.8310   23.2080 C   0  0  0  0  0  0  0  0  0  0  0  0
  -27.2310  -27.3880   20.0660 C   0  0  0  0  0  0  0  0  0  0  0  0
  -23.4080  -30.4500   21.5610 C   0  0  0  0  0  3  0  0  0  0  0  0
  -24.8490  -28.9360   20.1040 C   0  0  0  0  0  0  0  0  0  0  0  0
  -25.9390  -30.8020   21.3530 C   0  0  0  0  0  2  0  0  0  0  0  0
  -26.0180  -29.4370   20.6930 C   0  0  0  0  0  0  0  0  0  0  0  0
  -27.2120  -28.6700   20.6750 C   0  0  0  0  0  3  0  0  0  0  0  0
  -26.0470  -26.9350   19.4380 C   0  0  0  0  0  3  0  0  0  0  0  0
  -24.8610  -27.6840   19.4750 C   0  0  0  0  0  3  0  0  0  0  0  0
  -23.6090  -29.7950   20.1700 C   0  0  0  0  0  2  0  0  0  0  0  0
  -24.6760  -31.0420   22.0970 N   0  0  0  0  0  0  0  0  0  0  0  0
  -23.5460  -32.0970   23.7580 O   0  0  0  0  0  0  0  0  0  0  0  0
  -22.7650  -29.4150   22.5110 C   0  0  0  0  0  0  0  0  0  0  0  0
  -21.4380  -29.2400   22.4000 N   0  0  0  0  0  0  0  0  0  0  0  0
  -23.4550  -28.7700   23.3060 O   0  0  0  0  0  0  0  0  0  0  0  0
  -20.9370  -29.8180   21.7420 H   0  0  0  0  0  0  0  0  0  0  0  0
  -18.0660  -28.0480   22.9210 C   0  0  0  0  0  0  0  0  0  0  0  0
  -20.6260  -28.2930   23.1670 C   0  0  0  0  0  3  0  0  0  0  0  0
  -20.7140  -26.8680   22.5680 C   0  0  0  0  0  2  0  0  0  0  0  0
  -19.6000  -26.5660   21.5610 C   0  0  0  0  0  2  0  0  0  0  0  0
  -18.2270  -26.7080   22.2220 C   0  0  0  0  0  2  0  0  0  0  0  0
  -19.1910  -28.8000   23.3490 C   0  0  0  0  0  0  0  0  0  0  0  0
  -18.9850  -30.0560   23.9610 C   0  0  0  0  0  3  0  0  0  0  0  0
  -17.6850  -30.5600   24.1480 C   0  0  0  0  0  3  0  0  0  0  0  0
  -16.5730  -29.8040   23.7380 C   0  0  0  0  0  3  0  0  0  0  0  0
  -16.7620  -28.5490   23.1310 C   0  0  0  0  0  3  0  0  0  0  0  0
  -25.9160  -32.4570   23.8230 C   0  0  0  0  0  3  0  0  0  0  0  0
  -26.4650  -31.6530   25.0640 C   0  0  1  0  0  0  0  0  0  0  0  0
  -25.3960  -31.3720   26.1470 C   0  0  0  0  0  1  0  0  0  0  0  0
  -27.0530  -30.2940   24.6200 C   0  0  0  0  0  1  0  0  0  0  0  0
  -27.6200  -32.4410   25.7270 C   0  0  0  0  0  1  0  0  0  0  0  0
  -25.6010  -33.8420   24.1970 N   0  0  0  0  0  0  0  0  0  0  0  0
  -25.9230  -34.9190   23.4690 C   0  0  0  0  0  0  0  0  0  0  0  0
  -26.5890  -34.8520   22.4320 O   0  0  0  0  0  0  0  0  0  0  0  0
  -25.0100  -33.9690   25.0060 H   0  0  0  0  0  0  0  0  0  0  0  0
  -24.1880  -36.7160   23.1720 C   0  0  0  0  0  1  0  0  0  0  0  0
  -25.4310  -36.2900   23.9710 C   0  0  0  0  0  3  0  0  0  0  0  0
  -27.5660  -37.1520   24.8270 C   0  0  0  0  0  1  0  0  0  0  0  0
  -26.4610  -37.3510   23.8930 N   0  0  0  0  0  0  0  0  0  0  0  0
  -26.0500  -38.2640   24.0770 H   0  0  0  0  0  0  0  0  0  0  0  0
  1 48  1  0
  1  2  1  0
  2  3  1  0
  4  2  1  0
  5  7  1  0
  5  2  1  0
  5  9  1  0
  6  7  1  0
  8  9  2  0
  9 47  1  0
 10  8  1  0
 11 16  1  0
 12 13  1  0
 12 11  1  0
 14 13  1  0
 14 21  1  0
 14 15  1  0
 16 10  1  0
 16 15  1  0
 17 10  2  0
 18 19  2  0
 19 38  1  0
 20 19  1  0
 20 23  1  0
 21 18  1  0
 21 22  1  0
 22 20  2  0
 23 24  1  0
 24 25  2  0
 26 29  1  0
 26 25  1  0
 27 26  2  0
 28 27  1  0
 28 23  2  0
 29 30  1  0
 30 31  1  0
 31 32  2  0
 33 32  1  0
 33 37  1  0
 34 33  2  0
 35 30  2  0
 35 34  1  0
 36 35  1  0
 38 39  1  0
 39 42  1  0
 39 41  1  0
 40 38  2  0
 43 44  1  0
 43 18  1  0
 45 43  1  0
 47 46  1  0
 49 50  1  0
 49 48  1  0
 51 50  1  0
 52 51  1  0
 53 64  2  0
 54 52  1  0
 54 59  1  0
 55 63  1  0
 55 65  1  0
 56 62  1  0
 56 58  1  0
 57 63  1  0
 58 57  1  0
 59 58  2  0
 60 61  1  0
 60 54  2  0
 61 56  2  0
 62 55  1  0
 63 53  1  0
 65 67  2  0
 66 65  1  0
 68 66  1  0
 69 78  2  0
 69 74  1  0
 70 66  1  0
 70 74  1  0
 71 70  1  0
 72 73  1  0
 72 71  1  0
 73 69  1  0
 74 75  2  0
 75 76  1  0
 77 76  2  0
 78 77  1  0
 79 53  1  0
 79 84  1  0
 79 80  1  0
 80 83  1  1
 80 81  1  0
 82 80  1  0
 84 87  1  0
 85 89  1  0
 85 84  1  0
 86 85  2  0
 89 88  1  0
 91 89  1  0
 91 92  1  0
 91 90  1  0
M  ISO  4   8 100  10 100  51 101  52 101
M  END
>  <TORSDO>  (50) 
F 25

>  <SCORE>  (50) 
-10.622

>  <name>  (50) 
49

>  <ligand_id>  (50) 
49

>  <original_smiles>  (50) 
[H]C(C(=O)N1C([H])([H])C([H])([H])C([H])([H])C([H])(n2nc(-c3c([H])c([H])c(Oc4c([H])c([H])c(F)c([H])c4F)c([H])c3[H])c(C(=O)N([H])[H])c2N([H])[H])C1([H])[H])=C(C([H])([H])C([H])([H])[H])C([H])(C([H])([H])C([H])([H])[H])[N+]([H])([H])C([H])([H])C([H])([H])C([H])([H])C([H])([H])C([H])([H])Oc1c([H])c([H])c2c(c1[H])C([H])([H])N(C(=O)C([H])(N([H])C(=O)C([H])(N([H])C([H])([H])[H])C([H])([H])[H])C(C([H])([H])[H])(C([H])([H])[H])C([H])([H])[H])C([H])(C(=O)N([H])C1([H])c3c([H])c([H])c([H])c([H])c3C([H])([H])C([H])([H])C1([H])[H])C2([H])[H]

>  <smiles>  (50) 
[H]C(C(=O)N1C([H])([H])C([H])([H])C([H])([H])C([H])(n2nc(-c3c([H])c([H])c(Oc4c([H])c([H])c(F)c([H])c4F)c([H])c3[H])c(C(=O)N([H])[H])c2N([H])[H])C1([H])[H])=C(C([H])([H])C([H])([H])[H])C([H])(C([H])([H])C([H])([H])[H])[N+]([H])([H])C([H])([H])C([H])([H])C([H])([H])C([H])([H])C([H])([H])Oc1c([H])c([H])c2c(c1[H])C([H])([H])N(C(=O)C([H])(N([H])C(=O)C([H])(N([H])C([H])([H])[H])C([H])([H])[H])C(C([H])([H])[H])(C([H])([H])[H])C([H])([H])[H])C([H])(C(=O)N([H])C1([H])c3c([H])c([H])c([H])c([H])c3C([H])([H])C([H])([H])C1([H])[H])C2([H])[H]

$$$$
50:0:0
     RDKit          3D

 92102  0  0  1  0  0  0  0  0999 V2000
  -29.2580  -16.9930   21.1660 C   0  0  0  0  0  3  0  0  0  0  0  0
  -28.9190  -18.3990   21.3110 C   0  0  0  0  0  3  0  0  0  0  0  0
  -30.5060  -17.5130   19.1970 C   0  0  0  0  0  3  0  0  0  0  0  0
  -30.0840  -16.4640   20.1150 C   0  0  0  0  0  0  0  0  0  0  0  0
  -29.3720  -19.4040   20.3960 C   0  0  0  0  0  0  0  0  0  0  0  0
  -30.1570  -18.9200   19.3440 C   0  0  0  0  0  0  0  0  0  0  0  0
  -30.6710  -20.1220   18.5340 C   0  0  0  0  0  2  0  0  0  0  0  0
  -29.9750  -22.7740   18.8350 C   0  0  0  0  0  2  0  0  0  0  0  0
  -29.4640  -21.0020   20.5360 C   0  0  0  0  0  3  0  0  0  0  0  0
  -30.4780  -21.4010   19.4420 C   0  0  0  0  0  3  0  0  0  0  0  0
  -28.9800  -23.3830   19.8750 C   0  0  0  0  0  3  0  0  0  0  0  0
  -27.4490  -22.1550   21.5230 C   0  0  0  0  0  1  0  0  0  0  0  0
  -28.3450  -22.0460   20.3460 N   0  0  2  0  0  4  0  0  0  0  0  0
  -27.7790  -21.6900   19.5900 H   0  0  0  0  0  0  0  0  0  0  0  0
  -30.6940  -14.9740   20.0370 C   0  0  0  0  0  0  0  0  0  0  0  0
  -30.4560  -12.5700   19.2940 C   0  0  0  0  0  2  0  0  0  0  0  0
  -29.5240  -12.4800   18.0630 C   0  0  0  0  0  2  0  0  0  0  0  0
  -28.0630  -12.3180   18.5160 C   0  0  0  0  0  2  0  0  0  0  0  0
  -27.6790  -13.3250   19.6320 C   0  0  0  0  0  3  0  0  0  0  0  0
  -28.7450  -13.4300   20.7440 C   0  0  0  0  0  2  0  0  0  0  0  0
  -30.0280  -13.7490   20.1110 N   0  0  0  0  0  0  0  0  0  0  0  0
  -31.8760  -14.9220   19.6930 O   0  0  0  0  0  0  0  0  0  0  0  0
  -25.3600  -13.9660   20.4950 C   0  0  0  0  0  0  0  0  0  0  0  0
  -24.2800  -13.2200   20.8750 C   0  0  0  0  0  0  0  0  0  0  0  0
  -24.6850  -11.8540   20.7700 C   0  0  0  0  0  0  0  0  0  0  0  0
  -26.3540  -13.0580   20.1740 N   0  0  0  0  0  0  0  0  0  0  0  0
  -25.9610  -11.7780   20.4110 N   0  0  0  0  0  0  0  0  0  0  0  0
  -23.9120  -10.6180   20.9420 C   0  0  0  0  0  0  0  0  0  0  0  0
  -24.3420   -9.5860   21.8070 C   0  0  0  0  0  3  0  0  0  0  0  0
  -23.5690   -8.4160   21.9670 C   0  0  0  0  0  3  0  0  0  0  0  0
  -22.3520   -8.2680   21.2610 C   0  0  0  0  0  0  0  0  0  0  0  0
  -21.9380   -9.2860   20.3820 C   0  0  0  0  0  3  0  0  0  0  0  0
  -22.7130  -10.4470   20.2220 C   0  0  0  0  0  3  0  0  0  0  0  0
  -21.5500   -7.1540   21.3340 O   0  0  0  0  0  0  0  0  0  0  0  0
  -21.5310   -6.3510   22.4460 C   0  0  0  0  0  0  0  0  0  0  0  0
  -21.1830   -6.8520   23.7190 C   0  0  0  0  0  3  0  0  0  0  0  0
  -21.1080   -5.9800   24.8230 C   0  0  0  0  0  3  0  0  0  0  0  0
  -21.3730   -4.6080   24.6560 C   0  0  0  0  0  0  0  0  0  0  0  0
  -21.7110   -4.1060   23.3860 C   0  0  0  0  0  3  0  0  0  0  0  0
  -21.7900   -4.9760   22.2840 C   0  0  0  0  0  0  0  0  0  0  0  0
  -22.1000   -4.4830   21.0610 F   0  0  0  0  0  0  0  0  0  0  0  0
  -21.2930   -3.7670   25.7130 F   0  0  0  0  0  0  0  0  0  0  0  0
  -22.9170  -13.7470   21.2180 C   0  0  0  0  0  0  0  0  0  0  0  0
  -22.1920  -13.0520   22.0850 N   0  0  0  0  0  0  0  0  0  0  0  0
  -22.5060  -14.8090   20.7550 O   0  0  0  0  0  0  0  0  0  0  0  0
  -22.5340  -12.1900   22.4870 H   0  0  0  0  0  0  0  0  0  0  0  0
  -21.2800  -13.3930   22.3580 H   0  0  0  0  0  0  0  0  0  0  0  0
  -25.5690  -15.3370   20.3750 N   0  0  0  0  0  0  0  0  0  0  0  0
  -24.8330  -16.0040   20.5780 H   0  0  0  0  0  0  0  0  0  0  0  0
  -26.4350  -15.7720   20.0830 H   0  0  0  0  0  0  0  0  0  0  0  0
  -28.0390  -24.7040   19.4320 C   0  0  0  0  0  2  0  0  0  0  0  0
  -28.3410  -26.2230   19.5690 O   0  0  0  0  0  0  0  0  0  0  0  0
  -24.5890  -31.5560   22.9450 C   0  0  0  0  0  0  0  0  0  0  0  0
  -27.2700  -27.1830   19.5570 C   0  0  0  0  0  0  0  0  0  0  0  0
  -23.4150  -30.2530   21.2160 C   0  0  0  0  0  3  0  0  0  0  0  0
  -24.8960  -28.8500   19.6570 C   0  0  0  0  0  0  0  0  0  0  0  0
  -25.9580  -30.6190   21.0470 C   0  0  0  0  0  2  0  0  0  0  0  0
  -26.0690  -29.2870   20.2880 C   0  0  0  0  0  0  0  0  0  0  0  0
  -27.2590  -28.4740   20.2180 C   0  0  0  0  0  3  0  0  0  0  0  0
  -26.0710  -26.8510   18.8840 C   0  0  0  0  0  3  0  0  0  0  0  0
  -24.9100  -27.6470   18.9380 C   0  0  0  0  0  3  0  0  0  0  0  0
  -23.6440  -29.7010   19.7830 C   0  0  0  0  0  2  0  0  0  0  0  0
  -24.6740  -30.8260   21.7930 N   0  0  0  0  0  0  0  0  0  0  0  0
  -23.5000  -31.7660   23.5020 O   0  0  0  0  0  0  0  0  0  0  0  0
  -22.7840  -29.1490   22.1000 C   0  0  0  0  0  0  0  0  0  0  0  0
  -21.4540  -28.9780   22.0110 N   0  0  0  0  0  0  0  0  0  0  0  0
  -23.4910  -28.4500   22.8290 O   0  0  0  0  0  0  0  0  0  0  0  0
  -20.9380  -29.5990   21.4040 H   0  0  0  0  0  0  0  0  0  0  0  0
  -18.0890  -27.7650   22.5950 C   0  0  0  0  0  0  0  0  0  0  0  0
  -20.6650  -27.9700   22.7230 C   0  0  0  0  0  3  0  0  0  0  0  0
  -20.7040  -26.6120   21.9840 C   0  0  0  0  0  2  0  0  0  0  0  0
  -19.5350  -26.4160   21.0130 C   0  0  0  0  0  2  0  0  0  0  0  0
  -18.1990  -26.5000   21.7580 C   0  0  0  0  0  2  0  0  0  0  0  0
  -19.2460  -28.4630   23.0340 C   0  0  0  0  0  0  0  0  0  0  0  0
  -19.0850  -29.6490   23.7820 C   0  0  0  0  0  3  0  0  0  0  0  0
  -17.8020  -30.1410   24.0870 C   0  0  0  0  0  3  0  0  0  0  0  0
  -16.6610  -29.4390   23.6590 C   0  0  0  0  0  3  0  0  0  0  0  0
  -16.8060  -28.2520   22.9210 C   0  0  0  0  0  3  0  0  0  0  0  0
  -25.8530  -32.1820   23.6100 C   0  0  0  0  0  3  0  0  0  0  0  0
  -25.5060  -33.5480   24.0310 N   0  0  0  0  0  0  0  0  0  0  0  0
  -25.7930  -34.6570   23.3350 C   0  0  0  0  0  0  0  0  0  0  0  0
  -26.4440  -34.6390   22.2890 O   0  0  0  0  0  0  0  0  0  0  0  0
  -24.9210  -33.6360   24.8490 H   0  0  0  0  0  0  0  0  0  0  0  0
  -23.9990  -36.4100   23.1430 C   0  0  0  0  0  1  0  0  0  0  0  0
  -25.2750  -35.9990   23.8910 C   0  0  0  0  0  3  0  0  0  0  0  0
  -27.4030  -36.9090   24.7140 C   0  0  0  0  0  1  0  0  0  0  0  0
  -26.2700  -37.0920   23.8100 N   0  0  0  0  0  0  0  0  0  0  0  0
  -25.8380  -37.9880   24.0190 H   0  0  0  0  0  0  0  0  0  0  0  0
  -26.3870  -31.3460   24.8380 C   0  0  1  0  0  0  0  0  0  0  0  0
  -25.3030  -31.0260   25.8930 C   0  0  0  0  0  1  0  0  0  0  0  0
  -26.9910  -30.0040   24.3630 C   0  0  0  0  0  1  0  0  0  0  0  0
  -27.5290  -32.1180   25.5420 C   0  0  0  0  0  1  0  0  0  0  0  0
  1  2  1  0
  3  6  2  0
  3  4  1  0
  4  1  2  0
  5  2  2  0
  6  5  1  0
  7  6  1  0
  8 10  1  0
  8 11  1  0
  9  5  1  0
 10  7  1  0
 10  9  1  0
 11 51  1  0
 11 13  1  0
 13  9  1  0
 13 12  1  0
 13 14  1  6
 15 21  1  0
 15  4  1  0
 16 21  1  0
 17 18  1  0
 17 16  1  0
 19 18  1  0
 19 26  1  0
 19 20  1  0
 21 20  1  0
 22 15  2  0
 23 24  2  0
 24 43  1  0
 25 24  1  0
 25 28  1  0
 26 27  1  0
 26 23  1  0
 27 25  2  0
 28 29  1  0
 29 30  2  0
 31 34  1  0
 31 30  1  0
 32 31  2  0
 33 32  1  0
 33 28  2  0
 34 35  1  0
 35 36  1  0
 36 37  2  0
 38 37  1  0
 38 42  1  0
 39 38  2  0
 40 35  2  0
 40 39  1  0
 41 40  1  0
 43 44  1  0
 44 47  1  0
 44 46  1  0
 45 43  2  0
 48 23  1  0
 48 49  1  0
 50 48  1  0
 51 52  1  0
 53 64  2  0
 54 52  1  0
 54 59  1  0
 55 63  1  0
 55 65  1  0
 56 62  1  0
 56 58  1  0
 57 63  1  0
 58 57  1  0
 59 58  2  0
 60 61  1  0
 60 54  2  0
 61 56  2  0
 62 55  1  0
 63 53  1  0
 65 67  2  0
 66 65  1  0
 68 66  1  0
 69 78  2  0
 69 74  1  0
 70 66  1  0
 70 74  1  0
 71 70  1  0
 72 73  1  0
 72 71  1  0
 73 69  1  0
 74 75  2  0
 75 76  1  0
 77 76  2  0
 78 77  1  0
 79 53  1  0
 79 80  1  0
 79 89  1  0
 80 83  1  0
 81 85  1  0
 81 80  1  0
 82 81  2  0
 85 84  1  0
 87 85  1  0
 87 88  1  0
 87 86  1  0
 89 92  1  1
 89 90  1  0
 91 89  1  0
M  ISO  4   4 100  15 100  51 101  52 101
M  END
>  <TORSDO>  (51) 
F 17

>  <SCORE>  (51) 
-13.552

>  <name>  (51) 
50

>  <ligand_id>  (51) 
50

>  <original_smiles>  (51) 
[H]c1c([H])c([H])c2c(c1[H])C([H])([H])C([H])([H])C([H])([H])C2([H])N([H])C(=O)C1([H])N(C(=O)C([H])(N([H])C(=O)C([H])(N([H])C([H])([H])[H])C([H])([H])[H])C(C([H])([H])[H])(C([H])([H])[H])C([H])([H])[H])C([H])([H])c2c([H])c(OC([H])([H])C3([H])C([H])([H])C4([H])C([H])([H])c5c([H])c(C(=O)N6C([H])([H])C([H])([H])C([H])([H])C([H])(n7nc(-c8c([H])c([H])c(Oc9c([H])c([H])c(F)c([H])c9F)c([H])c8[H])c(C(=O)N([H])[H])c7N([H])[H])C6([H])[H])c([H])c([H])c5C4([H])[N+]3([H])C([H])([H])[H])c([H])c([H])c2C1([H])[H]

>  <smiles>  (51) 
[H]c1c([H])c([H])c2c(c1[H])C([H])([H])C([H])([H])C([H])([H])C2([H])N([H])C(=O)C1([H])N(C(=O)C([H])(N([H])C(=O)C([H])(N([H])C([H])([H])[H])C([H])([H])[H])C(C([H])([H])[H])(C([H])([H])[H])C([H])([H])[H])C([H])([H])c2c([H])c(OC([H])([H])C3([H])C([H])([H])C4([H])C([H])([H])c5c([H])c(C(=O)N6C([H])([H])C([H])([H])C([H])([H])C([H])(n7nc(-c8c([H])c([H])c(Oc9c([H])c([H])c(F)c([H])c9F)c([H])c8[H])c(C(=O)N([H])[H])c7N([H])[H])C6([H])[H])c([H])c([H])c5C4([H])[N+]3([H])C([H])([H])[H])c([H])c([H])c2C1([H])[H]

$$$$
51:0:0
     RDKit          3D

 99108  0  0  1  0  0  0  0  0999 V2000
  -29.1930  -24.5270   17.3740 C   0  0  0  0  0  0  0  0  0  0  0  0
  -29.1590  -25.2260   18.5240 C   0  0  0  0  0  3  0  0  0  0  0  0
  -29.3660  -25.2280   16.0370 C   0  0  0  0  0  2  0  0  0  0  0  0
  -31.1650  -22.7300   16.5230 C   0  0  0  0  0  2  0  0  0  0  0  0
  -29.8100  -22.8810   15.8040 C   0  0  0  0  0  3  0  0  0  0  0  0
  -29.5700  -24.1330   14.9810 C   0  0  0  0  0  3  0  0  0  0  0  0
  -30.4140  -22.2490   17.7830 C   0  0  0  0  0  3  0  0  0  0  0  0
  -29.1620  -23.0010   17.1880 C   0  0  1  0  0  0  0  0  0  0  0  0
  -28.3520  -24.0080   14.0520 C   0  0  0  0  0  1  0  0  0  0  0  0
  -27.7160  -22.5340   17.3730 C   0  0  0  0  0  1  0  0  0  0  0  0
  -31.9240  -20.3140   17.8460 C   0  0  0  0  0  1  0  0  0  0  0  0
  -30.5020  -20.7490   17.8160 N   0  0  1  0  0  4  0  0  0  0  0  0
  -30.1340  -20.4480   16.9260 H   0  0  0  0  0  0  0  0  0  0  0  0
  -29.6960  -19.9770   18.8040 C   0  0  0  0  0  2  0  0  0  0  0  0
  -30.0150  -17.4320   19.0540 C   0  0  0  0  0  3  0  0  0  0  0  0
  -29.6170  -18.5150   18.3500 C   0  0  0  0  0  0  0  0  0  0  0  0
  -29.0330  -18.3220   16.9580 C   0  0  0  0  0  1  0  0  0  0  0  0
  -32.0280  -17.8370   20.5710 C   0  0  0  0  0  1  0  0  0  0  0  0
  -30.5710  -17.3380   20.4730 C   0  0  0  0  0  3  0  0  0  0  0  0
  -30.3460  -15.9130   21.0830 C   0  0  0  0  0  2  0  0  0  0  0  0
  -30.9660  -14.7180   20.3080 C   0  0  0  0  0  0  0  0  0  0  0  0
  -30.6480  -12.5910   19.0960 C   0  0  0  0  0  2  0  0  0  0  0  0
  -29.6990  -12.8410   17.9060 C   0  0  0  0  0  2  0  0  0  0  0  0
  -28.2290  -12.6890   18.3450 C   0  0  0  0  0  2  0  0  0  0  0  0
  -27.9050  -13.4940   19.6330 C   0  0  0  0  0  3  0  0  0  0  0  0
  -28.9700  -13.2300   20.7240 C   0  0  0  0  0  2  0  0  0  0  0  0
  -30.2870  -13.5490   20.1550 N   0  0  0  0  0  0  0  0  0  0  0  0
  -32.0630  -14.8950   19.7680 O   0  0  0  0  0  0  0  0  0  0  0  0
  -25.5040  -14.0840   20.3490 C   0  0  0  0  0  0  0  0  0  0  0  0
  -24.4430  -13.3030   20.7170 C   0  0  0  0  0  0  0  0  0  0  0  0
  -24.9090  -11.9530   20.6710 C   0  0  0  0  0  0  0  0  0  0  0  0
  -26.5540  -13.2100   20.1110 N   0  0  0  0  0  0  0  0  0  0  0  0
  -26.1980  -11.9230   20.3580 N   0  0  0  0  0  0  0  0  0  0  0  0
  -24.1880  -10.6890   20.8540 C   0  0  0  0  0  0  0  0  0  0  0  0
  -24.5560   -9.7690   21.8630 C   0  0  0  0  0  3  0  0  0  0  0  0
  -23.8360   -8.5670   22.0300 C   0  0  0  0  0  3  0  0  0  0  0  0
  -22.7360   -8.2750   21.1890 C   0  0  0  0  0  0  0  0  0  0  0  0
  -22.3900   -9.1820   20.1720 C   0  0  0  0  0  3  0  0  0  0  0  0
  -23.1090  -10.3760   20.0030 C   0  0  0  0  0  3  0  0  0  0  0  0
  -21.9940   -7.1210   21.2640 O   0  0  0  0  0  0  0  0  0  0  0  0
  -21.7830   -6.4770   22.4570 C   0  0  0  0  0  0  0  0  0  0  0  0
  -21.1300   -7.1080   23.5390 C   0  0  0  0  0  3  0  0  0  0  0  0
  -20.8700   -6.3870   24.7220 C   0  0  0  0  0  3  0  0  0  0  0  0
  -21.2510   -5.0350   24.8220 C   0  0  0  0  0  0  0  0  0  0  0  0
  -21.8960   -4.4040   23.7440 C   0  0  0  0  0  3  0  0  0  0  0  0
  -22.1570   -5.1220   22.5640 C   0  0  0  0  0  0  0  0  0  0  0  0
  -22.7590   -4.5020   21.5210 F   0  0  0  0  0  0  0  0  0  0  0  0
  -20.9950   -4.3400   25.9550 F   0  0  0  0  0  0  0  0  0  0  0  0
  -23.0450  -13.7710   21.0030 C   0  0  0  0  0  0  0  0  0  0  0  0
  -22.3290  -13.0670   21.8740 N   0  0  0  0  0  0  0  0  0  0  0  0
  -22.5970  -14.7980   20.4940 O   0  0  0  0  0  0  0  0  0  0  0  0
  -22.7050  -12.2360   22.3050 H   0  0  0  0  0  0  0  0  0  0  0  0
  -21.3920  -13.3620   22.1080 H   0  0  0  0  0  0  0  0  0  0  0  0
  -25.6610  -15.4570   20.1850 N   0  0  0  0  0  0  0  0  0  0  0  0
  -24.8880  -16.1020   20.3120 H   0  0  0  0  0  0  0  0  0  0  0  0
  -26.5080  -15.9100   19.8680 H   0  0  0  0  0  0  0  0  0  0  0  0
  -29.0270  -24.6960   19.9370 C   0  0  0  0  0  2  0  0  0  0  0  0
  -27.9310  -25.4280   20.7210 C   0  0  0  0  0  2  0  0  0  0  0  0
  -28.0780  -26.8450   20.5710 O   0  0  0  0  0  0  0  0  0  0  0  0
  -24.4690  -32.0520   23.7670 C   0  0  0  0  0  0  0  0  0  0  0  0
  -26.9280  -27.6050   20.5720 C   0  0  0  0  0  0  0  0  0  0  0  0
  -23.2180  -30.7860   22.0460 C   0  0  0  0  0  3  0  0  0  0  0  0
  -24.6130  -29.2260   20.5920 C   0  0  0  0  0  0  0  0  0  0  0  0
  -25.7620  -31.0160   21.9070 C   0  0  0  0  0  2  0  0  0  0  0  0
  -25.7860  -29.6710   21.2150 C   0  0  0  0  0  0  0  0  0  0  0  0
  -26.9470  -28.8700   21.1950 C   0  0  0  0  0  3  0  0  0  0  0  0
  -25.7400  -27.1710   19.9400 C   0  0  0  0  0  3  0  0  0  0  0  0
  -24.5840  -27.9730   19.9530 C   0  0  0  0  0  3  0  0  0  0  0  0
  -23.4150  -30.1470   20.6470 C   0  0  0  0  0  2  0  0  0  0  0  0
  -24.5010  -31.2950   22.6330 N   0  0  0  0  0  0  0  0  0  0  0  0
  -23.3930  -32.3650   24.2970 O   0  0  0  0  0  0  0  0  0  0  0  0
  -22.4920  -29.7670   22.9540 C   0  0  0  0  0  0  0  0  0  0  0  0
  -21.1800  -29.5960   22.7290 N   0  0  0  0  0  0  0  0  0  0  0  0
  -23.1120  -29.1300   23.8100 O   0  0  0  0  0  0  0  0  0  0  0  0
  -20.7440  -30.1620   22.0150 H   0  0  0  0  0  0  0  0  0  0  0  0
  -17.7760  -28.4090   22.9510 C   0  0  0  0  0  0  0  0  0  0  0  0
  -20.3020  -28.6630   23.4330 C   0  0  0  0  0  3  0  0  0  0  0  0
  -20.4490  -27.2290   22.8740 C   0  0  0  0  0  2  0  0  0  0  0  0
  -19.4360  -26.9030   21.7730 C   0  0  0  0  0  2  0  0  0  0  0  0
  -18.0060  -27.0560   22.2990 C   0  0  0  0  0  2  0  0  0  0  0  0
  -18.8560  -29.1700   23.4690 C   0  0  0  0  0  0  0  0  0  0  0  0
  -18.5930  -30.4390   24.0300 C   0  0  0  0  0  3  0  0  0  0  0  0
  -17.2820  -30.9470   24.0810 C   0  0  0  0  0  3  0  0  0  0  0  0
  -16.2130  -30.1810   23.5820 C   0  0  0  0  0  3  0  0  0  0  0  0
  -16.4610  -28.9150   23.0230 C   0  0  0  0  0  3  0  0  0  0  0  0
  -25.7770  -32.5840   24.4320 C   0  0  0  0  0  3  0  0  0  0  0  0
  -25.5570  -33.9970   24.7660 N   0  0  0  0  0  0  0  0  0  0  0  0
  -25.9790  -35.0280   24.0200 C   0  0  0  0  0  0  0  0  0  0  0  0
  -26.6650  -34.8820   23.0050 O   0  0  0  0  0  0  0  0  0  0  0  0
  -24.9520  -34.1890   25.5520 H   0  0  0  0  0  0  0  0  0  0  0  0
  -24.3780  -36.9310   23.6480 C   0  0  0  0  0  1  0  0  0  0  0  0
  -25.5780  -36.4440   24.4750 C   0  0  0  0  0  3  0  0  0  0  0  0
  -27.7510  -37.1890   25.3440 C   0  0  0  0  0  1  0  0  0  0  0  0
  -26.6790  -37.4270   24.3800 N   0  0  0  0  0  0  0  0  0  0  0  0
  -26.3310  -38.3720   24.5190 H   0  0  0  0  0  0  0  0  0  0  0  0
  -26.1980  -31.7660   25.7150 C   0  0  1  0  0  0  0  0  0  0  0  0
  -25.0470  -31.5660   26.7290 C   0  0  0  0  0  1  0  0  0  0  0  0
  -26.7310  -30.3680   25.3220 C   0  0  0  0  0  1  0  0  0  0  0  0
  -27.3570  -32.4900   26.4410 C   0  0  0  0  0  1  0  0  0  0  0  0
  1  2  2  0
  2 57  1  0
  3  1  1  0
  4  7  1  0
  5  4  1  0
  5  8  1  0
  6  9  1  0
  6  5  1  0
  6  3  1  0
  7 12  1  0
  8 10  1  6
  8  1  1  0
  8  7  1  0
 12 11  1  0
 12 14  1  0
 12 13  1  6
 15 19  1  0
 16 14  1  0
 16 15  2  0
 17 16  1  0
 19 18  1  0
 19 20  1  0
 21 20  1  0
 22 27  1  0
 23 24  1  0
 23 22  1  0
 25 24  1  0
 25 32  1  0
 25 26  1  0
 27 21  1  0
 27 26  1  0
 28 21  2  0
 29 30  2  0
 30 49  1  0
 31 30  1  0
 31 34  1  0
 32 29  1  0
 32 33  1  0
 33 31  2  0
 34 35  1  0
 35 36  2  0
 37 40  1  0
 37 36  1  0
 38 37  2  0
 39 38  1  0
 39 34  2  0
 40 41  1  0
 41 46  2  0
 41 42  1  0
 42 43  2  0
 43 44  1  0
 44 48  1  0
 45 44  2  0
 46 45  1  0
 47 46  1  0
 49 50  1  0
 50 53  1  0
 50 52  1  0
 51 49  2  0
 54 55  1  0
 54 29  1  0
 56 54  1  0
 57 58  1  0
 59 61  1  0
 59 58  1  0
 60 71  2  0
 61 66  1  0
 62 70  1  0
 62 72  1  0
 63 69  1  0
 63 65  1  0
 64 70  1  0
 65 64  1  0
 66 65  2  0
 67 68  1  0
 67 61  2  0
 68 63  2  0
 69 62  1  0
 70 60  1  0
 72 74  2  0
 73 72  1  0
 75 73  1  0
 76 85  2  0
 76 81  1  0
 77 73  1  0
 77 81  1  0
 78 77  1  0
 79 80  1  0
 79 78  1  0
 80 76  1  0
 81 82  2  0
 82 83  1  0
 84 83  2  0
 85 84  1  0
 86 60  1  0
 86 87  1  0
 86 96  1  0
 87 90  1  0
 88 92  1  0
 88 87  1  0
 89 88  2  0
 92 91  1  0
 94 92  1  0
 94 95  1  0
 94 93  1  0
 96 99  1  1
 96 97  1  0
 98 96  1  0
M  ISO  4  20 100  21 100  58 101  59 101
M  END
>  <TORSDO>  (52) 
F 23

>  <SCORE>  (52) 
-10.228

>  <name>  (52) 
51

>  <ligand_id>  (52) 
51

>  <original_smiles>  (52) 
[H]C(=C1C([H])([H])C([H])(C([H])([H])[H])C2([H])C([H])([H])C([H])([N+]([H])(C([H])([H])[H])C([H])([H])C(=C([H])C([H])(C([H])([H])[H])C([H])([H])C(=O)N3C([H])([H])C([H])([H])C([H])([H])C([H])(n4nc(-c5c([H])c([H])c(Oc6c([H])c([H])c(F)c([H])c6F)c([H])c5[H])c(C(=O)N([H])[H])c4N([H])[H])C3([H])[H])C([H])([H])[H])C12C([H])([H])[H])C([H])([H])C([H])([H])Oc1c([H])c([H])c2c(c1[H])C([H])([H])N(C(=O)C([H])(N([H])C(=O)C([H])(N([H])C([H])([H])[H])C([H])([H])[H])C(C([H])([H])[H])(C([H])([H])[H])C([H])([H])[H])C([H])(C(=O)N([H])C1([H])c3c([H])c([H])c([H])c([H])c3C([H])([H])C([H])([H])C1([H])[H])C2([H])[H]

>  <smiles>  (52) 
[H]C(=C1C([H])([H])C([H])(C([H])([H])[H])C2([H])C([H])([H])C([H])([N+]([H])(C([H])([H])[H])C([H])([H])C(=C([H])C([H])(C([H])([H])[H])C([H])([H])C(=O)N3C([H])([H])C([H])([H])C([H])([H])C([H])(n4nc(-c5c([H])c([H])c(Oc6c([H])c([H])c(F)c([H])c6F)c([H])c5[H])c(C(=O)N([H])[H])c4N([H])[H])C3([H])[H])C([H])([H])[H])C12C([H])([H])[H])C([H])([H])C([H])([H])Oc1c([H])c([H])c2c(c1[H])C([H])([H])N(C(=O)C([H])(N([H])C(=O)C([H])(N([H])C([H])([H])[H])C([H])([H])[H])C(C([H])([H])[H])(C([H])([H])[H])C([H])([H])[H])C([H])(C(=O)N([H])C1([H])c3c([H])c([H])c([H])c([H])c3C([H])([H])C([H])([H])C1([H])[H])C2([H])[H]

$$$$
52:0:0
     RDKit          3D

 86 95  0  0  1  0  0  0  0  0999 V2000
  -29.3820  -17.1810   20.8550 C   0  0  0  0  0  3  0  0  0  0  0  0
  -30.0250  -17.2810   19.6330 C   0  0  0  0  0  0  0  0  0  0  0  0
  -29.8160  -18.9470   19.2890 C   0  0  0  0  0  0  0  0  0  0  0  0
  -29.0920  -19.6550   20.2330 C   0  0  0  0  0  3  0  0  0  0  0  0
  -29.9670  -20.4340   18.3880 C   0  0  0  0  0  3  0  0  0  0  0  0
  -28.7320  -21.2070   20.1810 C   0  0  0  0  0  3  0  0  0  0  0  0
  -29.5000  -22.0600   19.0720 C   0  0  0  0  0  0  0  0  0  0  0  0
  -28.6140  -18.6150   21.5320 S   0  0  0  0  0  0  0  0  0  0  0  0
  -30.7360  -15.6010   19.3200 C   0  0  0  0  0  0  0  0  0  0  0  0
  -30.7220  -12.9830   18.7490 C   0  0  0  0  0  2  0  0  0  0  0  0
  -29.7330  -12.5330   17.6310 C   0  0  0  0  0  2  0  0  0  0  0  0
  -28.3310  -12.2690   18.2000 C   0  0  0  0  0  2  0  0  0  0  0  0
  -27.9340  -13.3630   19.2140 C   0  0  0  0  0  3  0  0  0  0  0  0
  -29.0480  -13.6970   20.2290 C   0  0  0  0  0  2  0  0  0  0  0  0
  -30.2080  -14.2370   19.4730 N   0  0  0  0  0  0  0  0  0  0  0  0
  -31.9030  -15.4800   18.9040 O   0  0  0  0  0  0  0  0  0  0  0  0
  -25.7170  -14.0530   20.2430 C   0  0  0  0  0  0  0  0  0  0  0  0
  -24.6380  -13.3460   20.6940 C   0  0  0  0  0  0  0  0  0  0  0  0
  -24.9880  -11.9660   20.5690 C   0  0  0  0  0  0  0  0  0  0  0  0
  -26.6510  -13.1120   19.8550 N   0  0  0  0  0  0  0  0  0  0  0  0
  -26.2340  -11.8450   20.1180 N   0  0  0  0  0  0  0  0  0  0  0  0
  -24.1810  -10.7590   20.7960 C   0  0  0  0  0  0  0  0  0  0  0  0
  -24.6080   -9.7350   21.6690 C   0  0  0  0  0  3  0  0  0  0  0  0
  -23.8010   -8.5960   21.8860 C   0  0  0  0  0  3  0  0  0  0  0  0
  -22.5520   -8.4760   21.2320 C   0  0  0  0  0  0  0  0  0  0  0  0
  -22.1410   -9.4880   20.3470 C   0  0  0  0  0  3  0  0  0  0  0  0
  -22.9480  -10.6170   20.1270 C   0  0  0  0  0  3  0  0  0  0  0  0
  -21.7130   -7.3950   21.3620 O   0  0  0  0  0  0  0  0  0  0  0  0
  -21.6870   -6.6360   22.5060 C   0  0  0  0  0  0  0  0  0  0  0  0
  -21.3480   -7.1900   23.7600 C   0  0  0  0  0  3  0  0  0  0  0  0
  -21.2660   -6.3610   24.8970 C   0  0  0  0  0  3  0  0  0  0  0  0
  -21.5150   -4.9810   24.7810 C   0  0  0  0  0  0  0  0  0  0  0  0
  -21.8470   -4.4260   23.5320 C   0  0  0  0  0  3  0  0  0  0  0  0
  -21.9290   -5.2520   22.3970 C   0  0  0  0  0  0  0  0  0  0  0  0
  -22.2290   -4.7090   21.1930 F   0  0  0  0  0  0  0  0  0  0  0  0
  -21.4290   -4.1830   25.8710 F   0  0  0  0  0  0  0  0  0  0  0  0
  -23.3210  -13.9230   21.1230 C   0  0  0  0  0  0  0  0  0  0  0  0
  -22.6330  -13.2600   22.0450 N   0  0  0  0  0  0  0  0  0  0  0  0
  -22.9170  -14.9940   20.6730 O   0  0  0  0  0  0  0  0  0  0  0  0
  -22.9770  -12.3920   22.4290 H   0  0  0  0  0  0  0  0  0  0  0  0
  -21.7510  -13.6270   22.3740 H   0  0  0  0  0  0  0  0  0  0  0  0
  -25.9740  -15.4140   20.1000 N   0  0  0  0  0  0  0  0  0  0  0  0
  -25.2880  -16.1230   20.3360 H   0  0  0  0  0  0  0  0  0  0  0  0
  -26.8370  -15.8040   19.7410 H   0  0  0  0  0  0  0  0  0  0  0  0
  -28.8160  -23.7930   18.4950 C   0  0  0  0  0  2  0  0  0  0  0  0
  -28.7990  -25.5170   18.8530 O   0  0  0  0  0  0  0  0  0  0  0  0
  -24.7540  -31.0010   22.5360 C   0  0  0  0  0  0  0  0  0  0  0  0
  -27.7250  -26.6350   18.9080 C   0  0  0  0  0  0  0  0  0  0  0  0
  -23.6930  -29.7420   20.7090 C   0  0  0  0  0  3  0  0  0  0  0  0
  -25.2810  -28.4400   19.0990 C   0  0  0  0  0  0  0  0  0  0  0  0
  -26.2470  -30.1290   20.6390 C   0  0  0  0  0  2  0  0  0  0  0  0
  -26.4380  -28.8130   19.7930 C   0  0  0  0  0  0  0  0  0  0  0  0
  -27.6400  -27.9390   19.6720 C   0  0  0  0  0  3  0  0  0  0  0  0
  -26.5180  -26.4740   18.1810 C   0  0  0  0  0  3  0  0  0  0  0  0
  -25.3570  -27.3030   18.2730 C   0  0  0  0  0  3  0  0  0  0  0  0
  -23.9930  -29.2620   19.2590 C   0  0  0  0  0  2  0  0  0  0  0  0
  -24.9190  -30.3180   21.3510 N   0  0  0  0  0  0  0  0  0  0  0  0
  -23.6390  -31.1300   23.0710 O   0  0  0  0  0  0  0  0  0  0  0  0
  -23.0680  -28.5810   21.5310 C   0  0  0  0  0  0  0  0  0  0  0  0
  -21.7450  -28.3580   21.4050 N   0  0  0  0  0  0  0  0  0  0  0  0
  -23.7840  -27.8830   22.2520 O   0  0  0  0  0  0  0  0  0  0  0  0
  -21.2130  -28.9780   20.8100 H   0  0  0  0  0  0  0  0  0  0  0  0
  -18.4430  -26.9110   21.8570 C   0  0  0  0  0  0  0  0  0  0  0  0
  -21.0000  -27.2620   22.0380 C   0  0  0  0  0  3  0  0  0  0  0  0
  -21.1280  -25.9580   21.2180 C   0  0  0  0  0  2  0  0  0  0  0  0
  -19.9870  -25.7610   20.2150 C   0  0  0  0  0  2  0  0  0  0  0  0
  -18.6380  -25.7160   20.9390 C   0  0  0  0  0  2  0  0  0  0  0  0
  -19.5490  -27.6460   22.3600 C   0  0  0  0  0  0  0  0  0  0  0  0
  -19.3070  -28.7650   23.1870 C   0  0  0  0  0  3  0  0  0  0  0  0
  -17.9920  -29.1510   23.5080 C   0  0  0  0  0  3  0  0  0  0  0  0
  -16.9020  -28.4140   23.0170 C   0  0  0  0  0  3  0  0  0  0  0  0
  -17.1280  -27.2940   22.1980 C   0  0  0  0  0  3  0  0  0  0  0  0
  -25.9550  -31.6660   23.2750 C   0  0  0  0  0  3  0  0  0  0  0  0
  -25.4970  -32.9530   23.8330 N   0  0  0  0  0  0  0  0  0  0  0  0
  -25.7250  -34.1560   23.2880 C   0  0  0  0  0  0  0  0  0  0  0  0
  -26.4000  -34.3040   22.2660 O   0  0  0  0  0  0  0  0  0  0  0  0
  -24.8890  -32.9020   24.6370 H   0  0  0  0  0  0  0  0  0  0  0  0
  -23.8240  -35.8100   23.2580 C   0  0  0  0  0  1  0  0  0  0  0  0
  -25.1130  -35.3920   23.9840 C   0  0  0  0  0  3  0  0  0  0  0  0
  -27.1540  -36.3380   24.9690 C   0  0  0  0  0  1  0  0  0  0  0  0
  -26.0340  -36.5480   24.0570 N   0  0  0  0  0  0  0  0  0  0  0  0
  -25.5390  -37.3850   24.3490 H   0  0  0  0  0  0  0  0  0  0  0  0
  -26.5460  -30.7630   24.4290 C   0  0  1  0  0  0  0  0  0  0  0  0
  -25.4850  -30.2660   25.4390 C   0  0  0  0  0  1  0  0  0  0  0  0
  -27.2570  -29.5190   23.8530 C   0  0  0  0  0  1  0  0  0  0  0  0
  -27.6190  -31.5550   25.2150 C   0  0  0  0  0  1  0  0  0  0  0  0
  1  8  1  0
  2  1  2  0
  3  2  1  0
  3  4  1  0
  4  6  1  0
  4  8  1  0
  5  7  1  0
  5  3  2  0
  7  6  2  0
  9 15  1  0
  9  2  1  0
 10 15  1  0
 11 12  1  0
 11 10  1  0
 13 12  1  0
 13 20  1  0
 13 14  1  0
 15 14  1  0
 16  9  2  0
 17 18  2  0
 18 37  1  0
 19 18  1  0
 19 22  1  0
 20 21  1  0
 20 17  1  0
 21 19  2  0
 22 23  1  0
 23 24  2  0
 25 28  1  0
 25 24  1  0
 26 25  2  0
 27 26  1  0
 27 22  2  0
 28 29  1  0
 29 30  1  0
 30 31  2  0
 32 31  1  0
 32 36  1  0
 33 32  2  0
 34 29  2  0
 34 33  1  0
 35 34  1  0
 37 38  1  0
 38 41  1  0
 38 40  1  0
 39 37  2  0
 42 17  1  0
 42 43  1  0
 44 42  1  0
 45 46  1  0
 45  7  1  0
 46 48  1  0
 47 58  2  0
 48 53  1  0
 49 57  1  0
 49 59  1  0
 50 56  1  0
 50 52  1  0
 51 57  1  0
 52 51  1  0
 53 52  2  0
 54 55  1  0
 54 48  2  0
 55 50  2  0
 56 49  1  0
 57 47  1  0
 59 61  2  0
 60 59  1  0
 62 60  1  0
 63 72  2  0
 63 68  1  0
 64 60  1  0
 64 68  1  0
 65 64  1  0
 66 67  1  0
 66 65  1  0
 67 63  1  0
 68 69  2  0
 69 70  1  0
 71 70  2  0
 72 71  1  0
 73 47  1  0
 73 74  1  0
 73 83  1  0
 74 77  1  0
 75 74  1  0
 75 79  1  0
 76 75  2  0
 79 78  1  0
 79 81  1  0
 81 82  1  0
 81 80  1  0
 83 86  1  1
 83 84  1  0
 85 83  1  0
M  ISO  4   2 100   9 100  45 101  46 101
M  END
>  <TORSDO>  (53) 
F 17

>  <SCORE>  (53) 
-11.443

>  <name>  (53) 
52

>  <ligand_id>  (53) 
52

>  <original_smiles>  (53) 
[H]c1sc2c(c1C(=O)N1C([H])([H])C([H])([H])C([H])([H])C([H])(n3nc(-c4c([H])c([H])c(Oc5c([H])c([H])c(F)c([H])c5F)c([H])c4[H])c(C(=O)N([H])[H])c3N([H])[H])C1([H])[H])C([H])([H])C([H])(C([H])([H])Oc1c([H])c([H])c3c(c1[H])C([H])([H])N(C(=O)C([H])(N([H])C(=O)C([H])(N([H])C([H])([H])[H])C([H])([H])[H])C(C([H])([H])[H])(C([H])([H])[H])C([H])([H])[H])C([H])(C(=O)N([H])C1([H])c4c([H])c([H])c([H])c([H])c4C([H])([H])C([H])([H])C1([H])[H])C3([H])[H])C2([H])[H]

>  <smiles>  (53) 
[H]c1sc2c(c1C(=O)N1C([H])([H])C([H])([H])C([H])([H])C([H])(n3nc(-c4c([H])c([H])c(Oc5c([H])c([H])c(F)c([H])c5F)c([H])c4[H])c(C(=O)N([H])[H])c3N([H])[H])C1([H])[H])C([H])([H])C([H])(C([H])([H])Oc1c([H])c([H])c3c(c1[H])C([H])([H])N(C(=O)C([H])(N([H])C(=O)C([H])(N([H])C([H])([H])[H])C([H])([H])[H])C(C([H])([H])[H])(C([H])([H])[H])C([H])([H])[H])C([H])(C(=O)N([H])C1([H])c4c([H])c([H])c([H])c([H])c4C([H])([H])C([H])([H])C1([H])[H])C3([H])[H])C2([H])[H]

$$$$
53:0:0
     RDKit          3D

 92101  0  0  1  0  0  0  0  0999 V2000
  -29.0370  -20.1700   20.7850 C   0  0  0  0  0  0  0  0  0  0  0  0
  -29.1390  -21.5060   20.8230 N   0  0  0  0  0  0  0  0  0  0  0  0
  -28.0170  -19.5820   21.1460 O   0  0  0  0  0  0  0  0  0  0  0  0
  -30.0110  -21.8990   20.5020 H   0  0  0  0  0  0  0  0  0  0  0  0
  -32.9340  -19.3090   20.3730 C   0  0  0  0  0  2  0  0  0  0  0  0
  -30.6570  -18.1930   21.1570 C   0  0  0  0  0  3  0  0  0  0  0  0
  -30.2390  -19.3640   20.2440 C   0  0  0  0  0  3  0  0  0  0  0  0
  -31.9620  -18.9040   21.4610 C   0  0  0  0  0  3  0  0  0  0  0  0
  -31.5960  -20.0200   20.5060 C   0  0  0  0  0  3  0  0  0  0  0  0
  -30.6230  -15.6570   20.8290 C   0  0  0  0  0  3  0  0  0  0  0  0
  -30.9410  -16.9000   20.4220 C   0  0  0  0  0  3  0  0  0  0  0  0
  -31.1200  -14.5510   20.0230 C   0  0  0  0  0  0  0  0  0  0  0  0
  -30.6900  -12.3630   18.9830 C   0  0  0  0  0  2  0  0  0  0  0  0
  -29.7140  -12.5470   17.8040 C   0  0  0  0  0  2  0  0  0  0  0  0
  -28.2560  -12.4410   18.2900 C   0  0  0  0  0  2  0  0  0  0  0  0
  -27.9750  -13.3370   19.5240 C   0  0  0  0  0  3  0  0  0  0  0  0
  -29.0730  -13.1570   20.6000 C   0  0  0  0  0  2  0  0  0  0  0  0
  -30.3840  -13.4040   19.9810 N   0  0  0  0  0  0  0  0  0  0  0  0
  -32.1560  -14.6700   19.3670 O   0  0  0  0  0  0  0  0  0  0  0  0
  -25.6320  -13.9880   20.3810 C   0  0  0  0  0  0  0  0  0  0  0  0
  -24.5670  -13.2330   20.7930 C   0  0  0  0  0  0  0  0  0  0  0  0
  -24.9900  -11.8720   20.7020 C   0  0  0  0  0  0  0  0  0  0  0  0
  -26.6420  -13.0870   20.0720 N   0  0  0  0  0  0  0  0  0  0  0  0
  -26.2600  -11.8060   20.3200 N   0  0  0  0  0  0  0  0  0  0  0  0
  -24.2410  -10.6220   20.9060 C   0  0  0  0  0  0  0  0  0  0  0  0
  -24.6420   -9.6670   21.8660 C   0  0  0  0  0  3  0  0  0  0  0  0
  -23.8970   -8.4820   22.0520 C   0  0  0  0  0  3  0  0  0  0  0  0
  -22.7340   -8.2480   21.2810 C   0  0  0  0  0  0  0  0  0  0  0  0
  -22.3550   -9.1880   20.3080 C   0  0  0  0  0  3  0  0  0  0  0  0
  -23.1010  -10.3640   20.1200 C   0  0  0  0  0  3  0  0  0  0  0  0
  -21.9630   -7.1150   21.3760 O   0  0  0  0  0  0  0  0  0  0  0  0
  -21.8130   -6.4430   22.5620 C   0  0  0  0  0  0  0  0  0  0  0  0
  -21.2370   -7.0540   23.6980 C   0  0  0  0  0  3  0  0  0  0  0  0
  -21.0380   -6.3070   24.8750 C   0  0  0  0  0  3  0  0  0  0  0  0
  -21.4050   -4.9480   24.9180 C   0  0  0  0  0  0  0  0  0  0  0  0
  -21.9760   -4.3380   23.7880 C   0  0  0  0  0  3  0  0  0  0  0  0
  -22.1770   -5.0810   22.6130 C   0  0  0  0  0  0  0  0  0  0  0  0
  -22.7060   -4.4840   21.5190 F   0  0  0  0  0  0  0  0  0  0  0  0
  -21.2090   -4.2280   26.0460 F   0  0  0  0  0  0  0  0  0  0  0  0
  -23.1980  -13.7360   21.1560 C   0  0  0  0  0  0  0  0  0  0  0  0
  -22.5030  -13.0350   22.0470 N   0  0  0  0  0  0  0  0  0  0  0  0
  -22.7560  -14.7840   20.6900 O   0  0  0  0  0  0  0  0  0  0  0  0
  -22.8710  -12.1850   22.4450 H   0  0  0  0  0  0  0  0  0  0  0  0
  -21.5880  -13.3590   22.3350 H   0  0  0  0  0  0  0  0  0  0  0  0
  -25.8240  -15.3580   20.2270 N   0  0  0  0  0  0  0  0  0  0  0  0
  -25.0970  -16.0390   20.4150 H   0  0  0  0  0  0  0  0  0  0  0  0
  -26.6820  -15.7760   19.8940 H   0  0  0  0  0  0  0  0  0  0  0  0
  -28.1210  -22.4430   21.3070 C   0  0  0  0  0  2  0  0  0  0  0  0
  -27.9910  -23.6560   20.3630 C   0  0  0  0  0  2  0  0  0  0  0  0
  -28.7270  -24.9260   20.8330 C   0  0  0  0  0  2  0  0  0  0  0  0
  -29.1710  -25.8320   19.6670 C   0  0  0  0  0  2  0  0  0  0  0  0
  -29.0360  -27.2120   20.0030 O   0  0  0  0  0  0  0  0  0  0  0  0
  -24.7980  -31.7760   23.3940 C   0  0  0  0  0  0  0  0  0  0  0  0
  -27.7830  -27.7870   20.0340 C   0  0  0  0  0  0  0  0  0  0  0  0
  -23.7130  -30.4450   21.6190 C   0  0  0  0  0  3  0  0  0  0  0  0
  -25.2860  -29.1090   20.1210 C   0  0  0  0  0  0  0  0  0  0  0  0
  -26.2180  -30.9730   21.5100 C   0  0  0  0  0  2  0  0  0  0  0  0
  -26.3950  -29.6690   20.7610 C   0  0  0  0  0  0  0  0  0  0  0  0
  -27.6460  -29.0200   20.7060 C   0  0  0  0  0  3  0  0  0  0  0  0
  -26.6400  -27.2200   19.4170 C   0  0  0  0  0  3  0  0  0  0  0  0
  -25.3980  -27.8800   19.4510 C   0  0  0  0  0  3  0  0  0  0  0  0
  -23.9900  -29.8840   20.1980 C   0  0  0  0  0  2  0  0  0  0  0  0
  -24.9250  -31.0790   22.2300 N   0  0  0  0  0  0  0  0  0  0  0  0
  -23.6930  -31.9410   23.9290 O   0  0  0  0  0  0  0  0  0  0  0  0
  -23.1070  -29.3150   22.4820 C   0  0  0  0  0  0  0  0  0  0  0  0
  -21.8120  -29.0310   22.2800 N   0  0  0  0  0  0  0  0  0  0  0  0
  -23.8060  -28.6950   23.2880 O   0  0  0  0  0  0  0  0  0  0  0  0
  -21.3050  -29.5900   21.6080 H   0  0  0  0  0  0  0  0  0  0  0  0
  -18.5370  -27.5310   22.5280 C   0  0  0  0  0  0  0  0  0  0  0  0
  -21.0490  -27.9790   22.9480 C   0  0  0  0  0  3  0  0  0  0  0  0
  -21.3040  -26.6060   22.2880 C   0  0  0  0  0  2  0  0  0  0  0  0
  -20.2790  -26.2560   21.2050 C   0  0  0  0  0  2  0  0  0  0  0  0
  -18.8610  -26.2440   21.7830 C   0  0  0  0  0  2  0  0  0  0  0  0
  -19.5660  -28.3500   23.0620 C   0  0  0  0  0  0  0  0  0  0  0  0
  -19.2150  -29.5500   23.7170 C   0  0  0  0  0  3  0  0  0  0  0  0
  -17.8680  -29.9320   23.8460 C   0  0  0  0  0  3  0  0  0  0  0  0
  -16.8510  -29.1110   23.3310 C   0  0  0  0  0  3  0  0  0  0  0  0
  -17.1860  -27.9140   22.6750 C   0  0  0  0  0  3  0  0  0  0  0  0
  -26.0360  -32.4250   24.0930 C   0  0  0  0  0  3  0  0  0  0  0  0
  -25.6910  -33.8220   24.3940 N   0  0  0  0  0  0  0  0  0  0  0  0
  -26.0560  -34.8730   23.6490 C   0  0  0  0  0  0  0  0  0  0  0  0
  -26.7950  -34.7700   22.6660 O   0  0  0  0  0  0  0  0  0  0  0  0
  -25.0470  -33.9730   25.1580 H   0  0  0  0  0  0  0  0  0  0  0  0
  -24.3380  -36.6360   23.1560 C   0  0  0  0  0  1  0  0  0  0  0  0
  -25.5200  -36.2560   24.0610 C   0  0  0  0  0  3  0  0  0  0  0  0
  -27.5730  -37.1850   25.0410 C   0  0  0  0  0  1  0  0  0  0  0  0
  -26.5440  -37.3220   24.0120 N   0  0  0  0  0  0  0  0  0  0  0  0
  -26.1180  -38.2400   24.1050 H   0  0  0  0  0  0  0  0  0  0  0  0
  -26.4740  -31.6610   25.4020 C   0  0  1  0  0  0  0  0  0  0  0  0
  -25.3150  -31.3900   26.3910 C   0  0  0  0  0  1  0  0  0  0  0  0
  -27.1120  -30.2990   25.0460 C   0  0  0  0  0  1  0  0  0  0  0  0
  -27.5590  -32.4710   26.1410 C   0  0  0  0  0  1  0  0  0  0  0  0
  1  2  1  0
  1  3  2  0
  2 48  1  0
  4  2  1  0
  6 11  1  0
  6  8  1  0
  7  9  1  0
  7  1  1  0
  7  6  1  0
  8  5  1  0
  9  5  1  0
  9  8  1  0
 11 10  2  0
 12 10  1  0
 13 18  1  0
 14 15  1  0
 14 13  1  0
 16 15  1  0
 16 23  1  0
 16 17  1  0
 18 12  1  0
 18 17  1  0
 19 12  2  0
 20 21  2  0
 21 40  1  0
 22 21  1  0
 22 25  1  0
 23 24  1  0
 23 20  1  0
 24 22  2  0
 25 26  1  0
 26 27  2  0
 28 31  1  0
 28 27  1  0
 29 28  2  0
 30 29  1  0
 30 25  2  0
 31 32  1  0
 32 37  2  0
 32 33  1  0
 33 34  2  0
 34 35  1  0
 35 39  1  0
 36 35  2  0
 37 36  1  0
 38 37  1  0
 40 41  1  0
 41 44  1  0
 41 43  1  0
 42 40  2  0
 45 20  1  0
 45 46  1  0
 47 45  1  0
 49 50  1  0
 49 48  1  0
 51 52  1  0
 51 50  1  0
 52 54  1  0
 53 64  2  0
 54 59  1  0
 55 63  1  0
 55 65  1  0
 56 62  1  0
 56 58  1  0
 57 63  1  0
 58 57  1  0
 59 58  2  0
 60 61  1  0
 60 54  2  0
 61 56  2  0
 62 55  1  0
 63 53  1  0
 65 67  2  0
 66 65  1  0
 68 66  1  0
 69 78  2  0
 69 74  1  0
 70 66  1  0
 70 74  1  0
 71 70  1  0
 72 73  1  0
 72 71  1  0
 73 69  1  0
 74 75  2  0
 75 76  1  0
 77 76  2  0
 78 77  1  0
 79 53  1  0
 79 80  1  0
 79 89  1  0
 80 83  1  0
 81 85  1  0
 81 80  1  0
 82 81  2  0
 85 84  1  0
 87 85  1  0
 87 88  1  0
 87 86  1  0
 89 92  1  1
 89 90  1  0
 91 89  1  0
M  ISO  4  10 100  12 100  51 101  52 101
M  END
>  <TORSDO>  (54) 
F 22

>  <SCORE>  (54) 
-12.108

>  <name>  (54) 
53

>  <ligand_id>  (54) 
53

>  <original_smiles>  (54) 
[H]C(C(=O)N1C([H])([H])C([H])([H])C([H])([H])C([H])(n2nc(-c3c([H])c([H])c(Oc4c([H])c([H])c(F)c([H])c4F)c([H])c3[H])c(C(=O)N([H])[H])c2N([H])[H])C1([H])[H])=C([H])C1([H])C([H])(C(=O)N([H])C([H])([H])C([H])([H])C([H])([H])C([H])([H])Oc2c([H])c([H])c3c(c2[H])C([H])([H])N(C(=O)C([H])(N([H])C(=O)C([H])(N([H])C([H])([H])[H])C([H])([H])[H])C(C([H])([H])[H])(C([H])([H])[H])C([H])([H])[H])C([H])(C(=O)N([H])C2([H])c4c([H])c([H])c([H])c([H])c4C([H])([H])C([H])([H])C2([H])[H])C3([H])[H])C2([H])C([H])([H])C12[H]

>  <smiles>  (54) 
[H]C(C(=O)N1C([H])([H])C([H])([H])C([H])([H])C([H])(n2nc(-c3c([H])c([H])c(Oc4c([H])c([H])c(F)c([H])c4F)c([H])c3[H])c(C(=O)N([H])[H])c2N([H])[H])C1([H])[H])=C([H])C1([H])C([H])(C(=O)N([H])C([H])([H])C([H])([H])C([H])([H])C([H])([H])Oc2c([H])c([H])c3c(c2[H])C([H])([H])N(C(=O)C([H])(N([H])C(=O)C([H])(N([H])C([H])([H])[H])C([H])([H])[H])C(C([H])([H])[H])(C([H])([H])[H])C([H])([H])[H])C([H])(C(=O)N([H])C2([H])c4c([H])c([H])c([H])c([H])c4C([H])([H])C([H])([H])C2([H])[H])C3([H])[H])C2([H])C([H])([H])C12[H]

$$$$
54:0:0
     RDKit          3D

 93102  0  0  1  0  0  0  0  0999 V2000
  -29.5500  -20.4240   20.1060 C   0  0  0  0  0  3  0  0  0  0  0  0
  -29.0820  -20.2980   15.6400 C   0  0  0  0  0  2  0  0  0  0  0  0
  -31.0860  -20.1150   16.0100 C   0  0  0  0  0  2  0  0  0  0  0  0
  -29.6430  -19.0370   17.8650 C   0  0  0  0  0  2  0  0  0  0  0  0
  -29.8550  -21.5720   17.7760 C   0  0  0  0  0  2  0  0  0  0  0  0
  -29.8950  -19.2080   16.3590 C   0  0  0  0  0  3  0  0  0  0  0  0
  -30.0950  -21.2520   16.2950 C   0  0  0  0  0  3  0  0  0  0  0  0
  -29.2440  -20.3720   18.5680 C   0  0  0  0  0  3  0  0  0  0  0  0
  -29.3000  -19.0350   20.8500 N   0  0  0  0  0  4  0  0  0  0  0  0
  -29.2980  -19.2540   21.8340 H   0  0  0  0  0  0  0  0  0  0  0  0
  -28.3540  -18.7680   20.6360 H   0  0  0  0  0  0  0  0  0  0  0  0
  -30.2090  -17.7340   20.7290 C   0  0  0  0  0  3  0  0  0  0  0  0
  -29.7990  -16.2410   21.3820 C   0  0  0  0  0  3  0  0  0  0  0  0
  -30.6300  -14.8260   21.1560 C   0  0  0  0  0  0  0  0  0  0  0  0
  -30.5920  -12.4480   20.2750 C   0  0  0  0  0  2  0  0  0  0  0  0
  -29.8120  -12.4130   18.9380 C   0  0  0  0  0  2  0  0  0  0  0  0
  -28.3010  -12.2520   19.1900 C   0  0  0  0  0  2  0  0  0  0  0  0
  -27.7830  -13.2080   20.2920 C   0  0  0  0  0  3  0  0  0  0  0  0
  -28.6920  -13.2120   21.5390 C   0  0  0  0  0  2  0  0  0  0  0  0
  -30.0460  -13.5630   21.0960 N   0  0  0  0  0  0  0  0  0  0  0  0
  -31.8460  -14.8820   20.9390 O   0  0  0  0  0  0  0  0  0  0  0  0
  -25.3490  -13.8630   20.7470 C   0  0  0  0  0  0  0  0  0  0  0  0
  -24.2260  -13.1220   20.9940 C   0  0  0  0  0  0  0  0  0  0  0  0
  -24.6500  -11.7570   21.0200 C   0  0  0  0  0  0  0  0  0  0  0  0
  -26.3860  -12.9540   20.6290 N   0  0  0  0  0  0  0  0  0  0  0  0
  -25.9670  -11.6830   20.8620 N   0  0  0  0  0  0  0  0  0  0  0  0
  -23.8700  -10.5180   21.1270 C   0  0  0  0  0  0  0  0  0  0  0  0
  -24.1820   -9.5270   22.0840 C   0  0  0  0  0  3  0  0  0  0  0  0
  -23.4040   -8.3530   22.1800 C   0  0  0  0  0  3  0  0  0  0  0  0
  -22.2990   -8.1620   21.3150 C   0  0  0  0  0  0  0  0  0  0  0  0
  -22.0070   -9.1400   20.3490 C   0  0  0  0  0  3  0  0  0  0  0  0
  -22.7860  -10.3060   20.2520 C   0  0  0  0  0  3  0  0  0  0  0  0
  -21.5040   -7.0410   21.3160 O   0  0  0  0  0  0  0  0  0  0  0  0
  -21.3500   -6.2700   22.4410 C   0  0  0  0  0  0  0  0  0  0  0  0
  -20.8370   -6.8030   23.6430 C   0  0  0  0  0  3  0  0  0  0  0  0
  -20.6290   -5.9610   24.7530 C   0  0  0  0  0  3  0  0  0  0  0  0
  -20.9260   -4.5870   24.6610 C   0  0  0  0  0  0  0  0  0  0  0  0
  -21.4320   -4.0540   23.4620 C   0  0  0  0  0  3  0  0  0  0  0  0
  -21.6400   -4.8930   22.3540 C   0  0  0  0  0  0  0  0  0  0  0  0
  -22.1090   -4.3710   21.1950 F   0  0  0  0  0  0  0  0  0  0  0  0
  -20.7200   -3.7760   25.7240 F   0  0  0  0  0  0  0  0  0  0  0  0
  -22.8210  -13.6410   21.0990 C   0  0  0  0  0  0  0  0  0  0  0  0
  -21.9810  -12.9760   21.8830 N   0  0  0  0  0  0  0  0  0  0  0  0
  -22.4740  -14.6700   20.5210 O   0  0  0  0  0  0  0  0  0  0  0  0
  -22.2750  -12.1410   22.3690 H   0  0  0  0  0  0  0  0  0  0  0  0
  -21.0330  -13.3040   21.9990 H   0  0  0  0  0  0  0  0  0  0  0  0
  -25.5730  -15.2280   20.5910 N   0  0  0  0  0  0  0  0  0  0  0  0
  -24.8200  -15.9070   20.6110 H   0  0  0  0  0  0  0  0  0  0  0  0
  -26.4640  -15.6310   20.3350 H   0  0  0  0  0  0  0  0  0  0  0  0
  -29.0340  -21.8740   20.8060 C   0  0  0  0  0  2  0  0  0  0  0  0
  -28.0810  -23.1760   20.2940 C   0  0  0  0  0  2  0  0  0  0  0  0
  -28.5000  -24.6300   19.5830 C   0  0  0  0  0  2  0  0  0  0  0  0
  -28.3490  -26.0690   20.1200 O   0  0  0  0  0  0  0  0  0  0  0  0
  -24.5270  -31.5640   23.0470 C   0  0  0  0  0  0  0  0  0  0  0  0
  -27.2420  -26.9670   19.9930 C   0  0  0  0  0  0  0  0  0  0  0  0
  -23.3800  -30.1780   21.3580 C   0  0  0  0  0  3  0  0  0  0  0  0
  -24.8780  -28.6450   19.9370 C   0  0  0  0  0  0  0  0  0  0  0  0
  -25.9280  -30.4900   21.2460 C   0  0  0  0  0  2  0  0  0  0  0  0
  -26.0310  -29.1130   20.5770 C   0  0  0  0  0  0  0  0  0  0  0  0
  -27.2090  -28.2870   20.5900 C   0  0  0  0  0  3  0  0  0  0  0  0
  -26.0630  -26.5830   19.3190 C   0  0  0  0  0  3  0  0  0  0  0  0
  -24.9050  -27.3950   19.2950 C   0  0  0  0  0  3  0  0  0  0  0  0
  -23.6350  -29.5190   19.9740 C   0  0  0  0  0  2  0  0  0  0  0  0
  -24.6300  -30.7650   21.9400 N   0  0  0  0  0  0  0  0  0  0  0  0
  -23.4280  -31.8260   23.5580 O   0  0  0  0  0  0  0  0  0  0  0  0
  -22.6950  -29.1490   22.2910 C   0  0  0  0  0  0  0  0  0  0  0  0
  -21.3640  -28.9990   22.1660 N   0  0  0  0  0  0  0  0  0  0  0  0
  -23.3630  -28.4890   23.0900 O   0  0  0  0  0  0  0  0  0  0  0  0
  -20.8840  -29.5820   21.4940 H   0  0  0  0  0  0  0  0  0  0  0  0
  -17.9650  -27.8660   22.6800 C   0  0  0  0  0  0  0  0  0  0  0  0
  -20.5350  -28.0490   22.9090 C   0  0  0  0  0  3  0  0  0  0  0  0
  -20.5880  -26.6430   22.2670 C   0  0  0  0  0  2  0  0  0  0  0  0
  -19.4580  -26.3970   21.2620 C   0  0  0  0  0  2  0  0  0  0  0  0
  -18.0930  -26.5450   21.9380 C   0  0  0  0  0  2  0  0  0  0  0  0
  -19.1110  -28.5780   23.1230 C   0  0  0  0  0  0  0  0  0  0  0  0
  -18.9340  -29.8150   23.7820 C   0  0  0  0  0  3  0  0  0  0  0  0
  -17.6470  -30.3400   23.9950 C   0  0  0  0  0  3  0  0  0  0  0  0
  -16.5160  -29.6240   23.5680 C   0  0  0  0  0  3  0  0  0  0  0  0
  -16.6760  -28.3870   22.9170 C   0  0  0  0  0  3  0  0  0  0  0  0
  -25.7860  -32.2020   23.7110 C   0  0  0  0  0  3  0  0  0  0  0  0
  -25.4460  -33.5900   24.0690 N   0  0  0  0  0  0  0  0  0  0  0  0
  -25.8020  -34.6700   23.3620 C   0  0  0  0  0  0  0  0  0  0  0  0
  -26.5180  -34.6060   22.3590 O   0  0  0  0  0  0  0  0  0  0  0  0
  -24.8030  -33.7130   24.8380 H   0  0  0  0  0  0  0  0  0  0  0  0
  -24.0780  -36.4690   22.9950 C   0  0  0  0  0  1  0  0  0  0  0  0
  -25.2860  -36.0410   23.8440 C   0  0  0  0  0  3  0  0  0  0  0  0
  -27.3750  -36.9130   24.7980 C   0  0  0  0  0  1  0  0  0  0  0  0
  -26.3150  -37.1030   23.8110 N   0  0  0  0  0  0  0  0  0  0  0  0
  -25.8950  -38.0160   23.9680 H   0  0  0  0  0  0  0  0  0  0  0  0
  -26.2840  -31.4120   24.9830 C   0  0  1  0  0  0  0  0  0  0  0  0
  -25.1750  -31.1430   26.0270 C   0  0  0  0  0  1  0  0  0  0  0  0
  -26.8880  -30.0460   24.5810 C   0  0  0  0  0  1  0  0  0  0  0  0
  -27.4150  -32.2030   25.6820 C   0  0  0  0  0  1  0  0  0  0  0  0
  1 50  1  0
  1  9  1  0
  3  7  1  0
  3  6  1  0
  4  8  1  0
  5  8  1  0
  6  2  1  0
  6  4  1  0
  7  2  1  0
  7  5  1  0
  8  1  1  0
  9 10  1  0
 11  9  1  0
 12  9  1  0
 12 13  2  0
 14 13  1  0
 15 20  1  0
 16 17  1  0
 16 15  1  0
 18 17  1  0
 18 25  1  0
 18 19  1  0
 20 14  1  0
 20 19  1  0
 21 14  2  0
 22 23  2  0
 23 24  1  0
 23 42  1  0
 24 27  1  0
 25 22  1  0
 25 26  1  0
 26 24  2  0
 27 28  1  0
 28 29  2  0
 30 33  1  0
 30 29  1  0
 31 30  2  0
 32 31  1  0
 32 27  2  0
 33 34  1  0
 34 35  1  0
 35 36  2  0
 37 36  1  0
 37 41  1  0
 38 37  2  0
 39 34  2  0
 39 38  1  0
 40 39  1  0
 42 43  1  0
 43 46  1  0
 43 45  1  0
 44 42  2  0
 47 48  1  0
 47 22  1  0
 49 47  1  0
 51 50  1  0
 52 53  1  0
 52 51  1  0
 54 65  2  0
 55 53  1  0
 55 60  1  0
 56 64  1  0
 56 66  1  0
 57 63  1  0
 57 59  1  0
 58 64  1  0
 59 60  2  0
 59 58  1  0
 61 55  2  0
 62 61  1  0
 62 57  2  0
 63 56  1  0
 64 54  1  0
 66 68  2  0
 67 66  1  0
 69 67  1  0
 70 79  2  0
 70 75  1  0
 71 67  1  0
 71 75  1  0
 72 71  1  0
 73 74  1  0
 73 72  1  0
 74 70  1  0
 75 76  2  0
 76 77  1  0
 78 77  2  0
 79 78  1  0
 80 54  1  0
 80 81  1  0
 80 90  1  0
 81 84  1  0
 82 86  1  0
 82 81  1  0
 83 82  2  0
 86 85  1  0
 88 86  1  0
 88 89  1  0
 88 87  1  0
 90 93  1  1
 90 91  1  0
 92 90  1  0
M  ISO  4  13 100  14 100  52 101  53 101
M  END
>  <TORSDO>  (55) 
F 23

>  <SCORE>  (55) 
-11.954

>  <name>  (55) 
54

>  <ligand_id>  (55) 
54

>  <original_smiles>  (55) 
[H]c1c([H])c([H])c2c(c1[H])C([H])([H])C([H])([H])C([H])([H])C2([H])N([H])C(=O)C1([H])N(C(=O)C([H])(N([H])C(=O)C([H])(N([H])C([H])([H])[H])C([H])([H])[H])C(C([H])([H])[H])(C([H])([H])[H])C([H])([H])[H])C([H])([H])c2c([H])c(OC([H])([H])C([H])([H])C([H])([H])C([H])(C3([H])C([H])([H])C4([H])C([H])([H])C([H])(C4([H])[H])C3([H])[H])[N+]([H])([H])C([H])([H])C([H])([H])C(=O)N3C([H])([H])C([H])([H])C([H])([H])C([H])(n4nc(-c5c([H])c([H])c(Oc6c([H])c([H])c(F)c([H])c6F)c([H])c5[H])c(C(=O)N([H])[H])c4N([H])[H])C3([H])[H])c([H])c([H])c2C1([H])[H]

>  <smiles>  (55) 
[H]c1c([H])c([H])c2c(c1[H])C([H])([H])C([H])([H])C([H])([H])C2([H])N([H])C(=O)C1([H])N(C(=O)C([H])(N([H])C(=O)C([H])(N([H])C([H])([H])[H])C([H])([H])[H])C(C([H])([H])[H])(C([H])([H])[H])C([H])([H])[H])C([H])([H])c2c([H])c(OC([H])([H])C([H])([H])C([H])([H])C([H])(C3([H])C([H])([H])C4([H])C([H])([H])C([H])(C4([H])[H])C3([H])[H])[N+]([H])([H])C([H])([H])C([H])([H])C(=O)N3C([H])([H])C([H])([H])C([H])([H])C([H])(n4nc(-c5c([H])c([H])c(Oc6c([H])c([H])c(F)c([H])c6F)c([H])c5[H])c(C(=O)N([H])[H])c4N([H])[H])C3([H])[H])c([H])c([H])c2C1([H])[H]

$$$$
55:0:0
     RDKit          3D

 93103  0  0  1  0  0  0  0  0999 V2000
  -29.1670  -16.4170   19.0320 C   0  0  0  0  0  3  0  0  0  0  0  0
  -28.7320  -17.6850   18.5730 C   0  0  0  0  0  3  0  0  0  0  0  0
  -30.3900  -17.4910   20.8130 C   0  0  0  0  0  3  0  0  0  0  0  0
  -30.0130  -16.2610   20.1580 C   0  0  0  0  0  0  0  0  0  0  0  0
  -29.1470  -18.8840   19.1950 C   0  0  0  0  0  0  0  0  0  0  0  0
  -29.9580  -18.7920   20.3470 C   0  0  0  0  0  0  0  0  0  0  0  0
  -28.8020  -20.2590   18.5490 C   0  0  0  0  0  2  0  0  0  0  0  0
  -29.5540  -20.9400   21.8590 C   0  0  0  0  0  2  0  0  0  0  0  0
  -28.4090  -21.7850   21.1970 C   0  0  0  0  0  2  0  0  0  0  0  0
  -30.8170  -21.0950   19.7320 C   0  0  0  0  0  2  0  0  0  0  0  0
  -30.4890  -20.1380   20.8990 C   0  0  0  0  0  3  0  0  0  0  0  0
  -28.7220  -22.4570   19.8180 C   0  0  0  0  0  3  0  0  0  0  0  0
  -29.5600  -21.4760   19.0310 N   0  0  2  0  0  4  0  0  0  0  0  0
  -29.8320  -21.9570   18.1880 H   0  0  0  0  0  0  0  0  0  0  0  0
  -30.7290  -14.8980   20.3930 C   0  0  0  0  0  0  0  0  0  0  0  0
  -30.5160  -12.5880   19.5150 C   0  0  0  0  0  2  0  0  0  0  0  0
  -29.6090  -12.5970   18.2670 C   0  0  0  0  0  2  0  0  0  0  0  0
  -28.1300  -12.4350   18.6720 C   0  0  0  0  0  2  0  0  0  0  0  0
  -27.7150  -13.3740   19.8360 C   0  0  0  0  0  3  0  0  0  0  0  0
  -28.7570  -13.3980   20.9720 C   0  0  0  0  0  2  0  0  0  0  0  0
  -30.0680  -13.6930   20.3880 N   0  0  0  0  0  0  0  0  0  0  0  0
  -31.9510  -14.9270   20.2440 O   0  0  0  0  0  0  0  0  0  0  0  0
  -25.3300  -13.9660   20.5630 C   0  0  0  0  0  0  0  0  0  0  0  0
  -24.2580  -13.1910   20.9100 C   0  0  0  0  0  0  0  0  0  0  0  0
  -24.7180  -11.8390   20.8680 C   0  0  0  0  0  0  0  0  0  0  0  0
  -26.3710  -13.0840   20.3230 N   0  0  0  0  0  0  0  0  0  0  0  0
  -26.0120  -11.8000   20.5730 N   0  0  0  0  0  0  0  0  0  0  0  0
  -23.9870  -10.5760   21.0310 C   0  0  0  0  0  0  0  0  0  0  0  0
  -24.3960   -9.6030   21.9700 C   0  0  0  0  0  3  0  0  0  0  0  0
  -23.6650   -8.4050   22.1220 C   0  0  0  0  0  3  0  0  0  0  0  0
  -22.5120   -8.1720   21.3360 C   0  0  0  0  0  0  0  0  0  0  0  0
  -22.1240   -9.1350   20.3870 C   0  0  0  0  0  3  0  0  0  0  0  0
  -22.8550  -10.3230   20.2320 C   0  0  0  0  0  3  0  0  0  0  0  0
  -21.7540   -7.0280   21.3980 O   0  0  0  0  0  0  0  0  0  0  0  0
  -21.6520   -6.2950   22.5530 C   0  0  0  0  0  0  0  0  0  0  0  0
  -21.1440   -6.8530   23.7470 C   0  0  0  0  0  3  0  0  0  0  0  0
  -20.9910   -6.0450   24.8920 C   0  0  0  0  0  3  0  0  0  0  0  0
  -21.3360   -4.6810   24.8430 C   0  0  0  0  0  0  0  0  0  0  0  0
  -21.8350   -4.1230   23.6530 C   0  0  0  0  0  3  0  0  0  0  0  0
  -21.9900   -4.9270   22.5120 C   0  0  0  0  0  0  0  0  0  0  0  0
  -22.4530   -4.3800   21.3610 F   0  0  0  0  0  0  0  0  0  0  0  0
  -21.1810   -3.9020   25.9390 F   0  0  0  0  0  0  0  0  0  0  0  0
  -22.8600  -13.6680   21.1700 C   0  0  0  0  0  0  0  0  0  0  0  0
  -22.1220  -12.9670   22.0240 N   0  0  0  0  0  0  0  0  0  0  0  0
  -22.4290  -14.6970   20.6510 O   0  0  0  0  0  0  0  0  0  0  0  0
  -22.4830  -12.1340   22.4640 H   0  0  0  0  0  0  0  0  0  0  0  0
  -21.1830  -13.2690   22.2430 H   0  0  0  0  0  0  0  0  0  0  0  0
  -25.5040  -15.3380   20.4070 N   0  0  0  0  0  0  0  0  0  0  0  0
  -24.7460  -16.0000   20.5310 H   0  0  0  0  0  0  0  0  0  0  0  0
  -26.3750  -15.7780   20.1340 H   0  0  0  0  0  0  0  0  0  0  0  0
  -29.1990  -24.0010   19.8350 C   0  0  0  0  0  3  0  0  0  0  0  0
  -28.0690  -25.1220   19.6580 C   0  0  0  0  0  3  0  0  0  0  0  0
  -28.3280  -26.5840   19.8090 O   0  0  0  0  0  0  0  0  0  0  0  0
  -24.6480  -31.8540   23.1460 C   0  0  0  0  0  0  0  0  0  0  0  0
  -27.2100  -27.4470   19.8210 C   0  0  0  0  0  0  0  0  0  0  0  0
  -23.4110  -30.5230   21.4770 C   0  0  0  0  0  3  0  0  0  0  0  0
  -24.8350  -29.0520   19.9460 C   0  0  0  0  0  0  0  0  0  0  0  0
  -25.9470  -30.8660   21.2450 C   0  0  0  0  0  2  0  0  0  0  0  0
  -26.0190  -29.5190   20.5320 C   0  0  0  0  0  0  0  0  0  0  0  0
  -27.2100  -28.7300   20.4590 C   0  0  0  0  0  3  0  0  0  0  0  0
  -25.9960  -27.0450   19.2120 C   0  0  0  0  0  3  0  0  0  0  0  0
  -24.8270  -27.8210   19.2770 C   0  0  0  0  0  3  0  0  0  0  0  0
  -23.5940  -29.9130   20.0630 C   0  0  0  0  0  2  0  0  0  0  0  0
  -24.6890  -31.0960   22.0110 N   0  0  0  0  0  0  0  0  0  0  0  0
  -23.5770  -32.0980   23.7190 O   0  0  0  0  0  0  0  0  0  0  0  0
  -22.7810  -29.4570   22.4060 C   0  0  0  0  0  0  0  0  0  0  0  0
  -21.4540  -29.2730   22.3050 N   0  0  0  0  0  0  0  0  0  0  0  0
  -23.4860  -28.8010   23.1780 O   0  0  0  0  0  0  0  0  0  0  0  0
  -20.9440  -29.8560   21.6560 H   0  0  0  0  0  0  0  0  0  0  0  0
  -18.0980  -28.0300   22.8380 C   0  0  0  0  0  0  0  0  0  0  0  0
  -20.6620  -28.2970   23.0540 C   0  0  0  0  0  3  0  0  0  0  0  0
  -20.7580  -26.8930   22.4140 C   0  0  0  0  0  2  0  0  0  0  0  0
  -19.6330  -26.6060   21.4160 C   0  0  0  0  0  2  0  0  0  0  0  0
  -18.2670  -26.7130   22.0990 C   0  0  0  0  0  2  0  0  0  0  0  0
  -19.2230  -28.7810   23.2730 C   0  0  0  0  0  0  0  0  0  0  0  0
  -19.0110  -30.0150   23.9240 C   0  0  0  0  0  3  0  0  0  0  0  0
  -17.7070  -30.4980   24.1460 C   0  0  0  0  0  3  0  0  0  0  0  0
  -16.5980  -29.7440   23.7260 C   0  0  0  0  0  3  0  0  0  0  0  0
  -16.7950  -28.5110   23.0790 C   0  0  0  0  0  3  0  0  0  0  0  0
  -25.9410  -32.4700   23.7630 C   0  0  0  0  0  3  0  0  0  0  0  0
  -25.6360  -33.8570   24.1430 N   0  0  0  0  0  0  0  0  0  0  0  0
  -25.9260  -34.9320   23.4010 C   0  0  0  0  0  0  0  0  0  0  0  0
  -26.5500  -34.8630   22.3390 O   0  0  0  0  0  0  0  0  0  0  0  0
  -25.0780  -33.9850   24.9750 H   0  0  0  0  0  0  0  0  0  0  0  0
  -24.1620  -36.7130   23.1830 C   0  0  0  0  0  1  0  0  0  0  0  0
  -25.4480  -36.3040   23.9180 C   0  0  0  0  0  3  0  0  0  0  0  0
  -27.6110  -37.1950   24.6620 C   0  0  0  0  0  1  0  0  0  0  0  0
  -26.4620  -37.3710   23.7780 N   0  0  0  0  0  0  0  0  0  0  0  0
  -26.0530  -38.2830   23.9650 H   0  0  0  0  0  0  0  0  0  0  0  0
  -26.4830  -31.6600   25.0040 C   0  0  1  0  0  0  0  0  0  0  0  0
  -25.4110  -31.3920   26.0870 C   0  0  0  0  0  1  0  0  0  0  0  0
  -27.0550  -30.2940   24.5600 C   0  0  0  0  0  1  0  0  0  0  0  0
  -27.6480  -32.4330   25.6660 C   0  0  0  0  0  1  0  0  0  0  0  0
  1  4  1  0
  2  1  2  0
  2  5  1  0
  4 15  1  0
  4  3  2  0
  5  6  2  0
  6  3  1  0
  6 11  1  0
  7 13  1  0
  7  5  1  0
  9  8  1  0
 11 10  1  0
 11  8  1  0
 12 51  1  0
 12  9  1  0
 13 14  1  6
 13 10  1  0
 13 12  1  0
 16 21  1  0
 17 18  1  0
 17 16  1  0
 19 18  1  0
 19 26  1  0
 19 20  1  0
 21 15  1  0
 21 20  1  0
 22 15  2  0
 23 24  2  0
 24 43  1  0
 25 24  1  0
 25 28  1  0
 26 23  1  0
 26 27  1  0
 27 25  2  0
 28 29  1  0
 29 30  2  0
 31 34  1  0
 31 30  1  0
 32 31  2  0
 33 32  1  0
 33 28  2  0
 34 35  1  0
 35 36  1  0
 36 37  2  0
 38 37  1  0
 38 42  1  0
 39 38  2  0
 40 35  2  0
 40 39  1  0
 41 40  1  0
 43 44  1  0
 44 47  1  0
 44 46  1  0
 45 43  2  0
 48 49  1  0
 48 23  1  0
 50 48  1  0
 52 53  1  0
 52 51  2  0
 53 55  1  0
 54 65  2  0
 55 60  1  0
 56 64  1  0
 56 66  1  0
 57 63  1  0
 57 59  1  0
 58 64  1  0
 59 58  1  0
 60 59  2  0
 61 62  1  0
 61 55  2  0
 62 57  2  0
 63 56  1  0
 64 54  1  0
 66 68  2  0
 67 66  1  0
 69 67  1  0
 70 79  2  0
 70 75  1  0
 71 67  1  0
 71 75  1  0
 72 71  1  0
 73 74  1  0
 73 72  1  0
 74 70  1  0
 75 76  2  0
 76 77  1  0
 78 77  2  0
 79 78  1  0
 80 54  1  0
 80 81  1  0
 80 90  1  0
 81 84  1  0
 82 86  1  0
 82 81  1  0
 83 82  2  0
 86 85  1  0
 88 86  1  0
 88 89  1  0
 88 87  1  0
 90 93  1  1
 90 91  1  0
 92 90  1  0
M  ISO  4   4 100  15 100  52 101  53 101
M  END
>  <TORSDO>  (56) 
F 18

>  <SCORE>  (56) 
-14.731

>  <name>  (56) 
55

>  <ligand_id>  (56) 
55

>  <original_smiles>  (56) 
[H]c1c([H])c([H])c2c(c1[H])C([H])([H])C([H])([H])C([H])([H])C2([H])N([H])C(=O)C1([H])N(C(=O)C([H])(N([H])C(=O)C([H])(N([H])C([H])([H])[H])C([H])([H])[H])C(C([H])([H])[H])(C([H])([H])[H])C([H])([H])[H])C([H])([H])c2c([H])c(OC([H])([H])C([H])([H])C3([H])C([H])([H])C([H])([H])C4([H])c5c([H])c(C(=O)N6C([H])([H])C([H])([H])C([H])([H])C([H])(n7nc(-c8c([H])c([H])c(Oc9c([H])c([H])c(F)c([H])c9F)c([H])c8[H])c(C(=O)N([H])[H])c7N([H])[H])C6([H])[H])c([H])c([H])c5C([H])([H])[N+]3([H])C4([H])[H])c([H])c([H])c2C1([H])[H]

>  <smiles>  (56) 
[H]c1c([H])c([H])c2c(c1[H])C([H])([H])C([H])([H])C([H])([H])C2([H])N([H])C(=O)C1([H])N(C(=O)C([H])(N([H])C(=O)C([H])(N([H])C([H])([H])[H])C([H])([H])[H])C(C([H])([H])[H])(C([H])([H])[H])C([H])([H])[H])C([H])([H])c2c([H])c(OC([H])([H])C([H])([H])C3([H])C([H])([H])C([H])([H])C4([H])c5c([H])c(C(=O)N6C([H])([H])C([H])([H])C([H])([H])C([H])(n7nc(-c8c([H])c([H])c(Oc9c([H])c([H])c(F)c([H])c9F)c([H])c8[H])c(C(=O)N([H])[H])c7N([H])[H])C6([H])[H])c([H])c([H])c5C([H])([H])[N+]3([H])C4([H])[H])c([H])c([H])c2C1([H])[H]

$$$$
56:0:0
     RDKit          3D

 89 97  0  0  1  0  0  0  0  0999 V2000
  -29.2990  -21.1120   19.8170 C   0  0  0  0  0  3  0  0  0  0  0  0
  -30.0500  -19.5350   21.9610 C   0  0  0  0  0  2  0  0  0  0  0  0
  -31.2860  -20.0480   21.2370 C   0  0  0  0  0  3  0  0  0  0  0  0
  -29.9770  -19.8300   20.4820 C   0  0  2  0  0  0  0  0  0  0  0  0
  -32.5350  -19.2110   21.0190 C   0  0  0  0  0  1  0  0  0  0  0  0
  -30.0770  -17.3120   19.6350 C   0  0  0  0  0  0  0  0  0  0  0  0
  -29.9900  -16.6550   18.2650 C   0  0  0  0  0  1  0  0  0  0  0  0
  -30.0040  -18.6320   19.5630 N   0  0  0  0  0  0  0  0  0  0  0  0
  -30.1900  -16.2190   20.7990 C   0  0  0  0  0  2  0  0  0  0  0  0
  -30.9250  -14.8380   20.4400 C   0  0  0  0  0  0  0  0  0  0  0  0
  -30.7120  -12.5770   19.4040 C   0  0  0  0  0  2  0  0  0  0  0  0
  -29.8190  -12.7000   18.1520 C   0  0  0  0  0  2  0  0  0  0  0  0
  -28.3310  -12.5530   18.5320 C   0  0  0  0  0  2  0  0  0  0  0  0
  -27.9340  -13.4220   19.7570 C   0  0  0  0  0  3  0  0  0  0  0  0
  -28.9610  -13.2950   20.9030 C   0  0  0  0  0  2  0  0  0  0  0  0
  -30.2850  -13.6220   20.3600 N   0  0  0  0  0  0  0  0  0  0  0  0
  -32.1120  -14.9070   20.1030 O   0  0  0  0  0  0  0  0  0  0  0  0
  -25.5200  -14.0150   20.3970 C   0  0  0  0  0  0  0  0  0  0  0  0
  -24.4480  -13.2420   20.7500 C   0  0  0  0  0  0  0  0  0  0  0  0
  -24.9170  -11.8940   20.7600 C   0  0  0  0  0  0  0  0  0  0  0  0
  -26.5760  -13.1380   20.2120 N   0  0  0  0  0  0  0  0  0  0  0  0
  -26.2170  -11.8570   20.4910 N   0  0  0  0  0  0  0  0  0  0  0  0
  -24.1910  -10.6320   20.9540 C   0  0  0  0  0  0  0  0  0  0  0  0
  -24.5910   -9.6920   21.9310 C   0  0  0  0  0  3  0  0  0  0  0  0
  -23.8640   -8.4960   22.1130 C   0  0  0  0  0  3  0  0  0  0  0  0
  -22.7250   -8.2280   21.3170 C   0  0  0  0  0  0  0  0  0  0  0  0
  -22.3430   -9.1570   20.3300 C   0  0  0  0  0  3  0  0  0  0  0  0
  -23.0700  -10.3450   20.1470 C   0  0  0  0  0  3  0  0  0  0  0  0
  -21.9740   -7.0800   21.4040 O   0  0  0  0  0  0  0  0  0  0  0  0
  -21.8720   -6.3740   22.5750 C   0  0  0  0  0  0  0  0  0  0  0  0
  -21.3700   -6.9610   23.7570 C   0  0  0  0  0  3  0  0  0  0  0  0
  -21.2170   -6.1800   24.9210 C   0  0  0  0  0  3  0  0  0  0  0  0
  -21.5550   -4.8140   24.9030 C   0  0  0  0  0  0  0  0  0  0  0  0
  -22.0490   -4.2280   23.7250 C   0  0  0  0  0  3  0  0  0  0  0  0
  -22.2040   -5.0050   22.5650 C   0  0  0  0  0  0  0  0  0  0  0  0
  -22.6590   -4.4290   21.4250 F   0  0  0  0  0  0  0  0  0  0  0  0
  -21.4020   -4.0620   26.0180 F   0  0  0  0  0  0  0  0  0  0  0  0
  -23.0390  -13.7170   20.9690 C   0  0  0  0  0  0  0  0  0  0  0  0
  -22.2890  -13.0370   21.8300 N   0  0  0  0  0  0  0  0  0  0  0  0
  -22.6100  -14.7260   20.4110 O   0  0  0  0  0  0  0  0  0  0  0  0
  -22.6470  -12.2210   22.3030 H   0  0  0  0  0  0  0  0  0  0  0  0
  -21.3420  -13.3360   22.0160 H   0  0  0  0  0  0  0  0  0  0  0  0
  -25.6810  -15.3820   20.1980 N   0  0  0  0  0  0  0  0  0  0  0  0
  -24.9040  -16.0300   20.2700 H   0  0  0  0  0  0  0  0  0  0  0  0
  -26.5370  -15.8260   19.8870 H   0  0  0  0  0  0  0  0  0  0  0  0
  -29.0020  -22.4600   20.6470 C   0  0  0  0  0  3  0  0  0  0  0  0
  -28.7640  -23.8540   19.8700 C   0  0  0  0  0  3  0  0  0  0  0  0
  -28.1790  -25.1140   20.6780 C   0  0  0  0  0  3  0  0  0  0  0  0
  -28.3370  -26.5100   20.1760 O   0  0  0  0  0  0  0  0  0  0  0  0
  -24.5750  -31.8860   23.2520 C   0  0  0  0  0  0  0  0  0  0  0  0
  -27.2170  -27.3580   20.1770 C   0  0  0  0  0  0  0  0  0  0  0  0
  -23.3840  -30.4990   21.5930 C   0  0  0  0  0  3  0  0  0  0  0  0
  -24.8480  -28.9610   20.1630 C   0  0  0  0  0  0  0  0  0  0  0  0
  -25.9230  -30.8280   21.4230 C   0  0  0  0  0  2  0  0  0  0  0  0
  -26.0120  -29.4530   20.7660 C   0  0  0  0  0  0  0  0  0  0  0  0
  -27.2040  -28.6660   20.7560 C   0  0  0  0  0  3  0  0  0  0  0  0
  -26.0320  -26.9160   19.5540 C   0  0  0  0  0  3  0  0  0  0  0  0
  -24.8600  -27.6990   19.5450 C   0  0  0  0  0  3  0  0  0  0  0  0
  -23.6080  -29.8320   20.2090 C   0  0  0  0  0  2  0  0  0  0  0  0
  -24.6460  -31.0880   22.1460 N   0  0  0  0  0  0  0  0  0  0  0  0
  -23.4880  -32.1550   23.7830 O   0  0  0  0  0  0  0  0  0  0  0  0
  -22.7180  -29.4730   22.5420 C   0  0  0  0  0  0  0  0  0  0  0  0
  -21.3930  -29.2930   22.4060 N   0  0  0  0  0  0  0  0  0  0  0  0
  -23.3940  -28.8430   23.3600 O   0  0  0  0  0  0  0  0  0  0  0  0
  -20.9070  -29.8540   21.7210 H   0  0  0  0  0  0  0  0  0  0  0  0
  -18.0170  -28.0830   22.8740 C   0  0  0  0  0  0  0  0  0  0  0  0
  -20.5720  -28.3470   23.1640 C   0  0  0  0  0  3  0  0  0  0  0  0
  -20.6810  -26.9210   22.5770 C   0  0  0  0  0  2  0  0  0  0  0  0
  -19.5870  -26.6030   21.5530 C   0  0  0  0  0  2  0  0  0  0  0  0
  -18.2010  -26.7400   22.1880 C   0  0  0  0  0  2  0  0  0  0  0  0
  -19.1300  -28.8440   23.3180 C   0  0  0  0  0  0  0  0  0  0  0  0
  -18.9040  -30.1020   23.9190 C   0  0  0  0  0  3  0  0  0  0  0  0
  -17.5960  -30.5970   24.0810 C   0  0  0  0  0  3  0  0  0  0  0  0
  -16.4970  -29.8330   23.6530 C   0  0  0  0  0  3  0  0  0  0  0  0
  -16.7070  -28.5780   23.0560 C   0  0  0  0  0  3  0  0  0  0  0  0
  -25.8530  -32.5160   23.8880 C   0  0  0  0  0  3  0  0  0  0  0  0
  -25.5490  -33.9200   24.1980 N   0  0  0  0  0  0  0  0  0  0  0  0
  -25.9080  -34.9640   23.4390 C   0  0  0  0  0  0  0  0  0  0  0  0
  -26.6000  -34.8450   22.4240 O   0  0  0  0  0  0  0  0  0  0  0  0
  -24.9360  -34.0870   24.9830 H   0  0  0  0  0  0  0  0  0  0  0  0
  -24.2160  -36.7780   23.0200 C   0  0  0  0  0  1  0  0  0  0  0  0
  -25.4250  -36.3610   23.8730 C   0  0  0  0  0  3  0  0  0  0  0  0
  -27.5410  -37.2250   24.7690 C   0  0  0  0  0  1  0  0  0  0  0  0
  -26.4750  -37.4000   23.7870 N   0  0  0  0  0  0  0  0  0  0  0  0
  -26.0750  -38.3270   23.9140 H   0  0  0  0  0  0  0  0  0  0  0  0
  -26.3430  -31.7560   25.1810 C   0  0  1  0  0  0  0  0  0  0  0  0
  -25.2300  -31.5400   26.2330 C   0  0  0  0  0  1  0  0  0  0  0  0
  -26.9210  -30.3690   24.8170 C   0  0  0  0  0  1  0  0  0  0  0  0
  -27.4880  -32.5490   25.8530 C   0  0  0  0  0  1  0  0  0  0  0  0
  1 46  2  0
  3  5  1  0
  3  2  1  0
  4  1  1  1
  4  3  1  0
  4  2  1  0
  6  9  1  0
  7  6  1  0
  8  6  2  0
  8  4  1  0
 10  9  1  0
 11 16  1  0
 12 13  1  0
 12 11  1  0
 14 13  1  0
 14 21  1  0
 14 15  1  0
 16 10  1  0
 16 15  1  0
 17 10  2  0
 18 19  2  0
 19 20  1  0
 19 38  1  0
 20 23  1  0
 21 18  1  0
 21 22  1  0
 22 20  2  0
 23 24  1  0
 24 25  2  0
 26 29  1  0
 26 25  1  0
 27 26  2  0
 28 27  1  0
 28 23  2  0
 29 30  1  0
 30 31  1  0
 31 32  2  0
 33 32  1  0
 33 37  1  0
 34 33  2  0
 35 30  2  0
 35 34  1  0
 36 35  1  0
 38 39  1  0
 39 42  1  0
 39 41  1  0
 40 38  2  0
 43 44  1  0
 43 18  1  0
 45 43  1  0
 47 46  1  0
 47 48  2  0
 49 51  1  0
 49 48  1  0
 50 61  2  0
 51 56  1  0
 52 60  1  0
 52 62  1  0
 53 59  1  0
 53 55  1  0
 54 60  1  0
 55 54  1  0
 56 55  2  0
 57 51  2  0
 58 57  1  0
 58 53  2  0
 59 52  1  0
 60 50  1  0
 62 64  2  0
 63 62  1  0
 65 63  1  0
 66 75  2  0
 66 71  1  0
 67 63  1  0
 67 71  1  0
 68 67  1  0
 69 70  1  0
 69 68  1  0
 70 66  1  0
 71 72  2  0
 72 73  1  0
 74 73  2  0
 75 74  1  0
 76 50  1  0
 76 77  1  0
 76 86  1  0
 77 80  1  0
 78 82  1  0
 78 77  1  0
 79 78  2  0
 82 81  1  0
 84 82  1  0
 84 85  1  0
 84 83  1  0
 86 89  1  1
 86 87  1  0
 88 86  1  0
M  ISO  4   9 100  10 100  48 101  49 101
M  END
>  <TORSDO>  (57) 
F 22

>  <SCORE>  (57) 
-12.325

>  <name>  (57) 
56

>  <ligand_id>  (57) 
56

>  <original_smiles>  (57) 
[H]c1c([H])c([H])c2c(c1[H])C([H])([H])C([H])([H])C([H])([H])C2([H])N([H])C(=O)C1([H])N(C(=O)C([H])(N([H])C(=O)C([H])(N([H])C([H])([H])[H])C([H])([H])[H])C(C([H])([H])[H])(C([H])([H])[H])C([H])([H])[H])C([H])([H])c2c([H])c(OC([H])([H])C([H])([H])C([H])([H])C([H])([H])C3(N=C(C([H])([H])[H])C([H])([H])C(=O)N4C([H])([H])C([H])([H])C([H])([H])C([H])(n5nc(-c6c([H])c([H])c(Oc7c([H])c([H])c(F)c([H])c7F)c([H])c6[H])c(C(=O)N([H])[H])c5N([H])[H])C4([H])[H])C([H])([H])C3([H])C([H])([H])[H])c([H])c([H])c2C1([H])[H]

>  <smiles>  (57) 
[H]c1c([H])c([H])c2c(c1[H])C([H])([H])C([H])([H])C([H])([H])C2([H])N([H])C(=O)C1([H])N(C(=O)C([H])(N([H])C(=O)C([H])(N([H])C([H])([H])[H])C([H])([H])[H])C(C([H])([H])[H])(C([H])([H])[H])C([H])([H])[H])C([H])([H])c2c([H])c(OC([H])([H])C([H])([H])C([H])([H])C([H])([H])C3(N=C(C([H])([H])[H])C([H])([H])C(=O)N4C([H])([H])C([H])([H])C([H])([H])C([H])(n5nc(-c6c([H])c([H])c(Oc7c([H])c([H])c(F)c([H])c7F)c([H])c6[H])c(C(=O)N([H])[H])c5N([H])[H])C4([H])[H])C([H])([H])C3([H])C([H])([H])[H])c([H])c([H])c2C1([H])[H]

$$$$
57:0:0
     RDKit          3D

 94103  0  0  1  0  0  0  0  0999 V2000
  -27.9250  -21.2470   18.6690 C   0  0  0  0  0  2  0  0  0  0  0  0
  -27.7640  -20.7470   21.1100 C   0  0  0  0  0  2  0  0  0  0  0  0
  -26.7880  -22.2680   18.8580 C   0  0  0  0  0  2  0  0  0  0  0  0
  -26.7210  -21.8390   21.3080 C   0  0  0  0  0  2  0  0  0  0  0  0
  -28.6500  -22.8830   20.2860 C   0  0  0  0  0  3  0  0  0  0  0  0
  -28.7020  -21.2890   19.9970 C   0  0  2  0  0  0  0  0  0  0  0  0
  -27.0950  -22.8790   20.2410 C   0  0  1  0  0  0  0  0  0  0  0  0
  -26.3330  -24.1700   20.5590 C   0  0  0  0  0  1  0  0  0  0  0  0
  -29.9870  -20.3430   19.9320 C   0  0  0  0  0  0  0  0  0  0  0  0
  -29.8460  -19.0020   20.2220 N   0  0  0  0  0  0  0  0  0  0  0  0
  -31.0690  -20.8100   19.5800 O   0  0  0  0  0  0  0  0  0  0  0  0
  -28.9100  -18.7350   20.4950 H   0  0  0  0  0  0  0  0  0  0  0  0
  -30.8330  -17.8460   20.1690 C   0  0  0  0  0  2  0  0  0  0  0  0
  -30.2700  -16.3690   20.4730 C   0  0  0  0  0  3  0  0  0  0  0  0
  -29.0580  -16.3770   19.9150 F   0  0  0  0  0  0  0  0  0  0  0  0
  -31.0600  -15.0470   20.0030 C   0  0  0  0  0  0  0  0  0  0  0  0
  -30.8330  -12.7630   18.9820 C   0  0  0  0  0  2  0  0  0  0  0  0
  -29.8630  -12.8560   17.7810 C   0  0  0  0  0  2  0  0  0  0  0  0
  -28.4110  -12.6610   18.2580 C   0  0  0  0  0  2  0  0  0  0  0  0
  -28.0680  -13.5820   19.4550 C   0  0  0  0  0  3  0  0  0  0  0  0
  -29.1490  -13.4910   20.5570 C   0  0  0  0  0  2  0  0  0  0  0  0
  -30.4470  -13.8150   19.9520 N   0  0  0  0  0  0  0  0  0  0  0  0
  -32.2120  -15.1620   19.5670 O   0  0  0  0  0  0  0  0  0  0  0  0
  -25.7300  -14.2510   20.2810 C   0  0  0  0  0  0  0  0  0  0  0  0
  -24.6510  -13.5070   20.6660 C   0  0  0  0  0  0  0  0  0  0  0  0
  -25.0710  -12.1420   20.5940 C   0  0  0  0  0  0  0  0  0  0  0  0
  -26.7330  -13.3410   19.9830 N   0  0  0  0  0  0  0  0  0  0  0  0
  -26.3460  -12.0680   20.2430 N   0  0  0  0  0  0  0  0  0  0  0  0
  -24.3180  -10.8980   20.7840 C   0  0  0  0  0  0  0  0  0  0  0  0
  -24.7430   -9.9080   21.6970 C   0  0  0  0  0  3  0  0  0  0  0  0
  -23.9920   -8.7270   21.8730 C   0  0  0  0  0  3  0  0  0  0  0  0
  -22.8020   -8.5270   21.1350 C   0  0  0  0  0  0  0  0  0  0  0  0
  -22.3970   -9.5040   20.2080 C   0  0  0  0  0  3  0  0  0  0  0  0
  -23.1480  -10.6770   20.0300 C   0  0  0  0  0  3  0  0  0  0  0  0
  -22.0230   -7.3990   21.2200 O   0  0  0  0  0  0  0  0  0  0  0  0
  -21.9540   -6.6580   22.3730 C   0  0  0  0  0  0  0  0  0  0  0  0
  -21.5350   -7.2230   23.5960 C   0  0  0  0  0  3  0  0  0  0  0  0
  -21.4120   -6.4120   24.7420 C   0  0  0  0  0  3  0  0  0  0  0  0
  -21.6980   -5.0350   24.6630 C   0  0  0  0  0  0  0  0  0  0  0  0
  -22.1100   -4.4690   23.4430 C   0  0  0  0  0  3  0  0  0  0  0  0
  -22.2350   -5.2780   22.3010 C   0  0  0  0  0  0  0  0  0  0  0  0
  -22.6130   -4.7250   21.1230 F   0  0  0  0  0  0  0  0  0  0  0  0
  -21.5740   -4.2520   25.7600 F   0  0  0  0  0  0  0  0  0  0  0  0
  -23.2760  -14.0140   20.9910 C   0  0  0  0  0  0  0  0  0  0  0  0
  -22.5640  -13.3270   21.8770 N   0  0  0  0  0  0  0  0  0  0  0  0
  -22.8460  -15.0560   20.4960 O   0  0  0  0  0  0  0  0  0  0  0  0
  -22.9240  -12.4780   22.2900 H   0  0  0  0  0  0  0  0  0  0  0  0
  -21.6430  -13.6490   22.1410 H   0  0  0  0  0  0  0  0  0  0  0  0
  -25.9400  -15.6230   20.1370 N   0  0  0  0  0  0  0  0  0  0  0  0
  -25.2230  -16.3110   20.3410 H   0  0  0  0  0  0  0  0  0  0  0  0
  -26.8250  -16.0310   19.8640 H   0  0  0  0  0  0  0  0  0  0  0  0
  -29.3910  -23.9930   19.3730 C   0  0  0  0  0  2  0  0  0  0  0  0
  -28.7180  -25.3270   18.7520 C   0  0  0  0  0  2  0  0  0  0  0  0
  -28.6590  -26.6690   19.4130 O   0  0  0  0  0  0  0  0  0  0  0  0
  -24.6910  -31.5810   22.9730 C   0  0  0  0  0  0  0  0  0  0  0  0
  -27.4950  -27.4750   19.4250 C   0  0  0  0  0  0  0  0  0  0  0  0
  -23.5350  -30.2580   21.2460 C   0  0  0  0  0  3  0  0  0  0  0  0
  -25.0350  -28.9490   19.6420 C   0  0  0  0  0  0  0  0  0  0  0  0
  -26.0480  -30.7380   21.0410 C   0  0  0  0  0  2  0  0  0  0  0  0
  -26.1900  -29.4320   20.2690 C   0  0  0  0  0  0  0  0  0  0  0  0
  -27.4120  -28.6950   20.1760 C   0  0  0  0  0  3  0  0  0  0  0  0
  -26.3200  -27.1030   18.7270 C   0  0  0  0  0  3  0  0  0  0  0  0
  -25.1060  -27.7880   18.8650 C   0  0  0  0  0  3  0  0  0  0  0  0
  -23.7470  -29.7300   19.8060 C   0  0  0  0  0  2  0  0  0  0  0  0
  -24.7780  -30.8720   21.8100 N   0  0  0  0  0  0  0  0  0  0  0  0
  -23.6070  -31.7350   23.5510 O   0  0  0  0  0  0  0  0  0  0  0  0
  -22.9700  -29.1150   22.1220 C   0  0  0  0  0  0  0  0  0  0  0  0
  -21.6580  -28.8530   21.9980 N   0  0  0  0  0  0  0  0  0  0  0  0
  -23.7070  -28.4740   22.8750 O   0  0  0  0  0  0  0  0  0  0  0  0
  -21.1160  -29.4290   21.3710 H   0  0  0  0  0  0  0  0  0  0  0  0
  -18.4000  -27.3390   22.4200 C   0  0  0  0  0  0  0  0  0  0  0  0
  -20.9290  -27.7920   22.6930 C   0  0  0  0  0  3  0  0  0  0  0  0
  -21.1450  -26.4230   22.0120 C   0  0  0  0  0  2  0  0  0  0  0  0
  -20.0630  -26.0890   20.9810 C   0  0  0  0  0  2  0  0  0  0  0  0
  -18.6810  -26.0670   21.6390 C   0  0  0  0  0  2  0  0  0  0  0  0
  -19.4560  -28.1580   22.9010 C   0  0  0  0  0  0  0  0  0  0  0  0
  -19.1400  -29.3500   23.5870 C   0  0  0  0  0  3  0  0  0  0  0  0
  -17.8010  -29.7290   23.7950 C   0  0  0  0  0  3  0  0  0  0  0  0
  -16.7600  -28.9060   23.3330 C   0  0  0  0  0  3  0  0  0  0  0  0
  -17.0600  -27.7110   22.6540 C   0  0  0  0  0  3  0  0  0  0  0  0
  -25.9450  -32.2450   23.6190 C   0  0  0  0  0  3  0  0  0  0  0  0
  -25.5570  -33.5960   24.0490 N   0  0  0  0  0  0  0  0  0  0  0  0
  -25.8110  -34.7170   23.3630 C   0  0  0  0  0  0  0  0  0  0  0  0
  -26.4690  -34.7280   22.3190 O   0  0  0  0  0  0  0  0  0  0  0  0
  -24.9660  -33.6540   24.8640 H   0  0  0  0  0  0  0  0  0  0  0  0
  -23.9680  -36.4220   23.1700 C   0  0  0  0  0  1  0  0  0  0  0  0
  -25.2520  -36.0390   23.9260 C   0  0  0  0  0  3  0  0  0  0  0  0
  -27.3450  -36.9990   24.7790 C   0  0  0  0  0  1  0  0  0  0  0  0
  -26.2150  -37.1610   23.8660 N   0  0  0  0  0  0  0  0  0  0  0  0
  -25.7560  -38.0420   24.0830 H   0  0  0  0  0  0  0  0  0  0  0  0
  -26.5260  -31.4220   24.8360 C   0  0  1  0  0  0  0  0  0  0  0  0
  -25.4680  -31.0540   25.9030 C   0  0  0  0  0  1  0  0  0  0  0  0
  -27.1720  -30.1060   24.3440 C   0  0  0  0  0  1  0  0  0  0  0  0
  -27.6460  -32.2300   25.5300 C   0  0  0  0  0  1  0  0  0  0  0  0
  1  3  1  0
  1  6  1  0
  2  4  1  0
  3  7  1  0
  5 52  1  0
  6  9  1  6
  6  5  1  0
  6  2  1  0
  7  5  1  0
  7  8  1  1
  7  4  1  0
  9 10  1  0
 10 12  1  0
 11  9  2  0
 13 10  1  0
 13 14  1  0
 14 15  1  0
 16 14  1  0
 17 22  1  0
 18 19  1  0
 18 17  1  0
 20 19  1  0
 20 27  1  0
 20 21  1  0
 22 16  1  0
 22 21  1  0
 23 16  2  0
 24 25  2  0
 25 44  1  0
 26 25  1  0
 26 29  1  0
 27 28  1  0
 27 24  1  0
 28 26  2  0
 29 30  1  0
 30 31  2  0
 32 35  1  0
 32 31  1  0
 33 32  2  0
 34 33  1  0
 34 29  2  0
 35 36  1  0
 36 37  1  0
 37 38  2  0
 39 38  1  0
 39 43  1  0
 40 39  2  0
 41 36  2  0
 41 40  1  0
 42 41  1  0
 44 45  1  0
 45 48  1  0
 45 47  1  0
 46 44  2  0
 49 24  1  0
 49 50  1  0
 51 49  1  0
 53 52  1  0
 53 54  1  0
 54 56  1  0
 55 66  2  0
 56 61  1  0
 57 65  1  0
 57 67  1  0
 58 64  1  0
 58 60  1  0
 59 65  1  0
 60 59  1  0
 61 60  2  0
 62 63  1  0
 62 56  2  0
 63 58  2  0
 64 57  1  0
 65 55  1  0
 67 69  2  0
 68 67  1  0
 70 68  1  0
 71 80  2  0
 71 76  1  0
 72 68  1  0
 72 76  1  0
 73 72  1  0
 74 75  1  0
 74 73  1  0
 75 71  1  0
 76 77  2  0
 77 78  1  0
 79 78  2  0
 80 79  1  0
 81 55  1  0
 81 82  1  0
 81 91  1  0
 82 85  1  0
 83 87  1  0
 83 82  1  0
 84 83  2  0
 87 86  1  0
 89 87  1  0
 89 90  1  0
 89 88  1  0
 91 94  1  1
 91 92  1  0
 93 91  1  0
M  ISO  4  14 100  16 100  53 101  54 101
M  END
>  <TORSDO>  (58) 
F 21

>  <SCORE>  (58) 
-10.594

>  <name>  (58) 
57

>  <ligand_id>  (58) 
57

>  <original_smiles>  (58) 
[H]c1c([H])c([H])c2c(c1[H])C([H])([H])C([H])([H])C([H])([H])C2([H])N([H])C(=O)C1([H])N(C(=O)C([H])(N([H])C(=O)C([H])(N([H])C([H])([H])[H])C([H])([H])[H])C(C([H])([H])[H])(C([H])([H])[H])C([H])([H])[H])C([H])([H])c2c([H])c(OC([H])([H])C([H])([H])C3([H])C4(C(=O)N([H])C([H])([H])C([H])(F)C(=O)N5C([H])([H])C([H])([H])C([H])([H])C([H])(n6nc(-c7c([H])c([H])c(Oc8c([H])c([H])c(F)c([H])c8F)c([H])c7[H])c(C(=O)N([H])[H])c6N([H])[H])C5([H])[H])C([H])([H])C([H])([H])C3(C([H])([H])[H])C([H])([H])C4([H])[H])c([H])c([H])c2C1([H])[H]

>  <smiles>  (58) 
[H]c1c([H])c([H])c2c(c1[H])C([H])([H])C([H])([H])C([H])([H])C2([H])N([H])C(=O)C1([H])N(C(=O)C([H])(N([H])C(=O)C([H])(N([H])C([H])([H])[H])C([H])([H])[H])C(C([H])([H])[H])(C([H])([H])[H])C([H])([H])[H])C([H])([H])c2c([H])c(OC([H])([H])C([H])([H])C3([H])C4(C(=O)N([H])C([H])([H])C([H])(F)C(=O)N5C([H])([H])C([H])([H])C([H])([H])C([H])(n6nc(-c7c([H])c([H])c(Oc8c([H])c([H])c(F)c([H])c8F)c([H])c7[H])c(C(=O)N([H])[H])c6N([H])[H])C5([H])[H])C([H])([H])C([H])([H])C3(C([H])([H])[H])C([H])([H])C4([H])[H])c([H])c([H])c2C1([H])[H]

$$$$
58:0:0
     RDKit          3D

 83 91  0  0  1  0  0  0  0  0999 V2000
  -27.9560  -23.8570   20.1770 C   0  0  0  0  0  2  0  0  0  0  0  0
  -28.8220  -21.2210   19.1470 C   0  0  0  0  0  2  0  0  0  0  0  0
  -28.7590  -20.2850   20.3370 C   0  0  0  0  0  3  0  0  0  0  0  0
  -28.8990  -22.2000   20.3100 C   0  0  0  0  0  3  0  0  0  0  0  0
  -29.4320  -17.1360   20.3930 C   0  0  0  0  0  3  0  0  0  0  0  0
  -29.6250  -18.6580   20.2730 C   0  0  0  0  0  3  0  0  0  0  0  0
  -30.2950  -15.6650   20.2890 C   0  0  0  0  0  0  0  0  0  0  0  0
  -30.4200  -13.1180   19.5030 C   0  0  0  0  0  2  0  0  0  0  0  0
  -29.5550  -12.7490   18.2640 C   0  0  0  0  0  2  0  0  0  0  0  0
  -28.1180  -12.3990   18.6800 C   0  0  0  0  0  2  0  0  0  0  0  0
  -27.5850  -13.3900   19.7390 C   0  0  0  0  0  3  0  0  0  0  0  0
  -28.5900  -13.6880   20.8750 C   0  0  0  0  0  2  0  0  0  0  0  0
  -29.7940  -14.2920   20.2620 N   0  0  0  0  0  0  0  0  0  0  0  0
  -31.5250  -15.6060   20.1010 O   0  0  0  0  0  0  0  0  0  0  0  0
  -25.2020  -13.8930   20.4550 C   0  0  0  0  0  0  0  0  0  0  0  0
  -24.1480  -13.1010   20.8110 C   0  0  0  0  0  0  0  0  0  0  0  0
  -24.6400  -11.7590   20.8030 C   0  0  0  0  0  0  0  0  0  0  0  0
  -26.2630  -13.0370   20.2360 N   0  0  0  0  0  0  0  0  0  0  0  0
  -25.9390  -11.7460   20.5150 N   0  0  0  0  0  0  0  0  0  0  0  0
  -23.9280  -10.4870   20.9900 C   0  0  0  0  0  0  0  0  0  0  0  0
  -24.3450   -9.5390   21.9510 C   0  0  0  0  0  3  0  0  0  0  0  0
  -23.6280   -8.3350   22.1270 C   0  0  0  0  0  3  0  0  0  0  0  0
  -22.4800   -8.0710   21.3450 C   0  0  0  0  0  0  0  0  0  0  0  0
  -22.0820   -9.0070   20.3740 C   0  0  0  0  0  3  0  0  0  0  0  0
  -22.7990  -10.2020   20.1960 C   0  0  0  0  0  3  0  0  0  0  0  0
  -21.7360   -6.9180   21.4280 O   0  0  0  0  0  0  0  0  0  0  0  0
  -21.6540   -6.1970   22.5940 C   0  0  0  0  0  0  0  0  0  0  0  0
  -21.1590   -6.7660   23.7870 C   0  0  0  0  0  3  0  0  0  0  0  0
  -21.0260   -5.9720   24.9430 C   0  0  0  0  0  3  0  0  0  0  0  0
  -21.3770   -4.6100   24.9060 C   0  0  0  0  0  0  0  0  0  0  0  0
  -21.8650   -4.0400   23.7170 C   0  0  0  0  0  3  0  0  0  0  0  0
  -21.9990   -4.8320   22.5630 C   0  0  0  0  0  0  0  0  0  0  0  0
  -22.4490   -4.2720   21.4140 F   0  0  0  0  0  0  0  0  0  0  0  0
  -21.2430   -3.8440   26.0140 F   0  0  0  0  0  0  0  0  0  0  0  0
  -22.7380  -13.5580   21.0410 C   0  0  0  0  0  0  0  0  0  0  0  0
  -22.0030  -12.8660   21.9040 N   0  0  0  0  0  0  0  0  0  0  0  0
  -22.2960  -14.5660   20.4910 O   0  0  0  0  0  0  0  0  0  0  0  0
  -22.3740  -12.0530   22.3710 H   0  0  0  0  0  0  0  0  0  0  0  0
  -21.0560  -13.1560   22.1020 H   0  0  0  0  0  0  0  0  0  0  0  0
  -25.3440  -15.2650   20.2680 N   0  0  0  0  0  0  0  0  0  0  0  0
  -24.5630  -15.9070   20.3610 H   0  0  0  0  0  0  0  0  0  0  0  0
  -26.1880  -15.7160   19.9410 H   0  0  0  0  0  0  0  0  0  0  0  0
  -28.1480  -25.5960   20.2920 O   0  0  0  0  0  0  0  0  0  0  0  0
  -24.6470  -31.8720   23.1870 C   0  0  0  0  0  0  0  0  0  0  0  0
  -27.1690  -26.7940   20.2280 C   0  0  0  0  0  0  0  0  0  0  0  0
  -23.4550  -30.4650   21.5600 C   0  0  0  0  0  3  0  0  0  0  0  0
  -24.8990  -28.8110   20.1570 C   0  0  0  0  0  0  0  0  0  0  0  0
  -26.0320  -30.6120   21.4330 C   0  0  0  0  0  2  0  0  0  0  0  0
  -26.0950  -29.1770   20.7860 C   0  0  0  0  0  0  0  0  0  0  0  0
  -27.2150  -28.1960   20.7870 C   0  0  0  0  0  3  0  0  0  0  0  0
  -25.9390  -26.6300   19.5440 C   0  0  0  0  0  3  0  0  0  0  0  0
  -24.8580  -27.5620   19.5120 C   0  0  0  0  0  3  0  0  0  0  0  0
  -23.6910  -29.7600   20.1930 C   0  0  0  0  0  2  0  0  0  0  0  0
  -24.7360  -31.0160   22.1120 N   0  0  0  0  0  0  0  0  0  0  0  0
  -23.5550  -32.1750   23.6970 O   0  0  0  0  0  0  0  0  0  0  0  0
  -22.7410  -29.4940   22.5380 C   0  0  0  0  0  0  0  0  0  0  0  0
  -21.4070  -29.3440   22.4180 N   0  0  0  0  0  0  0  0  0  0  0  0
  -23.3970  -28.8720   23.3760 O   0  0  0  0  0  0  0  0  0  0  0  0
  -20.9270  -29.8950   21.7210 H   0  0  0  0  0  0  0  0  0  0  0  0
  -18.0170  -28.1480   22.9470 C   0  0  0  0  0  0  0  0  0  0  0  0
  -20.5790  -28.4160   23.1990 C   0  0  0  0  0  3  0  0  0  0  0  0
  -20.6750  -26.9780   22.6340 C   0  0  0  0  0  2  0  0  0  0  0  0
  -19.5700  -26.6510   21.6250 C   0  0  0  0  0  2  0  0  0  0  0  0
  -18.1910  -26.7980   22.2720 C   0  0  0  0  0  2  0  0  0  0  0  0
  -19.1370  -28.9140   23.3660 C   0  0  0  0  0  0  0  0  0  0  0  0
  -18.9170  -30.1750   23.9630 C   0  0  0  0  0  3  0  0  0  0  0  0
  -17.6110  -30.6710   24.1390 C   0  0  0  0  0  3  0  0  0  0  0  0
  -16.5070  -29.9040   23.7320 C   0  0  0  0  0  3  0  0  0  0  0  0
  -16.7100  -28.6430   23.1420 C   0  0  0  0  0  3  0  0  0  0  0  0
  -25.9120  -32.5240   23.8220 C   0  0  0  0  0  3  0  0  0  0  0  0
  -25.5860  -33.9220   24.1650 N   0  0  0  0  0  0  0  0  0  0  0  0
  -25.8910  -34.9920   23.4180 C   0  0  0  0  0  0  0  0  0  0  0  0
  -26.5330  -34.9070   22.3680 O   0  0  0  0  0  0  0  0  0  0  0  0
  -25.0090  -34.0610   24.9810 H   0  0  0  0  0  0  0  0  0  0  0  0
  -24.1310  -36.7780   23.1570 C   0  0  0  0  0  1  0  0  0  0  0  0
  -25.4110  -36.3750   23.9070 C   0  0  0  0  0  3  0  0  0  0  0  0
  -27.5690  -37.2860   24.6520 C   0  0  0  0  0  1  0  0  0  0  0  0
  -26.4270  -37.4420   23.7560 N   0  0  0  0  0  0  0  0  0  0  0  0
  -26.0160  -38.3570   23.9230 H   0  0  0  0  0  0  0  0  0  0  0  0
  -26.4190  -31.7630   25.1100 C   0  0  1  0  0  0  0  0  0  0  0  0
  -25.3190  -31.5360   26.1750 C   0  0  0  0  0  1  0  0  0  0  0  0
  -27.0020  -30.3800   24.7440 C   0  0  0  0  0  1  0  0  0  0  0  0
  -27.5670  -32.5600   25.7720 C   0  0  0  0  0  1  0  0  0  0  0  0
  1 43  1  0
  2  4  1  0
  2  3  1  0
  3  6  1  0
  4  1  1  0
  4  3  1  0
  6  5  2  0
  7  5  1  0
  8 13  1  0
  9 10  1  0
  9  8  1  0
 11 10  1  0
 11 18  1  0
 11 12  1  0
 13  7  1  0
 13 12  1  0
 14  7  2  0
 15 16  2  0
 16 35  1  0
 17 16  1  0
 17 20  1  0
 18 15  1  0
 18 19  1  0
 19 17  2  0
 20 21  1  0
 21 22  2  0
 23 26  1  0
 23 22  1  0
 24 23  2  0
 25 24  1  0
 25 20  2  0
 26 27  1  0
 27 28  1  0
 28 29  2  0
 30 29  1  0
 30 34  1  0
 31 30  2  0
 32 27  2  0
 32 31  1  0
 33 32  1  0
 35 36  1  0
 36 39  1  0
 36 38  1  0
 37 35  2  0
 40 41  1  0
 40 15  1  0
 42 40  1  0
 44 55  2  0
 45 43  1  0
 45 50  1  0
 46 54  1  0
 46 56  1  0
 47 53  1  0
 47 49  1  0
 48 54  1  0
 49 50  2  0
 49 48  1  0
 51 45  2  0
 52 51  1  0
 52 47  2  0
 53 46  1  0
 54 44  1  0
 56 58  2  0
 57 56  1  0
 59 57  1  0
 60 69  2  0
 60 65  1  0
 61 57  1  0
 61 65  1  0
 62 61  1  0
 63 64  1  0
 63 62  1  0
 64 60  1  0
 65 66  2  0
 66 67  1  0
 68 67  2  0
 69 68  1  0
 70 44  1  0
 70 71  1  0
 70 80  1  0
 71 74  1  0
 72 76  1  0
 72 71  1  0
 73 72  2  0
 76 75  1  0
 78 76  1  0
 78 79  1  0
 78 77  1  0
 80 83  1  1
 80 81  1  0
 82 80  1  0
M  ISO  4   1 101   5 100   7 100  43 101
M  END
>  <TORSDO>  (59) 
F 18

>  <SCORE>  (59) 
-16.309

>  <name>  (59) 
58

>  <ligand_id>  (59) 
58

>  <original_smiles>  (59) 
[H]C(C(=O)N1C([H])([H])C([H])([H])C([H])([H])C([H])(n2nc(-c3c([H])c([H])c(Oc4c([H])c([H])c(F)c([H])c4F)c([H])c3[H])c(C(=O)N([H])[H])c2N([H])[H])C1([H])[H])=C([H])C1([H])C([H])([H])C1([H])C([H])([H])Oc1c([H])c([H])c2c(c1[H])C([H])([H])N(C(=O)C([H])(N([H])C(=O)C([H])(N([H])C([H])([H])[H])C([H])([H])[H])C(C([H])([H])[H])(C([H])([H])[H])C([H])([H])[H])C([H])(C(=O)N([H])C1([H])c3c([H])c([H])c([H])c([H])c3C([H])([H])C([H])([H])C1([H])[H])C2([H])[H]

>  <smiles>  (59) 
[H]C(C(=O)N1C([H])([H])C([H])([H])C([H])([H])C([H])(n2nc(-c3c([H])c([H])c(Oc4c([H])c([H])c(F)c([H])c4F)c([H])c3[H])c(C(=O)N([H])[H])c2N([H])[H])C1([H])[H])=C([H])C1([H])C([H])([H])C1([H])C([H])([H])Oc1c([H])c([H])c2c(c1[H])C([H])([H])N(C(=O)C([H])(N([H])C(=O)C([H])(N([H])C([H])([H])[H])C([H])([H])[H])C(C([H])([H])[H])(C([H])([H])[H])C([H])([H])[H])C([H])(C(=O)N([H])C1([H])c3c([H])c([H])c([H])c([H])c3C([H])([H])C([H])([H])C1([H])[H])C2([H])[H]

$$$$
60:0:0
     RDKit          3D

101112  0  0  1  0  0  0  0  0999 V2000
  -25.9270  -21.8990   19.7760 C   0  0  0  0  0  2  0  0  0  0  0  0
  -25.9890  -22.8310   20.9930 C   0  0  0  0  0  2  0  0  0  0  0  0
  -27.0360  -20.8400   19.7200 C   0  0  0  0  0  2  0  0  0  0  0  0
  -26.5910  -24.2220   20.7070 C   0  0  0  0  0  2  0  0  0  0  0  0
  -28.7900  -22.3620   18.5800 C   0  0  0  0  0  2  0  0  0  0  0  0
  -28.9960  -21.9230   21.0430 C   0  0  0  0  0  2  0  0  0  0  0  0
  -28.2750  -23.8260   18.7820 C   0  0  0  0  0  2  0  0  0  0  0  0
  -29.0180  -23.4880   21.1640 C   0  0  0  0  0  2  0  0  0  0  0  0
  -28.5230  -21.2980   19.6940 C   0  0  1  0  0  0  0  0  0  0  0  0
  -28.0790  -24.3400   20.2410 C   0  0  2  0  0  0  0  0  0  0  0  0
  -29.3690  -20.0020   19.3450 C   0  0  0  0  0  3  0  0  0  0  0  0
  -29.1770  -18.6530   20.1480 C   0  0  0  0  0  3  0  0  0  0  0  0
  -30.3440  -17.5760   20.0520 C   0  0  0  0  0  3  0  0  0  0  0  0
  -33.7920  -21.2430   18.7250 C   0  0  0  0  0  3  0  0  0  0  0  0
  -33.6100  -20.0430   17.9970 C   0  0  0  0  0  3  0  0  0  0  0  0
  -33.3200  -21.3510   20.0510 C   0  0  0  0  0  3  0  0  0  0  0  0
  -32.9580  -18.9380   18.5870 C   0  0  0  0  0  3  0  0  0  0  0  0
  -32.6510  -20.2510   20.6120 C   0  0  0  0  0  0  0  0  0  0  0  0
  -32.4580  -19.0770   19.8950 C   0  0  0  0  0  0  0  0  0  0  0  0
  -32.0550  -20.1680   21.9890 C   0  0  0  0  0  3  0  0  0  0  0  0
  -31.5810  -18.7030   22.0950 C   0  0  0  0  0  3  0  0  0  0  0  0
  -31.6990  -18.0390   20.6880 C   0  0  0  0  0  3  0  0  0  0  0  0
  -29.9620  -16.1280   20.5810 C   0  0  0  0  0  2  0  0  0  0  0  0
  -30.7590  -14.8910   20.0340 C   0  0  0  0  0  0  0  0  0  0  0  0
  -30.6280  -12.5510   19.1920 C   0  0  0  0  0  2  0  0  0  0  0  0
  -29.6470  -12.4960   18.0010 C   0  0  0  0  0  2  0  0  0  0  0  0
  -28.1950  -12.3200   18.4850 C   0  0  0  0  0  2  0  0  0  0  0  0
  -27.8260  -13.3090   19.6210 C   0  0  0  0  0  3  0  0  0  0  0  0
  -28.9150  -13.3220   20.7170 C   0  0  0  0  0  2  0  0  0  0  0  0
  -30.1980  -13.6470   20.0790 N   0  0  0  0  0  0  0  0  0  0  0  0
  -31.8470  -15.0740   19.4790 O   0  0  0  0  0  0  0  0  0  0  0  0
  -25.4880  -13.9110   20.5110 C   0  0  0  0  0  0  0  0  0  0  0  0
  -24.4330  -13.1360   20.9070 C   0  0  0  0  0  0  0  0  0  0  0  0
  -24.8690  -11.7810   20.7780 C   0  0  0  0  0  0  0  0  0  0  0  0
  -26.5030  -13.0300   20.1710 N   0  0  0  0  0  0  0  0  0  0  0  0
  -26.1350  -11.7410   20.3850 N   0  0  0  0  0  0  0  0  0  0  0  0
  -24.1350  -10.5200   20.9490 C   0  0  0  0  0  0  0  0  0  0  0  0
  -24.5590   -9.5370   21.8700 C   0  0  0  0  0  3  0  0  0  0  0  0
  -23.8270   -8.3420   22.0280 C   0  0  0  0  0  3  0  0  0  0  0  0
  -22.6550   -8.1200   21.2660 C   0  0  0  0  0  0  0  0  0  0  0  0
  -22.2510   -9.0920   20.3340 C   0  0  0  0  0  3  0  0  0  0  0  0
  -22.9840  -10.2800   20.1730 C   0  0  0  0  0  3  0  0  0  0  0  0
  -21.8940   -6.9790   21.3360 O   0  0  0  0  0  0  0  0  0  0  0  0
  -21.7800   -6.2600   22.5000 C   0  0  0  0  0  0  0  0  0  0  0  0
  -21.2660   -6.8350   23.6840 C   0  0  0  0  0  3  0  0  0  0  0  0
  -21.1010   -6.0420   24.8370 C   0  0  0  0  0  3  0  0  0  0  0  0
  -21.4390   -4.6750   24.8060 C   0  0  0  0  0  0  0  0  0  0  0  0
  -21.9470   -4.1010   23.6280 C   0  0  0  0  0  3  0  0  0  0  0  0
  -22.1130   -4.8900   22.4770 C   0  0  0  0  0  0  0  0  0  0  0  0
  -22.5810   -4.3250   21.3370 F   0  0  0  0  0  0  0  0  0  0  0  0
  -21.2740   -3.9100   25.9120 F   0  0  0  0  0  0  0  0  0  0  0  0
  -23.0650  -13.6140   21.2940 C   0  0  0  0  0  0  0  0  0  0  0  0
  -22.3800  -12.8790   22.1640 N   0  0  0  0  0  0  0  0  0  0  0  0
  -22.6120  -14.6730   20.8600 O   0  0  0  0  0  0  0  0  0  0  0  0
  -22.7620  -12.0170   22.5290 H   0  0  0  0  0  0  0  0  0  0  0  0
  -21.4640  -13.1790   22.4660 H   0  0  0  0  0  0  0  0  0  0  0  0
  -25.6690  -15.2880   20.3930 N   0  0  0  0  0  0  0  0  0  0  0  0
  -24.9320  -15.9540   20.5910 H   0  0  0  0  0  0  0  0  0  0  0  0
  -26.5140  -15.7200   20.0430 H   0  0  0  0  0  0  0  0  0  0  0  0
  -28.4890  -25.8870   20.3650 C   0  0  0  0  0  2  0  0  0  0  0  0
  -28.2330  -26.8570   19.2980 O   0  0  0  0  0  0  0  0  0  0  0  0
  -24.5510  -31.7680   23.0450 C   0  0  0  0  0  0  0  0  0  0  0  0
  -27.1120  -27.6600   19.4310 C   0  0  0  0  0  0  0  0  0  0  0  0
  -23.3000  -30.5030   21.3290 C   0  0  0  0  0  3  0  0  0  0  0  0
  -24.7160  -29.1550   19.6830 C   0  0  0  0  0  0  0  0  0  0  0  0
  -25.8080  -30.9370   21.0490 C   0  0  0  0  0  2  0  0  0  0  0  0
  -25.8950  -29.6300   20.2760 C   0  0  0  0  0  0  0  0  0  0  0  0
  -27.1020  -28.8880   20.1490 C   0  0  0  0  0  3  0  0  0  0  0  0
  -25.9290  -27.2430   18.7970 C   0  0  0  0  0  3  0  0  0  0  0  0
  -24.7320  -27.9650   18.9360 C   0  0  0  0  0  3  0  0  0  0  0  0
  -23.4600  -29.9760   19.8780 C   0  0  0  0  0  2  0  0  0  0  0  0
  -24.5730  -31.0820   21.8660 N   0  0  0  0  0  0  0  0  0  0  0  0
  -23.4930  -31.9500   23.6610 O   0  0  0  0  0  0  0  0  0  0  0  0
  -22.7240  -29.3710   22.2090 C   0  0  0  0  0  0  0  0  0  0  0  0
  -21.3990  -29.1540   22.1230 N   0  0  0  0  0  0  0  0  0  0  0  0
  -23.4630  -28.6950   22.9290 O   0  0  0  0  0  0  0  0  0  0  0  0
  -20.8590  -29.7630   21.5230 H   0  0  0  0  0  0  0  0  0  0  0  0
  -18.1040  -27.7490   22.6110 C   0  0  0  0  0  0  0  0  0  0  0  0
  -20.6530  -28.1150   22.8310 C   0  0  0  0  0  3  0  0  0  0  0  0
  -20.8040  -26.7430   22.1330 C   0  0  0  0  0  2  0  0  0  0  0  0
  -19.6910  -26.4520   21.1230 C   0  0  0  0  0  2  0  0  0  0  0  0
  -18.3230  -26.4750   21.8140 C   0  0  0  0  0  2  0  0  0  0  0  0
  -19.1980  -28.5280   23.0730 C   0  0  0  0  0  0  0  0  0  0  0  0
  -18.9410  -29.7240   23.7770 C   0  0  0  0  0  3  0  0  0  0  0  0
  -17.6210  -30.1450   24.0210 C   0  0  0  0  0  3  0  0  0  0  0  0
  -16.5410  -29.3640   23.5740 C   0  0  0  0  0  3  0  0  0  0  0  0
  -16.7840  -28.1660   22.8760 C   0  0  0  0  0  3  0  0  0  0  0  0
  -25.8520  -32.3760   23.6610 C   0  0  0  0  0  3  0  0  0  0  0  0
  -25.5360  -33.7380   24.1140 N   0  0  0  0  0  0  0  0  0  0  0  0
  -25.8160  -34.8530   23.4240 C   0  0  0  0  0  0  0  0  0  0  0  0
  -26.4400  -34.8440   22.3610 O   0  0  0  0  0  0  0  0  0  0  0  0
  -24.9780  -33.8170   24.9510 H   0  0  0  0  0  0  0  0  0  0  0  0
  -24.0320  -36.6250   23.3010 C   0  0  0  0  0  1  0  0  0  0  0  0
  -25.3250  -36.1900   24.0100 C   0  0  0  0  0  3  0  0  0  0  0  0
  -27.4790  -37.0690   24.7940 C   0  0  0  0  0  1  0  0  0  0  0  0
  -26.3260  -37.2760   23.9220 N   0  0  0  0  0  0  0  0  0  0  0  0
  -25.9070  -38.1700   24.1630 H   0  0  0  0  0  0  0  0  0  0  0  0
  -26.4400  -31.5170   24.8500 C   0  0  1  0  0  0  0  0  0  0  0  0
  -25.4050  -31.1770   25.9480 C   0  0  0  0  0  1  0  0  0  0  0  0
  -27.0250  -30.1840   24.3240 C   0  0  0  0  0  1  0  0  0  0  0  0
  -27.6100  -32.2800   25.5170 C   0  0  0  0  0  1  0  0  0  0  0  0
  1  2  1  0
  3  1  1  0
  4  2  1  0
  5  7  1  0
  5  9  1  0
  6  8  1  0
  7 10  1  0
  9 11  1  6
  9  3  1  0
  9  6  1  0
 10 60  1  6
 10  4  1  0
 10  8  1  0
 11 12  2  0
 13 12  1  0
 13 23  1  0
 14 16  1  0
 15 17  1  0
 15 14  2  0
 16 18  2  0
 17 19  2  0
 18 20  1  0
 19 18  1  0
 19 22  1  0
 20 21  2  0
 22 13  1  0
 22 21  1  0
 24 30  1  0
 24 23  1  0
 25 30  1  0
 26 27  1  0
 26 25  1  0
 28 27  1  0
 28 35  1  0
 28 29  1  0
 30 29  1  0
 31 24  2  0
 32 33  2  0
 33 52  1  0
 34 33  1  0
 34 37  1  0
 35 36  1  0
 35 32  1  0
 36 34  2  0
 37 38  1  0
 38 39  2  0
 40 43  1  0
 40 39  1  0
 41 40  2  0
 42 41  1  0
 42 37  2  0
 43 44  1  0
 44 45  1  0
 45 46  2  0
 47 46  1  0
 47 51  1  0
 48 47  2  0
 49 44  2  0
 49 48  1  0
 50 49  1  0
 52 53  1  0
 53 56  1  0
 53 55  1  0
 54 52  2  0
 57 32  1  0
 57 58  1  0
 59 57  1  0
 61 63  1  0
 61 60  1  0
 62 73  2  0
 63 68  1  0
 64 72  1  0
 64 74  1  0
 65 71  1  0
 65 67  1  0
 66 72  1  0
 67 66  1  0
 68 67  2  0
 69 70  1  0
 69 63  2  0
 70 65  2  0
 71 64  1  0
 72 62  1  0
 74 76  2  0
 75 74  1  0
 77 75  1  0
 78 87  2  0
 78 83  1  0
 79 75  1  0
 79 83  1  0
 80 79  1  0
 81 82  1  0
 81 80  1  0
 82 78  1  0
 83 84  2  0
 84 85  1  0
 86 85  2  0
 87 86  1  0
 88 62  1  0
 88 89  1  0
 88 98  1  0
 89 92  1  0
 90 94  1  0
 90 89  1  0
 91 90  2  0
 94 93  1  0
 96 94  1  0
 96 97  1  0
 96 95  1  0
 98101  1  1
 98 99  1  0
100 98  1  0
M  ISO  4  23 100  24 100  60 101  61 101
M  END
>  <TORSDO>  (60) 
F 22

>  <SCORE>  (60) 
-11.898

>  <name>  (60) 
60

>  <ligand_id>  (60) 
60

>  <original_smiles>  (60) 
[H]c1c([H])c([H])c2c(c1[H])C([H])([H])C([H])([H])C([H])([H])C2([H])N([H])C(=O)C1([H])N(C(=O)C([H])(N([H])C(=O)C([H])(N([H])C([H])([H])[H])C([H])([H])[H])C(C([H])([H])[H])(C([H])([H])[H])C([H])([H])[H])C([H])([H])c2c([H])c(OC([H])([H])C34C([H])([H])C([H])([H])C([H])([H])C([H])([H])C(C([H])([H])C([H])([H])C([H])(C([H])([H])C(=O)N5C([H])([H])C([H])([H])C([H])([H])C([H])(n6nc(-c7c([H])c([H])c(Oc8c([H])c([H])c(F)c([H])c8F)c([H])c7[H])c(C(=O)N([H])[H])c6N([H])[H])C5([H])[H])C5([H])c6c([H])c([H])c([H])c([H])c6C([H])([H])C5([H])[H])(C([H])([H])C3([H])[H])C([H])([H])C4([H])[H])c([H])c([H])c2C1([H])[H]

>  <smiles>  (60) 
[H]c1c([H])c([H])c2c(c1[H])C([H])([H])C([H])([H])C([H])([H])C2([H])N([H])C(=O)C1([H])N(C(=O)C([H])(N([H])C(=O)C([H])(N([H])C([H])([H])[H])C([H])([H])[H])C(C([H])([H])[H])(C([H])([H])[H])C([H])([H])[H])C([H])([H])c2c([H])c(OC([H])([H])C34C([H])([H])C([H])([H])C([H])([H])C([H])([H])C(C([H])([H])C([H])([H])C([H])(C([H])([H])C(=O)N5C([H])([H])C([H])([H])C([H])([H])C([H])(n6nc(-c7c([H])c([H])c(Oc8c([H])c([H])c(F)c([H])c8F)c([H])c7[H])c(C(=O)N([H])[H])c6N([H])[H])C5([H])[H])C5([H])c6c([H])c([H])c([H])c([H])c6C([H])([H])C5([H])[H])(C([H])([H])C3([H])[H])C([H])([H])C4([H])[H])c([H])c([H])c2C1([H])[H]

$$$$
62:0:0
     RDKit          3D

 90 99  0  0  1  0  0  0  0  0999 V2000
  -28.6770  -22.2500   18.5010 C   0  0  0  0  0  2  0  0  0  0  0  0
  -28.3100  -20.0970   21.8630 C   0  0  0  0  0  2  0  0  0  0  0  0
  -29.2500  -20.7640   18.3580 C   0  0  0  0  0  2  0  0  0  0  0  0
  -28.1610  -19.6680   20.4060 C   0  0  0  0  0  2  0  0  0  0  0  0
  -29.7320  -21.5900   20.5030 C   0  0  0  0  0  3  0  0  0  0  0  0
  -29.3630  -23.0350   19.6640 C   0  0  0  0  0  3  0  0  0  0  0  0
  -28.9060  -21.5070   21.8060 C   0  0  0  0  0  3  0  0  0  0  0  0
  -29.4860  -20.0800   19.7430 C   0  0  2  0  0  0  0  0  0  0  0  0
  -29.6920  -21.7610   22.9560 O   0  0  0  0  0  0  0  0  0  0  0  0
  -30.0150  -22.6560   22.9000 H   0  0  0  0  0  0  0  0  0  0  0  0
  -28.6150  -24.5600   20.2130 C   0  0  0  0  0  2  0  0  0  0  0  0
  -28.7210  -26.1360   19.8230 O   0  0  0  0  0  0  0  0  0  0  0  0
  -24.7480  -31.6600   23.0260 C   0  0  0  0  0  0  0  0  0  0  0  0
  -27.6200  -27.1230   19.8420 C   0  0  0  0  0  0  0  0  0  0  0  0
  -23.6500  -30.2640   21.3200 C   0  0  0  0  0  3  0  0  0  0  0  0
  -25.2030  -28.8190   19.8470 C   0  0  0  0  0  0  0  0  0  0  0  0
  -26.1960  -30.6540   21.2010 C   0  0  0  0  0  2  0  0  0  0  0  0
  -26.3570  -29.2840   20.4890 C   0  0  0  0  0  0  0  0  0  0  0  0
  -27.5640  -28.4600   20.4600 C   0  0  0  0  0  3  0  0  0  0  0  0
  -26.4270  -26.7940   19.1620 C   0  0  0  0  0  3  0  0  0  0  0  0
  -25.2590  -27.5940   19.1630 C   0  0  0  0  0  3  0  0  0  0  0  0
  -23.9270  -29.6550   19.9190 C   0  0  0  0  0  2  0  0  0  0  0  0
  -24.8840  -30.8850   21.9030 N   0  0  0  0  0  0  0  0  0  0  0  0
  -23.6400  -31.8600   23.5500 O   0  0  0  0  0  0  0  0  0  0  0  0
  -23.0160  -29.1850   22.2350 C   0  0  0  0  0  0  0  0  0  0  0  0
  -21.6990  -28.9490   22.0960 N   0  0  0  0  0  0  0  0  0  0  0  0
  -23.7150  -28.5640   23.0400 O   0  0  0  0  0  0  0  0  0  0  0  0
  -21.1860  -29.5040   21.4240 H   0  0  0  0  0  0  0  0  0  0  0  0
  -18.3880  -27.5330   22.5360 C   0  0  0  0  0  0  0  0  0  0  0  0
  -20.9290  -27.9330   22.8200 C   0  0  0  0  0  3  0  0  0  0  0  0
  -21.1130  -26.5360   22.1820 C   0  0  0  0  0  2  0  0  0  0  0  0
  -20.0300  -26.1960   21.1510 C   0  0  0  0  0  2  0  0  0  0  0  0
  -18.6420  -26.2310   21.7960 C   0  0  0  0  0  2  0  0  0  0  0  0
  -19.4600  -28.3400   23.0020 C   0  0  0  0  0  0  0  0  0  0  0  0
  -19.1650  -29.5570   23.6560 C   0  0  0  0  0  3  0  0  0  0  0  0
  -17.8330  -29.9680   23.8470 C   0  0  0  0  0  3  0  0  0  0  0  0
  -16.7760  -29.1590   23.3950 C   0  0  0  0  0  3  0  0  0  0  0  0
  -17.0540  -27.9430   22.7460 C   0  0  0  0  0  3  0  0  0  0  0  0
  -25.9760  -32.3500   23.6950 C   0  0  0  0  0  3  0  0  0  0  0  0
  -26.5210  -31.5630   24.9500 C   0  0  1  0  0  0  0  0  0  0  0  0
  -25.4320  -31.2260   25.9970 C   0  0  0  0  0  1  0  0  0  0  0  0
  -27.1850  -30.2340   24.5230 C   0  0  0  0  0  1  0  0  0  0  0  0
  -27.6200  -32.3960   25.6520 C   0  0  0  0  0  1  0  0  0  0  0  0
  -25.5710  -33.7120   24.0870 N   0  0  0  0  0  0  0  0  0  0  0  0
  -25.8050  -34.8170   23.3690 C   0  0  0  0  0  0  0  0  0  0  0  0
  -26.4500  -34.8050   22.3180 O   0  0  0  0  0  0  0  0  0  0  0  0
  -24.9930  -33.7880   24.9110 H   0  0  0  0  0  0  0  0  0  0  0  0
  -23.9290  -36.4840   23.1710 C   0  0  0  0  0  1  0  0  0  0  0  0
  -25.2390  -36.1500   23.9020 C   0  0  0  0  0  3  0  0  0  0  0  0
  -27.3390  -37.1750   24.6600 C   0  0  0  0  0  1  0  0  0  0  0  0
  -26.1800  -37.2850   23.7760 N   0  0  0  0  0  0  0  0  0  0  0  0
  -25.7120  -38.1650   23.9750 H   0  0  0  0  0  0  0  0  0  0  0  0
  -30.4800  -18.5980   19.7520 C   0  0  0  0  0  3  0  0  0  0  0  0
  -30.0770  -16.8730   19.8780 C   0  0  0  0  0  3  0  0  0  0  0  0
  -30.9920  -15.3970   19.8690 C   0  0  0  0  0  0  0  0  0  0  0  0
  -30.9870  -12.9120   19.1590 C   0  0  0  0  0  2  0  0  0  0  0  0
  -30.0320  -12.6870   17.9560 C   0  0  0  0  0  2  0  0  0  0  0  0
  -28.5850  -12.4570   18.4350 C   0  0  0  0  0  2  0  0  0  0  0  0
  -28.1690  -13.4740   19.5270 C   0  0  0  0  0  3  0  0  0  0  0  0
  -29.2420  -13.6400   20.6200 C   0  0  0  0  0  2  0  0  0  0  0  0
  -30.4800  -14.0800   19.9580 N   0  0  0  0  0  0  0  0  0  0  0  0
  -32.1990  -15.4310   19.5900 O   0  0  0  0  0  0  0  0  0  0  0  0
  -25.8490  -14.0890   20.3980 C   0  0  0  0  0  0  0  0  0  0  0  0
  -24.7810  -13.3350   20.7940 C   0  0  0  0  0  0  0  0  0  0  0  0
  -25.2020  -11.9720   20.7080 C   0  0  0  0  0  0  0  0  0  0  0  0
  -26.8510  -13.1900   20.0830 N   0  0  0  0  0  0  0  0  0  0  0  0
  -26.4770  -11.9080   20.3390 N   0  0  0  0  0  0  0  0  0  0  0  0
  -24.4440  -10.7290   20.8980 C   0  0  0  0  0  0  0  0  0  0  0  0
  -24.8310   -9.7670   21.8580 C   0  0  0  0  0  3  0  0  0  0  0  0
  -24.0710   -8.5900   22.0360 C   0  0  0  0  0  3  0  0  0  0  0  0
  -22.9130   -8.3650   21.2540 C   0  0  0  0  0  0  0  0  0  0  0  0
  -22.5460   -9.3170   20.2850 C   0  0  0  0  0  3  0  0  0  0  0  0
  -23.3050  -10.4850   20.1050 C   0  0  0  0  0  3  0  0  0  0  0  0
  -22.1300   -7.2400   21.3400 O   0  0  0  0  0  0  0  0  0  0  0  0
  -21.9380   -6.5860   22.5310 C   0  0  0  0  0  0  0  0  0  0  0  0
  -21.3860   -7.2350   23.6570 C   0  0  0  0  0  3  0  0  0  0  0  0
  -21.1400   -6.5070   24.8390 C   0  0  0  0  0  3  0  0  0  0  0  0
  -21.4380   -5.1330   24.8940 C   0  0  0  0  0  0  0  0  0  0  0  0
  -21.9830   -4.4820   23.7720 C   0  0  0  0  0  3  0  0  0  0  0  0
  -22.2280   -5.2070   22.5930 C   0  0  0  0  0  0  0  0  0  0  0  0
  -22.7330   -4.5730   21.5080 F   0  0  0  0  0  0  0  0  0  0  0  0
  -21.1950   -4.4310   26.0260 F   0  0  0  0  0  0  0  0  0  0  0  0
  -23.4120  -13.8480   21.1360 C   0  0  0  0  0  0  0  0  0  0  0  0
  -22.7070  -13.1630   22.0300 N   0  0  0  0  0  0  0  0  0  0  0  0
  -22.9800  -14.8900   20.6470 O   0  0  0  0  0  0  0  0  0  0  0  0
  -23.0720  -12.3190   22.4470 H   0  0  0  0  0  0  0  0  0  0  0  0
  -21.7920  -13.4900   22.3040 H   0  0  0  0  0  0  0  0  0  0  0  0
  -26.0460  -15.4590   20.2520 N   0  0  0  0  0  0  0  0  0  0  0  0
  -25.3050  -16.1290   20.4230 H   0  0  0  0  0  0  0  0  0  0  0  0
  -26.8950  -15.8880   19.9060 H   0  0  0  0  0  0  0  0  0  0  0  0
  1  6  1  0
  3  1  1  0
  3  8  1  0
  4  2  1  0
  5  7  1  0
  6 11  1  0
  6  5  1  0
  7  2  1  0
  7  9  1  0
  8 53  1  6
  8  4  1  0
  8  5  1  0
 10  9  1  0
 12 14  1  0
 12 11  1  0
 13 24  2  0
 13 39  1  0
 14 19  1  0
 15 23  1  0
 15 25  1  0
 16 22  1  0
 16 18  1  0
 17 23  1  0
 18 17  1  0
 19 18  2  0
 20 21  1  0
 20 14  2  0
 21 16  2  0
 22 15  1  0
 23 13  1  0
 25 27  2  0
 26 25  1  0
 26 30  1  0
 28 26  1  0
 29 38  2  0
 29 34  1  0
 30 34  1  0
 31 30  1  0
 32 33  1  0
 32 31  1  0
 33 29  1  0
 34 35  2  0
 35 36  1  0
 37 36  2  0
 38 37  1  0
 39 44  1  0
 39 40  1  0
 40 43  1  1
 40 41  1  0
 42 40  1  0
 44 47  1  0
 45 49  1  0
 45 44  1  0
 46 45  2  0
 48 49  1  0
 51 49  1  0
 51 52  1  0
 51 50  1  0
 53 54  2  0
 55 54  1  0
 55 61  1  0
 56 61  1  0
 57 58  1  0
 57 56  1  0
 58 59  1  0
 59 66  1  0
 59 60  1  0
 61 60  1  0
 62 55  2  0
 63 64  2  0
 64 83  1  0
 65 64  1  0
 65 68  1  0
 66 67  1  0
 66 63  1  0
 67 65  2  0
 68 69  1  0
 69 70  2  0
 71 74  1  0
 71 70  1  0
 72 71  2  0
 73 72  1  0
 73 68  2  0
 74 75  1  0
 75 80  2  0
 75 76  1  0
 76 77  2  0
 77 78  1  0
 78 82  1  0
 79 78  2  0
 80 79  1  0
 81 80  1  0
 83 84  1  0
 84 87  1  0
 84 86  1  0
 85 83  2  0
 88 63  1  0
 88 89  1  0
 90 88  1  0
M  ISO  4  11 101  12 101  54 100  55 100
M  END
>  <TORSDO>  (61) 
F 20

>  <SCORE>  (61) 
-13.069

>  <name>  (61) 
62

>  <ligand_id>  (61) 
62

>  <original_smiles>  (61) 
[H]OC1([H])C([H])([H])C([H])([H])C2(C([H])([H])C([H])([H])C(=O)N3C([H])([H])C([H])([H])C([H])([H])C([H])(n4nc(-c5c([H])c([H])c(Oc6c([H])c([H])c(F)c([H])c6F)c([H])c5[H])c(C(=O)N([H])[H])c4N([H])[H])C3([H])[H])C([H])([H])C([H])([H])C([H])(C([H])([H])Oc3c([H])c([H])c4c(c3[H])C([H])([H])N(C(=O)C([H])(N([H])C(=O)C([H])(N([H])C([H])([H])[H])C([H])([H])[H])C(C([H])([H])[H])(C([H])([H])[H])C([H])([H])[H])C([H])(C(=O)N([H])C3([H])c5c([H])c([H])c([H])c([H])c5C([H])([H])C([H])([H])C3([H])[H])C4([H])[H])C12[H]

>  <smiles>  (61) 
[H]OC1([H])C([H])([H])C([H])([H])C2(C([H])([H])C([H])([H])C(=O)N3C([H])([H])C([H])([H])C([H])([H])C([H])(n4nc(-c5c([H])c([H])c(Oc6c([H])c([H])c(F)c([H])c6F)c([H])c5[H])c(C(=O)N([H])[H])c4N([H])[H])C3([H])[H])C([H])([H])C([H])([H])C([H])(C([H])([H])Oc3c([H])c([H])c4c(c3[H])C([H])([H])N(C(=O)C([H])(N([H])C(=O)C([H])(N([H])C([H])([H])[H])C([H])([H])[H])C(C([H])([H])[H])(C([H])([H])[H])C([H])([H])[H])C([H])(C(=O)N([H])C3([H])c5c([H])c([H])c([H])c([H])c5C([H])([H])C([H])([H])C3([H])[H])C4([H])[H])C12[H]

$$$$
63:0:0
     RDKit          3D

 87 95  0  0  1  0  0  0  0  0999 V2000
  -28.9650  -21.8960   20.3650 C   0  0  0  0  0  3  0  0  0  0  0  0
  -29.8510  -20.5990   19.8220 C   0  0  0  0  0  3  0  0  0  0  0  0
  -30.3020  -17.7350   22.6280 C   0  0  0  0  0  2  0  0  0  0  0  0
  -31.0080  -16.5660   21.9060 C   0  0  0  0  0  2  0  0  0  0  0  0
  -30.4170  -19.0880   21.8890 C   0  0  0  0  0  2  0  0  0  0  0  0
  -30.4060  -17.7290   19.7360 C   0  0  0  0  0  2  0  0  0  0  0  0
  -30.4020  -16.2740   20.5180 C   0  0  0  0  0  3  0  0  0  0  0  0
  -29.7910  -19.0730   20.4800 C   0  0  0  0  0  3  0  0  0  0  0  0
  -31.0730  -14.9060   19.9060 C   0  0  0  0  0  0  0  0  0  0  0  0
  -30.7230  -12.6950   18.7340 C   0  0  0  0  0  2  0  0  0  0  0  0
  -29.6930  -12.8800   17.5940 C   0  0  0  0  0  2  0  0  0  0  0  0
  -28.2550  -12.7210   18.1240 C   0  0  0  0  0  2  0  0  0  0  0  0
  -28.0150  -13.5280   19.4250 C   0  0  0  0  0  3  0  0  0  0  0  0
  -29.1520  -13.3230   20.4470 C   0  0  0  0  0  2  0  0  0  0  0  0
  -30.4120  -13.6910   19.7910 N   0  0  0  0  0  0  0  0  0  0  0  0
  -32.2120  -14.9800   19.4310 O   0  0  0  0  0  0  0  0  0  0  0  0
  -25.7210  -14.1650   20.3740 C   0  0  0  0  0  0  0  0  0  0  0  0
  -24.6520  -13.4140   20.7780 C   0  0  0  0  0  0  0  0  0  0  0  0
  -25.0490  -12.0490   20.6310 C   0  0  0  0  0  0  0  0  0  0  0  0
  -26.7010  -13.2600   20.0010 N   0  0  0  0  0  0  0  0  0  0  0  0
  -26.3090  -11.9780   20.2190 N   0  0  0  0  0  0  0  0  0  0  0  0
  -24.2800  -10.8090   20.8020 C   0  0  0  0  0  0  0  0  0  0  0  0
  -24.6810   -9.8110   21.7180 C   0  0  0  0  0  3  0  0  0  0  0  0
  -23.9150   -8.6360   21.8780 C   0  0  0  0  0  3  0  0  0  0  0  0
  -22.7330   -8.4520   21.1210 C   0  0  0  0  0  0  0  0  0  0  0  0
  -22.3510   -9.4360   20.1940 C   0  0  0  0  0  3  0  0  0  0  0  0
  -23.1170  -10.6030   20.0330 C   0  0  0  0  0  3  0  0  0  0  0  0
  -21.9380   -7.3320   21.1910 O   0  0  0  0  0  0  0  0  0  0  0  0
  -21.7930   -6.6250   22.3570 C   0  0  0  0  0  0  0  0  0  0  0  0
  -21.3140   -7.2280   23.5400 C   0  0  0  0  0  3  0  0  0  0  0  0
  -21.1160   -6.4480   24.6980 C   0  0  0  0  0  3  0  0  0  0  0  0
  -21.3850   -5.0660   24.6710 C   0  0  0  0  0  0  0  0  0  0  0  0
  -21.8580   -4.4630   23.4920 C   0  0  0  0  0  3  0  0  0  0  0  0
  -22.0570   -5.2410   22.3370 C   0  0  0  0  0  0  0  0  0  0  0  0
  -22.4930   -4.6510   21.1970 F   0  0  0  0  0  0  0  0  0  0  0  0
  -21.1860   -4.3160   25.7790 F   0  0  0  0  0  0  0  0  0  0  0  0
  -23.3010  -13.9310   21.1850 C   0  0  0  0  0  0  0  0  0  0  0  0
  -22.6240  -13.2290   22.0860 N   0  0  0  0  0  0  0  0  0  0  0  0
  -22.8610  -14.9880   20.7380 O   0  0  0  0  0  0  0  0  0  0  0  0
  -22.9950  -12.3720   22.4680 H   0  0  0  0  0  0  0  0  0  0  0  0
  -21.7200  -13.5550   22.4020 H   0  0  0  0  0  0  0  0  0  0  0  0
  -25.9370  -15.5360   20.2680 N   0  0  0  0  0  0  0  0  0  0  0  0
  -25.2180  -16.2160   20.4910 H   0  0  0  0  0  0  0  0  0  0  0  0
  -26.7820  -15.9560   19.9050 H   0  0  0  0  0  0  0  0  0  0  0  0
  -29.2570  -23.4850   19.9770 C   0  0  0  0  0  3  0  0  0  0  0  0
  -28.2610  -24.7320   20.4290 C   0  0  0  0  0  3  0  0  0  0  0  0
  -28.5360  -26.2380   20.2780 O   0  0  0  0  0  0  0  0  0  0  0  0
  -24.8400  -31.8000   23.3190 C   0  0  0  0  0  0  0  0  0  0  0  0
  -27.4550  -27.1750   20.2490 C   0  0  0  0  0  0  0  0  0  0  0  0
  -23.6500  -30.4140   21.6630 C   0  0  0  0  0  3  0  0  0  0  0  0
  -25.1080  -28.8690   20.2260 C   0  0  0  0  0  0  0  0  0  0  0  0
  -26.1970  -30.7100   21.5010 C   0  0  0  0  0  2  0  0  0  0  0  0
  -26.2810  -29.3280   20.8410 C   0  0  0  0  0  0  0  0  0  0  0  0
  -27.4570  -28.4960   20.8380 C   0  0  0  0  0  3  0  0  0  0  0  0
  -26.2610  -26.8100   19.5890 C   0  0  0  0  0  3  0  0  0  0  0  0
  -25.1080  -27.6220   19.5860 C   0  0  0  0  0  3  0  0  0  0  0  0
  -23.8730  -29.7510   20.2780 C   0  0  0  0  0  2  0  0  0  0  0  0
  -24.9160  -30.9940   22.2170 N   0  0  0  0  0  0  0  0  0  0  0  0
  -23.7520  -32.0720   23.8490 O   0  0  0  0  0  0  0  0  0  0  0  0
  -22.9780  -29.3920   22.6130 C   0  0  0  0  0  0  0  0  0  0  0  0
  -21.6520  -29.2150   22.4810 N   0  0  0  0  0  0  0  0  0  0  0  0
  -23.6520  -28.7600   23.4320 O   0  0  0  0  0  0  0  0  0  0  0  0
  -21.1660  -29.7760   21.7940 H   0  0  0  0  0  0  0  0  0  0  0  0
  -18.2800  -27.9730   22.9350 C   0  0  0  0  0  0  0  0  0  0  0  0
  -20.8320  -28.2670   23.2390 C   0  0  0  0  0  3  0  0  0  0  0  0
  -20.9600  -26.8370   22.6680 C   0  0  0  0  0  2  0  0  0  0  0  0
  -19.8770  -26.5000   21.6380 C   0  0  0  0  0  2  0  0  0  0  0  0
  -18.4840  -26.6270   22.2620 C   0  0  0  0  0  2  0  0  0  0  0  0
  -19.3830  -28.7510   23.3800 C   0  0  0  0  0  0  0  0  0  0  0  0
  -19.1390  -30.0100   23.9700 C   0  0  0  0  0  3  0  0  0  0  0  0
  -17.8250  -30.4940   24.1190 C   0  0  0  0  0  3  0  0  0  0  0  0
  -16.7370  -29.7130   23.6890 C   0  0  0  0  0  3  0  0  0  0  0  0
  -16.9650  -28.4560   23.1040 C   0  0  0  0  0  3  0  0  0  0  0  0
  -26.1160  -32.4340   23.9530 C   0  0  0  0  0  3  0  0  0  0  0  0
  -26.6220  -31.6600   25.2320 C   0  0  1  0  0  0  0  0  0  0  0  0
  -25.5190  -31.4120   26.2890 C   0  0  0  0  0  1  0  0  0  0  0  0
  -27.2160  -30.2850   24.8450 C   0  0  0  0  0  1  0  0  0  0  0  0
  -27.7610  -32.4580   25.9100 C   0  0  0  0  0  1  0  0  0  0  0  0
  -25.8010  -33.8300   24.2880 N   0  0  0  0  0  0  0  0  0  0  0  0
  -26.1560  -34.8920   23.5530 C   0  0  0  0  0  0  0  0  0  0  0  0
  -26.8520  -34.7990   22.5380 O   0  0  0  0  0  0  0  0  0  0  0  0
  -25.1840  -33.9770   25.0750 H   0  0  0  0  0  0  0  0  0  0  0  0
  -24.4440  -36.7000   23.1800 C   0  0  0  0  0  1  0  0  0  0  0  0
  -25.6640  -36.2770   24.0160 C   0  0  0  0  0  3  0  0  0  0  0  0
  -27.7840  -37.1420   24.9050 C   0  0  0  0  0  1  0  0  0  0  0  0
  -26.7030  -37.3280   23.9410 N   0  0  0  0  0  0  0  0  0  0  0  0
  -26.2970  -38.2480   24.0930 H   0  0  0  0  0  0  0  0  0  0  0  0
  2  1  2  0
  4  3  1  0
  5  3  1  0
  6  8  1  0
  6  7  1  0
  7  9  1  0
  7  4  1  0
  8  2  1  0
  8  5  1  0
 10 15  1  0
 11 12  1  0
 11 10  1  0
 13 12  1  0
 13 20  1  0
 13 14  1  0
 15  9  1  0
 15 14  1  0
 16  9  2  0
 17 18  2  0
 18 37  1  0
 19 18  1  0
 19 22  1  0
 20 21  1  0
 20 17  1  0
 21 19  2  0
 22 23  1  0
 23 24  2  0
 25 28  1  0
 25 24  1  0
 26 25  2  0
 27 26  1  0
 27 22  2  0
 28 29  1  0
 29 30  1  0
 30 31  2  0
 32 31  1  0
 32 36  1  0
 33 32  2  0
 34 29  2  0
 34 33  1  0
 35 34  1  0
 37 38  1  0
 38 41  1  0
 38 40  1  0
 39 37  2  0
 42 17  1  0
 42 43  1  0
 44 42  1  0
 45  1  1  0
 45 46  2  0
 47 46  1  0
 48 59  2  0
 49 47  1  0
 49 54  1  0
 50 58  1  0
 50 60  1  0
 51 57  1  0
 51 53  1  0
 52 58  1  0
 53 52  1  0
 54 53  2  0
 55 49  2  0
 56 55  1  0
 56 51  2  0
 57 50  1  0
 58 48  1  0
 60 62  2  0
 61 60  1  0
 63 61  1  0
 64 73  2  0
 64 69  1  0
 65 61  1  0
 65 69  1  0
 66 65  1  0
 67 68  1  0
 67 66  1  0
 68 64  1  0
 69 70  2  0
 70 71  1  0
 72 71  2  0
 73 72  1  0
 74 48  1  0
 74 79  1  0
 74 75  1  0
 75 78  1  1
 75 76  1  0
 77 75  1  0
 79 82  1  0
 80 84  1  0
 80 79  1  0
 81 80  2  0
 84 83  1  0
 86 84  1  0
 86 87  1  0
 86 85  1  0
M  ISO  4   7 100   9 100  46 101  47 101
M  END
>  <TORSDO>  (62) 
F 20

>  <SCORE>  (62) 
-12.333

>  <name>  (62) 
63

>  <ligand_id>  (62) 
63

>  <original_smiles>  (62) 
[H]c1c([H])c([H])c2c(c1[H])C([H])([H])C([H])([H])C([H])([H])C2([H])N([H])C(=O)C1([H])N(C(=O)C([H])(N([H])C(=O)C([H])(N([H])C([H])([H])[H])C([H])([H])[H])C(C([H])([H])[H])(C([H])([H])[H])C([H])([H])[H])C([H])([H])c2c([H])c(OC([H])([H])C([H])([H])C([H])([H])C([H])([H])C3([H])C([H])([H])C([H])([H])C([H])([H])C([H])(C(=O)N4C([H])([H])C([H])([H])C([H])([H])C([H])(n5nc(-c6c([H])c([H])c(Oc7c([H])c([H])c(F)c([H])c7F)c([H])c6[H])c(C(=O)N([H])[H])c5N([H])[H])C4([H])[H])C3([H])[H])c([H])c([H])c2C1([H])[H]

>  <smiles>  (62) 
[H]c1c([H])c([H])c2c(c1[H])C([H])([H])C([H])([H])C([H])([H])C2([H])N([H])C(=O)C1([H])N(C(=O)C([H])(N([H])C(=O)C([H])(N([H])C([H])([H])[H])C([H])([H])[H])C(C([H])([H])[H])(C([H])([H])[H])C([H])([H])[H])C([H])([H])c2c([H])c(OC([H])([H])C([H])([H])C([H])([H])C([H])([H])C3([H])C([H])([H])C([H])([H])C([H])([H])C([H])(C(=O)N4C([H])([H])C([H])([H])C([H])([H])C([H])(n5nc(-c6c([H])c([H])c(Oc7c([H])c([H])c(F)c([H])c7F)c([H])c6[H])c(C(=O)N([H])[H])c5N([H])[H])C4([H])[H])C3([H])[H])c([H])c([H])c2C1([H])[H]

$$$$
64:0:0
     RDKit          3D

 91 99  0  0  1  0  0  0  0  0999 V2000
  -29.9970  -20.4690   21.3680 C   0  0  0  0  0  0  0  0  0  0  0  0
  -31.0770  -19.0410   19.7170 C   0  0  0  0  0  2  0  0  0  0  0  0
  -28.8940  -20.0950   20.4120 C   0  0  0  0  0  3  0  0  0  0  0  0
  -31.3500  -20.1820   20.7460 C   0  0  0  0  0  3  0  0  0  0  0  0
  -29.5920  -18.5890   19.8340 C   0  0  0  0  0  3  0  0  0  0  0  0
  -29.7930  -20.9190   22.5010 O   0  0  0  0  0  0  0  0  0  0  0  0
  -32.5720  -18.5490   22.2550 C   0  0  0  0  0  1  0  0  0  0  0  0
  -33.5010  -20.7880   21.8170 C   0  0  0  0  0  1  0  0  0  0  0  0
  -32.2780  -19.9550   21.8900 N   0  0  1  0  0  4  0  0  0  0  0  0
  -31.7390  -20.3430   22.6580 H   0  0  0  0  0  0  0  0  0  0  0  0
  -29.5360  -16.9670   20.5380 C   0  0  0  0  0  2  0  0  0  0  0  0
  -30.3930  -15.5050   20.2240 C   0  0  0  0  0  0  0  0  0  0  0  0
  -30.4500  -13.0690   19.3850 C   0  0  0  0  0  2  0  0  0  0  0  0
  -29.5180  -12.8600   18.1630 C   0  0  0  0  0  2  0  0  0  0  0  0
  -28.0750  -12.5720   18.6140 C   0  0  0  0  0  2  0  0  0  0  0  0
  -27.6110  -13.5240   19.7430 C   0  0  0  0  0  3  0  0  0  0  0  0
  -28.6650  -13.6840   20.8580 C   0  0  0  0  0  2  0  0  0  0  0  0
  -29.8990  -14.1800   20.2330 N   0  0  0  0  0  0  0  0  0  0  0  0
  -31.5830  -15.5820   19.8970 O   0  0  0  0  0  0  0  0  0  0  0  0
  -25.2400  -14.0060   20.5610 C   0  0  0  0  0  0  0  0  0  0  0  0
  -24.2010  -13.1910   20.9200 C   0  0  0  0  0  0  0  0  0  0  0  0
  -24.6970  -11.8550   20.8250 C   0  0  0  0  0  0  0  0  0  0  0  0
  -26.2970  -13.1650   20.2640 N   0  0  0  0  0  0  0  0  0  0  0  0
  -25.9830  -11.8620   20.4890 N   0  0  0  0  0  0  0  0  0  0  0  0
  -24.0030  -10.5690   20.9760 C   0  0  0  0  0  0  0  0  0  0  0  0
  -24.4160   -9.6110   21.9270 C   0  0  0  0  0  3  0  0  0  0  0  0
  -23.7180   -8.3910   22.0660 C   0  0  0  0  0  3  0  0  0  0  0  0
  -22.5900   -8.1220   21.2530 C   0  0  0  0  0  0  0  0  0  0  0  0
  -22.1970   -9.0710   20.2920 C   0  0  0  0  0  3  0  0  0  0  0  0
  -22.8980  -10.2800   20.1510 C   0  0  0  0  0  3  0  0  0  0  0  0
  -21.8630   -6.9580   21.3010 O   0  0  0  0  0  0  0  0  0  0  0  0
  -21.7150   -6.2490   22.4660 C   0  0  0  0  0  0  0  0  0  0  0  0
  -21.0850   -6.8010   23.6030 C   0  0  0  0  0  3  0  0  0  0  0  0
  -20.8970   -6.0130   24.7560 C   0  0  0  0  0  3  0  0  0  0  0  0
  -21.3240   -4.6720   24.7710 C   0  0  0  0  0  0  0  0  0  0  0  0
  -21.9490   -4.1180   23.6400 C   0  0  0  0  0  3  0  0  0  0  0  0
  -22.1410   -4.9040   22.4890 C   0  0  0  0  0  0  0  0  0  0  0  0
  -22.7210   -4.3580   21.3940 F   0  0  0  0  0  0  0  0  0  0  0  0
  -21.1370   -3.9120   25.8770 F   0  0  0  0  0  0  0  0  0  0  0  0
  -22.7990  -13.6240   21.2350 C   0  0  0  0  0  0  0  0  0  0  0  0
  -22.1060  -12.8790   22.0860 N   0  0  0  0  0  0  0  0  0  0  0  0
  -22.3310  -14.6590   20.7640 O   0  0  0  0  0  0  0  0  0  0  0  0
  -22.5000  -12.0400   22.4850 H   0  0  0  0  0  0  0  0  0  0  0  0
  -21.1660  -13.1500   22.3430 H   0  0  0  0  0  0  0  0  0  0  0  0
  -25.3700  -15.3860   20.4370 N   0  0  0  0  0  0  0  0  0  0  0  0
  -24.5870  -16.0160   20.5760 H   0  0  0  0  0  0  0  0  0  0  0  0
  -26.2070  -15.8580   20.1200 H   0  0  0  0  0  0  0  0  0  0  0  0
  -28.4730  -21.5990   19.6080 C   0  0  0  0  0  2  0  0  0  0  0  0
  -28.3730  -23.2500   20.2050 C   0  0  0  0  0  3  0  0  0  0  0  0
  -27.7530  -24.7180   19.4800 C   0  0  0  0  0  3  0  0  0  0  0  0
  -27.9150  -26.2760   19.8450 O   0  0  0  0  0  0  0  0  0  0  0  0
  -24.5870  -32.0310   23.2250 C   0  0  0  0  0  0  0  0  0  0  0  0
  -26.8830  -27.3210   19.8580 C   0  0  0  0  0  0  0  0  0  0  0  0
  -23.2650  -30.6980   21.6290 C   0  0  0  0  0  3  0  0  0  0  0  0
  -24.5890  -29.1560   20.0490 C   0  0  0  0  0  0  0  0  0  0  0  0
  -25.8110  -30.9220   21.3050 C   0  0  0  0  0  2  0  0  0  0  0  0
  -25.8170  -29.5470   20.5950 C   0  0  0  0  0  0  0  0  0  0  0  0
  -26.9550  -28.6450   20.4880 C   0  0  0  0  0  3  0  0  0  0  0  0
  -25.6250  -27.0650   19.2640 C   0  0  0  0  0  3  0  0  0  0  0  0
  -24.5100  -27.9300   19.3710 C   0  0  0  0  0  3  0  0  0  0  0  0
  -23.3820  -30.0720   20.2140 C   0  0  0  0  0  2  0  0  0  0  0  0
  -24.5790  -31.2420   22.1050 N   0  0  0  0  0  0  0  0  0  0  0  0
  -23.5420  -32.3050   23.8400 O   0  0  0  0  0  0  0  0  0  0  0  0
  -22.6450  -29.6680   22.6070 C   0  0  0  0  0  0  0  0  0  0  0  0
  -21.3280  -29.4110   22.4850 N   0  0  0  0  0  0  0  0  0  0  0  0
  -23.3490  -29.1010   23.4450 O   0  0  0  0  0  0  0  0  0  0  0  0
  -20.8080  -29.9190   21.7820 H   0  0  0  0  0  0  0  0  0  0  0  0
  -18.0560  -27.9230   22.9380 C   0  0  0  0  0  0  0  0  0  0  0  0
  -20.5690  -28.4390   23.2740 C   0  0  0  0  0  3  0  0  0  0  0  0
  -20.8240  -26.9980   22.7730 C   0  0  0  0  0  2  0  0  0  0  0  0
  -19.7950  -26.5290   21.7400 C   0  0  0  0  0  2  0  0  0  0  0  0
  -18.3820  -26.5690   22.3280 C   0  0  0  0  0  2  0  0  0  0  0  0
  -19.0810  -28.8070   23.3670 C   0  0  0  0  0  0  0  0  0  0  0  0
  -18.7220  -30.0660   23.8940 C   0  0  0  0  0  3  0  0  0  0  0  0
  -17.3690  -30.4430   23.9990 C   0  0  0  0  0  3  0  0  0  0  0  0
  -16.3580  -29.5600   23.5870 C   0  0  0  0  0  3  0  0  0  0  0  0
  -16.7010  -28.3010   23.0620 C   0  0  0  0  0  3  0  0  0  0  0  0
  -25.9090  -32.6430   23.7800 C   0  0  0  0  0  3  0  0  0  0  0  0
  -25.6370  -34.0450   24.1450 N   0  0  0  0  0  0  0  0  0  0  0  0
  -25.9410  -35.1070   23.3870 C   0  0  0  0  0  0  0  0  0  0  0  0
  -26.5430  -35.0140   22.3170 O   0  0  0  0  0  0  0  0  0  0  0  0
  -25.1000  -34.1940   24.9860 H   0  0  0  0  0  0  0  0  0  0  0  0
  -24.2240  -36.9340   23.1670 C   0  0  0  0  0  1  0  0  0  0  0  0
  -25.5020  -36.4940   23.9000 C   0  0  0  0  0  3  0  0  0  0  0  0
  -27.6900  -37.3350   24.6360 C   0  0  0  0  0  1  0  0  0  0  0  0
  -26.5450  -37.5340   23.7520 N   0  0  0  0  0  0  0  0  0  0  0  0
  -26.1570  -38.4570   23.9310 H   0  0  0  0  0  0  0  0  0  0  0  0
  -26.4850  -31.8600   25.0260 C   0  0  1  0  0  0  0  0  0  0  0  0
  -25.4390  -31.6010   26.1360 C   0  0  0  0  0  1  0  0  0  0  0  0
  -27.0660  -30.4910   24.6030 C   0  0  0  0  0  1  0  0  0  0  0  0
  -27.6540  -32.6560   25.6490 C   0  0  0  0  0  1  0  0  0  0  0  0
  1  6  2  0
  2  5  1  0
  2  4  1  0
  3 48  1  0
  3  1  1  0
  4  1  1  0
  4  9  1  0
  5  3  1  0
  5 11  1  0
  8  9  1  0
  9  7  1  0
  9 10  1  1
 12 18  1  0
 12 11  1  0
 13 18  1  0
 14 15  1  0
 14 13  1  0
 16 15  1  0
 16 23  1  0
 16 17  1  0
 18 17  1  0
 19 12  2  0
 20 21  2  0
 21 40  1  0
 22 21  1  0
 22 25  1  0
 23 24  1  0
 23 20  1  0
 24 22  2  0
 25 26  1  0
 26 27  2  0
 28 31  1  0
 28 27  1  0
 29 28  2  0
 30 29  1  0
 30 25  2  0
 31 32  1  0
 32 37  2  0
 32 33  1  0
 33 34  2  0
 34 35  1  0
 35 39  1  0
 36 35  2  0
 37 36  1  0
 38 37  1  0
 40 41  1  0
 41 44  1  0
 41 43  1  0
 42 40  2  0
 45 20  1  0
 45 46  1  0
 47 45  1  0
 48 49  1  0
 50 51  1  0
 50 49  2  0
 51 53  1  0
 52 63  2  0
 53 58  1  0
 54 62  1  0
 54 64  1  0
 55 61  1  0
 55 57  1  0
 56 62  1  0
 57 56  1  0
 58 57  2  0
 59 60  1  0
 59 53  2  0
 60 55  2  0
 61 54  1  0
 62 52  1  0
 64 66  2  0
 65 64  1  0
 67 65  1  0
 68 77  2  0
 68 73  1  0
 69 65  1  0
 69 73  1  0
 70 69  1  0
 71 72  1  0
 71 70  1  0
 72 68  1  0
 73 74  2  0
 74 75  1  0
 76 75  2  0
 77 76  1  0
 78 52  1  0
 78 79  1  0
 78 88  1  0
 79 82  1  0
 80 84  1  0
 80 79  1  0
 81 80  2  0
 84 83  1  0
 86 84  1  0
 86 87  1  0
 86 85  1  0
 88 91  1  1
 88 89  1  0
 90 88  1  0
M  ISO  4  11 100  12 100  50 101  51 101
M  END
>  <TORSDO>  (63) 
F 21

>  <SCORE>  (63) 
-14.836

>  <name>  (63) 
64

>  <ligand_id>  (63) 
64

>  <original_smiles>  (63) 
[H]c1c([H])c([H])c2c(c1[H])C([H])([H])C([H])([H])C([H])([H])C2([H])N([H])C(=O)C1([H])N(C(=O)C([H])(N([H])C(=O)C([H])(N([H])C([H])([H])[H])C([H])([H])[H])C(C([H])([H])[H])(C([H])([H])[H])C([H])([H])[H])C([H])([H])c2c([H])c(OC([H])([H])C([H])([H])C([H])([H])C3([H])C(=O)C([H])([N+]([H])(C([H])([H])[H])C([H])([H])[H])C([H])([H])C3([H])C([H])([H])C(=O)N3C([H])([H])C([H])([H])C([H])([H])C([H])(n4nc(-c5c([H])c([H])c(Oc6c([H])c([H])c(F)c([H])c6F)c([H])c5[H])c(C(=O)N([H])[H])c4N([H])[H])C3([H])[H])c([H])c([H])c2C1([H])[H]

>  <smiles>  (63) 
[H]c1c([H])c([H])c2c(c1[H])C([H])([H])C([H])([H])C([H])([H])C2([H])N([H])C(=O)C1([H])N(C(=O)C([H])(N([H])C(=O)C([H])(N([H])C([H])([H])[H])C([H])([H])[H])C(C([H])([H])[H])(C([H])([H])[H])C([H])([H])[H])C([H])([H])c2c([H])c(OC([H])([H])C([H])([H])C([H])([H])C3([H])C(=O)C([H])([N+]([H])(C([H])([H])[H])C([H])([H])[H])C([H])([H])C3([H])C([H])([H])C(=O)N3C([H])([H])C([H])([H])C([H])([H])C([H])(n4nc(-c5c([H])c([H])c(Oc6c([H])c([H])c(F)c([H])c6F)c([H])c5[H])c(C(=O)N([H])[H])c4N([H])[H])C3([H])[H])c([H])c([H])c2C1([H])[H]

$$$$
65:0:0
     RDKit          3D

 94102  0  0  1  0  0  0  0  0999 V2000
  -30.6130  -21.3850   19.5620 N   0  0  0  0  0  4  0  0  0  0  0  0
  -29.8220  -21.5190   18.9510 H   0  0  0  0  0  0  0  0  0  0  0  0
  -30.2630  -21.0710   20.4550 H   0  0  0  0  0  0  0  0  0  0  0  0
  -32.7560  -20.1030   19.7960 C   0  0  0  0  0  1  0  0  0  0  0  0
  -31.4590  -20.3260   18.9760 C   0  0  0  0  0  3  0  0  0  0  0  0
  -28.5700  -17.8840   17.7820 C   0  0  0  0  0  2  0  0  0  0  0  0
  -28.4390  -17.0140   19.0560 C   0  0  0  0  0  2  0  0  0  0  0  0
  -29.2730  -19.2350   18.0510 C   0  0  0  0  0  2  0  0  0  0  0  0
  -30.3930  -18.2370   20.0790 C   0  0  0  0  0  2  0  0  0  0  0  0
  -29.8140  -16.8530   19.7500 C   0  0  0  0  0  3  0  0  0  0  0  0
  -30.6310  -19.0300   18.7760 C   0  0  0  0  0  3  0  0  0  0  0  0
  -29.8870  -15.8780   20.9710 C   0  0  0  0  0  2  0  0  0  0  0  0
  -30.6920  -14.6020   20.6350 C   0  0  0  0  0  0  0  0  0  0  0  0
  -30.4350  -12.5040   19.3980 C   0  0  0  0  0  2  0  0  0  0  0  0
  -29.5220  -12.8130   18.1950 C   0  0  0  0  0  2  0  0  0  0  0  0
  -28.0300  -12.7040   18.5930 C   0  0  0  0  0  2  0  0  0  0  0  0
  -27.6850  -13.4110   19.9350 C   0  0  0  0  0  3  0  0  0  0  0  0
  -28.7340  -13.0830   21.0200 C   0  0  0  0  0  2  0  0  0  0  0  0
  -30.0560  -13.4150   20.4830 N   0  0  0  0  0  0  0  0  0  0  0  0
  -31.8750  -14.7600   20.3180 O   0  0  0  0  0  0  0  0  0  0  0  0
  -25.2450  -13.9530   20.5820 C   0  0  0  0  0  0  0  0  0  0  0  0
  -24.1910  -13.1520   20.9220 C   0  0  0  0  0  0  0  0  0  0  0  0
  -24.6890  -11.8120   20.9010 C   0  0  0  0  0  0  0  0  0  0  0  0
  -26.3250  -13.1050   20.3770 N   0  0  0  0  0  0  0  0  0  0  0  0
  -25.9880  -11.8110   20.6260 N   0  0  0  0  0  0  0  0  0  0  0  0
  -23.9910  -10.5330   21.0740 C   0  0  0  0  0  0  0  0  0  0  0  0
  -24.4090   -9.5900   22.0410 C   0  0  0  0  0  3  0  0  0  0  0  0
  -23.7140   -8.3730   22.2000 C   0  0  0  0  0  3  0  0  0  0  0  0
  -22.5860   -8.0890   21.3940 C   0  0  0  0  0  0  0  0  0  0  0  0
  -22.1860   -9.0200   20.4190 C   0  0  0  0  0  3  0  0  0  0  0  0
  -22.8810  -10.2310   20.2590 C   0  0  0  0  0  3  0  0  0  0  0  0
  -21.8660   -6.9200   21.4560 O   0  0  0  0  0  0  0  0  0  0  0  0
  -21.7710   -6.1950   22.6160 C   0  0  0  0  0  0  0  0  0  0  0  0
  -21.2320   -6.7490   23.7980 C   0  0  0  0  0  3  0  0  0  0  0  0
  -21.0870   -5.9470   24.9480 C   0  0  0  0  0  3  0  0  0  0  0  0
  -21.4750   -4.5940   24.9160 C   0  0  0  0  0  0  0  0  0  0  0  0
  -22.0080   -4.0410   23.7390 C   0  0  0  0  0  3  0  0  0  0  0  0
  -22.1500   -4.8380   22.5900 C   0  0  0  0  0  0  0  0  0  0  0  0
  -22.6400   -4.2930   21.4520 F   0  0  0  0  0  0  0  0  0  0  0  0
  -21.3320   -3.8230   26.0200 F   0  0  0  0  0  0  0  0  0  0  0  0
  -22.7700  -13.5860   21.1640 C   0  0  0  0  0  0  0  0  0  0  0  0
  -22.0350  -12.8660   22.0040 N   0  0  0  0  0  0  0  0  0  0  0  0
  -22.3160  -14.6010   20.6360 O   0  0  0  0  0  0  0  0  0  0  0  0
  -22.4020  -12.0440   22.4620 H   0  0  0  0  0  0  0  0  0  0  0  0
  -21.0860  -13.1460   22.2030 H   0  0  0  0  0  0  0  0  0  0  0  0
  -25.3630  -15.3320   20.4170 N   0  0  0  0  0  0  0  0  0  0  0  0
  -24.5520  -15.9300   20.5330 H   0  0  0  0  0  0  0  0  0  0  0  0
  -26.1910  -15.8430   20.1480 H   0  0  0  0  0  0  0  0  0  0  0  0
  -31.2610  -22.6960   19.7480 C   0  0  0  0  0  2  0  0  0  0  0  0
  -30.2530  -23.7030   20.3000 C   0  0  0  0  0  2  0  0  0  0  0  0
  -30.9050  -24.9940   20.8120 C   0  0  0  0  0  2  0  0  0  0  0  0
  -30.0550  -25.6850   21.8860 C   0  0  0  0  0  2  0  0  0  0  0  0
  -28.6380  -25.9900   21.4000 C   0  0  0  0  0  2  0  0  0  0  0  0
  -28.7010  -26.9500   20.3510 O   0  0  0  0  0  0  0  0  0  0  0  0
  -24.6490  -31.9440   23.2870 C   0  0  0  0  0  0  0  0  0  0  0  0
  -27.5330  -27.6480   20.2630 C   0  0  0  0  0  0  0  0  0  0  0  0
  -23.5390  -30.4990   21.6120 C   0  0  0  0  0  3  0  0  0  0  0  0
  -25.0850  -29.0230   20.2210 C   0  0  0  0  0  0  0  0  0  0  0  0
  -26.0490  -30.9630   21.4750 C   0  0  0  0  0  2  0  0  0  0  0  0
  -26.2040  -29.6010   20.8380 C   0  0  0  0  0  0  0  0  0  0  0  0
  -27.4380  -28.9220   20.8510 C   0  0  0  0  0  3  0  0  0  0  0  0
  -26.4080  -27.0660   19.6470 C   0  0  0  0  0  3  0  0  0  0  0  0
  -25.1830  -27.7560   19.6160 C   0  0  0  0  0  3  0  0  0  0  0  0
  -23.8040  -29.8220   20.2410 C   0  0  0  0  0  2  0  0  0  0  0  0
  -24.7620  -31.1490   22.1850 N   0  0  0  0  0  0  0  0  0  0  0  0
  -23.5450  -32.1720   23.7990 O   0  0  0  0  0  0  0  0  0  0  0  0
  -22.8990  -29.4540   22.5540 C   0  0  0  0  0  0  0  0  0  0  0  0
  -21.5850  -29.2270   22.3920 N   0  0  0  0  0  0  0  0  0  0  0  0
  -23.5830  -28.8480   23.3820 O   0  0  0  0  0  0  0  0  0  0  0  0
  -21.0960  -29.7740   21.6980 H   0  0  0  0  0  0  0  0  0  0  0  0
  -18.2350  -27.9410   22.8230 C   0  0  0  0  0  0  0  0  0  0  0  0
  -20.7800  -28.2600   23.1390 C   0  0  0  0  0  3  0  0  0  0  0  0
  -20.9280  -26.8380   22.5480 C   0  0  0  0  0  2  0  0  0  0  0  0
  -19.8500  -26.4990   21.5130 C   0  0  0  0  0  2  0  0  0  0  0  0
  -18.4550  -26.6040   22.1340 C   0  0  0  0  0  2  0  0  0  0  0  0
  -19.3260  -28.7260   23.2780 C   0  0  0  0  0  0  0  0  0  0  0  0
  -19.0680  -29.9800   23.8760 C   0  0  0  0  0  3  0  0  0  0  0  0
  -17.7500  -30.4510   24.0170 C   0  0  0  0  0  3  0  0  0  0  0  0
  -16.6710  -29.6630   23.5760 C   0  0  0  0  0  3  0  0  0  0  0  0
  -16.9150  -28.4080   22.9920 C   0  0  0  0  0  3  0  0  0  0  0  0
  -25.8940  -32.6190   23.9400 C   0  0  0  0  0  3  0  0  0  0  0  0
  -25.5380  -34.0130   24.2350 N   0  0  0  0  0  0  0  0  0  0  0  0
  -25.8700  -35.0600   23.4660 C   0  0  0  0  0  0  0  0  0  0  0  0
  -26.5770  -34.9540   22.4610 O   0  0  0  0  0  0  0  0  0  0  0  0
  -24.9170  -34.1630   25.0170 H   0  0  0  0  0  0  0  0  0  0  0  0
  -24.1100  -36.7980   23.0070 C   0  0  0  0  0  1  0  0  0  0  0  0
  -25.3270  -36.4420   23.8760 C   0  0  0  0  0  3  0  0  0  0  0  0
  -27.3980  -37.3990   24.7840 C   0  0  0  0  0  1  0  0  0  0  0  0
  -26.3360  -37.5190   23.7880 N   0  0  0  0  0  0  0  0  0  0  0  0
  -25.9020  -38.4320   23.9010 H   0  0  0  0  0  0  0  0  0  0  0  0
  -26.3900  -31.8820   25.2440 C   0  0  1  0  0  0  0  0  0  0  0  0
  -25.2660  -31.6140   26.2710 C   0  0  0  0  0  1  0  0  0  0  0  0
  -27.0340  -30.5230   24.8850 C   0  0  0  0  0  1  0  0  0  0  0  0
  -27.4860  -32.7240   25.9380 C   0  0  0  0  0  1  0  0  0  0  0  0
  1 49  1  0
  1  3  1  0
  2  1  1  0
  5  1  1  0
  5  4  1  0
  6  8  1  0
  6  7  1  0
  7 10  1  0
  8 11  1  0
 10  9  1  0
 10 12  1  0
 11  5  1  0
 11  9  1  0
 13 12  1  0
 14 19  1  0
 15 16  1  0
 15 14  1  0
 17 16  1  0
 17 24  1  0
 17 18  1  0
 19 13  1  0
 19 18  1  0
 20 13  2  0
 21 22  2  0
 22 41  1  0
 23 22  1  0
 23 26  1  0
 24 21  1  0
 24 25  1  0
 25 23  2  0
 26 27  1  0
 27 28  2  0
 29 32  1  0
 29 28  1  0
 30 29  2  0
 31 30  1  0
 31 26  2  0
 32 33  1  0
 33 34  1  0
 34 35  2  0
 36 35  1  0
 36 40  1  0
 37 36  2  0
 38 33  2  0
 38 37  1  0
 39 38  1  0
 41 42  1  0
 42 45  1  0
 42 44  1  0
 43 41  2  0
 46 47  1  0
 46 21  1  0
 48 46  1  0
 49 50  1  0
 50 51  1  0
 51 52  1  0
 53 52  1  0
 54 53  1  0
 55 66  2  0
 56 54  1  0
 56 61  1  0
 57 65  1  0
 57 67  1  0
 58 64  1  0
 58 60  1  0
 59 65  1  0
 60 61  2  0
 60 59  1  0
 62 56  2  0
 63 62  1  0
 63 58  2  0
 64 57  1  0
 65 55  1  0
 67 69  2  0
 68 67  1  0
 70 68  1  0
 71 80  2  0
 71 76  1  0
 72 68  1  0
 72 76  1  0
 73 72  1  0
 74 75  1  0
 74 73  1  0
 75 71  1  0
 76 77  2  0
 77 78  1  0
 79 78  2  0
 80 79  1  0
 81 55  1  0
 81 82  1  0
 81 91  1  0
 82 85  1  0
 83 87  1  0
 83 82  1  0
 84 83  2  0
 87 86  1  0
 89 87  1  0
 89 90  1  0
 89 88  1  0
 91 94  1  1
 91 92  1  0
 93 91  1  0
M  ISO  4  12 100  13 100  53 101  54 101
M  END
>  <TORSDO>  (64) 
F 24

>  <SCORE>  (64) 
-12.656

>  <name>  (64) 
65

>  <ligand_id>  (64) 
65

>  <original_smiles>  (64) 
[H]c1c([H])c([H])c2c(c1[H])C([H])([H])C([H])([H])C([H])([H])C2([H])N([H])C(=O)C1([H])N(C(=O)C([H])(N([H])C(=O)C([H])(N([H])C([H])([H])[H])C([H])([H])[H])C(C([H])([H])[H])(C([H])([H])[H])C([H])([H])[H])C([H])([H])c2c([H])c(OC([H])([H])C([H])([H])C([H])([H])C([H])([H])C([H])([H])[N+]([H])([H])C([H])(C([H])([H])[H])C3([H])C([H])([H])C([H])([H])C([H])([H])C([H])(C([H])([H])C(=O)N4C([H])([H])C([H])([H])C([H])([H])C([H])(n5nc(-c6c([H])c([H])c(Oc7c([H])c([H])c(F)c([H])c7F)c([H])c6[H])c(C(=O)N([H])[H])c5N([H])[H])C4([H])[H])C3([H])[H])c([H])c([H])c2C1([H])[H]

>  <smiles>  (64) 
[H]c1c([H])c([H])c2c(c1[H])C([H])([H])C([H])([H])C([H])([H])C2([H])N([H])C(=O)C1([H])N(C(=O)C([H])(N([H])C(=O)C([H])(N([H])C([H])([H])[H])C([H])([H])[H])C(C([H])([H])[H])(C([H])([H])[H])C([H])([H])[H])C([H])([H])c2c([H])c(OC([H])([H])C([H])([H])C([H])([H])C([H])([H])C([H])([H])[N+]([H])([H])C([H])(C([H])([H])[H])C3([H])C([H])([H])C([H])([H])C([H])([H])C([H])(C([H])([H])C(=O)N4C([H])([H])C([H])([H])C([H])([H])C([H])(n5nc(-c6c([H])c([H])c(Oc7c([H])c([H])c(F)c([H])c7F)c([H])c6[H])c(C(=O)N([H])[H])c5N([H])[H])C4([H])[H])C3([H])[H])c([H])c([H])c2C1([H])[H]

$$$$
66:0:0
     RDKit          3D

 91100  0  0  1  0  0  0  0  0999 V2000
  -30.5640  -23.5550   18.6580 C   0  0  0  0  0  2  0  0  0  0  0  0
  -29.3940  -21.1600   18.8510 C   0  0  0  0  0  2  0  0  0  0  0  0
  -28.8110  -21.9770   21.0250 C   0  0  0  0  0  2  0  0  0  0  0  0
  -29.2900  -22.7300   18.8170 C   0  0  0  0  0  3  0  0  0  0  0  0
  -30.5090  -23.9110   20.1430 C   0  0  0  0  0  3  0  0  0  0  0  0
  -29.5470  -20.6820   20.3210 C   0  0  0  0  0  3  0  0  0  0  0  0
  -29.0490  -23.3800   20.2120 C   0  0  2  0  0  0  0  0  0  0  0  0
  -31.5960  -23.4000   21.0850 C   0  0  0  0  0  1  0  0  0  0  0  0
  -29.1760  -19.1700   20.6430 N   0  0  0  0  0  4  0  0  0  0  0  0
  -28.2610  -19.0020   20.2570 H   0  0  0  0  0  0  0  0  0  0  0  0
  -29.0600  -19.1390   21.6420 H   0  0  0  0  0  0  0  0  0  0  0  0
  -30.0800  -17.9090   20.3020 C   0  0  0  0  0  3  0  0  0  0  0  0
  -29.6450  -16.3270   20.7090 C   0  0  0  0  0  3  0  0  0  0  0  0
  -30.4720  -14.9340   20.3440 C   0  0  0  0  0  0  0  0  0  0  0  0
  -30.3430  -12.6010   19.3460 C   0  0  0  0  0  2  0  0  0  0  0  0
  -29.4000  -12.6270   18.1190 C   0  0  0  0  0  2  0  0  0  0  0  0
  -27.9320  -12.4310   18.5490 C   0  0  0  0  0  2  0  0  0  0  0  0
  -27.5500  -13.3130   19.7640 C   0  0  0  0  0  3  0  0  0  0  0  0
  -28.6140  -13.2620   20.8810 C   0  0  0  0  0  2  0  0  0  0  0  0
  -29.8970  -13.6650   20.2910 N   0  0  0  0  0  0  0  0  0  0  0  0
  -31.6530  -15.0190   19.9900 O   0  0  0  0  0  0  0  0  0  0  0  0
  -25.1680  -13.8930   20.5070 C   0  0  0  0  0  0  0  0  0  0  0  0
  -24.1050  -13.1200   20.8830 C   0  0  0  0  0  0  0  0  0  0  0  0
  -24.5700  -11.7690   20.8550 C   0  0  0  0  0  0  0  0  0  0  0  0
  -26.2110  -13.0160   20.2640 N   0  0  0  0  0  0  0  0  0  0  0  0
  -25.8600  -11.7320   20.5390 N   0  0  0  0  0  0  0  0  0  0  0  0
  -23.8450  -10.5060   21.0510 C   0  0  0  0  0  0  0  0  0  0  0  0
  -24.2880   -9.5330   21.9730 C   0  0  0  0  0  3  0  0  0  0  0  0
  -23.5600   -8.3370   22.1580 C   0  0  0  0  0  3  0  0  0  0  0  0
  -22.3750   -8.1060   21.4190 C   0  0  0  0  0  0  0  0  0  0  0  0
  -21.9530   -9.0670   20.4850 C   0  0  0  0  0  3  0  0  0  0  0  0
  -22.6800  -10.2540   20.2990 C   0  0  0  0  0  3  0  0  0  0  0  0
  -21.6200   -6.9630   21.5130 O   0  0  0  0  0  0  0  0  0  0  0  0
  -21.5990   -6.2050   22.6560 C   0  0  0  0  0  0  0  0  0  0  0  0
  -21.2180   -6.7490   23.9020 C   0  0  0  0  0  3  0  0  0  0  0  0
  -21.1420   -5.9180   25.0380 C   0  0  0  0  0  3  0  0  0  0  0  0
  -21.4410   -4.5460   24.9300 C   0  0  0  0  0  0  0  0  0  0  0  0
  -21.8160   -4.0030   23.6890 C   0  0  0  0  0  3  0  0  0  0  0  0
  -21.8920   -4.8300   22.5540 C   0  0  0  0  0  0  0  0  0  0  0  0
  -22.2350   -4.2970   21.3570 F   0  0  0  0  0  0  0  0  0  0  0  0
  -21.3610   -3.7480   26.0200 F   0  0  0  0  0  0  0  0  0  0  0  0
  -22.7080  -13.5960   21.1560 C   0  0  0  0  0  0  0  0  0  0  0  0
  -21.9850  -12.9040   22.0290 N   0  0  0  0  0  0  0  0  0  0  0  0
  -22.2660  -14.6180   20.6290 O   0  0  0  0  0  0  0  0  0  0  0  0
  -22.3540  -12.0750   22.4700 H   0  0  0  0  0  0  0  0  0  0  0  0
  -21.0480  -13.2050   22.2580 H   0  0  0  0  0  0  0  0  0  0  0  0
  -25.3300  -15.2630   20.3260 N   0  0  0  0  0  0  0  0  0  0  0  0
  -24.5640  -15.9190   20.4360 H   0  0  0  0  0  0  0  0  0  0  0  0
  -26.1730  -15.6970   19.9720 H   0  0  0  0  0  0  0  0  0  0  0  0
  -27.9650  -24.6580   20.3790 C   0  0  0  0  0  2  0  0  0  0  0  0
  -28.2320  -26.1830   20.1910 O   0  0  0  0  0  0  0  0  0  0  0  0
  -24.6200  -31.8660   23.2120 C   0  0  0  0  0  0  0  0  0  0  0  0
  -27.1640  -27.1520   20.1640 C   0  0  0  0  0  0  0  0  0  0  0  0
  -23.4010  -30.4670   21.5920 C   0  0  0  0  0  3  0  0  0  0  0  0
  -24.8330  -28.8910   20.1550 C   0  0  0  0  0  0  0  0  0  0  0  0
  -25.9540  -30.7340   21.3970 C   0  0  0  0  0  2  0  0  0  0  0  0
  -26.0210  -29.3410   20.7470 C   0  0  0  0  0  0  0  0  0  0  0  0
  -27.1880  -28.4890   20.7330 C   0  0  0  0  0  3  0  0  0  0  0  0
  -25.9500  -26.8060   19.5290 C   0  0  0  0  0  3  0  0  0  0  0  0
  -24.8100  -27.6360   19.5300 C   0  0  0  0  0  3  0  0  0  0  0  0
  -23.6060  -29.7870   20.2120 C   0  0  0  0  0  2  0  0  0  0  0  0
  -24.6790  -31.0440   22.1210 N   0  0  0  0  0  0  0  0  0  0  0  0
  -23.5400  -32.1520   23.7520 O   0  0  0  0  0  0  0  0  0  0  0  0
  -22.7330  -29.4620   22.5620 C   0  0  0  0  0  0  0  0  0  0  0  0
  -21.4040  -29.2900   22.4480 N   0  0  0  0  0  0  0  0  0  0  0  0
  -23.4120  -28.8380   23.3800 O   0  0  0  0  0  0  0  0  0  0  0  0
  -20.9130  -29.8410   21.7570 H   0  0  0  0  0  0  0  0  0  0  0  0
  -18.0290  -28.0830   22.9740 C   0  0  0  0  0  0  0  0  0  0  0  0
  -20.5880  -28.3570   23.2300 C   0  0  0  0  0  3  0  0  0  0  0  0
  -20.6930  -26.9200   22.6670 C   0  0  0  0  0  2  0  0  0  0  0  0
  -19.5880  -26.5850   21.6600 C   0  0  0  0  0  2  0  0  0  0  0  0
  -18.2080  -26.7290   22.3080 C   0  0  0  0  0  2  0  0  0  0  0  0
  -19.1450  -28.8540   23.3920 C   0  0  0  0  0  0  0  0  0  0  0  0
  -18.9230  -30.1190   23.9770 C   0  0  0  0  0  3  0  0  0  0  0  0
  -17.6150  -30.6150   24.1470 C   0  0  0  0  0  3  0  0  0  0  0  0
  -16.5130  -29.8420   23.7430 C   0  0  0  0  0  3  0  0  0  0  0  0
  -16.7200  -28.5770   23.1630 C   0  0  0  0  0  3  0  0  0  0  0  0
  -25.9050  -32.5000   23.8240 C   0  0  0  0  0  3  0  0  0  0  0  0
  -26.4430  -31.7170   25.0860 C   0  0  1  0  0  0  0  0  0  0  0  0
  -25.3670  -31.4650   26.1670 C   0  0  0  0  0  1  0  0  0  0  0  0
  -27.0240  -30.3450   24.6750 C   0  0  0  0  0  1  0  0  0  0  0  0
  -27.6010  -32.5080   25.7370 C   0  0  0  0  0  1  0  0  0  0  0  0
  -25.5910  -33.8930   24.1810 N   0  0  0  0  0  0  0  0  0  0  0  0
  -25.8890  -34.9600   23.4280 C   0  0  0  0  0  0  0  0  0  0  0  0
  -26.5250  -34.8760   22.3740 O   0  0  0  0  0  0  0  0  0  0  0  0
  -25.0190  -34.0320   25.0010 H   0  0  0  0  0  0  0  0  0  0  0  0
  -24.1270  -36.7380   23.1700 C   0  0  0  0  0  1  0  0  0  0  0  0
  -25.4070  -36.3390   23.9210 C   0  0  0  0  0  3  0  0  0  0  0  0
  -27.5660  -37.2410   24.6640 C   0  0  0  0  0  1  0  0  0  0  0  0
  -26.4220  -37.4050   23.7730 N   0  0  0  0  0  0  0  0  0  0  0  0
  -26.0120  -38.3190   23.9480 H   0  0  0  0  0  0  0  0  0  0  0  0
  1  5  1  0
  2  6  1  0
  4  1  1  0
  4  2  1  0
  4  7  1  0
  5  7  1  0
  5  8  1  0
  6  9  1  0
  6  3  1  0
  7 50  1  6
  7  3  1  0
  9 11  1  0
 10  9  1  0
 12  9  1  0
 12 13  2  0
 14 13  1  0
 15 20  1  0
 16 17  1  0
 16 15  1  0
 18 17  1  0
 18 25  1  0
 18 19  1  0
 20 14  1  0
 20 19  1  0
 21 14  2  0
 22 23  2  0
 23 42  1  0
 24 23  1  0
 24 27  1  0
 25 22  1  0
 25 26  1  0
 26 24  2  0
 27 28  1  0
 28 29  2  0
 30 33  1  0
 30 29  1  0
 31 30  2  0
 32 31  1  0
 32 27  2  0
 33 34  1  0
 34 35  1  0
 35 36  2  0
 37 36  1  0
 37 41  1  0
 38 37  2  0
 39 34  2  0
 39 38  1  0
 40 39  1  0
 42 43  1  0
 43 46  1  0
 43 45  1  0
 44 42  2  0
 47 48  1  0
 47 22  1  0
 49 47  1  0
 51 50  1  0
 52 63  2  0
 53 51  1  0
 53 58  1  0
 54 62  1  0
 54 64  1  0
 55 61  1  0
 55 57  1  0
 56 62  1  0
 57 56  1  0
 58 57  2  0
 59 60  1  0
 59 53  2  0
 60 55  2  0
 61 54  1  0
 62 52  1  0
 64 66  2  0
 65 64  1  0
 67 65  1  0
 68 77  2  0
 68 73  1  0
 69 65  1  0
 69 73  1  0
 70 69  1  0
 71 72  1  0
 71 70  1  0
 72 68  1  0
 73 74  2  0
 74 75  1  0
 76 75  2  0
 77 76  1  0
 78 52  1  0
 78 83  1  0
 78 79  1  0
 79 82  1  1
 79 80  1  0
 81 79  1  0
 83 86  1  0
 84 88  1  0
 84 83  1  0
 85 84  2  0
 88 87  1  0
 90 88  1  0
 90 91  1  0
 90 89  1  0
M  ISO  4  13 100  14 100  50 101  51 101
M  END
>  <TORSDO>  (65) 
F 20

>  <SCORE>  (65) 
-13.644

>  <name>  (65) 
66

>  <ligand_id>  (65) 
66

>  <original_smiles>  (65) 
[H]c1c([H])c([H])c2c(c1[H])C([H])([H])C([H])([H])C([H])([H])C2([H])N([H])C(=O)C1([H])N(C(=O)C([H])(N([H])C(=O)C([H])(N([H])C([H])([H])[H])C([H])([H])[H])C(C([H])([H])[H])(C([H])([H])[H])C([H])([H])[H])C([H])([H])c2c([H])c(OC([H])([H])C34C([H])([H])C([H])([N+]([H])([H])C([H])([H])C([H])([H])C(=O)N5C([H])([H])C([H])([H])C([H])([H])C([H])(n6nc(-c7c([H])c([H])c(Oc8c([H])c([H])c(F)c([H])c8F)c([H])c7[H])c(C(=O)N([H])[H])c6N([H])[H])C5([H])[H])C([H])([H])C3([H])C([H])([H])C4([H])C([H])([H])[H])c([H])c([H])c2C1([H])[H]

>  <smiles>  (65) 
[H]c1c([H])c([H])c2c(c1[H])C([H])([H])C([H])([H])C([H])([H])C2([H])N([H])C(=O)C1([H])N(C(=O)C([H])(N([H])C(=O)C([H])(N([H])C([H])([H])[H])C([H])([H])[H])C(C([H])([H])[H])(C([H])([H])[H])C([H])([H])[H])C([H])([H])c2c([H])c(OC([H])([H])C34C([H])([H])C([H])([N+]([H])([H])C([H])([H])C([H])([H])C(=O)N5C([H])([H])C([H])([H])C([H])([H])C([H])(n6nc(-c7c([H])c([H])c(Oc8c([H])c([H])c(F)c([H])c8F)c([H])c7[H])c(C(=O)N([H])[H])c6N([H])[H])C5([H])[H])C([H])([H])C3([H])C([H])([H])C4([H])C([H])([H])[H])c([H])c([H])c2C1([H])[H]

$$$$
67:0:0
     RDKit          3D

 88 96  0  0  1  0  0  0  0  0999 V2000
  -26.7240  -23.3710   20.4970 C   0  0  0  0  0  2  0  0  0  0  0  0
  -27.4430  -22.6210   21.6230 C   0  0  0  0  0  2  0  0  0  0  0  0
  -28.1050  -23.9160   20.1320 C   0  0  0  0  0  3  0  0  0  0  0  0
  -28.6630  -22.6670   20.8110 N   0  0  2  0  0  4  0  0  0  0  0  0
  -29.4820  -22.8880   21.3560 H   0  0  0  0  0  0  0  0  0  0  0  0
  -28.4990  -25.3170   20.7760 C   0  0  0  0  0  2  0  0  0  0  0  0
  -28.3690  -26.5850   20.0380 O   0  0  0  0  0  0  0  0  0  0  0  0
  -24.6090  -31.8800   23.2110 C   0  0  0  0  0  0  0  0  0  0  0  0
  -27.2090  -27.3560   20.1290 C   0  0  0  0  0  0  0  0  0  0  0  0
  -23.3880  -30.4770   21.5840 C   0  0  0  0  0  3  0  0  0  0  0  0
  -24.8270  -28.9230   20.1500 C   0  0  0  0  0  0  0  0  0  0  0  0
  -25.9190  -30.8150   21.3630 C   0  0  0  0  0  2  0  0  0  0  0  0
  -25.9980  -29.4340   20.7250 C   0  0  0  0  0  0  0  0  0  0  0  0
  -27.1940  -28.6630   20.7010 C   0  0  0  0  0  3  0  0  0  0  0  0
  -26.0200  -26.8810   19.5420 C   0  0  0  0  0  3  0  0  0  0  0  0
  -24.8380  -27.6500   19.5530 C   0  0  0  0  0  3  0  0  0  0  0  0
  -23.5870  -29.7930   20.2040 C   0  0  0  0  0  2  0  0  0  0  0  0
  -24.6580  -31.0750   22.1100 N   0  0  0  0  0  0  0  0  0  0  0  0
  -23.5320  -32.1530   23.7610 O   0  0  0  0  0  0  0  0  0  0  0  0
  -22.7410  -29.4590   22.5540 C   0  0  0  0  0  0  0  0  0  0  0  0
  -21.4150  -29.2800   22.4420 N   0  0  0  0  0  0  0  0  0  0  0  0
  -23.4320  -28.8350   23.3640 O   0  0  0  0  0  0  0  0  0  0  0  0
  -20.9180  -29.8360   21.7620 H   0  0  0  0  0  0  0  0  0  0  0  0
  -18.0480  -28.0660   22.9660 C   0  0  0  0  0  0  0  0  0  0  0  0
  -20.6070  -28.3400   23.2210 C   0  0  0  0  0  3  0  0  0  0  0  0
  -20.7140  -26.9070   22.6470 C   0  0  0  0  0  2  0  0  0  0  0  0
  -19.6060  -26.5750   21.6410 C   0  0  0  0  0  2  0  0  0  0  0  0
  -18.2280  -26.7150   22.2940 C   0  0  0  0  0  2  0  0  0  0  0  0
  -19.1660  -28.8350   23.3870 C   0  0  0  0  0  0  0  0  0  0  0  0
  -18.9450  -30.0990   23.9760 C   0  0  0  0  0  3  0  0  0  0  0  0
  -17.6390  -30.5950   24.1490 C   0  0  0  0  0  3  0  0  0  0  0  0
  -16.5360  -29.8230   23.7450 C   0  0  0  0  0  3  0  0  0  0  0  0
  -16.7410  -28.5610   23.1600 C   0  0  0  0  0  3  0  0  0  0  0  0
  -25.8990  -32.5140   23.8190 C   0  0  0  0  0  3  0  0  0  0  0  0
  -25.5870  -33.9080   24.1660 N   0  0  0  0  0  0  0  0  0  0  0  0
  -25.9040  -34.9700   23.4140 C   0  0  0  0  0  0  0  0  0  0  0  0
  -26.5610  -34.8800   22.3720 O   0  0  0  0  0  0  0  0  0  0  0  0
  -25.0020  -34.0520   24.9760 H   0  0  0  0  0  0  0  0  0  0  0  0
  -24.1620  -36.7580   23.1050 C   0  0  0  0  0  1  0  0  0  0  0  0
  -25.4180  -36.3520   23.8920 C   0  0  0  0  0  3  0  0  0  0  0  0
  -27.5640  -37.2370   24.6920 C   0  0  0  0  0  1  0  0  0  0  0  0
  -26.4430  -37.4110   23.7720 N   0  0  0  0  0  0  0  0  0  0  0  0
  -26.0360  -38.3280   23.9370 H   0  0  0  0  0  0  0  0  0  0  0  0
  -26.4410  -31.7350   25.0810 C   0  0  1  0  0  0  0  0  0  0  0  0
  -25.3660  -31.4850   26.1650 C   0  0  0  0  0  1  0  0  0  0  0  0
  -27.0210  -30.3630   24.6660 C   0  0  0  0  0  1  0  0  0  0  0  0
  -27.6000  -32.5280   25.7280 C   0  0  0  0  0  1  0  0  0  0  0  0
  -28.8870  -21.3740   20.0230 C   0  0  0  0  0  2  0  0  0  0  0  0
  -29.6080  -20.1540   20.7770 C   0  0  0  0  0  3  0  0  0  0  0  0
  -29.3110  -18.6570   20.2990 C   0  0  0  0  0  3  0  0  0  0  0  0
  -30.2960  -17.4630   20.7110 C   0  0  0  0  0  2  0  0  0  0  0  0
  -29.6950  -15.9810   20.7500 C   0  0  0  0  0  2  0  0  0  0  0  0
  -30.5760  -14.6930   20.4360 C   0  0  0  0  0  0  0  0  0  0  0  0
  -30.4060  -12.4350   19.3930 C   0  0  0  0  0  2  0  0  0  0  0  0
  -29.4680  -12.5460   18.1690 C   0  0  0  0  0  2  0  0  0  0  0  0
  -27.9900  -12.3870   18.5830 C   0  0  0  0  0  2  0  0  0  0  0  0
  -27.6200  -13.2610   19.8090 C   0  0  0  0  0  3  0  0  0  0  0  0
  -28.6690  -13.1210   20.9320 C   0  0  0  0  0  2  0  0  0  0  0  0
  -29.9850  -13.4570   20.3730 N   0  0  0  0  0  0  0  0  0  0  0  0
  -31.7500  -14.8400   20.0780 O   0  0  0  0  0  0  0  0  0  0  0  0
  -25.2290  -13.8820   20.5150 C   0  0  0  0  0  0  0  0  0  0  0  0
  -24.1560  -13.1190   20.8840 C   0  0  0  0  0  0  0  0  0  0  0  0
  -24.6100  -11.7650   20.8650 C   0  0  0  0  0  0  0  0  0  0  0  0
  -26.2680  -12.9930   20.2890 N   0  0  0  0  0  0  0  0  0  0  0  0
  -25.9010  -11.7150   20.5630 N   0  0  0  0  0  0  0  0  0  0  0  0
  -23.8760  -10.5080   21.0610 C   0  0  0  0  0  0  0  0  0  0  0  0
  -24.3150   -9.5330   21.9840 C   0  0  0  0  0  3  0  0  0  0  0  0
  -23.5830   -8.3390   22.1660 C   0  0  0  0  0  3  0  0  0  0  0  0
  -22.3980   -8.1140   21.4260 C   0  0  0  0  0  0  0  0  0  0  0  0
  -21.9790   -9.0790   20.4920 C   0  0  0  0  0  3  0  0  0  0  0  0
  -22.7120  -10.2630   20.3080 C   0  0  0  0  0  3  0  0  0  0  0  0
  -21.6370   -6.9750   21.5180 O   0  0  0  0  0  0  0  0  0  0  0  0
  -21.6160   -6.2130   22.6590 C   0  0  0  0  0  0  0  0  0  0  0  0
  -21.2500   -6.7560   23.9100 C   0  0  0  0  0  3  0  0  0  0  0  0
  -21.1750   -5.9220   25.0440 C   0  0  0  0  0  3  0  0  0  0  0  0
  -21.4550   -4.5470   24.9280 C   0  0  0  0  0  0  0  0  0  0  0  0
  -21.8160   -4.0060   23.6820 C   0  0  0  0  0  3  0  0  0  0  0  0
  -21.8930   -4.8360   22.5500 C   0  0  0  0  0  0  0  0  0  0  0  0
  -22.2180   -4.3030   21.3470 F   0  0  0  0  0  0  0  0  0  0  0  0
  -21.3760   -3.7450   26.0150 F   0  0  0  0  0  0  0  0  0  0  0  0
  -22.7580  -13.6060   21.1440 C   0  0  0  0  0  0  0  0  0  0  0  0
  -22.0210  -12.9210   22.0120 N   0  0  0  0  0  0  0  0  0  0  0  0
  -22.3280  -14.6280   20.6120 O   0  0  0  0  0  0  0  0  0  0  0  0
  -22.3830  -12.0940   22.4650 H   0  0  0  0  0  0  0  0  0  0  0  0
  -21.0830  -13.2280   22.2260 H   0  0  0  0  0  0  0  0  0  0  0  0
  -25.4050  -15.2510   20.3300 N   0  0  0  0  0  0  0  0  0  0  0  0
  -24.6470  -15.9170   20.4370 H   0  0  0  0  0  0  0  0  0  0  0  0
  -26.2660  -15.6800   20.0170 H   0  0  0  0  0  0  0  0  0  0  0  0
  1  2  1  0
  3  1  1  0
  3  6  1  0
  3  4  1  0
  4  5  1  1
  4  2  1  0
  7  9  1  0
  7  6  1  0
  8 19  2  0
  9 14  1  0
 10 18  1  0
 10 20  1  0
 11 17  1  0
 11 13  1  0
 12 18  1  0
 13 12  1  0
 14 13  2  0
 15 16  1  0
 15  9  2  0
 16 11  2  0
 17 10  1  0
 18  8  1  0
 20 22  2  0
 21 20  1  0
 23 21  1  0
 24 33  2  0
 24 29  1  0
 25 21  1  0
 25 29  1  0
 26 25  1  0
 27 28  1  0
 27 26  1  0
 28 24  1  0
 29 30  2  0
 30 31  1  0
 32 31  2  0
 33 32  1  0
 34  8  1  0
 34 35  1  0
 34 44  1  0
 35 38  1  0
 36 40  1  0
 36 35  1  0
 37 36  2  0
 40 39  1  0
 42 40  1  0
 42 43  1  0
 42 41  1  0
 44 47  1  1
 44 45  1  0
 46 44  1  0
 48 49  1  0
 48  4  1  0
 50 51  1  0
 50 49  2  0
 51 52  1  0
 53 52  1  0
 54 59  1  0
 55 56  1  0
 55 54  1  0
 57 56  1  0
 57 64  1  0
 57 58  1  0
 59 53  1  0
 59 58  1  0
 60 53  2  0
 61 62  2  0
 62 81  1  0
 63 62  1  0
 63 66  1  0
 64 61  1  0
 64 65  1  0
 65 63  2  0
 66 67  1  0
 67 68  2  0
 69 72  1  0
 69 68  1  0
 70 69  2  0
 71 70  1  0
 71 66  2  0
 72 73  1  0
 73 74  1  0
 74 75  2  0
 76 75  1  0
 76 80  1  0
 77 76  2  0
 78 73  2  0
 78 77  1  0
 79 78  1  0
 81 82  1  0
 82 85  1  0
 82 84  1  0
 83 81  2  0
 86 87  1  0
 86 61  1  0
 88 86  1  0
M  ISO  4   6 101   7 101  52 100  53 100
M  END
>  <TORSDO>  (66) 
F 22

>  <SCORE>  (66) 
-12.983

>  <name>  (66) 
67

>  <ligand_id>  (66) 
67

>  <original_smiles>  (66) 
[H]c1c([H])c([H])c2c(c1[H])C([H])([H])C([H])([H])C([H])([H])C2([H])N([H])C(=O)C1([H])N(C(=O)C([H])(N([H])C(=O)C([H])(N([H])C([H])([H])[H])C([H])([H])[H])C(C([H])([H])[H])(C([H])([H])[H])C([H])([H])[H])C([H])([H])c2c([H])c(OC([H])([H])C3([H])C([H])([H])C([H])([H])[N+]3([H])C([H])([H])C([H])([H])C([H])([H])C([H])([H])C([H])([H])C(=O)N3C([H])([H])C([H])([H])C([H])([H])C([H])(n4nc(-c5c([H])c([H])c(Oc6c([H])c([H])c(F)c([H])c6F)c([H])c5[H])c(C(=O)N([H])[H])c4N([H])[H])C3([H])[H])c([H])c([H])c2C1([H])[H]

>  <smiles>  (66) 
[H]c1c([H])c([H])c2c(c1[H])C([H])([H])C([H])([H])C([H])([H])C2([H])N([H])C(=O)C1([H])N(C(=O)C([H])(N([H])C(=O)C([H])(N([H])C([H])([H])[H])C([H])([H])[H])C(C([H])([H])[H])(C([H])([H])[H])C([H])([H])[H])C([H])([H])c2c([H])c(OC([H])([H])C3([H])C([H])([H])C([H])([H])[N+]3([H])C([H])([H])C([H])([H])C([H])([H])C([H])([H])C([H])([H])C(=O)N3C([H])([H])C([H])([H])C([H])([H])C([H])(n4nc(-c5c([H])c([H])c(Oc6c([H])c([H])c(F)c([H])c6F)c([H])c5[H])c(C(=O)N([H])[H])c4N([H])[H])C3([H])[H])c([H])c([H])c2C1([H])[H]

$$$$
68:0:0
     RDKit          3D

 92100  0  0  1  0  0  0  0  0999 V2000
  -29.7790  -20.9180   20.7230 C   0  0  0  0  0  3  0  0  0  0  0  0
  -29.9010  -16.5770   20.1020 C   0  0  0  0  0  3  0  0  0  0  0  0
  -30.0960  -17.9260   21.0170 C   0  0  0  0  0  3  0  0  0  0  0  0
  -29.8920  -17.1720   18.6510 C   0  0  0  0  0  3  0  0  0  0  0  0
  -29.3890  -19.3030   20.4020 C   0  0  0  0  0  3  0  0  0  0  0  0
  -29.5790  -17.5310   22.4240 C   0  0  0  0  0  1  0  0  0  0  0  0
  -28.8910  -16.4970   17.7030 C   0  0  0  0  0  1  0  0  0  0  0  0
  -29.5410  -18.9830   18.6280 S   0  0  0  0  0  0  0  0  0  0  0  0
  -30.8030  -15.1810   20.2130 C   0  0  0  0  0  0  0  0  0  0  0  0
  -30.7540  -12.8210   19.3300 C   0  0  0  0  0  2  0  0  0  0  0  0
  -29.7950  -12.7380   18.1200 C   0  0  0  0  0  2  0  0  0  0  0  0
  -28.3280  -12.5640   18.5690 C   0  0  0  0  0  2  0  0  0  0  0  0
  -27.9280  -13.4610   19.7690 C   0  0  0  0  0  3  0  0  0  0  0  0
  -29.0170  -13.4760   20.8600 C   0  0  0  0  0  2  0  0  0  0  0  0
  -30.2710  -13.8980   20.2310 N   0  0  0  0  0  0  0  0  0  0  0  0
  -32.0180  -15.2690   19.9980 O   0  0  0  0  0  0  0  0  0  0  0  0
  -25.5680  -13.9550   20.6430 C   0  0  0  0  0  0  0  0  0  0  0  0
  -24.5310  -13.1410   21.0030 C   0  0  0  0  0  0  0  0  0  0  0  0
  -25.0230  -11.8020   20.8920 C   0  0  0  0  0  0  0  0  0  0  0  0
  -26.6160  -13.1140   20.3090 N   0  0  0  0  0  0  0  0  0  0  0  0
  -26.2990  -11.8110   20.5310 N   0  0  0  0  0  0  0  0  0  0  0  0
  -24.3350  -10.5150   21.0480 C   0  0  0  0  0  0  0  0  0  0  0  0
  -24.7570   -9.5600   21.9990 C   0  0  0  0  0  3  0  0  0  0  0  0
  -24.0660   -8.3360   22.1400 C   0  0  0  0  0  3  0  0  0  0  0  0
  -22.9380   -8.0600   21.3300 C   0  0  0  0  0  0  0  0  0  0  0  0
  -22.5380   -9.0040   20.3690 C   0  0  0  0  0  3  0  0  0  0  0  0
  -23.2300  -10.2190   20.2270 C   0  0  0  0  0  3  0  0  0  0  0  0
  -22.2170   -6.8920   21.3850 O   0  0  0  0  0  0  0  0  0  0  0  0
  -22.0240   -6.2200   22.5660 C   0  0  0  0  0  0  0  0  0  0  0  0
  -21.3700   -6.8150   23.6670 C   0  0  0  0  0  3  0  0  0  0  0  0
  -21.1310   -6.0630   24.8340 C   0  0  0  0  0  3  0  0  0  0  0  0
  -21.5370   -4.7160   24.9010 C   0  0  0  0  0  0  0  0  0  0  0  0
  -22.1830   -4.1200   23.8030 C   0  0  0  0  0  3  0  0  0  0  0  0
  -22.4230   -4.8700   22.6380 C   0  0  0  0  0  0  0  0  0  0  0  0
  -23.0270   -4.2850   21.5760 F   0  0  0  0  0  0  0  0  0  0  0  0
  -21.3010   -3.9910   26.0190 F   0  0  0  0  0  0  0  0  0  0  0  0
  -23.1330  -13.5700   21.3440 C   0  0  0  0  0  0  0  0  0  0  0  0
  -22.4550  -12.8250   22.2080 N   0  0  0  0  0  0  0  0  0  0  0  0
  -22.6490  -14.6000   20.8720 O   0  0  0  0  0  0  0  0  0  0  0  0
  -22.8540  -11.9840   22.5980 H   0  0  0  0  0  0  0  0  0  0  0  0
  -21.5160  -13.0880   22.4780 H   0  0  0  0  0  0  0  0  0  0  0  0
  -25.7120  -15.3380   20.5520 N   0  0  0  0  0  0  0  0  0  0  0  0
  -24.9840  -15.9800   20.8460 H   0  0  0  0  0  0  0  0  0  0  0  0
  -26.5910  -15.7950   20.3590 H   0  0  0  0  0  0  0  0  0  0  0  0
  -28.8510  -22.1040   20.2490 N   0  0  0  0  0  4  0  0  0  0  0  0
  -27.9430  -21.9320   20.6510 H   0  0  0  0  0  0  0  0  0  0  0  0
  -28.7320  -21.9800   19.2550 H   0  0  0  0  0  0  0  0  0  0  0  0
  -29.2050  -23.6350   20.4880 C   0  0  0  0  0  3  0  0  0  0  0  0
  -28.1190  -24.8800   20.2210 C   0  0  0  0  0  3  0  0  0  0  0  0
  -28.3590  -26.4020   20.4100 O   0  0  0  0  0  0  0  0  0  0  0  0
  -24.5490  -31.9970   23.2940 C   0  0  0  0  0  0  0  0  0  0  0  0
  -27.2800  -27.3510   20.3180 C   0  0  0  0  0  0  0  0  0  0  0  0
  -23.4160  -30.5870   21.6210 C   0  0  0  0  0  3  0  0  0  0  0  0
  -24.9260  -29.0460   20.2300 C   0  0  0  0  0  0  0  0  0  0  0  0
  -25.9670  -30.9020   21.5200 C   0  0  0  0  0  2  0  0  0  0  0  0
  -26.0810  -29.5130   20.8710 C   0  0  0  0  0  0  0  0  0  0  0  0
  -27.2580  -28.6790   20.9030 C   0  0  0  0  0  3  0  0  0  0  0  0
  -26.0960  -26.9810   19.6390 C   0  0  0  0  0  3  0  0  0  0  0  0
  -24.9440  -27.7930   19.6020 C   0  0  0  0  0  3  0  0  0  0  0  0
  -23.6870  -29.9250   20.2440 C   0  0  0  0  0  2  0  0  0  0  0  0
  -24.6630  -31.1830   22.2030 N   0  0  0  0  0  0  0  0  0  0  0  0
  -23.4460  -32.2590   23.7970 O   0  0  0  0  0  0  0  0  0  0  0  0
  -22.7300  -29.5610   22.5600 C   0  0  0  0  0  0  0  0  0  0  0  0
  -21.4150  -29.3490   22.3820 N   0  0  0  0  0  0  0  0  0  0  0  0
  -23.3880  -28.9610   23.4120 O   0  0  0  0  0  0  0  0  0  0  0  0
  -20.9390  -29.8900   21.6750 H   0  0  0  0  0  0  0  0  0  0  0  0
  -18.0560  -28.0410   22.7500 C   0  0  0  0  0  0  0  0  0  0  0  0
  -20.5910  -28.3910   23.1270 C   0  0  0  0  0  3  0  0  0  0  0  0
  -20.7640  -26.9560   22.5750 C   0  0  0  0  0  2  0  0  0  0  0  0
  -19.7190  -26.5870   21.5160 C   0  0  0  0  0  2  0  0  0  0  0  0
  -18.3060  -26.6900   22.0970 C   0  0  0  0  0  2  0  0  0  0  0  0
  -19.1290  -28.8450   23.2180 C   0  0  0  0  0  0  0  0  0  0  0  0
  -18.8430  -30.1040   23.7890 C   0  0  0  0  0  3  0  0  0  0  0  0
  -17.5150  -30.5620   23.8940 C   0  0  0  0  0  3  0  0  0  0  0  0
  -16.4560  -29.7570   23.4400 C   0  0  0  0  0  3  0  0  0  0  0  0
  -16.7270  -28.4980   22.8750 C   0  0  0  0  0  3  0  0  0  0  0  0
  -25.8010  -32.6540   23.9540 C   0  0  0  0  0  3  0  0  0  0  0  0
  -25.4720  -34.0590   24.2410 N   0  0  0  0  0  0  0  0  0  0  0  0
  -25.7990  -35.0960   23.4590 C   0  0  0  0  0  0  0  0  0  0  0  0
  -26.4740  -34.9710   22.4330 O   0  0  0  0  0  0  0  0  0  0  0  0
  -24.8780  -34.2290   25.0390 H   0  0  0  0  0  0  0  0  0  0  0  0
  -24.0410  -36.8550   23.0660 C   0  0  0  0  0  1  0  0  0  0  0  0
  -25.2960  -36.4930   23.8760 C   0  0  0  0  0  3  0  0  0  0  0  0
  -27.4230  -37.4420   24.6590 C   0  0  0  0  0  1  0  0  0  0  0  0
  -26.3110  -37.5580   23.7190 N   0  0  0  0  0  0  0  0  0  0  0  0
  -25.8910  -38.4750   23.8410 H   0  0  0  0  0  0  0  0  0  0  0  0
  -26.2650  -31.9180   25.2700 C   0  0  1  0  0  0  0  0  0  0  0  0
  -25.1250  -31.6860   26.2890 C   0  0  0  0  0  1  0  0  0  0  0  0
  -26.8880  -30.5420   24.9360 C   0  0  0  0  0  1  0  0  0  0  0  0
  -27.3690  -32.7440   25.9710 C   0  0  0  0  0  1  0  0  0  0  0  0
  -31.6200  -21.4300   22.4550 C   0  0  0  0  0  1  0  0  0  0  0  0
  -30.1310  -21.1520   22.2130 C   0  0  0  0  0  2  0  0  0  0  0  0
  1 92  1  0
  2  9  1  0
  2  3  1  0
  3  6  1  0
  4  7  1  0
  4  2  1  0
  5  1  1  0
  5  3  1  0
  8  4  1  0
  8  5  1  0
  9 15  1  0
 10 15  1  0
 11 12  1  0
 11 10  1  0
 13 12  1  0
 13 20  1  0
 13 14  1  0
 15 14  1  0
 16  9  2  0
 17 18  2  0
 18 37  1  0
 19 18  1  0
 19 22  1  0
 20 21  1  0
 20 17  1  0
 21 19  2  0
 22 23  1  0
 23 24  2  0
 25 28  1  0
 25 24  1  0
 26 25  2  0
 27 26  1  0
 27 22  2  0
 28 29  1  0
 29 34  2  0
 29 30  1  0
 30 31  2  0
 31 32  1  0
 32 36  1  0
 33 32  2  0
 34 33  1  0
 35 34  1  0
 37 38  1  0
 38 41  1  0
 38 40  1  0
 39 37  2  0
 42 17  1  0
 42 43  1  0
 44 42  1  0
 45 48  1  0
 45 46  1  0
 45  1  1  0
 47 45  1  0
 49 50  1  0
 49 48  2  0
 51 62  2  0
 52 50  1  0
 52 57  1  0
 53 61  1  0
 53 63  1  0
 54 60  1  0
 54 56  1  0
 55 61  1  0
 56 57  2  0
 56 55  1  0
 58 52  2  0
 59 58  1  0
 59 54  2  0
 60 53  1  0
 61 51  1  0
 63 65  2  0
 64 63  1  0
 66 64  1  0
 67 76  2  0
 67 72  1  0
 68 64  1  0
 68 72  1  0
 69 68  1  0
 70 71  1  0
 70 69  1  0
 71 67  1  0
 72 73  2  0
 73 74  1  0
 75 74  2  0
 76 75  1  0
 77 51  1  0
 77 78  1  0
 77 87  1  0
 78 81  1  0
 79 83  1  0
 79 78  1  0
 80 79  2  0
 83 82  1  0
 85 86  1  0
 85 83  1  0
 85 84  1  0
 87 90  1  1
 87 88  1  0
 89 87  1  0
 92 91  1  0
M  ISO  4   2 100   9 100  49 101  50 101
M  END
>  <TORSDO>  (67) 
F 21

>  <SCORE>  (67) 
-10.436

>  <name>  (67) 
68

>  <ligand_id>  (67) 
68

>  <original_smiles>  (67) 
[H]c1c([H])c([H])c2c(c1[H])C([H])([H])C([H])([H])C([H])([H])C2([H])N([H])C(=O)C1([H])N(C(=O)C([H])(N([H])C(=O)C([H])(N([H])C([H])([H])[H])C([H])([H])[H])C(C([H])([H])[H])(C([H])([H])[H])C([H])([H])[H])C([H])([H])c2c([H])c(OC([H])([H])C([H])([H])[N+]([H])([H])C([H])(C([H])([H])C([H])([H])[H])C3([H])SC([H])(C([H])([H])[H])C([H])(C(=O)N4C([H])([H])C([H])([H])C([H])([H])C([H])(n5nc(-c6c([H])c([H])c(Oc7c([H])c([H])c(F)c([H])c7F)c([H])c6[H])c(C(=O)N([H])[H])c5N([H])[H])C4([H])[H])C3([H])C([H])([H])[H])c([H])c([H])c2C1([H])[H]

>  <smiles>  (67) 
[H]c1c([H])c([H])c2c(c1[H])C([H])([H])C([H])([H])C([H])([H])C2([H])N([H])C(=O)C1([H])N(C(=O)C([H])(N([H])C(=O)C([H])(N([H])C([H])([H])[H])C([H])([H])[H])C(C([H])([H])[H])(C([H])([H])[H])C([H])([H])[H])C([H])([H])c2c([H])c(OC([H])([H])C([H])([H])[N+]([H])([H])C([H])(C([H])([H])C([H])([H])[H])C3([H])SC([H])(C([H])([H])[H])C([H])(C(=O)N4C([H])([H])C([H])([H])C([H])([H])C([H])(n5nc(-c6c([H])c([H])c(Oc7c([H])c([H])c(F)c([H])c7F)c([H])c6[H])c(C(=O)N([H])[H])c5N([H])[H])C4([H])[H])C3([H])C([H])([H])[H])c([H])c([H])c2C1([H])[H]

$$$$
69:0:0
     RDKit          3D

 93102  0  0  1  0  0  0  0  0999 V2000
  -29.0580  -21.5770   19.7300 C   0  0  0  0  0  3  0  0  0  0  0  0
  -25.7330  -20.3860   18.0670 C   0  0  0  0  0  2  0  0  0  0  0  0
  -26.8670  -20.1450   19.0750 C   0  0  0  0  0  2  0  0  0  0  0  0
  -26.0350  -21.7060   17.3890 C   0  0  0  0  0  3  0  0  0  0  0  0
  -27.1600  -22.3870   18.1350 C   0  0  0  0  0  3  0  0  0  0  0  0
  -27.5460  -21.5180   19.3190 C   0  0  0  0  0  3  0  0  0  0  0  0
  -25.8060  -23.0640   18.0130 C   0  0  2  0  0  0  0  0  0  0  0  0
  -24.8810  -23.2330   19.2130 C   0  0  0  0  0  1  0  0  0  0  0  0
  -25.6940  -24.2810   17.1170 C   0  0  0  0  0  1  0  0  0  0  0  0
  -29.4630  -20.1740   20.5080 N   0  0  0  0  0  4  0  0  0  0  0  0
  -30.3610  -20.3580   20.9250 H   0  0  0  0  0  0  0  0  0  0  0  0
  -28.8230  -20.1230   21.2840 H   0  0  0  0  0  0  0  0  0  0  0  0
  -29.5980  -18.6290   19.9270 C   0  0  0  0  0  2  0  0  0  0  0  0
  -29.6980  -17.0710   20.7790 C   0  0  0  0  0  2  0  0  0  0  0  0
  -30.4770  -15.5420   20.4860 C   0  0  0  0  0  0  0  0  0  0  0  0
  -30.6150  -13.0230   19.8850 C   0  0  0  0  0  2  0  0  0  0  0  0
  -29.8050  -12.6890   18.6060 C   0  0  0  0  0  2  0  0  0  0  0  0
  -28.3340  -12.3990   18.9570 C   0  0  0  0  0  2  0  0  0  0  0  0
  -27.7650  -13.4460   19.9490 C   0  0  0  0  0  3  0  0  0  0  0  0
  -28.7150  -13.7370   21.1320 C   0  0  0  0  0  2  0  0  0  0  0  0
  -29.9870  -14.2110   20.5700 N   0  0  0  0  0  0  0  0  0  0  0  0
  -31.6780  -15.5730   20.1800 O   0  0  0  0  0  0  0  0  0  0  0  0
  -25.3480  -13.9770   20.5710 C   0  0  0  0  0  0  0  0  0  0  0  0
  -24.2810  -13.1880   20.8950 C   0  0  0  0  0  0  0  0  0  0  0  0
  -24.7690  -11.8450   20.9030 C   0  0  0  0  0  0  0  0  0  0  0  0
  -26.4150  -13.1160   20.3880 N   0  0  0  0  0  0  0  0  0  0  0  0
  -26.0750  -11.8270   20.6560 N   0  0  0  0  0  0  0  0  0  0  0  0
  -24.0520  -10.5740   21.0710 C   0  0  0  0  0  0  0  0  0  0  0  0
  -24.4670   -9.6110   22.0180 C   0  0  0  0  0  3  0  0  0  0  0  0
  -23.7460   -8.4060   22.1770 C   0  0  0  0  0  3  0  0  0  0  0  0
  -22.5970   -8.1570   21.3890 C   0  0  0  0  0  0  0  0  0  0  0  0
  -22.2020   -9.1090   20.4330 C   0  0  0  0  0  3  0  0  0  0  0  0
  -22.9220  -10.3050   20.2740 C   0  0  0  0  0  3  0  0  0  0  0  0
  -21.8510   -7.0040   21.4550 O   0  0  0  0  0  0  0  0  0  0  0  0
  -21.7920   -6.2510   22.6000 C   0  0  0  0  0  0  0  0  0  0  0  0
  -21.3480   -6.7930   23.8260 C   0  0  0  0  0  3  0  0  0  0  0  0
  -21.2350   -5.9650   24.9620 C   0  0  0  0  0  3  0  0  0  0  0  0
  -21.5560   -4.5980   24.8730 C   0  0  0  0  0  0  0  0  0  0  0  0
  -21.9910   -4.0550   23.6510 C   0  0  0  0  0  3  0  0  0  0  0  0
  -22.1050   -4.8800   22.5170 C   0  0  0  0  0  0  0  0  0  0  0  0
  -22.5060   -4.3470   21.3380 F   0  0  0  0  0  0  0  0  0  0  0  0
  -21.4400   -3.8010   25.9610 F   0  0  0  0  0  0  0  0  0  0  0  0
  -22.8660  -13.6470   21.0890 C   0  0  0  0  0  0  0  0  0  0  0  0
  -22.1110  -12.9620   21.9390 N   0  0  0  0  0  0  0  0  0  0  0  0
  -22.4380  -14.6510   20.5200 O   0  0  0  0  0  0  0  0  0  0  0  0
  -22.4690  -12.1500   22.4200 H   0  0  0  0  0  0  0  0  0  0  0  0
  -21.1610  -13.2550   22.1150 H   0  0  0  0  0  0  0  0  0  0  0  0
  -25.5020  -15.3490   20.3920 N   0  0  0  0  0  0  0  0  0  0  0  0
  -24.7240  -15.9930   20.4750 H   0  0  0  0  0  0  0  0  0  0  0  0
  -26.3650  -15.8000   20.1140 H   0  0  0  0  0  0  0  0  0  0  0  0
  -29.2910  -23.2600   20.2770 C   0  0  0  0  0  3  0  0  0  0  0  0
  -28.4820  -24.7780   19.8040 C   0  0  0  0  0  3  0  0  0  0  0  0
  -28.6510  -26.3460   20.2080 O   0  0  0  0  0  0  0  0  0  0  0  0
  -24.7700  -31.9320   23.3700 C   0  0  0  0  0  0  0  0  0  0  0  0
  -27.5960  -27.3830   20.1610 C   0  0  0  0  0  0  0  0  0  0  0  0
  -23.6840  -30.6150   21.5960 C   0  0  0  0  0  3  0  0  0  0  0  0
  -25.2350  -29.1580   20.1340 C   0  0  0  0  0  0  0  0  0  0  0  0
  -26.2420  -30.9250   21.5640 C   0  0  0  0  0  2  0  0  0  0  0  0
  -26.3810  -29.5690   20.8240 C   0  0  0  0  0  0  0  0  0  0  0  0
  -27.5610  -28.7040   20.8120 C   0  0  0  0  0  3  0  0  0  0  0  0
  -26.4170  -27.1100   19.4330 C   0  0  0  0  0  3  0  0  0  0  0  0
  -25.2760  -27.9500   19.4190 C   0  0  0  0  0  3  0  0  0  0  0  0
  -23.9840  -30.0310   20.1880 C   0  0  0  0  0  2  0  0  0  0  0  0
  -24.9180  -31.1800   22.2330 N   0  0  0  0  0  0  0  0  0  0  0  0
  -23.6550  -32.1510   23.8680 O   0  0  0  0  0  0  0  0  0  0  0  0
  -22.9890  -29.5360   22.4650 C   0  0  0  0  0  0  0  0  0  0  0  0
  -21.6640  -29.3640   22.2970 N   0  0  0  0  0  0  0  0  0  0  0  0
  -23.6460  -28.8600   23.2590 O   0  0  0  0  0  0  0  0  0  0  0  0
  -21.1890  -29.9590   21.6340 H   0  0  0  0  0  0  0  0  0  0  0  0
  -18.2840  -28.1110   22.6820 C   0  0  0  0  0  0  0  0  0  0  0  0
  -20.8410  -28.3550   22.9740 C   0  0  0  0  0  3  0  0  0  0  0  0
  -20.9470  -26.9830   22.2680 C   0  0  0  0  0  2  0  0  0  0  0  0
  -19.8470  -26.7550   21.2250 C   0  0  0  0  0  2  0  0  0  0  0  0
  -18.4650  -26.8320   21.8800 C   0  0  0  0  0  2  0  0  0  0  0  0
  -19.3990  -28.8330   23.1840 C   0  0  0  0  0  0  0  0  0  0  0  0
  -19.1730  -30.0290   23.8990 C   0  0  0  0  0  3  0  0  0  0  0  0
  -17.8670  -30.5100   24.1060 C   0  0  0  0  0  3  0  0  0  0  0  0
  -16.7660  -29.7860   23.6160 C   0  0  0  0  0  3  0  0  0  0  0  0
  -16.9760  -28.5850   22.9140 C   0  0  0  0  0  3  0  0  0  0  0  0
  -25.9990  -32.5640   24.0940 C   0  0  0  0  0  3  0  0  0  0  0  0
  -25.6630  -33.9610   24.4180 N   0  0  0  0  0  0  0  0  0  0  0  0
  -26.0270  -35.0260   23.6920 C   0  0  0  0  0  0  0  0  0  0  0  0
  -26.7440  -34.9350   22.6920 O   0  0  0  0  0  0  0  0  0  0  0  0
  -25.0290  -34.1030   25.1890 H   0  0  0  0  0  0  0  0  0  0  0  0
  -24.2980  -36.8140   23.3000 C   0  0  0  0  0  1  0  0  0  0  0  0
  -25.5180  -36.4100   24.1430 C   0  0  0  0  0  3  0  0  0  0  0  0
  -27.6230  -37.3060   25.0350 C   0  0  0  0  0  1  0  0  0  0  0  0
  -26.5450  -37.4700   24.0640 N   0  0  0  0  0  0  0  0  0  0  0  0
  -26.1290  -38.3880   24.2010 H   0  0  0  0  0  0  0  0  0  0  0  0
  -26.4130  -31.7860   25.4060 C   0  0  1  0  0  0  0  0  0  0  0  0
  -25.2420  -31.5530   26.3900 C   0  0  0  0  0  1  0  0  0  0  0  0
  -27.0170  -30.4050   25.0630 C   0  0  0  0  0  1  0  0  0  0  0  0
  -27.5140  -32.5730   26.1540 C   0  0  0  0  0  1  0  0  0  0  0  0
  1 51  1  0
  1 10  1  0
  2  3  1  0
  3  6  1  0
  4  7  1  0
  4  2  1  0
  4  5  1  0
  5  7  1  0
  5  6  1  0
  6  1  1  0
  7  8  1  1
  9  7  1  0
 10 11  1  0
 10 12  1  0
 13 10  1  0
 13 14  1  0
 15 21  1  0
 15 14  1  0
 16 21  1  0
 17 18  1  0
 17 16  1  0
 19 18  1  0
 19 26  1  0
 19 20  1  0
 21 20  1  0
 22 15  2  0
 23 24  2  0
 24 25  1  0
 24 43  1  0
 25 28  1  0
 26 23  1  0
 26 27  1  0
 27 25  2  0
 28 29  1  0
 29 30  2  0
 31 34  1  0
 31 30  1  0
 32 31  2  0
 33 32  1  0
 33 28  2  0
 34 35  1  0
 35 36  1  0
 36 37  2  0
 38 37  1  0
 38 42  1  0
 39 38  2  0
 40 35  2  0
 40 39  1  0
 41 40  1  0
 43 44  1  0
 44 47  1  0
 44 46  1  0
 45 43  2  0
 48 49  1  0
 48 23  1  0
 50 48  1  0
 52 53  1  0
 52 51  2  0
 54 65  2  0
 55 53  1  0
 55 60  1  0
 56 64  1  0
 56 66  1  0
 57 63  1  0
 57 59  1  0
 58 64  1  0
 59 58  1  0
 60 59  2  0
 61 55  2  0
 62 61  1  0
 62 57  2  0
 63 56  1  0
 64 54  1  0
 66 68  2  0
 67 66  1  0
 69 67  1  0
 70 79  2  0
 70 75  1  0
 71 67  1  0
 71 75  1  0
 72 71  1  0
 73 74  1  0
 73 72  1  0
 74 70  1  0
 75 76  2  0
 76 77  1  0
 78 77  2  0
 79 78  1  0
 80 54  1  0
 80 81  1  0
 80 90  1  0
 81 84  1  0
 82 86  1  0
 82 81  1  0
 83 82  2  0
 86 85  1  0
 88 86  1  0
 88 89  1  0
 88 87  1  0
 90 93  1  1
 90 91  1  0
 92 90  1  0
M  ISO  4  14 100  15 100  52 101  53 101
M  END
>  <TORSDO>  (68) 
F 22

>  <SCORE>  (68) 
-14.419

>  <name>  (68) 
69

>  <ligand_id>  (68) 
69

>  <original_smiles>  (68) 
[H]c1c([H])c([H])c2c(c1[H])C([H])([H])C([H])([H])C([H])([H])C2([H])N([H])C(=O)C1([H])N(C(=O)C([H])(N([H])C(=O)C([H])(N([H])C([H])([H])[H])C([H])([H])[H])C(C([H])([H])[H])(C([H])([H])[H])C([H])([H])[H])C([H])([H])c2c([H])c(OC([H])([H])C([H])([H])C([H])(C3([H])C([H])([H])C([H])([H])C4([H])C3([H])C4(C([H])([H])[H])C([H])([H])[H])[N+]([H])([H])C([H])([H])C([H])([H])C(=O)N3C([H])([H])C([H])([H])C([H])([H])C([H])(n4nc(-c5c([H])c([H])c(Oc6c([H])c([H])c(F)c([H])c6F)c([H])c5[H])c(C(=O)N([H])[H])c4N([H])[H])C3([H])[H])c([H])c([H])c2C1([H])[H]

>  <smiles>  (68) 
[H]c1c([H])c([H])c2c(c1[H])C([H])([H])C([H])([H])C([H])([H])C2([H])N([H])C(=O)C1([H])N(C(=O)C([H])(N([H])C(=O)C([H])(N([H])C([H])([H])[H])C([H])([H])[H])C(C([H])([H])[H])(C([H])([H])[H])C([H])([H])[H])C([H])([H])c2c([H])c(OC([H])([H])C([H])([H])C([H])(C3([H])C([H])([H])C([H])([H])C4([H])C3([H])C4(C([H])([H])[H])C([H])([H])[H])[N+]([H])([H])C([H])([H])C([H])([H])C(=O)N3C([H])([H])C([H])([H])C([H])([H])C([H])(n4nc(-c5c([H])c([H])c(Oc6c([H])c([H])c(F)c([H])c6F)c([H])c5[H])c(C(=O)N([H])[H])c4N([H])[H])C3([H])[H])c([H])c([H])c2C1([H])[H]

$$$$
70:0:0
     RDKit          3D

 93101  0  0  1  0  0  0  0  0999 V2000
  -29.8600  -23.5110   21.2050 C   0  0  0  0  0  2  0  0  0  0  0  0
  -30.1720  -21.9780   21.1620 C   0  0  0  0  0  2  0  0  0  0  0  0
  -28.4000  -22.4300   19.6520 C   0  0  0  0  0  2  0  0  0  0  0  0
  -28.5520  -23.7900   20.4280 C   0  0  0  0  0  3  0  0  0  0  0  0
  -28.9760  -21.2410   20.5220 C   0  0  0  0  0  3  0  0  0  0  0  0
  -28.5120  -25.1400   19.5580 C   0  0  0  0  0  2  0  0  0  0  0  0
  -28.4080  -26.4850   20.1810 O   0  0  0  0  0  0  0  0  0  0  0  0
  -24.6490  -31.8520   23.1900 C   0  0  0  0  0  0  0  0  0  0  0  0
  -27.2570  -27.2920   20.1200 C   0  0  0  0  0  0  0  0  0  0  0  0
  -23.4380  -30.4540   21.5550 C   0  0  0  0  0  3  0  0  0  0  0  0
  -24.8830  -28.9040   20.1250 C   0  0  0  0  0  0  0  0  0  0  0  0
  -25.9760  -30.7740   21.3590 C   0  0  0  0  0  2  0  0  0  0  0  0
  -26.0540  -29.3960   20.7120 C   0  0  0  0  0  0  0  0  0  0  0  0
  -27.2380  -28.6010   20.7010 C   0  0  0  0  0  3  0  0  0  0  0  0
  -26.0520  -26.8470   19.5270 C   0  0  0  0  0  3  0  0  0  0  0  0
  -24.8850  -27.6350   19.5260 C   0  0  0  0  0  3  0  0  0  0  0  0
  -23.6470  -29.7770   20.1750 C   0  0  0  0  0  2  0  0  0  0  0  0
  -24.7070  -31.0440   22.0920 N   0  0  0  0  0  0  0  0  0  0  0  0
  -23.5670  -32.1290   23.7310 O   0  0  0  0  0  0  0  0  0  0  0  0
  -22.7800  -29.4370   22.5180 C   0  0  0  0  0  0  0  0  0  0  0  0
  -21.4520  -29.2660   22.4040 N   0  0  0  0  0  0  0  0  0  0  0  0
  -23.4640  -28.8030   23.3270 O   0  0  0  0  0  0  0  0  0  0  0  0
  -20.9590  -29.8280   21.7230 H   0  0  0  0  0  0  0  0  0  0  0  0
  -18.0740  -28.0890   22.9380 C   0  0  0  0  0  0  0  0  0  0  0  0
  -20.6360  -28.3320   23.1810 C   0  0  0  0  0  3  0  0  0  0  0  0
  -20.7230  -26.9020   22.5980 C   0  0  0  0  0  2  0  0  0  0  0  0
  -19.6080  -26.5900   21.5950 C   0  0  0  0  0  2  0  0  0  0  0  0
  -18.2340  -26.7410   22.2530 C   0  0  0  0  0  2  0  0  0  0  0  0
  -19.2010  -28.8420   23.3590 C   0  0  0  0  0  0  0  0  0  0  0  0
  -18.9960  -30.1040   23.9580 C   0  0  0  0  0  3  0  0  0  0  0  0
  -17.6960  -30.6130   24.1400 C   0  0  0  0  0  3  0  0  0  0  0  0
  -16.5830  -29.8560   23.7360 C   0  0  0  0  0  3  0  0  0  0  0  0
  -16.7730  -28.5950   23.1400 C   0  0  0  0  0  3  0  0  0  0  0  0
  -25.9340  -32.4860   23.8070 C   0  0  0  0  0  3  0  0  0  0  0  0
  -25.6200  -33.8780   24.1570 N   0  0  0  0  0  0  0  0  0  0  0  0
  -25.9380  -34.9430   23.4080 C   0  0  0  0  0  0  0  0  0  0  0  0
  -26.5950  -34.8550   22.3680 O   0  0  0  0  0  0  0  0  0  0  0  0
  -25.0390  -34.0200   24.9710 H   0  0  0  0  0  0  0  0  0  0  0  0
  -24.1920  -36.7270   23.0950 C   0  0  0  0  0  1  0  0  0  0  0  0
  -25.4460  -36.3230   23.8870 C   0  0  0  0  0  3  0  0  0  0  0  0
  -27.5860  -37.2110   24.6980 C   0  0  0  0  0  1  0  0  0  0  0  0
  -26.4700  -37.3840   23.7730 N   0  0  0  0  0  0  0  0  0  0  0  0
  -26.0600  -38.2990   23.9390 H   0  0  0  0  0  0  0  0  0  0  0  0
  -26.4670  -31.7030   25.0690 C   0  0  1  0  0  0  0  0  0  0  0  0
  -25.3850  -31.4490   26.1460 C   0  0  0  0  0  1  0  0  0  0  0  0
  -27.0540  -30.3320   24.6580 C   0  0  0  0  0  1  0  0  0  0  0  0
  -27.6210  -32.4950   25.7280 C   0  0  0  0  0  1  0  0  0  0  0  0
  -29.2790  -19.8080   19.8120 C   0  0  0  0  0  3  0  0  0  0  0  0
  -29.5580  -18.6280   20.7490 N   0  0  0  0  0  4  0  0  0  0  0  0
  -30.0940  -18.9860   21.5240 H   0  0  0  0  0  0  0  0  0  0  0  0
  -28.6700  -18.3410   21.1240 H   0  0  0  0  0  0  0  0  0  0  0  0
  -30.3120  -17.3850   20.2570 C   0  0  0  0  0  3  0  0  0  0  0  0
  -29.9270  -15.9640   20.8990 C   0  0  0  0  0  3  0  0  0  0  0  0
  -30.6600  -14.6570   20.3620 C   0  0  0  0  0  0  0  0  0  0  0  0
  -30.4190  -12.4190   19.2800 C   0  0  0  0  0  2  0  0  0  0  0  0
  -29.4760  -12.5600   18.0640 C   0  0  0  0  0  2  0  0  0  0  0  0
  -28.0020  -12.4190   18.4910 C   0  0  0  0  0  2  0  0  0  0  0  0
  -27.6570  -13.2810   19.7340 C   0  0  0  0  0  3  0  0  0  0  0  0
  -28.7160  -13.1160   20.8480 C   0  0  0  0  0  2  0  0  0  0  0  0
  -30.0260  -13.4410   20.2730 N   0  0  0  0  0  0  0  0  0  0  0  0
  -31.8100  -14.7790   19.9250 O   0  0  0  0  0  0  0  0  0  0  0  0
  -25.2700  -13.9120   20.4400 C   0  0  0  0  0  0  0  0  0  0  0  0
  -24.1940  -13.1540   20.8170 C   0  0  0  0  0  0  0  0  0  0  0  0
  -24.6420  -11.7970   20.8030 C   0  0  0  0  0  0  0  0  0  0  0  0
  -26.3050  -13.0180   20.2180 N   0  0  0  0  0  0  0  0  0  0  0  0
  -25.9330  -11.7410   20.4990 N   0  0  0  0  0  0  0  0  0  0  0  0
  -23.9010  -10.5450   21.0070 C   0  0  0  0  0  0  0  0  0  0  0  0
  -24.3350   -9.5720   21.9330 C   0  0  0  0  0  3  0  0  0  0  0  0
  -23.5950   -8.3860   22.1250 C   0  0  0  0  0  3  0  0  0  0  0  0
  -22.4080   -8.1630   21.3890 C   0  0  0  0  0  0  0  0  0  0  0  0
  -21.9930   -9.1240   20.4500 C   0  0  0  0  0  3  0  0  0  0  0  0
  -22.7340  -10.3010   20.2570 C   0  0  0  0  0  3  0  0  0  0  0  0
  -21.6390   -7.0290   21.4900 O   0  0  0  0  0  0  0  0  0  0  0  0
  -21.6120   -6.2770   22.6380 C   0  0  0  0  0  0  0  0  0  0  0  0
  -21.2530   -6.8330   23.8850 C   0  0  0  0  0  3  0  0  0  0  0  0
  -21.1710   -6.0100   25.0250 C   0  0  0  0  0  3  0  0  0  0  0  0
  -21.4390   -4.6320   24.9200 C   0  0  0  0  0  0  0  0  0  0  0  0
  -21.7930   -4.0750   23.6780 C   0  0  0  0  0  3  0  0  0  0  0  0
  -21.8760   -4.8960   22.5400 C   0  0  0  0  0  0  0  0  0  0  0  0
  -22.1970   -4.3510   21.3410 F   0  0  0  0  0  0  0  0  0  0  0  0
  -21.3530   -3.8380   26.0140 F   0  0  0  0  0  0  0  0  0  0  0  0
  -22.8020  -13.6500   21.0790 C   0  0  0  0  0  0  0  0  0  0  0  0
  -22.0680  -12.9720   21.9540 N   0  0  0  0  0  0  0  0  0  0  0  0
  -22.3740  -14.6710   20.5430 O   0  0  0  0  0  0  0  0  0  0  0  0
  -22.4280  -12.1460   22.4080 H   0  0  0  0  0  0  0  0  0  0  0  0
  -21.1300  -13.2820   22.1720 H   0  0  0  0  0  0  0  0  0  0  0  0
  -25.4490  -15.2780   20.2440 N   0  0  0  0  0  0  0  0  0  0  0  0
  -24.6880  -15.9400   20.3290 H   0  0  0  0  0  0  0  0  0  0  0  0
  -26.2890  -15.6890   19.8590 H   0  0  0  0  0  0  0  0  0  0  0  0
  -26.8180  -19.0350   19.6120 C   0  0  0  0  0  1  0  0  0  0  0  0
  -28.0900  -19.4560   18.8470 C   0  0  0  0  0  3  0  0  0  0  0  0
  -29.5010  -18.8740   16.7450 C   0  0  0  0  0  1  0  0  0  0  0  0
  -28.3730  -18.4550   17.7030 C   0  0  0  0  0  2  0  0  0  0  0  0
  2  1  1  0
  3  4  1  0
  3  5  1  0
  4  6  1  0
  4  1  1  0
  5 48  1  0
  5  2  1  0
  6  7  1  0
  8 19  2  0
  9  7  1  0
  9 14  1  0
 10 18  1  0
 10 20  1  0
 11 17  1  0
 11 13  1  0
 12 18  1  0
 13 12  1  0
 14 13  2  0
 15  9  2  0
 16 15  1  0
 16 11  2  0
 17 10  1  0
 18  8  1  0
 20 22  2  0
 21 20  1  0
 23 21  1  0
 24 33  2  0
 24 29  1  0
 25 21  1  0
 25 29  1  0
 26 25  1  0
 27 28  1  0
 27 26  1  0
 28 24  1  0
 29 30  2  0
 30 31  1  0
 32 31  2  0
 33 32  1  0
 34  8  1  0
 34 35  1  0
 34 44  1  0
 35 38  1  0
 36 40  1  0
 36 35  1  0
 37 36  2  0
 40 39  1  0
 42 40  1  0
 42 43  1  0
 42 41  1  0
 44 47  1  1
 44 45  1  0
 46 44  1  0
 48 49  1  0
 49 51  1  0
 49 50  1  0
 52 49  1  0
 52 53  2  0
 54 53  1  0
 55 60  1  0
 56 57  1  0
 56 55  1  0
 58 57  1  0
 58 65  1  0
 58 59  1  0
 60 54  1  0
 60 59  1  0
 61 54  2  0
 62 63  2  0
 63 82  1  0
 64 63  1  0
 64 67  1  0
 65 62  1  0
 65 66  1  0
 66 64  2  0
 67 68  1  0
 68 69  2  0
 70 73  1  0
 70 69  1  0
 71 70  2  0
 72 71  1  0
 72 67  2  0
 73 74  1  0
 74 75  1  0
 75 76  2  0
 77 76  1  0
 77 81  1  0
 78 77  2  0
 79 74  2  0
 79 78  1  0
 80 79  1  0
 82 83  1  0
 83 86  1  0
 83 85  1  0
 84 82  2  0
 87 88  1  0
 87 62  1  0
 89 87  1  0
 91 90  1  0
 91 48  1  0
 92 93  1  0
 93 91  1  0
M  ISO  4   6 101   7 101  53 100  54 100
M  END
>  <TORSDO>  (69) 
F 23

>  <SCORE>  (69) 
-12.940

>  <name>  (69) 
70

>  <ligand_id>  (69) 
70

>  <original_smiles>  (69) 
[H]c1c([H])c([H])c2c(c1[H])C([H])([H])C([H])([H])C([H])([H])C2([H])N([H])C(=O)C1([H])N(C(=O)C([H])(N([H])C(=O)C([H])(N([H])C([H])([H])[H])C([H])([H])[H])C(C([H])([H])[H])(C([H])([H])[H])C([H])([H])[H])C([H])([H])c2c([H])c(OC([H])([H])C3([H])C([H])([H])C([H])([H])C([H])(C([H])(C([H])(C([H])([H])[H])C([H])([H])C([H])([H])[H])[N+]([H])([H])C([H])([H])C([H])([H])C(=O)N4C([H])([H])C([H])([H])C([H])([H])C([H])(n5nc(-c6c([H])c([H])c(Oc7c([H])c([H])c(F)c([H])c7F)c([H])c6[H])c(C(=O)N([H])[H])c5N([H])[H])C4([H])[H])C3([H])[H])c([H])c([H])c2C1([H])[H]

>  <smiles>  (69) 
[H]c1c([H])c([H])c2c(c1[H])C([H])([H])C([H])([H])C([H])([H])C2([H])N([H])C(=O)C1([H])N(C(=O)C([H])(N([H])C(=O)C([H])(N([H])C([H])([H])[H])C([H])([H])[H])C(C([H])([H])[H])(C([H])([H])[H])C([H])([H])[H])C([H])([H])c2c([H])c(OC([H])([H])C3([H])C([H])([H])C([H])([H])C([H])(C([H])(C([H])(C([H])([H])[H])C([H])([H])C([H])([H])[H])[N+]([H])([H])C([H])([H])C([H])([H])C(=O)N4C([H])([H])C([H])([H])C([H])([H])C([H])(n5nc(-c6c([H])c([H])c(Oc7c([H])c([H])c(F)c([H])c7F)c([H])c6[H])c(C(=O)N([H])[H])c5N([H])[H])C4([H])[H])C3([H])[H])c([H])c([H])c2C1([H])[H]

$$$$
71:0:0
     RDKit          3D

103114  0  0  1  0  0  0  0  0999 V2000
  -32.5930  -24.5750   15.2810 C   0  0  0  0  0  2  0  0  0  0  0  0
  -31.3490  -25.4780   15.3910 C   0  0  0  0  0  2  0  0  0  0  0  0
  -33.6380  -24.7560   16.4040 C   0  0  0  0  0  2  0  0  0  0  0  0
  -32.7090  -20.7350   18.3830 C   0  0  0  0  0  2  0  0  0  0  0  0
  -33.3980  -21.9730   17.8070 C   0  0  0  0  0  2  0  0  0  0  0  0
  -30.2640  -25.0930   16.4340 C   0  0  0  0  0  2  0  0  0  0  0  0
  -30.5860  -19.3750   18.6140 C   0  0  0  0  0  2  0  0  0  0  0  0
  -30.0690  -21.9540   19.8980 C   0  0  0  0  0  2  0  0  0  0  0  0
  -31.2030  -20.6590   18.0170 C   0  0  0  0  0  3  0  0  0  0  0  0
  -32.6440  -23.2080   18.2950 C   0  0  0  0  0  3  0  0  0  0  0  0
  -33.1830  -24.5790   17.8750 C   0  0  0  0  0  3  0  0  0  0  0  0
  -31.1790  -23.1970   17.8580 C   0  0  0  0  0  3  0  0  0  0  0  0
  -32.0280  -25.5120   18.2670 C   0  0  0  0  0  3  0  0  0  0  0  0
  -30.3250  -19.4980   20.1340 C   0  0  0  0  0  3  0  0  0  0  0  0
  -30.7180  -24.7170   17.8890 C   0  0  1  0  0  0  0  0  0  0  0  0
  -30.3600  -21.9450   18.3650 C   0  0  2  0  0  0  0  0  0  0  0  0
  -32.2030  -25.9390   19.7480 C   0  0  0  0  0  1  0  0  0  0  0  0
  -29.0370  -21.8450   17.5520 C   0  0  0  0  0  1  0  0  0  0  0  0
  -29.4810  -20.6850   20.3880 N   0  0  0  0  0  4  0  0  0  0  0  0
  -28.5790  -20.5600   19.9590 H   0  0  0  0  0  0  0  0  0  0  0  0
  -29.3320  -20.7760   21.3800 H   0  0  0  0  0  0  0  0  0  0  0  0
  -29.7060  -18.2240   20.7640 C   0  0  0  0  0  2  0  0  0  0  0  0
  -30.5720  -16.9680   20.5420 C   0  0  0  0  0  2  0  0  0  0  0  0
  -30.0490  -15.6670   21.1950 C   0  0  0  0  0  2  0  0  0  0  0  0
  -30.7190  -14.4290   20.5640 C   0  0  0  0  0  0  0  0  0  0  0  0
  -30.3890  -12.3070   19.3590 C   0  0  0  0  0  2  0  0  0  0  0  0
  -29.4720  -12.5670   18.1470 C   0  0  0  0  0  2  0  0  0  0  0  0
  -27.9880  -12.4500   18.5490 C   0  0  0  0  0  2  0  0  0  0  0  0
  -27.6490  -13.2670   19.8260 C   0  0  0  0  0  3  0  0  0  0  0  0
  -28.6850  -13.0100   20.9460 C   0  0  0  0  0  2  0  0  0  0  0  0
  -30.0240  -13.2750   20.4030 N   0  0  0  0  0  0  0  0  0  0  0  0
  -31.8540  -14.5770   20.0960 O   0  0  0  0  0  0  0  0  0  0  0  0
  -25.2380  -13.8950   20.4770 C   0  0  0  0  0  0  0  0  0  0  0  0
  -24.1600  -13.1320   20.8340 C   0  0  0  0  0  0  0  0  0  0  0  0
  -24.6150  -11.7780   20.8290 C   0  0  0  0  0  0  0  0  0  0  0  0
  -26.2850  -13.0070   20.2800 N   0  0  0  0  0  0  0  0  0  0  0  0
  -25.9110  -11.7290   20.5480 N   0  0  0  0  0  0  0  0  0  0  0  0
  -23.8800  -10.5210   21.0200 C   0  0  0  0  0  0  0  0  0  0  0  0
  -24.3030   -9.5550   21.9600 C   0  0  0  0  0  3  0  0  0  0  0  0
  -23.5690   -8.3630   22.1390 C   0  0  0  0  0  3  0  0  0  0  0  0
  -22.3990   -8.1280   21.3770 C   0  0  0  0  0  0  0  0  0  0  0  0
  -21.9970   -9.0830   20.4270 C   0  0  0  0  0  3  0  0  0  0  0  0
  -22.7300  -10.2680   20.2470 C   0  0  0  0  0  3  0  0  0  0  0  0
  -21.6370   -6.9880   21.4650 O   0  0  0  0  0  0  0  0  0  0  0  0
  -21.5910   -6.2400   22.6150 C   0  0  0  0  0  0  0  0  0  0  0  0
  -21.1910   -6.7950   23.8490 C   0  0  0  0  0  3  0  0  0  0  0  0
  -21.0910   -5.9750   24.9920 C   0  0  0  0  0  3  0  0  0  0  0  0
  -21.3800   -4.6000   24.8990 C   0  0  0  0  0  0  0  0  0  0  0  0
  -21.7710   -4.0440   23.6680 C   0  0  0  0  0  3  0  0  0  0  0  0
  -21.8740   -4.8620   22.5290 C   0  0  0  0  0  0  0  0  0  0  0  0
  -22.2310   -4.3180   21.3410 F   0  0  0  0  0  0  0  0  0  0  0  0
  -21.2760   -3.8100   25.9930 F   0  0  0  0  0  0  0  0  0  0  0  0
  -22.7590  -13.6180   21.0720 C   0  0  0  0  0  0  0  0  0  0  0  0
  -22.0110  -12.9380   21.9330 N   0  0  0  0  0  0  0  0  0  0  0  0
  -22.3360  -14.6380   20.5290 O   0  0  0  0  0  0  0  0  0  0  0  0
  -22.3650  -12.1110   22.3930 H   0  0  0  0  0  0  0  0  0  0  0  0
  -21.0700  -13.2460   22.1320 H   0  0  0  0  0  0  0  0  0  0  0  0
  -25.4140  -15.2620   20.2860 N   0  0  0  0  0  0  0  0  0  0  0  0
  -24.6470  -15.9220   20.3720 H   0  0  0  0  0  0  0  0  0  0  0  0
  -26.2760  -15.6930   19.9760 H   0  0  0  0  0  0  0  0  0  0  0  0
  -29.5650  -25.0430   18.8930 C   0  0  0  0  0  2  0  0  0  0  0  0
  -29.0080  -26.4810   18.8520 C   0  0  0  0  0  2  0  0  0  0  0  0
  -28.4710  -26.7990   20.1300 O   0  0  0  0  0  0  0  0  0  0  0  0
  -24.6170  -31.8830   23.2200 C   0  0  0  0  0  0  0  0  0  0  0  0
  -27.2890  -27.4920   20.1270 C   0  0  0  0  0  0  0  0  0  0  0  0
  -23.4120  -30.4700   21.5830 C   0  0  0  0  0  3  0  0  0  0  0  0
  -24.8720  -28.9400   20.1550 C   0  0  0  0  0  0  0  0  0  0  0  0
  -25.9290  -30.8540   21.3730 C   0  0  0  0  0  2  0  0  0  0  0  0
  -26.0220  -29.4840   20.7420 C   0  0  0  0  0  0  0  0  0  0  0  0
  -27.2300  -28.7590   20.7390 C   0  0  0  0  0  3  0  0  0  0  0  0
  -26.1240  -26.9440   19.5490 C   0  0  0  0  0  3  0  0  0  0  0  0
  -24.9140  -27.6660   19.5610 C   0  0  0  0  0  3  0  0  0  0  0  0
  -23.6180  -29.7830   20.2060 C   0  0  0  0  0  2  0  0  0  0  0  0
  -24.6710  -31.0830   22.1180 N   0  0  0  0  0  0  0  0  0  0  0  0
  -23.5370  -32.1500   23.7650 O   0  0  0  0  0  0  0  0  0  0  0  0
  -22.7740  -29.4470   22.5490 C   0  0  0  0  0  0  0  0  0  0  0  0
  -21.4490  -29.2600   22.4300 N   0  0  0  0  0  0  0  0  0  0  0  0
  -23.4650  -28.8250   23.3600 O   0  0  0  0  0  0  0  0  0  0  0  0
  -20.9520  -29.8150   21.7480 H   0  0  0  0  0  0  0  0  0  0  0  0
  -18.0840  -28.0530   22.9400 C   0  0  0  0  0  0  0  0  0  0  0  0
  -20.6410  -28.3190   23.2040 C   0  0  0  0  0  3  0  0  0  0  0  0
  -20.7450  -26.8880   22.6280 C   0  0  0  0  0  2  0  0  0  0  0  0
  -19.6410  -26.5610   21.6180 C   0  0  0  0  0  2  0  0  0  0  0  0
  -18.2610  -26.7030   22.2660 C   0  0  0  0  0  2  0  0  0  0  0  0
  -19.2020  -28.8190   23.3660 C   0  0  0  0  0  0  0  0  0  0  0  0
  -18.9820  -30.0820   23.9560 C   0  0  0  0  0  3  0  0  0  0  0  0
  -17.6760  -30.5810   24.1240 C   0  0  0  0  0  3  0  0  0  0  0  0
  -16.5730  -29.8140   23.7140 C   0  0  0  0  0  3  0  0  0  0  0  0
  -16.7770  -28.5510   23.1300 C   0  0  0  0  0  3  0  0  0  0  0  0
  -25.9050  -32.5200   23.8330 C   0  0  0  0  0  3  0  0  0  0  0  0
  -25.5880  -33.9130   24.1750 N   0  0  0  0  0  0  0  0  0  0  0  0
  -25.9100  -34.9720   23.4210 C   0  0  0  0  0  0  0  0  0  0  0  0
  -26.5740  -34.8810   22.3840 O   0  0  0  0  0  0  0  0  0  0  0  0
  -24.9940  -34.0580   24.9780 H   0  0  0  0  0  0  0  0  0  0  0  0
  -24.1620  -36.7510   23.0850 C   0  0  0  0  0  1  0  0  0  0  0  0
  -25.4110  -36.3540   23.8880 C   0  0  0  0  0  3  0  0  0  0  0  0
  -27.5440  -37.2470   24.7120 C   0  0  0  0  0  1  0  0  0  0  0  0
  -26.4350  -37.4170   23.7760 N   0  0  0  0  0  0  0  0  0  0  0  0
  -26.0230  -38.3320   23.9350 H   0  0  0  0  0  0  0  0  0  0  0  0
  -26.4460  -31.7410   25.0950 C   0  0  1  0  0  0  0  0  0  0  0  0
  -25.3680  -31.4870   26.1750 C   0  0  0  0  0  1  0  0  0  0  0  0
  -27.0330  -30.3710   24.6810 C   0  0  0  0  0  1  0  0  0  0  0  0
  -27.5980  -32.5400   25.7480 C   0  0  0  0  0  1  0  0  0  0  0  0
  1  2  1  0
  1  3  1  0
  2  6  1  0
  5  4  1  0
  6 15  1  0
  7 14  1  0
  8 19  1  0
  9 16  1  0
  9  4  1  0
  9  7  1  0
 10  5  1  0
 11  3  1  0
 11 13  1  0
 11 10  1  0
 12 15  1  0
 12 10  1  0
 12 16  1  0
 13 17  1  0
 14 19  1  0
 14 22  1  0
 15 13  1  0
 15 61  1  1
 16  8  1  0
 16 18  1  6
 19 21  1  0
 20 19  1  0
 23 22  1  0
 23 24  1  0
 25 24  1  0
 26 31  1  0
 27 28  1  0
 27 26  1  0
 28 29  1  0
 29 36  1  0
 29 30  1  0
 31 25  1  0
 31 30  1  0
 32 25  2  0
 33 34  2  0
 34 53  1  0
 35 34  1  0
 35 38  1  0
 36 33  1  0
 36 37  1  0
 37 35  2  0
 38 39  1  0
 39 40  2  0
 41 44  1  0
 41 40  1  0
 42 41  2  0
 43 42  1  0
 43 38  2  0
 44 45  1  0
 45 46  1  0
 46 47  2  0
 48 47  1  0
 48 52  1  0
 49 48  2  0
 50 45  2  0
 50 49  1  0
 51 50  1  0
 53 54  1  0
 54 57  1  0
 54 56  1  0
 55 53  2  0
 58 59  1  0
 58 33  1  0
 60 58  1  0
 62 61  1  0
 62 63  1  0
 64 75  2  0
 64 90  1  0
 65 63  1  0
 65 70  1  0
 66 74  1  0
 66 76  1  0
 67 73  1  0
 67 69  1  0
 68 74  1  0
 69 68  1  0
 70 69  2  0
 71 72  1  0
 71 65  2  0
 72 67  2  0
 73 66  1  0
 74 64  1  0
 76 78  2  0
 77 76  1  0
 77 81  1  0
 79 77  1  0
 80 89  2  0
 80 85  1  0
 81 85  1  0
 82 81  1  0
 83 84  1  0
 83 82  1  0
 84 80  1  0
 85 86  2  0
 86 87  1  0
 88 87  2  0
 89 88  1  0
 90 91  1  0
 90100  1  0
 91 94  1  0
 92 96  1  0
 92 91  1  0
 93 92  2  0
 95 96  1  0
 98 96  1  0
 98 99  1  0
 98 97  1  0
100103  1  1
100101  1  0
102100  1  0
M  ISO  4  24 100  25 100  62 101  63 101
M  END
>  <TORSDO>  (70) 
F 21

>  <SCORE>  (70) 
-13.569

>  <name>  (70) 
71

>  <ligand_id>  (70) 
71

>  <original_smiles>  (70) 
[H]c1c([H])c([H])c2c(c1[H])C([H])([H])C([H])([H])C([H])([H])C2([H])N([H])C(=O)C1([H])N(C(=O)C([H])(N([H])C(=O)C([H])(N([H])C([H])([H])[H])C([H])([H])[H])C(C([H])([H])[H])(C([H])([H])[H])C([H])([H])[H])C([H])([H])c2c([H])c(OC([H])([H])C([H])([H])C34C([H])([H])C([H])([H])C([H])([H])C([H])([H])C([H])(C5([H])C([H])([H])C([H])([H])C6([H])C([H])([H])C([H])(C([H])([H])C([H])([H])C([H])([H])C(=O)N7C([H])([H])C([H])([H])C([H])([H])C([H])(n8nc(-c9c([H])c([H])c(Oc%10c([H])c([H])c(F)c([H])c%10F)c([H])c9[H])c(C(=O)N([H])[H])c8N([H])[H])C7([H])[H])[N+]([H])([H])C([H])([H])C6(C([H])([H])[H])C53[H])C4([H])C([H])([H])[H])c([H])c([H])c2C1([H])[H]

>  <smiles>  (70) 
[H]c1c([H])c([H])c2c(c1[H])C([H])([H])C([H])([H])C([H])([H])C2([H])N([H])C(=O)C1([H])N(C(=O)C([H])(N([H])C(=O)C([H])(N([H])C([H])([H])[H])C([H])([H])[H])C(C([H])([H])[H])(C([H])([H])[H])C([H])([H])[H])C([H])([H])c2c([H])c(OC([H])([H])C([H])([H])C34C([H])([H])C([H])([H])C([H])([H])C([H])([H])C([H])(C5([H])C([H])([H])C([H])([H])C6([H])C([H])([H])C([H])(C([H])([H])C([H])([H])C([H])([H])C(=O)N7C([H])([H])C([H])([H])C([H])([H])C([H])(n8nc(-c9c([H])c([H])c(Oc%10c([H])c([H])c(F)c([H])c%10F)c([H])c9[H])c(C(=O)N([H])[H])c8N([H])[H])C7([H])[H])[N+]([H])([H])C([H])([H])C6(C([H])([H])[H])C53[H])C4([H])C([H])([H])[H])c([H])c([H])c2C1([H])[H]

$$$$
72:0:0
     RDKit          3D

 88 95  0  0  1  0  0  0  0  0999 V2000
  -28.1030  -22.7970   20.0390 C   0  0  0  0  0  3  0  0  0  0  0  0
  -28.4770  -21.3570   19.9500 C   0  0  0  0  0  0  0  0  0  0  0  0
  -27.6570  -20.5690   18.9330 C   0  0  0  0  0  1  0  0  0  0  0  0
  -28.2930  -24.3460   20.7770 C   0  0  0  0  0  2  0  0  0  0  0  0
  -28.2470  -25.8880   20.2030 O   0  0  0  0  0  0  0  0  0  0  0  0
  -24.6400  -31.8460   23.1930 C   0  0  0  0  0  0  0  0  0  0  0  0
  -27.2000  -26.9400   20.2600 C   0  0  0  0  0  0  0  0  0  0  0  0
  -23.4520  -30.4310   21.5650 C   0  0  0  0  0  3  0  0  0  0  0  0
  -24.9000  -28.8040   20.1800 C   0  0  0  0  0  0  0  0  0  0  0  0
  -26.0160  -30.6490   21.4180 C   0  0  0  0  0  2  0  0  0  0  0  0
  -26.0870  -29.2280   20.7900 C   0  0  0  0  0  0  0  0  0  0  0  0
  -27.2340  -28.3150   20.8040 C   0  0  0  0  0  3  0  0  0  0  0  0
  -25.9790  -26.6570   19.6140 C   0  0  0  0  0  3  0  0  0  0  0  0
  -24.8640  -27.5340   19.5820 C   0  0  0  0  0  3  0  0  0  0  0  0
  -23.6800  -29.7240   20.2020 C   0  0  0  0  0  2  0  0  0  0  0  0
  -24.7250  -31.0050   22.1110 N   0  0  0  0  0  0  0  0  0  0  0  0
  -23.5490  -32.1380   23.7090 O   0  0  0  0  0  0  0  0  0  0  0  0
  -22.7620  -29.4460   22.5400 C   0  0  0  0  0  0  0  0  0  0  0  0
  -21.4310  -29.2810   22.4170 N   0  0  0  0  0  0  0  0  0  0  0  0
  -23.4270  -28.8250   23.3720 O   0  0  0  0  0  0  0  0  0  0  0  0
  -20.9460  -29.8290   21.7200 H   0  0  0  0  0  0  0  0  0  0  0  0
  -18.0470  -28.0850   22.9410 C   0  0  0  0  0  0  0  0  0  0  0  0
  -20.6090  -28.3470   23.1930 C   0  0  0  0  0  3  0  0  0  0  0  0
  -20.7060  -26.9140   22.6220 C   0  0  0  0  0  2  0  0  0  0  0  0
  -19.6000  -26.5910   21.6120 C   0  0  0  0  0  2  0  0  0  0  0  0
  -18.2200  -26.7370   22.2620 C   0  0  0  0  0  2  0  0  0  0  0  0
  -19.1690  -28.8490   23.3630 C   0  0  0  0  0  0  0  0  0  0  0  0
  -18.9520  -30.1100   23.9590 C   0  0  0  0  0  3  0  0  0  0  0  0
  -17.6480  -30.6070   24.1390 C   0  0  0  0  0  3  0  0  0  0  0  0
  -16.5410  -29.8420   23.7300 C   0  0  0  0  0  3  0  0  0  0  0  0
  -16.7420  -28.5830   23.1370 C   0  0  0  0  0  3  0  0  0  0  0  0
  -25.9090  -32.4940   23.8270 C   0  0  0  0  0  3  0  0  0  0  0  0
  -25.5830  -33.8930   24.1530 N   0  0  0  0  0  0  0  0  0  0  0  0
  -25.9160  -34.9550   23.4080 C   0  0  0  0  0  0  0  0  0  0  0  0
  -26.5920  -34.8620   22.3790 O   0  0  0  0  0  0  0  0  0  0  0  0
  -24.9780  -34.0400   24.9470 H   0  0  0  0  0  0  0  0  0  0  0  0
  -24.1780  -36.7510   23.0780 C   0  0  0  0  0  1  0  0  0  0  0  0
  -25.4260  -36.3400   23.8770 C   0  0  0  0  0  3  0  0  0  0  0  0
  -27.5550  -37.2350   24.7130 C   0  0  0  0  0  1  0  0  0  0  0  0
  -26.4520  -37.3990   23.7690 N   0  0  0  0  0  0  0  0  0  0  0  0
  -26.0400  -38.3150   23.9210 H   0  0  0  0  0  0  0  0  0  0  0  0
  -26.4110  -31.7430   25.1230 C   0  0  1  0  0  0  0  0  0  0  0  0
  -25.3050  -31.5200   26.1810 C   0  0  0  0  0  1  0  0  0  0  0  0
  -26.9990  -30.3610   24.7610 C   0  0  0  0  0  1  0  0  0  0  0  0
  -27.5540  -32.5500   25.7870 C   0  0  0  0  0  1  0  0  0  0  0  0
  -29.5450  -20.1450   20.5420 C   0  0  0  0  0  3  0  0  0  0  0  0
  -30.0820  -20.7140   21.7910 N   0  0  0  0  0  4  0  0  0  0  0  0
  -30.3420  -21.6730   21.6610 H   0  0  0  0  0  0  0  0  0  0  0  0
  -30.9010  -20.2210   22.1020 H   0  0  0  0  0  0  0  0  0  0  0  0
  -29.3950  -20.6670   22.5220 H   0  0  0  0  0  0  0  0  0  0  0  0
  -29.3800  -18.3580   20.7870 C   0  0  0  0  0  2  0  0  0  0  0  0
  -29.6390  -16.8340   19.8840 C   0  0  0  0  0  2  0  0  0  0  0  0
  -30.4180  -15.2700   20.0840 C   0  0  0  0  0  0  0  0  0  0  0  0
  -30.3530  -12.8410   19.1630 C   0  0  0  0  0  2  0  0  0  0  0  0
  -29.4020  -12.6930   17.9490 C   0  0  0  0  0  2  0  0  0  0  0  0
  -27.9630  -12.4290   18.4260 C   0  0  0  0  0  2  0  0  0  0  0  0
  -27.5470  -13.3770   19.5770 C   0  0  0  0  0  3  0  0  0  0  0  0
  -28.6170  -13.4950   20.6750 C   0  0  0  0  0  2  0  0  0  0  0  0
  -29.8510  -13.9670   20.0350 N   0  0  0  0  0  0  0  0  0  0  0  0
  -31.6450  -15.2370   19.9210 O   0  0  0  0  0  0  0  0  0  0  0  0
  -25.2070  -13.9330   20.4130 C   0  0  0  0  0  0  0  0  0  0  0  0
  -24.1570  -13.1540   20.8110 C   0  0  0  0  0  0  0  0  0  0  0  0
  -24.6190  -11.8040   20.7560 C   0  0  0  0  0  0  0  0  0  0  0  0
  -26.2360  -13.0550   20.1280 N   0  0  0  0  0  0  0  0  0  0  0  0
  -25.8990  -11.7680   20.4030 N   0  0  0  0  0  0  0  0  0  0  0  0
  -23.8940  -10.5410   20.9670 C   0  0  0  0  0  0  0  0  0  0  0  0
  -24.3450   -9.5730   21.8900 C   0  0  0  0  0  3  0  0  0  0  0  0
  -23.6200   -8.3780   22.0870 C   0  0  0  0  0  3  0  0  0  0  0  0
  -22.4280   -8.1430   21.3610 C   0  0  0  0  0  0  0  0  0  0  0  0
  -21.9950   -9.1000   20.4280 C   0  0  0  0  0  3  0  0  0  0  0  0
  -22.7210  -10.2880   20.2290 C   0  0  0  0  0  3  0  0  0  0  0  0
  -21.6720   -7.0000   21.4680 O   0  0  0  0  0  0  0  0  0  0  0  0
  -21.6450   -6.2580   22.6200 C   0  0  0  0  0  0  0  0  0  0  0  0
  -21.2480   -6.8140   23.8560 C   0  0  0  0  0  3  0  0  0  0  0  0
  -21.1720   -6.0020   25.0040 C   0  0  0  0  0  3  0  0  0  0  0  0
  -21.4780   -4.6300   24.9190 C   0  0  0  0  0  0  0  0  0  0  0  0
  -21.8640   -4.0710   23.6880 C   0  0  0  0  0  3  0  0  0  0  0  0
  -21.9450   -4.8810   22.5430 C   0  0  0  0  0  0  0  0  0  0  0  0
  -22.3010   -4.3320   21.3550 F   0  0  0  0  0  0  0  0  0  0  0  0
  -21.3950   -3.8480   26.0200 F   0  0  0  0  0  0  0  0  0  0  0  0
  -22.7690  -13.6340   21.1240 C   0  0  0  0  0  0  0  0  0  0  0  0
  -22.0660  -12.9370   22.0110 N   0  0  0  0  0  0  0  0  0  0  0  0
  -22.3200  -14.6600   20.6180 O   0  0  0  0  0  0  0  0  0  0  0  0
  -22.4410  -12.1070   22.4450 H   0  0  0  0  0  0  0  0  0  0  0  0
  -21.1330  -13.2380   22.2590 H   0  0  0  0  0  0  0  0  0  0  0  0
  -25.3670  -15.3040   20.2370 N   0  0  0  0  0  0  0  0  0  0  0  0
  -24.6090  -15.9650   20.3680 H   0  0  0  0  0  0  0  0  0  0  0  0
  -26.2120  -15.7430   19.8920 H   0  0  0  0  0  0  0  0  0  0  0  0
  1  4  1  0
  2  1  2  0
  2 46  1  0
  3  2  1  0
  5  7  1  0
  5  4  1  0
  6 17  2  0
  7 12  1  0
  8 16  1  0
  8 18  1  0
  9 15  1  0
  9 11  1  0
 10 16  1  0
 11 12  2  0
 11 10  1  0
 13  7  2  0
 14 13  1  0
 14  9  2  0
 15  8  1  0
 16  6  1  0
 18 20  2  0
 19 18  1  0
 21 19  1  0
 22 31  2  0
 22 27  1  0
 23 19  1  0
 23 27  1  0
 24 23  1  0
 25 26  1  0
 25 24  1  0
 26 22  1  0
 27 28  2  0
 28 29  1  0
 30 29  2  0
 31 30  1  0
 32  6  1  0
 32 33  1  0
 32 42  1  0
 33 36  1  0
 34 38  1  0
 34 33  1  0
 35 34  2  0
 38 37  1  0
 40 38  1  0
 40 41  1  0
 40 39  1  0
 42 45  1  1
 42 43  1  0
 44 42  1  0
 46 51  1  0
 46 47  1  0
 47 49  1  0
 47 50  1  0
 48 47  1  0
 52 53  1  0
 52 51  1  0
 54 59  1  0
 55 56  1  0
 55 54  1  0
 57 56  1  0
 57 64  1  0
 57 58  1  0
 59 53  1  0
 59 58  1  0
 60 53  2  0
 61 62  2  0
 62 81  1  0
 63 62  1  0
 63 66  1  0
 64 65  1  0
 64 61  1  0
 65 63  2  0
 66 67  1  0
 67 68  2  0
 69 72  1  0
 69 68  1  0
 70 69  2  0
 71 70  1  0
 71 66  2  0
 72 73  1  0
 73 74  1  0
 74 75  2  0
 76 75  1  0
 76 80  1  0
 77 76  2  0
 78 73  2  0
 78 77  1  0
 79 78  1  0
 81 82  1  0
 82 85  1  0
 82 84  1  0
 83 81  2  0
 86 87  1  0
 86 61  1  0
 88 86  1  0
M  ISO  4   4 101   5 101  52 100  53 100
M  END
>  <TORSDO>  (71) 
F 21

>  <SCORE>  (71) 
-16.139

>  <name>  (71) 
72

>  <ligand_id>  (71) 
72

>  <original_smiles>  (71) 
[H]C(=C(C([H])([H])[H])C([H])(C([H])([H])C([H])([H])C(=O)N1C([H])([H])C([H])([H])C([H])([H])C([H])(n2nc(-c3c([H])c([H])c(Oc4c([H])c([H])c(F)c([H])c4F)c([H])c3[H])c(C(=O)N([H])[H])c2N([H])[H])C1([H])[H])[N+]([H])([H])[H])C([H])([H])Oc1c([H])c([H])c2c(c1[H])C([H])([H])N(C(=O)C([H])(N([H])C(=O)C([H])(N([H])C([H])([H])[H])C([H])([H])[H])C(C([H])([H])[H])(C([H])([H])[H])C([H])([H])[H])C([H])(C(=O)N([H])C1([H])c3c([H])c([H])c([H])c([H])c3C([H])([H])C([H])([H])C1([H])[H])C2([H])[H]

>  <smiles>  (71) 
[H]C(=C(C([H])([H])[H])C([H])(C([H])([H])C([H])([H])C(=O)N1C([H])([H])C([H])([H])C([H])([H])C([H])(n2nc(-c3c([H])c([H])c(Oc4c([H])c([H])c(F)c([H])c4F)c([H])c3[H])c(C(=O)N([H])[H])c2N([H])[H])C1([H])[H])[N+]([H])([H])[H])C([H])([H])Oc1c([H])c([H])c2c(c1[H])C([H])([H])N(C(=O)C([H])(N([H])C(=O)C([H])(N([H])C([H])([H])[H])C([H])([H])[H])C(C([H])([H])[H])(C([H])([H])[H])C([H])([H])[H])C([H])(C(=O)N([H])C1([H])c3c([H])c([H])c([H])c([H])c3C([H])([H])C([H])([H])C1([H])[H])C2([H])[H]

$$$$
73:0:0
     RDKit          3D

 96105  0  0  1  0  0  0  0  0999 V2000
  -29.4650  -20.2100   20.5630 C   0  0  0  0  0  3  0  0  0  0  0  0
  -30.8620  -14.4940   20.0580 C   0  0  0  0  0  0  0  0  0  0  0  0
  -30.3660  -12.3590   18.9280 C   0  0  0  0  0  2  0  0  0  0  0  0
  -29.3790  -12.6110   17.7740 C   0  0  0  0  0  2  0  0  0  0  0  0
  -27.9360  -12.4820   18.2880 C   0  0  0  0  0  2  0  0  0  0  0  0
  -27.6860  -13.3070   19.5800 C   0  0  0  0  0  3  0  0  0  0  0  0
  -28.8080  -13.1130   20.6260 C   0  0  0  0  0  2  0  0  0  0  0  0
  -30.0990  -13.3650   19.9730 N   0  0  0  0  0  0  0  0  0  0  0  0
  -31.9300  -14.5830   19.4460 O   0  0  0  0  0  0  0  0  0  0  0  0
  -29.7620  -18.9000   18.2270 C   0  0  0  0  0  2  0  0  0  0  0  0
  -30.7970  -17.7730   18.2680 C   0  0  0  0  0  2  0  0  0  0  0  0
  -31.8850  -17.4310   20.6350 C   0  0  0  0  0  2  0  0  0  0  0  0
  -31.4920  -16.2750   21.5650 C   0  0  0  0  0  2  0  0  0  0  0  0
  -29.6520  -16.6580   20.2950 C   0  0  0  0  0  2  0  0  0  0  0  0
  -30.2840  -19.2860   19.6120 C   0  0  0  0  0  3  0  0  0  0  0  0
  -30.6430  -17.7550   19.8100 C   0  0  2  0  0  0  0  0  0  0  0  0
  -30.4500  -15.5330   20.8440 N   0  0  0  0  0  0  0  0  0  0  0  0
  -25.3510  -13.9150   20.4660 C   0  0  0  0  0  0  0  0  0  0  0  0
  -24.2980  -13.1480   20.8790 C   0  0  0  0  0  0  0  0  0  0  0  0
  -24.7340  -11.7910   20.7820 C   0  0  0  0  0  0  0  0  0  0  0  0
  -26.3670  -13.0290   20.1420 N   0  0  0  0  0  0  0  0  0  0  0  0
  -26.0040  -11.7430   20.3910 N   0  0  0  0  0  0  0  0  0  0  0  0
  -24.0010  -10.5350   20.9820 C   0  0  0  0  0  0  0  0  0  0  0  0
  -24.4510   -9.5520   21.8900 C   0  0  0  0  0  3  0  0  0  0  0  0
  -23.7190   -8.3610   22.0800 C   0  0  0  0  0  3  0  0  0  0  0  0
  -22.5200   -8.1420   21.3600 C   0  0  0  0  0  0  0  0  0  0  0  0
  -22.0870   -9.1130   20.4400 C   0  0  0  0  0  3  0  0  0  0  0  0
  -22.8200  -10.2970   20.2480 C   0  0  0  0  0  3  0  0  0  0  0  0
  -21.7550   -7.0060   21.4610 O   0  0  0  0  0  0  0  0  0  0  0  0
  -21.7130   -6.2680   22.6170 C   0  0  0  0  0  0  0  0  0  0  0  0
  -21.3030   -6.8290   23.8460 C   0  0  0  0  0  3  0  0  0  0  0  0
  -21.2090   -6.0170   24.9950 C   0  0  0  0  0  3  0  0  0  0  0  0
  -21.5120   -4.6450   24.9140 C   0  0  0  0  0  0  0  0  0  0  0  0
  -21.9110   -4.0820   23.6890 C   0  0  0  0  0  3  0  0  0  0  0  0
  -22.0090   -4.8920   22.5440 C   0  0  0  0  0  0  0  0  0  0  0  0
  -22.3780   -4.3420   21.3620 F   0  0  0  0  0  0  0  0  0  0  0  0
  -21.4120   -3.8630   26.0130 F   0  0  0  0  0  0  0  0  0  0  0  0
  -22.9270  -13.6390   21.2500 C   0  0  0  0  0  0  0  0  0  0  0  0
  -22.2490  -12.9430   22.1550 N   0  0  0  0  0  0  0  0  0  0  0  0
  -22.4680  -14.6740   20.7680 O   0  0  0  0  0  0  0  0  0  0  0  0
  -22.6310  -12.1010   22.5620 H   0  0  0  0  0  0  0  0  0  0  0  0
  -21.3320  -13.2540   22.4410 H   0  0  0  0  0  0  0  0  0  0  0  0
  -25.5280  -15.2880   20.3130 N   0  0  0  0  0  0  0  0  0  0  0  0
  -24.7830  -15.9500   20.4910 H   0  0  0  0  0  0  0  0  0  0  0  0
  -26.3690  -15.7220   19.9550 H   0  0  0  0  0  0  0  0  0  0  0  0
  -29.3510  -21.5680   19.9150 N   0  0  0  0  0  4  0  0  0  0  0  0
  -30.2850  -21.8730   19.6960 H   0  0  0  0  0  0  0  0  0  0  0  0
  -28.8790  -21.4320   19.0370 H   0  0  0  0  0  0  0  0  0  0  0  0
  -28.6620  -22.6970   20.6240 C   0  0  0  0  0  2  0  0  0  0  0  0
  -28.7510  -24.0730   19.8820 C   0  0  0  0  0  3  0  0  0  0  0  0
  -28.1340  -25.2810   20.6490 C   0  0  0  0  0  3  0  0  0  0  0  0
  -28.3010  -26.5710   20.0030 O   0  0  0  0  0  0  0  0  0  0  0  0
  -24.5930  -31.8020   23.1590 C   0  0  0  0  0  0  0  0  0  0  0  0
  -27.1700  -27.3670   20.0040 C   0  0  0  0  0  0  0  0  0  0  0  0
  -23.3590  -30.4290   21.5110 C   0  0  0  0  0  3  0  0  0  0  0  0
  -24.7900  -28.9050   20.0440 C   0  0  0  0  0  0  0  0  0  0  0  0
  -25.8850  -30.7770   21.2840 C   0  0  0  0  0  2  0  0  0  0  0  0
  -25.9600  -29.4130   20.6260 C   0  0  0  0  0  0  0  0  0  0  0  0
  -27.1570  -28.6540   20.5970 C   0  0  0  0  0  3  0  0  0  0  0  0
  -25.9880  -26.8870   19.4020 C   0  0  0  0  0  3  0  0  0  0  0  0
  -24.8030  -27.6450   19.4240 C   0  0  0  0  0  3  0  0  0  0  0  0
  -23.5490  -29.7670   20.1190 C   0  0  0  0  0  2  0  0  0  0  0  0
  -24.6330  -31.0160   22.0440 N   0  0  0  0  0  0  0  0  0  0  0  0
  -23.5180  -32.0690   23.7160 O   0  0  0  0  0  0  0  0  0  0  0  0
  -22.7150  -29.3940   22.4630 C   0  0  0  0  0  0  0  0  0  0  0  0
  -21.3910  -29.2010   22.3380 N   0  0  0  0  0  0  0  0  0  0  0  0
  -23.4050  -28.7670   23.2710 O   0  0  0  0  0  0  0  0  0  0  0  0
  -20.8920  -29.7640   21.6630 H   0  0  0  0  0  0  0  0  0  0  0  0
  -18.0340  -27.9520   22.8050 C   0  0  0  0  0  0  0  0  0  0  0  0
  -20.5840  -28.2510   23.1050 C   0  0  0  0  0  3  0  0  0  0  0  0
  -20.7140  -26.8200   22.5310 C   0  0  0  0  0  2  0  0  0  0  0  0
  -19.6270  -26.4780   21.5070 C   0  0  0  0  0  2  0  0  0  0  0  0
  -18.2370  -26.6030   22.1360 C   0  0  0  0  0  2  0  0  0  0  0  0
  -19.1360  -28.7330   23.2460 C   0  0  0  0  0  0  0  0  0  0  0  0
  -18.8880  -29.9970   23.8270 C   0  0  0  0  0  3  0  0  0  0  0  0
  -17.5730  -30.4760   23.9770 C   0  0  0  0  0  3  0  0  0  0  0  0
  -16.4870  -29.6900   23.5520 C   0  0  0  0  0  3  0  0  0  0  0  0
  -16.7180  -28.4320   22.9700 C   0  0  0  0  0  3  0  0  0  0  0  0
  -25.8870  -32.4190   23.7740 C   0  0  0  0  0  3  0  0  0  0  0  0
  -26.4220  -31.6220   25.0250 C   0  0  1  0  0  0  0  0  0  0  0  0
  -25.3460  -31.3640   26.1070 C   0  0  0  0  0  1  0  0  0  0  0  0
  -26.9980  -30.2530   24.5940 C   0  0  0  0  0  1  0  0  0  0  0  0
  -27.5850  -32.4010   25.6840 C   0  0  0  0  0  1  0  0  0  0  0  0
  -25.5870  -33.8100   24.1350 N   0  0  0  0  0  0  0  0  0  0  0  0
  -25.9140  -34.8750   23.3900 C   0  0  0  0  0  0  0  0  0  0  0  0
  -26.5740  -34.7910   22.3520 O   0  0  0  0  0  0  0  0  0  0  0  0
  -25.0020  -33.9520   24.9460 H   0  0  0  0  0  0  0  0  0  0  0  0
  -24.1870  -36.6770   23.0830 C   0  0  0  0  0  1  0  0  0  0  0  0
  -25.4330  -36.2550   23.8780 C   0  0  0  0  0  3  0  0  0  0  0  0
  -27.5770  -37.1160   24.7090 C   0  0  0  0  0  1  0  0  0  0  0  0
  -26.4670  -37.3090   23.7780 N   0  0  0  0  0  0  0  0  0  0  0  0
  -26.0640  -38.2250   23.9560 H   0  0  0  0  0  0  0  0  0  0  0  0
  -30.1760  -20.2740   21.9380 C   0  0  0  0  0  2  0  0  0  0  0  0
  -29.5750  -21.2020   23.0130 C   0  0  0  0  0  2  0  0  0  0  0  0
  -30.1160  -23.0470   24.7210 C   0  0  0  0  0  1  0  0  0  0  0  0
  -30.6670  -22.0380   23.7080 C   0  0  0  0  0  2  0  0  0  0  0  0
  1 93  1  0
  2 17  1  0
  3  8  1  0
  4  5  1  0
  4  3  1  0
  6  5  1  0
  6 21  1  0
  6  7  1  0
  8  2  1  0
  8  7  1  0
  9  2  2  0
 10 11  1  0
 10 15  1  0
 12 13  1  0
 14 17  1  0
 15 16  1  0
 15  1  1  0
 16 11  1  6
 16 14  1  0
 16 12  1  0
 17 13  1  0
 18 19  2  0
 19 38  1  0
 20 19  1  0
 20 23  1  0
 21 22  1  0
 21 18  1  0
 22 20  2  0
 23 24  1  0
 24 25  2  0
 26 29  1  0
 26 25  1  0
 27 26  2  0
 28 27  1  0
 28 23  2  0
 29 30  1  0
 30 31  1  0
 31 32  2  0
 33 32  1  0
 33 37  1  0
 34 33  2  0
 35 30  2  0
 35 34  1  0
 36 35  1  0
 38 39  1  0
 39 42  1  0
 39 41  1  0
 40 38  2  0
 43 18  1  0
 43 44  1  0
 45 43  1  0
 46  1  1  0
 46 49  1  0
 47 46  1  0
 48 46  1  0
 50 49  1  0
 50 51  2  0
 52 54  1  0
 52 51  1  0
 53 64  2  0
 54 59  1  0
 55 63  1  0
 55 65  1  0
 56 62  1  0
 56 58  1  0
 57 63  1  0
 58 57  1  0
 59 58  2  0
 60 61  1  0
 60 54  2  0
 61 56  2  0
 62 55  1  0
 63 53  1  0
 65 67  2  0
 66 65  1  0
 68 66  1  0
 69 78  2  0
 69 74  1  0
 70 66  1  0
 70 74  1  0
 71 70  1  0
 72 73  1  0
 72 71  1  0
 73 69  1  0
 74 75  2  0
 75 76  1  0
 77 76  2  0
 78 77  1  0
 79 53  1  0
 79 84  1  0
 79 80  1  0
 80 83  1  1
 80 81  1  0
 82 80  1  0
 84 87  1  0
 85 89  1  0
 85 84  1  0
 86 85  2  0
 89 88  1  0
 91 89  1  0
 91 92  1  0
 91 90  1  0
 93 94  1  0
 94 96  1  0
 96 95  1  0
M  ISO  4   2 100  17 100  51 101  52 101
M  END
>  <TORSDO>  (72) 
F 23

>  <SCORE>  (72) 
-12.240

>  <name>  (72) 
73

>  <ligand_id>  (72) 
73

>  <original_smiles>  (72) 
[H]c1c([H])c([H])c2c(c1[H])C([H])([H])C([H])([H])C([H])([H])C2([H])N([H])C(=O)C1([H])N(C(=O)C([H])(N([H])C(=O)C([H])(N([H])C([H])([H])[H])C([H])([H])[H])C(C([H])([H])[H])(C([H])([H])[H])C([H])([H])[H])C([H])([H])c2c([H])c(OC([H])([H])C([H])([H])C([H])([H])[N+]([H])([H])C([H])(C([H])([H])C([H])([H])C([H])([H])C([H])([H])[H])C3([H])C([H])([H])C([H])([H])C34C([H])([H])N(C(=O)N3C([H])([H])C([H])([H])C([H])([H])C([H])(n5nc(-c6c([H])c([H])c(Oc7c([H])c([H])c(F)c([H])c7F)c([H])c6[H])c(C(=O)N([H])[H])c5N([H])[H])C3([H])[H])C([H])([H])C4([H])[H])c([H])c([H])c2C1([H])[H]

>  <smiles>  (72) 
[H]c1c([H])c([H])c2c(c1[H])C([H])([H])C([H])([H])C([H])([H])C2([H])N([H])C(=O)C1([H])N(C(=O)C([H])(N([H])C(=O)C([H])(N([H])C([H])([H])[H])C([H])([H])[H])C(C([H])([H])[H])(C([H])([H])[H])C([H])([H])[H])C([H])([H])c2c([H])c(OC([H])([H])C([H])([H])C([H])([H])[N+]([H])([H])C([H])(C([H])([H])C([H])([H])C([H])([H])C([H])([H])[H])C3([H])C([H])([H])C([H])([H])C34C([H])([H])N(C(=O)N3C([H])([H])C([H])([H])C([H])([H])C([H])(n5nc(-c6c([H])c([H])c(Oc7c([H])c([H])c(F)c([H])c7F)c([H])c6[H])c(C(=O)N([H])[H])c5N([H])[H])C3([H])[H])C([H])([H])C4([H])[H])c([H])c([H])c2C1([H])[H]

$$$$
74:0:0
     RDKit          3D

 93102  0  0  1  0  0  0  0  0999 V2000
  -28.4910  -22.2720   20.1980 C   0  0  0  0  0  2  0  0  0  0  0  0
  -29.7470  -22.5810   22.3550 C   0  0  0  0  0  2  0  0  0  0  0  0
  -29.0960  -20.8560   20.0430 C   0  0  0  0  0  2  0  0  0  0  0  0
  -30.2360  -21.1210   22.2160 C   0  0  0  0  0  2  0  0  0  0  0  0
  -30.8080  -23.2320   20.2090 C   0  0  0  0  0  2  0  0  0  0  0  0
  -29.4580  -23.2060   20.9660 C   0  0  1  0  0  0  0  0  0  0  0  0
  -30.4880  -20.7550   20.7290 C   0  0  2  0  0  0  0  0  0  0  0  0
  -31.4660  -21.8250   20.0890 C   0  0  2  0  0  0  0  0  0  0  0  0
  -32.8470  -21.8640   20.7910 C   0  0  0  0  0  1  0  0  0  0  0  0
  -31.7650  -21.5620   18.5890 C   0  0  0  0  0  1  0  0  0  0  0  0
  -28.8720  -24.6380   21.1340 C   0  0  0  0  0  2  0  0  0  0  0  0
  -28.5830  -25.4060   19.8230 C   0  0  0  0  0  2  0  0  0  0  0  0
  -28.4660  -26.8030   20.0850 O   0  0  0  0  0  0  0  0  0  0  0  0
  -24.6330  -31.8750   23.2050 C   0  0  0  0  0  0  0  0  0  0  0  0
  -27.2470  -27.4460   20.0920 C   0  0  0  0  0  0  0  0  0  0  0  0
  -23.4110  -30.4800   21.5690 C   0  0  0  0  0  3  0  0  0  0  0  0
  -24.8450  -28.9440   20.1320 C   0  0  0  0  0  0  0  0  0  0  0  0
  -25.9310  -30.8430   21.3440 C   0  0  0  0  0  2  0  0  0  0  0  0
  -26.0090  -29.4720   20.7030 C   0  0  0  0  0  0  0  0  0  0  0  0
  -27.2090  -28.7330   20.6730 C   0  0  0  0  0  3  0  0  0  0  0  0
  -26.0590  -26.9220   19.5250 C   0  0  0  0  0  3  0  0  0  0  0  0
  -24.8660  -27.6690   19.5440 C   0  0  0  0  0  3  0  0  0  0  0  0
  -23.6030  -29.8030   20.1860 C   0  0  0  0  0  2  0  0  0  0  0  0
  -24.6790  -31.0800   22.0990 N   0  0  0  0  0  0  0  0  0  0  0  0
  -23.5570  -32.1470   23.7550 O   0  0  0  0  0  0  0  0  0  0  0  0
  -22.7680  -29.4550   22.5290 C   0  0  0  0  0  0  0  0  0  0  0  0
  -21.4440  -29.2730   22.4030 N   0  0  0  0  0  0  0  0  0  0  0  0
  -23.4540  -28.8300   23.3410 O   0  0  0  0  0  0  0  0  0  0  0  0
  -20.9520  -29.8270   21.7150 H   0  0  0  0  0  0  0  0  0  0  0  0
  -18.0730  -28.0780   22.9150 C   0  0  0  0  0  0  0  0  0  0  0  0
  -20.6300  -28.3360   23.1770 C   0  0  0  0  0  3  0  0  0  0  0  0
  -20.7290  -26.9040   22.6020 C   0  0  0  0  0  2  0  0  0  0  0  0
  -19.6250  -26.5790   21.5890 C   0  0  0  0  0  2  0  0  0  0  0  0
  -18.2450  -26.7280   22.2370 C   0  0  0  0  0  2  0  0  0  0  0  0
  -19.1930  -28.8400   23.3400 C   0  0  0  0  0  0  0  0  0  0  0  0
  -18.9780  -30.1050   23.9290 C   0  0  0  0  0  3  0  0  0  0  0  0
  -17.6740  -30.6060   24.1010 C   0  0  0  0  0  3  0  0  0  0  0  0
  -16.5680  -29.8410   23.6930 C   0  0  0  0  0  3  0  0  0  0  0  0
  -16.7680  -28.5800   23.1040 C   0  0  0  0  0  3  0  0  0  0  0  0
  -25.9260  -32.5010   23.8180 C   0  0  0  0  0  3  0  0  0  0  0  0
  -25.6230  -33.8950   24.1640 N   0  0  0  0  0  0  0  0  0  0  0  0
  -25.9460  -34.9510   23.4060 C   0  0  0  0  0  0  0  0  0  0  0  0
  -26.6020  -34.8540   22.3650 O   0  0  0  0  0  0  0  0  0  0  0  0
  -25.0450  -34.0450   24.9790 H   0  0  0  0  0  0  0  0  0  0  0  0
  -24.2090  -36.7370   23.0790 C   0  0  0  0  0  1  0  0  0  0  0  0
  -25.4620  -36.3350   23.8750 C   0  0  0  0  0  3  0  0  0  0  0  0
  -27.5960  -37.2230   24.6980 C   0  0  0  0  0  1  0  0  0  0  0  0
  -26.4930  -37.3860   23.7530 N   0  0  0  0  0  0  0  0  0  0  0  0
  -26.0900  -38.3090   23.8890 H   0  0  0  0  0  0  0  0  0  0  0  0
  -26.4610  -31.7150   25.0780 C   0  0  1  0  0  0  0  0  0  0  0  0
  -25.3820  -31.4590   26.1560 C   0  0  0  0  0  1  0  0  0  0  0  0
  -27.0430  -30.3450   24.6610 C   0  0  0  0  0  1  0  0  0  0  0  0
  -27.6190  -32.5020   25.7370 C   0  0  0  0  0  1  0  0  0  0  0  0
  -31.0650  -19.3220   20.6150 C   0  0  0  0  0  2  0  0  0  0  0  0
  -30.1930  -18.1620   21.1240 C   0  0  0  0  0  2  0  0  0  0  0  0
  -30.9430  -16.8490   20.9160 C   0  0  0  0  0  2  0  0  0  0  0  0
  -30.0930  -15.5840   21.1430 C   0  0  0  0  0  2  0  0  0  0  0  0
  -30.7370  -14.3540   20.4920 C   0  0  0  0  0  0  0  0  0  0  0  0
  -30.3530  -12.2420   19.2980 C   0  0  0  0  0  2  0  0  0  0  0  0
  -29.4300  -12.5360   18.1010 C   0  0  0  0  0  2  0  0  0  0  0  0
  -27.9520  -12.4230   18.5230 C   0  0  0  0  0  2  0  0  0  0  0  0
  -27.6360  -13.2380   19.8040 C   0  0  0  0  0  3  0  0  0  0  0  0
  -28.6840  -12.9740   20.9090 C   0  0  0  0  0  2  0  0  0  0  0  0
  -30.0190  -13.2150   20.3470 N   0  0  0  0  0  0  0  0  0  0  0  0
  -31.8610  -14.4830   19.9950 O   0  0  0  0  0  0  0  0  0  0  0  0
  -25.2350  -13.8710   20.4810 C   0  0  0  0  0  0  0  0  0  0  0  0
  -24.1580  -13.1070   20.8470 C   0  0  0  0  0  0  0  0  0  0  0  0
  -24.6110  -11.7540   20.8390 C   0  0  0  0  0  0  0  0  0  0  0  0
  -26.2770  -12.9810   20.2740 N   0  0  0  0  0  0  0  0  0  0  0  0
  -25.9040  -11.7030   20.5430 N   0  0  0  0  0  0  0  0  0  0  0  0
  -23.8750  -10.4980   21.0380 C   0  0  0  0  0  0  0  0  0  0  0  0
  -24.3030   -9.5300   21.9740 C   0  0  0  0  0  3  0  0  0  0  0  0
  -23.5670   -8.3390   22.1600 C   0  0  0  0  0  3  0  0  0  0  0  0
  -22.3910   -8.1080   21.4070 C   0  0  0  0  0  0  0  0  0  0  0  0
  -21.9830   -9.0640   20.4590 C   0  0  0  0  0  3  0  0  0  0  0  0
  -22.7190  -10.2460   20.2730 C   0  0  0  0  0  3  0  0  0  0  0  0
  -21.6280   -6.9690   21.5000 O   0  0  0  0  0  0  0  0  0  0  0  0
  -21.5900   -6.2220   22.6490 C   0  0  0  0  0  0  0  0  0  0  0  0
  -21.1950   -6.7780   23.8870 C   0  0  0  0  0  3  0  0  0  0  0  0
  -21.1020   -5.9580   25.0300 C   0  0  0  0  0  3  0  0  0  0  0  0
  -21.3950   -4.5850   24.9360 C   0  0  0  0  0  0  0  0  0  0  0  0
  -21.7840   -4.0280   23.7040 C   0  0  0  0  0  3  0  0  0  0  0  0
  -21.8780   -4.8450   22.5640 C   0  0  0  0  0  0  0  0  0  0  0  0
  -22.2310   -4.3000   21.3740 F   0  0  0  0  0  0  0  0  0  0  0  0
  -21.3000   -3.7950   26.0310 F   0  0  0  0  0  0  0  0  0  0  0  0
  -22.7610  -13.5970   21.1010 C   0  0  0  0  0  0  0  0  0  0  0  0
  -22.0240  -12.9120   21.9690 N   0  0  0  0  0  0  0  0  0  0  0  0
  -22.3330  -14.6170   20.5660 O   0  0  0  0  0  0  0  0  0  0  0  0
  -22.3850  -12.0820   22.4140 H   0  0  0  0  0  0  0  0  0  0  0  0
  -21.0890  -13.2230   22.1880 H   0  0  0  0  0  0  0  0  0  0  0  0
  -25.4120  -15.2370   20.2900 N   0  0  0  0  0  0  0  0  0  0  0  0
  -24.6540  -15.9050   20.3800 H   0  0  0  0  0  0  0  0  0  0  0  0
  -26.2790  -15.6610   19.9860 H   0  0  0  0  0  0  0  0  0  0  0  0
  1  6  1  0
  3  1  1  0
  3  7  1  0
  4  2  1  0
  5  6  1  0
  6 11  1  1
  6  2  1  0
  7 54  1  1
  7  4  1  0
  8  5  1  0
  8  7  1  0
  8  9  1  1
 10  8  1  0
 12 13  1  0
 12 11  1  0
 13 15  1  0
 14 25  2  0
 15 20  1  0
 16 24  1  0
 16 26  1  0
 17 23  1  0
 17 19  1  0
 18 24  1  0
 19 18  1  0
 20 19  2  0
 21 22  1  0
 21 15  2  0
 22 17  2  0
 23 16  1  0
 24 14  1  0
 26 28  2  0
 27 26  1  0
 29 27  1  0
 30 39  2  0
 30 35  1  0
 31 27  1  0
 31 35  1  0
 32 31  1  0
 33 34  1  0
 33 32  1  0
 34 30  1  0
 35 36  2  0
 36 37  1  0
 38 37  2  0
 39 38  1  0
 40 14  1  0
 40 41  1  0
 40 50  1  0
 41 44  1  0
 42 46  1  0
 42 41  1  0
 43 42  2  0
 46 45  1  0
 48 46  1  0
 48 49  1  0
 48 47  1  0
 50 53  1  1
 50 51  1  0
 52 50  1  0
 54 55  1  0
 56 55  1  0
 56 57  1  0
 58 57  1  0
 59 64  1  0
 60 61  1  0
 60 59  1  0
 62 61  1  0
 62 69  1  0
 62 63  1  0
 64 58  1  0
 64 63  1  0
 65 58  2  0
 66 67  2  0
 67 86  1  0
 68 67  1  0
 68 71  1  0
 69 66  1  0
 69 70  1  0
 70 68  2  0
 71 72  1  0
 72 73  2  0
 74 77  1  0
 74 73  1  0
 75 74  2  0
 76 75  1  0
 76 71  2  0
 77 78  1  0
 78 79  1  0
 79 80  2  0
 81 80  1  0
 81 85  1  0
 82 81  2  0
 83 78  2  0
 83 82  1  0
 84 83  1  0
 86 87  1  0
 87 90  1  0
 87 89  1  0
 88 86  2  0
 91 92  1  0
 91 66  1  0
 93 91  1  0
M  ISO  4  12 101  13 101  57 100  58 100
M  END
>  <TORSDO>  (73) 
F 22

>  <SCORE>  (73) 
-13.285

>  <name>  (73) 
74

>  <ligand_id>  (73) 
74

>  <original_smiles>  (73) 
[H]c1c([H])c([H])c2c(c1[H])C([H])([H])C([H])([H])C([H])([H])C2([H])N([H])C(=O)C1([H])N(C(=O)C([H])(N([H])C(=O)C([H])(N([H])C([H])([H])[H])C([H])([H])[H])C(C([H])([H])[H])(C([H])([H])[H])C([H])([H])[H])C([H])([H])c2c([H])c(OC([H])([H])C([H])([H])C34C([H])([H])C([H])([H])C(C([H])([H])C([H])([H])C([H])([H])C([H])([H])C(=O)N5C([H])([H])C([H])([H])C([H])([H])C([H])(n6nc(-c7c([H])c([H])c(Oc8c([H])c([H])c(F)c([H])c8F)c([H])c7[H])c(C(=O)N([H])[H])c6N([H])[H])C5([H])[H])(C([H])([H])C3([H])[H])C(C([H])([H])[H])(C([H])([H])[H])C4([H])[H])c([H])c([H])c2C1([H])[H]

>  <smiles>  (73) 
[H]c1c([H])c([H])c2c(c1[H])C([H])([H])C([H])([H])C([H])([H])C2([H])N([H])C(=O)C1([H])N(C(=O)C([H])(N([H])C(=O)C([H])(N([H])C([H])([H])[H])C([H])([H])[H])C(C([H])([H])[H])(C([H])([H])[H])C([H])([H])[H])C([H])([H])c2c([H])c(OC([H])([H])C([H])([H])C34C([H])([H])C([H])([H])C(C([H])([H])C([H])([H])C([H])([H])C([H])([H])C(=O)N5C([H])([H])C([H])([H])C([H])([H])C([H])(n6nc(-c7c([H])c([H])c(Oc8c([H])c([H])c(F)c([H])c8F)c([H])c7[H])c(C(=O)N([H])[H])c6N([H])[H])C5([H])[H])(C([H])([H])C3([H])[H])C(C([H])([H])[H])(C([H])([H])[H])C4([H])[H])c([H])c([H])c2C1([H])[H]

$$$$
75:0:0
     RDKit          3D

 93100  0  0  1  0  0  0  0  0999 V2000
  -29.3170  -19.7940   20.5390 N   0  0  0  0  0  4  0  0  0  0  0  0
  -28.7040  -19.7400   21.3350 H   0  0  0  0  0  0  0  0  0  0  0  0
  -30.2560  -19.8590   20.9010 H   0  0  0  0  0  0  0  0  0  0  0  0
  -29.1930  -18.4750   19.7810 C   0  0  0  0  0  3  0  0  0  0  0  0
  -26.6220  -18.7080   19.4050 C   0  0  0  0  0  1  0  0  0  0  0  0
  -27.7860  -17.8610   19.9300 C   0  0  0  0  0  2  0  0  0  0  0  0
  -30.3360  -17.3440   19.9660 C   0  0  0  0  0  3  0  0  0  0  0  0
  -30.0880  -16.0050   20.8370 C   0  0  0  0  0  2  0  0  0  0  0  0
  -30.8070  -14.6560   20.3860 C   0  0  0  0  0  0  0  0  0  0  0  0
  -30.5470  -12.4190   19.3300 C   0  0  0  0  0  2  0  0  0  0  0  0
  -29.6140  -12.5900   18.1120 C   0  0  0  0  0  2  0  0  0  0  0  0
  -28.1400  -12.4360   18.5360 C   0  0  0  0  0  2  0  0  0  0  0  0
  -27.7900  -13.2930   19.7830 C   0  0  0  0  0  3  0  0  0  0  0  0
  -28.8480  -13.1320   20.8970 C   0  0  0  0  0  2  0  0  0  0  0  0
  -30.1620  -13.4470   20.3220 N   0  0  0  0  0  0  0  0  0  0  0  0
  -31.9640  -14.7380   19.9710 O   0  0  0  0  0  0  0  0  0  0  0  0
  -25.4070  -13.9040   20.5160 C   0  0  0  0  0  0  0  0  0  0  0  0
  -24.3360  -13.1390   20.8870 C   0  0  0  0  0  0  0  0  0  0  0  0
  -24.7880  -11.7850   20.8530 C   0  0  0  0  0  0  0  0  0  0  0  0
  -26.4430  -13.0170   20.2730 N   0  0  0  0  0  0  0  0  0  0  0  0
  -26.0770  -11.7360   20.5390 N   0  0  0  0  0  0  0  0  0  0  0  0
  -24.0520  -10.5280   21.0440 C   0  0  0  0  0  0  0  0  0  0  0  0
  -24.4740   -9.5610   21.9810 C   0  0  0  0  0  3  0  0  0  0  0  0
  -23.7410   -8.3690   22.1610 C   0  0  0  0  0  3  0  0  0  0  0  0
  -22.5690   -8.1360   21.4020 C   0  0  0  0  0  0  0  0  0  0  0  0
  -22.1670   -9.0910   20.4520 C   0  0  0  0  0  3  0  0  0  0  0  0
  -22.9020  -10.2750   20.2720 C   0  0  0  0  0  3  0  0  0  0  0  0
  -21.8080   -6.9960   21.4890 O   0  0  0  0  0  0  0  0  0  0  0  0
  -21.7440   -6.2600   22.6460 C   0  0  0  0  0  0  0  0  0  0  0  0
  -21.2890   -6.8170   23.8590 C   0  0  0  0  0  3  0  0  0  0  0  0
  -21.1750   -6.0060   25.0060 C   0  0  0  0  0  3  0  0  0  0  0  0
  -21.5030   -4.6390   24.9400 C   0  0  0  0  0  0  0  0  0  0  0  0
  -21.9490   -4.0810   23.7290 C   0  0  0  0  0  3  0  0  0  0  0  0
  -22.0670   -4.8900   22.5840 C   0  0  0  0  0  0  0  0  0  0  0  0
  -22.4780   -4.3420   21.4160 F   0  0  0  0  0  0  0  0  0  0  0  0
  -21.3840   -3.8580   26.0390 F   0  0  0  0  0  0  0  0  0  0  0  0
  -22.9410  -13.6270   21.1590 C   0  0  0  0  0  0  0  0  0  0  0  0
  -22.2100  -12.9380   22.0260 N   0  0  0  0  0  0  0  0  0  0  0  0
  -22.5100  -14.6550   20.6390 O   0  0  0  0  0  0  0  0  0  0  0  0
  -22.5730  -12.1070   22.4700 H   0  0  0  0  0  0  0  0  0  0  0  0
  -21.2740  -13.2470   22.2500 H   0  0  0  0  0  0  0  0  0  0  0  0
  -25.5800  -15.2720   20.3400 N   0  0  0  0  0  0  0  0  0  0  0  0
  -24.8160  -15.9300   20.4390 H   0  0  0  0  0  0  0  0  0  0  0  0
  -26.4210  -15.6970   19.9740 H   0  0  0  0  0  0  0  0  0  0  0  0
  -31.7240  -17.9900   20.2070 C   0  0  0  0  0  2  0  0  0  0  0  0
  -33.4880  -19.6200   19.4260 C   0  0  0  0  0  1  0  0  0  0  0  0
  -32.7270  -17.7970   17.8500 C   0  0  0  0  0  1  0  0  0  0  0  0
  -32.3050  -18.7460   18.9890 C   0  0  0  0  0  3  0  0  0  0  0  0
  -29.0330  -21.0950   19.7880 C   0  0  0  0  0  3  0  0  0  0  0  0
  -28.7790  -22.4130   20.6560 C   0  0  0  0  0  3  0  0  0  0  0  0
  -28.7610  -23.8480   19.9420 C   0  0  0  0  0  3  0  0  0  0  0  0
  -28.1490  -25.0740   20.7560 C   0  0  0  0  0  3  0  0  0  0  0  0
  -28.3340  -26.4610   20.2730 O   0  0  0  0  0  0  0  0  0  0  0  0
  -24.5710  -31.8560   23.2560 C   0  0  0  0  0  0  0  0  0  0  0  0
  -27.2110  -27.2930   20.2560 C   0  0  0  0  0  0  0  0  0  0  0  0
  -23.3770  -30.4370   21.6250 C   0  0  0  0  0  3  0  0  0  0  0  0
  -24.8360  -28.8760   20.2220 C   0  0  0  0  0  0  0  0  0  0  0  0
  -25.9130  -30.7690   21.4430 C   0  0  0  0  0  2  0  0  0  0  0  0
  -26.0010  -29.3830   20.8140 C   0  0  0  0  0  0  0  0  0  0  0  0
  -27.1940  -28.6060   20.8180 C   0  0  0  0  0  3  0  0  0  0  0  0
  -26.0260  -26.8290   19.6480 C   0  0  0  0  0  3  0  0  0  0  0  0
  -24.8500  -27.6010   19.6320 C   0  0  0  0  0  3  0  0  0  0  0  0
  -23.5970  -29.7500   20.2530 C   0  0  0  0  0  2  0  0  0  0  0  0
  -24.6390  -31.0380   22.1660 N   0  0  0  0  0  0  0  0  0  0  0  0
  -23.4850  -32.1340   23.7850 O   0  0  0  0  0  0  0  0  0  0  0  0
  -22.7160  -29.4260   22.5910 C   0  0  0  0  0  0  0  0  0  0  0  0
  -21.3920  -29.2410   22.4590 N   0  0  0  0  0  0  0  0  0  0  0  0
  -23.3950  -28.8120   23.4190 O   0  0  0  0  0  0  0  0  0  0  0  0
  -20.9050  -29.7920   21.7660 H   0  0  0  0  0  0  0  0  0  0  0  0
  -18.0160  -28.0450   22.9650 C   0  0  0  0  0  0  0  0  0  0  0  0
  -20.5740  -28.3090   23.2340 C   0  0  0  0  0  3  0  0  0  0  0  0
  -20.6770  -26.8730   22.6690 C   0  0  0  0  0  2  0  0  0  0  0  0
  -19.5760  -26.5400   21.6570 C   0  0  0  0  0  2  0  0  0  0  0  0
  -18.1940  -26.6910   22.2980 C   0  0  0  0  0  2  0  0  0  0  0  0
  -19.1340  -28.8110   23.3890 C   0  0  0  0  0  0  0  0  0  0  0  0
  -18.9140  -30.0790   23.9710 C   0  0  0  0  0  3  0  0  0  0  0  0
  -17.6090  -30.5800   24.1340 C   0  0  0  0  0  3  0  0  0  0  0  0
  -16.5060  -29.8120   23.7240 C   0  0  0  0  0  3  0  0  0  0  0  0
  -16.7100  -28.5470   23.1440 C   0  0  0  0  0  3  0  0  0  0  0  0
  -25.8510  -32.4980   23.8750 C   0  0  0  0  0  3  0  0  0  0  0  0
  -26.3620  -31.7430   25.1640 C   0  0  1  0  0  0  0  0  0  0  0  0
  -25.2620  -31.5150   26.2290 C   0  0  0  0  0  1  0  0  0  0  0  0
  -26.9520  -30.3630   24.7930 C   0  0  0  0  0  1  0  0  0  0  0  0
  -27.5040  -32.5490   25.8270 C   0  0  0  0  0  1  0  0  0  0  0  0
  -25.5380  -33.9000   24.1880 N   0  0  0  0  0  0  0  0  0  0  0  0
  -25.8710  -34.9440   23.4180 C   0  0  0  0  0  0  0  0  0  0  0  0
  -26.5450  -34.8290   22.3910 O   0  0  0  0  0  0  0  0  0  0  0  0
  -24.9470  -34.0630   24.9900 H   0  0  0  0  0  0  0  0  0  0  0  0
  -24.1480  -36.7360   23.0230 C   0  0  0  0  0  1  0  0  0  0  0  0
  -25.3770  -36.3380   23.8560 C   0  0  0  0  0  3  0  0  0  0  0  0
  -27.4960  -37.2320   24.7140 C   0  0  0  0  0  1  0  0  0  0  0  0
  -26.4120  -37.3900   23.7490 N   0  0  0  0  0  0  0  0  0  0  0  0
  -26.0030  -38.3120   23.8770 H   0  0  0  0  0  0  0  0  0  0  0  0
  1  3  1  0
  1  2  1  0
  4  6  1  0
  4  7  1  0
  4  1  1  0
  5  6  1  0
  7 45  1  0
  7  8  1  0
  9  8  1  0
 10 15  1  0
 11 12  1  0
 11 10  1  0
 13 12  1  0
 13 20  1  0
 13 14  1  0
 15  9  1  0
 15 14  1  0
 16  9  2  0
 17 18  2  0
 18 37  1  0
 19 18  1  0
 19 22  1  0
 20 17  1  0
 20 21  1  0
 21 19  2  0
 22 23  1  0
 23 24  2  0
 25 28  1  0
 25 24  1  0
 26 25  2  0
 27 26  1  0
 27 22  2  0
 28 29  1  0
 29 30  1  0
 30 31  2  0
 32 31  1  0
 32 36  1  0
 33 32  2  0
 34 29  2  0
 34 33  1  0
 35 34  1  0
 37 38  1  0
 38 41  1  0
 38 40  1  0
 39 37  2  0
 42 43  1  0
 42 17  1  0
 44 42  1  0
 47 48  1  0
 48 46  1  0
 48 45  1  0
 49  1  1  0
 49 50  2  0
 51 50  1  0
 51 52  2  0
 53 52  1  0
 54 65  2  0
 55 53  1  0
 55 60  1  0
 56 64  1  0
 56 66  1  0
 57 63  1  0
 57 59  1  0
 58 64  1  0
 59 60  2  0
 59 58  1  0
 61 55  2  0
 62 61  1  0
 62 57  2  0
 63 56  1  0
 64 54  1  0
 66 68  2  0
 67 66  1  0
 69 67  1  0
 70 79  2  0
 70 75  1  0
 71 67  1  0
 71 75  1  0
 72 71  1  0
 73 74  1  0
 73 72  1  0
 74 70  1  0
 75 76  2  0
 76 77  1  0
 78 77  2  0
 79 78  1  0
 80 54  1  0
 80 85  1  0
 80 81  1  0
 81 84  1  1
 81 82  1  0
 83 81  1  0
 85 88  1  0
 86 90  1  0
 86 85  1  0
 87 86  2  0
 90 89  1  0
 92 90  1  0
 92 93  1  0
 92 91  1  0
M  ISO  4   8 100   9 100  52 101  53 101
M  END
>  <TORSDO>  (74) 
F 26

>  <SCORE>  (74) 
-11.871

>  <name>  (74) 
75

>  <ligand_id>  (74) 
75

>  <original_smiles>  (74) 
[H]c1c([H])c([H])c2c(c1[H])C([H])([H])C([H])([H])C([H])([H])C2([H])N([H])C(=O)C1([H])N(C(=O)C([H])(N([H])C(=O)C([H])(N([H])C([H])([H])[H])C([H])([H])[H])C(C([H])([H])[H])(C([H])([H])[H])C([H])([H])[H])C([H])([H])c2c([H])c(OC([H])([H])C([H])([H])C([H])([H])C([H])([H])[N+]([H])([H])C([H])(C([H])([H])C([H])([H])[H])C([H])(C([H])([H])C(=O)N3C([H])([H])C([H])([H])C([H])([H])C([H])(n4nc(-c5c([H])c([H])c(Oc6c([H])c([H])c(F)c([H])c6F)c([H])c5[H])c(C(=O)N([H])[H])c4N([H])[H])C3([H])[H])C([H])([H])C([H])(C([H])([H])[H])C([H])([H])[H])c([H])c([H])c2C1([H])[H]

>  <smiles>  (74) 
[H]c1c([H])c([H])c2c(c1[H])C([H])([H])C([H])([H])C([H])([H])C2([H])N([H])C(=O)C1([H])N(C(=O)C([H])(N([H])C(=O)C([H])(N([H])C([H])([H])[H])C([H])([H])[H])C(C([H])([H])[H])(C([H])([H])[H])C([H])([H])[H])C([H])([H])c2c([H])c(OC([H])([H])C([H])([H])C([H])([H])C([H])([H])[N+]([H])([H])C([H])(C([H])([H])C([H])([H])[H])C([H])(C([H])([H])C(=O)N3C([H])([H])C([H])([H])C([H])([H])C([H])(n4nc(-c5c([H])c([H])c(Oc6c([H])c([H])c(F)c([H])c6F)c([H])c5[H])c(C(=O)N([H])[H])c4N([H])[H])C3([H])[H])C([H])([H])C([H])(C([H])([H])[H])C([H])([H])[H])c([H])c([H])c2C1([H])[H]

$$$$
76:0:0
     RDKit          3D

 90 98  0  0  1  0  0  0  0  0999 V2000
  -31.5480  -22.2770   21.3300 C   0  0  0  0  0  2  0  0  0  0  0  0
  -31.2980  -21.0140   20.4820 C   0  0  0  0  0  2  0  0  0  0  0  0
  -30.2050  -22.6580   21.9980 C   0  0  0  0  0  2  0  0  0  0  0  0
  -29.8660  -20.6280   20.8400 C   0  0  0  0  0  3  0  0  0  0  0  0
  -29.0810  -22.1120   21.0780 C   0  0  1  0  0  0  0  0  0  0  0  0
  -27.7730  -21.8760   21.8560 C   0  0  0  0  0  1  0  0  0  0  0  0
  -29.3540  -19.2460   20.2980 N   0  0  0  0  0  4  0  0  0  0  0  0
  -29.1420  -19.3580   19.3200 H   0  0  0  0  0  0  0  0  0  0  0  0
  -28.4760  -19.0760   20.7600 H   0  0  0  0  0  0  0  0  0  0  0  0
  -30.2270  -17.9300   20.4710 C   0  0  0  0  0  3  0  0  0  0  0  0
  -29.6160  -16.3740   20.3560 C   0  0  0  0  0  3  0  0  0  0  0  0
  -30.4930  -14.9860   20.1650 C   0  0  0  0  0  0  0  0  0  0  0  0
  -30.3690  -12.6470   19.2060 C   0  0  0  0  0  2  0  0  0  0  0  0
  -29.4110  -12.6550   17.9880 C   0  0  0  0  0  2  0  0  0  0  0  0
  -27.9490  -12.4520   18.4380 C   0  0  0  0  0  2  0  0  0  0  0  0
  -27.5740  -13.3550   19.6410 C   0  0  0  0  0  3  0  0  0  0  0  0
  -28.6480  -13.3210   20.7460 C   0  0  0  0  0  2  0  0  0  0  0  0
  -29.9260  -13.7150   20.1420 N   0  0  0  0  0  0  0  0  0  0  0  0
  -31.6840  -15.0730   19.8490 O   0  0  0  0  0  0  0  0  0  0  0  0
  -25.2020  -13.9350   20.4130 C   0  0  0  0  0  0  0  0  0  0  0  0
  -24.1460  -13.1590   20.8020 C   0  0  0  0  0  0  0  0  0  0  0  0
  -24.6120  -11.8090   20.7720 C   0  0  0  0  0  0  0  0  0  0  0  0
  -26.2430  -13.0570   20.1580 N   0  0  0  0  0  0  0  0  0  0  0  0
  -25.8980  -11.7750   20.4410 N   0  0  0  0  0  0  0  0  0  0  0  0
  -23.8920  -10.5460   20.9780 C   0  0  0  0  0  0  0  0  0  0  0  0
  -24.3420   -9.5810   21.9070 C   0  0  0  0  0  3  0  0  0  0  0  0
  -23.6210   -8.3840   22.1020 C   0  0  0  0  0  3  0  0  0  0  0  0
  -22.4340   -8.1430   21.3700 C   0  0  0  0  0  0  0  0  0  0  0  0
  -22.0020   -9.0960   20.4310 C   0  0  0  0  0  3  0  0  0  0  0  0
  -22.7240  -10.2850   20.2330 C   0  0  0  0  0  3  0  0  0  0  0  0
  -21.6800   -6.9990   21.4750 O   0  0  0  0  0  0  0  0  0  0  0  0
  -21.6590   -6.2550   22.6280 C   0  0  0  0  0  0  0  0  0  0  0  0
  -21.2720   -6.8100   23.8670 C   0  0  0  0  0  3  0  0  0  0  0  0
  -21.1990   -5.9940   25.0130 C   0  0  0  0  0  3  0  0  0  0  0  0
  -21.5010   -4.6220   24.9220 C   0  0  0  0  0  0  0  0  0  0  0  0
  -21.8810   -4.0660   23.6880 C   0  0  0  0  0  3  0  0  0  0  0  0
  -21.9580   -4.8800   22.5430 C   0  0  0  0  0  0  0  0  0  0  0  0
  -22.3030   -4.3350   21.3530 F   0  0  0  0  0  0  0  0  0  0  0  0
  -21.4230   -3.8360   26.0210 F   0  0  0  0  0  0  0  0  0  0  0  0
  -22.7510  -13.6340   21.0920 C   0  0  0  0  0  0  0  0  0  0  0  0
  -22.0360  -12.9390   21.9690 N   0  0  0  0  0  0  0  0  0  0  0  0
  -22.3050  -14.6570   20.5740 O   0  0  0  0  0  0  0  0  0  0  0  0
  -22.4110  -12.1110   22.4080 H   0  0  0  0  0  0  0  0  0  0  0  0
  -21.1010  -13.2390   22.2040 H   0  0  0  0  0  0  0  0  0  0  0  0
  -25.3640  -15.3060   20.2290 N   0  0  0  0  0  0  0  0  0  0  0  0
  -24.6020  -15.9640   20.3460 H   0  0  0  0  0  0  0  0  0  0  0  0
  -26.2130  -15.7370   19.8870 H   0  0  0  0  0  0  0  0  0  0  0  0
  -28.8570  -23.4390   20.0710 C   0  0  0  0  0  2  0  0  0  0  0  0
  -28.0990  -24.8540   20.5790 C   0  0  0  0  0  2  0  0  0  0  0  0
  -28.3080  -26.3130   20.1200 O   0  0  0  0  0  0  0  0  0  0  0  0
  -24.6460  -31.9030   23.2040 C   0  0  0  0  0  0  0  0  0  0  0  0
  -27.2270  -27.2540   20.1230 C   0  0  0  0  0  0  0  0  0  0  0  0
  -23.4320  -30.5000   21.5800 C   0  0  0  0  0  3  0  0  0  0  0  0
  -24.8750  -28.9460   20.1280 C   0  0  0  0  0  0  0  0  0  0  0  0
  -25.9780  -30.8010   21.3710 C   0  0  0  0  0  2  0  0  0  0  0  0
  -26.0580  -29.4140   20.7180 C   0  0  0  0  0  0  0  0  0  0  0  0
  -27.2370  -28.5840   20.6930 C   0  0  0  0  0  3  0  0  0  0  0  0
  -26.0200  -26.8760   19.4970 C   0  0  0  0  0  3  0  0  0  0  0  0
  -24.8650  -27.6890   19.5030 C   0  0  0  0  0  3  0  0  0  0  0  0
  -23.6370  -29.8270   20.1960 C   0  0  0  0  0  2  0  0  0  0  0  0
  -24.7070  -31.0880   22.1060 N   0  0  0  0  0  0  0  0  0  0  0  0
  -23.5670  -32.1760   23.7480 O   0  0  0  0  0  0  0  0  0  0  0  0
  -22.7780  -29.4840   22.5490 C   0  0  0  0  0  0  0  0  0  0  0  0
  -21.4490  -29.3020   22.4410 N   0  0  0  0  0  0  0  0  0  0  0  0
  -23.4680  -28.8610   23.3600 O   0  0  0  0  0  0  0  0  0  0  0  0
  -20.9510  -29.8580   21.7610 H   0  0  0  0  0  0  0  0  0  0  0  0
  -18.0870  -28.0660   22.9820 C   0  0  0  0  0  0  0  0  0  0  0  0
  -20.6450  -28.3570   23.2200 C   0  0  0  0  0  3  0  0  0  0  0  0
  -20.7560  -26.9240   22.6470 C   0  0  0  0  0  2  0  0  0  0  0  0
  -19.6470  -26.5890   21.6450 C   0  0  0  0  0  2  0  0  0  0  0  0
  -18.2710  -26.7180   22.3030 C   0  0  0  0  0  2  0  0  0  0  0  0
  -19.2020  -28.8420   23.3970 C   0  0  0  0  0  0  0  0  0  0  0  0
  -18.9760  -30.1010   23.9940 C   0  0  0  0  0  3  0  0  0  0  0  0
  -17.6660  -30.5880   24.1750 C   0  0  0  0  0  3  0  0  0  0  0  0
  -16.5670  -29.8100   23.7740 C   0  0  0  0  0  3  0  0  0  0  0  0
  -16.7770  -28.5490   23.1860 C   0  0  0  0  0  3  0  0  0  0  0  0
  -25.9290  -32.5440   23.8150 C   0  0  0  0  0  3  0  0  0  0  0  0
  -25.6090  -33.9370   24.1640 N   0  0  0  0  0  0  0  0  0  0  0  0
  -25.9140  -35.0040   23.4130 C   0  0  0  0  0  0  0  0  0  0  0  0
  -26.5640  -34.9200   22.3670 O   0  0  0  0  0  0  0  0  0  0  0  0
  -25.0300  -34.0760   24.9790 H   0  0  0  0  0  0  0  0  0  0  0  0
  -24.1570  -36.7830   23.1220 C   0  0  0  0  0  1  0  0  0  0  0  0
  -25.4220  -36.3830   23.8980 C   0  0  0  0  0  3  0  0  0  0  0  0
  -27.5680  -37.2810   24.6840 C   0  0  0  0  0  1  0  0  0  0  0  0
  -26.4390  -37.4490   23.7710 N   0  0  0  0  0  0  0  0  0  0  0  0
  -26.0270  -38.3630   23.9430 H   0  0  0  0  0  0  0  0  0  0  0  0
  -26.4720  -31.7700   25.0790 C   0  0  1  0  0  0  0  0  0  0  0  0
  -25.4000  -31.5150   26.1650 C   0  0  0  0  0  1  0  0  0  0  0  0
  -27.0580  -30.3990   24.6720 C   0  0  0  0  0  1  0  0  0  0  0  0
  -27.6320  -32.5680   25.7220 C   0  0  0  0  0  1  0  0  0  0  0  0
  1  3  1  0
  2  4  1  0
  2  1  1  0
  4  7  1  0
  4  5  1  0
  5  6  1  1
  5  3  1  0
  7 10  1  0
  7  9  1  0
  8  7  1  0
 11 10  2  0
 12 11  1  0
 13 18  1  0
 14 15  1  0
 14 13  1  0
 16 15  1  0
 16 23  1  0
 16 17  1  0
 18 12  1  0
 18 17  1  0
 19 12  2  0
 20 21  2  0
 21 40  1  0
 22 21  1  0
 22 25  1  0
 23 20  1  0
 23 24  1  0
 24 22  2  0
 25 26  1  0
 26 27  2  0
 28 31  1  0
 28 27  1  0
 29 28  2  0
 30 29  1  0
 30 25  2  0
 31 32  1  0
 32 33  1  0
 33 34  2  0
 35 34  1  0
 35 39  1  0
 36 35  2  0
 37 32  2  0
 37 36  1  0
 38 37  1  0
 40 41  1  0
 41 44  1  0
 41 43  1  0
 42 40  2  0
 45 46  1  0
 45 20  1  0
 47 45  1  0
 48 49  1  0
 48  5  1  0
 50 52  1  0
 50 49  1  0
 51 62  2  0
 52 57  1  0
 53 61  1  0
 53 63  1  0
 54 60  1  0
 54 56  1  0
 55 61  1  0
 56 55  1  0
 57 56  2  0
 58 59  1  0
 58 52  2  0
 59 54  2  0
 60 53  1  0
 61 51  1  0
 63 65  2  0
 64 63  1  0
 66 64  1  0
 67 76  2  0
 67 72  1  0
 68 64  1  0
 68 72  1  0
 69 68  1  0
 70 71  1  0
 70 69  1  0
 71 67  1  0
 72 73  2  0
 73 74  1  0
 75 74  2  0
 76 75  1  0
 77 51  1  0
 77 78  1  0
 77 87  1  0
 78 81  1  0
 79 83  1  0
 79 78  1  0
 80 79  2  0
 83 82  1  0
 85 83  1  0
 85 86  1  0
 85 84  1  0
 87 90  1  1
 87 88  1  0
 89 87  1  0
M  ISO  4  11 100  12 100  49 101  50 101
M  END
>  <TORSDO>  (75) 
F 21

>  <SCORE>  (75) 
-13.170

>  <name>  (75) 
76

>  <ligand_id>  (75) 
76

>  <original_smiles>  (75) 
[H]c1c([H])c([H])c2c(c1[H])C([H])([H])C([H])([H])C([H])([H])C2([H])N([H])C(=O)C1([H])N(C(=O)C([H])(N([H])C(=O)C([H])(N([H])C([H])([H])[H])C([H])([H])[H])C(C([H])([H])[H])(C([H])([H])[H])C([H])([H])[H])C([H])([H])c2c([H])c(OC([H])([H])C([H])([H])C3(C([H])([H])[H])C([H])([H])C([H])([H])C([H])([H])C3([H])[N+]([H])([H])C([H])([H])C([H])([H])C(=O)N3C([H])([H])C([H])([H])C([H])([H])C([H])(n4nc(-c5c([H])c([H])c(Oc6c([H])c([H])c(F)c([H])c6F)c([H])c5[H])c(C(=O)N([H])[H])c4N([H])[H])C3([H])[H])c([H])c([H])c2C1([H])[H]

>  <smiles>  (75) 
[H]c1c([H])c([H])c2c(c1[H])C([H])([H])C([H])([H])C([H])([H])C2([H])N([H])C(=O)C1([H])N(C(=O)C([H])(N([H])C(=O)C([H])(N([H])C([H])([H])[H])C([H])([H])[H])C(C([H])([H])[H])(C([H])([H])[H])C([H])([H])[H])C([H])([H])c2c([H])c(OC([H])([H])C([H])([H])C3(C([H])([H])[H])C([H])([H])C([H])([H])C([H])([H])C3([H])[N+]([H])([H])C([H])([H])C([H])([H])C(=O)N3C([H])([H])C([H])([H])C([H])([H])C([H])(n4nc(-c5c([H])c([H])c(Oc6c([H])c([H])c(F)c([H])c6F)c([H])c5[H])c(C(=O)N([H])[H])c4N([H])[H])C3([H])[H])c([H])c([H])c2C1([H])[H]

$$$$
77:0:0
     RDKit          3D

 88 96  0  0  1  0  0  0  0  0999 V2000
  -29.0710  -22.6910   21.2510 C   0  0  0  0  0  3  0  0  0  0  0  0
  -29.8500  -20.2630   20.7380 C   0  0  0  0  0  0  0  0  0  0  0  0
  -28.8920  -21.2420   20.8470 N   0  0  0  0  0  0  0  0  0  0  0  0
  -31.0400  -20.5680   20.6380 O   0  0  0  0  0  0  0  0  0  0  0  0
  -27.9410  -20.8970   20.8980 H   0  0  0  0  0  0  0  0  0  0  0  0
  -30.2040  -18.0420   21.9170 C   0  0  0  0  0  2  0  0  0  0  0  0
  -29.4150  -18.7750   20.8580 C   0  0  0  0  0  3  0  0  0  0  0  0
  -30.2920  -17.4800   20.5170 C   0  0  0  0  0  3  0  0  0  0  0  0
  -29.7520  -15.9980   20.3390 C   0  0  0  0  0  2  0  0  0  0  0  0
  -30.6610  -14.7340   19.9820 C   0  0  0  0  0  0  0  0  0  0  0  0
  -30.4640  -12.4770   18.9300 C   0  0  0  0  0  2  0  0  0  0  0  0
  -29.4400  -12.5940   17.7720 C   0  0  0  0  0  2  0  0  0  0  0  0
  -27.9880  -12.4300   18.2760 C   0  0  0  0  0  2  0  0  0  0  0  0
  -27.7030  -13.2720   19.5470 C   0  0  0  0  0  3  0  0  0  0  0  0
  -28.8300  -13.1070   20.5900 C   0  0  0  0  0  2  0  0  0  0  0  0
  -30.0970  -13.4810   19.9510 N   0  0  0  0  0  0  0  0  0  0  0  0
  -31.8030  -14.9110   19.5450 O   0  0  0  0  0  0  0  0  0  0  0  0
  -25.3730  -13.8710   20.4500 C   0  0  0  0  0  0  0  0  0  0  0  0
  -24.3240  -13.0980   20.8660 C   0  0  0  0  0  0  0  0  0  0  0  0
  -24.7680  -11.7420   20.7640 C   0  0  0  0  0  0  0  0  0  0  0  0
  -26.3870  -12.9880   20.1120 N   0  0  0  0  0  0  0  0  0  0  0  0
  -26.0330  -11.7030   20.3620 N   0  0  0  0  0  0  0  0  0  0  0  0
  -24.0420  -10.4820   20.9660 C   0  0  0  0  0  0  0  0  0  0  0  0
  -24.4730   -9.5230   21.9090 C   0  0  0  0  0  3  0  0  0  0  0  0
  -23.7460   -8.3290   22.0970 C   0  0  0  0  0  3  0  0  0  0  0  0
  -22.5750   -8.0840   21.3400 C   0  0  0  0  0  0  0  0  0  0  0  0
  -22.1630   -9.0320   20.3880 C   0  0  0  0  0  3  0  0  0  0  0  0
  -22.8900  -10.2190   20.1980 C   0  0  0  0  0  3  0  0  0  0  0  0
  -21.8180   -6.9410   21.4400 O   0  0  0  0  0  0  0  0  0  0  0  0
  -21.6950   -6.2610   22.6240 C   0  0  0  0  0  0  0  0  0  0  0  0
  -21.1540   -6.8690   23.7790 C   0  0  0  0  0  3  0  0  0  0  0  0
  -20.9800   -6.1130   24.9560 C   0  0  0  0  0  3  0  0  0  0  0  0
  -21.3370   -4.7520   24.9780 C   0  0  0  0  0  0  0  0  0  0  0  0
  -21.8690   -4.1430   23.8280 C   0  0  0  0  0  3  0  0  0  0  0  0
  -22.0460   -4.8960   22.6540 C   0  0  0  0  0  0  0  0  0  0  0  0
  -22.5420   -4.2990   21.5430 F   0  0  0  0  0  0  0  0  0  0  0  0
  -21.1640   -4.0240   26.1060 F   0  0  0  0  0  0  0  0  0  0  0  0
  -22.9540  -13.5790   21.2500 C   0  0  0  0  0  0  0  0  0  0  0  0
  -22.2790  -12.8630   22.1440 N   0  0  0  0  0  0  0  0  0  0  0  0
  -22.4920  -14.6250   20.7950 O   0  0  0  0  0  0  0  0  0  0  0  0
  -22.6670  -12.0150   22.5290 H   0  0  0  0  0  0  0  0  0  0  0  0
  -21.3640  -13.1660   22.4450 H   0  0  0  0  0  0  0  0  0  0  0  0
  -25.5370  -15.2460   20.3060 N   0  0  0  0  0  0  0  0  0  0  0  0
  -24.7870  -15.9020   20.5000 H   0  0  0  0  0  0  0  0  0  0  0  0
  -26.3710  -15.6930   19.9490 H   0  0  0  0  0  0  0  0  0  0  0  0
  -28.5100  -23.8720   20.3290 C   0  0  0  0  0  3  0  0  0  0  0  0
  -28.4240  -25.3180   21.0050 C   0  0  0  0  0  2  0  0  0  0  0  0
  -28.4300  -26.5480   20.1910 O   0  0  0  0  0  0  0  0  0  0  0  0
  -24.6210  -31.8760   23.2100 C   0  0  0  0  0  0  0  0  0  0  0  0
  -27.2920  -27.3550   20.2000 C   0  0  0  0  0  0  0  0  0  0  0  0
  -23.4360  -30.4640   21.5650 C   0  0  0  0  0  3  0  0  0  0  0  0
  -24.9070  -28.9140   20.1590 C   0  0  0  0  0  0  0  0  0  0  0  0
  -25.9670  -30.8170   21.3810 C   0  0  0  0  0  2  0  0  0  0  0  0
  -26.0650  -29.4350   20.7500 C   0  0  0  0  0  0  0  0  0  0  0  0
  -27.2670  -28.6710   20.7510 C   0  0  0  0  0  3  0  0  0  0  0  0
  -26.1140  -26.8670   19.6010 C   0  0  0  0  0  3  0  0  0  0  0  0
  -24.9310  -27.6350   19.5750 C   0  0  0  0  0  3  0  0  0  0  0  0
  -23.6630  -29.7780   20.1900 C   0  0  0  0  0  2  0  0  0  0  0  0
  -24.6940  -31.0690   22.1120 N   0  0  0  0  0  0  0  0  0  0  0  0
  -23.5330  -32.1470   23.7380 O   0  0  0  0  0  0  0  0  0  0  0  0
  -22.7740  -29.4480   22.5250 C   0  0  0  0  0  0  0  0  0  0  0  0
  -21.4480  -29.2740   22.3990 N   0  0  0  0  0  0  0  0  0  0  0  0
  -23.4510  -28.8170   23.3410 O   0  0  0  0  0  0  0  0  0  0  0  0
  -20.9590  -29.8340   21.7140 H   0  0  0  0  0  0  0  0  0  0  0  0
  -18.0640  -28.1020   22.9130 C   0  0  0  0  0  0  0  0  0  0  0  0
  -20.6270  -28.3370   23.1670 C   0  0  0  0  0  3  0  0  0  0  0  0
  -20.7120  -26.9100   22.5780 C   0  0  0  0  0  2  0  0  0  0  0  0
  -19.6000  -26.6040   21.5690 C   0  0  0  0  0  2  0  0  0  0  0  0
  -18.2240  -26.7570   22.2240 C   0  0  0  0  0  2  0  0  0  0  0  0
  -19.1930  -28.8510   23.3410 C   0  0  0  0  0  0  0  0  0  0  0  0
  -18.9890  -30.1090   23.9460 C   0  0  0  0  0  3  0  0  0  0  0  0
  -17.6900  -30.6210   24.1280 C   0  0  0  0  0  3  0  0  0  0  0  0
  -16.5770  -29.8690   23.7150 C   0  0  0  0  0  3  0  0  0  0  0  0
  -16.7640  -28.6120   23.1140 C   0  0  0  0  0  3  0  0  0  0  0  0
  -25.8950  -32.5180   23.8400 C   0  0  0  0  0  3  0  0  0  0  0  0
  -25.5750  -33.9130   24.1740 N   0  0  0  0  0  0  0  0  0  0  0  0
  -25.9090  -34.9710   23.4220 C   0  0  0  0  0  0  0  0  0  0  0  0
  -26.5890  -34.8750   22.3960 O   0  0  0  0  0  0  0  0  0  0  0  0
  -24.9740  -34.0600   24.9710 H   0  0  0  0  0  0  0  0  0  0  0  0
  -24.1820  -36.7610   23.0460 C   0  0  0  0  0  1  0  0  0  0  0  0
  -25.4090  -36.3540   23.8790 C   0  0  0  0  0  3  0  0  0  0  0  0
  -27.5250  -37.2380   24.7570 C   0  0  0  0  0  1  0  0  0  0  0  0
  -26.4380  -37.4140   23.7970 N   0  0  0  0  0  0  0  0  0  0  0  0
  -26.0250  -38.3290   23.9510 H   0  0  0  0  0  0  0  0  0  0  0  0
  -26.4130  -31.7450   25.1150 C   0  0  1  0  0  0  0  0  0  0  0  0
  -25.3160  -31.4890   26.1740 C   0  0  0  0  0  1  0  0  0  0  0  0
  -27.0100  -30.3750   24.7150 C   0  0  0  0  0  1  0  0  0  0  0  0
  -27.5530  -32.5440   25.7880 C   0  0  0  0  0  1  0  0  0  0  0  0
  2  3  1  0
  3  5  1  0
  3  1  1  0
  4  2  2  0
  7  2  1  0
  7  6  1  0
  8  9  1  0
  8  7  1  0
  8  6  1  0
 10  9  1  0
 11 16  1  0
 12 13  1  0
 12 11  1  0
 14 13  1  0
 14 21  1  0
 14 15  1  0
 16 10  1  0
 16 15  1  0
 17 10  2  0
 18 19  2  0
 19 38  1  0
 20 19  1  0
 20 23  1  0
 21 22  1  0
 21 18  1  0
 22 20  2  0
 23 24  1  0
 24 25  2  0
 26 29  1  0
 26 25  1  0
 27 26  2  0
 28 27  1  0
 28 23  2  0
 29 30  1  0
 30 35  2  0
 30 31  1  0
 31 32  2  0
 32 33  1  0
 33 37  1  0
 34 33  2  0
 35 34  1  0
 36 35  1  0
 38 39  1  0
 39 42  1  0
 39 41  1  0
 40 38  2  0
 43 18  1  0
 43 44  1  0
 45 43  1  0
 46 47  1  0
 46  1  2  0
 48 50  1  0
 48 47  1  0
 49 60  2  0
 50 55  1  0
 51 59  1  0
 51 61  1  0
 52 58  1  0
 52 54  1  0
 53 59  1  0
 54 55  2  0
 54 53  1  0
 56 50  2  0
 57 56  1  0
 57 52  2  0
 58 51  1  0
 59 49  1  0
 61 63  2  0
 62 61  1  0
 64 62  1  0
 65 74  2  0
 65 70  1  0
 66 62  1  0
 66 70  1  0
 67 66  1  0
 68 69  1  0
 68 67  1  0
 69 65  1  0
 70 71  2  0
 71 72  1  0
 73 72  2  0
 74 73  1  0
 75 49  1  0
 75 76  1  0
 75 85  1  0
 76 79  1  0
 77 81  1  0
 77 76  1  0
 78 77  2  0
 81 80  1  0
 83 81  1  0
 83 84  1  0
 83 82  1  0
 85 88  1  1
 85 86  1  0
 87 85  1  0
M  ISO  4   9 100  10 100  47 101  48 101
M  END
>  <TORSDO>  (76) 
F 21

>  <SCORE>  (76) 
-13.009

>  <name>  (76) 
77

>  <ligand_id>  (76) 
77

>  <original_smiles>  (76) 
[H]c1c([H])c([H])c2c(c1[H])C([H])([H])C([H])([H])C([H])([H])C2([H])N([H])C(=O)C1([H])N(C(=O)C([H])(N([H])C(=O)C([H])(N([H])C([H])([H])[H])C([H])([H])[H])C(C([H])([H])[H])(C([H])([H])[H])C([H])([H])[H])C([H])([H])c2c([H])c(OC([H])([H])C([H])([H])C([H])([H])N([H])C(=O)C3([H])C([H])([H])C3([H])C([H])([H])C(=O)N3C([H])([H])C([H])([H])C([H])([H])C([H])(n4nc(-c5c([H])c([H])c(Oc6c([H])c([H])c(F)c([H])c6F)c([H])c5[H])c(C(=O)N([H])[H])c4N([H])[H])C3([H])[H])c([H])c([H])c2C1([H])[H]

>  <smiles>  (76) 
[H]c1c([H])c([H])c2c(c1[H])C([H])([H])C([H])([H])C([H])([H])C2([H])N([H])C(=O)C1([H])N(C(=O)C([H])(N([H])C(=O)C([H])(N([H])C([H])([H])[H])C([H])([H])[H])C(C([H])([H])[H])(C([H])([H])[H])C([H])([H])[H])C([H])([H])c2c([H])c(OC([H])([H])C([H])([H])C([H])([H])N([H])C(=O)C3([H])C([H])([H])C3([H])C([H])([H])C(=O)N3C([H])([H])C([H])([H])C([H])([H])C([H])(n4nc(-c5c([H])c([H])c(Oc6c([H])c([H])c(F)c([H])c6F)c([H])c5[H])c(C(=O)N([H])[H])c4N([H])[H])C3([H])[H])c([H])c([H])c2C1([H])[H]

$$$$
78:0:0
     RDKit          3D

 86 94  0  0  1  0  0  0  0  0999 V2000
  -30.1720  -22.3730   20.6450 C   0  0  0  0  0  2  0  0  0  0  0  0
  -30.4340  -20.8130   20.9640 C   0  0  0  0  0  2  0  0  0  0  0  0
  -28.3640  -21.1130   19.9830 C   0  0  0  0  0  2  0  0  0  0  0  0
  -28.6530  -22.7050   20.5580 C   0  0  0  0  0  3  0  0  0  0  0  0
  -29.2660  -19.9400   20.5980 N   0  0  1  0  0  4  0  0  0  0  0  0
  -28.8080  -19.7390   21.4750 H   0  0  0  0  0  0  0  0  0  0  0  0
  -28.0480  -24.2990   19.9670 C   0  0  0  0  0  2  0  0  0  0  0  0
  -28.1820  -25.8880   20.3680 O   0  0  0  0  0  0  0  0  0  0  0  0
  -24.6120  -31.8610   23.2320 C   0  0  0  0  0  0  0  0  0  0  0  0
  -27.1720  -26.9780   20.2510 C   0  0  0  0  0  0  0  0  0  0  0  0
  -23.4190  -30.4550   21.6010 C   0  0  0  0  0  3  0  0  0  0  0  0
  -24.8710  -28.8450   20.1870 C   0  0  0  0  0  0  0  0  0  0  0  0
  -25.9850  -30.6690   21.4570 C   0  0  0  0  0  2  0  0  0  0  0  0
  -26.0550  -29.2570   20.8100 C   0  0  0  0  0  0  0  0  0  0  0  0
  -27.1970  -28.3410   20.8220 C   0  0  0  0  0  3  0  0  0  0  0  0
  -25.9630  -26.7190   19.5640 C   0  0  0  0  0  3  0  0  0  0  0  0
  -24.8490  -27.5980   19.5430 C   0  0  0  0  0  3  0  0  0  0  0  0
  -23.6500  -29.7630   20.2290 C   0  0  0  0  0  2  0  0  0  0  0  0
  -24.6940  -31.0220   22.1500 N   0  0  0  0  0  0  0  0  0  0  0  0
  -23.5230  -32.1540   23.7510 O   0  0  0  0  0  0  0  0  0  0  0  0
  -22.7250  -29.4650   22.5720 C   0  0  0  0  0  0  0  0  0  0  0  0
  -21.3950  -29.3020   22.4490 N   0  0  0  0  0  0  0  0  0  0  0  0
  -23.3900  -28.8430   23.4040 O   0  0  0  0  0  0  0  0  0  0  0  0
  -20.9120  -29.8530   21.7530 H   0  0  0  0  0  0  0  0  0  0  0  0
  -18.0090  -28.1080   22.9690 C   0  0  0  0  0  0  0  0  0  0  0  0
  -20.5700  -28.3710   23.2260 C   0  0  0  0  0  3  0  0  0  0  0  0
  -20.6670  -26.9350   22.6570 C   0  0  0  0  0  2  0  0  0  0  0  0
  -19.5620  -26.6100   21.6470 C   0  0  0  0  0  2  0  0  0  0  0  0
  -18.1820  -26.7580   22.2940 C   0  0  0  0  0  2  0  0  0  0  0  0
  -19.1290  -28.8730   23.3910 C   0  0  0  0  0  0  0  0  0  0  0  0
  -18.9110  -30.1350   23.9850 C   0  0  0  0  0  3  0  0  0  0  0  0
  -17.6050  -30.6330   24.1580 C   0  0  0  0  0  3  0  0  0  0  0  0
  -16.5000  -29.8670   23.7490 C   0  0  0  0  0  3  0  0  0  0  0  0
  -16.7030  -28.6060   23.1600 C   0  0  0  0  0  3  0  0  0  0  0  0
  -25.8830  -32.5080   23.8620 C   0  0  0  0  0  3  0  0  0  0  0  0
  -26.3740  -31.7640   25.1670 C   0  0  1  0  0  0  0  0  0  0  0  0
  -25.2620  -31.5610   26.2250 C   0  0  0  0  0  1  0  0  0  0  0  0
  -26.9510  -30.3720   24.8240 C   0  0  0  0  0  1  0  0  0  0  0  0
  -27.5210  -32.5650   25.8260 C   0  0  0  0  0  1  0  0  0  0  0  0
  -25.5720  -33.9140   24.1690 N   0  0  0  0  0  0  0  0  0  0  0  0
  -25.9130  -34.9610   23.4050 C   0  0  0  0  0  0  0  0  0  0  0  0
  -26.5850  -34.8440   22.3780 O   0  0  0  0  0  0  0  0  0  0  0  0
  -24.9730  -34.0790   24.9660 H   0  0  0  0  0  0  0  0  0  0  0  0
  -24.1970  -36.7680   23.0360 C   0  0  0  0  0  1  0  0  0  0  0  0
  -25.4350  -36.3600   23.8500 C   0  0  0  0  0  3  0  0  0  0  0  0
  -27.5740  -37.2460   24.6730 C   0  0  0  0  0  1  0  0  0  0  0  0
  -26.4750  -37.4060   23.7240 N   0  0  0  0  0  0  0  0  0  0  0  0
  -26.0740  -38.3300   23.8570 H   0  0  0  0  0  0  0  0  0  0  0  0
  -29.5960  -18.4250   19.9710 C   0  0  0  0  0  2  0  0  0  0  0  0
  -29.6690  -16.8030   20.7360 C   0  0  0  0  0  2  0  0  0  0  0  0
  -30.4150  -15.2720   20.3200 C   0  0  0  0  0  0  0  0  0  0  0  0
  -30.3930  -12.8260   19.4390 C   0  0  0  0  0  2  0  0  0  0  0  0
  -29.4760  -12.6660   18.1990 C   0  0  0  0  0  2  0  0  0  0  0  0
  -28.0200  -12.4050   18.6260 C   0  0  0  0  0  2  0  0  0  0  0  0
  -27.5770  -13.3560   19.7650 C   0  0  0  0  0  3  0  0  0  0  0  0
  -28.6200  -13.4690   20.8970 C   0  0  0  0  0  2  0  0  0  0  0  0
  -29.8710  -13.9560   20.2940 N   0  0  0  0  0  0  0  0  0  0  0  0
  -31.6060  -15.2790   19.9780 O   0  0  0  0  0  0  0  0  0  0  0  0
  -25.2030  -13.9190   20.5090 C   0  0  0  0  0  0  0  0  0  0  0  0
  -24.1390  -13.1440   20.8750 C   0  0  0  0  0  0  0  0  0  0  0  0
  -24.6040  -11.7930   20.8460 C   0  0  0  0  0  0  0  0  0  0  0  0
  -26.2450  -13.0420   20.2670 N   0  0  0  0  0  0  0  0  0  0  0  0
  -25.8950  -11.7560   20.5370 N   0  0  0  0  0  0  0  0  0  0  0  0
  -23.8730  -10.5320   21.0340 C   0  0  0  0  0  0  0  0  0  0  0  0
  -24.2970   -9.5630   21.9700 C   0  0  0  0  0  3  0  0  0  0  0  0
  -23.5640   -8.3690   22.1470 C   0  0  0  0  0  3  0  0  0  0  0  0
  -22.3930   -8.1360   21.3880 C   0  0  0  0  0  0  0  0  0  0  0  0
  -21.9880   -9.0920   20.4410 C   0  0  0  0  0  3  0  0  0  0  0  0
  -22.7210  -10.2780   20.2620 C   0  0  0  0  0  3  0  0  0  0  0  0
  -21.6330   -6.9930   21.4730 O   0  0  0  0  0  0  0  0  0  0  0  0
  -21.5750   -6.2520   22.6260 C   0  0  0  0  0  0  0  0  0  0  0  0
  -21.1340   -6.8070   23.8470 C   0  0  0  0  0  3  0  0  0  0  0  0
  -21.0230   -5.9920   24.9920 C   0  0  0  0  0  3  0  0  0  0  0  0
  -21.3440   -4.6230   24.9150 C   0  0  0  0  0  0  0  0  0  0  0  0
  -21.7770   -4.0680   23.6990 C   0  0  0  0  0  3  0  0  0  0  0  0
  -21.8890   -4.8800   22.5570 C   0  0  0  0  0  0  0  0  0  0  0  0
  -22.2870   -4.3350   21.3820 F   0  0  0  0  0  0  0  0  0  0  0  0
  -21.2300   -3.8370   26.0120 F   0  0  0  0  0  0  0  0  0  0  0  0
  -22.7420  -13.6240   21.1390 C   0  0  0  0  0  0  0  0  0  0  0  0
  -22.0060  -12.9270   21.9970 N   0  0  0  0  0  0  0  0  0  0  0  0
  -22.3120  -14.6530   20.6200 O   0  0  0  0  0  0  0  0  0  0  0  0
  -22.3660  -12.0940   22.4390 H   0  0  0  0  0  0  0  0  0  0  0  0
  -21.0680  -13.2320   22.2170 H   0  0  0  0  0  0  0  0  0  0  0  0
  -25.3680  -15.2890   20.3340 N   0  0  0  0  0  0  0  0  0  0  0  0
  -24.6020  -15.9440   20.4450 H   0  0  0  0  0  0  0  0  0  0  0  0
  -26.2190  -15.7270   20.0030 H   0  0  0  0  0  0  0  0  0  0  0  0
  1  2  1  0
  3  4  1  0
  3  5  1  0
  4  7  1  0
  4  1  1  0
  5  2  1  0
  5  6  1  1
  7  8  1  0
  9 20  2  0
 10  8  1  0
 10 15  1  0
 11 19  1  0
 11 21  1  0
 12 18  1  0
 12 14  1  0
 13 19  1  0
 14 15  2  0
 14 13  1  0
 16 10  2  0
 17 16  1  0
 17 12  2  0
 18 11  1  0
 19  9  1  0
 21 23  2  0
 22 21  1  0
 24 22  1  0
 25 34  2  0
 25 30  1  0
 26 22  1  0
 26 30  1  0
 27 26  1  0
 28 29  1  0
 28 27  1  0
 29 25  1  0
 30 31  2  0
 31 32  1  0
 33 32  2  0
 34 33  1  0
 35  9  1  0
 35 40  1  0
 35 36  1  0
 36 39  1  1
 36 37  1  0
 38 36  1  0
 40 43  1  0
 41 45  1  0
 41 40  1  0
 42 41  2  0
 45 44  1  0
 47 45  1  0
 47 48  1  0
 47 46  1  0
 49  5  1  0
 49 50  1  0
 51 50  1  0
 52 57  1  0
 53 54  1  0
 53 52  1  0
 55 54  1  0
 55 62  1  0
 55 56  1  0
 57 51  1  0
 57 56  1  0
 58 51  2  0
 59 60  2  0
 60 79  1  0
 61 60  1  0
 61 64  1  0
 62 59  1  0
 62 63  1  0
 63 61  2  0
 64 65  1  0
 65 66  2  0
 67 70  1  0
 67 66  1  0
 68 67  2  0
 69 68  1  0
 69 64  2  0
 70 71  1  0
 71 72  1  0
 72 73  2  0
 74 73  1  0
 74 78  1  0
 75 74  2  0
 76 71  2  0
 76 75  1  0
 77 76  1  0
 79 80  1  0
 80 83  1  0
 80 82  1  0
 81 79  2  0
 84 85  1  0
 84 59  1  0
 86 84  1  0
M  ISO  4   7 101   8 101  50 100  51 100
M  END
>  <TORSDO>  (77) 
F 19

>  <SCORE>  (77) 
-16.013

>  <name>  (77) 
78

>  <ligand_id>  (77) 
78

>  <original_smiles>  (77) 
[H]c1c([H])c([H])c2c(c1[H])C([H])([H])C([H])([H])C([H])([H])C2([H])N([H])C(=O)C1([H])N(C(=O)C([H])(N([H])C(=O)C([H])(N([H])C([H])([H])[H])C([H])([H])[H])C(C([H])([H])[H])(C([H])([H])[H])C([H])([H])[H])C([H])([H])c2c([H])c(OC([H])([H])C3([H])C([H])([H])C([H])([H])[N+]([H])(C([H])([H])C([H])([H])C(=O)N4C([H])([H])C([H])([H])C([H])([H])C([H])(n5nc(-c6c([H])c([H])c(Oc7c([H])c([H])c(F)c([H])c7F)c([H])c6[H])c(C(=O)N([H])[H])c5N([H])[H])C4([H])[H])C3([H])[H])c([H])c([H])c2C1([H])[H]

>  <smiles>  (77) 
[H]c1c([H])c([H])c2c(c1[H])C([H])([H])C([H])([H])C([H])([H])C2([H])N([H])C(=O)C1([H])N(C(=O)C([H])(N([H])C(=O)C([H])(N([H])C([H])([H])[H])C([H])([H])[H])C(C([H])([H])[H])(C([H])([H])[H])C([H])([H])[H])C([H])([H])c2c([H])c(OC([H])([H])C3([H])C([H])([H])C([H])([H])[N+]([H])(C([H])([H])C([H])([H])C(=O)N4C([H])([H])C([H])([H])C([H])([H])C([H])(n5nc(-c6c([H])c([H])c(Oc7c([H])c([H])c(F)c([H])c7F)c([H])c6[H])c(C(=O)N([H])[H])c5N([H])[H])C4([H])[H])C3([H])[H])c([H])c([H])c2C1([H])[H]

$$$$
79:0:0
     RDKit          3D

 98106  0  0  1  0  0  0  0  0999 V2000
  -30.2910  -19.1140   20.3840 C   0  0  0  0  0  2  0  0  0  0  0  0
  -28.2870  -19.5250   18.8210 C   0  0  0  0  0  1  0  0  0  0  0  0
  -29.1250  -20.1250   19.9700 C   0  0  0  0  0  3  0  0  0  0  0  0
  -29.5660  -21.5430   19.6630 N   0  0  0  0  0  4  0  0  0  0  0  0
  -30.2410  -21.8060   20.3640 H   0  0  0  0  0  0  0  0  0  0  0  0
  -30.0490  -21.5390   18.7760 H   0  0  0  0  0  0  0  0  0  0  0  0
  -28.5010  -22.6150   19.6230 C   0  0  0  0  0  2  0  0  0  0  0  0
  -28.9890  -24.1260   19.5680 C   0  0  0  0  0  2  0  0  0  0  0  0
  -27.8160  -25.1760   19.4600 C   0  0  0  0  0  2  0  0  0  0  0  0
  -28.0830  -26.6240   19.5240 O   0  0  0  0  0  0  0  0  0  0  0  0
  -24.5100  -31.7830   23.0590 C   0  0  0  0  0  0  0  0  0  0  0  0
  -26.9600  -27.4630   19.5920 C   0  0  0  0  0  0  0  0  0  0  0  0
  -23.2220  -30.5040   21.3860 C   0  0  0  0  0  3  0  0  0  0  0  0
  -24.5990  -29.0570   19.8000 C   0  0  0  0  0  0  0  0  0  0  0  0
  -25.7510  -30.8410   21.1050 C   0  0  0  0  0  2  0  0  0  0  0  0
  -25.7980  -29.5090   20.3680 C   0  0  0  0  0  0  0  0  0  0  0  0
  -26.9850  -28.7270   20.2530 C   0  0  0  0  0  3  0  0  0  0  0  0
  -25.7320  -27.0590   19.0170 C   0  0  0  0  0  3  0  0  0  0  0  0
  -24.5680  -27.8350   19.1170 C   0  0  0  0  0  3  0  0  0  0  0  0
  -23.3680  -29.9240   19.9580 C   0  0  0  0  0  2  0  0  0  0  0  0
  -24.5170  -31.0520   21.9080 N   0  0  0  0  0  0  0  0  0  0  0  0
  -23.4530  -32.0290   23.6590 O   0  0  0  0  0  0  0  0  0  0  0  0
  -22.5980  -29.4250   22.3030 C   0  0  0  0  0  0  0  0  0  0  0  0
  -21.2680  -29.2530   22.2130 N   0  0  0  0  0  0  0  0  0  0  0  0
  -23.3110  -28.7490   23.0540 O   0  0  0  0  0  0  0  0  0  0  0  0
  -20.7530  -29.8510   21.5780 H   0  0  0  0  0  0  0  0  0  0  0  0
  -17.9130  -28.0140   22.7410 C   0  0  0  0  0  0  0  0  0  0  0  0
  -20.4750  -28.2720   22.9570 C   0  0  0  0  0  3  0  0  0  0  0  0
  -20.5690  -26.8750   22.3040 C   0  0  0  0  0  2  0  0  0  0  0  0
  -19.4420  -26.5990   21.3040 C   0  0  0  0  0  2  0  0  0  0  0  0
  -18.0760  -26.7040   21.9900 C   0  0  0  0  0  2  0  0  0  0  0  0
  -19.0390  -28.7600   23.1820 C   0  0  0  0  0  0  0  0  0  0  0  0
  -18.8340  -29.9870   23.8450 C   0  0  0  0  0  3  0  0  0  0  0  0
  -17.5330  -30.4720   24.0740 C   0  0  0  0  0  3  0  0  0  0  0  0
  -16.4200  -29.7240   23.6540 C   0  0  0  0  0  3  0  0  0  0  0  0
  -16.6120  -28.4980   22.9910 C   0  0  0  0  0  3  0  0  0  0  0  0
  -25.8240  -32.3650   23.6610 C   0  0  0  0  0  3  0  0  0  0  0  0
  -26.3800  -31.5230   24.8750 C   0  0  1  0  0  0  0  0  0  0  0  0
  -25.3240  -31.2470   25.9710 C   0  0  0  0  0  1  0  0  0  0  0  0
  -26.9230  -30.1560   24.3960 C   0  0  0  0  0  1  0  0  0  0  0  0
  -27.5760  -32.2620   25.5200 C   0  0  0  0  0  1  0  0  0  0  0  0
  -25.5480  -33.7480   24.0710 N   0  0  0  0  0  0  0  0  0  0  0  0
  -25.8700  -34.8350   23.3540 C   0  0  0  0  0  0  0  0  0  0  0  0
  -26.5080  -34.7760   22.2980 O   0  0  0  0  0  0  0  0  0  0  0  0
  -24.9690  -33.8680   24.8900 H   0  0  0  0  0  0  0  0  0  0  0  0
  -24.1560  -36.6670   23.1520 C   0  0  0  0  0  1  0  0  0  0  0  0
  -25.4190  -36.2040   23.8960 C   0  0  0  0  0  3  0  0  0  0  0  0
  -27.5950  -37.0180   24.6930 C   0  0  0  0  0  1  0  0  0  0  0  0
  -26.4620  -37.2480   23.7990 N   0  0  0  0  0  0  0  0  0  0  0  0
  -26.0720  -38.1640   24.0080 H   0  0  0  0  0  0  0  0  0  0  0  0
  -30.2510  -18.6270   21.7950 N   0  0  0  0  0  0  0  0  0  0  0  0
  -31.9550  -21.8150   23.3080 C   0  0  0  0  0  2  0  0  0  0  0  0
  -31.1500  -21.0200   22.2700 C   0  0  0  0  0  2  0  0  0  0  0  0
  -31.2240  -21.8520   24.6610 C   0  0  0  0  0  2  0  0  0  0  0  0
  -30.1420  -19.6670   24.1320 C   0  0  0  0  0  2  0  0  0  0  0  0
  -30.8970  -19.5710   22.7690 C   0  0  0  0  0  3  0  0  0  0  0  0
  -30.8880  -20.4850   25.1210 N   0  0  0  0  0  4  0  0  0  0  0  0
  -30.3340  -20.5600   25.9600 H   0  0  0  0  0  0  0  0  0  0  0  0
  -31.7370  -20.0060   25.3770 H   0  0  0  0  0  0  0  0  0  0  0  0
  -32.1880  -16.9460   22.0160 C   0  0  0  0  0  1  0  0  0  0  0  0
  -30.6510  -17.1760   22.0210 C   0  0  0  0  0  3  0  0  0  0  0  0
  -29.7480  -16.0080   21.3880 C   0  0  0  0  0  2  0  0  0  0  0  0
  -30.3970  -14.7430   20.6950 C   0  0  0  0  0  0  0  0  0  0  0  0
  -30.2310  -12.4790   19.6720 C   0  0  0  0  0  2  0  0  0  0  0  0
  -29.3170  -12.5340   18.4270 C   0  0  0  0  0  2  0  0  0  0  0  0
  -27.8450  -12.3230   18.8250 C   0  0  0  0  0  2  0  0  0  0  0  0
  -27.4220  -13.2130   20.0210 C   0  0  0  0  0  3  0  0  0  0  0  0
  -28.4590  -13.1570   21.1670 C   0  0  0  0  0  2  0  0  0  0  0  0
  -29.7780  -13.5190   20.6230 N   0  0  0  0  0  0  0  0  0  0  0  0
  -31.4610  -14.9150   20.0970 O   0  0  0  0  0  0  0  0  0  0  0  0
  -25.0180  -13.7210   20.7750 C   0  0  0  0  0  0  0  0  0  0  0  0
  -23.9620  -12.9110   21.0910 C   0  0  0  0  0  0  0  0  0  0  0  0
  -24.4410  -11.5710   20.9670 C   0  0  0  0  0  0  0  0  0  0  0  0
  -26.0760  -12.8750   20.4800 N   0  0  0  0  0  0  0  0  0  0  0  0
  -25.7320  -11.5710   20.6480 N   0  0  0  0  0  0  0  0  0  0  0  0
  -23.7330  -10.2880   21.0770 C   0  0  0  0  0  0  0  0  0  0  0  0
  -24.2150   -9.2430   21.8950 C   0  0  0  0  0  3  0  0  0  0  0  0
  -23.5050   -8.0270   21.9950 C   0  0  0  0  0  3  0  0  0  0  0  0
  -22.3000   -7.8460   21.2750 C   0  0  0  0  0  0  0  0  0  0  0  0
  -21.8390   -8.8810   20.4440 C   0  0  0  0  0  3  0  0  0  0  0  0
  -22.5480  -10.0890   20.3420 C   0  0  0  0  0  3  0  0  0  0  0  0
  -21.5560   -6.6910   21.2930 O   0  0  0  0  0  0  0  0  0  0  0  0
  -21.5980   -5.8230   22.3570 C   0  0  0  0  0  0  0  0  0  0  0  0
  -21.2690   -6.2340   23.6650 C   0  0  0  0  0  3  0  0  0  0  0  0
  -21.2560   -5.2950   24.7170 C   0  0  0  0  0  3  0  0  0  0  0  0
  -21.5630   -3.9460   24.4570 C   0  0  0  0  0  0  0  0  0  0  0  0
  -21.8830   -3.5310   23.1530 C   0  0  0  0  0  3  0  0  0  0  0  0
  -21.8970   -4.4690   22.1040 C   0  0  0  0  0  0  0  0  0  0  0  0
  -22.1870   -4.0620   20.8430 F   0  0  0  0  0  0  0  0  0  0  0  0
  -21.5410   -3.0400   25.4640 F   0  0  0  0  0  0  0  0  0  0  0  0
  -22.5590  -13.3450   21.4070 C   0  0  0  0  0  0  0  0  0  0  0  0
  -21.8560  -12.5840   22.2380 N   0  0  0  0  0  0  0  0  0  0  0  0
  -22.0980  -14.3930   20.9540 O   0  0  0  0  0  0  0  0  0  0  0  0
  -22.2480  -11.7390   22.6260 H   0  0  0  0  0  0  0  0  0  0  0  0
  -20.9140  -12.8470   22.4900 H   0  0  0  0  0  0  0  0  0  0  0  0
  -25.1660  -15.1020   20.6900 N   0  0  0  0  0  0  0  0  0  0  0  0
  -24.3990  -15.7490   20.8440 H   0  0  0  0  0  0  0  0  0  0  0  0
  -26.0170  -15.5600   20.3930 H   0  0  0  0  0  0  0  0  0  0  0  0
  1 51  1  0
  3  2  1  0
  3  1  1  0
  4  3  1  0
  4  5  1  0
  6  4  1  0
  7  4  1  0
  8  7  1  0
  9 10  1  0
  9  8  1  0
 10 12  1  0
 11 22  2  0
 12 17  1  0
 13 21  1  0
 13 23  1  0
 14 20  1  0
 14 16  1  0
 15 21  1  0
 16 15  1  0
 17 16  2  0
 18 19  1  0
 18 12  2  0
 19 14  2  0
 20 13  1  0
 21 11  1  0
 23 25  2  0
 24 23  1  0
 26 24  1  0
 27 36  2  0
 27 32  1  0
 28 24  1  0
 28 32  1  0
 29 28  1  0
 30 31  1  0
 30 29  1  0
 31 27  1  0
 32 33  2  0
 33 34  1  0
 35 34  2  0
 36 35  1  0
 37 11  1  0
 37 42  1  0
 37 38  1  0
 38 41  1  1
 38 39  1  0
 40 38  1  0
 42 45  1  0
 43 47  1  0
 43 42  1  0
 44 43  2  0
 47 46  1  0
 49 47  1  0
 49 50  1  0
 49 48  1  0
 51 61  1  0
 52 54  1  0
 53 56  1  0
 53 52  1  0
 54 57  1  0
 55 57  1  0
 56 51  1  0
 56 55  1  0
 57 59  1  0
 57 58  1  0
 61 60  1  0
 62 61  1  0
 63 62  1  0
 64 69  1  0
 65 66  1  0
 65 64  1  0
 67 66  1  0
 67 74  1  0
 67 68  1  0
 69 63  1  0
 69 68  1  0
 70 63  2  0
 71 72  2  0
 72 91  1  0
 73 76  1  0
 73 72  1  0
 74 75  1  0
 74 71  1  0
 75 73  2  0
 76 77  1  0
 77 78  2  0
 79 82  1  0
 79 78  1  0
 80 79  2  0
 81 80  1  0
 81 76  2  0
 82 83  1  0
 83 84  1  0
 84 85  2  0
 86 85  1  0
 86 90  1  0
 87 86  2  0
 88 83  2  0
 88 87  1  0
 89 88  1  0
 91 92  1  0
 92 95  1  0
 92 94  1  0
 93 91  2  0
 96 71  1  0
 96 97  1  0
 98 96  1  0
M  ISO  4   9 101  10 101  62 100  63 100
M  END
>  <TORSDO>  (78) 
F 25

>  <SCORE>  (78) 
-8.648

>  <name>  (78) 
79

>  <ligand_id>  (78) 
79

>  <original_smiles>  (78) 
[H]c1c([H])c([H])c2c(c1[H])C([H])([H])C([H])([H])C([H])([H])C2([H])N([H])C(=O)C1([H])N(C(=O)C([H])(N([H])C(=O)C([H])(N([H])C([H])([H])[H])C([H])([H])[H])C(C([H])([H])[H])(C([H])([H])[H])C([H])([H])[H])C([H])([H])c2c([H])c(OC([H])([H])C([H])([H])C([H])([H])[N+]([H])([H])C([H])(C([H])([H])[H])C([H])([H])N(C([H])(C([H])([H])[H])C([H])([H])C(=O)N3C([H])([H])C([H])([H])C([H])([H])C([H])(n4nc(-c5c([H])c([H])c(Oc6c([H])c([H])c(F)c([H])c6F)c([H])c5[H])c(C(=O)N([H])[H])c4N([H])[H])C3([H])[H])C3([H])C([H])([H])C([H])([H])C([H])([H])[N+]([H])([H])C3([H])[H])c([H])c([H])c2C1([H])[H]

>  <smiles>  (78) 
[H]c1c([H])c([H])c2c(c1[H])C([H])([H])C([H])([H])C([H])([H])C2([H])N([H])C(=O)C1([H])N(C(=O)C([H])(N([H])C(=O)C([H])(N([H])C([H])([H])[H])C([H])([H])[H])C(C([H])([H])[H])(C([H])([H])[H])C([H])([H])[H])C([H])([H])c2c([H])c(OC([H])([H])C([H])([H])C([H])([H])[N+]([H])([H])C([H])(C([H])([H])[H])C([H])([H])N(C([H])(C([H])([H])[H])C([H])([H])C(=O)N3C([H])([H])C([H])([H])C([H])([H])C([H])(n4nc(-c5c([H])c([H])c(Oc6c([H])c([H])c(F)c([H])c6F)c([H])c5[H])c(C(=O)N([H])[H])c4N([H])[H])C3([H])[H])C3([H])C([H])([H])C([H])([H])C([H])([H])[N+]([H])([H])C3([H])[H])c([H])c([H])c2C1([H])[H]

$$$$
80:0:0
     RDKit          3D

 87 96  0  0  1  0  0  0  0  0999 V2000
  -26.8520  -20.7200   19.5230 C   0  0  0  0  0  2  0  0  0  0  0  0
  -27.9520  -20.3630   18.5620 C   0  0  0  0  0  2  0  0  0  0  0  0
  -28.7290  -21.9570   21.3010 C   0  0  0  0  0  2  0  0  0  0  0  0
  -27.8130  -20.7870   20.7580 C   0  0  0  0  0  3  0  0  0  0  0  0
  -29.0870  -22.4890   19.9210 C   0  0  0  0  0  3  0  0  0  0  0  0
  -28.9440  -20.6460   19.6700 C   0  0  2  0  0  0  0  0  0  0  0  0
  -31.0110  -19.3750   20.9840 C   0  0  0  0  0  1  0  0  0  0  0  0
  -30.0000  -19.0860   19.8680 C   0  0  0  0  0  3  0  0  0  0  0  0
  -29.6660  -17.2340   19.9980 C   0  0  0  0  0  2  0  0  0  0  0  0
  -30.5560  -15.6330   19.9390 C   0  0  0  0  0  0  0  0  0  0  0  0
  -30.6410  -13.0850   19.2110 C   0  0  0  0  0  2  0  0  0  0  0  0
  -29.7030  -12.7330   18.0230 C   0  0  0  0  0  2  0  0  0  0  0  0
  -28.2780  -12.4270   18.5100 C   0  0  0  0  0  2  0  0  0  0  0  0
  -27.8140  -13.4440   19.5770 C   0  0  0  0  0  3  0  0  0  0  0  0
  -28.8790  -13.7200   20.6590 C   0  0  0  0  0  2  0  0  0  0  0  0
  -30.0710  -14.2680   19.9830 N   0  0  0  0  0  0  0  0  0  0  0  0
  -31.7740  -15.6120   19.6900 O   0  0  0  0  0  0  0  0  0  0  0  0
  -25.4860  -14.0010   20.4460 C   0  0  0  0  0  0  0  0  0  0  0  0
  -24.4310  -13.2300   20.8400 C   0  0  0  0  0  0  0  0  0  0  0  0
  -24.8800  -11.8740   20.7610 C   0  0  0  0  0  0  0  0  0  0  0  0
  -26.5070  -13.1220   20.1390 N   0  0  0  0  0  0  0  0  0  0  0  0
  -26.1580  -11.8330   20.3970 N   0  0  0  0  0  0  0  0  0  0  0  0
  -24.1440  -10.6170   20.9530 C   0  0  0  0  0  0  0  0  0  0  0  0
  -24.5690   -9.6470   21.8860 C   0  0  0  0  0  3  0  0  0  0  0  0
  -23.8290   -8.4580   22.0710 C   0  0  0  0  0  3  0  0  0  0  0  0
  -22.6500   -8.2300   21.3220 C   0  0  0  0  0  0  0  0  0  0  0  0
  -22.2430   -9.1900   20.3790 C   0  0  0  0  0  3  0  0  0  0  0  0
  -22.9820  -10.3700   20.1930 C   0  0  0  0  0  3  0  0  0  0  0  0
  -21.8860   -7.0930   21.4140 O   0  0  0  0  0  0  0  0  0  0  0  0
  -21.7850   -6.3850   22.5840 C   0  0  0  0  0  0  0  0  0  0  0  0
  -21.3060   -6.9750   23.7740 C   0  0  0  0  0  3  0  0  0  0  0  0
  -21.1550   -6.1920   24.9370 C   0  0  0  0  0  3  0  0  0  0  0  0
  -21.4730   -4.8220   24.9090 C   0  0  0  0  0  0  0  0  0  0  0  0
  -21.9430   -4.2310   23.7230 C   0  0  0  0  0  3  0  0  0  0  0  0
  -22.0950   -5.0100   22.5640 C   0  0  0  0  0  0  0  0  0  0  0  0
  -22.5280   -4.4320   21.4170 F   0  0  0  0  0  0  0  0  0  0  0  0
  -21.3220   -4.0670   26.0230 F   0  0  0  0  0  0  0  0  0  0  0  0
  -23.0520  -13.7170   21.1730 C   0  0  0  0  0  0  0  0  0  0  0  0
  -22.3540  -13.0190   22.0620 N   0  0  0  0  0  0  0  0  0  0  0  0
  -22.6060  -14.7550   20.6820 O   0  0  0  0  0  0  0  0  0  0  0  0
  -22.7290  -12.1790   22.4780 H   0  0  0  0  0  0  0  0  0  0  0  0
  -21.4300  -13.3260   22.3300 H   0  0  0  0  0  0  0  0  0  0  0  0
  -25.6640  -15.3740   20.2920 N   0  0  0  0  0  0  0  0  0  0  0  0
  -24.9210  -16.0440   20.4570 H   0  0  0  0  0  0  0  0  0  0  0  0
  -26.5120  -15.8030   19.9440 H   0  0  0  0  0  0  0  0  0  0  0  0
  -28.1950  -24.1040   19.5200 C   0  0  0  0  0  2  0  0  0  0  0  0
  -28.2950  -25.7810   19.8420 O   0  0  0  0  0  0  0  0  0  0  0  0
  -24.5930  -31.6700   23.0390 C   0  0  0  0  0  0  0  0  0  0  0  0
  -27.2650  -26.9050   19.8070 C   0  0  0  0  0  0  0  0  0  0  0  0
  -23.4250  -30.3010   21.3540 C   0  0  0  0  0  3  0  0  0  0  0  0
  -24.9110  -28.7770   19.8580 C   0  0  0  0  0  0  0  0  0  0  0  0
  -25.9890  -30.5700   21.2020 C   0  0  0  0  0  2  0  0  0  0  0  0
  -26.0950  -29.1780   20.4880 C   0  0  0  0  0  0  0  0  0  0  0  0
  -27.2580  -28.2620   20.4370 C   0  0  0  0  0  3  0  0  0  0  0  0
  -26.0470  -26.6910   19.1200 C   0  0  0  0  0  3  0  0  0  0  0  0
  -24.9150  -27.5570   19.1550 C   0  0  0  0  0  3  0  0  0  0  0  0
  -23.6690  -29.6730   19.9520 C   0  0  0  0  0  2  0  0  0  0  0  0
  -24.6900  -30.8760   21.9190 N   0  0  0  0  0  0  0  0  0  0  0  0
  -23.4980  -31.9090   23.5790 O   0  0  0  0  0  0  0  0  0  0  0  0
  -22.7610  -29.2590   22.2950 C   0  0  0  0  0  0  0  0  0  0  0  0
  -21.4320  -29.0630   22.1850 N   0  0  0  0  0  0  0  0  0  0  0  0
  -23.4500  -28.6250   23.0980 O   0  0  0  0  0  0  0  0  0  0  0  0
  -20.9220  -29.6400   21.5320 H   0  0  0  0  0  0  0  0  0  0  0  0
  -18.0960  -27.7110   22.6770 C   0  0  0  0  0  0  0  0  0  0  0  0
  -20.6480  -28.0670   22.9250 C   0  0  0  0  0  3  0  0  0  0  0  0
  -20.7930  -26.6580   22.3000 C   0  0  0  0  0  2  0  0  0  0  0  0
  -19.6940  -26.3320   21.2830 C   0  0  0  0  0  2  0  0  0  0  0  0
  -18.3150  -26.3970   21.9450 C   0  0  0  0  0  2  0  0  0  0  0  0
  -19.1880  -28.5020   23.1250 C   0  0  0  0  0  0  0  0  0  0  0  0
  -18.9240  -29.7270   23.7730 C   0  0  0  0  0  3  0  0  0  0  0  0
  -17.6000  -30.1650   23.9750 C   0  0  0  0  0  3  0  0  0  0  0  0
  -16.5230  -29.3710   23.5430 C   0  0  0  0  0  3  0  0  0  0  0  0
  -16.7710  -28.1460   22.9000 C   0  0  0  0  0  3  0  0  0  0  0  0
  -25.8470  -32.3310   23.6880 C   0  0  0  0  0  3  0  0  0  0  0  0
  -26.3760  -31.5480   24.9550 C   0  0  1  0  0  0  0  0  0  0  0  0
  -25.2910  -31.2730   26.0230 C   0  0  0  0  0  1  0  0  0  0  0  0
  -26.9870  -30.1850   24.5550 C   0  0  0  0  0  1  0  0  0  0  0  0
  -27.5060  -32.3560   25.6350 C   0  0  0  0  0  1  0  0  0  0  0  0
  -25.4920  -33.7120   24.0660 N   0  0  0  0  0  0  0  0  0  0  0  0
  -25.7800  -34.8060   23.3480 C   0  0  0  0  0  0  0  0  0  0  0  0
  -26.4330  -34.7630   22.3030 O   0  0  0  0  0  0  0  0  0  0  0  0
  -24.9140  -33.8180   24.8850 H   0  0  0  0  0  0  0  0  0  0  0  0
  -23.9930  -36.5730   23.1140 C   0  0  0  0  0  1  0  0  0  0  0  0
  -25.2660  -36.1650   23.8720 C   0  0  0  0  0  3  0  0  0  0  0  0
  -27.3940  -37.0970   24.6790 C   0  0  0  0  0  1  0  0  0  0  0  0
  -26.2630  -37.2530   23.7690 N   0  0  0  0  0  0  0  0  0  0  0  0
  -25.8290  -38.1540   23.9520 H   0  0  0  0  0  0  0  0  0  0  0  0
  2  1  1  0
  2  6  1  0
  4  1  1  0
  4  3  1  0
  5 46  1  0
  5  3  1  0
  6  8  1  1
  6  5  1  0
  6  4  1  0
  8  9  1  0
  8  7  1  0
 10 16  1  0
 10  9  1  0
 11 16  1  0
 12 13  1  0
 12 11  1  0
 14 13  1  0
 14 21  1  0
 14 15  1  0
 16 15  1  0
 17 10  2  0
 18 19  2  0
 19 38  1  0
 20 19  1  0
 20 23  1  0
 21 22  1  0
 21 18  1  0
 22 20  2  0
 23 24  1  0
 24 25  2  0
 26 29  1  0
 26 25  1  0
 27 26  2  0
 28 27  1  0
 28 23  2  0
 29 30  1  0
 30 31  1  0
 31 32  2  0
 33 32  1  0
 33 37  1  0
 34 33  2  0
 35 30  2  0
 35 34  1  0
 36 35  1  0
 38 39  1  0
 39 42  1  0
 39 41  1  0
 40 38  2  0
 43 18  1  0
 43 44  1  0
 45 43  1  0
 46 47  1  0
 48 59  2  0
 49 47  1  0
 49 54  1  0
 50 58  1  0
 50 60  1  0
 51 57  1  0
 51 53  1  0
 52 58  1  0
 53 52  1  0
 54 53  2  0
 55 56  1  0
 55 49  2  0
 56 51  2  0
 57 50  1  0
 58 48  1  0
 60 62  2  0
 61 60  1  0
 63 61  1  0
 64 73  2  0
 64 69  1  0
 65 61  1  0
 65 69  1  0
 66 65  1  0
 67 68  1  0
 67 66  1  0
 68 64  1  0
 69 70  2  0
 70 71  1  0
 72 71  2  0
 73 72  1  0
 74 48  1  0
 74 79  1  0
 74 75  1  0
 75 78  1  1
 75 76  1  0
 77 75  1  0
 79 82  1  0
 80 84  1  0
 80 79  1  0
 81 80  2  0
 84 83  1  0
 86 84  1  0
 86 87  1  0
 86 85  1  0
M  ISO  4   9 100  10 100  46 101  47 101
M  END
>  <TORSDO>  (79) 
F 19

>  <SCORE>  (79) 
-15.648

>  <name>  (79) 
80

>  <ligand_id>  (79) 
80

>  <original_smiles>  (79) 
[H]c1c([H])c([H])c2c(c1[H])C([H])([H])C([H])([H])C([H])([H])C2([H])N([H])C(=O)C1([H])N(C(=O)C([H])(N([H])C(=O)C([H])(N([H])C([H])([H])[H])C([H])([H])[H])C(C([H])([H])[H])(C([H])([H])[H])C([H])([H])[H])C([H])([H])c2c([H])c(OC([H])([H])C3([H])C([H])([H])C4([H])C([H])([H])C([H])([H])C34C([H])(C([H])([H])[H])C([H])([H])C(=O)N3C([H])([H])C([H])([H])C([H])([H])C([H])(n4nc(-c5c([H])c([H])c(Oc6c([H])c([H])c(F)c([H])c6F)c([H])c5[H])c(C(=O)N([H])[H])c4N([H])[H])C3([H])[H])c([H])c([H])c2C1([H])[H]

>  <smiles>  (79) 
[H]c1c([H])c([H])c2c(c1[H])C([H])([H])C([H])([H])C([H])([H])C2([H])N([H])C(=O)C1([H])N(C(=O)C([H])(N([H])C(=O)C([H])(N([H])C([H])([H])[H])C([H])([H])[H])C(C([H])([H])[H])(C([H])([H])[H])C([H])([H])[H])C([H])([H])c2c([H])c(OC([H])([H])C3([H])C([H])([H])C4([H])C([H])([H])C([H])([H])C34C([H])(C([H])([H])[H])C([H])([H])C(=O)N3C([H])([H])C([H])([H])C([H])([H])C([H])(n4nc(-c5c([H])c([H])c(Oc6c([H])c([H])c(F)c([H])c6F)c([H])c5[H])c(C(=O)N([H])[H])c4N([H])[H])C3([H])[H])c([H])c([H])c2C1([H])[H]

$$$$
81:0:0
     RDKit          3D

 91 99  0  0  1  0  0  0  0  0999 V2000
  -28.8710  -22.5510   20.1110 N   0  0  0  0  0  4  0  0  0  0  0  0
  -29.3390  -22.5060   19.2180 H   0  0  0  0  0  0  0  0  0  0  0  0
  -27.8900  -22.4100   19.9270 H   0  0  0  0  0  0  0  0  0  0  0  0
  -28.5440  -21.2550   22.2450 C   0  0  0  0  0  1  0  0  0  0  0  0
  -29.3460  -21.3540   20.9290 C   0  0  0  0  0  3  0  0  0  0  0  0
  -28.0710  -18.3560   18.6220 C   0  0  0  0  0  2  0  0  0  0  0  0
  -28.4910  -17.1110   19.4200 C   0  0  0  0  0  2  0  0  0  0  0  0
  -27.9920  -19.6150   19.5040 C   0  0  0  0  0  2  0  0  0  0  0  0
  -29.8450  -18.6410   20.9260 C   0  0  0  0  0  2  0  0  0  0  0  0
  -29.8550  -17.2680   20.1140 C   0  0  0  0  0  3  0  0  0  0  0  0
  -29.3570  -19.9480   20.1440 C   0  0  0  0  0  3  0  0  0  0  0  0
  -30.1970  -15.9350   20.9290 C   0  0  0  0  0  2  0  0  0  0  0  0
  -30.7240  -14.6660   20.1400 C   0  0  0  0  0  0  0  0  0  0  0  0
  -30.3790  -12.4840   18.9840 C   0  0  0  0  0  2  0  0  0  0  0  0
  -29.3890  -12.6650   17.8140 C   0  0  0  0  0  2  0  0  0  0  0  0
  -27.9350  -12.5140   18.3020 C   0  0  0  0  0  2  0  0  0  0  0  0
  -27.6470  -13.3430   19.5810 C   0  0  0  0  0  3  0  0  0  0  0  0
  -28.7500  -13.1440   20.6440 C   0  0  0  0  0  2  0  0  0  0  0  0
  -30.0420  -13.4780   20.0280 N   0  0  0  0  0  0  0  0  0  0  0  0
  -31.8130  -14.7980   19.5740 O   0  0  0  0  0  0  0  0  0  0  0  0
  -25.2890  -13.9640   20.3910 C   0  0  0  0  0  0  0  0  0  0  0  0
  -24.2300  -13.1990   20.8050 C   0  0  0  0  0  0  0  0  0  0  0  0
  -24.6800  -11.8450   20.7510 C   0  0  0  0  0  0  0  0  0  0  0  0
  -26.3160  -13.0730   20.1170 N   0  0  0  0  0  0  0  0  0  0  0  0
  -25.9560  -11.7940   20.3890 N   0  0  0  0  0  0  0  0  0  0  0  0
  -23.9510  -10.5900   20.9710 C   0  0  0  0  0  0  0  0  0  0  0  0
  -24.4120   -9.6210   21.8880 C   0  0  0  0  0  3  0  0  0  0  0  0
  -23.6830   -8.4290   22.0960 C   0  0  0  0  0  3  0  0  0  0  0  0
  -22.4800   -8.2020   21.3860 C   0  0  0  0  0  0  0  0  0  0  0  0
  -22.0380   -9.1610   20.4590 C   0  0  0  0  0  3  0  0  0  0  0  0
  -22.7660  -10.3440   20.2500 C   0  0  0  0  0  3  0  0  0  0  0  0
  -21.7190   -7.0630   21.5040 O   0  0  0  0  0  0  0  0  0  0  0  0
  -21.7070   -6.3230   22.6580 C   0  0  0  0  0  0  0  0  0  0  0  0
  -21.3320   -6.8830   23.8990 C   0  0  0  0  0  3  0  0  0  0  0  0
  -21.2630   -6.0700   25.0480 C   0  0  0  0  0  3  0  0  0  0  0  0
  -21.5600   -4.6960   24.9580 C   0  0  0  0  0  0  0  0  0  0  0  0
  -21.9260   -4.1350   23.7220 C   0  0  0  0  0  3  0  0  0  0  0  0
  -21.9950   -4.9460   22.5760 C   0  0  0  0  0  0  0  0  0  0  0  0
  -22.3290   -4.3960   21.3820 F   0  0  0  0  0  0  0  0  0  0  0  0
  -21.4870   -3.9120   26.0590 F   0  0  0  0  0  0  0  0  0  0  0  0
  -22.8510  -13.6910   21.1350 C   0  0  0  0  0  0  0  0  0  0  0  0
  -22.1530  -13.0030   22.0340 N   0  0  0  0  0  0  0  0  0  0  0  0
  -22.4010  -14.7190   20.6320 O   0  0  0  0  0  0  0  0  0  0  0  0
  -22.5290  -12.1720   22.4650 H   0  0  0  0  0  0  0  0  0  0  0  0
  -21.2270  -13.3120   22.2940 H   0  0  0  0  0  0  0  0  0  0  0  0
  -25.4490  -15.3310   20.2060 N   0  0  0  0  0  0  0  0  0  0  0  0
  -24.6810  -15.9800   20.3390 H   0  0  0  0  0  0  0  0  0  0  0  0
  -26.2790  -15.7710   19.8280 H   0  0  0  0  0  0  0  0  0  0  0  0
  -29.0450  -23.9760   20.6380 C   0  0  0  0  0  2  0  0  0  0  0  0
  -28.2190  -25.0850   19.8530 C   0  0  0  0  0  2  0  0  0  0  0  0
  -28.3490  -26.5210   20.2130 O   0  0  0  0  0  0  0  0  0  0  0  0
  -24.6330  -31.8940   23.2340 C   0  0  0  0  0  0  0  0  0  0  0  0
  -27.2280  -27.3640   20.1310 C   0  0  0  0  0  0  0  0  0  0  0  0
  -23.4200  -30.5160   21.5860 C   0  0  0  0  0  3  0  0  0  0  0  0
  -24.8630  -28.9800   20.1370 C   0  0  0  0  0  0  0  0  0  0  0  0
  -25.9600  -30.8270   21.4000 C   0  0  0  0  0  2  0  0  0  0  0  0
  -26.0310  -29.4560   20.7420 C   0  0  0  0  0  0  0  0  0  0  0  0
  -27.2130  -28.6580   20.7370 C   0  0  0  0  0  3  0  0  0  0  0  0
  -26.0440  -26.9570   19.4690 C   0  0  0  0  0  3  0  0  0  0  0  0
  -24.8720  -27.7330   19.4930 C   0  0  0  0  0  3  0  0  0  0  0  0
  -23.6260  -29.8530   20.1990 C   0  0  0  0  0  2  0  0  0  0  0  0
  -24.6910  -31.0960   22.1290 N   0  0  0  0  0  0  0  0  0  0  0  0
  -23.5530  -32.1680   23.7760 O   0  0  0  0  0  0  0  0  0  0  0  0
  -22.7640  -29.4860   22.5380 C   0  0  0  0  0  0  0  0  0  0  0  0
  -21.4390  -29.3080   22.4100 N   0  0  0  0  0  0  0  0  0  0  0  0
  -23.4460  -28.8540   23.3490 O   0  0  0  0  0  0  0  0  0  0  0  0
  -20.9510  -29.8830   21.7360 H   0  0  0  0  0  0  0  0  0  0  0  0
  -18.0680  -28.0760   22.8770 C   0  0  0  0  0  0  0  0  0  0  0  0
  -20.6220  -28.3590   23.1700 C   0  0  0  0  0  3  0  0  0  0  0  0
  -20.7430  -26.9300   22.5930 C   0  0  0  0  0  2  0  0  0  0  0  0
  -19.6500  -26.5950   21.5730 C   0  0  0  0  0  2  0  0  0  0  0  0
  -18.2620  -26.7280   22.2080 C   0  0  0  0  0  2  0  0  0  0  0  0
  -19.1770  -28.8480   23.3160 C   0  0  0  0  0  0  0  0  0  0  0  0
  -18.9430  -30.1130   23.8980 C   0  0  0  0  0  3  0  0  0  0  0  0
  -17.6330  -30.6060   24.0490 C   0  0  0  0  0  3  0  0  0  0  0  0
  -16.5400  -29.8290   23.6290 C   0  0  0  0  0  3  0  0  0  0  0  0
  -16.7570  -28.5670   23.0500 C   0  0  0  0  0  3  0  0  0  0  0  0
  -25.9200  -32.5180   23.8540 C   0  0  0  0  0  3  0  0  0  0  0  0
  -25.6170  -33.9170   24.1870 N   0  0  0  0  0  0  0  0  0  0  0  0
  -25.9490  -34.9700   23.4280 C   0  0  0  0  0  0  0  0  0  0  0  0
  -26.6140  -34.8640   22.3930 O   0  0  0  0  0  0  0  0  0  0  0  0
  -25.0240  -34.0710   24.9890 H   0  0  0  0  0  0  0  0  0  0  0  0
  -24.2230  -36.7680   23.0850 C   0  0  0  0  0  1  0  0  0  0  0  0
  -25.4690  -36.3600   23.8870 C   0  0  0  0  0  3  0  0  0  0  0  0
  -27.6120  -37.2390   24.7020 C   0  0  0  0  0  1  0  0  0  0  0  0
  -26.5040  -37.4100   23.7660 N   0  0  0  0  0  0  0  0  0  0  0  0
  -26.1030  -38.3310   23.9150 H   0  0  0  0  0  0  0  0  0  0  0  0
  -26.4310  -31.7430   25.1290 C   0  0  1  0  0  0  0  0  0  0  0  0
  -25.3350  -31.5110   26.1970 C   0  0  0  0  0  1  0  0  0  0  0  0
  -27.0070  -30.3620   24.7390 C   0  0  0  0  0  1  0  0  0  0  0  0
  -27.5860  -32.5320   25.7920 C   0  0  0  0  0  1  0  0  0  0  0  0
  1 49  1  0
  1  5  1  0
  2  1  1  0
  3  1  1  0
  5  4  1  0
  6  7  1  0
  6  8  1  0
  7 10  1  0
  8 11  1  0
 10  9  1  0
 10 12  1  0
 11  9  1  0
 11  5  1  0
 13 12  1  0
 14 19  1  0
 15 16  1  0
 15 14  1  0
 17 16  1  0
 17 24  1  0
 17 18  1  0
 19 13  1  0
 19 18  1  0
 20 13  2  0
 21 22  2  0
 22 41  1  0
 23 22  1  0
 23 26  1  0
 24 25  1  0
 24 21  1  0
 25 23  2  0
 26 27  1  0
 27 28  2  0
 29 32  1  0
 29 28  1  0
 30 29  2  0
 31 30  1  0
 31 26  2  0
 32 33  1  0
 33 34  1  0
 34 35  2  0
 36 35  1  0
 36 40  1  0
 37 36  2  0
 38 33  2  0
 38 37  1  0
 39 38  1  0
 41 42  1  0
 42 45  1  0
 42 44  1  0
 43 41  2  0
 46 47  1  0
 46 21  1  0
 48 46  1  0
 50 51  1  0
 50 49  1  0
 52 63  2  0
 53 51  1  0
 53 58  1  0
 54 62  1  0
 54 64  1  0
 55 61  1  0
 55 57  1  0
 56 62  1  0
 57 56  1  0
 58 57  2  0
 59 60  1  0
 59 53  2  0
 60 55  2  0
 61 54  1  0
 62 52  1  0
 64 66  2  0
 65 64  1  0
 67 65  1  0
 68 77  2  0
 68 73  1  0
 69 65  1  0
 69 73  1  0
 70 69  1  0
 71 72  1  0
 71 70  1  0
 72 68  1  0
 73 74  2  0
 74 75  1  0
 76 75  2  0
 77 76  1  0
 78 52  1  0
 78 79  1  0
 78 88  1  0
 79 82  1  0
 80 84  1  0
 80 79  1  0
 81 80  2  0
 84 83  1  0
 86 84  1  0
 86 87  1  0
 86 85  1  0
 88 91  1  1
 88 89  1  0
 90 88  1  0
M  ISO  4  12 100  13 100  50 101  51 101
M  END
>  <TORSDO>  (80) 
F 21

>  <SCORE>  (80) 
-13.067

>  <name>  (80) 
81

>  <ligand_id>  (80) 
81

>  <original_smiles>  (80) 
[H]c1c([H])c([H])c2c(c1[H])C([H])([H])C([H])([H])C([H])([H])C2([H])N([H])C(=O)C1([H])N(C(=O)C([H])(N([H])C(=O)C([H])(N([H])C([H])([H])[H])C([H])([H])[H])C(C([H])([H])[H])(C([H])([H])[H])C([H])([H])[H])C([H])([H])c2c([H])c(OC([H])([H])C([H])([H])[N+]([H])([H])C([H])(C([H])([H])[H])C3([H])C([H])([H])C([H])([H])C([H])([H])C([H])(C([H])([H])C(=O)N4C([H])([H])C([H])([H])C([H])([H])C([H])(n5nc(-c6c([H])c([H])c(Oc7c([H])c([H])c(F)c([H])c7F)c([H])c6[H])c(C(=O)N([H])[H])c5N([H])[H])C4([H])[H])C3([H])[H])c([H])c([H])c2C1([H])[H]

>  <smiles>  (80) 
[H]c1c([H])c([H])c2c(c1[H])C([H])([H])C([H])([H])C([H])([H])C2([H])N([H])C(=O)C1([H])N(C(=O)C([H])(N([H])C(=O)C([H])(N([H])C([H])([H])[H])C([H])([H])[H])C(C([H])([H])[H])(C([H])([H])[H])C([H])([H])[H])C([H])([H])c2c([H])c(OC([H])([H])C([H])([H])[N+]([H])([H])C([H])(C([H])([H])[H])C3([H])C([H])([H])C([H])([H])C([H])([H])C([H])(C([H])([H])C(=O)N4C([H])([H])C([H])([H])C([H])([H])C([H])(n5nc(-c6c([H])c([H])c(Oc7c([H])c([H])c(F)c([H])c7F)c([H])c6[H])c(C(=O)N([H])[H])c5N([H])[H])C4([H])[H])C3([H])[H])c([H])c([H])c2C1([H])[H]

$$$$
82:0:0
     RDKit          3D

 91100  0  0  1  0  0  0  0  0999 V2000
  -29.4150  -23.0160   19.8060 C   0  0  0  0  0  3  0  0  0  0  0  0
  -27.8100  -23.1970   21.5990 C   0  0  0  0  0  3  0  0  0  0  0  0
  -29.2690  -24.4120   19.5570 C   0  0  0  0  0  3  0  0  0  0  0  0
  -27.6710  -24.5900   21.3530 C   0  0  0  0  0  3  0  0  0  0  0  0
  -28.7010  -22.3810   20.8520 C   0  0  0  0  0  0  0  0  0  0  0  0
  -28.4130  -25.2350   20.3330 C   0  0  0  0  0  0  0  0  0  0  0  0
  -28.4050  -26.6240   20.1380 O   0  0  0  0  0  0  0  0  0  0  0  0
  -24.6060  -31.8870   23.2270 C   0  0  0  0  0  0  0  0  0  0  0  0
  -27.2400  -27.3840   20.1690 C   0  0  0  0  0  0  0  0  0  0  0  0
  -23.4000  -30.4790   21.5900 C   0  0  0  0  0  3  0  0  0  0  0  0
  -24.8540  -28.9320   20.1690 C   0  0  0  0  0  0  0  0  0  0  0  0
  -25.9310  -30.8240   21.3940 C   0  0  0  0  0  2  0  0  0  0  0  0
  -26.0160  -29.4450   20.7590 C   0  0  0  0  0  0  0  0  0  0  0  0
  -27.2110  -28.6790   20.7540 C   0  0  0  0  0  3  0  0  0  0  0  0
  -26.0630  -26.9010   19.5640 C   0  0  0  0  0  3  0  0  0  0  0  0
  -24.8750  -27.6600   19.5680 C   0  0  0  0  0  3  0  0  0  0  0  0
  -23.6110  -29.7970   20.2120 C   0  0  0  0  0  2  0  0  0  0  0  0
  -24.6650  -31.0810   22.1270 N   0  0  0  0  0  0  0  0  0  0  0  0
  -23.5250  -32.1620   23.7660 O   0  0  0  0  0  0  0  0  0  0  0  0
  -22.7510  -29.4620   22.5550 C   0  0  0  0  0  0  0  0  0  0  0  0
  -21.4250  -29.2820   22.4350 N   0  0  0  0  0  0  0  0  0  0  0  0
  -23.4370  -28.8360   23.3670 O   0  0  0  0  0  0  0  0  0  0  0  0
  -20.9340  -29.8340   21.7460 H   0  0  0  0  0  0  0  0  0  0  0  0
  -18.0530  -28.0890   22.9550 C   0  0  0  0  0  0  0  0  0  0  0  0
  -20.6120  -28.3460   23.2120 C   0  0  0  0  0  3  0  0  0  0  0  0
  -20.7110  -26.9140   22.6350 C   0  0  0  0  0  2  0  0  0  0  0  0
  -19.6010  -26.5930   21.6270 C   0  0  0  0  0  2  0  0  0  0  0  0
  -18.2240  -26.7390   22.2780 C   0  0  0  0  0  2  0  0  0  0  0  0
  -19.1740  -28.8500   23.3800 C   0  0  0  0  0  0  0  0  0  0  0  0
  -18.9600  -30.1130   23.9740 C   0  0  0  0  0  3  0  0  0  0  0  0
  -17.6550  -30.6140   24.1460 C   0  0  0  0  0  3  0  0  0  0  0  0
  -16.5490  -29.8510   23.7370 C   0  0  0  0  0  3  0  0  0  0  0  0
  -16.7480  -28.5890   23.1470 C   0  0  0  0  0  3  0  0  0  0  0  0
  -25.8910  -32.5220   23.8440 C   0  0  0  0  0  3  0  0  0  0  0  0
  -26.4190  -31.7480   25.1140 C   0  0  1  0  0  0  0  0  0  0  0  0
  -25.3330  -31.5010   26.1860 C   0  0  0  0  0  1  0  0  0  0  0  0
  -27.0070  -30.3740   24.7140 C   0  0  0  0  0  1  0  0  0  0  0  0
  -27.5700  -32.5450   25.7710 C   0  0  0  0  0  1  0  0  0  0  0  0
  -25.5770  -33.9170   24.1810 N   0  0  0  0  0  0  0  0  0  0  0  0
  -25.8990  -34.9740   23.4240 C   0  0  0  0  0  0  0  0  0  0  0  0
  -26.5630  -34.8770   22.3880 O   0  0  0  0  0  0  0  0  0  0  0  0
  -24.9850  -34.0650   24.9850 H   0  0  0  0  0  0  0  0  0  0  0  0
  -24.1580  -36.7560   23.0840 C   0  0  0  0  0  1  0  0  0  0  0  0
  -25.4060  -36.3570   23.8890 C   0  0  0  0  0  3  0  0  0  0  0  0
  -27.5410  -37.2470   24.7120 C   0  0  0  0  0  1  0  0  0  0  0  0
  -26.4320  -37.4170   23.7770 N   0  0  0  0  0  0  0  0  0  0  0  0
  -26.0220  -38.3340   23.9360 H   0  0  0  0  0  0  0  0  0  0  0  0
  -28.9540  -20.9160   21.3270 C   0  0  0  0  0  2  0  0  0  0  0  0
  -29.4470  -19.7620   20.3610 C   0  0  0  0  0  2  0  0  0  0  0  0
  -31.7400  -17.8030   20.8380 C   0  0  0  0  0  2  0  0  0  0  0  0
  -30.9700  -18.5350   21.9300 C   0  0  0  0  0  2  0  0  0  0  0  0
  -30.3800  -17.2960   20.3540 C   0  0  0  0  0  3  0  0  0  0  0  0
  -29.7690  -18.4670   21.0870 N   0  0  2  0  0  4  0  0  0  0  0  0
  -28.9620  -18.1810   21.6220 H   0  0  0  0  0  0  0  0  0  0  0  0
  -29.9110  -15.8640   20.8300 C   0  0  0  0  0  2  0  0  0  0  0  0
  -30.6720  -14.6120   20.2510 C   0  0  0  0  0  0  0  0  0  0  0  0
  -30.4080  -12.4240   19.1040 C   0  0  0  0  0  2  0  0  0  0  0  0
  -29.4420  -12.6200   17.9150 C   0  0  0  0  0  2  0  0  0  0  0  0
  -27.9750  -12.4640   18.3650 C   0  0  0  0  0  2  0  0  0  0  0  0
  -27.6540  -13.2910   19.6370 C   0  0  0  0  0  3  0  0  0  0  0  0
  -28.7310  -13.0850   20.7260 C   0  0  0  0  0  2  0  0  0  0  0  0
  -30.0380  -13.4060   20.1390 N   0  0  0  0  0  0  0  0  0  0  0  0
  -31.8060  -14.7720   19.7890 O   0  0  0  0  0  0  0  0  0  0  0  0
  -25.2720  -13.9010   20.3910 C   0  0  0  0  0  0  0  0  0  0  0  0
  -24.2110  -13.1320   20.7820 C   0  0  0  0  0  0  0  0  0  0  0  0
  -24.6720  -11.7790   20.7490 C   0  0  0  0  0  0  0  0  0  0  0  0
  -26.3120  -13.0180   20.1430 N   0  0  0  0  0  0  0  0  0  0  0  0
  -25.9570  -11.7380   20.4190 N   0  0  0  0  0  0  0  0  0  0  0  0
  -23.9470  -10.5180   20.9560 C   0  0  0  0  0  0  0  0  0  0  0  0
  -24.3860   -9.5620   21.8990 C   0  0  0  0  0  3  0  0  0  0  0  0
  -23.6630   -8.3650   22.0910 C   0  0  0  0  0  3  0  0  0  0  0  0
  -22.4880   -8.1170   21.3430 C   0  0  0  0  0  0  0  0  0  0  0  0
  -22.0690   -9.0630   20.3900 C   0  0  0  0  0  3  0  0  0  0  0  0
  -22.7920  -10.2510   20.1950 C   0  0  0  0  0  3  0  0  0  0  0  0
  -21.7360   -6.9710   21.4460 O   0  0  0  0  0  0  0  0  0  0  0  0
  -21.6830   -6.2470   22.6100 C   0  0  0  0  0  0  0  0  0  0  0  0
  -21.2410   -6.8190   23.8240 C   0  0  0  0  0  3  0  0  0  0  0  0
  -21.1360   -6.0200   24.9790 C   0  0  0  0  0  3  0  0  0  0  0  0
  -21.4610   -4.6510   24.9230 C   0  0  0  0  0  0  0  0  0  0  0  0
  -21.8970   -4.0800   23.7150 C   0  0  0  0  0  3  0  0  0  0  0  0
  -22.0040   -4.8760   22.5600 C   0  0  0  0  0  0  0  0  0  0  0  0
  -22.4040   -4.3150   21.3930 F   0  0  0  0  0  0  0  0  0  0  0  0
  -21.3530   -3.8820   26.0310 F   0  0  0  0  0  0  0  0  0  0  0  0
  -22.8170  -13.6110   21.0730 C   0  0  0  0  0  0  0  0  0  0  0  0
  -22.1020  -12.9180   21.9520 N   0  0  0  0  0  0  0  0  0  0  0  0
  -22.3730  -14.6350   20.5550 O   0  0  0  0  0  0  0  0  0  0  0  0
  -22.4740  -12.0910   22.3930 H   0  0  0  0  0  0  0  0  0  0  0  0
  -21.1670  -13.2200   22.1870 H   0  0  0  0  0  0  0  0  0  0  0  0
  -25.4350  -15.2710   20.2030 N   0  0  0  0  0  0  0  0  0  0  0  0
  -24.6630  -15.9210   20.3040 H   0  0  0  0  0  0  0  0  0  0  0  0
  -26.2640  -15.7010   19.8120 H   0  0  0  0  0  0  0  0  0  0  0  0
  1  5  1  0
  3  1  2  0
  3  6  1  0
  4  2  1  0
  5 48  1  0
  5  2  2  0
  6  4  2  0
  7  9  1  0
  7  6  1  0
  8 19  2  0
  9 14  1  0
 10 18  1  0
 10 20  1  0
 11 17  1  0
 11 13  1  0
 12 18  1  0
 13 12  1  0
 14 13  2  0
 15 16  1  0
 15  9  2  0
 16 11  2  0
 17 10  1  0
 18  8  1  0
 20 22  2  0
 21 20  1  0
 23 21  1  0
 24 33  2  0
 24 29  1  0
 25 21  1  0
 25 29  1  0
 26 25  1  0
 27 28  1  0
 27 26  1  0
 28 24  1  0
 29 30  2  0
 30 31  1  0
 32 31  2  0
 33 32  1  0
 34  8  1  0
 34 39  1  0
 34 35  1  0
 35 38  1  1
 35 36  1  0
 37 35  1  0
 39 42  1  0
 40 44  1  0
 40 39  1  0
 41 40  2  0
 44 43  1  0
 46 44  1  0
 46 47  1  0
 46 45  1  0
 49 53  1  0
 49 48  1  0
 50 51  1  0
 52 55  1  0
 52 50  1  0
 52 53  1  0
 53 54  1  1
 53 51  1  0
 56 55  1  0
 57 62  1  0
 58 59  1  0
 58 57  1  0
 60 59  1  0
 60 67  1  0
 60 61  1  0
 62 56  1  0
 62 61  1  0
 63 56  2  0
 64 65  2  0
 65 84  1  0
 66 65  1  0
 66 69  1  0
 67 64  1  0
 67 68  1  0
 68 66  2  0
 69 70  1  0
 70 71  2  0
 72 75  1  0
 72 71  1  0
 73 72  2  0
 74 73  1  0
 74 69  2  0
 75 76  1  0
 76 77  1  0
 77 78  2  0
 79 78  1  0
 79 83  1  0
 80 79  2  0
 81 76  2  0
 81 80  1  0
 82 81  1  0
 84 85  1  0
 85 88  1  0
 85 87  1  0
 86 84  2  0
 89 90  1  0
 89 64  1  0
 91 89  1  0
M  ISO  4   6 101   7 101  55 100  56 100
M  END
>  <TORSDO>  (81) 
F 20

>  <SCORE>  (81) 
-14.137

>  <name>  (81) 
82

>  <ligand_id>  (81) 
82

>  <original_smiles>  (81) 
[H]c1c([H])c([H])c2c(c1[H])C([H])([H])C([H])([H])C([H])([H])C2([H])N([H])C(=O)C1([H])N(C(=O)C([H])(N([H])C(=O)C([H])(N([H])C([H])([H])[H])C([H])([H])[H])C(C([H])([H])[H])(C([H])([H])[H])C([H])([H])[H])C([H])([H])c2c([H])c(Oc3c([H])c([H])c(C([H])([H])C([H])([H])[N+]4([H])C([H])([H])C([H])([H])C4([H])C([H])([H])C(=O)N4C([H])([H])C([H])([H])C([H])([H])C([H])(n5nc(-c6c([H])c([H])c(Oc7c([H])c([H])c(F)c([H])c7F)c([H])c6[H])c(C(=O)N([H])[H])c5N([H])[H])C4([H])[H])c([H])c3[H])c([H])c([H])c2C1([H])[H]

>  <smiles>  (81) 
[H]c1c([H])c([H])c2c(c1[H])C([H])([H])C([H])([H])C([H])([H])C2([H])N([H])C(=O)C1([H])N(C(=O)C([H])(N([H])C(=O)C([H])(N([H])C([H])([H])[H])C([H])([H])[H])C(C([H])([H])[H])(C([H])([H])[H])C([H])([H])[H])C([H])([H])c2c([H])c(Oc3c([H])c([H])c(C([H])([H])C([H])([H])[N+]4([H])C([H])([H])C([H])([H])C4([H])C([H])([H])C(=O)N4C([H])([H])C([H])([H])C([H])([H])C([H])(n5nc(-c6c([H])c([H])c(Oc7c([H])c([H])c(F)c([H])c7F)c([H])c6[H])c(C(=O)N([H])[H])c5N([H])[H])C4([H])[H])c([H])c3[H])c([H])c([H])c2C1([H])[H]

$$$$
83:0:0
     RDKit          3D

 91 99  0  0  1  0  0  0  0  0999 V2000
  -29.8140  -20.8280   19.7090 C   0  0  0  0  0  0  0  0  0  0  0  0
  -28.9890  -21.8550   20.0830 N   0  0  0  0  0  0  0  0  0  0  0  0
  -29.0310  -16.7970   20.5300 C   0  0  0  0  0  2  0  0  0  0  0  0
  -30.0500  -16.4940   19.6880 C   0  0  0  0  0  3  0  0  0  0  0  0
  -28.7350  -18.2800   20.6110 C   0  0  0  0  0  0  0  0  0  0  0  0
  -29.8880  -19.1340   20.0230 C   0  0  0  0  0  3  0  0  0  0  0  0
  -30.5060  -17.9180   19.0680 C   0  0  1  0  0  0  0  0  0  0  0  0
  -32.0470  -17.9760   18.9290 C   0  0  0  0  0  1  0  0  0  0  0  0
  -29.8930  -18.0140   17.6490 C   0  0  0  0  0  1  0  0  0  0  0  0
  -27.7310  -18.7680   21.1350 O   0  0  0  0  0  0  0  0  0  0  0  0
  -30.7590  -15.0910   19.5760 C   0  0  0  0  0  0  0  0  0  0  0  0
  -30.5760  -12.6790   18.8240 C   0  0  0  0  0  2  0  0  0  0  0  0
  -29.5670  -12.5330   17.6610 C   0  0  0  0  0  2  0  0  0  0  0  0
  -28.1470  -12.3100   18.2140 C   0  0  0  0  0  2  0  0  0  0  0  0
  -27.7960  -13.2980   19.3580 C   0  0  0  0  0  3  0  0  0  0  0  0
  -28.9290  -13.4360   20.3930 C   0  0  0  0  0  2  0  0  0  0  0  0
  -30.1450  -13.8360   19.6720 N   0  0  0  0  0  0  0  0  0  0  0  0
  -31.9450  -15.0320   19.2290 O   0  0  0  0  0  0  0  0  0  0  0  0
  -25.5300  -13.8610   20.3980 C   0  0  0  0  0  0  0  0  0  0  0  0
  -24.4940  -13.0840   20.8380 C   0  0  0  0  0  0  0  0  0  0  0  0
  -24.9230  -11.7290   20.6820 C   0  0  0  0  0  0  0  0  0  0  0  0
  -26.5180  -12.9830   19.9870 N   0  0  0  0  0  0  0  0  0  0  0  0
  -26.1730  -11.6920   20.2290 N   0  0  0  0  0  0  0  0  0  0  0  0
  -24.1910  -10.4700   20.8770 C   0  0  0  0  0  0  0  0  0  0  0  0
  -24.6170   -9.5020   21.8110 C   0  0  0  0  0  3  0  0  0  0  0  0
  -23.8830   -8.3100   21.9960 C   0  0  0  0  0  3  0  0  0  0  0  0
  -22.7070   -8.0760   21.2440 C   0  0  0  0  0  0  0  0  0  0  0  0
  -22.3010   -9.0310   20.2950 C   0  0  0  0  0  3  0  0  0  0  0  0
  -23.0370  -10.2140   20.1090 C   0  0  0  0  0  3  0  0  0  0  0  0
  -21.9440   -6.9370   21.3380 O   0  0  0  0  0  0  0  0  0  0  0  0
  -21.7750   -6.2790   22.5300 C   0  0  0  0  0  0  0  0  0  0  0  0
  -21.1980   -6.9090   23.6540 C   0  0  0  0  0  3  0  0  0  0  0  0
  -20.9800   -6.1760   24.8370 C   0  0  0  0  0  3  0  0  0  0  0  0
  -21.3270   -4.8140   24.8960 C   0  0  0  0  0  0  0  0  0  0  0  0
  -21.8970   -4.1820   23.7770 C   0  0  0  0  0  3  0  0  0  0  0  0
  -22.1170   -4.9130   22.5950 C   0  0  0  0  0  0  0  0  0  0  0  0
  -22.6450   -4.2940   21.5130 F   0  0  0  0  0  0  0  0  0  0  0  0
  -21.1100   -4.1060   26.0300 F   0  0  0  0  0  0  0  0  0  0  0  0
  -23.1430  -13.5680   21.2790 C   0  0  0  0  0  0  0  0  0  0  0  0
  -22.4930  -12.8420   22.1810 N   0  0  0  0  0  0  0  0  0  0  0  0
  -22.6770  -14.6260   20.8580 O   0  0  0  0  0  0  0  0  0  0  0  0
  -22.8850  -11.9880   22.5490 H   0  0  0  0  0  0  0  0  0  0  0  0
  -21.5890  -13.1500   22.5150 H   0  0  0  0  0  0  0  0  0  0  0  0
  -25.7030  -15.2380   20.2890 N   0  0  0  0  0  0  0  0  0  0  0  0
  -24.9640  -15.8900   20.5290 H   0  0  0  0  0  0  0  0  0  0  0  0
  -26.5200  -15.6880   19.8990 H   0  0  0  0  0  0  0  0  0  0  0  0
  -32.3480  -21.2110   19.8330 C   0  0  0  0  0  1  0  0  0  0  0  0
  -31.0850  -21.2080   18.9410 C   0  0  0  0  0  2  0  0  0  0  0  0
  -29.1790  -23.4110   19.7340 C   0  0  0  0  0  3  0  0  0  0  0  0
  -28.2990  -24.7090   20.3860 C   0  0  0  0  0  3  0  0  0  0  0  0
  -28.4940  -26.2400   20.1000 O   0  0  0  0  0  0  0  0  0  0  0  0
  -24.7750  -31.8830   23.1150 C   0  0  0  0  0  0  0  0  0  0  0  0
  -27.4140  -27.2010   20.0860 C   0  0  0  0  0  0  0  0  0  0  0  0
  -23.5960  -30.4820   21.4630 C   0  0  0  0  0  3  0  0  0  0  0  0
  -25.0670  -28.9240   20.0410 C   0  0  0  0  0  0  0  0  0  0  0  0
  -26.1480  -30.7770   21.3080 C   0  0  0  0  0  2  0  0  0  0  0  0
  -26.2400  -29.3840   20.6550 C   0  0  0  0  0  0  0  0  0  0  0  0
  -27.4160  -28.5420   20.6560 C   0  0  0  0  0  3  0  0  0  0  0  0
  -26.2170  -26.8430   19.4320 C   0  0  0  0  0  3  0  0  0  0  0  0
  -25.0690  -27.6670   19.4130 C   0  0  0  0  0  3  0  0  0  0  0  0
  -23.8310  -29.8100   20.0830 C   0  0  0  0  0  2  0  0  0  0  0  0
  -24.8590  -31.0700   22.0170 N   0  0  0  0  0  0  0  0  0  0  0  0
  -23.6830  -32.1530   23.6390 O   0  0  0  0  0  0  0  0  0  0  0  0
  -22.9240  -29.4650   22.4200 C   0  0  0  0  0  0  0  0  0  0  0  0
  -21.5960  -29.2940   22.3020 N   0  0  0  0  0  0  0  0  0  0  0  0
  -23.6030  -28.8290   23.2320 O   0  0  0  0  0  0  0  0  0  0  0  0
  -21.1070  -29.8560   21.6200 H   0  0  0  0  0  0  0  0  0  0  0  0
  -18.2120  -28.1160   22.8500 C   0  0  0  0  0  0  0  0  0  0  0  0
  -20.7790  -28.3480   23.0660 C   0  0  0  0  0  3  0  0  0  0  0  0
  -20.8540  -26.9300   22.4560 C   0  0  0  0  0  2  0  0  0  0  0  0
  -19.7280  -26.6420   21.4570 C   0  0  0  0  0  2  0  0  0  0  0  0
  -18.3610  -26.7840   22.1340 C   0  0  0  0  0  2  0  0  0  0  0  0
  -19.3480  -28.8580   23.2730 C   0  0  0  0  0  0  0  0  0  0  0  0
  -19.1550  -30.1050   23.9050 C   0  0  0  0  0  3  0  0  0  0  0  0
  -17.8580  -30.6140   24.1130 C   0  0  0  0  0  3  0  0  0  0  0  0
  -16.7370  -29.8720   23.7020 C   0  0  0  0  0  3  0  0  0  0  0  0
  -16.9150  -28.6220   23.0820 C   0  0  0  0  0  3  0  0  0  0  0  0
  -26.0440  -32.5310   23.7500 C   0  0  0  0  0  3  0  0  0  0  0  0
  -26.5840  -31.7350   25.0030 C   0  0  1  0  0  0  0  0  0  0  0  0
  -25.5020  -31.4350   26.0660 C   0  0  0  0  0  1  0  0  0  0  0  0
  -27.2020  -30.3850   24.5700 C   0  0  0  0  0  1  0  0  0  0  0  0
  -27.7170  -32.5380   25.6860 C   0  0  0  0  0  1  0  0  0  0  0  0
  -25.7010  -33.9100   24.1330 N   0  0  0  0  0  0  0  0  0  0  0  0
  -25.9830  -34.9980   23.4010 C   0  0  0  0  0  0  0  0  0  0  0  0
  -26.6260  -34.9440   22.3500 O   0  0  0  0  0  0  0  0  0  0  0  0
  -25.1250  -34.0220   24.9530 H   0  0  0  0  0  0  0  0  0  0  0  0
  -24.1910  -36.7490   23.1650 C   0  0  0  0  0  1  0  0  0  0  0  0
  -25.4730  -36.3580   23.9180 C   0  0  0  0  0  3  0  0  0  0  0  0
  -27.6060  -37.2890   24.7010 C   0  0  0  0  0  1  0  0  0  0  0  0
  -26.4680  -37.4460   23.7990 N   0  0  0  0  0  0  0  0  0  0  0  0
  -26.0400  -38.3490   23.9810 H   0  0  0  0  0  0  0  0  0  0  0  0
  1  2  2  0
  3  5  1  0
  4 11  1  0
  4  3  1  0
  5 10  2  0
  6  1  1  0
  6  5  1  0
  7  4  1  0
  7  6  1  0
  7  8  1  6
  9  7  1  0
 11 17  1  0
 12 17  1  0
 13 14  1  0
 13 12  1  0
 15 14  1  0
 15 22  1  0
 15 16  1  0
 17 16  1  0
 18 11  2  0
 19 20  2  0
 20 39  1  0
 21 20  1  0
 21 24  1  0
 22 23  1  0
 22 19  1  0
 23 21  2  0
 24 25  1  0
 25 26  2  0
 27 30  1  0
 27 26  1  0
 28 27  2  0
 29 28  1  0
 29 24  2  0
 30 31  1  0
 31 36  2  0
 31 32  1  0
 32 33  2  0
 33 34  1  0
 34 38  1  0
 35 34  2  0
 36 35  1  0
 37 36  1  0
 39 40  1  0
 40 43  1  0
 40 42  1  0
 41 39  2  0
 44 19  1  0
 44 45  1  0
 46 44  1  0
 48  1  1  0
 48 47  1  0
 49  2  1  0
 49 50  2  0
 51 50  1  0
 52 63  2  0
 53 51  1  0
 53 58  1  0
 54 62  1  0
 54 64  1  0
 55 61  1  0
 55 57  1  0
 56 62  1  0
 57 58  2  0
 57 56  1  0
 59 53  2  0
 60 59  1  0
 60 55  2  0
 61 54  1  0
 62 52  1  0
 64 66  2  0
 65 64  1  0
 67 65  1  0
 68 77  2  0
 68 73  1  0
 69 65  1  0
 69 73  1  0
 70 69  1  0
 71 72  1  0
 71 70  1  0
 72 68  1  0
 73 74  2  0
 74 75  1  0
 76 75  2  0
 77 76  1  0
 78 52  1  0
 78 83  1  0
 78 79  1  0
 79 82  1  1
 79 80  1  0
 81 79  1  0
 83 86  1  0
 84 88  1  0
 84 83  1  0
 85 84  2  0
 88 87  1  0
 90 88  1  0
 90 91  1  0
 90 89  1  0
M  ISO  4   4 100  11 100  50 101  51 101
M  END
>  <TORSDO>  (82) 
F 20

>  <SCORE>  (82) 
-14.050

>  <name>  (82) 
83

>  <ligand_id>  (82) 
83

>  <original_smiles>  (82) 
[H]C1=C(C(=O)N2C([H])([H])C([H])([H])C([H])([H])C([H])(n3nc(-c4c([H])c([H])c(Oc5c([H])c([H])c(F)c([H])c5F)c([H])c4[H])c(C(=O)N([H])[H])c3N([H])[H])C2([H])[H])C(C([H])([H])[H])(C([H])([H])[H])C([H])(C(=NC([H])([H])C([H])([H])Oc2c([H])c([H])c3c(c2[H])C([H])([H])N(C(=O)C([H])(N([H])C(=O)C([H])(N([H])C([H])([H])[H])C([H])([H])[H])C(C([H])([H])[H])(C([H])([H])[H])C([H])([H])[H])C([H])(C(=O)N([H])C2([H])c4c([H])c([H])c([H])c([H])c4C([H])([H])C([H])([H])C2([H])[H])C3([H])[H])C([H])([H])C([H])([H])[H])C1=O

>  <smiles>  (82) 
[H]C1=C(C(=O)N2C([H])([H])C([H])([H])C([H])([H])C([H])(n3nc(-c4c([H])c([H])c(Oc5c([H])c([H])c(F)c([H])c5F)c([H])c4[H])c(C(=O)N([H])[H])c3N([H])[H])C2([H])[H])C(C([H])([H])[H])(C([H])([H])[H])C([H])(C(=NC([H])([H])C([H])([H])Oc2c([H])c([H])c3c(c2[H])C([H])([H])N(C(=O)C([H])(N([H])C(=O)C([H])(N([H])C([H])([H])[H])C([H])([H])[H])C(C([H])([H])[H])(C([H])([H])[H])C([H])([H])[H])C([H])(C(=O)N([H])C2([H])c4c([H])c([H])c([H])c([H])c4C([H])([H])C([H])([H])C2([H])[H])C3([H])[H])C([H])([H])C([H])([H])[H])C1=O

$$$$
84:0:0
     RDKit          3D

 94103  0  0  1  0  0  0  0  0999 V2000
  -29.1830  -19.9230   19.8910 N   0  0  1  0  0  4  0  0  0  0  0  0
  -29.7610  -20.0380   19.0730 H   0  0  0  0  0  0  0  0  0  0  0  0
  -25.0580  -23.5030   18.6790 C   0  0  0  0  0  3  0  0  0  0  0  0
  -25.6060  -23.4220   17.3760 C   0  0  0  0  0  3  0  0  0  0  0  0
  -25.3620  -22.5200   19.6490 C   0  0  0  0  0  3  0  0  0  0  0  0
  -26.4660  -22.3590   17.0250 C   0  0  0  0  0  3  0  0  0  0  0  0
  -26.2170  -21.4660   19.2820 C   0  0  0  0  0  0  0  0  0  0  0  0
  -26.7580  -21.3920   18.0040 C   0  0  0  0  0  0  0  0  0  0  0  0
  -26.6860  -20.3220   20.1450 C   0  0  0  0  0  2  0  0  0  0  0  0
  -27.6700  -20.2020   17.8630 C   0  0  0  0  0  2  0  0  0  0  0  0
  -27.8260  -19.6620   19.3140 C   0  0  0  0  0  3  0  0  0  0  0  0
  -29.2500  -21.4340   20.5920 C   0  0  0  0  0  2  0  0  0  0  0  0
  -29.8360  -23.1770   18.7840 C   0  0  0  0  0  2  0  0  0  0  0  0
  -29.1040  -23.0150   19.9050 C   0  0  0  0  0  0  0  0  0  0  0  0
  -28.2730  -24.4420   20.4410 C   0  0  0  0  0  2  0  0  0  0  0  0
  -28.4320  -26.0600   20.2540 O   0  0  0  0  0  0  0  0  0  0  0  0
  -24.6430  -31.8610   23.2030 C   0  0  0  0  0  0  0  0  0  0  0  0
  -27.3680  -27.0900   20.2240 C   0  0  0  0  0  0  0  0  0  0  0  0
  -23.5160  -30.4550   21.5280 C   0  0  0  0  0  3  0  0  0  0  0  0
  -25.0260  -28.8910   20.1330 C   0  0  0  0  0  0  0  0  0  0  0  0
  -26.0770  -30.7290   21.4390 C   0  0  0  0  0  2  0  0  0  0  0  0
  -26.1900  -29.3280   20.7780 C   0  0  0  0  0  0  0  0  0  0  0  0
  -27.3600  -28.4500   20.7940 C   0  0  0  0  0  3  0  0  0  0  0  0
  -26.1690  -26.7860   19.5420 C   0  0  0  0  0  3  0  0  0  0  0  0
  -25.0370  -27.6400   19.4950 C   0  0  0  0  0  3  0  0  0  0  0  0
  -23.7900  -29.7860   20.1530 C   0  0  0  0  0  2  0  0  0  0  0  0
  -24.7650  -31.0420   22.1110 N   0  0  0  0  0  0  0  0  0  0  0  0
  -23.5370  -32.1270   23.7010 O   0  0  0  0  0  0  0  0  0  0  0  0
  -22.8200  -29.4370   22.4690 C   0  0  0  0  0  0  0  0  0  0  0  0
  -21.4890  -29.2810   22.3390 N   0  0  0  0  0  0  0  0  0  0  0  0
  -23.4830  -28.7900   23.2820 O   0  0  0  0  0  0  0  0  0  0  0  0
  -21.0100  -29.8540   21.6570 H   0  0  0  0  0  0  0  0  0  0  0  0
  -18.0920  -28.1160   22.8520 C   0  0  0  0  0  0  0  0  0  0  0  0
  -20.6610  -28.3310   23.0860 C   0  0  0  0  0  3  0  0  0  0  0  0
  -20.7300  -26.9200   22.4570 C   0  0  0  0  0  2  0  0  0  0  0  0
  -19.6060  -26.6540   21.4500 C   0  0  0  0  0  2  0  0  0  0  0  0
  -18.2370  -26.7930   22.1200 C   0  0  0  0  0  2  0  0  0  0  0  0
  -19.2290  -28.8460   23.2910 C   0  0  0  0  0  0  0  0  0  0  0  0
  -19.0370  -30.0860   23.9390 C   0  0  0  0  0  3  0  0  0  0  0  0
  -17.7410  -30.5940   24.1540 C   0  0  0  0  0  3  0  0  0  0  0  0
  -16.6200  -29.8610   23.7300 C   0  0  0  0  0  3  0  0  0  0  0  0
  -16.7960  -28.6250   23.0840 C   0  0  0  0  0  3  0  0  0  0  0  0
  -25.8870  -32.5220   23.8710 C   0  0  0  0  0  3  0  0  0  0  0  0
  -25.5480  -33.9240   24.1690 N   0  0  0  0  0  0  0  0  0  0  0  0
  -25.9060  -34.9770   23.4220 C   0  0  0  0  0  0  0  0  0  0  0  0
  -26.6180  -34.8700   22.4210 O   0  0  0  0  0  0  0  0  0  0  0  0
  -24.9180  -34.0790   24.9430 H   0  0  0  0  0  0  0  0  0  0  0  0
  -24.1790  -36.7610   23.0030 C   0  0  0  0  0  1  0  0  0  0  0  0
  -25.3970  -36.3680   23.8530 C   0  0  0  0  0  3  0  0  0  0  0  0
  -27.4960  -37.2810   24.7430 C   0  0  0  0  0  1  0  0  0  0  0  0
  -26.4260  -37.4280   23.7620 N   0  0  0  0  0  0  0  0  0  0  0  0
  -26.0080  -38.3480   23.8830 H   0  0  0  0  0  0  0  0  0  0  0  0
  -26.3490  -31.7820   25.1870 C   0  0  1  0  0  0  0  0  0  0  0  0
  -25.2110  -31.5700   26.2140 C   0  0  0  0  0  1  0  0  0  0  0  0
  -26.9480  -30.3960   24.8610 C   0  0  0  0  0  1  0  0  0  0  0  0
  -27.4710  -32.5950   25.8750 C   0  0  0  0  0  1  0  0  0  0  0  0
  -29.8110  -18.4990   20.4890 C   0  0  0  0  0  2  0  0  0  0  0  0
  -29.4640  -16.8100   20.0140 C   0  0  0  0  0  2  0  0  0  0  0  0
  -30.3680  -15.3220   19.9200 C   0  0  0  0  0  0  0  0  0  0  0  0
  -30.3070  -12.9120   18.9780 C   0  0  0  0  0  2  0  0  0  0  0  0
  -29.3000  -12.7930   17.8030 C   0  0  0  0  0  2  0  0  0  0  0  0
  -27.8720  -12.5360   18.3190 C   0  0  0  0  0  2  0  0  0  0  0  0
  -27.5160  -13.4490   19.5180 C   0  0  0  0  0  3  0  0  0  0  0  0
  -28.6340  -13.5090   20.5770 C   0  0  0  0  0  2  0  0  0  0  0  0
  -29.8450  -14.0040   19.9030 N   0  0  0  0  0  0  0  0  0  0  0  0
  -31.5750  -15.3590   19.6320 O   0  0  0  0  0  0  0  0  0  0  0  0
  -25.2030  -13.9990   20.4430 C   0  0  0  0  0  0  0  0  0  0  0  0
  -24.1600  -13.2150   20.8530 C   0  0  0  0  0  0  0  0  0  0  0  0
  -24.6120  -11.8640   20.7430 C   0  0  0  0  0  0  0  0  0  0  0  0
  -26.2190  -13.1260   20.1000 N   0  0  0  0  0  0  0  0  0  0  0  0
  -25.8810  -11.8340   20.3480 N   0  0  0  0  0  0  0  0  0  0  0  0
  -23.8870  -10.6000   20.9340 C   0  0  0  0  0  0  0  0  0  0  0  0
  -24.3630   -9.6020   21.8120 C   0  0  0  0  0  3  0  0  0  0  0  0
  -23.6370   -8.4050   21.9950 C   0  0  0  0  0  3  0  0  0  0  0  0
  -22.4230   -8.1970   21.2980 C   0  0  0  0  0  0  0  0  0  0  0  0
  -21.9660   -9.1850   20.4080 C   0  0  0  0  0  3  0  0  0  0  0  0
  -22.6920  -10.3740   20.2240 C   0  0  0  0  0  3  0  0  0  0  0  0
  -21.6660   -7.0540   21.3910 O   0  0  0  0  0  0  0  0  0  0  0  0
  -21.6630   -6.2830   22.5250 C   0  0  0  0  0  0  0  0  0  0  0  0
  -21.2930   -6.8100   23.7820 C   0  0  0  0  0  3  0  0  0  0  0  0
  -21.2360   -5.9670   24.9100 C   0  0  0  0  0  3  0  0  0  0  0  0
  -21.5400   -4.5980   24.7830 C   0  0  0  0  0  0  0  0  0  0  0  0
  -21.9020   -4.0700   23.5310 C   0  0  0  0  0  3  0  0  0  0  0  0
  -21.9610   -4.9110   22.4060 C   0  0  0  0  0  0  0  0  0  0  0  0
  -22.2890   -4.3930   21.1970 F   0  0  0  0  0  0  0  0  0  0  0  0
  -21.4790   -3.7860   25.8640 F   0  0  0  0  0  0  0  0  0  0  0  0
  -22.7870  -13.6910   21.2280 C   0  0  0  0  0  0  0  0  0  0  0  0
  -22.1100  -12.9710   22.1150 N   0  0  0  0  0  0  0  0  0  0  0  0
  -22.3280  -14.7370   20.7700 O   0  0  0  0  0  0  0  0  0  0  0  0
  -22.4960  -12.1220   22.5010 H   0  0  0  0  0  0  0  0  0  0  0  0
  -21.1940  -13.2740   22.4130 H   0  0  0  0  0  0  0  0  0  0  0  0
  -25.3660  -15.3740   20.3040 N   0  0  0  0  0  0  0  0  0  0  0  0
  -24.6080  -16.0250   20.4800 H   0  0  0  0  0  0  0  0  0  0  0  0
  -26.1860  -15.8130   19.9090 H   0  0  0  0  0  0  0  0  0  0  0  0
  1 57  1  0
  1 12  1  0
  1  2  1  6
  3  5  1  0
  4  3  2  0
  6  4  1  0
  6  8  2  0
  7  5  2  0
  7  9  1  0
  8  7  1  0
 10  8  1  0
 10 11  1  0
 11  1  1  0
 11  9  1  0
 13 14  2  0
 14 15  1  0
 14 12  1  0
 16 15  1  0
 17 28  2  0
 18 16  1  0
 18 23  1  0
 19 27  1  0
 19 29  1  0
 20 26  1  0
 20 22  1  0
 21 27  1  0
 22 23  2  0
 22 21  1  0
 24 18  2  0
 25 24  1  0
 25 20  2  0
 26 19  1  0
 27 17  1  0
 29 31  2  0
 30 29  1  0
 32 30  1  0
 33 42  2  0
 33 38  1  0
 34 30  1  0
 34 38  1  0
 35 34  1  0
 36 37  1  0
 36 35  1  0
 37 33  1  0
 38 39  2  0
 39 40  1  0
 41 40  2  0
 42 41  1  0
 43 17  1  0
 43 44  1  0
 43 53  1  0
 44 47  1  0
 45 49  1  0
 45 44  1  0
 46 45  2  0
 49 48  1  0
 51 49  1  0
 51 52  1  0
 51 50  1  0
 53 56  1  1
 53 54  1  0
 55 53  1  0
 58 57  1  0
 59 58  1  0
 60 65  1  0
 61 62  1  0
 61 60  1  0
 63 62  1  0
 63 70  1  0
 63 64  1  0
 65 59  1  0
 65 64  1  0
 66 59  2  0
 67 68  2  0
 68 87  1  0
 69 68  1  0
 69 72  1  0
 70 71  1  0
 70 67  1  0
 71 69  2  0
 72 73  1  0
 73 74  2  0
 75 78  1  0
 75 74  1  0
 76 75  2  0
 77 76  1  0
 77 72  2  0
 78 79  1  0
 79 80  1  0
 80 81  2  0
 82 81  1  0
 82 86  1  0
 83 82  2  0
 84 79  2  0
 84 83  1  0
 85 84  1  0
 87 88  1  0
 88 91  1  0
 88 90  1  0
 89 87  2  0
 92 67  1  0
 92 93  1  0
 94 92  1  0
M  ISO  4  15 101  16 101  58 100  59 100
M  END
>  <TORSDO>  (83) 
F 22

>  <SCORE>  (83) 
-12.854

>  <name>  (83) 
84

>  <ligand_id>  (83) 
84

>  <original_smiles>  (83) 
[H]C([H])=C(C([H])([H])Oc1c([H])c([H])c2c(c1[H])C([H])([H])N(C(=O)C([H])(N([H])C(=O)C([H])(N([H])C([H])([H])[H])C([H])([H])[H])C(C([H])([H])[H])(C([H])([H])[H])C([H])([H])[H])C([H])(C(=O)N([H])C1([H])c3c([H])c([H])c([H])c([H])c3C([H])([H])C([H])([H])C1([H])[H])C2([H])[H])C([H])([H])[N+]([H])(C([H])([H])C([H])([H])C(=O)N1C([H])([H])C([H])([H])C([H])([H])C([H])(n2nc(-c3c([H])c([H])c(Oc4c([H])c([H])c(F)c([H])c4F)c([H])c3[H])c(C(=O)N([H])[H])c2N([H])[H])C1([H])[H])C1([H])C([H])([H])c2c([H])c([H])c([H])c([H])c2C1([H])[H]

>  <smiles>  (83) 
[H]C([H])=C(C([H])([H])Oc1c([H])c([H])c2c(c1[H])C([H])([H])N(C(=O)C([H])(N([H])C(=O)C([H])(N([H])C([H])([H])[H])C([H])([H])[H])C(C([H])([H])[H])(C([H])([H])[H])C([H])([H])[H])C([H])(C(=O)N([H])C1([H])c3c([H])c([H])c([H])c([H])c3C([H])([H])C([H])([H])C1([H])[H])C2([H])[H])C([H])([H])[N+]([H])(C([H])([H])C([H])([H])C(=O)N1C([H])([H])C([H])([H])C([H])([H])C([H])(n2nc(-c3c([H])c([H])c(Oc4c([H])c([H])c(F)c([H])c4F)c([H])c3[H])c(C(=O)N([H])[H])c2N([H])[H])C1([H])[H])C1([H])C([H])([H])c2c([H])c([H])c([H])c([H])c2C1([H])[H]

$$$$
85:0:0
     RDKit          3D

 92 99  0  0  1  0  0  0  0  0999 V2000
  -29.4430  -20.3210   20.6680 N   0  0  0  0  0  4  0  0  0  0  0  0
  -30.1330  -20.5010   19.9590 H   0  0  0  0  0  0  0  0  0  0  0  0
  -28.6050  -20.0620   20.1690 H   0  0  0  0  0  0  0  0  0  0  0  0
  -29.1050  -21.8030   21.3070 C   0  0  0  0  0  2  0  0  0  0  0  0
  -28.9710  -23.3730   20.4910 C   0  0  0  0  0  2  0  0  0  0  0  0
  -28.1260  -24.8830   20.8850 C   0  0  0  0  0  2  0  0  0  0  0  0
  -28.2870  -26.4320   20.4300 O   0  0  0  0  0  0  0  0  0  0  0  0
  -24.6350  -32.2500   23.4480 C   0  0  0  0  0  0  0  0  0  0  0  0
  -27.2320  -27.4620   20.4240 C   0  0  0  0  0  0  0  0  0  0  0  0
  -23.4360  -30.8300   21.8310 C   0  0  0  0  0  3  0  0  0  0  0  0
  -24.8910  -29.2540   20.3960 C   0  0  0  0  0  0  0  0  0  0  0  0
  -25.9910  -31.1050   21.6400 C   0  0  0  0  0  2  0  0  0  0  0  0
  -26.0790  -29.7000   20.9900 C   0  0  0  0  0  0  0  0  0  0  0  0
  -27.2470  -28.8260   20.9780 C   0  0  0  0  0  3  0  0  0  0  0  0
  -26.0140  -27.1500   19.7820 C   0  0  0  0  0  3  0  0  0  0  0  0
  -24.8780  -27.9970   19.7730 C   0  0  0  0  0  3  0  0  0  0  0  0
  -23.6530  -30.1450   20.4550 C   0  0  0  0  0  2  0  0  0  0  0  0
  -24.7080  -31.4210   22.3590 N   0  0  0  0  0  0  0  0  0  0  0  0
  -23.5490  -32.5220   23.9860 O   0  0  0  0  0  0  0  0  0  0  0  0
  -22.7780  -29.8210   22.8090 C   0  0  0  0  0  0  0  0  0  0  0  0
  -21.4810  -29.5240   22.6090 N   0  0  0  0  0  0  0  0  0  0  0  0
  -23.4430  -29.3050   23.7100 O   0  0  0  0  0  0  0  0  0  0  0  0
  -20.9980  -29.9910   21.8550 H   0  0  0  0  0  0  0  0  0  0  0  0
  -18.2270  -27.9550   22.8970 C   0  0  0  0  0  0  0  0  0  0  0  0
  -20.6950  -28.5570   23.3810 C   0  0  0  0  0  3  0  0  0  0  0  0
  -21.0230  -27.1090   22.9510 C   0  0  0  0  0  2  0  0  0  0  0  0
  -20.0800  -26.5720   21.8700 C   0  0  0  0  0  2  0  0  0  0  0  0
  -18.6310  -26.5920   22.3630 C   0  0  0  0  0  2  0  0  0  0  0  0
  -19.1970  -28.8840   23.3590 C   0  0  0  0  0  0  0  0  0  0  0  0
  -18.7690  -30.1510   23.8130 C   0  0  0  0  0  3  0  0  0  0  0  0
  -17.4040  -30.4930   23.8120 C   0  0  0  0  0  3  0  0  0  0  0  0
  -16.4460  -29.5630   23.3700 C   0  0  0  0  0  3  0  0  0  0  0  0
  -16.8580  -28.2970   22.9190 C   0  0  0  0  0  3  0  0  0  0  0  0
  -25.9080  -32.9100   24.0590 C   0  0  0  0  0  3  0  0  0  0  0  0
  -25.5980  -34.3230   24.3290 N   0  0  0  0  0  0  0  0  0  0  0  0
  -25.9790  -35.3520   23.5590 C   0  0  0  0  0  0  0  0  0  0  0  0
  -26.6910  -35.2100   22.5620 O   0  0  0  0  0  0  0  0  0  0  0  0
  -24.9720  -34.5100   25.0990 H   0  0  0  0  0  0  0  0  0  0  0  0
  -24.3080  -37.1680   23.0680 C   0  0  0  0  0  1  0  0  0  0  0  0
  -25.4950  -36.7620   23.9570 C   0  0  0  0  0  3  0  0  0  0  0  0
  -27.5910  -37.6340   24.8910 C   0  0  0  0  0  1  0  0  0  0  0  0
  -26.5520  -37.7940   23.8780 N   0  0  0  0  0  0  0  0  0  0  0  0
  -26.1550  -38.7250   23.9760 H   0  0  0  0  0  0  0  0  0  0  0  0
  -26.4030  -32.1980   25.3780 C   0  0  1  0  0  0  0  0  0  0  0  0
  -25.2860  -31.9780   26.4250 C   0  0  0  0  0  1  0  0  0  0  0  0
  -27.0220  -30.8170   25.0640 C   0  0  0  0  0  1  0  0  0  0  0  0
  -27.5200  -33.0390   26.0390 C   0  0  0  0  0  1  0  0  0  0  0  0
  -29.9890  -18.9340   21.3870 C   0  0  0  0  0  3  0  0  0  0  0  0
  -31.6350  -19.7400   23.1860 C   0  0  0  0  0  1  0  0  0  0  0  0
  -32.3300  -19.9350   20.7750 C   0  0  0  0  0  1  0  0  0  0  0  0
  -31.4800  -19.1360   21.7850 C   0  0  0  0  0  3  0  0  0  0  0  0
  -29.7030  -17.2390   20.8900 C   0  0  0  0  0  3  0  0  0  0  0  0
  -30.6140  -15.7390   20.9890 C   0  0  0  0  0  0  0  0  0  0  0  0
  -30.7540  -13.2980   20.1200 C   0  0  0  0  0  2  0  0  0  0  0  0
  -29.9460  -13.0470   18.8150 C   0  0  0  0  0  2  0  0  0  0  0  0
  -28.4640  -12.7650   19.1230 C   0  0  0  0  0  2  0  0  0  0  0  0
  -27.8940  -13.7090   20.2110 C   0  0  0  0  0  3  0  0  0  0  0  0
  -28.8380  -13.8860   21.4190 C   0  0  0  0  0  2  0  0  0  0  0  0
  -30.1170  -14.4100   20.9150 N   0  0  0  0  0  0  0  0  0  0  0  0
  -31.8510  -15.7750   20.9000 O   0  0  0  0  0  0  0  0  0  0  0  0
  -25.4710  -14.2160   20.8480 C   0  0  0  0  0  0  0  0  0  0  0  0
  -24.3940  -13.4110   21.0810 C   0  0  0  0  0  0  0  0  0  0  0  0
  -24.8750  -12.0680   20.9860 C   0  0  0  0  0  0  0  0  0  0  0  0
  -26.5370  -13.3640   20.6080 N   0  0  0  0  0  0  0  0  0  0  0  0
  -26.1850  -12.0620   20.7630 N   0  0  0  0  0  0  0  0  0  0  0  0
  -24.1510  -10.7950   21.0360 C   0  0  0  0  0  0  0  0  0  0  0  0
  -24.5450   -9.7600   21.9130 C   0  0  0  0  0  3  0  0  0  0  0  0
  -23.8230   -8.5470   21.9570 C   0  0  0  0  0  3  0  0  0  0  0  0
  -22.6950   -8.3640   21.1250 C   0  0  0  0  0  0  0  0  0  0  0  0
  -22.3180   -9.3880   20.2390 C   0  0  0  0  0  3  0  0  0  0  0  0
  -23.0380  -10.5920   20.1920 C   0  0  0  0  0  3  0  0  0  0  0  0
  -21.9490   -7.2090   21.0800 O   0  0  0  0  0  0  0  0  0  0  0  0
  -21.8220   -6.3940   22.1750 C   0  0  0  0  0  0  0  0  0  0  0  0
  -21.2730   -6.8560   23.3910 C   0  0  0  0  0  3  0  0  0  0  0  0
  -21.0990   -5.9640   24.4680 C   0  0  0  0  0  3  0  0  0  0  0  0
  -21.4600   -4.6110   24.3300 C   0  0  0  0  0  0  0  0  0  0  0  0
  -22.0020   -4.1480   23.1180 C   0  0  0  0  0  3  0  0  0  0  0  0
  -22.1790   -5.0370   22.0430 C   0  0  0  0  0  0  0  0  0  0  0  0
  -22.6840   -4.5810   20.8710 F   0  0  0  0  0  0  0  0  0  0  0  0
  -21.2860   -3.7530   25.3630 F   0  0  0  0  0  0  0  0  0  0  0  0
  -22.9770  -13.8600   21.2800 C   0  0  0  0  0  0  0  0  0  0  0  0
  -22.2030  -13.1130   22.0550 N   0  0  0  0  0  0  0  0  0  0  0  0
  -22.5640  -14.9080   20.7850 O   0  0  0  0  0  0  0  0  0  0  0  0
  -22.5560  -12.2730   22.4900 H   0  0  0  0  0  0  0  0  0  0  0  0
  -21.2430  -13.3870   22.2150 H   0  0  0  0  0  0  0  0  0  0  0  0
  -25.6220  -15.5960   20.7930 N   0  0  0  0  0  0  0  0  0  0  0  0
  -24.8210  -16.2070   20.9000 H   0  0  0  0  0  0  0  0  0  0  0  0
  -26.4800  -16.0900   20.5980 H   0  0  0  0  0  0  0  0  0  0  0  0
  -28.9510  -17.3030   19.5240 C   0  0  0  0  0  2  0  0  0  0  0  0
  -30.7430  -18.6740   18.3060 C   0  0  0  0  0  1  0  0  0  0  0  0
  -28.8030  -17.6730   17.0280 C   0  0  0  0  0  1  0  0  0  0  0  0
  -29.7580  -17.5070   18.2240 C   0  0  0  0  0  3  0  0  0  0  0  0
  1  4  1  0
  1 48  1  0
  2  1  1  0
  3  1  1  0
  5  6  1  0
  5  4  1  0
  7  6  1  0
  8 19  2  0
  9  7  1  0
  9 14  1  0
 10 18  1  0
 10 20  1  0
 11 17  1  0
 11 13  1  0
 12 18  1  0
 13 12  1  0
 14 13  2  0
 15  9  2  0
 16 15  1  0
 16 11  2  0
 17 10  1  0
 18  8  1  0
 20 22  2  0
 21 20  1  0
 23 21  1  0
 24 33  2  0
 24 29  1  0
 25 21  1  0
 26 25  1  0
 27 28  1  0
 27 26  1  0
 28 24  1  0
 29 25  1  0
 29 30  2  0
 31 30  1  0
 32 31  2  0
 33 32  1  0
 34  8  1  0
 34 35  1  0
 34 44  1  0
 35 38  1  0
 36 40  1  0
 36 35  1  0
 37 36  2  0
 40 39  1  0
 42 40  1  0
 42 43  1  0
 42 41  1  0
 44 47  1  1
 44 45  1  0
 46 44  1  0
 48 51  1  0
 50 51  1  0
 51 49  1  0
 52 89  1  0
 52 53  1  0
 52 48  1  0
 54 59  1  0
 55 56  1  0
 55 54  1  0
 57 56  1  0
 57 64  1  0
 57 58  1  0
 59 53  1  0
 59 58  1  0
 60 53  2  0
 61 62  2  0
 62 81  1  0
 63 66  1  0
 63 62  1  0
 64 65  1  0
 64 61  1  0
 65 63  2  0
 66 67  1  0
 67 68  2  0
 69 68  1  0
 70 69  2  0
 71 70  1  0
 71 66  2  0
 72 69  1  0
 72 73  1  0
 73 74  1  0
 74 75  2  0
 76 75  1  0
 76 80  1  0
 77 76  2  0
 78 73  2  0
 78 77  1  0
 79 78  1  0
 81 82  1  0
 82 85  1  0
 82 84  1  0
 83 81  2  0
 86 61  1  0
 86 87  1  0
 88 86  1  0
 91 92  1  0
 92 90  1  0
 92 89  1  0
M  ISO  4   6 101   7 101  52 100  53 100
M  END
>  <TORSDO>  (84) 
F 24

>  <SCORE>  (84) 
-12.344

>  <name>  (84) 
85

>  <ligand_id>  (84) 
85

>  <original_smiles>  (84) 
[H]c1c([H])c([H])c2c(c1[H])C([H])([H])C([H])([H])C([H])([H])C2([H])N([H])C(=O)C1([H])N(C(=O)C([H])(N([H])C(=O)C([H])(N([H])C([H])([H])[H])C([H])([H])[H])C(C([H])([H])[H])(C([H])([H])[H])C([H])([H])[H])C([H])([H])c2c([H])c(OC([H])([H])C([H])([H])C([H])([H])[N+]([H])([H])C([H])(C([H])(C(=O)N3C([H])([H])C([H])([H])C([H])([H])C([H])(n4nc(-c5c([H])c([H])c(Oc6c([H])c([H])c(F)c([H])c6F)c([H])c5[H])c(C(=O)N([H])[H])c4N([H])[H])C3([H])[H])C([H])([H])C([H])(C([H])([H])[H])C([H])([H])[H])C([H])(C([H])([H])[H])C([H])([H])[H])c([H])c([H])c2C1([H])[H]

>  <smiles>  (84) 
[H]c1c([H])c([H])c2c(c1[H])C([H])([H])C([H])([H])C([H])([H])C2([H])N([H])C(=O)C1([H])N(C(=O)C([H])(N([H])C(=O)C([H])(N([H])C([H])([H])[H])C([H])([H])[H])C(C([H])([H])[H])(C([H])([H])[H])C([H])([H])[H])C([H])([H])c2c([H])c(OC([H])([H])C([H])([H])C([H])([H])[N+]([H])([H])C([H])(C([H])(C(=O)N3C([H])([H])C([H])([H])C([H])([H])C([H])(n4nc(-c5c([H])c([H])c(Oc6c([H])c([H])c(F)c([H])c6F)c([H])c5[H])c(C(=O)N([H])[H])c4N([H])[H])C3([H])[H])C([H])([H])C([H])(C([H])([H])[H])C([H])([H])[H])C([H])(C([H])([H])[H])C([H])([H])[H])c([H])c([H])c2C1([H])[H]

$$$$
86:0:0
     RDKit          3D

 92101  0  0  1  0  0  0  0  0999 V2000
  -28.3740  -24.3790   19.7000 C   0  0  0  0  0  2  0  0  0  0  0  0
  -29.6970  -25.3610   21.5490 C   0  0  0  0  0  2  0  0  0  0  0  0
  -28.4120  -23.0370   20.4400 C   0  0  0  0  0  2  0  0  0  0  0  0
  -29.7470  -23.9670   22.2000 C   0  0  0  0  0  2  0  0  0  0  0  0
  -28.4210  -25.5230   20.7160 C   0  0  0  0  0  3  0  0  0  0  0  0
  -29.6710  -22.8960   21.1900 N   0  0  0  0  0  0  0  0  0  0  0  0
  -31.1080  -21.3110   22.4650 C   0  0  0  0  0  2  0  0  0  0  0  0
  -31.1810  -19.7860   22.5150 C   0  0  0  0  0  2  0  0  0  0  0  0
  -29.5090  -20.3850   20.9210 C   0  0  0  0  0  2  0  0  0  0  0  0
  -29.7240  -21.5880   21.8650 C   0  0  0  0  0  3  0  0  0  0  0  0
  -30.4520  -19.3190   21.3190 N   0  0  2  0  0  4  0  0  0  0  0  0
  -31.1190  -19.2720   20.5630 H   0  0  0  0  0  0  0  0  0  0  0  0
  -29.8210  -17.9850   21.4480 C   0  0  0  0  0  2  0  0  0  0  0  0
  -30.8310  -16.8410   21.2800 C   0  0  0  0  0  2  0  0  0  0  0  0
  -30.1540  -15.4570   21.3940 C   0  0  0  0  0  2  0  0  0  0  0  0
  -30.7480  -14.3720   20.4810 C   0  0  0  0  0  0  0  0  0  0  0  0
  -30.3910  -12.2900   19.2040 C   0  0  0  0  0  2  0  0  0  0  0  0
  -29.4450  -12.5550   18.0170 C   0  0  0  0  0  2  0  0  0  0  0  0
  -27.9700  -12.4340   18.4510 C   0  0  0  0  0  2  0  0  0  0  0  0
  -27.6570  -13.2440   19.7380 C   0  0  0  0  0  3  0  0  0  0  0  0
  -28.7090  -12.9510   20.8320 C   0  0  0  0  0  2  0  0  0  0  0  0
  -30.0410  -13.2340   20.2730 N   0  0  0  0  0  0  0  0  0  0  0  0
  -31.8240  -14.5940   19.9150 O   0  0  0  0  0  0  0  0  0  0  0  0
  -25.2570  -13.8820   20.4270 C   0  0  0  0  0  0  0  0  0  0  0  0
  -24.1810  -13.1210   20.8000 C   0  0  0  0  0  0  0  0  0  0  0  0
  -24.6320  -11.7650   20.7820 C   0  0  0  0  0  0  0  0  0  0  0  0
  -26.2970  -12.9900   20.2110 N   0  0  0  0  0  0  0  0  0  0  0  0
  -25.9230  -11.7130   20.4780 N   0  0  0  0  0  0  0  0  0  0  0  0
  -23.8960  -10.5100   20.9820 C   0  0  0  0  0  0  0  0  0  0  0  0
  -24.3280   -9.5420   21.9150 C   0  0  0  0  0  3  0  0  0  0  0  0
  -23.5950   -8.3500   22.1010 C   0  0  0  0  0  3  0  0  0  0  0  0
  -22.4150   -8.1190   21.3540 C   0  0  0  0  0  0  0  0  0  0  0  0
  -22.0020   -9.0770   20.4100 C   0  0  0  0  0  3  0  0  0  0  0  0
  -22.7370  -10.2600   20.2220 C   0  0  0  0  0  3  0  0  0  0  0  0
  -21.6520   -6.9800   21.4490 O   0  0  0  0  0  0  0  0  0  0  0  0
  -21.6100   -6.2370   22.6010 C   0  0  0  0  0  0  0  0  0  0  0  0
  -21.2150   -6.7980   23.8350 C   0  0  0  0  0  3  0  0  0  0  0  0
  -21.1190   -5.9820   24.9810 C   0  0  0  0  0  3  0  0  0  0  0  0
  -21.4050   -4.6070   24.8930 C   0  0  0  0  0  0  0  0  0  0  0  0
  -21.7930   -4.0450   23.6640 C   0  0  0  0  0  3  0  0  0  0  0  0
  -21.8920   -4.8580   22.5200 C   0  0  0  0  0  0  0  0  0  0  0  0
  -22.2460   -4.3080   21.3340 F   0  0  0  0  0  0  0  0  0  0  0  0
  -21.3050   -3.8220   25.9910 F   0  0  0  0  0  0  0  0  0  0  0  0
  -22.7860  -13.6110   21.0650 C   0  0  0  0  0  0  0  0  0  0  0  0
  -22.0520  -12.9280   21.9360 N   0  0  0  0  0  0  0  0  0  0  0  0
  -22.3560  -14.6340   20.5350 O   0  0  0  0  0  0  0  0  0  0  0  0
  -22.4100  -12.0980   22.3860 H   0  0  0  0  0  0  0  0  0  0  0  0
  -21.1160  -13.2380   22.1560 H   0  0  0  0  0  0  0  0  0  0  0  0
  -25.4330  -15.2490   20.2360 N   0  0  0  0  0  0  0  0  0  0  0  0
  -24.6710  -15.9110   20.3290 H   0  0  0  0  0  0  0  0  0  0  0  0
  -26.2890  -15.6720   19.8980 H   0  0  0  0  0  0  0  0  0  0  0  0
  -28.4470  -26.7950   20.0750 O   0  0  0  0  0  0  0  0  0  0  0  0
  -24.6230  -31.8820   23.2120 C   0  0  0  0  0  0  0  0  0  0  0  0
  -27.2610  -27.4830   20.1010 C   0  0  0  0  0  0  0  0  0  0  0  0
  -23.4050  -30.4760   21.5800 C   0  0  0  0  0  3  0  0  0  0  0  0
  -24.8510  -28.9460   20.1460 C   0  0  0  0  0  0  0  0  0  0  0  0
  -25.9240  -30.8540   21.3550 C   0  0  0  0  0  2  0  0  0  0  0  0
  -26.0100  -29.4860   20.7170 C   0  0  0  0  0  0  0  0  0  0  0  0
  -27.2200  -28.7620   20.6890 C   0  0  0  0  0  3  0  0  0  0  0  0
  -26.0860  -26.9450   19.5330 C   0  0  0  0  0  3  0  0  0  0  0  0
  -24.8800  -27.6720   19.5550 C   0  0  0  0  0  3  0  0  0  0  0  0
  -23.6030  -29.7960   20.2010 C   0  0  0  0  0  2  0  0  0  0  0  0
  -24.6690  -31.0850   22.1080 N   0  0  0  0  0  0  0  0  0  0  0  0
  -23.5470  -32.1510   23.7630 O   0  0  0  0  0  0  0  0  0  0  0  0
  -22.7680  -29.4520   22.5470 C   0  0  0  0  0  0  0  0  0  0  0  0
  -21.4430  -29.2700   22.4340 N   0  0  0  0  0  0  0  0  0  0  0  0
  -23.4630  -28.8240   23.3500 O   0  0  0  0  0  0  0  0  0  0  0  0
  -20.9450  -29.8290   21.7550 H   0  0  0  0  0  0  0  0  0  0  0  0
  -18.0750  -28.0750   22.9570 C   0  0  0  0  0  0  0  0  0  0  0  0
  -20.6340  -28.3320   23.2100 C   0  0  0  0  0  3  0  0  0  0  0  0
  -20.7330  -26.9010   22.6340 C   0  0  0  0  0  2  0  0  0  0  0  0
  -19.6230  -26.5790   21.6270 C   0  0  0  0  0  2  0  0  0  0  0  0
  -18.2460  -26.7250   22.2810 C   0  0  0  0  0  2  0  0  0  0  0  0
  -19.1970  -28.8370   23.3790 C   0  0  0  0  0  0  0  0  0  0  0  0
  -18.9840  -30.1010   23.9700 C   0  0  0  0  0  3  0  0  0  0  0  0
  -17.6810  -30.6050   24.1440 C   0  0  0  0  0  3  0  0  0  0  0  0
  -16.5730  -29.8390   23.7400 C   0  0  0  0  0  3  0  0  0  0  0  0
  -16.7710  -28.5770   23.1520 C   0  0  0  0  0  3  0  0  0  0  0  0
  -25.9140  -32.5150   23.8190 C   0  0  0  0  0  3  0  0  0  0  0  0
  -26.4590  -31.7330   25.0770 C   0  0  1  0  0  0  0  0  0  0  0  0
  -25.3850  -31.4760   26.1610 C   0  0  0  0  0  1  0  0  0  0  0  0
  -27.0440  -30.3660   24.6550 C   0  0  0  0  0  1  0  0  0  0  0  0
  -27.6150  -32.5280   25.7270 C   0  0  0  0  0  1  0  0  0  0  0  0
  -25.6030  -33.9080   24.1660 N   0  0  0  0  0  0  0  0  0  0  0  0
  -25.9220  -34.9680   23.4110 C   0  0  0  0  0  0  0  0  0  0  0  0
  -26.5820  -34.8770   22.3720 O   0  0  0  0  0  0  0  0  0  0  0  0
  -25.0170  -34.0530   24.9760 H   0  0  0  0  0  0  0  0  0  0  0  0
  -24.1790  -36.7510   23.0860 C   0  0  0  0  0  1  0  0  0  0  0  0
  -25.4300  -36.3490   23.8850 C   0  0  0  0  0  3  0  0  0  0  0  0
  -27.5680  -37.2350   24.7050 C   0  0  0  0  0  1  0  0  0  0  0  0
  -26.4560  -37.4080   23.7740 N   0  0  0  0  0  0  0  0  0  0  0  0
  -26.0460  -38.3250   23.9360 H   0  0  0  0  0  0  0  0  0  0  0  0
  1  3  1  0
  1  5  1  0
  2  4  1  0
  5 52  1  0
  5  2  1  0
  6  3  1  0
  6 10  1  0
  6  4  1  0
  7  8  1  0
  9 11  1  0
 10  9  1  0
 10  7  1  0
 11 13  1  0
 11  8  1  0
 11 12  1  6
 14 15  1  0
 14 13  1  0
 16 15  1  0
 17 22  1  0
 18 19  1  0
 18 17  1  0
 20 19  1  0
 20 27  1  0
 20 21  1  0
 22 16  1  0
 22 21  1  0
 23 16  2  0
 24 25  2  0
 25 44  1  0
 26 25  1  0
 26 29  1  0
 27 24  1  0
 27 28  1  0
 28 26  2  0
 29 30  1  0
 30 31  2  0
 32 35  1  0
 32 31  1  0
 33 32  2  0
 34 33  1  0
 34 29  2  0
 35 36  1  0
 36 37  1  0
 37 38  2  0
 39 38  1  0
 39 43  1  0
 40 39  2  0
 41 36  2  0
 41 40  1  0
 42 41  1  0
 44 45  1  0
 45 48  1  0
 45 47  1  0
 46 44  2  0
 49 50  1  0
 49 24  1  0
 51 49  1  0
 52 54  1  0
 53 64  2  0
 54 59  1  0
 55 63  1  0
 55 65  1  0
 56 62  1  0
 56 58  1  0
 57 63  1  0
 58 57  1  0
 59 58  2  0
 60 61  1  0
 60 54  2  0
 61 56  2  0
 62 55  1  0
 63 53  1  0
 65 67  2  0
 66 65  1  0
 68 66  1  0
 69 78  2  0
 69 74  1  0
 70 66  1  0
 70 74  1  0
 71 70  1  0
 72 73  1  0
 72 71  1  0
 73 69  1  0
 74 75  2  0
 75 76  1  0
 77 76  2  0
 78 77  1  0
 79 53  1  0
 79 84  1  0
 79 80  1  0
 80 83  1  1
 80 81  1  0
 82 80  1  0
 84 87  1  0
 85 89  1  0
 85 84  1  0
 86 85  2  0
 89 88  1  0
 91 89  1  0
 91 92  1  0
 91 90  1  0
M  ISO  4   5 101  15 100  16 100  52 101
M  END
>  <TORSDO>  (85) 
F 20

>  <SCORE>  (85) 
-14.106

>  <name>  (85) 
86

>  <ligand_id>  (85) 
86

>  <original_smiles>  (85) 
[H]c1c([H])c([H])c2c(c1[H])C([H])([H])C([H])([H])C([H])([H])C2([H])N([H])C(=O)C1([H])N(C(=O)C([H])(N([H])C(=O)C([H])(N([H])C([H])([H])[H])C([H])([H])[H])C(C([H])([H])[H])(C([H])([H])[H])C([H])([H])[H])C([H])([H])c2c([H])c(OC3([H])C([H])([H])C([H])([H])N(C4([H])C([H])([H])C([H])([H])[N+]([H])(C([H])([H])C([H])([H])C([H])([H])C(=O)N5C([H])([H])C([H])([H])C([H])([H])C([H])(n6nc(-c7c([H])c([H])c(Oc8c([H])c([H])c(F)c([H])c8F)c([H])c7[H])c(C(=O)N([H])[H])c6N([H])[H])C5([H])[H])C4([H])[H])C([H])([H])C3([H])[H])c([H])c([H])c2C1([H])[H]

>  <smiles>  (85) 
[H]c1c([H])c([H])c2c(c1[H])C([H])([H])C([H])([H])C([H])([H])C2([H])N([H])C(=O)C1([H])N(C(=O)C([H])(N([H])C(=O)C([H])(N([H])C([H])([H])[H])C([H])([H])[H])C(C([H])([H])[H])(C([H])([H])[H])C([H])([H])[H])C([H])([H])c2c([H])c(OC3([H])C([H])([H])C([H])([H])N(C4([H])C([H])([H])C([H])([H])[N+]([H])(C([H])([H])C([H])([H])C([H])([H])C(=O)N5C([H])([H])C([H])([H])C([H])([H])C([H])(n6nc(-c7c([H])c([H])c(Oc8c([H])c([H])c(F)c([H])c8F)c([H])c7[H])c(C(=O)N([H])[H])c6N([H])[H])C5([H])[H])C4([H])[H])C([H])([H])C3([H])[H])c([H])c([H])c2C1([H])[H]

$$$$
87:0:0
     RDKit          3D

 91100  0  0  1  0  0  0  0  0999 V2000
  -29.0720  -16.3640   18.5960 C   0  0  0  0  0  3  0  0  0  0  0  0
  -28.3460  -17.1680   17.7130 C   0  0  0  0  0  3  0  0  0  0  0  0
  -29.8460  -16.8080   19.6940 C   0  0  0  0  0  0  0  0  0  0  0  0
  -29.8070  -18.3600   19.8250 C   0  0  0  0  0  0  0  0  0  0  0  0
  -29.1030  -19.1860   18.8410 C   0  0  0  0  0  0  0  0  0  0  0  0
  -28.3800  -18.5510   17.8190 C   0  0  0  0  0  0  0  0  0  0  0  0
  -29.7890  -20.9140   20.9970 C   0  0  0  0  0  0  0  0  0  0  0  0
  -29.4710  -21.4040   22.2040 C   0  0  0  0  0  2  0  0  0  0  0  0
  -30.3900  -19.3970   20.8730 C   0  0  0  0  0  2  0  0  0  0  0  0
  -29.0270  -20.7830   18.7070 C   0  0  0  0  0  2  0  0  0  0  0  0
  -29.6000  -21.8510   19.7310 C   0  0  0  0  0  3  0  0  0  0  0  0
  -27.7080  -19.2880   16.8980 F   0  0  0  0  0  0  0  0  0  0  0  0
  -30.6740  -15.5030   20.2900 C   0  0  0  0  0  0  0  0  0  0  0  0
  -30.7220  -13.0520   19.5080 C   0  0  0  0  0  2  0  0  0  0  0  0
  -29.8250  -12.7850   18.2710 C   0  0  0  0  0  2  0  0  0  0  0  0
  -28.3450  -12.5830   18.6730 C   0  0  0  0  0  2  0  0  0  0  0  0
  -27.8650  -13.5450   19.7930 C   0  0  0  0  0  3  0  0  0  0  0  0
  -28.9010  -13.7200   20.9170 C   0  0  0  0  0  2  0  0  0  0  0  0
  -30.1510  -14.1880   20.3000 N   0  0  0  0  0  0  0  0  0  0  0  0
  -31.9100  -15.5560   20.2760 O   0  0  0  0  0  0  0  0  0  0  0  0
  -25.4850  -14.0750   20.5510 C   0  0  0  0  0  0  0  0  0  0  0  0
  -24.4310  -13.2790   20.9010 C   0  0  0  0  0  0  0  0  0  0  0  0
  -24.9200  -11.9360   20.8600 C   0  0  0  0  0  0  0  0  0  0  0  0
  -26.5410  -13.2140   20.3010 N   0  0  0  0  0  0  0  0  0  0  0  0
  -26.2130  -11.9240   20.5600 N   0  0  0  0  0  0  0  0  0  0  0  0
  -24.2140  -10.6610   21.0300 C   0  0  0  0  0  0  0  0  0  0  0  0
  -24.6260   -9.7090   21.9880 C   0  0  0  0  0  3  0  0  0  0  0  0
  -23.9190   -8.4980   22.1460 C   0  0  0  0  0  3  0  0  0  0  0  0
  -22.7860   -8.2290   21.3430 C   0  0  0  0  0  0  0  0  0  0  0  0
  -22.3930   -9.1690   20.3750 C   0  0  0  0  0  3  0  0  0  0  0  0
  -23.1020  -10.3710   20.2160 C   0  0  0  0  0  3  0  0  0  0  0  0
  -22.0550   -7.0680   21.4090 O   0  0  0  0  0  0  0  0  0  0  0  0
  -21.9260   -6.3640   22.5790 C   0  0  0  0  0  0  0  0  0  0  0  0
  -21.3750   -6.9440   23.7430 C   0  0  0  0  0  3  0  0  0  0  0  0
  -21.1930   -6.1620   24.9020 C   0  0  0  0  0  3  0  0  0  0  0  0
  -21.5580   -4.8020   24.8990 C   0  0  0  0  0  0  0  0  0  0  0  0
  -22.1040   -4.2230   23.7400 C   0  0  0  0  0  3  0  0  0  0  0  0
  -22.2830   -5.0000   22.5840 C   0  0  0  0  0  0  0  0  0  0  0  0
  -22.7880   -4.4300   21.4620 F   0  0  0  0  0  0  0  0  0  0  0  0
  -21.3800   -4.0490   26.0090 F   0  0  0  0  0  0  0  0  0  0  0  0
  -23.0230  -13.7280   21.1600 C   0  0  0  0  0  0  0  0  0  0  0  0
  -22.2970  -13.0150   22.0150 N   0  0  0  0  0  0  0  0  0  0  0  0
  -22.5690  -14.7470   20.6370 O   0  0  0  0  0  0  0  0  0  0  0  0
  -22.6730  -12.1920   22.4620 H   0  0  0  0  0  0  0  0  0  0  0  0
  -21.3520  -13.3010   22.2280 H   0  0  0  0  0  0  0  0  0  0  0  0
  -25.6310  -15.4520   20.3890 N   0  0  0  0  0  0  0  0  0  0  0  0
  -24.8610  -16.1010   20.5070 H   0  0  0  0  0  0  0  0  0  0  0  0
  -26.4850  -15.9040   20.0890 H   0  0  0  0  0  0  0  0  0  0  0  0
  -28.8140  -23.4190   19.6040 C   0  0  0  0  0  2  0  0  0  0  0  0
  -28.9260  -24.9700   20.3580 C   0  0  0  0  0  2  0  0  0  0  0  0
  -28.7560  -26.4760   19.8540 O   0  0  0  0  0  0  0  0  0  0  0  0
  -24.7440  -31.8150   23.2040 C   0  0  0  0  0  0  0  0  0  0  0  0
  -27.6120  -27.3760   19.9560 C   0  0  0  0  0  0  0  0  0  0  0  0
  -23.6440  -30.4640   21.4600 C   0  0  0  0  0  3  0  0  0  0  0  0
  -25.1960  -29.0340   19.9790 C   0  0  0  0  0  0  0  0  0  0  0  0
  -26.1880  -30.8520   21.3620 C   0  0  0  0  0  2  0  0  0  0  0  0
  -26.3440  -29.4980   20.6320 C   0  0  0  0  0  0  0  0  0  0  0  0
  -27.5530  -28.6930   20.5910 C   0  0  0  0  0  3  0  0  0  0  0  0
  -26.4250  -27.0180   19.2830 C   0  0  0  0  0  3  0  0  0  0  0  0
  -25.2520  -27.8110   19.2890 C   0  0  0  0  0  3  0  0  0  0  0  0
  -23.9280  -29.8770   20.0500 C   0  0  0  0  0  2  0  0  0  0  0  0
  -24.8770  -31.0660   22.0650 N   0  0  0  0  0  0  0  0  0  0  0  0
  -23.6350  -32.0130   23.7270 O   0  0  0  0  0  0  0  0  0  0  0  0
  -22.9980  -29.3720   22.3500 C   0  0  0  0  0  0  0  0  0  0  0  0
  -21.6790  -29.1530   22.1960 N   0  0  0  0  0  0  0  0  0  0  0  0
  -23.6880  -28.7240   23.1400 O   0  0  0  0  0  0  0  0  0  0  0  0
  -21.1760  -29.7300   21.5370 H   0  0  0  0  0  0  0  0  0  0  0  0
  -18.3500  -27.7760   22.5860 C   0  0  0  0  0  0  0  0  0  0  0  0
  -20.8930  -28.1320   22.8950 C   0  0  0  0  0  3  0  0  0  0  0  0
  -21.0610  -26.7470   22.2260 C   0  0  0  0  0  2  0  0  0  0  0  0
  -19.9800  -26.4460   21.1820 C   0  0  0  0  0  2  0  0  0  0  0  0
  -18.5910  -26.4860   21.8200 C   0  0  0  0  0  2  0  0  0  0  0  0
  -19.4300  -28.5570   23.0770 C   0  0  0  0  0  0  0  0  0  0  0  0
  -19.1500  -29.7620   23.7560 C   0  0  0  0  0  3  0  0  0  0  0  0
  -17.8230  -30.1890   23.9480 C   0  0  0  0  0  3  0  0  0  0  0  0
  -16.7570  -29.4060   23.4720 C   0  0  0  0  0  3  0  0  0  0  0  0
  -17.0210  -28.2010   22.7980 C   0  0  0  0  0  3  0  0  0  0  0  0
  -25.9750  -32.4750   23.8960 C   0  0  0  0  0  3  0  0  0  0  0  0
  -25.5870  -33.8380   24.2980 N   0  0  0  0  0  0  0  0  0  0  0  0
  -25.8820  -34.9510   23.6150 C   0  0  0  0  0  0  0  0  0  0  0  0
  -26.5740  -34.9450   22.5940 O   0  0  0  0  0  0  0  0  0  0  0  0
  -24.9720  -33.9130   25.0950 H   0  0  0  0  0  0  0  0  0  0  0  0
  -24.0740  -36.6830   23.3500 C   0  0  0  0  0  1  0  0  0  0  0  0
  -25.3240  -36.2860   24.1500 C   0  0  0  0  0  3  0  0  0  0  0  0
  -27.4020  -37.2250   25.0630 C   0  0  0  0  0  1  0  0  0  0  0  0
  -26.3050  -37.3930   24.1140 N   0  0  0  0  0  0  0  0  0  0  0  0
  -25.8520  -38.2830   24.3100 H   0  0  0  0  0  0  0  0  0  0  0  0
  -26.4940  -31.6630   25.1460 C   0  0  1  0  0  0  0  0  0  0  0  0
  -25.3890  -31.3310   26.1770 C   0  0  0  0  0  1  0  0  0  0  0  0
  -27.1440  -30.3300   24.7090 C   0  0  0  0  0  1  0  0  0  0  0  0
  -27.5940  -32.4710   25.8760 C   0  0  0  0  0  1  0  0  0  0  0  0
  1  3  1  0
  2  6  1  0
  2  1  2  0
  3  4  2  0
  3 13  1  0
  4  9  1  0
  5  4  1  0
  6  5  2  0
  7  8  2  0
  9  7  1  0
 10  5  1  0
 10 11  1  0
 11 49  1  0
 11  7  1  0
 12  6  1  0
 13 19  1  0
 14 19  1  0
 15 16  1  0
 15 14  1  0
 17 16  1  0
 17 24  1  0
 17 18  1  0
 19 18  1  0
 20 13  2  0
 21 22  2  0
 22 41  1  0
 23 22  1  0
 23 26  1  0
 24 21  1  0
 24 25  1  0
 25 23  2  0
 26 27  1  0
 27 28  2  0
 29 32  1  0
 29 28  1  0
 30 29  2  0
 31 30  1  0
 31 26  2  0
 32 33  1  0
 33 38  2  0
 33 34  1  0
 34 35  2  0
 36 35  1  0
 36 40  1  0
 37 36  2  0
 38 37  1  0
 39 38  1  0
 41 42  1  0
 42 45  1  0
 42 44  1  0
 43 41  2  0
 46 47  1  0
 46 21  1  0
 48 46  1  0
 49 50  1  0
 51 53  1  0
 51 50  1  0
 52 63  2  0
 53 58  1  0
 54 62  1  0
 54 64  1  0
 55 61  1  0
 55 57  1  0
 56 62  1  0
 57 56  1  0
 58 57  2  0
 59 60  1  0
 59 53  2  0
 60 55  2  0
 61 54  1  0
 62 52  1  0
 64 66  2  0
 65 64  1  0
 67 65  1  0
 68 77  2  0
 68 73  1  0
 69 65  1  0
 69 73  1  0
 70 69  1  0
 71 72  1  0
 71 70  1  0
 72 68  1  0
 73 74  2  0
 74 75  1  0
 76 75  2  0
 77 76  1  0
 78 52  1  0
 78 79  1  0
 78 88  1  0
 79 82  1  0
 80 84  1  0
 80 79  1  0
 81 80  2  0
 84 83  1  0
 86 84  1  0
 86 87  1  0
 86 85  1  0
 88 91  1  1
 88 89  1  0
 90 88  1  0
M  ISO  4   3 100  13 100  50 101  51 101
M  END
>  <TORSDO>  (86) 
F 18

>  <SCORE>  (86) 
-14.245

>  <name>  (86) 
87

>  <ligand_id>  (86) 
87

>  <original_smiles>  (86) 
[H]C([H])=C1C([H])([H])c2c(C(=O)N3C([H])([H])C([H])([H])C([H])([H])C([H])(n4nc(-c5c([H])c([H])c(Oc6c([H])c([H])c(F)c([H])c6F)c([H])c5[H])c(C(=O)N([H])[H])c4N([H])[H])C3([H])[H])c([H])c([H])c(F)c2C([H])([H])C1([H])C([H])([H])C([H])([H])Oc1c([H])c([H])c2c(c1[H])C([H])([H])N(C(=O)C([H])(N([H])C(=O)C([H])(N([H])C([H])([H])[H])C([H])([H])[H])C(C([H])([H])[H])(C([H])([H])[H])C([H])([H])[H])C([H])(C(=O)N([H])C1([H])c3c([H])c([H])c([H])c([H])c3C([H])([H])C([H])([H])C1([H])[H])C2([H])[H]

>  <smiles>  (86) 
[H]C([H])=C1C([H])([H])c2c(C(=O)N3C([H])([H])C([H])([H])C([H])([H])C([H])(n4nc(-c5c([H])c([H])c(Oc6c([H])c([H])c(F)c([H])c6F)c([H])c5[H])c(C(=O)N([H])[H])c4N([H])[H])C3([H])[H])c([H])c([H])c(F)c2C([H])([H])C1([H])C([H])([H])C([H])([H])Oc1c([H])c([H])c2c(c1[H])C([H])([H])N(C(=O)C([H])(N([H])C(=O)C([H])(N([H])C([H])([H])[H])C([H])([H])[H])C(C([H])([H])[H])(C([H])([H])[H])C([H])([H])[H])C([H])(C(=O)N([H])C1([H])c3c([H])c([H])c([H])c([H])c3C([H])([H])C([H])([H])C1([H])[H])C2([H])[H]

$$$$
88:0:0
     RDKit          3D

 88 95  0  0  1  0  0  0  0  0999 V2000
  -28.4950  -21.8300   20.2280 C   0  0  0  0  0  2  0  0  0  0  0  0
  -29.0940  -19.1870   20.3830 C   0  0  0  0  0  0  0  0  0  0  0  0
  -29.4200  -20.5640   20.3340 N   0  0  0  0  0  0  0  0  0  0  0  0
  -27.9040  -18.8790   20.4420 O   0  0  0  0  0  0  0  0  0  0  0  0
  -30.4140  -20.7570   20.2980 H   0  0  0  0  0  0  0  0  0  0  0  0
  -30.7640  -17.9810   18.9090 C   0  0  0  0  0  1  0  0  0  0  0  0
  -31.2750  -18.2520   21.3530 C   0  0  0  0  0  1  0  0  0  0  0  0
  -30.1650  -17.9310   20.3310 C   0  0  1  0  0  0  0  0  0  0  0  0
  -29.6580  -16.3470   20.6120 C   0  0  0  0  0  2  0  0  0  0  0  0
  -30.5030  -14.9500   20.3340 C   0  0  0  0  0  0  0  0  0  0  0  0
  -30.3780  -12.6200   19.3530 C   0  0  0  0  0  2  0  0  0  0  0  0
  -29.4360  -12.6390   18.1270 C   0  0  0  0  0  2  0  0  0  0  0  0
  -27.9690  -12.4370   18.5570 C   0  0  0  0  0  2  0  0  0  0  0  0
  -27.5800  -13.3310   19.7630 C   0  0  0  0  0  3  0  0  0  0  0  0
  -28.6420  -13.2930   20.8810 C   0  0  0  0  0  2  0  0  0  0  0  0
  -29.9270  -13.6840   20.2900 N   0  0  0  0  0  0  0  0  0  0  0  0
  -31.6950  -15.0230   20.0140 O   0  0  0  0  0  0  0  0  0  0  0  0
  -25.2020  -13.9060   20.5200 C   0  0  0  0  0  0  0  0  0  0  0  0
  -24.1380  -13.1290   20.8890 C   0  0  0  0  0  0  0  0  0  0  0  0
  -24.6030  -11.7780   20.8430 C   0  0  0  0  0  0  0  0  0  0  0  0
  -26.2430  -13.0300   20.2650 N   0  0  0  0  0  0  0  0  0  0  0  0
  -25.8920  -11.7440   20.5250 N   0  0  0  0  0  0  0  0  0  0  0  0
  -23.8750  -10.5140   21.0250 C   0  0  0  0  0  0  0  0  0  0  0  0
  -24.2990   -9.5470   21.9630 C   0  0  0  0  0  3  0  0  0  0  0  0
  -23.5710   -8.3490   22.1340 C   0  0  0  0  0  3  0  0  0  0  0  0
  -22.4060   -8.1110   21.3670 C   0  0  0  0  0  0  0  0  0  0  0  0
  -22.0020   -9.0680   20.4190 C   0  0  0  0  0  3  0  0  0  0  0  0
  -22.7300  -10.2570   20.2460 C   0  0  0  0  0  3  0  0  0  0  0  0
  -21.6520   -6.9650   21.4450 O   0  0  0  0  0  0  0  0  0  0  0  0
  -21.5730   -6.2340   22.6020 C   0  0  0  0  0  0  0  0  0  0  0  0
  -21.0960   -6.7940   23.8080 C   0  0  0  0  0  3  0  0  0  0  0  0
  -20.9660   -5.9880   24.9560 C   0  0  0  0  0  3  0  0  0  0  0  0
  -21.3020   -4.6220   24.9010 C   0  0  0  0  0  0  0  0  0  0  0  0
  -21.7720   -4.0610   23.7000 C   0  0  0  0  0  3  0  0  0  0  0  0
  -21.9040   -4.8640   22.5540 C   0  0  0  0  0  0  0  0  0  0  0  0
  -22.3360   -4.3130   21.3940 F   0  0  0  0  0  0  0  0  0  0  0  0
  -21.1700   -3.8460   26.0010 F   0  0  0  0  0  0  0  0  0  0  0  0
  -22.7430  -13.6040   21.1700 C   0  0  0  0  0  0  0  0  0  0  0  0
  -22.0210  -12.9050   22.0380 N   0  0  0  0  0  0  0  0  0  0  0  0
  -22.3020  -14.6310   20.6560 O   0  0  0  0  0  0  0  0  0  0  0  0
  -22.3910  -12.0750   22.4770 H   0  0  0  0  0  0  0  0  0  0  0  0
  -21.0840  -13.2050   22.2680 H   0  0  0  0  0  0  0  0  0  0  0  0
  -25.3650  -15.2790   20.3580 N   0  0  0  0  0  0  0  0  0  0  0  0
  -24.6020  -15.9340   20.4970 H   0  0  0  0  0  0  0  0  0  0  0  0
  -26.2200  -15.7300   20.0550 H   0  0  0  0  0  0  0  0  0  0  0  0
  -28.9860  -23.4290   20.3430 C   0  0  0  0  0  3  0  0  0  0  0  0
  -27.9540  -24.7270   20.1080 C   0  0  0  0  0  3  0  0  0  0  0  0
  -28.2430  -26.2420   20.2620 O   0  0  0  0  0  0  0  0  0  0  0  0
  -24.6170  -31.8960   23.2520 C   0  0  0  0  0  0  0  0  0  0  0  0
  -27.1780  -27.2090   20.2010 C   0  0  0  0  0  0  0  0  0  0  0  0
  -23.4070  -30.5080   21.6140 C   0  0  0  0  0  3  0  0  0  0  0  0
  -24.8480  -28.9380   20.1810 C   0  0  0  0  0  0  0  0  0  0  0  0
  -25.9590  -30.7760   21.4380 C   0  0  0  0  0  2  0  0  0  0  0  0
  -26.0290  -29.3880   20.7840 C   0  0  0  0  0  0  0  0  0  0  0  0
  -27.1960  -28.5390   20.7760 C   0  0  0  0  0  3  0  0  0  0  0  0
  -25.9690  -26.8540   19.5620 C   0  0  0  0  0  3  0  0  0  0  0  0
  -24.8280  -27.6840   19.5550 C   0  0  0  0  0  3  0  0  0  0  0  0
  -23.6210  -29.8340   20.2330 C   0  0  0  0  0  2  0  0  0  0  0  0
  -24.6820  -31.0800   22.1560 N   0  0  0  0  0  0  0  0  0  0  0  0
  -23.5340  -32.1820   23.7840 O   0  0  0  0  0  0  0  0  0  0  0  0
  -22.7320  -29.4990   22.5760 C   0  0  0  0  0  0  0  0  0  0  0  0
  -21.4030  -29.3290   22.4500 N   0  0  0  0  0  0  0  0  0  0  0  0
  -23.4040  -28.8710   23.3980 O   0  0  0  0  0  0  0  0  0  0  0  0
  -20.9180  -29.8870   21.7600 H   0  0  0  0  0  0  0  0  0  0  0  0
  -18.0200  -28.1380   22.9550 C   0  0  0  0  0  0  0  0  0  0  0  0
  -20.5800  -28.3940   23.2210 C   0  0  0  0  0  3  0  0  0  0  0  0
  -20.6780  -26.9620   22.6460 C   0  0  0  0  0  2  0  0  0  0  0  0
  -19.5740  -26.6410   21.6320 C   0  0  0  0  0  2  0  0  0  0  0  0
  -18.1940  -26.7880   22.2770 C   0  0  0  0  0  2  0  0  0  0  0  0
  -19.1410  -28.8990   23.3830 C   0  0  0  0  0  0  0  0  0  0  0  0
  -18.9230  -30.1600   23.9780 C   0  0  0  0  0  3  0  0  0  0  0  0
  -17.6190  -30.6620   24.1480 C   0  0  0  0  0  3  0  0  0  0  0  0
  -16.5130  -29.8990   23.7340 C   0  0  0  0  0  3  0  0  0  0  0  0
  -16.7150  -28.6390   23.1440 C   0  0  0  0  0  3  0  0  0  0  0  0
  -25.9000  -32.5270   23.8760 C   0  0  0  0  0  3  0  0  0  0  0  0
  -25.5930  -33.9270   24.2080 N   0  0  0  0  0  0  0  0  0  0  0  0
  -25.9020  -34.9800   23.4400 C   0  0  0  0  0  0  0  0  0  0  0  0
  -26.5430  -34.8750   22.3900 O   0  0  0  0  0  0  0  0  0  0  0  0
  -25.0210  -34.0820   25.0260 H   0  0  0  0  0  0  0  0  0  0  0  0
  -24.1490  -36.7640   23.1500 C   0  0  0  0  0  1  0  0  0  0  0  0
  -25.4270  -36.3700   23.9090 C   0  0  0  0  0  3  0  0  0  0  0  0
  -27.5900  -37.2770   24.6400 C   0  0  0  0  0  1  0  0  0  0  0  0
  -26.4480  -37.4280   23.7420 N   0  0  0  0  0  0  0  0  0  0  0  0
  -26.0430  -38.3470   23.8960 H   0  0  0  0  0  0  0  0  0  0  0  0
  -26.4080  -31.7550   25.1560 C   0  0  1  0  0  0  0  0  0  0  0  0
  -25.3120  -31.5260   26.2220 C   0  0  0  0  0  1  0  0  0  0  0  0
  -26.9860  -30.3740   24.7710 C   0  0  0  0  0  1  0  0  0  0  0  0
  -27.5620  -32.5450   25.8190 C   0  0  0  0  0  1  0  0  0  0  0  0
  1  3  1  0
  1 46  1  0
  2  4  2  0
  3  2  1  0
  5  3  1  0
  8  6  1  6
  8  2  1  0
  8  9  1  0
  8  7  1  0
 10  9  1  0
 11 16  1  0
 12 13  1  0
 12 11  1  0
 14 13  1  0
 14 21  1  0
 14 15  1  0
 16 10  1  0
 16 15  1  0
 17 10  2  0
 18 19  2  0
 19 38  1  0
 20 19  1  0
 20 23  1  0
 21 18  1  0
 21 22  1  0
 22 20  2  0
 23 24  1  0
 24 25  2  0
 26 29  1  0
 26 25  1  0
 27 26  2  0
 28 27  1  0
 28 23  2  0
 29 30  1  0
 30 31  1  0
 31 32  2  0
 33 32  1  0
 33 37  1  0
 34 33  2  0
 35 30  2  0
 35 34  1  0
 36 35  1  0
 38 39  1  0
 39 42  1  0
 39 41  1  0
 40 38  2  0
 43 44  1  0
 43 18  1  0
 45 43  1  0
 47 48  1  0
 47 46  2  0
 49 60  2  0
 50 48  1  0
 50 55  1  0
 51 59  1  0
 51 61  1  0
 52 58  1  0
 52 54  1  0
 53 59  1  0
 54 53  1  0
 55 54  2  0
 56 50  2  0
 57 56  1  0
 57 52  2  0
 58 51  1  0
 59 49  1  0
 61 63  2  0
 62 61  1  0
 64 62  1  0
 65 74  2  0
 65 70  1  0
 66 62  1  0
 66 70  1  0
 67 66  1  0
 68 69  1  0
 68 67  1  0
 69 65  1  0
 70 71  2  0
 71 72  1  0
 73 72  2  0
 74 73  1  0
 75 49  1  0
 75 76  1  0
 75 85  1  0
 76 79  1  0
 77 81  1  0
 77 76  1  0
 78 77  2  0
 81 80  1  0
 83 84  1  0
 83 81  1  0
 83 82  1  0
 85 88  1  1
 85 86  1  0
 87 85  1  0
M  ISO  4   9 100  10 100  47 101  48 101
M  END
>  <TORSDO>  (87) 
F 21

>  <SCORE>  (87) 
-13.550

>  <name>  (87) 
88

>  <ligand_id>  (87) 
88

>  <original_smiles>  (87) 
[H]c1c([H])c([H])c2c(c1[H])C([H])([H])C([H])([H])C([H])([H])C2([H])N([H])C(=O)C1([H])N(C(=O)C([H])(N([H])C(=O)C([H])(N([H])C([H])([H])[H])C([H])([H])[H])C(C([H])([H])[H])(C([H])([H])[H])C([H])([H])[H])C([H])([H])c2c([H])c(OC([H])([H])C([H])([H])C([H])([H])N([H])C(=O)C(C([H])([H])[H])(C([H])([H])[H])C([H])([H])C(=O)N3C([H])([H])C([H])([H])C([H])([H])C([H])(n4nc(-c5c([H])c([H])c(Oc6c([H])c([H])c(F)c([H])c6F)c([H])c5[H])c(C(=O)N([H])[H])c4N([H])[H])C3([H])[H])c([H])c([H])c2C1([H])[H]

>  <smiles>  (87) 
[H]c1c([H])c([H])c2c(c1[H])C([H])([H])C([H])([H])C([H])([H])C2([H])N([H])C(=O)C1([H])N(C(=O)C([H])(N([H])C(=O)C([H])(N([H])C([H])([H])[H])C([H])([H])[H])C(C([H])([H])[H])(C([H])([H])[H])C([H])([H])[H])C([H])([H])c2c([H])c(OC([H])([H])C([H])([H])C([H])([H])N([H])C(=O)C(C([H])([H])[H])(C([H])([H])[H])C([H])([H])C(=O)N3C([H])([H])C([H])([H])C([H])([H])C([H])(n4nc(-c5c([H])c([H])c(Oc6c([H])c([H])c(F)c([H])c6F)c([H])c5[H])c(C(=O)N([H])[H])c4N([H])[H])C3([H])[H])c([H])c([H])c2C1([H])[H]

$$$$
89:0:0
     RDKit          3D

102111  0  0  1  0  0  0  0  0999 V2000
  -28.7540  -24.4780   20.5240 C   0  0  0  0  0  2  0  0  0  0  0  0
  -28.9060  -21.8380   20.3220 C   0  0  0  0  0  2  0  0  0  0  0  0
  -29.9610  -21.5480   22.5230 C   0  0  0  0  0  2  0  0  0  0  0  0
  -30.3740  -24.0550   23.0020 C   0  0  0  0  0  2  0  0  0  0  0  0
  -29.4760  -23.1640   20.8530 C   0  0  0  0  0  3  0  0  0  0  0  0
  -29.5080  -22.9790   22.3600 C   0  0  0  0  0  3  0  0  0  0  0  0
  -29.4820  -25.6700   21.2090 C   0  0  0  0  0  3  0  0  0  0  0  0
  -29.1200  -20.8130   21.4690 C   0  0  0  0  0  3  0  0  0  0  0  0
  -29.7050  -25.4130   22.7310 C   0  0  0  0  0  3  0  0  0  0  0  0
  -29.7240  -19.5310   21.0420 N   0  0  0  0  0  4  0  0  0  0  0  0
  -30.6640  -19.6770   20.7110 H   0  0  0  0  0  0  0  0  0  0  0  0
  -29.1820  -19.2210   20.2500 H   0  0  0  0  0  0  0  0  0  0  0  0
  -29.6570  -18.4460   22.0570 C   0  0  0  0  0  2  0  0  0  0  0  0
  -31.0070  -18.0980   22.7440 C   0  0  0  0  0  2  0  0  0  0  0  0
  -31.8550  -17.0120   22.0540 C   0  0  0  0  0  2  0  0  0  0  0  0
  -31.4440  -15.6350   22.4170 N   0  0  0  0  0  4  0  0  0  0  0  0
  -32.1020  -15.3130   23.1120 H   0  0  0  0  0  0  0  0  0  0  0  0
  -30.5450  -15.6250   22.8690 H   0  0  0  0  0  0  0  0  0  0  0  0
  -31.4740  -14.6530   21.3090 C   0  0  0  0  0  2  0  0  0  0  0  0
  -30.2560  -14.7480   20.3620 C   0  0  0  0  0  2  0  0  0  0  0  0
  -30.3720  -13.7260   19.2260 C   0  0  0  0  0  0  0  0  0  0  0  0
  -29.7950  -11.5760   18.1640 C   0  0  0  0  0  2  0  0  0  0  0  0
  -28.6520  -11.7210   17.1430 C   0  0  0  0  0  2  0  0  0  0  0  0
  -27.2810  -11.6080   17.8400 C   0  0  0  0  0  2  0  0  0  0  0  0
  -27.1730  -12.5210   19.0910 C   0  0  0  0  0  3  0  0  0  0  0  0
  -28.4050  -12.3280   20.0040 C   0  0  0  0  0  2  0  0  0  0  0  0
  -29.6150  -12.5960   19.2050 N   0  0  0  0  0  0  0  0  0  0  0  0
  -31.2190  -13.9660   18.3580 O   0  0  0  0  0  0  0  0  0  0  0  0
  -24.9770  -13.2050   20.2520 C   0  0  0  0  0  0  0  0  0  0  0  0
  -23.9670  -12.4630   20.8060 C   0  0  0  0  0  0  0  0  0  0  0  0
  -24.3560  -11.0960   20.6600 C   0  0  0  0  0  0  0  0  0  0  0  0
  -25.9230  -12.2900   19.8120 N   0  0  0  0  0  0  0  0  0  0  0  0
  -25.5590  -11.0160   20.1080 N   0  0  0  0  0  0  0  0  0  0  0  0
  -23.6270   -9.8580   20.9650 C   0  0  0  0  0  0  0  0  0  0  0  0
  -24.1670   -8.8760   21.8240 C   0  0  0  0  0  3  0  0  0  0  0  0
  -23.4390   -7.7010   22.1150 C   0  0  0  0  0  3  0  0  0  0  0  0
  -22.1590   -7.5020   21.5480 C   0  0  0  0  0  0  0  0  0  0  0  0
  -21.6370   -8.4720   20.6740 C   0  0  0  0  0  3  0  0  0  0  0  0
  -22.3640   -9.6370   20.3810 C   0  0  0  0  0  3  0  0  0  0  0  0
  -21.3920   -6.3800   21.7530 O   0  0  0  0  0  0  0  0  0  0  0  0
  -21.4670   -5.6590   22.9170 C   0  0  0  0  0  0  0  0  0  0  0  0
  -21.2210   -6.2500   24.1760 C   0  0  0  0  0  3  0  0  0  0  0  0
  -21.2390   -5.4570   25.3410 C   0  0  0  0  0  3  0  0  0  0  0  0
  -21.4970   -4.0750   25.2500 C   0  0  0  0  0  0  0  0  0  0  0  0
  -21.7360   -3.4860   23.9970 C   0  0  0  0  0  3  0  0  0  0  0  0
  -21.7190   -4.2760   22.8340 C   0  0  0  0  0  0  0  0  0  0  0  0
  -21.9310   -3.6980   21.6260 F   0  0  0  0  0  0  0  0  0  0  0  0
  -21.5080   -3.3120   26.3680 F   0  0  0  0  0  0  0  0  0  0  0  0
  -22.6700  -12.9860   21.3560 C   0  0  0  0  0  0  0  0  0  0  0  0
  -22.1090  -12.3130   22.3550 N   0  0  0  0  0  0  0  0  0  0  0  0
  -22.1700  -14.0260   20.9310 O   0  0  0  0  0  0  0  0  0  0  0  0
  -22.5290  -11.4690   22.7170 H   0  0  0  0  0  0  0  0  0  0  0  0
  -21.2490  -12.6470   22.7650 H   0  0  0  0  0  0  0  0  0  0  0  0
  -25.1580  -14.5730   20.0720 N   0  0  0  0  0  0  0  0  0  0  0  0
  -24.4390  -15.2430   20.3220 H   0  0  0  0  0  0  0  0  0  0  0  0
  -25.9390  -14.9890   19.5810 H   0  0  0  0  0  0  0  0  0  0  0  0
  -30.5080  -26.4510   23.2870 O   0  0  0  0  0  0  0  0  0  0  0  0
  -31.3200  -27.5990   25.2060 C   0  0  0  0  0  1  0  0  0  0  0  0
  -28.8840  -27.7850   24.4980 C   0  0  0  0  0  1  0  0  0  0  0  0
  -30.1190  -26.8790   24.5880 C   0  0  0  0  0  3  0  0  0  0  0  0
  -28.7210  -26.9960   21.0320 C   0  0  0  0  0  2  0  0  0  0  0  0
  -28.0020  -27.0680   19.7980 O   0  0  0  0  0  0  0  0  0  0  0  0
  -24.3440  -32.0820   23.2580 C   0  0  0  0  0  0  0  0  0  0  0  0
  -26.8510  -27.8150   19.8710 C   0  0  0  0  0  0  0  0  0  0  0  0
  -23.0530  -30.7220   21.6380 C   0  0  0  0  0  3  0  0  0  0  0  0
  -24.4340  -29.2570   20.0710 C   0  0  0  0  0  0  0  0  0  0  0  0
  -25.5520  -31.1310   21.3040 C   0  0  0  0  0  2  0  0  0  0  0  0
  -25.6120  -29.7880   20.6090 C   0  0  0  0  0  0  0  0  0  0  0  0
  -26.8200  -29.0780   20.5050 C   0  0  0  0  0  3  0  0  0  0  0  0
  -25.6650  -27.2910   19.3230 C   0  0  0  0  0  3  0  0  0  0  0  0
  -24.4540  -28.0070   19.4220 C   0  0  0  0  0  3  0  0  0  0  0  0
  -23.1820  -30.0910   20.2240 C   0  0  0  0  0  2  0  0  0  0  0  0
  -24.3370  -31.3240   22.1250 N   0  0  0  0  0  0  0  0  0  0  0  0
  -23.2950  -32.3230   23.8710 O   0  0  0  0  0  0  0  0  0  0  0  0
  -22.4720  -29.6600   22.5980 C   0  0  0  0  0  0  0  0  0  0  0  0
  -21.1570  -29.4140   22.4900 N   0  0  0  0  0  0  0  0  0  0  0  0
  -23.2000  -29.0610   23.3950 O   0  0  0  0  0  0  0  0  0  0  0  0
  -20.6290  -29.9550   21.8200 H   0  0  0  0  0  0  0  0  0  0  0  0
  -17.8700  -27.9960   22.9460 C   0  0  0  0  0  0  0  0  0  0  0  0
  -20.3980  -28.4320   23.2620 C   0  0  0  0  0  3  0  0  0  0  0  0
  -20.6090  -27.0040   22.7080 C   0  0  0  0  0  2  0  0  0  0  0  0
  -19.5520  -26.5930   21.6790 C   0  0  0  0  0  2  0  0  0  0  0  0
  -18.1510  -26.6510   22.2960 C   0  0  0  0  0  2  0  0  0  0  0  0
  -18.9250  -28.8380   23.3830 C   0  0  0  0  0  0  0  0  0  0  0  0
  -18.6080  -30.0930   23.9480 C   0  0  0  0  0  3  0  0  0  0  0  0
  -17.2690  -30.5040   24.0830 C   0  0  0  0  0  3  0  0  0  0  0  0
  -16.2280  -29.6570   23.6650 C   0  0  0  0  0  3  0  0  0  0  0  0
  -16.5280  -28.4050   23.1000 C   0  0  0  0  0  3  0  0  0  0  0  0
  -25.6610  -32.6980   23.8220 C   0  0  0  0  0  3  0  0  0  0  0  0
  -26.2270  -31.9180   25.0700 C   0  0  1  0  0  0  0  0  0  0  0  0
  -25.1810  -31.6870   26.1870 C   0  0  0  0  0  1  0  0  0  0  0  0
  -26.7720  -30.5370   24.6430 C   0  0  0  0  0  1  0  0  0  0  0  0
  -27.4220  -32.6900   25.6790 C   0  0  0  0  0  1  0  0  0  0  0  0
  -25.3880  -34.0980   24.1710 N   0  0  0  0  0  0  0  0  0  0  0  0
  -25.7010  -35.1470   23.3990 C   0  0  0  0  0  0  0  0  0  0  0  0
  -26.3260  -35.0390   22.3390 O   0  0  0  0  0  0  0  0  0  0  0  0
  -24.8380  -34.2600   25.0010 H   0  0  0  0  0  0  0  0  0  0  0  0
  -23.9710  -36.9470   23.1150 C   0  0  0  0  0  1  0  0  0  0  0  0
  -25.2430  -36.5390   23.8760 C   0  0  0  0  0  3  0  0  0  0  0  0
  -27.4170  -37.4040   24.6120 C   0  0  0  0  0  1  0  0  0  0  0  0
  -26.2760  -37.5840   23.7180 N   0  0  0  0  0  0  0  0  0  0  0  0
  -25.8850  -38.5070   23.8850 H   0  0  0  0  0  0  0  0  0  0  0  0
  1  5  1  0
  1  7  1  0
  2  8  1  0
  5  2  1  0
  5  6  1  0
  6  3  1  0
  6  4  1  0
  7 61  1  0
  7  9  1  0
  8 10  1  0
  8  3  1  0
  9  4  1  0
  9 57  1  0
 10 13  1  0
 11 10  1  0
 12 10  1  0
 13 14  1  0
 15 16  1  0
 15 14  1  0
 16 18  1  0
 16 17  1  0
 19 16  1  0
 20 19  1  0
 21 20  1  0
 22 27  1  0
 23 24  1  0
 23 22  1  0
 25 24  1  0
 25 32  1  0
 25 26  1  0
 27 21  1  0
 27 26  1  0
 28 21  2  0
 29 30  2  0
 30 49  1  0
 31 30  1  0
 31 34  1  0
 32 33  1  0
 32 29  1  0
 33 31  2  0
 34 35  1  0
 35 36  2  0
 37 40  1  0
 37 36  1  0
 38 37  2  0
 39 38  1  0
 39 34  2  0
 40 41  1  0
 41 42  1  0
 42 43  2  0
 44 43  1  0
 44 48  1  0
 45 44  2  0
 46 41  2  0
 46 45  1  0
 47 46  1  0
 49 50  1  0
 50 52  1  0
 50 53  1  0
 51 49  2  0
 54 29  1  0
 54 55  1  0
 56 54  1  0
 57 60  1  0
 59 60  1  0
 60 58  1  0
 62 64  1  0
 62 61  1  0
 63 74  2  0
 64 69  1  0
 65 73  1  0
 65 75  1  0
 66 72  1  0
 66 68  1  0
 67 73  1  0
 68 67  1  0
 69 68  2  0
 70 71  1  0
 70 64  2  0
 71 66  2  0
 72 65  1  0
 73 63  1  0
 75 77  2  0
 76 75  1  0
 78 76  1  0
 79 88  2  0
 79 84  1  0
 80 76  1  0
 80 84  1  0
 81 80  1  0
 82 83  1  0
 82 81  1  0
 83 79  1  0
 84 85  2  0
 85 86  1  0
 87 86  2  0
 88 87  1  0
 89 63  1  0
 89 94  1  0
 89 90  1  0
 90 93  1  1
 90 91  1  0
 92 90  1  0
 94 97  1  0
 95 99  1  0
 95 94  1  0
 96 95  2  0
 99 98  1  0
101 99  1  0
101102  1  0
101100  1  0
M  ISO  4  20 100  21 100  61 101  62 101
M  END
>  <TORSDO>  (88) 
F 26

>  <SCORE>  (88) 
-6.356

>  <name>  (88) 
89

>  <ligand_id>  (88) 
89

>  <original_smiles>  (88) 
[H]c1c([H])c([H])c2c(c1[H])C([H])([H])C([H])([H])C([H])([H])C2([H])N([H])C(=O)C1([H])N(C(=O)C([H])(N([H])C(=O)C([H])(N([H])C([H])([H])[H])C([H])([H])[H])C(C([H])([H])[H])(C([H])([H])[H])C([H])([H])[H])C([H])([H])c2c([H])c(OC([H])([H])C3([H])C([H])([H])C4([H])C([H])([H])C([H])([N+]([H])([H])C([H])([H])C([H])([H])C([H])([H])[N+]([H])([H])C([H])([H])C([H])([H])C(=O)N5C([H])([H])C([H])([H])C([H])([H])C([H])(n6nc(-c7c([H])c([H])c(Oc8c([H])c([H])c(F)c([H])c8F)c([H])c7[H])c(C(=O)N([H])[H])c6N([H])[H])C5([H])[H])C([H])([H])C4([H])C([H])([H])C3([H])OC([H])(C([H])([H])[H])C([H])([H])[H])c([H])c([H])c2C1([H])[H]

>  <smiles>  (88) 
[H]c1c([H])c([H])c2c(c1[H])C([H])([H])C([H])([H])C([H])([H])C2([H])N([H])C(=O)C1([H])N(C(=O)C([H])(N([H])C(=O)C([H])(N([H])C([H])([H])[H])C([H])([H])[H])C(C([H])([H])[H])(C([H])([H])[H])C([H])([H])[H])C([H])([H])c2c([H])c(OC([H])([H])C3([H])C([H])([H])C4([H])C([H])([H])C([H])([N+]([H])([H])C([H])([H])C([H])([H])C([H])([H])[N+]([H])([H])C([H])([H])C([H])([H])C(=O)N5C([H])([H])C([H])([H])C([H])([H])C([H])(n6nc(-c7c([H])c([H])c(Oc8c([H])c([H])c(F)c([H])c8F)c([H])c7[H])c(C(=O)N([H])[H])c6N([H])[H])C5([H])[H])C([H])([H])C4([H])C([H])([H])C3([H])OC([H])(C([H])([H])[H])C([H])([H])[H])c([H])c([H])c2C1([H])[H]

$$$$
90:0:0
     RDKit          3D

 87 95  0  0  1  0  0  0  0  0999 V2000
  -28.9390  -20.5550   19.1430 C   0  0  0  0  0  3  0  0  0  0  0  0
  -28.5340  -21.9690   19.0760 C   0  0  0  0  0  3  0  0  0  0  0  0
  -29.5120  -20.8460   21.3650 C   0  0  0  0  0  3  0  0  0  0  0  0
  -29.4580  -19.8580   20.2970 C   0  0  0  0  0  0  0  0  0  0  0  0
  -28.5830  -22.9600   20.1340 C   0  0  0  0  0  0  0  0  0  0  0  0
  -29.0990  -22.2720   21.3070 C   0  0  0  0  0  0  0  0  0  0  0  0
  -29.1980  -23.0810   22.5860 C   0  0  0  0  0  1  0  0  0  0  0  0
  -30.1750  -18.3020   20.2820 C   0  0  0  0  0  3  0  0  0  0  0  0
  -29.6290  -16.6680   20.5390 C   0  0  0  0  0  3  0  0  0  0  0  0
  -30.4660  -15.1910   20.2950 C   0  0  0  0  0  0  0  0  0  0  0  0
  -30.4030  -12.8010   19.3480 C   0  0  0  0  0  2  0  0  0  0  0  0
  -29.4630  -12.7260   18.1180 C   0  0  0  0  0  2  0  0  0  0  0  0
  -28.0060  -12.4850   18.5530 C   0  0  0  0  0  2  0  0  0  0  0  0
  -27.5930  -13.3990   19.7340 C   0  0  0  0  0  3  0  0  0  0  0  0
  -28.6530  -13.4380   20.8530 C   0  0  0  0  0  2  0  0  0  0  0  0
  -29.9140  -13.8940   20.2510 N   0  0  0  0  0  0  0  0  0  0  0  0
  -31.6680  -15.2320   20.0000 O   0  0  0  0  0  0  0  0  0  0  0  0
  -25.2180  -13.9550   20.4960 C   0  0  0  0  0  0  0  0  0  0  0  0
  -24.1580  -13.1730   20.8660 C   0  0  0  0  0  0  0  0  0  0  0  0
  -24.6290  -11.8240   20.8270 C   0  0  0  0  0  0  0  0  0  0  0  0
  -26.2620  -13.0830   20.2430 N   0  0  0  0  0  0  0  0  0  0  0  0
  -25.9200  -11.7960   20.5100 N   0  0  0  0  0  0  0  0  0  0  0  0
  -23.9080  -10.5590   21.0150 C   0  0  0  0  0  0  0  0  0  0  0  0
  -24.3360   -9.5940   21.9540 C   0  0  0  0  0  3  0  0  0  0  0  0
  -23.6110   -8.3950   22.1300 C   0  0  0  0  0  3  0  0  0  0  0  0
  -22.4440   -8.1520   21.3680 C   0  0  0  0  0  0  0  0  0  0  0  0
  -22.0350   -9.1050   20.4190 C   0  0  0  0  0  3  0  0  0  0  0  0
  -22.7600  -10.2960   20.2400 C   0  0  0  0  0  3  0  0  0  0  0  0
  -21.6920   -7.0060   21.4520 O   0  0  0  0  0  0  0  0  0  0  0  0
  -21.6220   -6.2740   22.6110 C   0  0  0  0  0  0  0  0  0  0  0  0
  -21.1510   -6.8350   23.8180 C   0  0  0  0  0  3  0  0  0  0  0  0
  -21.0290   -6.0300   24.9680 C   0  0  0  0  0  3  0  0  0  0  0  0
  -21.3680   -4.6650   24.9130 C   0  0  0  0  0  0  0  0  0  0  0  0
  -21.8320   -4.1040   23.7090 C   0  0  0  0  0  3  0  0  0  0  0  0
  -21.9550   -4.9060   22.5620 C   0  0  0  0  0  0  0  0  0  0  0  0
  -22.3820   -4.3550   21.4000 F   0  0  0  0  0  0  0  0  0  0  0  0
  -21.2450   -3.8890   26.0150 F   0  0  0  0  0  0  0  0  0  0  0  0
  -22.7610  -13.6440   21.1420 C   0  0  0  0  0  0  0  0  0  0  0  0
  -22.0400  -12.9470   22.0140 N   0  0  0  0  0  0  0  0  0  0  0  0
  -22.3170  -14.6660   20.6210 O   0  0  0  0  0  0  0  0  0  0  0  0
  -22.4140  -12.1200   22.4570 H   0  0  0  0  0  0  0  0  0  0  0  0
  -21.1030  -13.2450   22.2420 H   0  0  0  0  0  0  0  0  0  0  0  0
  -25.3750  -15.3270   20.3270 N   0  0  0  0  0  0  0  0  0  0  0  0
  -24.6090  -15.9790   20.4540 H   0  0  0  0  0  0  0  0  0  0  0  0
  -26.2260  -15.7740   20.0120 H   0  0  0  0  0  0  0  0  0  0  0  0
  -27.8030  -24.4810   20.0040 C   0  0  0  0  0  2  0  0  0  0  0  0
  -28.2070  -26.0210   20.2060 O   0  0  0  0  0  0  0  0  0  0  0  0
  -24.6650  -31.8740   23.2400 C   0  0  0  0  0  0  0  0  0  0  0  0
  -27.1980  -27.0930   20.1500 C   0  0  0  0  0  0  0  0  0  0  0  0
  -23.4530  -30.4910   21.6040 C   0  0  0  0  0  3  0  0  0  0  0  0
  -24.8860  -28.9190   20.1490 C   0  0  0  0  0  0  0  0  0  0  0  0
  -26.0130  -30.7290   21.4250 C   0  0  0  0  0  2  0  0  0  0  0  0
  -26.0790  -29.3330   20.7570 C   0  0  0  0  0  0  0  0  0  0  0  0
  -27.2320  -28.4400   20.7380 C   0  0  0  0  0  3  0  0  0  0  0  0
  -25.9750  -26.8190   19.4930 C   0  0  0  0  0  3  0  0  0  0  0  0
  -24.8550  -27.6790   19.4980 C   0  0  0  0  0  3  0  0  0  0  0  0
  -23.6630  -29.8270   20.2180 C   0  0  0  0  0  2  0  0  0  0  0  0
  -24.7320  -31.0550   22.1430 N   0  0  0  0  0  0  0  0  0  0  0  0
  -23.5830  -32.1570   23.7770 O   0  0  0  0  0  0  0  0  0  0  0  0
  -22.7760  -29.4810   22.5650 C   0  0  0  0  0  0  0  0  0  0  0  0
  -21.4470  -29.3040   22.4440 N   0  0  0  0  0  0  0  0  0  0  0  0
  -23.4510  -28.8560   23.3880 O   0  0  0  0  0  0  0  0  0  0  0  0
  -20.9560  -29.8580   21.7560 H   0  0  0  0  0  0  0  0  0  0  0  0
  -18.0770  -28.0670   22.9530 C   0  0  0  0  0  0  0  0  0  0  0  0
  -20.6340  -28.3590   23.2170 C   0  0  0  0  0  3  0  0  0  0  0  0
  -20.7500  -26.9270   22.6440 C   0  0  0  0  0  2  0  0  0  0  0  0
  -19.6510  -26.5920   21.6300 C   0  0  0  0  0  2  0  0  0  0  0  0
  -18.2680  -26.7200   22.2750 C   0  0  0  0  0  2  0  0  0  0  0  0
  -19.1870  -28.8440   23.3800 C   0  0  0  0  0  0  0  0  0  0  0  0
  -18.9510  -30.1010   23.9760 C   0  0  0  0  0  3  0  0  0  0  0  0
  -17.6400  -30.5840   24.1470 C   0  0  0  0  0  3  0  0  0  0  0  0
  -16.5450  -29.8060   23.7330 C   0  0  0  0  0  3  0  0  0  0  0  0
  -16.7640  -28.5490   23.1420 C   0  0  0  0  0  3  0  0  0  0  0  0
  -25.9450  -32.5090   23.8600 C   0  0  0  0  0  3  0  0  0  0  0  0
  -26.4610  -31.7380   25.1380 C   0  0  1  0  0  0  0  0  0  0  0  0
  -25.3690  -31.5080   26.2100 C   0  0  0  0  0  1  0  0  0  0  0  0
  -27.0380  -30.3560   24.7550 C   0  0  0  0  0  1  0  0  0  0  0  0
  -27.6160  -32.5290   25.7960 C   0  0  0  0  0  1  0  0  0  0  0  0
  -25.6350  -33.9070   24.2000 N   0  0  0  0  0  0  0  0  0  0  0  0
  -25.9370  -34.9670   23.4380 C   0  0  0  0  0  0  0  0  0  0  0  0
  -26.5720  -34.8700   22.3850 O   0  0  0  0  0  0  0  0  0  0  0  0
  -25.0670  -34.0560   25.0210 H   0  0  0  0  0  0  0  0  0  0  0  0
  -24.1810  -36.7510   23.1690 C   0  0  0  0  0  1  0  0  0  0  0  0
  -25.4630  -36.3540   23.9190 C   0  0  0  0  0  3  0  0  0  0  0  0
  -27.6260  -37.2600   24.6500 C   0  0  0  0  0  1  0  0  0  0  0  0
  -26.4820  -37.4140   23.7560 N   0  0  0  0  0  0  0  0  0  0  0  0
  -26.0750  -38.3320   23.9180 H   0  0  0  0  0  0  0  0  0  0  0  0
  1  4  1  0
  2  1  2  0
  2  5  1  0
  4  3  2  0
  5  6  2  0
  6  3  1  0
  6  7  1  0
  8  4  1  0
  8  9  2  0
 10  9  1  0
 11 16  1  0
 12 13  1  0
 12 11  1  0
 14 13  1  0
 14 21  1  0
 14 15  1  0
 16 10  1  0
 16 15  1  0
 17 10  2  0
 18 19  2  0
 19 38  1  0
 20 19  1  0
 20 23  1  0
 21 18  1  0
 21 22  1  0
 22 20  2  0
 23 24  1  0
 24 25  2  0
 26 29  1  0
 26 25  1  0
 27 26  2  0
 28 27  1  0
 28 23  2  0
 29 30  1  0
 30 31  1  0
 31 32  2  0
 33 32  1  0
 33 37  1  0
 34 33  2  0
 35 30  2  0
 35 34  1  0
 36 35  1  0
 38 39  1  0
 39 42  1  0
 39 41  1  0
 40 38  2  0
 43 44  1  0
 43 18  1  0
 45 43  1  0
 46  5  1  0
 46 47  1  0
 48 59  2  0
 49 47  1  0
 49 54  1  0
 50 58  1  0
 50 60  1  0
 51 57  1  0
 51 53  1  0
 52 58  1  0
 53 52  1  0
 54 53  2  0
 55 56  1  0
 55 49  2  0
 56 51  2  0
 57 50  1  0
 58 48  1  0
 60 62  2  0
 61 60  1  0
 63 61  1  0
 64 73  2  0
 64 69  1  0
 65 61  1  0
 65 69  1  0
 66 65  1  0
 67 68  1  0
 67 66  1  0
 68 64  1  0
 69 70  2  0
 70 71  1  0
 72 71  2  0
 73 72  1  0
 74 48  1  0
 74 79  1  0
 74 75  1  0
 75 78  1  1
 75 76  1  0
 77 75  1  0
 79 82  1  0
 80 84  1  0
 80 79  1  0
 81 80  2  0
 84 83  1  0
 86 87  1  0
 86 84  1  0
 86 85  1  0
M  ISO  4   9 100  10 100  46 101  47 101
M  END
>  <TORSDO>  (89) 
F 19

>  <SCORE>  (89) 
-16.159

>  <name>  (89) 
90

>  <ligand_id>  (89) 
90

>  <original_smiles>  (89) 
[H]c1c([H])c([H])c2c(c1[H])C([H])([H])C([H])([H])C([H])([H])C2([H])N([H])C(=O)C1([H])N(C(=O)C([H])(N([H])C(=O)C([H])(N([H])C([H])([H])[H])C([H])([H])[H])C(C([H])([H])[H])(C([H])([H])[H])C([H])([H])[H])C([H])([H])c2c([H])c(OC([H])([H])c3c([H])c([H])c(C([H])([H])C([H])([H])C(=O)N4C([H])([H])C([H])([H])C([H])([H])C([H])(n5nc(-c6c([H])c([H])c(Oc7c([H])c([H])c(F)c([H])c7F)c([H])c6[H])c(C(=O)N([H])[H])c5N([H])[H])C4([H])[H])c([H])c3C([H])([H])[H])c([H])c([H])c2C1([H])[H]

>  <smiles>  (89) 
[H]c1c([H])c([H])c2c(c1[H])C([H])([H])C([H])([H])C([H])([H])C2([H])N([H])C(=O)C1([H])N(C(=O)C([H])(N([H])C(=O)C([H])(N([H])C([H])([H])[H])C([H])([H])[H])C(C([H])([H])[H])(C([H])([H])[H])C([H])([H])[H])C([H])([H])c2c([H])c(OC([H])([H])c3c([H])c([H])c(C([H])([H])C([H])([H])C(=O)N4C([H])([H])C([H])([H])C([H])([H])C([H])(n5nc(-c6c([H])c([H])c(Oc7c([H])c([H])c(F)c([H])c7F)c([H])c6[H])c(C(=O)N([H])[H])c5N([H])[H])C4([H])[H])c([H])c3C([H])([H])[H])c([H])c([H])c2C1([H])[H]

$$$$
91:0:0
     RDKit          3D

 93102  0  0  1  0  0  0  0  0999 V2000
  -31.0180  -20.3690   19.3830 C   0  0  0  0  0  0  0  0  0  0  0  0
  -31.2910  -21.5000   20.0280 N   0  0  0  0  0  0  0  0  0  0  0  0
  -30.4600  -20.3680   18.2800 O   0  0  0  0  0  0  0  0  0  0  0  0
  -31.7160  -21.4410   20.9460 H   0  0  0  0  0  0  0  0  0  0  0  0
  -32.3470  -18.2390   19.0790 C   0  0  0  0  0  2  0  0  0  0  0  0
  -31.3790  -17.3270   18.2980 C   0  0  0  0  0  2  0  0  0  0  0  0
  -29.2460  -16.2190   19.3390 C   0  0  0  0  0  2  0  0  0  0  0  0
  -30.6000  -16.9270   21.2610 C   0  0  0  0  0  2  0  0  0  0  0  0
  -29.8010  -15.7240   20.6960 C   0  0  0  0  0  3  0  0  0  0  0  0
  -31.4790  -19.0620   20.0490 C   0  0  0  0  0  3  0  0  0  0  0  0
  -30.0000  -17.4820   18.9840 C   0  0  0  0  0  3  0  0  0  0  0  0
  -30.2970  -18.1220   20.3300 C   0  0  0  0  0  3  0  0  0  0  0  0
  -30.6370  -14.4410   20.4690 C   0  0  0  0  0  0  0  0  0  0  0  0
  -30.3600  -12.2820   19.3490 C   0  0  0  0  0  2  0  0  0  0  0  0
  -29.4380  -12.5080   18.1310 C   0  0  0  0  0  2  0  0  0  0  0  0
  -27.9490  -12.4240   18.5300 C   0  0  0  0  0  2  0  0  0  0  0  0
  -27.6090  -13.2380   19.8110 C   0  0  0  0  0  3  0  0  0  0  0  0
  -28.6460  -12.9740   20.9230 C   0  0  0  0  0  2  0  0  0  0  0  0
  -29.9860  -13.2530   20.3860 N   0  0  0  0  0  0  0  0  0  0  0  0
  -31.8190  -14.5660   20.1380 O   0  0  0  0  0  0  0  0  0  0  0  0
  -25.2110  -13.8770   20.4800 C   0  0  0  0  0  0  0  0  0  0  0  0
  -24.1340  -13.1140   20.8370 C   0  0  0  0  0  0  0  0  0  0  0  0
  -24.5880  -11.7600   20.8310 C   0  0  0  0  0  0  0  0  0  0  0  0
  -26.2510  -12.9830   20.2760 N   0  0  0  0  0  0  0  0  0  0  0  0
  -25.8810  -11.7070   20.5470 N   0  0  0  0  0  0  0  0  0  0  0  0
  -23.8550  -10.5030   21.0260 C   0  0  0  0  0  0  0  0  0  0  0  0
  -24.2790   -9.5460   21.9740 C   0  0  0  0  0  3  0  0  0  0  0  0
  -23.5530   -8.3500   22.1560 C   0  0  0  0  0  3  0  0  0  0  0  0
  -22.3920   -8.1030   21.3850 C   0  0  0  0  0  0  0  0  0  0  0  0
  -21.9860   -9.0490   20.4260 C   0  0  0  0  0  3  0  0  0  0  0  0
  -22.7100  -10.2370   20.2470 C   0  0  0  0  0  3  0  0  0  0  0  0
  -21.6420   -6.9550   21.4710 O   0  0  0  0  0  0  0  0  0  0  0  0
  -21.5880   -6.2150   22.6250 C   0  0  0  0  0  0  0  0  0  0  0  0
  -21.1590   -6.7780   23.8470 C   0  0  0  0  0  3  0  0  0  0  0  0
  -21.0470   -5.9690   24.9940 C   0  0  0  0  0  3  0  0  0  0  0  0
  -21.3550   -4.5980   24.9250 C   0  0  0  0  0  0  0  0  0  0  0  0
  -21.7790   -4.0350   23.7090 C   0  0  0  0  0  3  0  0  0  0  0  0
  -21.8930   -4.8410   22.5620 C   0  0  0  0  0  0  0  0  0  0  0  0
  -22.2810   -4.2870   21.3880 F   0  0  0  0  0  0  0  0  0  0  0  0
  -21.2400   -3.8210   26.0270 F   0  0  0  0  0  0  0  0  0  0  0  0
  -22.7350  -13.5950   21.0830 C   0  0  0  0  0  0  0  0  0  0  0  0
  -22.0010  -12.9040   21.9470 N   0  0  0  0  0  0  0  0  0  0  0  0
  -22.3020  -14.6150   20.5440 O   0  0  0  0  0  0  0  0  0  0  0  0
  -22.3710  -12.0800   22.3960 H   0  0  0  0  0  0  0  0  0  0  0  0
  -21.0570  -13.1960   22.1570 H   0  0  0  0  0  0  0  0  0  0  0  0
  -25.3960  -15.2430   20.2950 N   0  0  0  0  0  0  0  0  0  0  0  0
  -24.6430  -15.9190   20.3720 H   0  0  0  0  0  0  0  0  0  0  0  0
  -26.2690  -15.6650   20.0110 H   0  0  0  0  0  0  0  0  0  0  0  0
  -31.1340  -22.8200   19.4450 C   0  0  0  0  0  2  0  0  0  0  0  0
  -29.6830  -23.3150   19.5250 C   0  0  0  0  0  2  0  0  0  0  0  0
  -29.6710  -24.8110   19.8480 C   0  0  0  0  0  2  0  0  0  0  0  0
  -28.3140  -25.4420   19.6050 C   0  0  0  0  0  2  0  0  0  0  0  0
  -28.3510  -26.7670   20.1190 O   0  0  0  0  0  0  0  0  0  0  0  0
  -24.5690  -31.8880   23.2550 C   0  0  0  0  0  0  0  0  0  0  0  0
  -27.1650  -27.4630   20.1310 C   0  0  0  0  0  0  0  0  0  0  0  0
  -23.3450  -30.4950   21.6220 C   0  0  0  0  0  3  0  0  0  0  0  0
  -24.7790  -28.9730   20.1730 C   0  0  0  0  0  0  0  0  0  0  0  0
  -25.8700  -30.8520   21.4040 C   0  0  0  0  0  2  0  0  0  0  0  0
  -25.9420  -29.4840   20.7610 C   0  0  0  0  0  0  0  0  0  0  0  0
  -27.1370  -28.7370   20.7370 C   0  0  0  0  0  3  0  0  0  0  0  0
  -25.9780  -26.9600   19.5470 C   0  0  0  0  0  3  0  0  0  0  0  0
  -24.7920  -27.7110   19.5600 C   0  0  0  0  0  3  0  0  0  0  0  0
  -23.5360  -29.8310   20.2360 C   0  0  0  0  0  2  0  0  0  0  0  0
  -24.6150  -31.0920   22.1520 N   0  0  0  0  0  0  0  0  0  0  0  0
  -23.4930  -32.1600   23.8030 O   0  0  0  0  0  0  0  0  0  0  0  0
  -22.7020  -29.4660   22.5790 C   0  0  0  0  0  0  0  0  0  0  0  0
  -21.3790  -29.2830   22.4510 N   0  0  0  0  0  0  0  0  0  0  0  0
  -23.3900  -28.8390   23.3880 O   0  0  0  0  0  0  0  0  0  0  0  0
  -20.8870  -29.8430   21.7690 H   0  0  0  0  0  0  0  0  0  0  0  0
  -18.0060  -28.0910   22.9390 C   0  0  0  0  0  0  0  0  0  0  0  0
  -20.5620  -28.3450   23.2180 C   0  0  0  0  0  3  0  0  0  0  0  0
  -20.6660  -26.9150   22.6440 C   0  0  0  0  0  2  0  0  0  0  0  0
  -19.5660  -26.5910   21.6270 C   0  0  0  0  0  2  0  0  0  0  0  0
  -18.1830  -26.7390   22.2690 C   0  0  0  0  0  2  0  0  0  0  0  0
  -19.1250  -28.8520   23.3710 C   0  0  0  0  0  0  0  0  0  0  0  0
  -18.9080  -30.1170   23.9570 C   0  0  0  0  0  3  0  0  0  0  0  0
  -17.6060  -30.6240   24.1180 C   0  0  0  0  0  3  0  0  0  0  0  0
  -16.5010  -29.8610   23.7050 C   0  0  0  0  0  3  0  0  0  0  0  0
  -16.7010  -28.5970   23.1200 C   0  0  0  0  0  3  0  0  0  0  0  0
  -25.8620  -32.5120   23.8680 C   0  0  0  0  0  3  0  0  0  0  0  0
  -25.5610  -33.9110   24.1890 N   0  0  0  0  0  0  0  0  0  0  0  0
  -25.9020  -34.9590   23.4250 C   0  0  0  0  0  0  0  0  0  0  0  0
  -26.5730  -34.8470   22.3950 O   0  0  0  0  0  0  0  0  0  0  0  0
  -24.9650  -34.0740   24.9860 H   0  0  0  0  0  0  0  0  0  0  0  0
  -24.1800  -36.7560   23.0610 C   0  0  0  0  0  1  0  0  0  0  0  0
  -25.4180  -36.3490   23.8760 C   0  0  0  0  0  3  0  0  0  0  0  0
  -27.5550  -37.2260   24.7060 C   0  0  0  0  0  1  0  0  0  0  0  0
  -26.4520  -37.4000   23.7640 N   0  0  0  0  0  0  0  0  0  0  0  0
  -26.0470  -38.3200   23.9200 H   0  0  0  0  0  0  0  0  0  0  0  0
  -26.3780  -31.7400   25.1440 C   0  0  1  0  0  0  0  0  0  0  0  0
  -25.2890  -31.5130   26.2160 C   0  0  0  0  0  1  0  0  0  0  0  0
  -26.9460  -30.3570   24.7480 C   0  0  0  0  0  1  0  0  0  0  0  0
  -27.5330  -32.5330   25.8040 C   0  0  0  0  0  1  0  0  0  0  0  0
  1  2  1  0
  2  4  1  0
  3  1  2  0
  5 10  1  0
  6  5  1  0
  7  9  1  0
  9 13  1  0
  9  8  1  0
 10  1  1  0
 10 12  1  0
 11  6  1  0
 11  7  1  0
 11 12  1  0
 12  8  1  0
 14 19  1  0
 15 16  1  0
 15 14  1  0
 17 16  1  0
 17 24  1  0
 17 18  1  0
 19 13  1  0
 19 18  1  0
 20 13  2  0
 21 22  2  0
 22 41  1  0
 23 22  1  0
 23 26  1  0
 24 21  1  0
 24 25  1  0
 25 23  2  0
 26 27  1  0
 27 28  2  0
 29 32  1  0
 29 28  1  0
 30 29  2  0
 31 30  1  0
 31 26  2  0
 32 33  1  0
 33 34  1  0
 34 35  2  0
 36 35  1  0
 36 40  1  0
 37 36  2  0
 38 33  2  0
 38 37  1  0
 39 38  1  0
 41 42  1  0
 42 45  1  0
 42 44  1  0
 43 41  2  0
 46 47  1  0
 46 21  1  0
 48 46  1  0
 49 50  1  0
 49  2  1  0
 50 51  1  0
 52 51  1  0
 52 53  1  0
 53 55  1  0
 54 65  2  0
 55 60  1  0
 56 64  1  0
 56 66  1  0
 57 63  1  0
 57 59  1  0
 58 64  1  0
 59 58  1  0
 60 59  2  0
 61 62  1  0
 61 55  2  0
 62 57  2  0
 63 56  1  0
 64 54  1  0
 66 68  2  0
 67 66  1  0
 69 67  1  0
 70 79  2  0
 70 75  1  0
 71 67  1  0
 71 75  1  0
 72 71  1  0
 73 74  1  0
 73 72  1  0
 74 70  1  0
 75 76  2  0
 76 77  1  0
 78 77  2  0
 79 78  1  0
 80 54  1  0
 80 81  1  0
 80 90  1  0
 81 84  1  0
 82 86  1  0
 82 81  1  0
 83 82  2  0
 86 85  1  0
 88 86  1  0
 88 89  1  0
 88 87  1  0
 90 93  1  1
 90 91  1  0
 92 90  1  0
M  ISO  4   9 100  13 100  52 101  53 101
M  END
>  <TORSDO>  (90) 
F 21

>  <SCORE>  (90) 
-13.596

>  <name>  (90) 
91

>  <ligand_id>  (90) 
91

>  <original_smiles>  (90) 
[H]c1c([H])c([H])c2c(c1[H])C([H])([H])C([H])([H])C([H])([H])C2([H])N([H])C(=O)C1([H])N(C(=O)C([H])(N([H])C(=O)C([H])(N([H])C([H])([H])[H])C([H])([H])[H])C(C([H])([H])[H])(C([H])([H])[H])C([H])([H])[H])C([H])([H])c2c([H])c(OC([H])([H])C([H])([H])C([H])([H])C([H])([H])N([H])C(=O)C3([H])C([H])([H])C([H])([H])C4([H])C([H])([H])C([H])(C(=O)N5C([H])([H])C([H])([H])C([H])([H])C([H])(n6nc(-c7c([H])c([H])c(Oc8c([H])c([H])c(F)c([H])c8F)c([H])c7[H])c(C(=O)N([H])[H])c6N([H])[H])C5([H])[H])C([H])([H])C34[H])c([H])c([H])c2C1([H])[H]

>  <smiles>  (90) 
[H]c1c([H])c([H])c2c(c1[H])C([H])([H])C([H])([H])C([H])([H])C2([H])N([H])C(=O)C1([H])N(C(=O)C([H])(N([H])C(=O)C([H])(N([H])C([H])([H])[H])C([H])([H])[H])C(C([H])([H])[H])(C([H])([H])[H])C([H])([H])[H])C([H])([H])c2c([H])c(OC([H])([H])C([H])([H])C([H])([H])C([H])([H])N([H])C(=O)C3([H])C([H])([H])C([H])([H])C4([H])C([H])([H])C([H])(C(=O)N5C([H])([H])C([H])([H])C([H])([H])C([H])(n6nc(-c7c([H])c([H])c(Oc8c([H])c([H])c(F)c([H])c8F)c([H])c7[H])c(C(=O)N([H])[H])c6N([H])[H])C5([H])[H])C([H])([H])C34[H])c([H])c([H])c2C1([H])[H]

$$$$
92:0:0
     RDKit          3D

 96103  0  0  1  0  0  0  0  0999 V2000
  -29.1540  -22.1080   20.8530 C   0  0  0  0  0  3  0  0  0  0  0  0
  -28.9390  -22.9840   19.6960 N   0  0  0  0  0  0  0  0  0  0  0  0
  -28.6920  -22.4410   18.8730 H   0  0  0  0  0  0  0  0  0  0  0  0
  -30.0620  -23.8710   19.4040 C   0  0  0  0  0  2  0  0  0  0  0  0
  -29.5600  -25.0850   18.5950 C   0  0  0  0  0  2  0  0  0  0  0  0
  -30.3470  -26.3870   18.8570 C   0  0  0  0  0  2  0  0  0  0  0  0
  -29.7280  -27.5170   18.2380 O   0  0  0  0  0  0  0  0  0  0  0  0
  -25.9710  -29.6520   23.8960 C   0  0  0  0  0  0  0  0  0  0  0  0
  -28.5100  -27.8840   18.7520 C   0  0  0  0  0  0  0  0  0  0  0  0
  -24.6550  -29.0580   21.8850 C   0  0  0  0  0  3  0  0  0  0  0  0
  -26.0020  -28.7110   19.7470 C   0  0  0  0  0  0  0  0  0  0  0  0
  -27.0530  -29.9190   21.6680 C   0  0  0  0  0  2  0  0  0  0  0  0
  -27.1770  -29.0800   20.4140 C   0  0  0  0  0  0  0  0  0  0  0  0
  -28.4350  -28.6730   19.9200 C   0  0  0  0  0  3  0  0  0  0  0  0
  -27.3230  -27.5220   18.0830 C   0  0  0  0  0  3  0  0  0  0  0  0
  -26.0690  -27.9250   18.5800 C   0  0  0  0  0  3  0  0  0  0  0  0
  -24.6980  -29.1950   20.3400 C   0  0  0  0  0  2  0  0  0  0  0  0
  -25.9200  -29.5300   22.5390 N   0  0  0  0  0  0  0  0  0  0  0  0
  -24.9770  -29.4240   24.5970 O   0  0  0  0  0  0  0  0  0  0  0  0
  -24.2890  -27.5990   22.2390 C   0  0  0  0  0  0  0  0  0  0  0  0
  -23.0290  -27.2180   21.9730 N   0  0  0  0  0  0  0  0  0  0  0  0
  -25.1340  -26.8330   22.7110 O   0  0  0  0  0  0  0  0  0  0  0  0
  -22.3950  -27.9090   21.5950 H   0  0  0  0  0  0  0  0  0  0  0  0
  -20.0690  -25.1970   21.5330 C   0  0  0  0  0  0  0  0  0  0  0  0
  -22.4740  -25.8830   22.1870 C   0  0  0  0  0  3  0  0  0  0  0  0
  -22.9430  -24.9030   21.0880 C   0  0  0  0  0  2  0  0  0  0  0  0
  -21.9710  -24.8090   19.9070 C   0  0  0  0  0  2  0  0  0  0  0  0
  -20.5900  -24.3480   20.3850 C   0  0  0  0  0  2  0  0  0  0  0  0
  -20.9520  -25.9290   22.3690 C   0  0  0  0  0  0  0  0  0  0  0  0
  -20.4150  -26.7320   23.3990 C   0  0  0  0  0  3  0  0  0  0  0  0
  -19.0240  -26.8090   23.5990 C   0  0  0  0  0  3  0  0  0  0  0  0
  -18.1550  -26.0690   22.7800 C   0  0  0  0  0  3  0  0  0  0  0  0
  -18.6780  -25.2590   21.7540 C   0  0  0  0  0  3  0  0  0  0  0  0
  -27.2730  -30.1080   24.6270 C   0  0  0  0  0  3  0  0  0  0  0  0
  -26.9610  -31.3480   25.3500 N   0  0  0  0  0  0  0  0  0  0  0  0
  -27.2770  -32.5770   24.9230 C   0  0  0  0  0  0  0  0  0  0  0  0
  -27.9360  -32.7850   23.9000 O   0  0  0  0  0  0  0  0  0  0  0  0
  -26.3750  -31.2560   26.1670 H   0  0  0  0  0  0  0  0  0  0  0  0
  -25.5330  -34.3800   25.1210 C   0  0  0  0  0  1  0  0  0  0  0  0
  -26.7850  -33.7680   25.7680 C   0  0  0  0  0  3  0  0  0  0  0  0
  -28.9190  -34.3960   26.8110 C   0  0  0  0  0  1  0  0  0  0  0  0
  -27.8100  -34.8180   25.9570 N   0  0  0  0  0  0  0  0  0  0  0  0
  -27.3980  -35.6510   26.3670 H   0  0  0  0  0  0  0  0  0  0  0  0
  -27.8540  -29.0170   25.6070 C   0  0  1  0  0  0  0  0  0  0  0  0
  -26.8040  -28.4400   26.5840 C   0  0  0  0  0  1  0  0  0  0  0  0
  -28.4590  -27.8350   24.8130 C   0  0  0  0  0  1  0  0  0  0  0  0
  -29.0030  -29.6240   26.4470 C   0  0  0  0  0  1  0  0  0  0  0  0
  -28.0990  -22.5110   21.9150 C   0  0  0  0  0  2  0  0  0  0  0  0
  -27.0140  -24.5530   22.9710 C   0  0  0  0  0  1  0  0  0  0  0  0
  -29.3350  -23.8740   23.6890 C   0  0  0  0  0  1  0  0  0  0  0  0
  -28.3340  -23.9140   22.5170 C   0  0  0  0  0  3  0  0  0  0  0  0
  -29.0580  -20.6170   20.4290 C   0  0  0  0  0  2  0  0  0  0  0  0
  -29.6040  -19.6860   21.4530 N   0  0  0  0  0  4  0  0  0  0  0  0
  -28.8240  -19.2240   21.8910 H   0  0  0  0  0  0  0  0  0  0  0  0
  -30.0730  -20.2210   22.1670 H   0  0  0  0  0  0  0  0  0  0  0  0
  -31.9320  -19.2940   20.7040 C   0  0  0  0  0  1  0  0  0  0  0  0
  -30.5470  -18.6640   20.9310 C   0  0  0  0  0  3  0  0  0  0  0  0
  -30.6600  -17.4200   21.8600 C   0  0  0  0  0  2  0  0  0  0  0  0
  -29.3550  -16.1270   19.9950 C   0  0  0  0  0  1  0  0  0  0  0  0
  -29.8960  -16.1200   21.4470 C   0  0  0  0  0  3  0  0  0  0  0  0
  -30.7830  -14.8510   21.5820 C   0  0  0  0  0  0  0  0  0  0  0  0
  -30.8600  -12.4400   21.1210 C   0  0  0  0  0  2  0  0  0  0  0  0
  -30.2160  -12.2130   19.7360 C   0  0  0  0  0  2  0  0  0  0  0  0
  -28.6850  -12.0640   19.8510 C   0  0  0  0  0  2  0  0  0  0  0  0
  -28.0350  -13.1680   20.7270 C   0  0  0  0  0  3  0  0  0  0  0  0
  -28.8130  -13.3490   22.0490 C   0  0  0  0  0  2  0  0  0  0  0  0
  -30.2180  -13.6210   21.7150 N   0  0  0  0  0  0  0  0  0  0  0  0
  -31.9900  -14.9940   21.3560 O   0  0  0  0  0  0  0  0  0  0  0  0
  -25.5680  -13.7980   21.0890 C   0  0  0  0  0  0  0  0  0  0  0  0
  -24.4420  -13.0320   21.2280 C   0  0  0  0  0  0  0  0  0  0  0  0
  -24.8760  -11.6720   21.1690 C   0  0  0  0  0  0  0  0  0  0  0  0
  -26.6190  -12.9020   20.9610 N   0  0  0  0  0  0  0  0  0  0  0  0
  -26.1970  -11.6160   21.0610 N   0  0  0  0  0  0  0  0  0  0  0  0
  -24.1080  -10.4210   21.1470 C   0  0  0  0  0  0  0  0  0  0  0  0
  -24.1680   -9.4970   22.2150 C   0  0  0  0  0  3  0  0  0  0  0  0
  -23.4060   -8.3100   22.1760 C   0  0  0  0  0  3  0  0  0  0  0  0
  -22.5710   -8.0390   21.0660 C   0  0  0  0  0  0  0  0  0  0  0  0
  -22.5320   -8.9510   19.9960 C   0  0  0  0  0  3  0  0  0  0  0  0
  -23.2950  -10.1290   20.0330 C   0  0  0  0  0  3  0  0  0  0  0  0
  -21.8140   -6.9000   20.9320 O   0  0  0  0  0  0  0  0  0  0  0  0
  -21.1420   -6.3540   21.9980 C   0  0  0  0  0  0  0  0  0  0  0  0
  -20.1250   -7.0590   22.6770 C   0  0  0  0  0  3  0  0  0  0  0  0
  -19.4120   -6.4350   23.7200 C   0  0  0  0  0  3  0  0  0  0  0  0
  -19.7090   -5.1070   24.0800 C   0  0  0  0  0  0  0  0  0  0  0  0
  -20.7200   -4.4020   23.4020 C   0  0  0  0  0  3  0  0  0  0  0  0
  -21.4320   -5.0240   22.3620 C   0  0  0  0  0  0  0  0  0  0  0  0
  -22.3900   -4.3330   21.6970 F   0  0  0  0  0  0  0  0  0  0  0  0
  -19.0200   -4.5040   25.0760 F   0  0  0  0  0  0  0  0  0  0  0  0
  -23.0270  -13.5290   21.3170 C   0  0  0  0  0  0  0  0  0  0  0  0
  -22.1550  -12.7830   21.9850 N   0  0  0  0  0  0  0  0  0  0  0  0
  -22.6980  -14.6110   20.8300 O   0  0  0  0  0  0  0  0  0  0  0  0
  -22.4280  -11.9030   22.3980 H   0  0  0  0  0  0  0  0  0  0  0  0
  -21.2000  -13.0950   22.0870 H   0  0  0  0  0  0  0  0  0  0  0  0
  -25.7870  -15.1720   21.0460 N   0  0  0  0  0  0  0  0  0  0  0  0
  -25.0270  -15.8430   21.0790 H   0  0  0  0  0  0  0  0  0  0  0  0
  -26.6870  -15.6010   20.8810 H   0  0  0  0  0  0  0  0  0  0  0  0
  1 52  1  0
  1 48  1  0
  2  1  1  0
  3  2  1  0
  4  2  1  0
  5  6  1  0
  5  4  1  0
  7  9  1  0
  7  6  1  0
  8 19  2  0
  9 14  1  0
 10 20  1  0
 10 18  1  0
 11 17  1  0
 11 13  1  0
 12 18  1  0
 13 12  1  0
 14 13  2  0
 15 16  1  0
 15  9  2  0
 16 11  2  0
 17 10  1  0
 18  8  1  0
 20 22  2  0
 21 20  1  0
 23 21  1  0
 24 33  2  0
 24 29  1  0
 25 21  1  0
 25 29  1  0
 26 25  1  0
 27 28  1  0
 27 26  1  0
 28 24  1  0
 29 30  2  0
 30 31  1  0
 32 31  2  0
 33 32  1  0
 34  8  1  0
 34 35  1  0
 34 44  1  0
 35 38  1  0
 36 35  1  0
 36 40  1  0
 37 36  2  0
 40 39  1  0
 40 42  1  0
 42 43  1  0
 42 41  1  0
 44 47  1  1
 44 45  1  0
 46 44  1  0
 48 51  1  0
 51 49  1  0
 51 50  1  0
 52 53  1  0
 53 54  1  0
 53 55  1  0
 57 56  1  0
 57 53  1  0
 57 58  1  0
 60 59  1  0
 60 61  1  0
 60 58  1  0
 61 67  1  0
 62 67  1  0
 63 64  1  0
 63 62  1  0
 65 64  1  0
 65 72  1  0
 65 66  1  0
 67 66  1  0
 68 61  2  0
 69 70  2  0
 70 89  1  0
 71 70  1  0
 72 73  1  0
 72 69  1  0
 73 71  2  0
 74 71  1  0
 74 75  1  0
 76 75  2  0
 77 76  1  0
 78 79  1  0
 78 77  2  0
 79 74  2  0
 80 77  1  0
 80 81  1  0
 81 86  2  0
 81 82  1  0
 82 83  2  0
 83 84  1  0
 84 88  1  0
 85 84  2  0
 86 85  1  0
 87 86  1  0
 89 90  1  0
 90 93  1  0
 90 92  1  0
 91 89  2  0
 94 95  1  0
 94 69  1  0
 96 94  1  0
M  ISO  4   6 101   7 101  60 100  61 100
M  END
>  <TORSDO>  (91) 
F 27

>  <SCORE>  (91) 
-3.949

>  <name>  (91) 
92

>  <ligand_id>  (91) 
92

>  <original_smiles>  (91) 
[H]c1c([H])c([H])c2c(c1[H])C([H])([H])C([H])([H])C([H])([H])C2([H])N([H])C(=O)C1([H])N(C(=O)C([H])(N([H])C(=O)C([H])(N([H])C([H])([H])[H])C([H])([H])[H])C(C([H])([H])[H])(C([H])([H])[H])C([H])([H])[H])C([H])([H])c2c([H])c(OC([H])([H])C([H])([H])C([H])([H])N([H])C([H])(C([H])([H])C([H])(C([H])([H])[H])C([H])([H])[H])C([H])([H])[N+]([H])([H])C([H])(C([H])([H])[H])C([H])([H])C([H])(C(=O)N3C([H])([H])C([H])([H])C([H])([H])C([H])(n4nc(-c5c([H])c([H])c(Oc6c([H])c([H])c(F)c([H])c6F)c([H])c5[H])c(C(=O)N([H])[H])c4N([H])[H])C3([H])[H])C([H])([H])[H])c([H])c([H])c2C1([H])[H]

>  <smiles>  (91) 
[H]c1c([H])c([H])c2c(c1[H])C([H])([H])C([H])([H])C([H])([H])C2([H])N([H])C(=O)C1([H])N(C(=O)C([H])(N([H])C(=O)C([H])(N([H])C([H])([H])[H])C([H])([H])[H])C(C([H])([H])[H])(C([H])([H])[H])C([H])([H])[H])C([H])([H])c2c([H])c(OC([H])([H])C([H])([H])C([H])([H])N([H])C([H])(C([H])([H])C([H])(C([H])([H])[H])C([H])([H])[H])C([H])([H])[N+]([H])([H])C([H])(C([H])([H])[H])C([H])([H])C([H])(C(=O)N3C([H])([H])C([H])([H])C([H])([H])C([H])(n4nc(-c5c([H])c([H])c(Oc6c([H])c([H])c(F)c([H])c6F)c([H])c5[H])c(C(=O)N([H])[H])c4N([H])[H])C3([H])[H])C([H])([H])[H])c([H])c([H])c2C1([H])[H]

$$$$
93:0:0
     RDKit          3D

 91 99  0  0  1  0  0  0  0  0999 V2000
  -28.3020  -21.8620   22.0020 C   0  0  0  0  0  2  0  0  0  0  0  0
  -29.3550  -22.7550   22.6720 C   0  0  0  0  0  2  0  0  0  0  0  0
  -28.6700  -21.8940   20.5130 C   0  0  0  0  0  3  0  0  0  0  0  0
  -29.0950  -23.5180   20.3910 C   0  0  0  0  0  3  0  0  0  0  0  0
  -29.7240  -23.8050   21.7000 N   0  0  0  0  0  4  0  0  0  0  0  0
  -30.7280  -23.8320   21.6070 H   0  0  0  0  0  0  0  0  0  0  0  0
  -29.4310  -24.7110   22.0350 H   0  0  0  0  0  0  0  0  0  0  0  0
  -29.6860  -20.6230   20.2290 C   0  0  0  0  0  0  0  0  0  0  0  0
  -29.3870  -19.2580   20.4540 N   0  0  0  0  0  0  0  0  0  0  0  0
  -30.8040  -20.9070   19.7990 O   0  0  0  0  0  0  0  0  0  0  0  0
  -28.4520  -19.0900   20.8020 H   0  0  0  0  0  0  0  0  0  0  0  0
  -30.2600  -17.9590   20.2710 C   0  0  0  0  0  3  0  0  0  0  0  0
  -29.7350  -16.4050   20.6120 C   0  0  0  0  0  3  0  0  0  0  0  0
  -30.5650  -15.0090   20.2960 C   0  0  0  0  0  0  0  0  0  0  0  0
  -30.4230  -12.6830   19.3030 C   0  0  0  0  0  2  0  0  0  0  0  0
  -29.4720  -12.7050   18.0840 C   0  0  0  0  0  2  0  0  0  0  0  0
  -28.0100  -12.5010   18.5240 C   0  0  0  0  0  2  0  0  0  0  0  0
  -27.6290  -13.3970   19.7310 C   0  0  0  0  0  3  0  0  0  0  0  0
  -28.6970  -13.3580   20.8440 C   0  0  0  0  0  2  0  0  0  0  0  0
  -29.9810  -13.7460   20.2480 N   0  0  0  0  0  0  0  0  0  0  0  0
  -31.7500  -15.0890   19.9530 O   0  0  0  0  0  0  0  0  0  0  0  0
  -25.2540  -13.9730   20.4990 C   0  0  0  0  0  0  0  0  0  0  0  0
  -24.1910  -13.1960   20.8700 C   0  0  0  0  0  0  0  0  0  0  0  0
  -24.6520  -11.8440   20.8190 C   0  0  0  0  0  0  0  0  0  0  0  0
  -26.2930  -13.0970   20.2390 N   0  0  0  0  0  0  0  0  0  0  0  0
  -25.9410  -11.8100   20.4990 N   0  0  0  0  0  0  0  0  0  0  0  0
  -23.9250  -10.5810   21.0030 C   0  0  0  0  0  0  0  0  0  0  0  0
  -24.3420   -9.6170   21.9490 C   0  0  0  0  0  3  0  0  0  0  0  0
  -23.6120   -8.4200   22.1200 C   0  0  0  0  0  3  0  0  0  0  0  0
  -22.4530   -8.1780   21.3440 C   0  0  0  0  0  0  0  0  0  0  0  0
  -22.0560   -9.1290   20.3900 C   0  0  0  0  0  3  0  0  0  0  0  0
  -22.7860  -10.3180   20.2160 C   0  0  0  0  0  3  0  0  0  0  0  0
  -21.6990   -7.0330   21.4240 O   0  0  0  0  0  0  0  0  0  0  0  0
  -21.6050   -6.3110   22.5870 C   0  0  0  0  0  0  0  0  0  0  0  0
  -21.0990   -6.8790   23.7760 C   0  0  0  0  0  3  0  0  0  0  0  0
  -20.9560   -6.0830   24.9310 C   0  0  0  0  0  3  0  0  0  0  0  0
  -21.3070   -4.7200   24.8950 C   0  0  0  0  0  0  0  0  0  0  0  0
  -21.8050   -4.1520   23.7100 C   0  0  0  0  0  3  0  0  0  0  0  0
  -21.9510   -4.9450   22.5590 C   0  0  0  0  0  0  0  0  0  0  0  0
  -22.4120   -4.3870   21.4130 F   0  0  0  0  0  0  0  0  0  0  0  0
  -21.1610   -3.9540   26.0020 F   0  0  0  0  0  0  0  0  0  0  0  0
  -22.7960  -13.6720   21.1560 C   0  0  0  0  0  0  0  0  0  0  0  0
  -22.0730  -12.9670   22.0200 N   0  0  0  0  0  0  0  0  0  0  0  0
  -22.3560  -14.7030   20.6510 O   0  0  0  0  0  0  0  0  0  0  0  0
  -22.4410  -12.1320   22.4490 H   0  0  0  0  0  0  0  0  0  0  0  0
  -21.1390  -13.2690   22.2560 H   0  0  0  0  0  0  0  0  0  0  0  0
  -25.4170  -15.3460   20.3370 N   0  0  0  0  0  0  0  0  0  0  0  0
  -24.6540  -16.0010   20.4680 H   0  0  0  0  0  0  0  0  0  0  0  0
  -26.2680  -15.7890   20.0160 H   0  0  0  0  0  0  0  0  0  0  0  0
  -28.0160  -24.7660   20.0950 C   0  0  0  0  0  2  0  0  0  0  0  0
  -28.2860  -26.2900   20.2180 O   0  0  0  0  0  0  0  0  0  0  0  0
  -24.6270  -31.9050   23.2420 C   0  0  0  0  0  0  0  0  0  0  0  0
  -27.2160  -27.2510   20.1570 C   0  0  0  0  0  0  0  0  0  0  0  0
  -23.4260  -30.5240   21.5890 C   0  0  0  0  0  3  0  0  0  0  0  0
  -24.8770  -28.9720   20.1440 C   0  0  0  0  0  0  0  0  0  0  0  0
  -25.9760  -30.8060   21.4210 C   0  0  0  0  0  2  0  0  0  0  0  0
  -26.0540  -29.4220   20.7550 C   0  0  0  0  0  0  0  0  0  0  0  0
  -27.2250  -28.5780   20.7450 C   0  0  0  0  0  3  0  0  0  0  0  0
  -26.0100  -26.8990   19.5080 C   0  0  0  0  0  3  0  0  0  0  0  0
  -24.8660  -27.7230   19.5050 C   0  0  0  0  0  3  0  0  0  0  0  0
  -23.6460  -29.8630   20.2040 C   0  0  0  0  0  2  0  0  0  0  0  0
  -24.6960  -31.0980   22.1400 N   0  0  0  0  0  0  0  0  0  0  0  0
  -23.5410  -32.1810   23.7750 O   0  0  0  0  0  0  0  0  0  0  0  0
  -22.7530  -29.5050   22.5410 C   0  0  0  0  0  0  0  0  0  0  0  0
  -21.4280  -29.3260   22.4090 N   0  0  0  0  0  0  0  0  0  0  0  0
  -23.4280  -28.8770   23.3630 O   0  0  0  0  0  0  0  0  0  0  0  0
  -20.9410  -29.8840   21.7210 H   0  0  0  0  0  0  0  0  0  0  0  0
  -18.0520  -28.1020   22.8900 C   0  0  0  0  0  0  0  0  0  0  0  0
  -20.6080  -28.3790   23.1700 C   0  0  0  0  0  3  0  0  0  0  0  0
  -20.7200  -26.9500   22.5860 C   0  0  0  0  0  2  0  0  0  0  0  0
  -19.6240  -26.6280   21.5650 C   0  0  0  0  0  2  0  0  0  0  0  0
  -18.2400  -26.7600   22.2040 C   0  0  0  0  0  2  0  0  0  0  0  0
  -19.1640  -28.8680   23.3300 C   0  0  0  0  0  0  0  0  0  0  0  0
  -18.9340  -30.1240   23.9320 C   0  0  0  0  0  3  0  0  0  0  0  0
  -17.6250  -30.6140   24.0980 C   0  0  0  0  0  3  0  0  0  0  0  0
  -16.5280  -29.8460   23.6750 C   0  0  0  0  0  3  0  0  0  0  0  0
  -16.7420  -28.5910   23.0770 C   0  0  0  0  0  3  0  0  0  0  0  0
  -25.9050  -32.5340   23.8730 C   0  0  0  0  0  3  0  0  0  0  0  0
  -26.4090  -31.7630   25.1550 C   0  0  1  0  0  0  0  0  0  0  0  0
  -25.3060  -31.5280   26.2150 C   0  0  0  0  0  1  0  0  0  0  0  0
  -26.9920  -30.3840   24.7720 C   0  0  0  0  0  1  0  0  0  0  0  0
  -27.5570  -32.5540   25.8250 C   0  0  0  0  0  1  0  0  0  0  0  0
  -25.5970  -33.9350   24.2060 N   0  0  0  0  0  0  0  0  0  0  0  0
  -25.9160  -34.9890   23.4440 C   0  0  0  0  0  0  0  0  0  0  0  0
  -26.5690  -34.8860   22.4020 O   0  0  0  0  0  0  0  0  0  0  0  0
  -25.0110  -34.0870   25.0130 H   0  0  0  0  0  0  0  0  0  0  0  0
  -24.1750  -36.7800   23.1310 C   0  0  0  0  0  1  0  0  0  0  0  0
  -25.4370  -36.3780   23.9100 C   0  0  0  0  0  3  0  0  0  0  0  0
  -27.5870  -37.2740   24.6900 C   0  0  0  0  0  1  0  0  0  0  0  0
  -26.4650  -37.4330   23.7680 N   0  0  0  0  0  0  0  0  0  0  0  0
  -26.0590  -38.3530   23.9200 H   0  0  0  0  0  0  0  0  0  0  0  0
  1  2  1  0
  3  8  1  0
  3  1  1  0
  4 50  1  0
  4  3  1  0
  4  5  1  0
  5  7  1  0
  5  2  1  0
  6  5  1  0
  8  9  1  0
  9 11  1  0
 10  8  2  0
 12  9  1  0
 12 13  2  0
 14 13  1  0
 15 20  1  0
 16 17  1  0
 16 15  1  0
 18 17  1  0
 18 25  1  0
 18 19  1  0
 20 14  1  0
 20 19  1  0
 21 14  2  0
 22 23  2  0
 23 42  1  0
 24 23  1  0
 24 27  1  0
 25 22  1  0
 25 26  1  0
 26 24  2  0
 27 28  1  0
 28 29  2  0
 30 33  1  0
 30 29  1  0
 31 30  2  0
 32 31  1  0
 32 27  2  0
 33 34  1  0
 34 35  1  0
 35 36  2  0
 37 36  1  0
 37 41  1  0
 38 37  2  0
 39 34  2  0
 39 38  1  0
 40 39  1  0
 42 43  1  0
 43 46  1  0
 43 45  1  0
 44 42  2  0
 47 48  1  0
 47 22  1  0
 49 47  1  0
 50 51  1  0
 52 63  2  0
 53 51  1  0
 53 58  1  0
 54 62  1  0
 54 64  1  0
 55 61  1  0
 55 57  1  0
 56 62  1  0
 57 56  1  0
 58 57  2  0
 59 53  2  0
 60 59  1  0
 60 55  2  0
 61 54  1  0
 62 52  1  0
 64 66  2  0
 65 64  1  0
 67 65  1  0
 68 77  2  0
 68 73  1  0
 69 65  1  0
 69 73  1  0
 70 69  1  0
 71 72  1  0
 71 70  1  0
 72 68  1  0
 73 74  2  0
 74 75  1  0
 76 75  2  0
 77 76  1  0
 78 52  1  0
 78 83  1  0
 78 79  1  0
 79 82  1  1
 79 80  1  0
 81 79  1  0
 83 86  1  0
 84 88  1  0
 84 83  1  0
 85 84  2  0
 88 87  1  0
 90 88  1  0
 90 91  1  0
 90 89  1  0
M  ISO  4  13 100  14 100  50 101  51 101
M  END
>  <TORSDO>  (92) 
F 20

>  <SCORE>  (92) 
-13.780

>  <name>  (92) 
93

>  <ligand_id>  (92) 
93

>  <original_smiles>  (92) 
[H]c1c([H])c([H])c2c(c1[H])C([H])([H])C([H])([H])C([H])([H])C2([H])N([H])C(=O)C1([H])N(C(=O)C([H])(N([H])C(=O)C([H])(N([H])C([H])([H])[H])C([H])([H])[H])C(C([H])([H])[H])(C([H])([H])[H])C([H])([H])[H])C([H])([H])c2c([H])c(OC([H])([H])C3([H])C([H])(C(=O)N([H])C([H])([H])C([H])([H])C(=O)N4C([H])([H])C([H])([H])C([H])([H])C([H])(n5nc(-c6c([H])c([H])c(Oc7c([H])c([H])c(F)c([H])c7F)c([H])c6[H])c(C(=O)N([H])[H])c5N([H])[H])C4([H])[H])C([H])([H])C([H])([H])[N+]3([H])[H])c([H])c([H])c2C1([H])[H]

>  <smiles>  (92) 
[H]c1c([H])c([H])c2c(c1[H])C([H])([H])C([H])([H])C([H])([H])C2([H])N([H])C(=O)C1([H])N(C(=O)C([H])(N([H])C(=O)C([H])(N([H])C([H])([H])[H])C([H])([H])[H])C(C([H])([H])[H])(C([H])([H])[H])C([H])([H])[H])C([H])([H])c2c([H])c(OC([H])([H])C3([H])C([H])(C(=O)N([H])C([H])([H])C([H])([H])C(=O)N4C([H])([H])C([H])([H])C([H])([H])C([H])(n5nc(-c6c([H])c([H])c(Oc7c([H])c([H])c(F)c([H])c7F)c([H])c6[H])c(C(=O)N([H])[H])c5N([H])[H])C4([H])[H])C([H])([H])C([H])([H])[N+]3([H])[H])c([H])c([H])c2C1([H])[H]

$$$$
94:0:0
     RDKit          3D

 94102  0  0  1  0  0  0  0  0999 V2000
  -28.0710  -21.6270   22.5580 C   0  0  0  0  0  2  0  0  0  0  0  0
  -27.8310  -22.6690   21.4620 C   0  0  0  0  0  2  0  0  0  0  0  0
  -29.5820  -21.4390   22.5960 C   0  0  0  0  0  2  0  0  0  0  0  0
  -29.1240  -22.7760   20.6080 C   0  0  0  0  0  3  0  0  0  0  0  0
  -30.0440  -21.5710   21.1350 C   0  0  0  0  0  3  0  0  0  0  0  0
  -29.6460  -24.2860   20.6720 C   0  0  0  0  0  3  0  0  0  0  0  0
  -28.6470  -25.3750   20.0830 C   0  0  0  0  0  3  0  0  0  0  0  0
  -28.8300  -26.8230   20.3160 O   0  0  0  0  0  0  0  0  0  0  0  0
  -24.7770  -31.9780   23.3100 C   0  0  0  0  0  0  0  0  0  0  0  0
  -27.6790  -27.6270   20.2310 C   0  0  0  0  0  0  0  0  0  0  0  0
  -23.6850  -30.5670   21.6050 C   0  0  0  0  0  3  0  0  0  0  0  0
  -25.2440  -29.1250   20.1870 C   0  0  0  0  0  0  0  0  0  0  0  0
  -26.2120  -31.0070   21.5040 C   0  0  0  0  0  2  0  0  0  0  0  0
  -26.3720  -29.6510   20.8290 C   0  0  0  0  0  0  0  0  0  0  0  0
  -27.5930  -28.9140   20.8420 C   0  0  0  0  0  3  0  0  0  0  0  0
  -26.5260  -27.1600   19.5550 C   0  0  0  0  0  3  0  0  0  0  0  0
  -25.3220  -27.8830   19.5430 C   0  0  0  0  0  3  0  0  0  0  0  0
  -23.9680  -29.9380   20.2160 C   0  0  0  0  0  2  0  0  0  0  0  0
  -24.9080  -31.1990   22.1970 N   0  0  0  0  0  0  0  0  0  0  0  0
  -23.6680  -32.1940   23.8180 O   0  0  0  0  0  0  0  0  0  0  0  0
  -23.0420  -29.4970   22.5200 C   0  0  0  0  0  0  0  0  0  0  0  0
  -21.7350  -29.2510   22.3350 N   0  0  0  0  0  0  0  0  0  0  0  0
  -23.7200  -28.8950   23.3550 O   0  0  0  0  0  0  0  0  0  0  0  0
  -21.2450  -29.7950   21.6390 H   0  0  0  0  0  0  0  0  0  0  0  0
  -18.4070  -27.8740   22.6810 C   0  0  0  0  0  0  0  0  0  0  0  0
  -20.9360  -28.2600   23.0580 C   0  0  0  0  0  3  0  0  0  0  0  0
  -21.1350  -26.8450   22.4660 C   0  0  0  0  0  2  0  0  0  0  0  0
  -20.0910  -26.4830   21.4040 C   0  0  0  0  0  2  0  0  0  0  0  0
  -18.6800  -26.5460   21.9930 C   0  0  0  0  0  2  0  0  0  0  0  0
  -19.4670  -28.6850   23.1650 C   0  0  0  0  0  0  0  0  0  0  0  0
  -19.1590  -29.9260   23.7650 C   0  0  0  0  0  3  0  0  0  0  0  0
  -17.8250  -30.3560   23.8860 C   0  0  0  0  0  3  0  0  0  0  0  0
  -16.7780  -29.5430   23.4150 C   0  0  0  0  0  3  0  0  0  0  0  0
  -17.0700  -28.3030   22.8190 C   0  0  0  0  0  3  0  0  0  0  0  0
  -26.0120  -32.6510   23.9840 C   0  0  0  0  0  3  0  0  0  0  0  0
  -25.6540  -34.0470   24.2720 N   0  0  0  0  0  0  0  0  0  0  0  0
  -26.0020  -35.0950   23.5110 C   0  0  0  0  0  0  0  0  0  0  0  0
  -26.7260  -34.9890   22.5190 O   0  0  0  0  0  0  0  0  0  0  0  0
  -25.0160  -34.2000   25.0380 H   0  0  0  0  0  0  0  0  0  0  0  0
  -24.2510  -36.8370   23.0390 C   0  0  0  0  0  1  0  0  0  0  0  0
  -25.4600  -36.4780   23.9180 C   0  0  0  0  0  3  0  0  0  0  0  0
  -27.5280  -37.4310   24.8370 C   0  0  0  0  0  1  0  0  0  0  0  0
  -26.4710  -37.5550   23.8360 N   0  0  0  0  0  0  0  0  0  0  0  0
  -26.0370  -38.4670   23.9470 H   0  0  0  0  0  0  0  0  0  0  0  0
  -26.4810  -31.9140   25.2990 C   0  0  1  0  0  0  0  0  0  0  0  0
  -25.3380  -31.6590   26.3100 C   0  0  0  0  0  1  0  0  0  0  0  0
  -27.1250  -30.5500   24.9620 C   0  0  0  0  0  1  0  0  0  0  0  0
  -27.5690  -32.7530   26.0100 C   0  0  0  0  0  1  0  0  0  0  0  0
  -30.0470  -20.1510   20.3490 C   0  0  0  0  0  3  0  0  0  0  0  0
  -30.5340  -18.9570   21.1650 N   0  0  0  0  0  4  0  0  0  0  0  0
  -31.3730  -19.2400   21.6470 H   0  0  0  0  0  0  0  0  0  0  0  0
  -29.8420  -18.7800   21.8740 H   0  0  0  0  0  0  0  0  0  0  0  0
  -30.8500  -17.6390   20.4750 C   0  0  0  0  0  3  0  0  0  0  0  0
  -30.6340  -16.3070   21.3250 C   0  0  0  0  0  3  0  0  0  0  0  0
  -31.3380  -14.9870   20.8140 C   0  0  0  0  0  0  0  0  0  0  0  0
  -31.1430  -12.7440   19.7520 C   0  0  0  0  0  2  0  0  0  0  0  0
  -30.3150  -12.8820   18.4550 C   0  0  0  0  0  2  0  0  0  0  0  0
  -28.8060  -12.7690   18.7520 C   0  0  0  0  0  2  0  0  0  0  0  0
  -28.3650  -13.6560   19.9490 C   0  0  0  0  0  3  0  0  0  0  0  0
  -29.3200  -13.4880   21.1520 C   0  0  0  0  0  2  0  0  0  0  0  0
  -30.6820  -13.7870   20.6900 N   0  0  0  0  0  0  0  0  0  0  0  0
  -32.5100  -15.0890   20.4450 O   0  0  0  0  0  0  0  0  0  0  0  0
  -25.9290  -14.3120   20.4370 C   0  0  0  0  0  0  0  0  0  0  0  0
  -24.8180  -13.5680   20.7230 C   0  0  0  0  0  0  0  0  0  0  0  0
  -25.2520  -12.2070   20.7610 C   0  0  0  0  0  0  0  0  0  0  0  0
  -26.9730  -13.4080   20.3160 N   0  0  0  0  0  0  0  0  0  0  0  0
  -26.5640  -12.1390   20.5710 N   0  0  0  0  0  0  0  0  0  0  0  0
  -24.4850  -10.9640   20.9110 C   0  0  0  0  0  0  0  0  0  0  0  0
  -24.8140  -10.0080   21.8980 C   0  0  0  0  0  3  0  0  0  0  0  0
  -24.0480   -8.8300   22.0350 C   0  0  0  0  0  3  0  0  0  0  0  0
  -22.9420   -8.5980   21.1840 C   0  0  0  0  0  0  0  0  0  0  0  0
  -22.6330   -9.5430   20.1890 C   0  0  0  0  0  3  0  0  0  0  0  0
  -23.3990  -10.7120   20.0510 C   0  0  0  0  0  3  0  0  0  0  0  0
  -22.1560   -7.4710   21.2290 O   0  0  0  0  0  0  0  0  0  0  0  0
  -21.9810   -6.7610   22.3890 C   0  0  0  0  0  0  0  0  0  0  0  0
  -21.4420   -7.3550   23.5520 C   0  0  0  0  0  3  0  0  0  0  0  0
  -21.2140   -6.5730   24.7010 C   0  0  0  0  0  3  0  0  0  0  0  0
  -21.5120   -5.1970   24.6880 C   0  0  0  0  0  0  0  0  0  0  0  0
  -22.0440   -4.6030   23.5300 C   0  0  0  0  0  3  0  0  0  0  0  0
  -22.2740   -5.3830   22.3840 C   0  0  0  0  0  0  0  0  0  0  0  0
  -22.7670   -4.8000   21.2630 F   0  0  0  0  0  0  0  0  0  0  0  0
  -21.2860   -4.4430   25.7890 F   0  0  0  0  0  0  0  0  0  0  0  0
  -23.4120  -14.0770   20.8600 C   0  0  0  0  0  0  0  0  0  0  0  0
  -22.5980  -13.4170   21.6760 N   0  0  0  0  0  0  0  0  0  0  0  0
  -23.0410  -15.0970   20.2790 O   0  0  0  0  0  0  0  0  0  0  0  0
  -22.9060  -12.5910   22.1670 H   0  0  0  0  0  0  0  0  0  0  0  0
  -21.6500  -13.7420   21.8110 H   0  0  0  0  0  0  0  0  0  0  0  0
  -26.1370  -15.6760   20.2490 N   0  0  0  0  0  0  0  0  0  0  0  0
  -25.3750  -16.3440   20.2720 H   0  0  0  0  0  0  0  0  0  0  0  0
  -27.0180  -16.0890   19.9820 H   0  0  0  0  0  0  0  0  0  0  0  0
  -28.6970  -19.7960   19.6510 C   0  0  0  0  0  2  0  0  0  0  0  0
  -29.0130  -20.9450   17.3740 C   0  0  0  0  0  1  0  0  0  0  0  0
  -27.4900  -18.9520   17.5810 C   0  0  0  0  0  1  0  0  0  0  0  0
  -28.7690  -19.6190   18.1140 C   0  0  0  0  0  3  0  0  0  0  0  0
  1  3  1  0
  2  1  1  0
  4  6  1  0
  4  5  1  0
  4  2  1  0
  5 49  1  0
  5  3  1  0
  7  8  1  0
  7  6  2  0
  9 20  2  0
 10  8  1  0
 10 15  1  0
 11 19  1  0
 11 21  1  0
 12 18  1  0
 12 14  1  0
 13 19  1  0
 14 15  2  0
 14 13  1  0
 16 10  2  0
 17 16  1  0
 17 12  2  0
 18 11  1  0
 19  9  1  0
 21 23  2  0
 22 21  1  0
 24 22  1  0
 25 34  2  0
 25 30  1  0
 26 22  1  0
 26 30  1  0
 27 26  1  0
 28 29  1  0
 28 27  1  0
 29 25  1  0
 30 31  2  0
 31 32  1  0
 33 32  2  0
 34 33  1  0
 35  9  1  0
 35 36  1  0
 35 45  1  0
 36 39  1  0
 37 41  1  0
 37 36  1  0
 38 37  2  0
 41 40  1  0
 43 41  1  0
 43 44  1  0
 43 42  1  0
 45 48  1  1
 45 46  1  0
 47 45  1  0
 49 91  1  0
 49 50  1  0
 50 51  1  0
 50 52  1  0
 53 50  1  0
 53 54  2  0
 55 54  1  0
 56 61  1  0
 57 58  1  0
 57 56  1  0
 59 58  1  0
 59 66  1  0
 59 60  1  0
 61 55  1  0
 61 60  1  0
 62 55  2  0
 63 64  2  0
 64 65  1  0
 64 83  1  0
 65 68  1  0
 66 63  1  0
 66 67  1  0
 67 65  2  0
 68 69  1  0
 69 70  2  0
 71 74  1  0
 71 70  1  0
 72 71  2  0
 73 72  1  0
 73 68  2  0
 74 75  1  0
 75 76  1  0
 76 77  2  0
 78 77  1  0
 78 82  1  0
 79 78  2  0
 80 75  2  0
 80 79  1  0
 81 80  1  0
 83 84  1  0
 84 87  1  0
 84 86  1  0
 85 83  2  0
 88 89  1  0
 88 63  1  0
 90 88  1  0
 92 94  1  0
 93 94  1  0
 94 91  1  0
M  ISO  4   7 101   8 101  54 100  55 100
M  END
>  <TORSDO>  (93) 
F 24

>  <SCORE>  (93) 
-10.839

>  <name>  (93) 
94

>  <ligand_id>  (93) 
94

>  <original_smiles>  (93) 
[H]c1c([H])c([H])c2c(c1[H])C([H])([H])C([H])([H])C([H])([H])C2([H])N([H])C(=O)C1([H])N(C(=O)C([H])(N([H])C(=O)C([H])(N([H])C([H])([H])[H])C([H])([H])[H])C(C([H])([H])[H])(C([H])([H])[H])C([H])([H])[H])C([H])([H])c2c([H])c(OC([H])([H])C([H])([H])C3([H])C([H])([H])C([H])([H])C([H])([H])C3([H])C([H])(C([H])([H])C([H])(C([H])([H])[H])C([H])([H])[H])[N+]([H])([H])C([H])([H])C([H])([H])C(=O)N3C([H])([H])C([H])([H])C([H])([H])C([H])(n4nc(-c5c([H])c([H])c(Oc6c([H])c([H])c(F)c([H])c6F)c([H])c5[H])c(C(=O)N([H])[H])c4N([H])[H])C3([H])[H])c([H])c([H])c2C1([H])[H]

>  <smiles>  (93) 
[H]c1c([H])c([H])c2c(c1[H])C([H])([H])C([H])([H])C([H])([H])C2([H])N([H])C(=O)C1([H])N(C(=O)C([H])(N([H])C(=O)C([H])(N([H])C([H])([H])[H])C([H])([H])[H])C(C([H])([H])[H])(C([H])([H])[H])C([H])([H])[H])C([H])([H])c2c([H])c(OC([H])([H])C([H])([H])C3([H])C([H])([H])C([H])([H])C([H])([H])C3([H])C([H])(C([H])([H])C([H])(C([H])([H])[H])C([H])([H])[H])[N+]([H])([H])C([H])([H])C([H])([H])C(=O)N3C([H])([H])C([H])([H])C([H])([H])C([H])(n4nc(-c5c([H])c([H])c(Oc6c([H])c([H])c(F)c([H])c6F)c([H])c5[H])c(C(=O)N([H])[H])c4N([H])[H])C3([H])[H])c([H])c([H])c2C1([H])[H]

$$$$
95:0:0
     RDKit          3D

 93101  0  0  1  0  0  0  0  0999 V2000
  -29.0710  -22.1840   20.4600 C   0  0  0  0  0  3  0  0  0  0  0  0
  -28.8730  -21.8410   23.0310 C   0  0  0  0  0  1  0  0  0  0  0  0
  -31.1820  -22.2260   21.9980 C   0  0  0  0  0  1  0  0  0  0  0  0
  -29.6650  -22.4770   21.8750 C   0  0  0  0  0  3  0  0  0  0  0  0
  -29.6990  -20.8630   19.8480 N   0  0  0  0  0  4  0  0  0  0  0  0
  -29.4160  -20.8420   18.8810 H   0  0  0  0  0  0  0  0  0  0  0  0
  -30.6970  -21.0020   19.8350 H   0  0  0  0  0  0  0  0  0  0  0  0
  -28.4800  -17.5860   18.2040 C   0  0  0  0  0  2  0  0  0  0  0  0
  -27.5820  -18.6740   18.8230 C   0  0  0  0  0  2  0  0  0  0  0  0
  -29.9790  -17.8810   18.3980 C   0  0  0  0  0  2  0  0  0  0  0  0
  -27.9670  -19.0180   20.2760 C   0  0  0  0  0  2  0  0  0  0  0  0
  -30.3350  -18.0820   19.8860 C   0  0  0  0  0  3  0  0  0  0  0  0
  -29.4580  -19.4040   20.4150 C   0  0  0  0  0  3  0  0  0  0  0  0
  -30.2560  -16.6040   20.6680 C   0  0  0  0  0  2  0  0  0  0  0  0
  -31.0440  -15.2240   20.2430 C   0  0  0  0  0  0  0  0  0  0  0  0
  -30.8960  -12.8990   19.2630 C   0  0  0  0  0  2  0  0  0  0  0  0
  -29.9680  -12.9290   18.0250 C   0  0  0  0  0  2  0  0  0  0  0  0
  -28.4950  -12.7530   18.4400 C   0  0  0  0  0  2  0  0  0  0  0  0
  -28.1070  -13.6620   19.6330 C   0  0  0  0  0  3  0  0  0  0  0  0
  -29.1520  -13.6000   20.7670 C   0  0  0  0  0  2  0  0  0  0  0  0
  -30.4520  -13.9700   20.1930 N   0  0  0  0  0  0  0  0  0  0  0  0
  -32.2190  -15.3100   19.8710 O   0  0  0  0  0  0  0  0  0  0  0  0
  -25.7240  -14.2890   20.3380 C   0  0  0  0  0  0  0  0  0  0  0  0
  -24.6440  -13.5320   20.7010 C   0  0  0  0  0  0  0  0  0  0  0  0
  -25.0890  -12.1750   20.6840 C   0  0  0  0  0  0  0  0  0  0  0  0
  -26.7570  -13.3930   20.1140 N   0  0  0  0  0  0  0  0  0  0  0  0
  -26.3820  -12.1160   20.3870 N   0  0  0  0  0  0  0  0  0  0  0  0
  -24.3420  -10.9250   20.8740 C   0  0  0  0  0  0  0  0  0  0  0  0
  -24.7110   -9.9870   21.8640 C   0  0  0  0  0  3  0  0  0  0  0  0
  -23.9640   -8.8020   22.0410 C   0  0  0  0  0  3  0  0  0  0  0  0
  -22.8360   -8.5450   21.2260 C   0  0  0  0  0  0  0  0  0  0  0  0
  -22.4880   -9.4700   20.2250 C   0  0  0  0  0  3  0  0  0  0  0  0
  -23.2350  -10.6460   20.0480 C   0  0  0  0  0  3  0  0  0  0  0  0
  -22.0670   -7.4090   21.3080 O   0  0  0  0  0  0  0  0  0  0  0  0
  -21.8960   -6.7400   22.4930 C   0  0  0  0  0  0  0  0  0  0  0  0
  -21.3140   -7.3590   23.6210 C   0  0  0  0  0  3  0  0  0  0  0  0
  -21.0930   -6.6150   24.7980 C   0  0  0  0  0  3  0  0  0  0  0  0
  -21.4430   -5.2520   24.8450 C   0  0  0  0  0  0  0  0  0  0  0  0
  -22.0170   -4.6330   23.7210 C   0  0  0  0  0  3  0  0  0  0  0  0
  -22.2410   -5.3750   22.5480 C   0  0  0  0  0  0  0  0  0  0  0  0
  -22.7740   -4.7660   21.4610 F   0  0  0  0  0  0  0  0  0  0  0  0
  -21.2240   -4.5360   25.9720 F   0  0  0  0  0  0  0  0  0  0  0  0
  -23.2520  -14.0310   20.9540 C   0  0  0  0  0  0  0  0  0  0  0  0
  -22.5060  -13.3540   21.8210 N   0  0  0  0  0  0  0  0  0  0  0  0
  -22.8330  -15.0560   20.4180 O   0  0  0  0  0  0  0  0  0  0  0  0
  -22.8580  -12.5250   22.2760 H   0  0  0  0  0  0  0  0  0  0  0  0
  -21.5710  -13.6710   22.0330 H   0  0  0  0  0  0  0  0  0  0  0  0
  -25.9080  -15.6560   20.1530 N   0  0  0  0  0  0  0  0  0  0  0  0
  -25.1450  -16.3170   20.2500 H   0  0  0  0  0  0  0  0  0  0  0  0
  -26.7590  -16.0830   19.8150 H   0  0  0  0  0  0  0  0  0  0  0  0
  -29.0440  -23.6320   19.6080 C   0  0  0  0  0  3  0  0  0  0  0  0
  -28.1660  -24.9810   20.0730 C   0  0  0  0  0  3  0  0  0  0  0  0
  -28.3520  -26.4520   19.6340 O   0  0  0  0  0  0  0  0  0  0  0  0
  -24.7040  -31.8000   23.1170 C   0  0  0  0  0  0  0  0  0  0  0  0
  -27.2620  -27.3800   19.7040 C   0  0  0  0  0  0  0  0  0  0  0  0
  -23.4660  -30.4650   21.4530 C   0  0  0  0  0  3  0  0  0  0  0  0
  -24.8860  -29.0270   19.8740 C   0  0  0  0  0  0  0  0  0  0  0  0
  -25.9950  -30.8300   21.1840 C   0  0  0  0  0  2  0  0  0  0  0  0
  -26.0790  -29.4820   20.4540 C   0  0  0  0  0  0  0  0  0  0  0  0
  -27.2690  -28.6740   20.3530 C   0  0  0  0  0  3  0  0  0  0  0  0
  -26.0450  -27.0260   19.0830 C   0  0  0  0  0  3  0  0  0  0  0  0
  -24.8790  -27.8120   19.1730 C   0  0  0  0  0  3  0  0  0  0  0  0
  -23.6380  -29.8800   20.0280 C   0  0  0  0  0  2  0  0  0  0  0  0
  -24.7440  -31.0500   21.9740 N   0  0  0  0  0  0  0  0  0  0  0  0
  -23.6370  -32.0180   23.7120 O   0  0  0  0  0  0  0  0  0  0  0  0
  -22.8660  -29.3810   22.3830 C   0  0  0  0  0  0  0  0  0  0  0  0
  -21.5500  -29.1270   22.2580 N   0  0  0  0  0  0  0  0  0  0  0  0
  -23.5840  -28.7700   23.1800 O   0  0  0  0  0  0  0  0  0  0  0  0
  -21.0230  -29.6820   21.5990 H   0  0  0  0  0  0  0  0  0  0  0  0
  -18.2720  -27.6470   22.6810 C   0  0  0  0  0  0  0  0  0  0  0  0
  -20.7960  -28.1130   22.9990 C   0  0  0  0  0  3  0  0  0  0  0  0
  -21.0250  -26.7020   22.4070 C   0  0  0  0  0  2  0  0  0  0  0  0
  -19.9710  -26.3080   21.3680 C   0  0  0  0  0  2  0  0  0  0  0  0
  -18.5700  -26.3290   21.9860 C   0  0  0  0  0  2  0  0  0  0  0  0
  -19.3160  -28.4920   23.1420 C   0  0  0  0  0  0  0  0  0  0  0  0
  -18.9840  -29.7220   23.7500 C   0  0  0  0  0  3  0  0  0  0  0  0
  -17.6400  -30.1110   23.9010 C   0  0  0  0  0  3  0  0  0  0  0  0
  -16.6100  -29.2630   23.4570 C   0  0  0  0  0  3  0  0  0  0  0  0
  -16.9260  -28.0340   22.8520 C   0  0  0  0  0  3  0  0  0  0  0  0
  -25.9930  -32.4350   23.7210 C   0  0  0  0  0  3  0  0  0  0  0  0
  -25.6740  -33.8180   24.1070 N   0  0  0  0  0  0  0  0  0  0  0  0
  -25.9840  -34.9040   23.3870 C   0  0  0  0  0  0  0  0  0  0  0  0
  -26.6410  -34.8480   22.3450 O   0  0  0  0  0  0  0  0  0  0  0  0
  -25.0910  -33.9340   24.9240 H   0  0  0  0  0  0  0  0  0  0  0  0
  -24.2360  -36.6950   23.1310 C   0  0  0  0  0  1  0  0  0  0  0  0
  -25.4920  -36.2680   23.9080 C   0  0  0  0  0  3  0  0  0  0  0  0
  -27.6260  -37.1470   24.7500 C   0  0  0  0  0  1  0  0  0  0  0  0
  -26.5130  -37.3360   23.8220 N   0  0  0  0  0  0  0  0  0  0  0  0
  -26.1000  -38.2470   24.0050 H   0  0  0  0  0  0  0  0  0  0  0  0
  -26.5570  -31.6350   24.9590 C   0  0  1  0  0  0  0  0  0  0  0  0
  -25.4990  -31.3570   26.0520 C   0  0  0  0  0  1  0  0  0  0  0  0
  -27.1410  -30.2750   24.5130 C   0  0  0  0  0  1  0  0  0  0  0  0
  -27.7200  -32.4230   25.6080 C   0  0  0  0  0  1  0  0  0  0  0  0
  1 51  1  0
  1  4  1  0
  4  3  1  0
  4  2  1  0
  5  1  1  0
  6  5  1  0
  7  5  1  0
  8 10  1  0
  8  9  1  0
  9 11  1  0
 10 12  1  0
 11 13  1  0
 12 13  1  0
 12 14  1  0
 13  5  1  0
 15 14  1  0
 16 21  1  0
 17 18  1  0
 17 16  1  0
 19 18  1  0
 19 26  1  0
 19 20  1  0
 21 15  1  0
 21 20  1  0
 22 15  2  0
 23 24  2  0
 24 43  1  0
 25 24  1  0
 25 28  1  0
 26 23  1  0
 26 27  1  0
 27 25  2  0
 28 29  1  0
 29 30  2  0
 31 34  1  0
 31 30  1  0
 32 31  2  0
 33 32  1  0
 33 28  2  0
 34 35  1  0
 35 40  2  0
 35 36  1  0
 36 37  2  0
 37 38  1  0
 38 42  1  0
 39 38  2  0
 40 39  1  0
 41 40  1  0
 43 44  1  0
 44 47  1  0
 44 46  1  0
 45 43  2  0
 48 49  1  0
 48 23  1  0
 50 48  1  0
 51 52  2  0
 53 55  1  0
 53 52  1  0
 54 65  2  0
 55 60  1  0
 56 64  1  0
 56 66  1  0
 57 63  1  0
 57 59  1  0
 58 64  1  0
 59 58  1  0
 60 59  2  0
 61 62  1  0
 61 55  2  0
 62 57  2  0
 63 56  1  0
 64 54  1  0
 66 68  2  0
 67 66  1  0
 69 67  1  0
 70 79  2  0
 70 75  1  0
 71 67  1  0
 71 75  1  0
 72 71  1  0
 73 74  1  0
 73 72  1  0
 74 70  1  0
 75 76  2  0
 76 77  1  0
 78 77  2  0
 79 78  1  0
 80 54  1  0
 80 81  1  0
 80 90  1  0
 81 84  1  0
 82 86  1  0
 82 81  1  0
 83 82  2  0
 86 85  1  0
 88 86  1  0
 88 89  1  0
 88 87  1  0
 90 93  1  1
 90 91  1  0
 92 90  1  0
M  ISO  4  14 100  15 100  52 101  53 101
M  END
>  <TORSDO>  (94) 
F 22

>  <SCORE>  (94) 
-11.978

>  <name>  (94) 
95

>  <ligand_id>  (94) 
95

>  <original_smiles>  (94) 
[H]c1c([H])c([H])c2c(c1[H])C([H])([H])C([H])([H])C([H])([H])C2([H])N([H])C(=O)C1([H])N(C(=O)C([H])(N([H])C(=O)C([H])(N([H])C([H])([H])[H])C([H])([H])[H])C(C([H])([H])[H])(C([H])([H])[H])C([H])([H])[H])C([H])([H])c2c([H])c(OC([H])([H])C([H])([H])C([H])(C([H])(C([H])([H])[H])C([H])([H])[H])[N+]([H])([H])C3([H])C([H])([H])C([H])([H])C([H])([H])C([H])([H])C3([H])C([H])([H])C(=O)N3C([H])([H])C([H])([H])C([H])([H])C([H])(n4nc(-c5c([H])c([H])c(Oc6c([H])c([H])c(F)c([H])c6F)c([H])c5[H])c(C(=O)N([H])[H])c4N([H])[H])C3([H])[H])c([H])c([H])c2C1([H])[H]

>  <smiles>  (94) 
[H]c1c([H])c([H])c2c(c1[H])C([H])([H])C([H])([H])C([H])([H])C2([H])N([H])C(=O)C1([H])N(C(=O)C([H])(N([H])C(=O)C([H])(N([H])C([H])([H])[H])C([H])([H])[H])C(C([H])([H])[H])(C([H])([H])[H])C([H])([H])[H])C([H])([H])c2c([H])c(OC([H])([H])C([H])([H])C([H])(C([H])(C([H])([H])[H])C([H])([H])[H])[N+]([H])([H])C3([H])C([H])([H])C([H])([H])C([H])([H])C([H])([H])C3([H])C([H])([H])C(=O)N3C([H])([H])C([H])([H])C([H])([H])C([H])(n4nc(-c5c([H])c([H])c(Oc6c([H])c([H])c(F)c([H])c6F)c([H])c5[H])c(C(=O)N([H])[H])c4N([H])[H])C3([H])[H])c([H])c([H])c2C1([H])[H]

$$$$
96:0:0
     RDKit          3D

 90 99  0  0  1  0  0  0  0  0999 V2000
  -27.3000  -20.4130   18.7720 C   0  0  0  0  0  2  0  0  0  0  0  0
  -27.7900  -19.5290   19.9820 C   0  0  0  0  0  2  0  0  0  0  0  0
  -27.9640  -23.0070   18.7530 C   0  0  0  0  0  2  0  0  0  0  0  0
  -29.7430  -21.2640   18.4660 C   0  0  0  0  0  2  0  0  0  0  0  0
  -29.4420  -22.0380   20.7540 C   0  0  0  0  0  2  0  0  0  0  0  0
  -28.2450  -21.5660   18.2420 C   0  0  0  0  0  3  0  0  0  0  0  0
  -28.3600  -23.2110   20.2250 C   0  0  0  0  0  3  0  0  0  0  0  0
  -29.3140  -19.3390   19.9160 C   0  0  0  0  0  3  0  0  0  0  0  0
  -29.8920  -20.8070   19.8640 N   0  0  1  0  0  4  0  0  0  0  0  0
  -30.8850  -20.7050   20.0210 H   0  0  0  0  0  0  0  0  0  0  0  0
  -28.1590  -24.7900   20.8250 C   0  0  0  0  0  2  0  0  0  0  0  0
  -28.3190  -26.2160   20.2310 O   0  0  0  0  0  0  0  0  0  0  0  0
  -24.6220  -31.8810   23.2050 C   0  0  0  0  0  0  0  0  0  0  0  0
  -27.2420  -27.1720   20.2300 C   0  0  0  0  0  0  0  0  0  0  0  0
  -23.4350  -30.4660   21.5710 C   0  0  0  0  0  3  0  0  0  0  0  0
  -24.8980  -28.8840   20.1710 C   0  0  0  0  0  0  0  0  0  0  0  0
  -25.9850  -30.7520   21.4080 C   0  0  0  0  0  2  0  0  0  0  0  0
  -26.0730  -29.3530   20.7740 C   0  0  0  0  0  0  0  0  0  0  0  0
  -27.2490  -28.5140   20.7800 C   0  0  0  0  0  3  0  0  0  0  0  0
  -26.0420  -26.7920   19.5960 C   0  0  0  0  0  3  0  0  0  0  0  0
  -24.8940  -27.6150   19.5640 C   0  0  0  0  0  3  0  0  0  0  0  0
  -23.6650  -29.7730   20.2010 C   0  0  0  0  0  2  0  0  0  0  0  0
  -24.7010  -31.0550   22.1170 N   0  0  0  0  0  0  0  0  0  0  0  0
  -23.5330  -32.1620   23.7270 O   0  0  0  0  0  0  0  0  0  0  0  0
  -22.7580  -29.4640   22.5400 C   0  0  0  0  0  0  0  0  0  0  0  0
  -21.4300  -29.2960   22.4180 N   0  0  0  0  0  0  0  0  0  0  0  0
  -23.4320  -28.8400   23.3640 O   0  0  0  0  0  0  0  0  0  0  0  0
  -20.9430  -29.8510   21.7280 H   0  0  0  0  0  0  0  0  0  0  0  0
  -18.0450  -28.1150   22.9460 C   0  0  0  0  0  0  0  0  0  0  0  0
  -20.6080  -28.3620   23.1940 C   0  0  0  0  0  3  0  0  0  0  0  0
  -20.6960  -26.9300   22.6170 C   0  0  0  0  0  2  0  0  0  0  0  0
  -19.5850  -26.6150   21.6110 C   0  0  0  0  0  2  0  0  0  0  0  0
  -18.2090  -26.7660   22.2650 C   0  0  0  0  0  2  0  0  0  0  0  0
  -19.1720  -28.8710   23.3680 C   0  0  0  0  0  0  0  0  0  0  0  0
  -18.9640  -30.1330   23.9670 C   0  0  0  0  0  3  0  0  0  0  0  0
  -17.6620  -30.6380   24.1460 C   0  0  0  0  0  3  0  0  0  0  0  0
  -16.5500  -29.8800   23.7390 C   0  0  0  0  0  3  0  0  0  0  0  0
  -16.7440  -28.6200   23.1450 C   0  0  0  0  0  3  0  0  0  0  0  0
  -25.8950  -32.5260   23.8320 C   0  0  0  0  0  3  0  0  0  0  0  0
  -26.4030  -31.7700   25.1210 C   0  0  1  0  0  0  0  0  0  0  0  0
  -25.3030  -31.5370   26.1830 C   0  0  0  0  0  1  0  0  0  0  0  0
  -26.9960  -30.3910   24.7500 C   0  0  0  0  0  1  0  0  0  0  0  0
  -27.5460  -32.5750   25.7850 C   0  0  0  0  0  1  0  0  0  0  0  0
  -25.5750  -33.9270   24.1550 N   0  0  0  0  0  0  0  0  0  0  0  0
  -25.9050  -34.9810   23.3960 C   0  0  0  0  0  0  0  0  0  0  0  0
  -26.5790  -34.8770   22.3670 O   0  0  0  0  0  0  0  0  0  0  0  0
  -24.9790  -34.0810   24.9540 H   0  0  0  0  0  0  0  0  0  0  0  0
  -24.1820  -36.7760   23.0240 C   0  0  0  0  0  1  0  0  0  0  0  0
  -25.4140  -36.3690   23.8500 C   0  0  0  0  0  3  0  0  0  0  0  0
  -27.5350  -37.2590   24.7100 C   0  0  0  0  0  1  0  0  0  0  0  0
  -26.4480  -37.4220   23.7490 N   0  0  0  0  0  0  0  0  0  0  0  0
  -26.0390  -38.3430   23.8870 H   0  0  0  0  0  0  0  0  0  0  0  0
  -30.0960  -17.9860   20.5670 C   0  0  0  0  0  2  0  0  0  0  0  0
  -29.6080  -16.3770   20.3760 C   0  0  0  0  0  2  0  0  0  0  0  0
  -30.5240  -14.9880   20.2840 C   0  0  0  0  0  0  0  0  0  0  0  0
  -30.4420  -12.6400   19.3300 C   0  0  0  0  0  2  0  0  0  0  0  0
  -29.4960  -12.6360   18.1040 C   0  0  0  0  0  2  0  0  0  0  0  0
  -28.0310  -12.4220   18.5360 C   0  0  0  0  0  2  0  0  0  0  0  0
  -27.6360  -13.3190   19.7380 C   0  0  0  0  0  3  0  0  0  0  0  0
  -28.7000  -13.2920   20.8530 C   0  0  0  0  0  2  0  0  0  0  0  0
  -29.9780  -13.7070   20.2600 N   0  0  0  0  0  0  0  0  0  0  0  0
  -31.7270  -15.0810   20.0100 O   0  0  0  0  0  0  0  0  0  0  0  0
  -25.2590  -13.8890   20.4960 C   0  0  0  0  0  0  0  0  0  0  0  0
  -24.1980  -13.1100   20.8670 C   0  0  0  0  0  0  0  0  0  0  0  0
  -24.6660  -11.7600   20.8290 C   0  0  0  0  0  0  0  0  0  0  0  0
  -26.3020  -13.0140   20.2430 N   0  0  0  0  0  0  0  0  0  0  0  0
  -25.9560  -11.7280   20.5100 N   0  0  0  0  0  0  0  0  0  0  0  0
  -23.9430  -10.4960   21.0180 C   0  0  0  0  0  0  0  0  0  0  0  0
  -24.3710   -9.5320   21.9580 C   0  0  0  0  0  3  0  0  0  0  0  0
  -23.6460   -8.3340   22.1360 C   0  0  0  0  0  3  0  0  0  0  0  0
  -22.4800   -8.0900   21.3730 C   0  0  0  0  0  0  0  0  0  0  0  0
  -22.0710   -9.0410   20.4220 C   0  0  0  0  0  3  0  0  0  0  0  0
  -22.7960  -10.2320   20.2430 C   0  0  0  0  0  3  0  0  0  0  0  0
  -21.7280   -6.9420   21.4580 O   0  0  0  0  0  0  0  0  0  0  0  0
  -21.6560   -6.2130   22.6190 C   0  0  0  0  0  0  0  0  0  0  0  0
  -21.1760   -6.7760   23.8220 C   0  0  0  0  0  3  0  0  0  0  0  0
  -21.0520   -5.9730   24.9730 C   0  0  0  0  0  3  0  0  0  0  0  0
  -21.3980   -4.6090   24.9220 C   0  0  0  0  0  0  0  0  0  0  0  0
  -21.8700   -4.0470   23.7230 C   0  0  0  0  0  3  0  0  0  0  0  0
  -21.9960   -4.8460   22.5740 C   0  0  0  0  0  0  0  0  0  0  0  0
  -22.4320   -4.2950   21.4170 F   0  0  0  0  0  0  0  0  0  0  0  0
  -21.2720   -3.8350   26.0270 F   0  0  0  0  0  0  0  0  0  0  0  0
  -22.8020  -13.5820   21.1490 C   0  0  0  0  0  0  0  0  0  0  0  0
  -22.0790  -12.8780   22.0100 N   0  0  0  0  0  0  0  0  0  0  0  0
  -22.3620  -14.6120   20.6390 O   0  0  0  0  0  0  0  0  0  0  0  0
  -22.4480  -12.0450   22.4440 H   0  0  0  0  0  0  0  0  0  0  0  0
  -21.1420  -13.1780   22.2430 H   0  0  0  0  0  0  0  0  0  0  0  0
  -25.4220  -15.2610   20.3260 N   0  0  0  0  0  0  0  0  0  0  0  0
  -24.6570  -15.9160   20.4450 H   0  0  0  0  0  0  0  0  0  0  0  0
  -26.2700  -15.6990   19.9920 H   0  0  0  0  0  0  0  0  0  0  0  0
  1  2  1  0
  3  7  1  0
  4  9  1  0
  6  4  1  0
  6  3  1  0
  6  1  1  0
  7  5  1  0
  7 11  1  0
  8  2  1  0
  8 53  1  0
  9  8  1  0
  9 10  1  1
  9  5  1  0
 12 11  1  0
 13 24  2  0
 14 12  1  0
 14 19  1  0
 15 23  1  0
 15 25  1  0
 16 22  1  0
 16 18  1  0
 17 23  1  0
 18 19  2  0
 18 17  1  0
 20 14  2  0
 21 20  1  0
 21 16  2  0
 22 15  1  0
 23 13  1  0
 25 27  2  0
 26 25  1  0
 28 26  1  0
 29 38  2  0
 29 34  1  0
 30 26  1  0
 30 34  1  0
 31 30  1  0
 32 33  1  0
 32 31  1  0
 33 29  1  0
 34 35  2  0
 35 36  1  0
 37 36  2  0
 38 37  1  0
 39 13  1  0
 39 44  1  0
 39 40  1  0
 40 43  1  1
 40 41  1  0
 42 40  1  0
 44 47  1  0
 45 49  1  0
 45 44  1  0
 46 45  2  0
 49 48  1  0
 51 49  1  0
 51 52  1  0
 51 50  1  0
 54 53  1  0
 55 54  1  0
 56 61  1  0
 57 58  1  0
 57 56  1  0
 59 58  1  0
 59 66  1  0
 59 60  1  0
 61 55  1  0
 61 60  1  0
 62 55  2  0
 63 64  2  0
 64 83  1  0
 65 64  1  0
 65 68  1  0
 66 63  1  0
 66 67  1  0
 67 65  2  0
 68 69  1  0
 69 70  2  0
 71 74  1  0
 71 70  1  0
 72 71  2  0
 73 72  1  0
 73 68  2  0
 74 75  1  0
 75 76  1  0
 76 77  2  0
 78 77  1  0
 78 82  1  0
 79 78  2  0
 80 75  2  0
 80 79  1  0
 81 80  1  0
 83 84  1  0
 84 87  1  0
 84 86  1  0
 85 83  2  0
 88 89  1  0
 88 63  1  0
 90 88  1  0
M  ISO  4  11 101  12 101  54 100  55 100
M  END
>  <TORSDO>  (95) 
F 19

>  <SCORE>  (95) 
-14.878

>  <name>  (95) 
96

>  <ligand_id>  (95) 
96

>  <original_smiles>  (95) 
[H]c1c([H])c([H])c2c(c1[H])C([H])([H])C([H])([H])C([H])([H])C2([H])N([H])C(=O)C1([H])N(C(=O)C([H])(N([H])C(=O)C([H])(N([H])C([H])([H])[H])C([H])([H])[H])C(C([H])([H])[H])(C([H])([H])[H])C([H])([H])[H])C([H])([H])c2c([H])c(OC([H])([H])C3([H])C([H])([H])C4([H])C([H])([H])C([H])([H])C([H])(C([H])([H])C([H])([H])C(=O)N5C([H])([H])C([H])([H])C([H])([H])C([H])(n6nc(-c7c([H])c([H])c(Oc8c([H])c([H])c(F)c([H])c8F)c([H])c7[H])c(C(=O)N([H])[H])c6N([H])[H])C5([H])[H])[N+]([H])(C3([H])[H])C4([H])[H])c([H])c([H])c2C1([H])[H]

>  <smiles>  (95) 
[H]c1c([H])c([H])c2c(c1[H])C([H])([H])C([H])([H])C([H])([H])C2([H])N([H])C(=O)C1([H])N(C(=O)C([H])(N([H])C(=O)C([H])(N([H])C([H])([H])[H])C([H])([H])[H])C(C([H])([H])[H])(C([H])([H])[H])C([H])([H])[H])C([H])([H])c2c([H])c(OC([H])([H])C3([H])C([H])([H])C4([H])C([H])([H])C([H])([H])C([H])(C([H])([H])C([H])([H])C(=O)N5C([H])([H])C([H])([H])C([H])([H])C([H])(n6nc(-c7c([H])c([H])c(Oc8c([H])c([H])c(F)c([H])c8F)c([H])c7[H])c(C(=O)N([H])[H])c6N([H])[H])C5([H])[H])[N+]([H])(C3([H])[H])C4([H])[H])c([H])c([H])c2C1([H])[H]

$$$$
97:0:0
     RDKit          3D

 85 93  0  0  1  0  0  0  0  0999 V2000
  -29.5240  -21.9100   18.8130 C   0  0  0  0  0  2  0  0  0  0  0  0
  -28.5090  -20.7460   18.7640 C   0  0  0  0  0  2  0  0  0  0  0  0
  -28.9960  -22.2620   20.2020 C   0  0  0  0  0  3  0  0  0  0  0  0
  -28.7070  -20.5150   20.1920 N   0  0  2  0  0  4  0  0  0  0  0  0
  -27.8250  -20.3520   20.6510 H   0  0  0  0  0  0  0  0  0  0  0  0
  -27.9470  -23.8680   20.2100 C   0  0  0  0  0  2  0  0  0  0  0  0
  -28.1390  -25.5980   20.2440 O   0  0  0  0  0  0  0  0  0  0  0  0
  -24.5970  -31.8240   23.1490 C   0  0  0  0  0  0  0  0  0  0  0  0
  -27.1460  -26.7750   20.1940 C   0  0  0  0  0  0  0  0  0  0  0  0
  -23.4130  -30.4120   21.5190 C   0  0  0  0  0  3  0  0  0  0  0  0
  -24.8650  -28.7660   20.1220 C   0  0  0  0  0  0  0  0  0  0  0  0
  -25.9900  -30.5750   21.3960 C   0  0  0  0  0  2  0  0  0  0  0  0
  -26.0590  -29.1430   20.7500 C   0  0  0  0  0  0  0  0  0  0  0  0
  -27.1870  -28.1750   20.7520 C   0  0  0  0  0  3  0  0  0  0  0  0
  -25.9170  -26.5930   19.5150 C   0  0  0  0  0  3  0  0  0  0  0  0
  -24.8300  -27.5160   19.4810 C   0  0  0  0  0  3  0  0  0  0  0  0
  -23.6540  -29.7080   20.1550 C   0  0  0  0  0  2  0  0  0  0  0  0
  -24.6910  -30.9690   22.0730 N   0  0  0  0  0  0  0  0  0  0  0  0
  -23.5030  -32.1230   23.6570 O   0  0  0  0  0  0  0  0  0  0  0  0
  -22.7000  -29.4380   22.4950 C   0  0  0  0  0  0  0  0  0  0  0  0
  -21.3650  -29.2960   22.3820 N   0  0  0  0  0  0  0  0  0  0  0  0
  -23.3590  -28.8060   23.3250 O   0  0  0  0  0  0  0  0  0  0  0  0
  -20.8850  -29.8550   21.6900 H   0  0  0  0  0  0  0  0  0  0  0  0
  -17.9700  -28.1270   22.9310 C   0  0  0  0  0  0  0  0  0  0  0  0
  -20.5360  -28.3680   23.1610 C   0  0  0  0  0  3  0  0  0  0  0  0
  -20.6130  -26.9350   22.5850 C   0  0  0  0  0  2  0  0  0  0  0  0
  -19.4970  -26.6260   21.5820 C   0  0  0  0  0  2  0  0  0  0  0  0
  -18.1240  -26.7810   22.2430 C   0  0  0  0  0  2  0  0  0  0  0  0
  -19.1010  -28.8790   23.3480 C   0  0  0  0  0  0  0  0  0  0  0  0
  -18.8980  -30.1370   23.9570 C   0  0  0  0  0  3  0  0  0  0  0  0
  -17.5990  -30.6430   24.1480 C   0  0  0  0  0  3  0  0  0  0  0  0
  -16.4830  -29.8900   23.7450 C   0  0  0  0  0  3  0  0  0  0  0  0
  -16.6690  -28.6330   23.1430 C   0  0  0  0  0  3  0  0  0  0  0  0
  -25.8600  -32.4780   23.7860 C   0  0  0  0  0  3  0  0  0  0  0  0
  -26.3700  -31.7130   25.0700 C   0  0  1  0  0  0  0  0  0  0  0  0
  -25.2720  -31.4750   26.1350 C   0  0  0  0  0  1  0  0  0  0  0  0
  -26.9590  -30.3340   24.6970 C   0  0  0  0  0  1  0  0  0  0  0  0
  -27.5160  -32.5110   25.7350 C   0  0  0  0  0  1  0  0  0  0  0  0
  -25.5280  -33.8730   24.1360 N   0  0  0  0  0  0  0  0  0  0  0  0
  -25.8370  -34.9470   23.3980 C   0  0  0  0  0  0  0  0  0  0  0  0
  -26.4930  -34.8700   22.3560 O   0  0  0  0  0  0  0  0  0  0  0  0
  -24.9420  -34.0060   24.9480 H   0  0  0  0  0  0  0  0  0  0  0  0
  -24.0800  -36.7320   23.1250 C   0  0  0  0  0  1  0  0  0  0  0  0
  -25.3500  -36.3270   23.8910 C   0  0  0  0  0  3  0  0  0  0  0  0
  -27.4970  -37.2320   24.6690 C   0  0  0  0  0  1  0  0  0  0  0  0
  -26.3660  -37.3960   23.7610 N   0  0  0  0  0  0  0  0  0  0  0  0
  -25.9530  -38.3090   23.9310 H   0  0  0  0  0  0  0  0  0  0  0  0
  -29.6710  -19.0710   20.4200 C   0  0  0  0  0  3  0  0  0  0  0  0
  -29.3650  -17.1870   20.3500 C   0  0  0  0  0  3  0  0  0  0  0  0
  -30.2740  -15.5760   20.3150 C   0  0  0  0  0  0  0  0  0  0  0  0
  -30.4310  -13.0330   19.5480 C   0  0  0  0  0  2  0  0  0  0  0  0
  -29.5520  -12.6770   18.3160 C   0  0  0  0  0  2  0  0  0  0  0  0
  -28.1130  -12.3330   18.7380 C   0  0  0  0  0  2  0  0  0  0  0  0
  -27.5910  -13.3260   19.8020 C   0  0  0  0  0  3  0  0  0  0  0  0
  -28.6040  -13.6070   20.9320 C   0  0  0  0  0  2  0  0  0  0  0  0
  -29.8100  -14.1970   20.3130 N   0  0  0  0  0  0  0  0  0  0  0  0
  -31.5050  -15.5610   20.1250 O   0  0  0  0  0  0  0  0  0  0  0  0
  -25.2160  -13.8400   20.5480 C   0  0  0  0  0  0  0  0  0  0  0  0
  -24.1610  -13.0500   20.9090 C   0  0  0  0  0  0  0  0  0  0  0  0
  -24.6460  -11.7060   20.8840 C   0  0  0  0  0  0  0  0  0  0  0  0
  -26.2700  -12.9790   20.3080 N   0  0  0  0  0  0  0  0  0  0  0  0
  -25.9420  -11.6880   20.5810 N   0  0  0  0  0  0  0  0  0  0  0  0
  -23.9300  -10.4360   21.0700 C   0  0  0  0  0  0  0  0  0  0  0  0
  -24.3680   -9.4690   22.0020 C   0  0  0  0  0  3  0  0  0  0  0  0
  -23.6470   -8.2670   22.1800 C   0  0  0  0  0  3  0  0  0  0  0  0
  -22.4760   -8.0230   21.4240 C   0  0  0  0  0  0  0  0  0  0  0  0
  -22.0580   -8.9790   20.4810 C   0  0  0  0  0  3  0  0  0  0  0  0
  -22.7780  -10.1710   20.3020 C   0  0  0  0  0  3  0  0  0  0  0  0
  -21.7290   -6.8730   21.5090 O   0  0  0  0  0  0  0  0  0  0  0  0
  -21.6880   -6.1230   22.6570 C   0  0  0  0  0  0  0  0  0  0  0  0
  -21.2730   -6.6710   23.8900 C   0  0  0  0  0  3  0  0  0  0  0  0
  -21.1820   -5.8470   25.0300 C   0  0  0  0  0  3  0  0  0  0  0  0
  -21.4950   -4.4780   24.9380 C   0  0  0  0  0  0  0  0  0  0  0  0
  -21.9030   -3.9300   23.7100 C   0  0  0  0  0  3  0  0  0  0  0  0
  -21.9970   -4.7510   22.5710 C   0  0  0  0  0  0  0  0  0  0  0  0
  -22.3700   -4.2130   21.3850 F   0  0  0  0  0  0  0  0  0  0  0  0
  -21.4000   -3.6850   26.0310 F   0  0  0  0  0  0  0  0  0  0  0  0
  -22.7570  -13.5120   21.1600 C   0  0  0  0  0  0  0  0  0  0  0  0
  -22.0280  -12.8170   22.0260 N   0  0  0  0  0  0  0  0  0  0  0  0
  -22.3130  -14.5280   20.6230 O   0  0  0  0  0  0  0  0  0  0  0  0
  -22.4020  -11.9980   22.4830 H   0  0  0  0  0  0  0  0  0  0  0  0
  -21.0840  -13.1070   22.2360 H   0  0  0  0  0  0  0  0  0  0  0  0
  -25.3660  -15.2130   20.3720 N   0  0  0  0  0  0  0  0  0  0  0  0
  -24.5910  -15.8590   20.4760 H   0  0  0  0  0  0  0  0  0  0  0  0
  -26.2120  -15.6600   20.0470 H   0  0  0  0  0  0  0  0  0  0  0  0
  1  3  1  0
  2  1  1  0
  2  4  1  0
  3  6  1  0
  4  3  1  0
  4 48  1  0
  4  5  1  1
  6  7  1  0
  8 19  2  0
  9  7  1  0
  9 14  1  0
 10 18  1  0
 10 20  1  0
 11 17  1  0
 11 13  1  0
 12 18  1  0
 13 14  2  0
 13 12  1  0
 15  9  2  0
 16 15  1  0
 16 11  2  0
 17 10  1  0
 18  8  1  0
 20 22  2  0
 21 20  1  0
 23 21  1  0
 24 33  2  0
 24 29  1  0
 25 21  1  0
 25 29  1  0
 26 25  1  0
 27 28  1  0
 27 26  1  0
 28 24  1  0
 29 30  2  0
 30 31  1  0
 32 31  2  0
 33 32  1  0
 34  8  1  0
 34 39  1  0
 34 35  1  0
 35 38  1  1
 35 36  1  0
 37 35  1  0
 39 42  1  0
 40 44  1  0
 40 39  1  0
 41 40  2  0
 44 43  1  0
 46 44  1  0
 46 47  1  0
 46 45  1  0
 49 48  2  0
 50 49  1  0
 51 56  1  0
 52 53  1  0
 52 51  1  0
 54 53  1  0
 54 61  1  0
 54 55  1  0
 56 50  1  0
 56 55  1  0
 57 50  2  0
 58 59  2  0
 59 78  1  0
 60 59  1  0
 60 63  1  0
 61 58  1  0
 61 62  1  0
 62 60  2  0
 63 64  1  0
 64 65  2  0
 66 69  1  0
 66 65  1  0
 67 66  2  0
 68 67  1  0
 68 63  2  0
 69 70  1  0
 70 71  1  0
 71 72  2  0
 73 72  1  0
 73 77  1  0
 74 73  2  0
 75 70  2  0
 75 74  1  0
 76 75  1  0
 78 79  1  0
 79 82  1  0
 79 81  1  0
 80 78  2  0
 83 84  1  0
 83 58  1  0
 85 83  1  0
M  ISO  4   6 101   7 101  49 100  50 100
M  END
>  <TORSDO>  (96) 
F 19

>  <SCORE>  (96) 
-16.339

>  <name>  (96) 
97

>  <ligand_id>  (96) 
97

>  <original_smiles>  (96) 
[H]c1c([H])c([H])c2c(c1[H])C([H])([H])C([H])([H])C([H])([H])C2([H])N([H])C(=O)C1([H])N(C(=O)C([H])(N([H])C(=O)C([H])(N([H])C([H])([H])[H])C([H])([H])[H])C(C([H])([H])[H])(C([H])([H])[H])C([H])([H])[H])C([H])([H])c2c([H])c(OC([H])([H])C3([H])C([H])([H])C([H])([H])[N+]3([H])C([H])([H])C([H])([H])C(=O)N3C([H])([H])C([H])([H])C([H])([H])C([H])(n4nc(-c5c([H])c([H])c(Oc6c([H])c([H])c(F)c([H])c6F)c([H])c5[H])c(C(=O)N([H])[H])c4N([H])[H])C3([H])[H])c([H])c([H])c2C1([H])[H]

>  <smiles>  (96) 
[H]c1c([H])c([H])c2c(c1[H])C([H])([H])C([H])([H])C([H])([H])C2([H])N([H])C(=O)C1([H])N(C(=O)C([H])(N([H])C(=O)C([H])(N([H])C([H])([H])[H])C([H])([H])[H])C(C([H])([H])[H])(C([H])([H])[H])C([H])([H])[H])C([H])([H])c2c([H])c(OC([H])([H])C3([H])C([H])([H])C([H])([H])[N+]3([H])C([H])([H])C([H])([H])C(=O)N3C([H])([H])C([H])([H])C([H])([H])C([H])(n4nc(-c5c([H])c([H])c(Oc6c([H])c([H])c(F)c([H])c6F)c([H])c5[H])c(C(=O)N([H])[H])c4N([H])[H])C3([H])[H])c([H])c([H])c2C1([H])[H]

$$$$
