0:0:0
     RDKit          3D

 96103  0  0  1  0  0  0  0  0999 V2000
  -31.8170  -20.7250   20.8490 C   0  0  0  0  0  1  0  0  0  0  0  0
  -30.3060  -20.4930   20.6760 C   0  0  0  0  0  3  0  0  0  0  0  0
  -29.6990  -21.6650   19.9690 N   0  0  0  0  0  4  0  0  0  0  0  0
  -30.3850  -22.0020   19.3160 H   0  0  0  0  0  0  0  0  0  0  0  0
  -28.9660  -21.2580   19.4020 H   0  0  0  0  0  0  0  0  0  0  0  0
  -29.1840  -22.7940   20.7980 C   0  0  0  0  0  2  0  0  0  0  0  0
  -28.9740  -24.1240   20.0000 C   0  0  0  0  0  2  0  0  0  0  0  0
  -28.3550  -25.2840   20.8300 C   0  0  0  0  0  2  0  0  0  0  0  0
  -28.4190  -26.5630   20.1630 O   0  0  0  0  0  0  0  0  0  0  0  0
  -24.5840  -31.7590   23.2250 C   0  0  0  0  0  0  0  0  0  0  0  0
  -27.2540  -27.3060   20.1710 C   0  0  0  0  0  0  0  0  0  0  0  0
  -23.3880  -30.3490   21.5820 C   0  0  0  0  0  3  0  0  0  0  0  0
  -24.8530  -28.8110   20.1650 C   0  0  0  0  0  0  0  0  0  0  0  0
  -25.9130  -30.7180   21.3890 C   0  0  0  0  0  2  0  0  0  0  0  0
  -26.0100  -29.3440   20.7500 C   0  0  0  0  0  0  0  0  0  0  0  0
  -27.2170  -28.6010   20.7450 C   0  0  0  0  0  3  0  0  0  0  0  0
  -26.0820  -26.7870   19.5830 C   0  0  0  0  0  3  0  0  0  0  0  0
  -24.8820  -27.5300   19.5800 C   0  0  0  0  0  3  0  0  0  0  0  0
  -23.6060  -29.6670   20.2050 C   0  0  0  0  0  2  0  0  0  0  0  0
  -24.6470  -30.9570   22.1220 N   0  0  0  0  0  0  0  0  0  0  0  0
  -23.4990  -32.0300   23.7570 O   0  0  0  0  0  0  0  0  0  0  0  0
  -22.7330  -29.3280   22.5400 C   0  0  0  0  0  0  0  0  0  0  0  0
  -21.4090  -29.1460   22.4080 N   0  0  0  0  0  0  0  0  0  0  0  0
  -23.4120  -28.6970   23.3540 O   0  0  0  0  0  0  0  0  0  0  0  0
  -20.9210  -29.7110   21.7270 H   0  0  0  0  0  0  0  0  0  0  0  0
  -18.0310  -27.9510   22.8830 C   0  0  0  0  0  0  0  0  0  0  0  0
  -20.5880  -28.2080   23.1720 C   0  0  0  0  0  3  0  0  0  0  0  0
  -20.6910  -26.7770   22.5950 C   0  0  0  0  0  2  0  0  0  0  0  0
  -19.5960  -26.4560   21.5730 C   0  0  0  0  0  2  0  0  0  0  0  0
  -18.2100  -26.6000   22.2090 C   0  0  0  0  0  2  0  0  0  0  0  0
  -19.1480  -28.7120   23.3180 C   0  0  0  0  0  0  0  0  0  0  0  0
  -18.9290  -29.9750   23.9080 C   0  0  0  0  0  3  0  0  0  0  0  0
  -17.6240  -30.4800   24.0650 C   0  0  0  0  0  3  0  0  0  0  0  0
  -16.5210  -29.7160   23.6480 C   0  0  0  0  0  3  0  0  0  0  0  0
  -16.7240  -28.4520   23.0640 C   0  0  0  0  0  3  0  0  0  0  0  0
  -25.8660  -32.3910   23.8520 C   0  0  0  0  0  3  0  0  0  0  0  0
  -26.3850  -31.6140   25.1220 C   0  0  1  0  0  0  0  0  0  0  0  0
  -25.2930  -31.3660   26.1890 C   0  0  0  0  0  1  0  0  0  0  0  0
  -26.9780  -30.2430   24.7150 C   0  0  0  0  0  1  0  0  0  0  0  0
  -27.5350  -32.4070   25.7870 C   0  0  0  0  0  1  0  0  0  0  0  0
  -25.5540  -33.7860   24.1900 N   0  0  0  0  0  0  0  0  0  0  0  0
  -25.8790  -34.8400   23.4310 C   0  0  0  0  0  0  0  0  0  0  0  0
  -26.5450  -34.7400   22.3960 O   0  0  0  0  0  0  0  0  0  0  0  0
  -24.9650  -33.9390   24.9940 H   0  0  0  0  0  0  0  0  0  0  0  0
  -24.1370  -36.6210   23.0900 C   0  0  0  0  0  1  0  0  0  0  0  0
  -25.3870  -36.2260   23.8930 C   0  0  0  0  0  3  0  0  0  0  0  0
  -27.5210  -37.1200   24.7060 C   0  0  0  0  0  1  0  0  0  0  0  0
  -26.4100  -37.2850   23.7730 N   0  0  0  0  0  0  0  0  0  0  0  0
  -25.9990  -38.2020   23.9280 H   0  0  0  0  0  0  0  0  0  0  0  0
  -29.9380  -19.1280   19.9630 C   0  0  0  0  0  3  0  0  0  0  0  0
  -28.1910  -18.9380   18.2960 C   0  0  0  0  0  1  0  0  0  0  0  0
  -29.5140  -19.4760   18.6050 N   0  0  0  0  0  0  0  0  0  0  0  0
  -30.1990  -19.1420   17.9280 H   0  0  0  0  0  0  0  0  0  0  0  0
  -31.0240  -17.9840   19.8560 C   0  0  0  0  0  2  0  0  0  0  0  0
  -31.3830  -17.0050   21.0440 C   0  0  0  0  0  3  0  0  0  0  0  0
  -30.1920  -17.7580   23.1540 C   0  0  0  0  0  1  0  0  0  0  0  0
  -31.4600  -17.6220   22.3970 N   0  0  0  0  0  4  0  0  0  0  0  0
  -32.0450  -17.0160   22.9530 H   0  0  0  0  0  0  0  0  0  0  0  0
  -31.9490  -18.5010   22.3690 H   0  0  0  0  0  0  0  0  0  0  0  0
  -30.6440  -15.6190   21.0680 C   0  0  0  0  0  2  0  0  0  0  0  0
  -31.2340  -14.4490   20.2360 C   0  0  0  0  0  0  0  0  0  0  0  0
  -30.8140  -12.3210   19.0410 C   0  0  0  0  0  2  0  0  0  0  0  0
  -29.8470  -12.5540   17.8620 C   0  0  0  0  0  2  0  0  0  0  0  0
  -28.3790  -12.4910   18.3250 C   0  0  0  0  0  2  0  0  0  0  0  0
  -28.1130  -13.3470   19.5910 C   0  0  0  0  0  3  0  0  0  0  0  0
  -29.1770  -13.0690   20.6750 C   0  0  0  0  0  2  0  0  0  0  0  0
  -30.5040  -13.3090   20.0850 N   0  0  0  0  0  0  0  0  0  0  0  0
  -32.3270  -14.6010   19.6820 O   0  0  0  0  0  0  0  0  0  0  0  0
  -25.7680  -14.0890   20.3540 C   0  0  0  0  0  0  0  0  0  0  0  0
  -24.6650  -13.3780   20.7390 C   0  0  0  0  0  0  0  0  0  0  0  0
  -25.0440  -12.0000   20.6900 C   0  0  0  0  0  0  0  0  0  0  0  0
  -26.7560  -13.1490   20.0950 N   0  0  0  0  0  0  0  0  0  0  0  0
  -26.3240  -11.8890   20.3560 N   0  0  0  0  0  0  0  0  0  0  0  0
  -24.2490  -10.7820   20.8860 C   0  0  0  0  0  0  0  0  0  0  0  0
  -24.6350   -9.7920   21.8170 C   0  0  0  0  0  3  0  0  0  0  0  0
  -23.8460   -8.6360   21.9990 C   0  0  0  0  0  3  0  0  0  0  0  0
  -22.6570   -8.4620   21.2520 C   0  0  0  0  0  0  0  0  0  0  0  0
  -22.2900   -9.4410   20.3110 C   0  0  0  0  0  3  0  0  0  0  0  0
  -23.0780  -10.5880   20.1260 C   0  0  0  0  0  3  0  0  0  0  0  0
  -21.8410   -7.3610   21.3450 O   0  0  0  0  0  0  0  0  0  0  0  0
  -21.7330   -6.6410   22.5080 C   0  0  0  0  0  0  0  0  0  0  0  0
  -21.3360   -7.2420   23.7220 C   0  0  0  0  0  3  0  0  0  0  0  0
  -21.1710   -6.4520   24.8780 C   0  0  0  0  0  3  0  0  0  0  0  0
  -21.3940   -5.0640   24.8200 C   0  0  0  0  0  0  0  0  0  0  0  0
  -21.7840   -4.4630   23.6110 C   0  0  0  0  0  3  0  0  0  0  0  0
  -21.9520   -5.2500   22.4570 C   0  0  0  0  0  0  0  0  0  0  0  0
  -22.3080   -4.6620   21.2890 F   0  0  0  0  0  0  0  0  0  0  0  0
  -21.2290   -4.3030   25.9290 F   0  0  0  0  0  0  0  0  0  0  0  0
  -23.3020  -13.9320   21.0430 C   0  0  0  0  0  0  0  0  0  0  0  0
  -22.5570  -13.2810   21.9270 N   0  0  0  0  0  0  0  0  0  0  0  0
  -22.9100  -14.9820   20.5300 O   0  0  0  0  0  0  0  0  0  0  0  0
  -22.8870  -12.4330   22.3650 H   0  0  0  0  0  0  0  0  0  0  0  0
  -21.6410  -13.6320   22.1700 H   0  0  0  0  0  0  0  0  0  0  0  0
  -26.0130  -15.4480   20.1800 N   0  0  0  0  0  0  0  0  0  0  0  0
  -25.2860  -16.1460   20.2940 H   0  0  0  0  0  0  0  0  0  0  0  0
  -26.8760  -15.8280   19.8150 H   0  0  0  0  0  0  0  0  0  0  0  0
  2  1  1  0
  3  2  1  0
  3  6  1  0
  4  3  1  0
  5  3  1  0
  7  6  1  0
  7  8  1  0
  9 11  1  0
  9  8  1  0
 10 21  2  0
 11 16  1  0
 12 20  1  0
 12 22  1  0
 13 19  1  0
 13 15  1  0
 14 20  1  0
 15 14  1  0
 16 15  2  0
 17 11  2  0
 18 17  1  0
 18 13  2  0
 19 12  1  0
 20 10  1  0
 22 24  2  0
 23 22  1  0
 25 23  1  0
 26 35  2  0
 26 31  1  0
 27 23  1  0
 27 31  1  0
 28 27  1  0
 29 30  1  0
 29 28  1  0
 30 26  1  0
 31 32  2  0
 32 33  1  0
 34 33  2  0
 35 34  1  0
 36 10  1  0
 36 41  1  0
 36 37  1  0
 37 40  1  1
 37 38  1  0
 39 37  1  0
 41 44  1  0
 42 46  1  0
 42 41  1  0
 43 42  2  0
 46 45  1  0
 48 46  1  0
 48 49  1  0
 48 47  1  0
 50 54  1  0
 50  2  1  0
 51 52  1  0
 52 50  1  0
 53 52  1  0
 55 54  1  0
 55 60  1  0
 55 57  1  0
 57 58  1  0
 57 56  1  0
 59 57  1  0
 61 60  1  0
 62 67  1  0
 63 64  1  0
 63 62  1  0
 65 64  1  0
 65 72  1  0
 65 66  1  0
 67 61  1  0
 67 66  1  0
 68 61  2  0
 69 70  2  0
 70 89  1  0
 71 70  1  0
 71 74  1  0
 72 69  1  0
 72 73  1  0
 73 71  2  0
 74 75  1  0
 75 76  2  0
 77 80  1  0
 77 76  1  0
 78 77  2  0
 79 78  1  0
 79 74  2  0
 80 81  1  0
 81 82  1  0
 82 83  2  0
 84 83  1  0
 84 88  1  0
 85 84  2  0
 86 81  2  0
 86 85  1  0
 87 86  1  0
 89 90  1  0
 90 93  1  0
 90 92  1  0
 91 89  2  0
 94 95  1  0
 94 69  1  0
 96 94  1  0
M  ISO  4   8 101   9 101  60 100  61 100
M  END
>  <TORSDO>  (1) 
F 26

>  <SCORE>  (1) 
-10.919

>  <name>  (1) 
0

>  <ligand_id>  (1) 
0

>  <original_smiles>  (1) 
[H]c1c([H])c([H])c2c(c1[H])C([H])([H])C([H])([H])C([H])([H])C2([H])N([H])C(=O)C1([H])N(C(=O)C([H])(N([H])C(=O)C([H])(N([H])C([H])([H])[H])C([H])([H])[H])C(C([H])([H])[H])(C([H])([H])[H])C([H])([H])[H])C([H])([H])c2c([H])c(OC([H])([H])C([H])([H])C([H])([H])[N+]([H])([H])C([H])(C([H])([H])[H])C([H])(N([H])C([H])([H])[H])C([H])([H])C([H])(C([H])([H])C(=O)N3C([H])([H])C([H])([H])C([H])([H])C([H])(n4nc(-c5c([H])c([H])c(Oc6c([H])c([H])c(F)c([H])c6F)c([H])c5[H])c(C(=O)N([H])[H])c4N([H])[H])C3([H])[H])[N+]([H])([H])C([H])([H])[H])c([H])c([H])c2C1([H])[H]

>  <smiles>  (1) 
[H]c1c([H])c([H])c2c(c1[H])C([H])([H])C([H])([H])C([H])([H])C2([H])N([H])C(=O)C1([H])N(C(=O)C([H])(N([H])C(=O)C([H])(N([H])C([H])([H])[H])C([H])([H])[H])C(C([H])([H])[H])(C([H])([H])[H])C([H])([H])[H])C([H])([H])c2c([H])c(OC([H])([H])C([H])([H])C([H])([H])[N+]([H])([H])C([H])(C([H])([H])[H])C([H])(N([H])C([H])([H])[H])C([H])([H])C([H])(C([H])([H])C(=O)N3C([H])([H])C([H])([H])C([H])([H])C([H])(n4nc(-c5c([H])c([H])c(Oc6c([H])c([H])c(F)c([H])c6F)c([H])c5[H])c(C(=O)N([H])[H])c4N([H])[H])C3([H])[H])[N+]([H])([H])C([H])([H])[H])c([H])c([H])c2C1([H])[H]

$$$$
1:0:0
     RDKit          3D

 92100  0  0  1  0  0  0  0  0999 V2000
  -29.3070  -19.4950   20.6440 C   0  0  0  0  0  0  0  0  0  0  0  0
  -29.7670  -20.7590   20.4980 N   0  0  0  0  0  0  0  0  0  0  0  0
  -28.2630  -19.2470   21.2520 O   0  0  0  0  0  0  0  0  0  0  0  0
  -30.6770  -20.8210   20.0620 H   0  0  0  0  0  0  0  0  0  0  0  0
  -28.6980  -18.1320   17.8980 C   0  0  0  0  0  2  0  0  0  0  0  0
  -28.3120  -17.0440   18.9190 C   0  0  0  0  0  2  0  0  0  0  0  0
  -30.0240  -18.7280   18.3880 C   0  0  0  0  0  2  0  0  0  0  0  0
  -29.4820  -16.9100   19.9300 C   0  0  0  0  0  3  0  0  0  0  0  0
  -30.0950  -18.3720   19.8900 C   0  0  0  0  0  3  0  0  0  0  0  0
  -30.8910  -15.6630   18.2220 C   0  0  0  0  0  2  0  0  0  0  0  0
  -30.4470  -15.7620   19.4950 C   0  0  0  0  0  0  0  0  0  0  0  0
  -31.0190  -14.7280   20.3940 C   0  0  0  0  0  0  0  0  0  0  0  0
  -30.7720  -12.4450   19.5370 C   0  0  0  0  0  2  0  0  0  0  0  0
  -29.8500  -12.4310   18.2950 C   0  0  0  0  0  2  0  0  0  0  0  0
  -28.3690  -12.3570   18.6960 C   0  0  0  0  0  2  0  0  0  0  0  0
  -27.9800  -13.3280   19.8420 C   0  0  0  0  0  3  0  0  0  0  0  0
  -29.0120  -13.3040   20.9880 C   0  0  0  0  0  2  0  0  0  0  0  0
  -30.3440  -13.5420   20.4160 N   0  0  0  0  0  0  0  0  0  0  0  0
  -32.2370  -14.7620   20.5500 O   0  0  0  0  0  0  0  0  0  0  0  0
  -25.5690  -13.9760   20.4680 C   0  0  0  0  0  0  0  0  0  0  0  0
  -24.4800  -13.2200   20.8030 C   0  0  0  0  0  0  0  0  0  0  0  0
  -24.9310  -11.8650   20.8260 C   0  0  0  0  0  0  0  0  0  0  0  0
  -26.6160  -13.0820   20.3040 N   0  0  0  0  0  0  0  0  0  0  0  0
  -26.2350  -11.8110   20.5870 N   0  0  0  0  0  0  0  0  0  0  0  0
  -24.1910  -10.6130   21.0060 C   0  0  0  0  0  0  0  0  0  0  0  0
  -24.5800   -9.6610   21.9750 C   0  0  0  0  0  3  0  0  0  0  0  0
  -23.8440   -8.4690   22.1420 C   0  0  0  0  0  3  0  0  0  0  0  0
  -22.7020   -8.2220   21.3440 C   0  0  0  0  0  0  0  0  0  0  0  0
  -22.3320   -9.1620   20.3650 C   0  0  0  0  0  3  0  0  0  0  0  0
  -23.0690  -10.3460   20.1950 C   0  0  0  0  0  3  0  0  0  0  0  0
  -21.9400   -7.0820   21.4200 O   0  0  0  0  0  0  0  0  0  0  0  0
  -21.8400   -6.3620   22.5830 C   0  0  0  0  0  0  0  0  0  0  0  0
  -21.3600   -6.9380   23.7780 C   0  0  0  0  0  3  0  0  0  0  0  0
  -21.2080   -6.1430   24.9320 C   0  0  0  0  0  3  0  0  0  0  0  0
  -21.5260   -4.7730   24.8900 C   0  0  0  0  0  0  0  0  0  0  0  0
  -21.9970   -4.1950   23.6980 C   0  0  0  0  0  3  0  0  0  0  0  0
  -22.1510   -4.9870   22.5480 C   0  0  0  0  0  0  0  0  0  0  0  0
  -22.5870   -4.4220   21.3960 F   0  0  0  0  0  0  0  0  0  0  0  0
  -21.3730   -4.0060   25.9960 F   0  0  0  0  0  0  0  0  0  0  0  0
  -23.0730  -13.7110   20.9930 C   0  0  0  0  0  0  0  0  0  0  0  0
  -22.3010  -13.0430   21.8420 N   0  0  0  0  0  0  0  0  0  0  0  0
  -22.6670  -14.7240   20.4250 O   0  0  0  0  0  0  0  0  0  0  0  0
  -22.6390  -12.2250   22.3260 H   0  0  0  0  0  0  0  0  0  0  0  0
  -21.3550  -13.3550   22.0100 H   0  0  0  0  0  0  0  0  0  0  0  0
  -25.7490  -15.3400   20.2680 N   0  0  0  0  0  0  0  0  0  0  0  0
  -24.9830  -16.0000   20.3420 H   0  0  0  0  0  0  0  0  0  0  0  0
  -26.6260  -15.7720   20.0080 H   0  0  0  0  0  0  0  0  0  0  0  0
  -28.9550  -21.9890   20.3960 C   0  0  0  0  0  2  0  0  0  0  0  0
  -29.3520  -23.1120   21.3920 C   0  0  0  0  0  2  0  0  0  0  0  0
  -29.4360  -24.5640   20.8200 C   0  0  0  0  0  2  0  0  0  0  0  0
  -28.1080  -25.2690   20.4430 C   0  0  0  0  0  2  0  0  0  0  0  0
  -28.2820  -26.6950   20.2570 O   0  0  0  0  0  0  0  0  0  0  0  0
  -24.4960  -31.9390   23.2640 C   0  0  0  0  0  0  0  0  0  0  0  0
  -27.1270  -27.4570   20.2150 C   0  0  0  0  0  0  0  0  0  0  0  0
  -23.2880  -30.5370   21.6230 C   0  0  0  0  0  3  0  0  0  0  0  0
  -24.7410  -28.9930   20.2030 C   0  0  0  0  0  0  0  0  0  0  0  0
  -25.8180  -30.8840   21.4280 C   0  0  0  0  0  2  0  0  0  0  0  0
  -25.9020  -29.5110   20.7890 C   0  0  0  0  0  0  0  0  0  0  0  0
  -27.1000  -28.7540   20.7850 C   0  0  0  0  0  3  0  0  0  0  0  0
  -25.9450  -26.9630   19.6130 C   0  0  0  0  0  3  0  0  0  0  0  0
  -24.7600  -27.7220   19.6070 C   0  0  0  0  0  3  0  0  0  0  0  0
  -23.4990  -29.8550   20.2440 C   0  0  0  0  0  2  0  0  0  0  0  0
  -24.5520  -31.1360   22.1620 N   0  0  0  0  0  0  0  0  0  0  0  0
  -23.4140  -32.2150   23.8020 O   0  0  0  0  0  0  0  0  0  0  0  0
  -22.6340  -29.5190   22.5860 C   0  0  0  0  0  0  0  0  0  0  0  0
  -21.3080  -29.3440   22.4610 N   0  0  0  0  0  0  0  0  0  0  0  0
  -23.3150  -28.8930   23.4000 O   0  0  0  0  0  0  0  0  0  0  0  0
  -20.8180  -29.9040   21.7750 H   0  0  0  0  0  0  0  0  0  0  0  0
  -17.9300  -28.1560   22.9600 C   0  0  0  0  0  0  0  0  0  0  0  0
  -20.4880  -28.4070   23.2320 C   0  0  0  0  0  3  0  0  0  0  0  0
  -20.5870  -26.9750   22.6580 C   0  0  0  0  0  2  0  0  0  0  0  0
  -19.4850  -26.6540   21.6440 C   0  0  0  0  0  2  0  0  0  0  0  0
  -18.1030  -26.8050   22.2870 C   0  0  0  0  0  2  0  0  0  0  0  0
  -19.0510  -28.9160   23.3900 C   0  0  0  0  0  0  0  0  0  0  0  0
  -18.8370  -30.1810   23.9770 C   0  0  0  0  0  3  0  0  0  0  0  0
  -17.5340  -30.6880   24.1410 C   0  0  0  0  0  3  0  0  0  0  0  0
  -16.4270  -29.9250   23.7280 C   0  0  0  0  0  3  0  0  0  0  0  0
  -16.6260  -28.6620   23.1430 C   0  0  0  0  0  3  0  0  0  0  0  0
  -25.7820  -32.5690   23.8840 C   0  0  0  0  0  3  0  0  0  0  0  0
  -25.4820  -33.9730   24.1920 N   0  0  0  0  0  0  0  0  0  0  0  0
  -25.8330  -35.0130   23.4240 C   0  0  0  0  0  0  0  0  0  0  0  0
  -26.5160  -34.8920   22.4030 O   0  0  0  0  0  0  0  0  0  0  0  0
  -24.8830  -34.1440   24.9870 H   0  0  0  0  0  0  0  0  0  0  0  0
  -24.1360  -36.8240   23.0080 C   0  0  0  0  0  1  0  0  0  0  0  0
  -25.3500  -36.4110   23.8570 C   0  0  0  0  0  3  0  0  0  0  0  0
  -27.4720  -37.2800   24.7380 C   0  0  0  0  0  1  0  0  0  0  0  0
  -26.3980  -37.4510   23.7630 N   0  0  0  0  0  0  0  0  0  0  0  0
  -25.9980  -38.3770   23.8880 H   0  0  0  0  0  0  0  0  0  0  0  0
  -26.2870  -31.8110   25.1730 C   0  0  1  0  0  0  0  0  0  0  0  0
  -25.1880  -31.5970   26.2400 C   0  0  0  0  0  1  0  0  0  0  0  0
  -26.8620  -30.4240   24.8010 C   0  0  0  0  0  1  0  0  0  0  0  0
  -27.4370  -32.6090   25.8320 C   0  0  0  0  0  1  0  0  0  0  0  0
  1  3  2  0
  2  1  1  0
  4  2  1  0
  5  7  1  0
  5  6  1  0
  6  8  1  0
  7  9  1  0
  8 11  1  0
  9  8  1  0
  9  1  1  0
 10 11  2  0
 11 12  1  0
 12 18  1  0
 12 19  2  0
 13 18  1  0
 14 15  1  0
 14 13  1  0
 16 15  1  0
 16 23  1  0
 16 17  1  0
 18 17  1  0
 20 21  2  0
 21 22  1  0
 21 40  1  0
 22 25  1  0
 23 20  1  0
 23 24  1  0
 24 22  2  0
 25 26  1  0
 26 27  2  0
 28 31  1  0
 28 27  1  0
 29 28  2  0
 30 29  1  0
 30 25  2  0
 31 32  1  0
 32 33  1  0
 33 34  2  0
 35 34  1  0
 35 39  1  0
 36 35  2  0
 37 32  2  0
 37 36  1  0
 38 37  1  0
 40 41  1  0
 41 44  1  0
 41 43  1  0
 42 40  2  0
 45 46  1  0
 45 20  1  0
 47 45  1  0
 48  2  1  0
 48 49  1  0
 50 49  1  0
 51 50  1  0
 52 51  1  0
 53 64  2  0
 54 52  1  0
 54 59  1  0
 55 63  1  0
 55 65  1  0
 56 62  1  0
 56 58  1  0
 57 63  1  0
 58 57  1  0
 59 58  2  0
 60 54  2  0
 61 60  1  0
 61 56  2  0
 62 55  1  0
 63 53  1  0
 65 67  2  0
 66 65  1  0
 68 66  1  0
 69 78  2  0
 69 74  1  0
 70 66  1  0
 70 74  1  0
 71 70  1  0
 72 73  1  0
 72 71  1  0
 73 69  1  0
 74 75  2  0
 75 76  1  0
 77 76  2  0
 78 77  1  0
 79 53  1  0
 79 80  1  0
 79 89  1  0
 80 83  1  0
 81 85  1  0
 81 80  1  0
 82 81  2  0
 85 84  1  0
 87 85  1  0
 87 88  1  0
 87 86  1  0
 89 92  1  1
 89 90  1  0
 91 89  1  0
M  ISO  4  11 100  12 100  51 101  52 101
M  END
>  <TORSDO>  (2) 
F 22

>  <SCORE>  (2) 
-12.480

>  <name>  (2) 
1

>  <ligand_id>  (2) 
1

>  <original_smiles>  (2) 
[H]C([H])=C(C(=O)N1C([H])([H])C([H])([H])C([H])([H])C([H])(n2nc(-c3c([H])c([H])c(Oc4c([H])c([H])c(F)c([H])c4F)c([H])c3[H])c(C(=O)N([H])[H])c2N([H])[H])C1([H])[H])C1([H])C([H])([H])C([H])([H])C([H])([H])C1([H])C(=O)N([H])C([H])([H])C([H])([H])C([H])([H])C([H])([H])Oc1c([H])c([H])c2c(c1[H])C([H])([H])N(C(=O)C([H])(N([H])C(=O)C([H])(N([H])C([H])([H])[H])C([H])([H])[H])C(C([H])([H])[H])(C([H])([H])[H])C([H])([H])[H])C([H])(C(=O)N([H])C1([H])c3c([H])c([H])c([H])c([H])c3C([H])([H])C([H])([H])C1([H])[H])C2([H])[H]

>  <smiles>  (2) 
[H]C([H])=C(C(=O)N1C([H])([H])C([H])([H])C([H])([H])C([H])(n2nc(-c3c([H])c([H])c(Oc4c([H])c([H])c(F)c([H])c4F)c([H])c3[H])c(C(=O)N([H])[H])c2N([H])[H])C1([H])[H])C1([H])C([H])([H])C([H])([H])C([H])([H])C1([H])C(=O)N([H])C([H])([H])C([H])([H])C([H])([H])C([H])([H])Oc1c([H])c([H])c2c(c1[H])C([H])([H])N(C(=O)C([H])(N([H])C(=O)C([H])(N([H])C([H])([H])[H])C([H])([H])[H])C(C([H])([H])[H])(C([H])([H])[H])C([H])([H])[H])C([H])(C(=O)N([H])C1([H])c3c([H])c([H])c([H])c([H])c3C([H])([H])C([H])([H])C1([H])[H])C2([H])[H]

$$$$
2:0:0
     RDKit          3D

 94103  0  0  1  0  0  0  0  0999 V2000
  -31.5940  -22.4040   21.1590 C   0  0  0  0  0  1  0  0  0  0  0  0
  -30.3900  -22.0420   20.2690 C   0  0  0  0  0  3  0  0  0  0  0  0
  -31.0600  -18.1660   21.0880 C   0  0  0  0  0  2  0  0  0  0  0  0
  -28.8980  -19.9660   19.5660 C   0  0  0  0  0  2  0  0  0  0  0  0
  -30.8830  -19.3780   20.1570 C   0  0  0  0  0  3  0  0  0  0  0  0
  -29.9210  -18.9430   19.0520 C   0  0  0  0  0  3  0  0  0  0  0  0
  -29.9460  -20.5760   20.5040 C   0  0  0  0  0  3  0  0  0  0  0  0
  -29.9420  -17.1710   20.6860 C   0  0  0  0  0  3  0  0  0  0  0  0
  -29.6660  -17.4330   19.1680 C   0  0  1  0  0  0  0  0  0  0  0  0
  -28.2300  -17.0670   18.7460 C   0  0  0  0  0  1  0  0  0  0  0  0
  -30.6530  -16.7100   18.2320 C   0  0  0  0  0  1  0  0  0  0  0  0
  -29.9140  -15.7370   21.3310 C   0  0  0  0  0  2  0  0  0  0  0  0
  -30.6970  -14.5350   20.7270 C   0  0  0  0  0  0  0  0  0  0  0  0
  -30.4860  -12.3760   19.5330 C   0  0  0  0  0  2  0  0  0  0  0  0
  -29.5770  -12.5800   18.3020 C   0  0  0  0  0  2  0  0  0  0  0  0
  -28.0870  -12.4470   18.6770 C   0  0  0  0  0  2  0  0  0  0  0  0
  -27.7090  -13.2660   19.9400 C   0  0  0  0  0  3  0  0  0  0  0  0
  -28.7260  -13.0010   21.0730 C   0  0  0  0  0  2  0  0  0  0  0  0
  -30.0630  -13.3390   20.5610 N   0  0  0  0  0  0  0  0  0  0  0  0
  -31.8550  -14.7140   20.3380 O   0  0  0  0  0  0  0  0  0  0  0  0
  -25.2830  -13.9020   20.5200 C   0  0  0  0  0  0  0  0  0  0  0  0
  -24.1940  -13.1410   20.8520 C   0  0  0  0  0  0  0  0  0  0  0  0
  -24.6510  -11.7890   20.8680 C   0  0  0  0  0  0  0  0  0  0  0  0
  -26.3340  -13.0120   20.3580 N   0  0  0  0  0  0  0  0  0  0  0  0
  -25.9530  -11.7370   20.6220 N   0  0  0  0  0  0  0  0  0  0  0  0
  -23.9140  -10.5320   21.0480 C   0  0  0  0  0  0  0  0  0  0  0  0
  -24.3160   -9.5720   22.0030 C   0  0  0  0  0  3  0  0  0  0  0  0
  -23.5810   -8.3780   22.1700 C   0  0  0  0  0  3  0  0  0  0  0  0
  -22.4310   -8.1380   21.3820 C   0  0  0  0  0  0  0  0  0  0  0  0
  -22.0500   -9.0860   20.4160 C   0  0  0  0  0  3  0  0  0  0  0  0
  -22.7850  -10.2710   20.2480 C   0  0  0  0  0  3  0  0  0  0  0  0
  -21.6710   -6.9950   21.4560 O   0  0  0  0  0  0  0  0  0  0  0  0
  -21.5950   -6.2560   22.6080 C   0  0  0  0  0  0  0  0  0  0  0  0
  -21.1490   -6.8170   23.8250 C   0  0  0  0  0  3  0  0  0  0  0  0
  -21.0240   -6.0050   24.9700 C   0  0  0  0  0  3  0  0  0  0  0  0
  -21.3270   -4.6320   24.8970 C   0  0  0  0  0  0  0  0  0  0  0  0
  -21.7630   -4.0700   23.6840 C   0  0  0  0  0  3  0  0  0  0  0  0
  -21.8940   -4.8800   22.5420 C   0  0  0  0  0  0  0  0  0  0  0  0
  -22.2950   -4.3290   21.3710 F   0  0  0  0  0  0  0  0  0  0  0  0
  -21.1980   -3.8500   25.9930 F   0  0  0  0  0  0  0  0  0  0  0  0
  -22.7860  -13.6260   21.0500 C   0  0  0  0  0  0  0  0  0  0  0  0
  -22.0160  -12.9470   21.8920 N   0  0  0  0  0  0  0  0  0  0  0  0
  -22.3770  -14.6440   20.4920 O   0  0  0  0  0  0  0  0  0  0  0  0
  -22.3570  -12.1220   22.3630 H   0  0  0  0  0  0  0  0  0  0  0  0
  -21.0700  -13.2540   22.0640 H   0  0  0  0  0  0  0  0  0  0  0  0
  -25.4620  -15.2690   20.3240 N   0  0  0  0  0  0  0  0  0  0  0  0
  -24.6930  -15.9280   20.3770 H   0  0  0  0  0  0  0  0  0  0  0  0
  -26.3300  -15.6960   20.0280 H   0  0  0  0  0  0  0  0  0  0  0  0
  -29.2430  -22.9780   20.4710 N   0  0  0  0  0  4  0  0  0  0  0  0
  -28.5380  -22.7140   19.7990 H   0  0  0  0  0  0  0  0  0  0  0  0
  -28.8460  -22.8130   21.3840 H   0  0  0  0  0  0  0  0  0  0  0  0
  -29.5020  -24.4430   20.3120 C   0  0  0  0  0  2  0  0  0  0  0  0
  -28.1960  -25.2400   20.0790 C   0  0  0  0  0  2  0  0  0  0  0  0
  -28.3370  -26.6730   20.1980 O   0  0  0  0  0  0  0  0  0  0  0  0
  -24.5380  -31.8950   23.2490 C   0  0  0  0  0  0  0  0  0  0  0  0
  -27.1650  -27.4150   20.1800 C   0  0  0  0  0  0  0  0  0  0  0  0
  -23.3270  -30.4890   21.6170 C   0  0  0  0  0  3  0  0  0  0  0  0
  -24.7730  -28.9450   20.1970 C   0  0  0  0  0  0  0  0  0  0  0  0
  -25.8570  -30.8360   21.4150 C   0  0  0  0  0  2  0  0  0  0  0  0
  -25.9380  -29.4620   20.7790 C   0  0  0  0  0  0  0  0  0  0  0  0
  -27.1360  -28.7060   20.7650 C   0  0  0  0  0  3  0  0  0  0  0  0
  -25.9730  -26.9220   19.5940 C   0  0  0  0  0  3  0  0  0  0  0  0
  -24.7870  -27.6750   19.6020 C   0  0  0  0  0  3  0  0  0  0  0  0
  -23.5320  -29.8070   20.2410 C   0  0  0  0  0  2  0  0  0  0  0  0
  -24.5930  -31.0890   22.1520 N   0  0  0  0  0  0  0  0  0  0  0  0
  -23.4590  -32.1730   23.7890 O   0  0  0  0  0  0  0  0  0  0  0  0
  -22.6750  -29.4730   22.5830 C   0  0  0  0  0  0  0  0  0  0  0  0
  -21.3510  -29.2880   22.4550 N   0  0  0  0  0  0  0  0  0  0  0  0
  -23.3580  -28.8520   23.4020 O   0  0  0  0  0  0  0  0  0  0  0  0
  -20.8610  -29.8420   21.7670 H   0  0  0  0  0  0  0  0  0  0  0  0
  -17.9770  -28.0930   22.9530 C   0  0  0  0  0  0  0  0  0  0  0  0
  -20.5340  -28.3540   23.2300 C   0  0  0  0  0  3  0  0  0  0  0  0
  -20.6390  -26.9200   22.6630 C   0  0  0  0  0  2  0  0  0  0  0  0
  -19.5390  -26.5900   21.6490 C   0  0  0  0  0  2  0  0  0  0  0  0
  -18.1560  -26.7390   22.2890 C   0  0  0  0  0  2  0  0  0  0  0  0
  -19.0940  -28.8590   23.3810 C   0  0  0  0  0  0  0  0  0  0  0  0
  -18.8730  -30.1270   23.9610 C   0  0  0  0  0  3  0  0  0  0  0  0
  -17.5670  -30.6300   24.1170 C   0  0  0  0  0  3  0  0  0  0  0  0
  -16.4640  -29.8610   23.7070 C   0  0  0  0  0  3  0  0  0  0  0  0
  -16.6710  -28.5950   23.1300 C   0  0  0  0  0  3  0  0  0  0  0  0
  -25.8260  -32.5280   23.8640 C   0  0  0  0  0  3  0  0  0  0  0  0
  -25.5170  -33.9230   24.1990 N   0  0  0  0  0  0  0  0  0  0  0  0
  -25.8420  -34.9780   23.4390 C   0  0  0  0  0  0  0  0  0  0  0  0
  -26.5040  -34.8770   22.4030 O   0  0  0  0  0  0  0  0  0  0  0  0
  -24.9290  -34.0750   25.0060 H   0  0  0  0  0  0  0  0  0  0  0  0
  -24.1090  -36.7670   23.0950 C   0  0  0  0  0  1  0  0  0  0  0  0
  -25.3530  -36.3630   23.9020 C   0  0  0  0  0  3  0  0  0  0  0  0
  -27.4890  -37.2480   24.7280 C   0  0  0  0  0  1  0  0  0  0  0  0
  -26.3840  -37.4190   23.7890 N   0  0  0  0  0  0  0  0  0  0  0  0
  -25.9770  -38.3380   23.9410 H   0  0  0  0  0  0  0  0  0  0  0  0
  -26.3540  -31.7510   25.1320 C   0  0  1  0  0  0  0  0  0  0  0  0
  -25.2700  -31.5040   26.2070 C   0  0  0  0  0  1  0  0  0  0  0  0
  -26.9380  -30.3770   24.7270 C   0  0  0  0  0  1  0  0  0  0  0  0
  -27.5080  -32.5450   25.7890 C   0  0  0  0  0  1  0  0  0  0  0  0
  2 49  1  0
  2  1  1  0
  4  7  1  0
  5  7  1  0
  5  3  1  0
  6  9  1  0
  6  4  1  0
  6  5  1  0
  7  2  1  0
  8  3  1  0
  8 12  1  0
  9  8  1  0
  9 10  1  6
 11  9  1  0
 13 12  1  0
 14 19  1  0
 15 16  1  0
 15 14  1  0
 17 16  1  0
 17 24  1  0
 17 18  1  0
 19 13  1  0
 19 18  1  0
 20 13  2  0
 21 22  2  0
 22 23  1  0
 22 41  1  0
 23 26  1  0
 24 21  1  0
 24 25  1  0
 25 23  2  0
 26 27  1  0
 27 28  2  0
 29 32  1  0
 29 28  1  0
 30 29  2  0
 31 30  1  0
 31 26  2  0
 32 33  1  0
 33 34  1  0
 34 35  2  0
 36 35  1  0
 36 40  1  0
 37 36  2  0
 38 33  2  0
 38 37  1  0
 39 38  1  0
 41 42  1  0
 42 45  1  0
 42 44  1  0
 43 41  2  0
 46 47  1  0
 46 21  1  0
 48 46  1  0
 49 51  1  0
 50 49  1  0
 52 49  1  0
 53 54  1  0
 53 52  1  0
 55 66  2  0
 56 54  1  0
 56 61  1  0
 57 65  1  0
 57 67  1  0
 58 64  1  0
 58 60  1  0
 59 65  1  0
 60 59  1  0
 61 60  2  0
 62 63  1  0
 62 56  2  0
 63 58  2  0
 64 57  1  0
 65 55  1  0
 67 69  2  0
 68 67  1  0
 70 68  1  0
 71 80  2  0
 71 76  1  0
 72 68  1  0
 72 76  1  0
 73 72  1  0
 74 75  1  0
 74 73  1  0
 75 71  1  0
 76 77  2  0
 77 78  1  0
 79 78  2  0
 80 79  1  0
 81 55  1  0
 81 82  1  0
 81 91  1  0
 82 85  1  0
 83 87  1  0
 83 82  1  0
 84 83  2  0
 87 86  1  0
 89 87  1  0
 89 90  1  0
 89 88  1  0
 91 94  1  1
 91 92  1  0
 93 91  1  0
M  ISO  4  12 100  13 100  53 101  54 101
M  END
>  <TORSDO>  (3) 
F 21

>  <SCORE>  (3) 
-13.518

>  <name>  (3) 
2

>  <ligand_id>  (3) 
2

>  <original_smiles>  (3) 
[H]c1c([H])c([H])c2c(c1[H])C([H])([H])C([H])([H])C([H])([H])C2([H])N([H])C(=O)C1([H])N(C(=O)C([H])(N([H])C(=O)C([H])(N([H])C([H])([H])[H])C([H])([H])[H])C(C([H])([H])[H])(C([H])([H])[H])C([H])([H])[H])C([H])([H])c2c([H])c(OC([H])([H])C([H])([H])[N+]([H])([H])C([H])(C([H])([H])[H])C3([H])C([H])([H])C4([H])C3([H])C([H])([H])C([H])(C([H])([H])C(=O)N3C([H])([H])C([H])([H])C([H])([H])C([H])(n5nc(-c6c([H])c([H])c(Oc7c([H])c([H])c(F)c([H])c7F)c([H])c6[H])c(C(=O)N([H])[H])c5N([H])[H])C3([H])[H])C4(C([H])([H])[H])C([H])([H])[H])c([H])c([H])c2C1([H])[H]

>  <smiles>  (3) 
[H]c1c([H])c([H])c2c(c1[H])C([H])([H])C([H])([H])C([H])([H])C2([H])N([H])C(=O)C1([H])N(C(=O)C([H])(N([H])C(=O)C([H])(N([H])C([H])([H])[H])C([H])([H])[H])C(C([H])([H])[H])(C([H])([H])[H])C([H])([H])[H])C([H])([H])c2c([H])c(OC([H])([H])C([H])([H])[N+]([H])([H])C([H])(C([H])([H])[H])C3([H])C([H])([H])C4([H])C3([H])C([H])([H])C([H])(C([H])([H])C(=O)N3C([H])([H])C([H])([H])C([H])([H])C([H])(n5nc(-c6c([H])c([H])c(Oc7c([H])c([H])c(F)c([H])c7F)c([H])c6[H])c(C(=O)N([H])[H])c5N([H])[H])C3([H])[H])C4(C([H])([H])[H])C([H])([H])[H])c([H])c([H])c2C1([H])[H]

$$$$
3:0:0
     RDKit          3D

 89 98  0  0  1  0  0  0  0  0999 V2000
  -27.9940  -19.6680   21.1580 C   0  0  0  0  0  2  0  0  0  0  0  0
  -27.5490  -19.1230   19.7730 C   0  0  0  0  0  2  0  0  0  0  0  0
  -30.3590  -18.6670   20.9000 C   0  0  0  0  0  2  0  0  0  0  0  0
  -29.6440  -17.7910   19.8470 C   0  0  0  0  0  3  0  0  0  0  0  0
  -29.5010  -20.0070   20.9220 C   0  0  0  0  0  3  0  0  0  0  0  0
  -28.9200  -19.0690   19.0770 C   0  0  0  0  0  3  0  0  0  0  0  0
  -29.4830  -20.4540   19.5150 N   0  0  1  0  0  4  0  0  0  0  0  0
  -30.4290  -20.5340   19.1700 H   0  0  0  0  0  0  0  0  0  0  0  0
  -30.1880  -16.3850   19.1210 C   0  0  0  0  0  2  0  0  0  0  0  0
  -30.9280  -15.0170   19.6950 C   0  0  0  0  0  0  0  0  0  0  0  0
  -30.7230  -12.6290   18.9380 C   0  0  0  0  0  2  0  0  0  0  0  0
  -29.7270  -12.5770   17.7540 C   0  0  0  0  0  2  0  0  0  0  0  0
  -28.2820  -12.4160   18.2690 C   0  0  0  0  0  2  0  0  0  0  0  0
  -27.9530  -13.3890   19.4310 C   0  0  0  0  0  3  0  0  0  0  0  0
  -29.0720  -13.4380   20.4880 C   0  0  0  0  0  2  0  0  0  0  0  0
  -30.3200  -13.7730   19.7940 N   0  0  0  0  0  0  0  0  0  0  0  0
  -32.1580  -15.0180   19.5920 O   0  0  0  0  0  0  0  0  0  0  0  0
  -25.6660  -14.0420   20.3630 C   0  0  0  0  0  0  0  0  0  0  0  0
  -24.5960  -13.2990   20.7790 C   0  0  0  0  0  0  0  0  0  0  0  0
  -25.0040  -11.9330   20.6830 C   0  0  0  0  0  0  0  0  0  0  0  0
  -26.6500  -13.1290   20.0220 N   0  0  0  0  0  0  0  0  0  0  0  0
  -26.2680  -11.8540   20.2850 N   0  0  0  0  0  0  0  0  0  0  0  0
  -24.2400  -10.6960   20.8880 C   0  0  0  0  0  0  0  0  0  0  0  0
  -24.6400   -9.7300   21.8350 C   0  0  0  0  0  3  0  0  0  0  0  0
  -23.8800   -8.5560   22.0250 C   0  0  0  0  0  3  0  0  0  0  0  0
  -22.7050   -8.3420   21.2650 C   0  0  0  0  0  0  0  0  0  0  0  0
  -22.3240   -9.2950   20.3050 C   0  0  0  0  0  3  0  0  0  0  0  0
  -23.0860  -10.4610   20.1140 C   0  0  0  0  0  3  0  0  0  0  0  0
  -21.9140   -7.2250   21.3640 O   0  0  0  0  0  0  0  0  0  0  0  0
  -21.7800   -6.5420   22.5470 C   0  0  0  0  0  0  0  0  0  0  0  0
  -21.2590   -7.1550   23.7070 C   0  0  0  0  0  3  0  0  0  0  0  0
  -21.0770   -6.3980   24.8810 C   0  0  0  0  0  3  0  0  0  0  0  0
  -21.4020   -5.0270   24.8950 C   0  0  0  0  0  0  0  0  0  0  0  0
  -21.9150   -4.4150   23.7370 C   0  0  0  0  0  3  0  0  0  0  0  0
  -22.1010   -5.1710   22.5670 C   0  0  0  0  0  0  0  0  0  0  0  0
  -22.5770   -4.5700   21.4490 F   0  0  0  0  0  0  0  0  0  0  0  0
  -21.2180   -4.2970   26.0190 F   0  0  0  0  0  0  0  0  0  0  0  0
  -23.2420  -13.8240   21.1530 C   0  0  0  0  0  0  0  0  0  0  0  0
  -22.5540  -13.1490   22.0660 N   0  0  0  0  0  0  0  0  0  0  0  0
  -22.8060  -14.8690   20.6680 O   0  0  0  0  0  0  0  0  0  0  0  0
  -22.9230  -12.3050   22.4790 H   0  0  0  0  0  0  0  0  0  0  0  0
  -21.6440  -13.4820   22.3560 H   0  0  0  0  0  0  0  0  0  0  0  0
  -25.8770  -15.4070   20.2180 N   0  0  0  0  0  0  0  0  0  0  0  0
  -25.1550  -16.0880   20.4330 H   0  0  0  0  0  0  0  0  0  0  0  0
  -26.7260  -15.8180   19.8550 H   0  0  0  0  0  0  0  0  0  0  0  0
  -28.7230  -21.8220   19.1750 C   0  0  0  0  0  2  0  0  0  0  0  0
  -29.1620  -23.3750   19.6440 C   0  0  0  0  0  3  0  0  0  0  0  0
  -28.1820  -24.7160   19.3540 C   0  0  0  0  0  3  0  0  0  0  0  0
  -28.4130  -26.2170   19.6900 O   0  0  0  0  0  0  0  0  0  0  0  0
  -24.6280  -31.6200   23.0030 C   0  0  0  0  0  0  0  0  0  0  0  0
  -27.3250  -27.1620   19.6990 C   0  0  0  0  0  0  0  0  0  0  0  0
  -23.4500  -30.2570   21.3200 C   0  0  0  0  0  3  0  0  0  0  0  0
  -24.9310  -28.8100   19.8000 C   0  0  0  0  0  0  0  0  0  0  0  0
  -25.9890  -30.6250   21.1350 C   0  0  0  0  0  2  0  0  0  0  0  0
  -26.1050  -29.2700   20.4110 C   0  0  0  0  0  0  0  0  0  0  0  0
  -27.3000  -28.4580   20.3530 C   0  0  0  0  0  3  0  0  0  0  0  0
  -26.1180  -26.8070   19.0500 C   0  0  0  0  0  3  0  0  0  0  0  0
  -24.9470  -27.5890   19.1130 C   0  0  0  0  0  3  0  0  0  0  0  0
  -23.6690  -29.6540   19.9080 C   0  0  0  0  0  2  0  0  0  0  0  0
  -24.7070  -30.8520   21.8740 N   0  0  0  0  0  0  0  0  0  0  0  0
  -23.5410  -31.8400   23.5630 O   0  0  0  0  0  0  0  0  0  0  0  0
  -22.8270  -29.1840   22.2440 C   0  0  0  0  0  0  0  0  0  0  0  0
  -21.5010  -28.9860   22.1610 N   0  0  0  0  0  0  0  0  0  0  0  0
  -23.5440  -28.5300   23.0040 O   0  0  0  0  0  0  0  0  0  0  0  0
  -20.9710  -29.5990   21.5580 H   0  0  0  0  0  0  0  0  0  0  0  0
  -18.1790  -27.6470   22.6620 C   0  0  0  0  0  0  0  0  0  0  0  0
  -20.7340  -27.9760   22.8940 C   0  0  0  0  0  3  0  0  0  0  0  0
  -20.8700  -26.5760   22.2500 C   0  0  0  0  0  2  0  0  0  0  0  0
  -19.7540  -26.2550   21.2470 C   0  0  0  0  0  2  0  0  0  0  0  0
  -18.3820  -26.3320   21.9230 C   0  0  0  0  0  2  0  0  0  0  0  0
  -19.2840  -28.4220   23.1050 C   0  0  0  0  0  0  0  0  0  0  0  0
  -19.0410  -29.6470   23.7630 C   0  0  0  0  0  3  0  0  0  0  0  0
  -17.7270  -30.1010   23.9800 C   0  0  0  0  0  3  0  0  0  0  0  0
  -16.6360  -29.3220   23.5560 C   0  0  0  0  0  3  0  0  0  0  0  0
  -16.8650  -28.0970   22.9040 C   0  0  0  0  0  3  0  0  0  0  0  0
  -25.8920  -32.2750   23.6360 C   0  0  0  0  0  3  0  0  0  0  0  0
  -26.4500  -31.4760   24.8780 C   0  0  1  0  0  0  0  0  0  0  0  0
  -25.3760  -31.1640   25.9470 C   0  0  0  0  0  1  0  0  0  0  0  0
  -27.0790  -30.1340   24.4410 C   0  0  0  0  0  1  0  0  0  0  0  0
  -27.5760  -32.2860   25.5630 C   0  0  0  0  0  1  0  0  0  0  0  0
  -25.5380  -33.6490   24.0270 N   0  0  0  0  0  0  0  0  0  0  0  0
  -25.8280  -34.7450   23.3160 C   0  0  0  0  0  0  0  0  0  0  0  0
  -26.4890  -34.7110   22.2740 O   0  0  0  0  0  0  0  0  0  0  0  0
  -24.9490  -33.7460   24.8430 H   0  0  0  0  0  0  0  0  0  0  0  0
  -24.0410  -36.5010   23.0630 C   0  0  0  0  0  1  0  0  0  0  0  0
  -25.3030  -36.0960   23.8420 C   0  0  0  0  0  3  0  0  0  0  0  0
  -27.4050  -37.0190   24.7120 C   0  0  0  0  0  1  0  0  0  0  0  0
  -26.3000  -37.1860   23.7740 N   0  0  0  0  0  0  0  0  0  0  0  0
  -25.8590  -38.0830   23.9610 H   0  0  0  0  0  0  0  0  0  0  0  0
  2  1  1  0
  4  9  1  0
  4  3  1  0
  5  3  1  0
  5  1  1  0
  6  7  1  0
  6  2  1  0
  6  4  1  0
  7  5  1  0
  7  8  1  6
  9 10  1  0
 10 16  1  0
 11 16  1  0
 12 13  1  0
 12 11  1  0
 14 13  1  0
 14 21  1  0
 14 15  1  0
 16 15  1  0
 17 10  2  0
 18 19  2  0
 19 38  1  0
 20 19  1  0
 20 23  1  0
 21 22  1  0
 21 18  1  0
 22 20  2  0
 23 24  1  0
 24 25  2  0
 26 29  1  0
 26 25  1  0
 27 26  2  0
 28 27  1  0
 28 23  2  0
 29 30  1  0
 30 35  2  0
 30 31  1  0
 31 32  2  0
 32 33  1  0
 33 37  1  0
 34 33  2  0
 35 34  1  0
 36 35  1  0
 38 39  1  0
 39 42  1  0
 39 41  1  0
 40 38  2  0
 43 18  1  0
 43 44  1  0
 45 43  1  0
 46  7  1  0
 46 47  1  0
 48 47  2  0
 48 49  1  0
 49 51  1  0
 50 61  2  0
 51 56  1  0
 52 60  1  0
 52 62  1  0
 53 59  1  0
 53 55  1  0
 54 60  1  0
 55 54  1  0
 56 55  2  0
 57 58  1  0
 57 51  2  0
 58 53  2  0
 59 52  1  0
 60 50  1  0
 62 64  2  0
 63 62  1  0
 65 63  1  0
 66 75  2  0
 66 71  1  0
 67 63  1  0
 67 71  1  0
 68 67  1  0
 69 70  1  0
 69 68  1  0
 70 66  1  0
 71 72  2  0
 72 73  1  0
 74 73  2  0
 75 74  1  0
 76 50  1  0
 76 81  1  0
 76 77  1  0
 77 80  1  1
 77 78  1  0
 79 77  1  0
 81 84  1  0
 82 86  1  0
 82 81  1  0
 83 82  2  0
 86 85  1  0
 88 86  1  0
 88 89  1  0
 88 87  1  0
M  ISO  4   9 100  10 100  48 101  49 101
M  END
>  <TORSDO>  (4) 
F 20

>  <SCORE>  (4) 
-12.150

>  <name>  (4) 
3

>  <ligand_id>  (4) 
3

>  <original_smiles>  (4) 
[H]c1c([H])c([H])c2c(c1[H])C([H])([H])C([H])([H])C([H])([H])C2([H])N([H])C(=O)C1([H])N(C(=O)C([H])(N([H])C(=O)C([H])(N([H])C([H])([H])[H])C([H])([H])[H])C(C([H])([H])[H])(C([H])([H])[H])C([H])([H])[H])C([H])([H])c2c([H])c(OC([H])([H])C([H])([H])C([H])([H])[N+]3([H])C4([H])C([H])([H])C([H])([H])C3([H])C([H])(C([H])([H])C(=O)N3C([H])([H])C([H])([H])C([H])([H])C([H])(n5nc(-c6c([H])c([H])c(Oc7c([H])c([H])c(F)c([H])c7F)c([H])c6[H])c(C(=O)N([H])[H])c5N([H])[H])C3([H])[H])C4([H])[H])c([H])c([H])c2C1([H])[H]

>  <smiles>  (4) 
[H]c1c([H])c([H])c2c(c1[H])C([H])([H])C([H])([H])C([H])([H])C2([H])N([H])C(=O)C1([H])N(C(=O)C([H])(N([H])C(=O)C([H])(N([H])C([H])([H])[H])C([H])([H])[H])C(C([H])([H])[H])(C([H])([H])[H])C([H])([H])[H])C([H])([H])c2c([H])c(OC([H])([H])C([H])([H])C([H])([H])[N+]3([H])C4([H])C([H])([H])C([H])([H])C3([H])C([H])(C([H])([H])C(=O)N3C([H])([H])C([H])([H])C([H])([H])C([H])(n5nc(-c6c([H])c([H])c(Oc7c([H])c([H])c(F)c([H])c7F)c([H])c6[H])c(C(=O)N([H])[H])c5N([H])[H])C3([H])[H])C4([H])[H])c([H])c([H])c2C1([H])[H]

$$$$
4:0:0
     RDKit          3D

 93101  0  0  1  0  0  0  0  0999 V2000
  -28.9100  -21.0710   20.3150 C   0  0  0  0  0  3  0  0  0  0  0  0
  -28.9930  -23.6180   19.3980 C   0  0  0  0  0  3  0  0  0  0  0  0
  -30.3060  -24.0480   20.0070 C   0  0  0  0  0  1  0  0  0  0  0  0
  -28.5710  -22.3310   19.4110 N   0  0  0  0  0  2  0  0  0  0  0  0
  -28.1610  -24.9170   18.7700 C   0  0  0  0  0  2  0  0  0  0  0  0
  -28.3970  -26.4230   19.0730 O   0  0  0  0  0  0  0  0  0  0  0  0
  -24.5830  -31.4880   22.8060 C   0  0  0  0  0  0  0  0  0  0  0  0
  -27.2910  -27.3480   19.1400 C   0  0  0  0  0  0  0  0  0  0  0  0
  -23.3930  -30.2160   21.0610 C   0  0  0  0  0  3  0  0  0  0  0  0
  -24.8650  -28.9250   19.4010 C   0  0  0  0  0  0  0  0  0  0  0  0
  -25.9110  -30.6780   20.8220 C   0  0  0  0  0  2  0  0  0  0  0  0
  -26.0420  -29.3760   20.0140 C   0  0  0  0  0  0  0  0  0  0  0  0
  -27.2550  -28.6030   19.8700 C   0  0  0  0  0  3  0  0  0  0  0  0
  -26.0810  -27.0100   18.4920 C   0  0  0  0  0  3  0  0  0  0  0  0
  -24.8950  -27.7590   18.6260 C   0  0  0  0  0  3  0  0  0  0  0  0
  -23.5870  -29.7230   19.6030 C   0  0  0  0  0  2  0  0  0  0  0  0
  -24.6510  -30.8080   21.6210 N   0  0  0  0  0  0  0  0  0  0  0  0
  -23.5060  -31.6400   23.4040 O   0  0  0  0  0  0  0  0  0  0  0  0
  -22.8250  -29.0590   21.9210 C   0  0  0  0  0  0  0  0  0  0  0  0
  -21.5040  -28.8240   21.8280 N   0  0  0  0  0  0  0  0  0  0  0  0
  -23.5700  -28.3850   22.6350 O   0  0  0  0  0  0  0  0  0  0  0  0
  -20.9590  -29.4280   21.2280 H   0  0  0  0  0  0  0  0  0  0  0  0
  -18.2360  -27.3150   22.2470 C   0  0  0  0  0  0  0  0  0  0  0  0
  -20.7720  -27.7540   22.5110 C   0  0  0  0  0  3  0  0  0  0  0  0
  -20.9750  -26.3980   21.7960 C   0  0  0  0  0  2  0  0  0  0  0  0
  -19.8810  -26.0870   20.7670 C   0  0  0  0  0  2  0  0  0  0  0  0
  -18.5050  -26.0580   21.4360 C   0  0  0  0  0  2  0  0  0  0  0  0
  -19.2990  -28.1190   22.7370 C   0  0  0  0  0  0  0  0  0  0  0  0
  -18.9940  -29.2940   23.4550 C   0  0  0  0  0  3  0  0  0  0  0  0
  -17.6570  -29.6700   23.6870 C   0  0  0  0  0  3  0  0  0  0  0  0
  -16.6090  -28.8640   23.2100 C   0  0  0  0  0  3  0  0  0  0  0  0
  -16.8990  -27.6870   22.4970 C   0  0  0  0  0  3  0  0  0  0  0  0
  -25.8490  -32.1230   23.4550 C   0  0  0  0  0  3  0  0  0  0  0  0
  -25.4930  -33.4850   23.8840 N   0  0  0  0  0  0  0  0  0  0  0  0
  -25.8300  -34.6050   23.2300 C   0  0  0  0  0  0  0  0  0  0  0  0
  -26.5390  -34.5980   22.2210 O   0  0  0  0  0  0  0  0  0  0  0  0
  -24.8600  -33.5580   24.6670 H   0  0  0  0  0  0  0  0  0  0  0  0
  -24.0800  -36.3950   22.9620 C   0  0  0  0  0  1  0  0  0  0  0  0
  -25.2990  -35.9420   23.7820 C   0  0  0  0  0  3  0  0  0  0  0  0
  -27.3850  -36.7980   24.7600 C   0  0  0  0  0  1  0  0  0  0  0  0
  -26.3120  -37.0200   23.7940 N   0  0  0  0  0  0  0  0  0  0  0  0
  -25.8810  -37.9160   24.0010 H   0  0  0  0  0  0  0  0  0  0  0  0
  -26.4030  -31.2870   24.6730 C   0  0  1  0  0  0  0  0  0  0  0  0
  -25.3340  -30.9610   25.7430 C   0  0  0  0  0  1  0  0  0  0  0  0
  -27.0080  -29.9480   24.1880 C   0  0  0  0  0  1  0  0  0  0  0  0
  -27.5480  -32.0660   25.3640 C   0  0  0  0  0  1  0  0  0  0  0  0
  -29.1490  -21.4260   21.8110 C   0  0  0  0  0  2  0  0  0  0  0  0
  -26.8660  -24.5080   22.2670 C   0  0  0  0  0  3  0  0  0  0  0  0
  -27.7260  -25.3950   22.9380 C   0  0  0  0  0  3  0  0  0  0  0  0
  -27.3170  -23.2220   21.9160 C   0  0  0  0  0  3  0  0  0  0  0  0
  -29.0230  -24.9800   23.2920 C   0  0  0  0  0  3  0  0  0  0  0  0
  -28.6370  -22.8090   22.2260 C   0  0  0  0  0  0  0  0  0  0  0  0
  -29.4700  -23.6870   22.9560 C   0  0  0  0  0  0  0  0  0  0  0  0
  -30.7030  -23.2920   23.3540 F   0  0  0  0  0  0  0  0  0  0  0  0
  -29.6450  -19.6600   19.7770 C   0  0  0  0  0  2  0  0  0  0  0  0
  -29.9960  -18.2460   20.6470 C   0  0  0  0  0  2  0  0  0  0  0  0
  -29.4850  -16.6690   20.3790 C   0  0  0  0  0  2  0  0  0  0  0  0
  -30.3950  -15.2780   20.3530 C   0  0  0  0  0  0  0  0  0  0  0  0
  -30.3370  -12.9300   19.4090 C   0  0  0  0  0  2  0  0  0  0  0  0
  -29.3990  -12.8960   18.1780 C   0  0  0  0  0  2  0  0  0  0  0  0
  -27.9310  -12.6860   18.6000 C   0  0  0  0  0  2  0  0  0  0  0  0
  -27.5190  -13.5910   19.7880 C   0  0  0  0  0  3  0  0  0  0  0  0
  -28.5710  -13.5790   20.9150 C   0  0  0  0  0  2  0  0  0  0  0  0
  -29.8520  -13.9960   20.3310 N   0  0  0  0  0  0  0  0  0  0  0  0
  -31.6040  -15.3710   20.1090 O   0  0  0  0  0  0  0  0  0  0  0  0
  -25.1290  -14.1450   20.5150 C   0  0  0  0  0  0  0  0  0  0  0  0
  -24.0650  -13.3590   20.8660 C   0  0  0  0  0  0  0  0  0  0  0  0
  -24.5360  -12.0110   20.8210 C   0  0  0  0  0  0  0  0  0  0  0  0
  -26.1790  -13.2770   20.2740 N   0  0  0  0  0  0  0  0  0  0  0  0
  -25.8310  -11.9860   20.5210 N   0  0  0  0  0  0  0  0  0  0  0  0
  -23.8150  -10.7420   20.9880 C   0  0  0  0  0  0  0  0  0  0  0  0
  -24.2820   -9.7330   21.8590 C   0  0  0  0  0  3  0  0  0  0  0  0
  -23.5590   -8.5320   22.0190 C   0  0  0  0  0  3  0  0  0  0  0  0
  -22.3530   -8.3280   21.3060 C   0  0  0  0  0  0  0  0  0  0  0  0
  -21.9040   -9.3250   20.4220 C   0  0  0  0  0  3  0  0  0  0  0  0
  -22.6270  -10.5190   20.2610 C   0  0  0  0  0  3  0  0  0  0  0  0
  -21.5990   -7.1820   21.3770 O   0  0  0  0  0  0  0  0  0  0  0  0
  -21.6370   -6.3610   22.4760 C   0  0  0  0  0  0  0  0  0  0  0  0
  -21.3190   -6.8330   23.7670 C   0  0  0  0  0  3  0  0  0  0  0  0
  -21.3040   -5.9420   24.8600 C   0  0  0  0  0  3  0  0  0  0  0  0
  -21.5990   -4.5790   24.6600 C   0  0  0  0  0  0  0  0  0  0  0  0
  -21.9100   -4.1070   23.3730 C   0  0  0  0  0  3  0  0  0  0  0  0
  -21.9270   -4.9960   22.2840 C   0  0  0  0  0  0  0  0  0  0  0  0
  -22.2080   -4.5320   21.0430 F   0  0  0  0  0  0  0  0  0  0  0  0
  -21.5770   -3.7200   25.7060 F   0  0  0  0  0  0  0  0  0  0  0  0
  -22.6640  -13.8240   21.1330 C   0  0  0  0  0  0  0  0  0  0  0  0
  -21.9440  -13.1330   22.0110 N   0  0  0  0  0  0  0  0  0  0  0  0
  -22.2140  -14.8380   20.5990 O   0  0  0  0  0  0  0  0  0  0  0  0
  -22.3190  -12.3120   22.4630 H   0  0  0  0  0  0  0  0  0  0  0  0
  -21.0050  -13.4300   22.2350 H   0  0  0  0  0  0  0  0  0  0  0  0
  -25.2920  -15.5180   20.3570 N   0  0  0  0  0  0  0  0  0  0  0  0
  -24.5340  -16.1810   20.4700 H   0  0  0  0  0  0  0  0  0  0  0  0
  -26.1530  -15.9510   20.0480 H   0  0  0  0  0  0  0  0  0  0  0  0
  1 55  1  0
  1 47  1  0
  2  4  1  0
  2  3  1  0
  4  1  1  0
  5  6  1  0
  5  2  1  0
  6  8  1  0
  7 18  2  0
  8 13  1  0
  9 17  1  0
  9 19  1  0
 10 16  1  0
 10 12  1  0
 11 17  1  0
 12 11  1  0
 13 12  2  0
 14 15  1  0
 14  8  2  0
 15 10  2  0
 16  9  1  0
 17  7  1  0
 19 21  2  0
 20 19  1  0
 22 20  1  0
 23 32  2  0
 23 28  1  0
 24 20  1  0
 24 28  1  0
 25 24  1  0
 26 27  1  0
 26 25  1  0
 27 23  1  0
 28 29  2  0
 29 30  1  0
 31 30  2  0
 32 31  1  0
 33  7  1  0
 33 34  1  0
 33 43  1  0
 34 37  1  0
 35 39  1  0
 35 34  1  0
 36 35  2  0
 39 38  1  0
 39 41  1  0
 41 42  1  0
 41 40  1  0
 43 46  1  1
 43 44  1  0
 45 43  1  0
 47 52  1  0
 48 49  1  0
 49 51  2  0
 50 52  1  0
 50 48  2  0
 52 53  2  0
 53 51  1  0
 53 54  1  0
 55 56  1  0
 57 56  1  0
 58 57  1  0
 59 64  1  0
 60 61  1  0
 60 59  1  0
 62 61  1  0
 62 69  1  0
 62 63  1  0
 64 58  1  0
 64 63  1  0
 65 58  2  0
 66 67  2  0
 67 86  1  0
 68 67  1  0
 68 71  1  0
 69 66  1  0
 69 70  1  0
 70 68  2  0
 71 72  1  0
 72 73  2  0
 74 77  1  0
 74 73  1  0
 75 74  2  0
 76 75  1  0
 76 71  2  0
 77 78  1  0
 78 79  1  0
 79 80  2  0
 81 80  1  0
 81 85  1  0
 82 81  2  0
 83 78  2  0
 83 82  1  0
 84 83  1  0
 86 87  1  0
 87 90  1  0
 87 89  1  0
 88 86  2  0
 91 92  1  0
 91 66  1  0
 93 91  1  0
M  ISO  4   5 101   6 101  57 100  58 100
M  END
>  <TORSDO>  (5) 
F 23

>  <SCORE>  (5) 
-11.520

>  <name>  (5) 
4

>  <ligand_id>  (5) 
4

>  <original_smiles>  (5) 
[H]c1c([H])c([H])c(C([H])([H])C([H])(N=C(C([H])([H])[H])C([H])([H])Oc2c([H])c([H])c3c(c2[H])C([H])([H])N(C(=O)C([H])(N([H])C(=O)C([H])(N([H])C([H])([H])[H])C([H])([H])[H])C(C([H])([H])[H])(C([H])([H])[H])C([H])([H])[H])C([H])(C(=O)N([H])C2([H])c4c([H])c([H])c([H])c([H])c4C([H])([H])C([H])([H])C2([H])[H])C3([H])[H])C([H])([H])C([H])([H])C([H])([H])C(=O)N2C([H])([H])C([H])([H])C([H])([H])C([H])(n3nc(-c4c([H])c([H])c(Oc5c([H])c([H])c(F)c([H])c5F)c([H])c4[H])c(C(=O)N([H])[H])c3N([H])[H])C2([H])[H])c(F)c1[H]

>  <smiles>  (5) 
[H]c1c([H])c([H])c(C([H])([H])C([H])(N=C(C([H])([H])[H])C([H])([H])Oc2c([H])c([H])c3c(c2[H])C([H])([H])N(C(=O)C([H])(N([H])C(=O)C([H])(N([H])C([H])([H])[H])C([H])([H])[H])C(C([H])([H])[H])(C([H])([H])[H])C([H])([H])[H])C([H])(C(=O)N([H])C2([H])c4c([H])c([H])c([H])c([H])c4C([H])([H])C([H])([H])C2([H])[H])C3([H])[H])C([H])([H])C([H])([H])C([H])([H])C(=O)N2C([H])([H])C([H])([H])C([H])([H])C([H])(n3nc(-c4c([H])c([H])c(Oc5c([H])c([H])c(F)c([H])c5F)c([H])c4[H])c(C(=O)N([H])[H])c3N([H])[H])C2([H])[H])c(F)c1[H]

$$$$
5:0:0
     RDKit          3D

 94103  0  0  1  0  0  0  0  0999 V2000
  -33.5050  -19.2490   17.0730 C   0  0  0  0  0  2  0  0  0  0  0  0
  -33.8490  -18.7350   18.4840 C   0  0  0  0  0  2  0  0  0  0  0  0
  -32.2520  -20.1370   17.0720 C   0  0  0  0  0  2  0  0  0  0  0  0
  -32.6430  -18.0560   19.1650 C   0  0  0  0  0  2  0  0  0  0  0  0
  -29.7550  -20.2740   17.5770 C   0  0  0  0  0  2  0  0  0  0  0  0
  -28.6210  -19.8750   18.5510 C   0  0  0  0  0  2  0  0  0  0  0  0
  -31.0560  -19.4200   17.7280 C   0  0  0  0  0  3  0  0  0  0  0  0
  -31.4290  -19.0090   19.1980 C   0  0  0  0  0  3  0  0  0  0  0  0
  -30.1530  -18.4900   19.9050 C   0  0  0  0  0  3  0  0  0  0  0  0
  -29.2730  -19.7470   19.8670 N   0  0  2  0  0  4  0  0  0  0  0  0
  -30.0940  -20.1990   19.4940 H   0  0  0  0  0  0  0  0  0  0  0  0
  -30.3040  -17.5210   21.1740 C   0  0  0  0  0  2  0  0  0  0  0  0
  -29.7940  -15.9740   21.1280 C   0  0  0  0  0  2  0  0  0  0  0  0
  -30.6220  -14.7230   20.5740 C   0  0  0  0  0  0  0  0  0  0  0  0
  -30.4590  -12.4870   19.4400 C   0  0  0  0  0  2  0  0  0  0  0  0
  -29.5290  -12.6060   18.2120 C   0  0  0  0  0  2  0  0  0  0  0  0
  -28.0480  -12.4270   18.6030 C   0  0  0  0  0  2  0  0  0  0  0  0
  -27.6590  -13.2980   19.8240 C   0  0  0  0  0  3  0  0  0  0  0  0
  -28.6920  -13.1510   20.9620 C   0  0  0  0  0  2  0  0  0  0  0  0
  -30.0180  -13.4940   20.4320 N   0  0  0  0  0  0  0  0  0  0  0  0
  -31.7790  -14.8830   20.1810 O   0  0  0  0  0  0  0  0  0  0  0  0
  -25.2490  -13.9090   20.5040 C   0  0  0  0  0  0  0  0  0  0  0  0
  -24.1750  -13.1420   20.8550 C   0  0  0  0  0  0  0  0  0  0  0  0
  -24.6340  -11.7890   20.8430 C   0  0  0  0  0  0  0  0  0  0  0  0
  -26.2960  -13.0250   20.2870 N   0  0  0  0  0  0  0  0  0  0  0  0
  -25.9310  -11.7470   20.5590 N   0  0  0  0  0  0  0  0  0  0  0  0
  -23.9000  -10.5290   21.0280 C   0  0  0  0  0  0  0  0  0  0  0  0
  -24.3190   -9.5650   21.9700 C   0  0  0  0  0  3  0  0  0  0  0  0
  -23.5870   -8.3700   22.1460 C   0  0  0  0  0  3  0  0  0  0  0  0
  -22.4230   -8.1310   21.3790 C   0  0  0  0  0  0  0  0  0  0  0  0
  -22.0190   -9.0860   20.4270 C   0  0  0  0  0  3  0  0  0  0  0  0
  -22.7520  -10.2720   20.2500 C   0  0  0  0  0  3  0  0  0  0  0  0
  -21.6640   -6.9890   21.4630 O   0  0  0  0  0  0  0  0  0  0  0  0
  -21.6060   -6.2450   22.6140 C   0  0  0  0  0  0  0  0  0  0  0  0
  -21.1860   -6.8040   23.8410 C   0  0  0  0  0  3  0  0  0  0  0  0
  -21.0760   -5.9860   24.9840 C   0  0  0  0  0  3  0  0  0  0  0  0
  -21.3740   -4.6130   24.8990 C   0  0  0  0  0  0  0  0  0  0  0  0
  -21.7860   -4.0540   23.6770 C   0  0  0  0  0  3  0  0  0  0  0  0
  -21.8980   -4.8680   22.5370 C   0  0  0  0  0  0  0  0  0  0  0  0
  -22.2770   -4.3210   21.3550 F   0  0  0  0  0  0  0  0  0  0  0  0
  -21.2580   -3.8270   25.9940 F   0  0  0  0  0  0  0  0  0  0  0  0
  -22.7700  -13.6230   21.0970 C   0  0  0  0  0  0  0  0  0  0  0  0
  -22.0240  -12.9350   21.9520 N   0  0  0  0  0  0  0  0  0  0  0  0
  -22.3460  -14.6460   20.5580 O   0  0  0  0  0  0  0  0  0  0  0  0
  -22.3680  -12.1070   22.4140 H   0  0  0  0  0  0  0  0  0  0  0  0
  -21.0830  -13.2420   22.1540 H   0  0  0  0  0  0  0  0  0  0  0  0
  -25.4180  -15.2810   20.3150 N   0  0  0  0  0  0  0  0  0  0  0  0
  -24.6490  -15.9350   20.4230 H   0  0  0  0  0  0  0  0  0  0  0  0
  -26.2660  -15.7190   19.9880 H   0  0  0  0  0  0  0  0  0  0  0  0
  -29.1760  -20.9360   20.8380 C   0  0  0  0  0  2  0  0  0  0  0  0
  -29.0910  -22.4000   20.1270 C   0  0  0  0  0  2  0  0  0  0  0  0
  -29.0740  -23.8250   20.8800 C   0  0  0  0  0  2  0  0  0  0  0  0
  -28.0340  -25.0610   20.8700 C   0  0  0  0  0  2  0  0  0  0  0  0
  -28.3690  -26.4350   20.3870 O   0  0  0  0  0  0  0  0  0  0  0  0
  -24.6340  -31.9020   23.2400 C   0  0  0  0  0  0  0  0  0  0  0  0
  -27.2830  -27.3210   20.2780 C   0  0  0  0  0  0  0  0  0  0  0  0
  -23.4490  -30.4830   21.6030 C   0  0  0  0  0  3  0  0  0  0  0  0
  -24.9220  -28.9300   20.2010 C   0  0  0  0  0  0  0  0  0  0  0  0
  -25.9840  -30.8190   21.4280 C   0  0  0  0  0  2  0  0  0  0  0  0
  -26.0820  -29.4320   20.8060 C   0  0  0  0  0  0  0  0  0  0  0  0
  -27.2710  -28.6390   20.8340 C   0  0  0  0  0  3  0  0  0  0  0  0
  -26.1110  -26.8920   19.6150 C   0  0  0  0  0  3  0  0  0  0  0  0
  -24.9390  -27.6680   19.5910 C   0  0  0  0  0  3  0  0  0  0  0  0
  -23.6760  -29.7920   20.2300 C   0  0  0  0  0  2  0  0  0  0  0  0
  -24.7090  -31.0850   22.1490 N   0  0  0  0  0  0  0  0  0  0  0  0
  -23.5450  -32.1820   23.7620 O   0  0  0  0  0  0  0  0  0  0  0  0
  -22.7820  -29.4740   22.5680 C   0  0  0  0  0  0  0  0  0  0  0  0
  -21.4570  -29.2920   22.4320 N   0  0  0  0  0  0  0  0  0  0  0  0
  -23.4570  -28.8600   23.3970 O   0  0  0  0  0  0  0  0  0  0  0  0
  -20.9760  -29.8420   21.7360 H   0  0  0  0  0  0  0  0  0  0  0  0
  -18.0810  -28.0870   22.9050 C   0  0  0  0  0  0  0  0  0  0  0  0
  -20.6330  -28.3580   23.2030 C   0  0  0  0  0  3  0  0  0  0  0  0
  -20.7490  -26.9210   22.6430 C   0  0  0  0  0  2  0  0  0  0  0  0
  -19.6590  -26.5830   21.6210 C   0  0  0  0  0  2  0  0  0  0  0  0
  -18.2710  -26.7300   22.2500 C   0  0  0  0  0  2  0  0  0  0  0  0
  -19.1940  -28.8580   23.3400 C   0  0  0  0  0  0  0  0  0  0  0  0
  -18.9610  -30.1260   23.9160 C   0  0  0  0  0  3  0  0  0  0  0  0
  -17.6530  -30.6230   24.0610 C   0  0  0  0  0  3  0  0  0  0  0  0
  -16.5570  -29.8490   23.6460 C   0  0  0  0  0  3  0  0  0  0  0  0
  -16.7720  -28.5830   23.0730 C   0  0  0  0  0  3  0  0  0  0  0  0
  -25.9090  -32.5470   23.8680 C   0  0  0  0  0  3  0  0  0  0  0  0
  -25.5900  -33.9470   24.1830 N   0  0  0  0  0  0  0  0  0  0  0  0
  -25.9260  -34.9940   23.4200 C   0  0  0  0  0  0  0  0  0  0  0  0
  -26.6060  -34.8840   22.3950 O   0  0  0  0  0  0  0  0  0  0  0  0
  -24.9860  -34.1050   24.9760 H   0  0  0  0  0  0  0  0  0  0  0  0
  -24.1940  -36.7770   23.0350 C   0  0  0  0  0  1  0  0  0  0  0  0
  -25.4300  -36.3850   23.8610 C   0  0  0  0  0  3  0  0  0  0  0  0
  -27.5570  -37.2820   24.7000 C   0  0  0  0  0  1  0  0  0  0  0  0
  -26.4610  -37.4400   23.7490 N   0  0  0  0  0  0  0  0  0  0  0  0
  -26.0510  -38.3600   23.8850 H   0  0  0  0  0  0  0  0  0  0  0  0
  -26.4160  -31.7870   25.1530 C   0  0  1  0  0  0  0  0  0  0  0  0
  -25.3120  -31.5570   26.2130 C   0  0  0  0  0  1  0  0  0  0  0  0
  -27.0050  -30.4080   24.7750 C   0  0  0  0  0  1  0  0  0  0  0  0
  -27.5590  -32.5880   25.8190 C   0  0  0  0  0  1  0  0  0  0  0  0
  1  2  1  0
  2  4  1  0
  3  1  1  0
  5  7  1  0
  5  6  1  0
  6 10  1  0
  7  3  1  0
  7  8  1  0
  8  4  1  0
  8  9  1  0
  9 12  1  0
 10  9  1  0
 10 50  1  0
 10 11  1  1
 13 12  1  0
 14 13  1  0
 15 20  1  0
 16 17  1  0
 16 15  1  0
 18 17  1  0
 18 25  1  0
 18 19  1  0
 20 14  1  0
 20 19  1  0
 21 14  2  0
 22 23  2  0
 23 42  1  0
 24 23  1  0
 24 27  1  0
 25 22  1  0
 25 26  1  0
 26 24  2  0
 27 28  1  0
 28 29  2  0
 30 33  1  0
 30 29  1  0
 31 30  2  0
 32 31  1  0
 32 27  2  0
 33 34  1  0
 34 35  1  0
 35 36  2  0
 37 36  1  0
 37 41  1  0
 38 37  2  0
 39 34  2  0
 39 38  1  0
 40 39  1  0
 42 43  1  0
 43 46  1  0
 43 45  1  0
 44 42  2  0
 47 48  1  0
 47 22  1  0
 49 47  1  0
 51 50  1  0
 51 52  1  0
 53 52  1  0
 54 53  1  0
 55 66  2  0
 56 54  1  0
 56 61  1  0
 57 65  1  0
 57 67  1  0
 58 64  1  0
 58 60  1  0
 59 65  1  0
 60 61  2  0
 60 59  1  0
 62 56  2  0
 63 62  1  0
 63 58  2  0
 64 57  1  0
 65 55  1  0
 67 69  2  0
 68 67  1  0
 70 68  1  0
 71 80  2  0
 71 76  1  0
 72 68  1  0
 72 76  1  0
 73 72  1  0
 74 75  1  0
 74 73  1  0
 75 71  1  0
 76 77  2  0
 77 78  1  0
 79 78  2  0
 80 79  1  0
 81 55  1  0
 81 82  1  0
 81 91  1  0
 82 85  1  0
 83 87  1  0
 83 82  1  0
 84 83  2  0
 87 86  1  0
 89 87  1  0
 89 90  1  0
 89 88  1  0
 91 94  1  1
 91 92  1  0
 93 91  1  0
M  ISO  4  13 100  14 100  53 101  54 101
M  END
>  <TORSDO>  (6) 
F 22

>  <SCORE>  (6) 
-13.357

>  <name>  (6) 
5

>  <ligand_id>  (6) 
5

>  <original_smiles>  (6) 
[H]c1c([H])c([H])c2c(c1[H])C([H])([H])C([H])([H])C([H])([H])C2([H])N([H])C(=O)C1([H])N(C(=O)C([H])(N([H])C(=O)C([H])(N([H])C([H])([H])[H])C([H])([H])[H])C(C([H])([H])[H])(C([H])([H])[H])C([H])([H])[H])C([H])([H])c2c([H])c(OC([H])([H])C([H])([H])C([H])([H])C([H])([H])[N+]3([H])C([H])([H])C([H])([H])C4([H])C([H])([H])C([H])([H])C([H])([H])C([H])([H])C4([H])C3([H])C([H])([H])C([H])([H])C(=O)N3C([H])([H])C([H])([H])C([H])([H])C([H])(n4nc(-c5c([H])c([H])c(Oc6c([H])c([H])c(F)c([H])c6F)c([H])c5[H])c(C(=O)N([H])[H])c4N([H])[H])C3([H])[H])c([H])c([H])c2C1([H])[H]

>  <smiles>  (6) 
[H]c1c([H])c([H])c2c(c1[H])C([H])([H])C([H])([H])C([H])([H])C2([H])N([H])C(=O)C1([H])N(C(=O)C([H])(N([H])C(=O)C([H])(N([H])C([H])([H])[H])C([H])([H])[H])C(C([H])([H])[H])(C([H])([H])[H])C([H])([H])[H])C([H])([H])c2c([H])c(OC([H])([H])C([H])([H])C([H])([H])C([H])([H])[N+]3([H])C([H])([H])C([H])([H])C4([H])C([H])([H])C([H])([H])C([H])([H])C([H])([H])C4([H])C3([H])C([H])([H])C([H])([H])C(=O)N3C([H])([H])C([H])([H])C([H])([H])C([H])(n4nc(-c5c([H])c([H])c(Oc6c([H])c([H])c(F)c([H])c6F)c([H])c5[H])c(C(=O)N([H])[H])c4N([H])[H])C3([H])[H])c([H])c([H])c2C1([H])[H]

$$$$
6:0:0
     RDKit          3D

 98107  0  0  1  0  0  0  0  0999 V2000
  -26.6710  -23.0940   18.7130 C   0  0  0  0  0  2  0  0  0  0  0  0
  -28.2000  -21.1150   18.9560 C   0  0  0  0  0  2  0  0  0  0  0  0
  -26.7340  -21.5630   18.8050 C   0  0  0  0  0  3  0  0  0  0  0  0
  -27.4840  -23.7960   19.8190 C   0  0  0  0  0  3  0  0  0  0  0  0
  -28.9560  -23.2680   19.8770 C   0  0  0  0  0  3  0  0  0  0  0  0
  -28.9010  -21.7260   20.1370 N   0  0  2  0  0  4  0  0  0  0  0  0
  -28.2500  -21.6470   20.9050 H   0  0  0  0  0  0  0  0  0  0  0  0
  -24.4420  -19.0510   17.0490 C   0  0  0  0  0  2  0  0  0  0  0  0
  -23.9690  -20.3730   16.4410 C   0  0  0  0  0  2  0  0  0  0  0  0
  -25.7250  -19.3720   17.8290 C   0  0  0  0  0  2  0  0  0  0  0  0
  -24.6660  -21.4620   17.2540 C   0  0  0  0  0  2  0  0  0  0  0  0
  -26.0360  -20.8680   17.6050 C   0  0  0  0  0  3  0  0  0  0  0  0
  -25.6870  -25.0710   21.1480 C   0  0  0  0  0  1  0  0  0  0  0  0
  -26.1420  -22.6930   21.8250 C   0  0  0  0  0  1  0  0  0  0  0  0
  -26.7520  -23.9580   21.1980 C   0  0  0  0  0  3  0  0  0  0  0  0
  -29.8500  -24.3230   20.6970 C   0  0  0  0  0  2  0  0  0  0  0  0
  -29.3460  -25.8480   21.0250 C   0  0  0  0  0  2  0  0  0  0  0  0
  -29.1980  -26.9790   20.0770 O   0  0  0  0  0  0  0  0  0  0  0  0
  -24.8770  -31.8250   23.3440 C   0  0  0  0  0  0  0  0  0  0  0  0
  -28.0100  -27.7280   20.1240 C   0  0  0  0  0  0  0  0  0  0  0  0
  -23.8650  -30.4410   21.5650 C   0  0  0  0  0  3  0  0  0  0  0  0
  -25.5050  -29.1130   20.1140 C   0  0  0  0  0  0  0  0  0  0  0  0
  -26.3700  -30.9930   21.5110 C   0  0  0  0  0  2  0  0  0  0  0  0
  -26.6010  -29.6670   20.7890 C   0  0  0  0  0  0  0  0  0  0  0  0
  -27.8590  -28.9880   20.7860 C   0  0  0  0  0  3  0  0  0  0  0  0
  -26.8920  -27.2270   19.4260 C   0  0  0  0  0  3  0  0  0  0  0  0
  -25.6510  -27.8970   19.4240 C   0  0  0  0  0  3  0  0  0  0  0  0
  -24.1920  -29.8730   20.1580 C   0  0  0  0  0  2  0  0  0  0  0  0
  -25.0530  -31.1010   22.2000 N   0  0  0  0  0  0  0  0  0  0  0  0
  -23.7540  -31.9730   23.8490 O   0  0  0  0  0  0  0  0  0  0  0  0
  -23.2570  -29.3110   22.4290 C   0  0  0  0  0  0  0  0  0  0  0  0
  -22.0150  -28.9060   22.1120 N   0  0  0  0  0  0  0  0  0  0  0  0
  -23.9080  -28.8000   23.3450 O   0  0  0  0  0  0  0  0  0  0  0  0
  -21.5430  -29.3820   21.3550 H   0  0  0  0  0  0  0  0  0  0  0  0
  -18.8830  -27.0960   22.0990 C   0  0  0  0  0  0  0  0  0  0  0  0
  -21.2680  -27.8320   22.7690 C   0  0  0  0  0  3  0  0  0  0  0  0
  -21.7270  -26.4440   22.2640 C   0  0  0  0  0  2  0  0  0  0  0  0
  -20.8880  -25.9240   21.0920 C   0  0  0  0  0  2  0  0  0  0  0  0
  -19.4170  -25.8060   21.5000 C   0  0  0  0  0  2  0  0  0  0  0  0
  -19.7540  -28.0560   22.6800 C   0  0  0  0  0  0  0  0  0  0  0  0
  -19.2100  -29.2530   23.1940 C   0  0  0  0  0  3  0  0  0  0  0  0
  -17.8250  -29.4980   23.1320 C   0  0  0  0  0  3  0  0  0  0  0  0
  -16.9670  -28.5400   22.5660 C   0  0  0  0  0  3  0  0  0  0  0  0
  -17.4950  -27.3410   22.0570 C   0  0  0  0  0  3  0  0  0  0  0  0
  -26.0740  -32.5220   24.0610 C   0  0  0  0  0  3  0  0  0  0  0  0
  -25.6660  -33.9000   24.3720 N   0  0  0  0  0  0  0  0  0  0  0  0
  -26.0280  -34.9800   23.6660 C   0  0  0  0  0  0  0  0  0  0  0  0
  -26.8070  -34.9240   22.7120 O   0  0  0  0  0  0  0  0  0  0  0  0
  -24.9830  -34.0140   25.1060 H   0  0  0  0  0  0  0  0  0  0  0  0
  -24.2730  -36.7070   23.1440 C   0  0  0  0  0  1  0  0  0  0  0  0
  -25.4300  -36.3370   24.0870 C   0  0  0  0  0  3  0  0  0  0  0  0
  -27.4240  -37.2850   25.1610 C   0  0  0  0  0  1  0  0  0  0  0  0
  -26.4210  -37.4350   24.1110 N   0  0  0  0  0  0  0  0  0  0  0  0
  -25.9610  -38.3320   24.2390 H   0  0  0  0  0  0  0  0  0  0  0  0
  -26.5360  -31.7710   25.3690 C   0  0  1  0  0  0  0  0  0  0  0  0
  -25.3690  -31.3690   26.3000 C   0  0  0  0  0  1  0  0  0  0  0  0
  -27.3210  -30.4880   25.0140 C   0  0  0  0  0  1  0  0  0  0  0  0
  -27.5030  -32.6720   26.1740 C   0  0  0  0  0  1  0  0  0  0  0  0
  -30.0700  -20.8170   20.5910 C   0  0  0  0  0  3  0  0  0  0  0  0
  -29.8220  -19.1920   20.4750 C   0  0  0  0  0  3  0  0  0  0  0  0
  -30.9120  -18.0100   20.6240 C   0  0  0  0  0  2  0  0  0  0  0  0
  -30.3400  -16.4930   20.7270 C   0  0  0  0  0  2  0  0  0  0  0  0
  -31.1390  -15.2000   20.2090 C   0  0  0  0  0  0  0  0  0  0  0  0
  -30.9430  -12.9680   19.0800 C   0  0  0  0  0  2  0  0  0  0  0  0
  -30.0070  -13.0980   17.8560 C   0  0  0  0  0  2  0  0  0  0  0  0
  -28.5290  -12.9290   18.2700 C   0  0  0  0  0  2  0  0  0  0  0  0
  -28.1610  -13.7860   19.5080 C   0  0  0  0  0  3  0  0  0  0  0  0
  -29.2070  -13.6280   20.6340 C   0  0  0  0  0  2  0  0  0  0  0  0
  -30.5220  -13.9750   20.0790 N   0  0  0  0  0  0  0  0  0  0  0  0
  -32.2990  -15.3380   19.8090 O   0  0  0  0  0  0  0  0  0  0  0  0
  -25.7640  -14.4000   20.1960 C   0  0  0  0  0  0  0  0  0  0  0  0
  -24.6870  -13.6340   20.5540 C   0  0  0  0  0  0  0  0  0  0  0  0
  -25.1400  -12.2810   20.5330 C   0  0  0  0  0  0  0  0  0  0  0  0
  -26.8060  -13.5120   19.9780 N   0  0  0  0  0  0  0  0  0  0  0  0
  -26.4360  -12.2330   20.2430 N   0  0  0  0  0  0  0  0  0  0  0  0
  -24.4030  -11.0240   20.7170 C   0  0  0  0  0  0  0  0  0  0  0  0
  -24.8030  -10.0670   21.6740 C   0  0  0  0  0  3  0  0  0  0  0  0
  -24.0650   -8.8760   21.8460 C   0  0  0  0  0  3  0  0  0  0  0  0
  -22.9140   -8.6330   21.0620 C   0  0  0  0  0  0  0  0  0  0  0  0
  -22.5310   -9.5780   20.0960 C   0  0  0  0  0  3  0  0  0  0  0  0
  -23.2690  -10.7620   19.9210 C   0  0  0  0  0  3  0  0  0  0  0  0
  -22.1530   -7.4910   21.1410 O   0  0  0  0  0  0  0  0  0  0  0  0
  -21.8920   -6.8830   22.3420 C   0  0  0  0  0  0  0  0  0  0  0  0
  -21.2870   -7.5750   23.4130 C   0  0  0  0  0  3  0  0  0  0  0  0
  -20.9710   -6.8920   24.6040 C   0  0  0  0  0  3  0  0  0  0  0  0
  -21.2520   -5.5180   24.7260 C   0  0  0  0  0  0  0  0  0  0  0  0
  -21.8520   -4.8250   23.6580 C   0  0  0  0  0  3  0  0  0  0  0  0
  -22.1670   -5.5050   22.4690 C   0  0  0  0  0  0  0  0  0  0  0  0
  -22.7240   -4.8280   21.4360 F   0  0  0  0  0  0  0  0  0  0  0  0
  -20.9410   -4.8620   25.8660 F   0  0  0  0  0  0  0  0  0  0  0  0
  -23.2900  -14.1240   20.8040 C   0  0  0  0  0  0  0  0  0  0  0  0
  -22.5630  -13.4640   21.7000 N   0  0  0  0  0  0  0  0  0  0  0  0
  -22.8530  -15.1250   20.2410 O   0  0  0  0  0  0  0  0  0  0  0  0
  -22.9290  -12.6540   22.1780 H   0  0  0  0  0  0  0  0  0  0  0  0
  -21.6260  -13.7750   21.9090 H   0  0  0  0  0  0  0  0  0  0  0  0
  -25.9380  -15.7680   20.0160 N   0  0  0  0  0  0  0  0  0  0  0  0
  -25.1660  -16.4200   20.0990 H   0  0  0  0  0  0  0  0  0  0  0  0
  -26.7910  -16.1980   19.6850 H   0  0  0  0  0  0  0  0  0  0  0  0
  1  3  1  0
  1  4  1  0
  2  6  1  0
  3 12  1  0
  3  2  1  0
  4  5  1  0
  4 15  1  0
  5  6  1  0
  5 16  1  0
  6 59  1  0
  6  7  1  1
  8 10  1  0
  9  8  1  0
  9 11  1  0
 11 12  1  0
 12 10  1  0
 13 15  1  0
 15 14  1  0
 16 17  1  0
 18 20  1  0
 18 17  1  0
 19 30  2  0
 20 25  1  0
 21 29  1  0
 21 31  1  0
 22 28  1  0
 22 24  1  0
 23 29  1  0
 24 23  1  0
 25 24  2  0
 26 20  2  0
 27 26  1  0
 27 22  2  0
 28 21  1  0
 29 19  1  0
 31 33  2  0
 32 31  1  0
 34 32  1  0
 35 40  1  0
 36 32  1  0
 37 36  1  0
 38 39  1  0
 38 37  1  0
 39 35  1  0
 40 36  1  0
 40 41  2  0
 42 41  1  0
 43 42  2  0
 44 35  2  0
 44 43  1  0
 45 19  1  0
 45 46  1  0
 45 55  1  0
 46 49  1  0
 47 51  1  0
 47 46  1  0
 48 47  2  0
 51 50  1  0
 51 53  1  0
 53 54  1  0
 53 52  1  0
 55 58  1  1
 55 56  1  0
 57 55  1  0
 60 59  2  0
 60 61  1  0
 61 62  1  0
 63 62  1  0
 64 69  1  0
 65 66  1  0
 65 64  1  0
 67 66  1  0
 67 74  1  0
 67 68  1  0
 69 63  1  0
 69 68  1  0
 70 63  2  0
 71 72  2  0
 72 91  1  0
 73 72  1  0
 73 76  1  0
 74 71  1  0
 74 75  1  0
 75 73  2  0
 76 77  1  0
 77 78  2  0
 79 82  1  0
 79 78  1  0
 80 79  2  0
 81 80  1  0
 81 76  2  0
 82 83  1  0
 83 88  2  0
 83 84  1  0
 84 85  2  0
 85 86  1  0
 86 90  1  0
 87 86  2  0
 88 87  1  0
 89 88  1  0
 91 92  1  0
 92 95  1  0
 92 94  1  0
 93 91  2  0
 96 97  1  0
 96 71  1  0
 98 96  1  0
M  ISO  4  17 101  18 101  62 100  63 100
M  END
>  <TORSDO>  (7) 
F 24

>  <SCORE>  (7) 
-8.034

>  <name>  (7) 
6

>  <ligand_id>  (7) 
6

>  <original_smiles>  (7) 
[H]c1c([H])c([H])c2c(c1[H])C([H])([H])C([H])([H])C([H])([H])C2([H])N([H])C(=O)C1([H])N(C(=O)C([H])(N([H])C(=O)C([H])(N([H])C([H])([H])[H])C([H])([H])[H])C(C([H])([H])[H])(C([H])([H])[H])C([H])([H])[H])C([H])([H])c2c([H])c(OC([H])([H])C([H])([H])C3([H])C([H])(C([H])(C([H])([H])[H])C([H])([H])[H])C([H])([H])C([H])(C4([H])C([H])([H])C([H])([H])C([H])([H])C4([H])[H])C([H])([H])[N+]3([H])C([H])([H])C([H])([H])C([H])([H])C([H])([H])C(=O)N3C([H])([H])C([H])([H])C([H])([H])C([H])(n4nc(-c5c([H])c([H])c(Oc6c([H])c([H])c(F)c([H])c6F)c([H])c5[H])c(C(=O)N([H])[H])c4N([H])[H])C3([H])[H])c([H])c([H])c2C1([H])[H]

>  <smiles>  (7) 
[H]c1c([H])c([H])c2c(c1[H])C([H])([H])C([H])([H])C([H])([H])C2([H])N([H])C(=O)C1([H])N(C(=O)C([H])(N([H])C(=O)C([H])(N([H])C([H])([H])[H])C([H])([H])[H])C(C([H])([H])[H])(C([H])([H])[H])C([H])([H])[H])C([H])([H])c2c([H])c(OC([H])([H])C([H])([H])C3([H])C([H])(C([H])(C([H])([H])[H])C([H])([H])[H])C([H])([H])C([H])(C4([H])C([H])([H])C([H])([H])C([H])([H])C4([H])[H])C([H])([H])[N+]3([H])C([H])([H])C([H])([H])C([H])([H])C([H])([H])C(=O)N3C([H])([H])C([H])([H])C([H])([H])C([H])(n4nc(-c5c([H])c([H])c(Oc6c([H])c([H])c(F)c([H])c6F)c([H])c5[H])c(C(=O)N([H])[H])c4N([H])[H])C3([H])[H])c([H])c([H])c2C1([H])[H]

$$$$
7:0:0
     RDKit          3D

 94103  0  0  1  0  0  0  0  0999 V2000
  -30.1980  -17.6220   23.4620 C   0  0  0  0  0  2  0  0  0  0  0  0
  -30.7210  -16.5360   22.5020 C   0  0  0  0  0  2  0  0  0  0  0  0
  -28.7730  -21.2680   21.7270 C   0  0  0  0  0  2  0  0  0  0  0  0
  -30.7140  -19.0300   23.0920 C   0  0  0  0  0  2  0  0  0  0  0  0
  -28.9330  -19.7780   21.3910 C   0  0  0  0  0  2  0  0  0  0  0  0
  -30.9030  -18.2930   20.6980 C   0  0  0  0  0  2  0  0  0  0  0  0
  -31.1130  -20.7500   21.2410 C   0  0  0  0  0  2  0  0  0  0  0  0
  -30.3600  -16.8850   21.0470 C   0  0  0  0  0  3  0  0  0  0  0  0
  -30.1740  -21.9080   21.6390 C   0  0  0  0  0  3  0  0  0  0  0  0
  -30.4150  -19.4270   21.6230 C   0  0  2  0  0  0  0  0  0  0  0  0
  -30.2300  -23.0430   20.6840 N   0  0  0  0  0  4  0  0  0  0  0  0
  -29.3570  -23.5440   20.7510 H   0  0  0  0  0  0  0  0  0  0  0  0
  -30.2960  -22.6620   19.7540 H   0  0  0  0  0  0  0  0  0  0  0  0
  -31.3270  -24.0240   20.9060 C   0  0  0  0  0  2  0  0  0  0  0  0
  -31.5530  -24.9840   19.7130 C   0  0  0  0  0  2  0  0  0  0  0  0
  -30.3210  -25.7860   19.2590 C   0  0  0  0  0  2  0  0  0  0  0  0
  -30.0430  -26.9080   20.1010 O   0  0  0  0  0  0  0  0  0  0  0  0
  -25.2580  -31.0460   23.3600 C   0  0  0  0  0  0  0  0  0  0  0  0
  -28.7690  -27.4450   20.0490 C   0  0  0  0  0  0  0  0  0  0  0  0
  -24.4020  -29.6910   21.4800 C   0  0  0  0  0  3  0  0  0  0  0  0
  -26.1700  -28.5780   20.0230 C   0  0  0  0  0  0  0  0  0  0  0  0
  -26.8500  -30.4370   21.5440 C   0  0  0  0  0  2  0  0  0  0  0  0
  -27.1900  -29.1820   20.7680 C   0  0  0  0  0  0  0  0  0  0  0  0
  -28.4880  -28.6190   20.7870 C   0  0  0  0  0  3  0  0  0  0  0  0
  -27.7210  -26.8630   19.2910 C   0  0  0  0  0  3  0  0  0  0  0  0
  -26.4300  -27.4140   19.2860 C   0  0  0  0  0  3  0  0  0  0  0  0
  -24.8080  -29.2310   20.0560 C   0  0  0  0  0  2  0  0  0  0  0  0
  -25.5160  -30.4010   22.1880 N   0  0  0  0  0  0  0  0  0  0  0  0
  -24.1120  -31.0880   23.8300 O   0  0  0  0  0  0  0  0  0  0  0  0
  -23.8600  -28.4720   22.2590 C   0  0  0  0  0  0  0  0  0  0  0  0
  -22.6050  -28.0890   21.9730 N   0  0  0  0  0  0  0  0  0  0  0  0
  -24.5700  -27.8770   23.0740 O   0  0  0  0  0  0  0  0  0  0  0  0
  -22.0860  -28.6350   21.3010 H   0  0  0  0  0  0  0  0  0  0  0  0
  -19.4760  -26.2870   21.9500 C   0  0  0  0  0  0  0  0  0  0  0  0
  -21.8990  -26.9500   22.5580 C   0  0  0  0  0  3  0  0  0  0  0  0
  -22.3240  -25.6250   21.8830 C   0  0  0  0  0  2  0  0  0  0  0  0
  -21.4150  -25.2230   20.7170 C   0  0  0  0  0  2  0  0  0  0  0  0
  -19.9690  -25.0620   21.1940 C   0  0  0  0  0  2  0  0  0  0  0  0
  -20.3850  -27.1810   22.5760 C   0  0  0  0  0  0  0  0  0  0  0  0
  -19.8770  -28.3220   23.2330 C   0  0  0  0  0  3  0  0  0  0  0  0
  -18.4920  -28.5750   23.2740 C   0  0  0  0  0  3  0  0  0  0  0  0
  -17.5970  -27.6760   22.6670 C   0  0  0  0  0  3  0  0  0  0  0  0
  -18.0890  -26.5330   22.0110 C   0  0  0  0  0  3  0  0  0  0  0  0
  -26.3840  -31.7820   24.1510 C   0  0  0  0  0  3  0  0  0  0  0  0
  -25.8900  -33.1260   24.4750 N   0  0  0  0  0  0  0  0  0  0  0  0
  -26.2080  -34.2360   23.7960 C   0  0  0  0  0  0  0  0  0  0  0  0
  -27.0170  -34.2430   22.8640 O   0  0  0  0  0  0  0  0  0  0  0  0
  -25.1800  -33.1880   25.1900 H   0  0  0  0  0  0  0  0  0  0  0  0
  -24.3600  -35.8510   23.2570 C   0  0  0  0  0  1  0  0  0  0  0  0
  -25.5180  -35.5470   24.2200 C   0  0  0  0  0  3  0  0  0  0  0  0
  -27.4260  -36.6030   25.3460 C   0  0  0  0  0  1  0  0  0  0  0  0
  -26.4380  -36.7030   24.2750 N   0  0  0  0  0  0  0  0  0  0  0  0
  -25.9210  -37.5700   24.4020 H   0  0  0  0  0  0  0  0  0  0  0  0
  -26.8240  -31.0180   25.4580 C   0  0  1  0  0  0  0  0  0  0  0  0
  -25.6450  -30.6330   26.3810 C   0  0  0  0  0  1  0  0  0  0  0  0
  -27.5860  -29.7190   25.1010 C   0  0  0  0  0  1  0  0  0  0  0  0
  -27.8020  -31.8950   26.2740 C   0  0  0  0  0  1  0  0  0  0  0  0
  -30.8340  -15.9020   19.9450 C   0  0  0  0  0  2  0  0  0  0  0  0
  -31.5350  -14.5750   20.2930 C   0  0  0  0  0  0  0  0  0  0  0  0
  -31.1360  -12.3050   19.4910 C   0  0  0  0  0  2  0  0  0  0  0  0
  -30.2550  -12.4310   18.2300 C   0  0  0  0  0  2  0  0  0  0  0  0
  -28.7620  -12.4070   18.6110 C   0  0  0  0  0  2  0  0  0  0  0  0
  -28.4170  -13.4100   19.7420 C   0  0  0  0  0  3  0  0  0  0  0  0
  -29.4390  -13.3440   20.9020 C   0  0  0  0  0  2  0  0  0  0  0  0
  -30.8000  -13.4380   20.3620 N   0  0  0  0  0  0  0  0  0  0  0  0
  -32.7540  -14.5660   20.1060 O   0  0  0  0  0  0  0  0  0  0  0  0
  -26.1140  -14.2370   20.5240 C   0  0  0  0  0  0  0  0  0  0  0  0
  -24.9630  -13.5690   20.8370 C   0  0  0  0  0  0  0  0  0  0  0  0
  -25.2660  -12.1790   20.7060 C   0  0  0  0  0  0  0  0  0  0  0  0
  -27.0480  -13.2570   20.2170 N   0  0  0  0  0  0  0  0  0  0  0  0
  -26.5440  -12.0110   20.3920 N   0  0  0  0  0  0  0  0  0  0  0  0
  -24.4000  -10.9990   20.8040 C   0  0  0  0  0  0  0  0  0  0  0  0
  -24.7510   -9.8920   21.6070 C   0  0  0  0  0  3  0  0  0  0  0  0
  -23.8940   -8.7730   21.6960 C   0  0  0  0  0  3  0  0  0  0  0  0
  -22.6710   -8.7590   20.9820 C   0  0  0  0  0  0  0  0  0  0  0  0
  -22.3390   -9.8540   20.1650 C   0  0  0  0  0  3  0  0  0  0  0  0
  -23.1960  -10.9640   20.0730 C   0  0  0  0  0  3  0  0  0  0  0  0
  -21.7870   -7.7070   20.9900 O   0  0  0  0  0  0  0  0  0  0  0  0
  -21.7200   -6.8330   22.0450 C   0  0  0  0  0  0  0  0  0  0  0  0
  -21.4580   -7.2720   23.3620 C   0  0  0  0  0  3  0  0  0  0  0  0
  -21.3280   -6.3330   24.4040 C   0  0  0  0  0  3  0  0  0  0  0  0
  -21.4480   -4.9570   24.1310 C   0  0  0  0  0  0  0  0  0  0  0  0
  -21.7050   -4.5180   22.8200 C   0  0  0  0  0  3  0  0  0  0  0  0
  -21.8370   -5.4530   21.7800 C   0  0  0  0  0  0  0  0  0  0  0  0
  -22.0630   -5.0240   20.5150 F   0  0  0  0  0  0  0  0  0  0  0  0
  -21.3150   -4.0550   25.1310 F   0  0  0  0  0  0  0  0  0  0  0  0
  -23.6280  -14.1840   21.1420 C   0  0  0  0  0  0  0  0  0  0  0  0
  -22.8260  -13.5310   21.9770 N   0  0  0  0  0  0  0  0  0  0  0  0
  -23.3060  -15.2760   20.6780 O   0  0  0  0  0  0  0  0  0  0  0  0
  -23.0980  -12.6450   22.3770 H   0  0  0  0  0  0  0  0  0  0  0  0
  -21.9270  -13.9230   22.2190 H   0  0  0  0  0  0  0  0  0  0  0  0
  -26.4380  -15.5890   20.4530 N   0  0  0  0  0  0  0  0  0  0  0  0
  -25.7530  -16.3170   20.6330 H   0  0  0  0  0  0  0  0  0  0  0  0
  -27.3390  -15.9520   20.1700 H   0  0  0  0  0  0  0  0  0  0  0  0
  2  1  1  0
  4  1  1  0
 10  5  1  1
  5  3  1  0
  6  8  1  0
  7 10  1  0
  7  9  1  0
  8 58  1  0
  8  2  1  0
  9 11  1  0
  9  3  1  0
 10  6  1  0
 10  4  1  0
 11 12  1  0
 11 14  1  0
 13 11  1  0
 15 14  1  0
 16 15  1  0
 16 17  1  0
 18 29  2  0
 19 17  1  0
 19 24  1  0
 20 28  1  0
 20 30  1  0
 21 27  1  0
 21 23  1  0
 22 28  1  0
 23 24  2  0
 23 22  1  0
 25 19  2  0
 26 25  1  0
 26 21  2  0
 27 20  1  0
 28 18  1  0
 30 32  2  0
 31 30  1  0
 33 31  1  0
 34 43  2  0
 34 39  1  0
 35 31  1  0
 35 39  1  0
 36 35  1  0
 37 38  1  0
 37 36  1  0
 38 34  1  0
 39 40  2  0
 40 41  1  0
 42 41  2  0
 43 42  1  0
 44 18  1  0
 44 45  1  0
 44 54  1  0
 45 48  1  0
 46 50  1  0
 46 45  1  0
 47 46  2  0
 50 49  1  0
 50 52  1  0
 52 53  1  0
 52 51  1  0
 54 57  1  1
 54 55  1  0
 56 54  1  0
 58 59  1  0
 59 65  1  0
 60 65  1  0
 61 62  1  0
 61 60  1  0
 63 62  1  0
 63 70  1  0
 63 64  1  0
 65 64  1  0
 66 59  2  0
 67 68  2  0
 68 87  1  0
 69 72  1  0
 69 68  1  0
 70 71  1  0
 70 67  1  0
 71 69  2  0
 72 73  1  0
 73 74  2  0
 75 78  1  0
 75 74  1  0
 76 75  2  0
 77 76  1  0
 77 72  2  0
 78 79  1  0
 79 80  1  0
 80 81  2  0
 82 81  1  0
 82 86  1  0
 83 82  2  0
 84 79  2  0
 84 83  1  0
 85 84  1  0
 87 88  1  0
 88 91  1  0
 88 90  1  0
 89 87  2  0
 92 67  1  0
 92 93  1  0
 94 92  1  0
M  ISO  4  16 101  17 101  58 100  59 100
M  END
>  <TORSDO>  (8) 
F 21

>  <SCORE>  (8) 
-8.254

>  <name>  (8) 
7

>  <ligand_id>  (8) 
7

>  <original_smiles>  (8) 
[H]c1c([H])c([H])c2c(c1[H])C([H])([H])C([H])([H])C([H])([H])C2([H])N([H])C(=O)C1([H])N(C(=O)C([H])(N([H])C(=O)C([H])(N([H])C([H])([H])[H])C([H])([H])[H])C(C([H])([H])[H])(C([H])([H])[H])C([H])([H])[H])C([H])([H])c2c([H])c(OC([H])([H])C([H])([H])C([H])([H])[N+]([H])([H])C3([H])C([H])([H])C([H])([H])C4(C([H])([H])C([H])([H])C([H])([H])C([H])(C([H])([H])C(=O)N5C([H])([H])C([H])([H])C([H])([H])C([H])(n6nc(-c7c([H])c([H])c(Oc8c([H])c([H])c(F)c([H])c8F)c([H])c7[H])c(C(=O)N([H])[H])c6N([H])[H])C5([H])[H])C4([H])[H])C3([H])[H])c([H])c([H])c2C1([H])[H]

>  <smiles>  (8) 
[H]c1c([H])c([H])c2c(c1[H])C([H])([H])C([H])([H])C([H])([H])C2([H])N([H])C(=O)C1([H])N(C(=O)C([H])(N([H])C(=O)C([H])(N([H])C([H])([H])[H])C([H])([H])[H])C(C([H])([H])[H])(C([H])([H])[H])C([H])([H])[H])C([H])([H])c2c([H])c(OC([H])([H])C([H])([H])C([H])([H])[N+]([H])([H])C3([H])C([H])([H])C([H])([H])C4(C([H])([H])C([H])([H])C([H])([H])C([H])(C([H])([H])C(=O)N5C([H])([H])C([H])([H])C([H])([H])C([H])(n6nc(-c7c([H])c([H])c(Oc8c([H])c([H])c(F)c([H])c8F)c([H])c7[H])c(C(=O)N([H])[H])c6N([H])[H])C5([H])[H])C4([H])[H])C3([H])[H])c([H])c([H])c2C1([H])[H]

$$$$
8:0:0
     RDKit          3D

 98107  0  0  1  0  0  0  0  0999 V2000
  -30.6620  -20.8610   20.4490 C   0  0  0  0  0  3  0  0  0  0  0  0
  -30.7370  -22.3370   20.2710 N   0  0  0  0  0  4  0  0  0  0  0  0
  -31.3890  -22.5100   19.5200 H   0  0  0  0  0  0  0  0  0  0  0  0
  -31.1390  -22.7450   21.0980 H   0  0  0  0  0  0  0  0  0  0  0  0
  -29.4790  -23.0520   19.9150 C   0  0  0  0  0  2  0  0  0  0  0  0
  -29.7180  -24.5810   19.7860 C   0  0  0  0  0  2  0  0  0  0  0  0
  -28.4520  -25.3660   19.3970 C   0  0  0  0  0  2  0  0  0  0  0  0
  -28.5820  -26.7920   19.5830 O   0  0  0  0  0  0  0  0  0  0  0  0
  -24.7140  -31.6210   23.1220 C   0  0  0  0  0  0  0  0  0  0  0  0
  -27.4000  -27.5140   19.6370 C   0  0  0  0  0  0  0  0  0  0  0  0
  -23.5110  -30.3430   21.3800 C   0  0  0  0  0  3  0  0  0  0  0  0
  -24.9740  -28.9730   19.8050 C   0  0  0  0  0  0  0  0  0  0  0  0
  -26.0200  -30.7850   21.1660 C   0  0  0  0  0  2  0  0  0  0  0  0
  -26.1300  -29.4720   20.4150 C   0  0  0  0  0  0  0  0  0  0  0  0
  -27.3480  -28.7500   20.3260 C   0  0  0  0  0  3  0  0  0  0  0  0
  -26.2150  -27.0400   19.0250 C   0  0  0  0  0  3  0  0  0  0  0  0
  -25.0110  -27.7570   19.1080 C   0  0  0  0  0  3  0  0  0  0  0  0
  -23.7110  -29.7900   19.9440 C   0  0  0  0  0  2  0  0  0  0  0  0
  -24.7690  -30.9260   21.9510 N   0  0  0  0  0  0  0  0  0  0  0  0
  -23.6360  -31.8180   23.7000 O   0  0  0  0  0  0  0  0  0  0  0  0
  -22.8940  -29.2260   22.2550 C   0  0  0  0  0  0  0  0  0  0  0  0
  -21.5720  -29.0160   22.1200 N   0  0  0  0  0  0  0  0  0  0  0  0
  -23.6020  -28.5540   23.0090 O   0  0  0  0  0  0  0  0  0  0  0  0
  -21.0560  -29.6110   21.4870 H   0  0  0  0  0  0  0  0  0  0  0  0
  -18.2370  -27.6970   22.5220 C   0  0  0  0  0  0  0  0  0  0  0  0
  -20.7880  -27.9940   22.8140 C   0  0  0  0  0  3  0  0  0  0  0  0
  -20.9240  -26.6170   22.1200 C   0  0  0  0  0  2  0  0  0  0  0  0
  -19.8260  -26.3530   21.0850 C   0  0  0  0  0  2  0  0  0  0  0  0
  -18.4430  -26.4110   21.7400 C   0  0  0  0  0  2  0  0  0  0  0  0
  -19.3380  -28.4470   23.0140 C   0  0  0  0  0  0  0  0  0  0  0  0
  -19.0880  -29.6550   23.7000 C   0  0  0  0  0  3  0  0  0  0  0  0
  -17.7720  -30.1110   23.9030 C   0  0  0  0  0  3  0  0  0  0  0  0
  -16.6850  -29.3520   23.4340 C   0  0  0  0  0  3  0  0  0  0  0  0
  -16.9180  -28.1480   22.7460 C   0  0  0  0  0  3  0  0  0  0  0  0
  -25.9960  -32.2260   23.7760 C   0  0  0  0  0  3  0  0  0  0  0  0
  -26.5500  -31.3580   24.9720 C   0  0  1  0  0  0  0  0  0  0  0  0
  -25.4690  -30.9750   26.0080 C   0  0  0  0  0  1  0  0  0  0  0  0
  -27.1850  -30.0540   24.4400 C   0  0  0  0  0  1  0  0  0  0  0  0
  -27.6670  -32.1290   25.7140 C   0  0  0  0  0  1  0  0  0  0  0  0
  -25.6670  -33.5840   24.2270 N   0  0  0  0  0  0  0  0  0  0  0  0
  -25.9830  -34.7050   23.5650 C   0  0  0  0  0  0  0  0  0  0  0  0
  -26.6530  -34.7050   22.5290 O   0  0  0  0  0  0  0  0  0  0  0  0
  -25.0790  -33.6570   25.0450 H   0  0  0  0  0  0  0  0  0  0  0  0
  -24.2250  -36.4820   23.3630 C   0  0  0  0  0  1  0  0  0  0  0  0
  -25.4740  -36.0380   24.1420 C   0  0  0  0  0  3  0  0  0  0  0  0
  -27.5930  -36.8680   25.0560 C   0  0  0  0  0  1  0  0  0  0  0  0
  -26.4890  -37.1130   24.1300 N   0  0  0  0  0  0  0  0  0  0  0  0
  -26.0670  -38.0060   24.3720 H   0  0  0  0  0  0  0  0  0  0  0  0
  -33.2190  -20.7260   21.0970 C   0  0  0  0  0  1  0  0  0  0  0  0
  -32.0570  -20.2220   20.2230 C   0  0  0  0  0  2  0  0  0  0  0  0
  -29.8350  -20.3470   21.7050 C   0  0  0  0  0  3  0  0  0  0  0  0
  -31.4570  -16.4770   24.1040 C   0  0  0  0  0  2  0  0  0  0  0  0
  -31.1720  -15.6970   22.8250 C   0  0  0  0  0  2  0  0  0  0  0  0
  -30.6080  -17.7420   23.9350 C   0  0  0  0  0  2  0  0  0  0  0  0
  -29.3090  -18.1030   20.6630 C   0  0  0  0  0  2  0  0  0  0  0  0
  -31.0230  -16.7840   21.7360 C   0  0  0  0  0  3  0  0  0  0  0  0
  -29.7920  -16.6480   20.8380 C   0  0  0  0  0  3  0  0  0  0  0  0
  -30.8580  -18.1290   22.4690 C   0  0  0  0  0  3  0  0  0  0  0  0
  -29.7410  -18.8590   21.8470 N   0  0  0  0  0  0  0  0  0  0  0  0
  -30.0300  -16.0050   19.4480 C   0  0  0  0  0  2  0  0  0  0  0  0
  -30.8440  -14.6910   19.3120 C   0  0  0  0  0  0  0  0  0  0  0  0
  -30.4470  -12.4760   18.3300 C   0  0  0  0  0  2  0  0  0  0  0  0
  -29.3720  -12.6530   17.2360 C   0  0  0  0  0  2  0  0  0  0  0  0
  -27.9600  -12.4940   17.8350 C   0  0  0  0  0  2  0  0  0  0  0  0
  -27.7590  -13.3730   19.0980 C   0  0  0  0  0  3  0  0  0  0  0  0
  -28.9460  -13.2550   20.0820 C   0  0  0  0  0  2  0  0  0  0  0  0
  -30.1950  -13.4990   19.3560 N   0  0  0  0  0  0  0  0  0  0  0  0
  -31.9840  -14.8050   18.8530 O   0  0  0  0  0  0  0  0  0  0  0  0
  -25.5190  -14.0120   20.1810 C   0  0  0  0  0  0  0  0  0  0  0  0
  -24.4930  -13.2540   20.6680 C   0  0  0  0  0  0  0  0  0  0  0  0
  -24.9070  -11.8940   20.5280 C   0  0  0  0  0  0  0  0  0  0  0  0
  -26.4890  -13.1120   19.7620 N   0  0  0  0  0  0  0  0  0  0  0  0
  -26.1360  -11.8330   20.0350 N   0  0  0  0  0  0  0  0  0  0  0  0
  -24.1840  -10.6450   20.7730 C   0  0  0  0  0  0  0  0  0  0  0  0
  -24.6150   -9.7240   21.7530 C   0  0  0  0  0  3  0  0  0  0  0  0
  -23.8940   -8.5330   21.9820 C   0  0  0  0  0  3  0  0  0  0  0  0
  -22.7280   -8.2570   21.2300 C   0  0  0  0  0  0  0  0  0  0  0  0
  -22.3180   -9.1630   20.2390 C   0  0  0  0  0  3  0  0  0  0  0  0
  -23.0390  -10.3470   20.0080 C   0  0  0  0  0  3  0  0  0  0  0  0
  -21.9770   -7.1130   21.3660 O   0  0  0  0  0  0  0  0  0  0  0  0
  -21.8140   -6.5050   22.5800 C   0  0  0  0  0  0  0  0  0  0  0  0
  -21.2610   -7.1840   23.6880 C   0  0  0  0  0  3  0  0  0  0  0  0
  -21.0390   -6.4980   24.8970 C   0  0  0  0  0  3  0  0  0  0  0  0
  -21.3680   -5.1310   25.0030 C   0  0  0  0  0  0  0  0  0  0  0  0
  -21.9200   -4.4540   23.9010 C   0  0  0  0  0  3  0  0  0  0  0  0
  -22.1390   -5.1380   22.6940 C   0  0  0  0  0  0  0  0  0  0  0  0
  -22.6480   -4.4740   21.6300 F   0  0  0  0  0  0  0  0  0  0  0  0
  -21.1520   -4.4690   26.1640 F   0  0  0  0  0  0  0  0  0  0  0  0
  -23.1590  -13.7510   21.1490 C   0  0  0  0  0  0  0  0  0  0  0  0
  -22.5560  -13.0660   22.1120 N   0  0  0  0  0  0  0  0  0  0  0  0
  -22.6630  -14.7850   20.7020 O   0  0  0  0  0  0  0  0  0  0  0  0
  -22.9690  -12.2270   22.4960 H   0  0  0  0  0  0  0  0  0  0  0  0
  -21.6690  -13.3860   22.4720 H   0  0  0  0  0  0  0  0  0  0  0  0
  -25.6990  -15.3850   20.0370 N   0  0  0  0  0  0  0  0  0  0  0  0
  -24.9780  -16.0510   20.2940 H   0  0  0  0  0  0  0  0  0  0  0  0
  -26.5210  -15.8190   19.6390 H   0  0  0  0  0  0  0  0  0  0  0  0
  -29.9800  -22.4800   23.3180 C   0  0  0  0  0  1  0  0  0  0  0  0
  -30.1770  -20.9620   23.1000 C   0  0  0  0  0  2  0  0  0  0  0  0
  1 50  1  0
  1 51  1  0
  2  1  1  0
  2  4  1  0
  3  2  1  0
  5  2  1  0
  6  5  1  0
  7  8  1  0
  7  6  1  0
  8 10  1  0
  9 20  2  0
 10 15  1  0
 11 19  1  0
 11 21  1  0
 12 18  1  0
 12 14  1  0
 13 19  1  0
 14 13  1  0
 15 14  2  0
 16 17  1  0
 16 10  2  0
 17 12  2  0
 18 11  1  0
 19  9  1  0
 21 23  2  0
 22 21  1  0
 24 22  1  0
 25 34  2  0
 25 30  1  0
 26 22  1  0
 26 30  1  0
 27 26  1  0
 28 29  1  0
 28 27  1  0
 29 25  1  0
 30 31  2  0
 31 32  1  0
 33 32  2  0
 34 33  1  0
 35  9  1  0
 35 40  1  0
 35 36  1  0
 36 39  1  1
 36 37  1  0
 38 36  1  0
 40 43  1  0
 41 45  1  0
 41 40  1  0
 42 41  2  0
 45 44  1  0
 47 45  1  0
 47 48  1  0
 47 46  1  0
 50 49  1  0
 51 59  1  0
 51 98  1  0
 53 52  1  0
 54 52  1  0
 55 57  1  0
 55 59  1  0
 56 58  1  0
 56 53  1  0
 57 60  1  0
 57 56  1  0
 58 54  1  0
 59 58  1  0
 61 67  1  0
 61 60  1  0
 62 67  1  0
 63 64  1  0
 63 62  1  0
 65 64  1  0
 65 72  1  0
 65 66  1  0
 67 66  1  0
 68 61  2  0
 69 70  2  0
 70 89  1  0
 71 70  1  0
 71 74  1  0
 72 73  1  0
 72 69  1  0
 73 71  2  0
 74 75  1  0
 75 76  2  0
 77 80  1  0
 77 76  1  0
 78 77  2  0
 79 78  1  0
 79 74  2  0
 80 81  1  0
 81 86  2  0
 81 82  1  0
 82 83  2  0
 83 84  1  0
 84 88  1  0
 85 84  2  0
 86 85  1  0
 87 86  1  0
 89 90  1  0
 90 93  1  0
 90 92  1  0
 91 89  2  0
 94 69  1  0
 94 95  1  0
 96 94  1  0
 98 97  1  0
M  ISO  4   7 101   8 101  60 100  61 100
M  END
>  <TORSDO>  (9) 
F 25

>  <SCORE>  (9) 
-5.896

>  <name>  (9) 
8

>  <ligand_id>  (9) 
8

>  <original_smiles>  (9) 
[H]c1c([H])c([H])c2c(c1[H])C([H])([H])C([H])([H])C([H])([H])C2([H])N([H])C(=O)C1([H])N(C(=O)C([H])(N([H])C(=O)C([H])(N([H])C([H])([H])[H])C([H])([H])[H])C(C([H])([H])[H])(C([H])([H])[H])C([H])([H])[H])C([H])([H])c2c([H])c(OC([H])([H])C([H])([H])C([H])([H])[N+]([H])([H])C([H])(C([H])([H])C([H])([H])[H])C([H])(N3C([H])([H])C([H])(C([H])([H])C(=O)N4C([H])([H])C([H])([H])C([H])([H])C([H])(n5nc(-c6c([H])c([H])c(Oc7c([H])c([H])c(F)c([H])c7F)c([H])c6[H])c(C(=O)N([H])[H])c5N([H])[H])C4([H])[H])C4([H])C([H])([H])C([H])([H])C([H])([H])C34[H])C([H])([H])C([H])([H])[H])c([H])c([H])c2C1([H])[H]

>  <smiles>  (9) 
[H]c1c([H])c([H])c2c(c1[H])C([H])([H])C([H])([H])C([H])([H])C2([H])N([H])C(=O)C1([H])N(C(=O)C([H])(N([H])C(=O)C([H])(N([H])C([H])([H])[H])C([H])([H])[H])C(C([H])([H])[H])(C([H])([H])[H])C([H])([H])[H])C([H])([H])c2c([H])c(OC([H])([H])C([H])([H])C([H])([H])[N+]([H])([H])C([H])(C([H])([H])C([H])([H])[H])C([H])(N3C([H])([H])C([H])(C([H])([H])C(=O)N4C([H])([H])C([H])([H])C([H])([H])C([H])(n5nc(-c6c([H])c([H])c(Oc7c([H])c([H])c(F)c([H])c7F)c([H])c6[H])c(C(=O)N([H])[H])c5N([H])[H])C4([H])[H])C4([H])C([H])([H])C([H])([H])C([H])([H])C34[H])C([H])([H])C([H])([H])[H])c([H])c([H])c2C1([H])[H]

$$$$
9:0:0
     RDKit          3D

 86 94  0  0  1  0  0  0  0  0999 V2000
  -30.0780  -20.0950   19.4460 C   0  0  0  0  0  3  0  0  0  0  0  0
  -28.3310  -19.7050   20.7620 C   0  0  0  0  0  3  0  0  0  0  0  0
  -29.7360  -21.5890   19.4370 C   0  0  0  0  0  3  0  0  0  0  0  0
  -27.9920  -21.1850   20.7640 C   0  0  0  0  0  3  0  0  0  0  0  0
  -29.4110  -18.9340   20.0990 C   0  0  0  0  0  0  0  0  0  0  0  0
  -28.6300  -22.3420   20.0930 C   0  0  0  0  0  0  0  0  0  0  0  0
  -28.3280  -16.9540   19.0980 C   0  0  0  0  0  2  0  0  0  0  0  0
  -29.4420  -17.1670   19.8110 C   0  0  0  0  0  0  0  0  0  0  0  0
  -30.3300  -15.7190   20.0120 C   0  0  0  0  0  0  0  0  0  0  0  0
  -30.4210  -13.1530   19.2810 C   0  0  0  0  0  2  0  0  0  0  0  0
  -29.5110  -12.7200   18.0960 C   0  0  0  0  0  2  0  0  0  0  0  0
  -28.1030  -12.3420   18.5850 C   0  0  0  0  0  2  0  0  0  0  0  0
  -27.5840  -13.3720   19.6060 C   0  0  0  0  0  3  0  0  0  0  0  0
  -28.6240  -13.7770   20.6800 C   0  0  0  0  0  2  0  0  0  0  0  0
  -29.8110  -14.3520   20.0000 N   0  0  0  0  0  0  0  0  0  0  0  0
  -31.5710  -15.6460   19.9360 O   0  0  0  0  0  0  0  0  0  0  0  0
  -25.2550  -13.9670   20.4270 C   0  0  0  0  0  0  0  0  0  0  0  0
  -24.1860  -13.2030   20.8020 C   0  0  0  0  0  0  0  0  0  0  0  0
  -24.6390  -11.8480   20.7580 C   0  0  0  0  0  0  0  0  0  0  0  0
  -26.2780  -13.0730   20.1630 N   0  0  0  0  0  0  0  0  0  0  0  0
  -25.9250  -11.7940   20.4290 N   0  0  0  0  0  0  0  0  0  0  0  0
  -23.9040  -10.5950   20.9480 C   0  0  0  0  0  0  0  0  0  0  0  0
  -24.3280   -9.6270   21.8840 C   0  0  0  0  0  3  0  0  0  0  0  0
  -23.5920   -8.4360   22.0630 C   0  0  0  0  0  3  0  0  0  0  0  0
  -22.4200   -8.2060   21.3060 C   0  0  0  0  0  0  0  0  0  0  0  0
  -22.0160   -9.1640   20.3580 C   0  0  0  0  0  3  0  0  0  0  0  0
  -22.7520  -10.3460   20.1770 C   0  0  0  0  0  3  0  0  0  0  0  0
  -21.6560   -7.0690   21.3950 O   0  0  0  0  0  0  0  0  0  0  0  0
  -21.5860   -6.3400   22.5550 C   0  0  0  0  0  0  0  0  0  0  0  0
  -21.1030   -6.8990   23.7580 C   0  0  0  0  0  3  0  0  0  0  0  0
  -20.9830   -6.0950   24.9100 C   0  0  0  0  0  3  0  0  0  0  0  0
  -21.3350   -4.7330   24.8570 C   0  0  0  0  0  0  0  0  0  0  0  0
  -21.8130   -4.1740   23.6580 C   0  0  0  0  0  3  0  0  0  0  0  0
  -21.9340   -4.9750   22.5100 C   0  0  0  0  0  0  0  0  0  0  0  0
  -22.3750   -4.4270   21.3510 F   0  0  0  0  0  0  0  0  0  0  0  0
  -21.2110   -3.9580   25.9590 F   0  0  0  0  0  0  0  0  0  0  0  0
  -22.7980  -13.6950   21.0850 C   0  0  0  0  0  0  0  0  0  0  0  0
  -22.0750  -13.0090   21.9600 N   0  0  0  0  0  0  0  0  0  0  0  0
  -22.3650  -14.7230   20.5640 O   0  0  0  0  0  0  0  0  0  0  0  0
  -22.4410  -12.1790   22.4030 H   0  0  0  0  0  0  0  0  0  0  0  0
  -21.1420  -13.3160   22.1950 H   0  0  0  0  0  0  0  0  0  0  0  0
  -25.4330  -15.3370   20.2580 N   0  0  0  0  0  0  0  0  0  0  0  0
  -24.6780  -16.0010   20.3960 H   0  0  0  0  0  0  0  0  0  0  0  0
  -26.3040  -15.7770   19.9900 H   0  0  0  0  0  0  0  0  0  0  0  0
  -27.9030  -24.0220   19.8660 C   0  0  0  0  0  2  0  0  0  0  0  0
  -28.1750  -25.6980   20.1600 O   0  0  0  0  0  0  0  0  0  0  0  0
  -24.5910  -31.8330   23.1520 C   0  0  0  0  0  0  0  0  0  0  0  0
  -27.1960  -26.8830   20.0970 C   0  0  0  0  0  0  0  0  0  0  0  0
  -23.4250  -30.4570   21.4790 C   0  0  0  0  0  3  0  0  0  0  0  0
  -24.9000  -28.8550   20.0520 C   0  0  0  0  0  0  0  0  0  0  0  0
  -26.0010  -30.6390   21.3790 C   0  0  0  0  0  2  0  0  0  0  0  0
  -26.0850  -29.2240   20.7000 C   0  0  0  0  0  0  0  0  0  0  0  0
  -27.2180  -28.2650   20.6930 C   0  0  0  0  0  3  0  0  0  0  0  0
  -25.9750  -26.7090   19.3970 C   0  0  0  0  0  3  0  0  0  0  0  0
  -24.8790  -27.6220   19.3770 C   0  0  0  0  0  3  0  0  0  0  0  0
  -23.6800  -29.7850   20.1000 C   0  0  0  0  0  2  0  0  0  0  0  0
  -24.6950  -31.0070   22.0570 N   0  0  0  0  0  0  0  0  0  0  0  0
  -23.4920  -32.1160   23.6610 O   0  0  0  0  0  0  0  0  0  0  0  0
  -22.7110  -29.4550   22.4260 C   0  0  0  0  0  0  0  0  0  0  0  0
  -21.3810  -29.2960   22.2880 N   0  0  0  0  0  0  0  0  0  0  0  0
  -23.3650  -28.8190   23.2570 O   0  0  0  0  0  0  0  0  0  0  0  0
  -20.9020  -29.8600   21.6000 H   0  0  0  0  0  0  0  0  0  0  0  0
  -17.9910  -28.0830   22.7720 C   0  0  0  0  0  0  0  0  0  0  0  0
  -20.5520  -28.3430   23.0380 C   0  0  0  0  0  3  0  0  0  0  0  0
  -20.6500  -26.9230   22.4310 C   0  0  0  0  0  2  0  0  0  0  0  0
  -19.5480  -26.6270   21.4090 C   0  0  0  0  0  2  0  0  0  0  0  0
  -18.1670  -26.7530   22.0590 C   0  0  0  0  0  2  0  0  0  0  0  0
  -19.1090  -28.8370   23.2180 C   0  0  0  0  0  0  0  0  0  0  0  0
  -18.8870  -30.0780   23.8510 C   0  0  0  0  0  3  0  0  0  0  0  0
  -17.5810  -30.5690   24.0390 C   0  0  0  0  0  3  0  0  0  0  0  0
  -16.4780  -29.8130   23.6060 C   0  0  0  0  0  3  0  0  0  0  0  0
  -16.6830  -28.5710   22.9800 C   0  0  0  0  0  3  0  0  0  0  0  0
  -25.8470  -32.4770   23.8140 C   0  0  0  0  0  3  0  0  0  0  0  0
  -25.5330  -33.8850   24.1220 N   0  0  0  0  0  0  0  0  0  0  0  0
  -25.8730  -34.9350   23.3600 C   0  0  0  0  0  0  0  0  0  0  0  0
  -26.5440  -34.8210   22.3330 O   0  0  0  0  0  0  0  0  0  0  0  0
  -24.9370  -34.0480   24.9200 H   0  0  0  0  0  0  0  0  0  0  0  0
  -24.1480  -36.7380   23.0150 C   0  0  0  0  0  1  0  0  0  0  0  0
  -25.3980  -36.3330   23.8110 C   0  0  0  0  0  3  0  0  0  0  0  0
  -27.5410  -37.2330   24.6090 C   0  0  0  0  0  1  0  0  0  0  0  0
  -26.4330  -37.3830   23.6710 N   0  0  0  0  0  0  0  0  0  0  0  0
  -26.0280  -38.3060   23.8050 H   0  0  0  0  0  0  0  0  0  0  0  0
  -26.3040  -31.7300   25.1290 C   0  0  1  0  0  0  0  0  0  0  0  0
  -25.1690  -31.5320   26.1600 C   0  0  0  0  0  1  0  0  0  0  0  0
  -26.8830  -30.3350   24.8030 C   0  0  0  0  0  1  0  0  0  0  0  0
  -27.4410  -32.5260   25.8140 C   0  0  0  0  0  1  0  0  0  0  0  0
  1  5  1  0
  2  4  1  0
  3  1  2  0
  3  6  1  0
  5  2  2  0
  6  4  2  0
  7  8  2  0
  8  9  1  0
  8  5  1  0
 10 15  1  0
 11 12  1  0
 11 10  1  0
 13 12  1  0
 13 20  1  0
 13 14  1  0
 15  9  1  0
 15 14  1  0
 16  9  2  0
 17 18  2  0
 18 37  1  0
 19 18  1  0
 19 22  1  0
 20 17  1  0
 20 21  1  0
 21 19  2  0
 22 23  1  0
 23 24  2  0
 25 28  1  0
 25 24  1  0
 26 25  2  0
 27 26  1  0
 27 22  2  0
 28 29  1  0
 29 30  1  0
 30 31  2  0
 32 31  1  0
 32 36  1  0
 33 32  2  0
 34 29  2  0
 34 33  1  0
 35 34  1  0
 37 38  1  0
 38 41  1  0
 38 40  1  0
 39 37  2  0
 42 43  1  0
 42 17  1  0
 44 42  1  0
 45  6  1  0
 45 46  1  0
 47 58  2  0
 48 46  1  0
 48 53  1  0
 49 57  1  0
 49 59  1  0
 50 56  1  0
 50 52  1  0
 51 57  1  0
 52 51  1  0
 53 52  2  0
 54 48  2  0
 55 54  1  0
 55 50  2  0
 56 49  1  0
 57 47  1  0
 59 61  2  0
 60 59  1  0
 62 60  1  0
 63 72  2  0
 63 68  1  0
 64 60  1  0
 64 68  1  0
 65 64  1  0
 66 67  1  0
 66 65  1  0
 67 63  1  0
 68 69  2  0
 69 70  1  0
 71 70  2  0
 72 71  1  0
 73 47  1  0
 73 74  1  0
 73 83  1  0
 74 77  1  0
 75 79  1  0
 75 74  1  0
 76 75  2  0
 79 78  1  0
 81 82  1  0
 81 79  1  0
 81 80  1  0
 83 86  1  1
 83 84  1  0
 85 83  1  0
M  ISO  4   8 100   9 100  45 101  46 101
M  END
>  <TORSDO>  (10) 
F 18

>  <SCORE>  (10) 
-16.471

>  <name>  (10) 
9

>  <ligand_id>  (10) 
9

>  <original_smiles>  (10) 
[H]C([H])=C(C(=O)N1C([H])([H])C([H])([H])C([H])([H])C([H])(n2nc(-c3c([H])c([H])c(Oc4c([H])c([H])c(F)c([H])c4F)c([H])c3[H])c(C(=O)N([H])[H])c2N([H])[H])C1([H])[H])c1c([H])c([H])c(C([H])([H])Oc2c([H])c([H])c3c(c2[H])C([H])([H])N(C(=O)C([H])(N([H])C(=O)C([H])(N([H])C([H])([H])[H])C([H])([H])[H])C(C([H])([H])[H])(C([H])([H])[H])C([H])([H])[H])C([H])(C(=O)N([H])C2([H])c4c([H])c([H])c([H])c([H])c4C([H])([H])C([H])([H])C2([H])[H])C3([H])[H])c([H])c1[H]

>  <smiles>  (10) 
[H]C([H])=C(C(=O)N1C([H])([H])C([H])([H])C([H])([H])C([H])(n2nc(-c3c([H])c([H])c(Oc4c([H])c([H])c(F)c([H])c4F)c([H])c3[H])c(C(=O)N([H])[H])c2N([H])[H])C1([H])[H])c1c([H])c([H])c(C([H])([H])Oc2c([H])c([H])c3c(c2[H])C([H])([H])N(C(=O)C([H])(N([H])C(=O)C([H])(N([H])C([H])([H])[H])C([H])([H])[H])C(C([H])([H])[H])(C([H])([H])[H])C([H])([H])[H])C([H])(C(=O)N([H])C2([H])c4c([H])c([H])c([H])c([H])c4C([H])([H])C([H])([H])C2([H])[H])C3([H])[H])c([H])c1[H]

$$$$
10:0:0
     RDKit          3D

 99108  0  0  1  0  0  0  0  0999 V2000
  -31.3670  -22.1420   24.8970 C   0  0  0  0  0  2  0  0  0  0  0  0
  -29.5180  -23.2040   23.3260 C   0  0  0  0  0  2  0  0  0  0  0  0
  -30.8470  -20.6940   24.8800 C   0  0  0  0  0  2  0  0  0  0  0  0
  -30.7240  -20.5720   22.4090 C   0  0  0  0  0  2  0  0  0  0  0  0
  -30.9890  -22.8960   23.6310 C   0  0  0  0  0  3  0  0  0  0  0  0
  -30.9950  -22.0910   22.3240 C   0  0  0  0  0  3  0  0  0  0  0  0
  -29.7930  -22.8510   21.9330 N   0  0  0  0  0  0  0  0  0  0  0  0
  -31.2790  -19.9650   23.6550 N   0  0  2  0  0  4  0  0  0  0  0  0
  -32.2810  -20.0700   23.6160 H   0  0  0  0  0  0  0  0  0  0  0  0
  -31.0130  -18.5030   23.7640 C   0  0  0  0  0  2  0  0  0  0  0  0
  -31.5560  -17.6790   22.5760 C   0  0  0  0  0  2  0  0  0  0  0  0
  -30.9630  -16.2560   22.5420 C   0  0  0  0  0  2  0  0  0  0  0  0
  -31.2820  -15.4830   21.2490 C   0  0  0  0  0  2  0  0  0  0  0  0
  -30.4330  -14.1980   21.1080 C   0  0  0  0  0  2  0  0  0  0  0  0
  -30.6110  -13.4570   19.7680 C   0  0  0  0  0  0  0  0  0  0  0  0
  -29.7470  -11.8490   18.0980 C   0  0  0  0  0  2  0  0  0  0  0  0
  -28.6460  -12.4940   17.2360 C   0  0  0  0  0  2  0  0  0  0  0  0
  -27.2710  -12.3700   17.9200 C   0  0  0  0  0  2  0  0  0  0  0  0
  -27.3010  -12.8250   19.4030 C   0  0  0  0  0  3  0  0  0  0  0  0
  -28.4860  -12.1710   20.1520 C   0  0  0  0  0  2  0  0  0  0  0  0
  -29.7230  -12.4910   19.4190 N   0  0  0  0  0  0  0  0  0  0  0  0
  -31.5540  -13.7790   19.0370 O   0  0  0  0  0  0  0  0  0  0  0  0
  -25.0470  -13.4480   20.4850 C   0  0  0  0  0  0  0  0  0  0  0  0
  -24.0270  -12.6810   20.9780 C   0  0  0  0  0  0  0  0  0  0  0  0
  -24.4410  -11.3230   20.8200 C   0  0  0  0  0  0  0  0  0  0  0  0
  -26.0250  -12.5590   20.0670 N   0  0  0  0  0  0  0  0  0  0  0  0
  -25.6690  -11.2730   20.3200 N   0  0  0  0  0  0  0  0  0  0  0  0
  -23.7200  -10.0680   21.0650 C   0  0  0  0  0  0  0  0  0  0  0  0
  -24.2240   -9.0860   21.9460 C   0  0  0  0  0  3  0  0  0  0  0  0
  -23.5030   -7.8950   22.1780 C   0  0  0  0  0  3  0  0  0  0  0  0
  -22.2640   -7.6770   21.5310 C   0  0  0  0  0  0  0  0  0  0  0  0
  -21.7780   -8.6470   20.6370 C   0  0  0  0  0  3  0  0  0  0  0  0
  -22.4990   -9.8300   20.4020 C   0  0  0  0  0  3  0  0  0  0  0  0
  -21.5070   -6.5400   21.6760 O   0  0  0  0  0  0  0  0  0  0  0  0
  -21.4970   -5.8270   22.8480 C   0  0  0  0  0  0  0  0  0  0  0  0
  -21.0730   -6.4020   24.0660 C   0  0  0  0  0  3  0  0  0  0  0  0
  -21.0130   -5.6130   25.2320 C   0  0  0  0  0  3  0  0  0  0  0  0
  -21.3640   -4.2520   25.1820 C   0  0  0  0  0  0  0  0  0  0  0  0
  -21.7820   -3.6760   23.9690 C   0  0  0  0  0  3  0  0  0  0  0  0
  -21.8440   -4.4620   22.8050 C   0  0  0  0  0  0  0  0  0  0  0  0
  -22.2260   -3.8970   21.6340 F   0  0  0  0  0  0  0  0  0  0  0  0
  -21.2990   -3.4920   26.3010 F   0  0  0  0  0  0  0  0  0  0  0  0
  -22.6990  -13.1720   21.4800 C   0  0  0  0  0  0  0  0  0  0  0  0
  -22.1000  -12.4590   22.4290 N   0  0  0  0  0  0  0  0  0  0  0  0
  -22.2060  -14.2210   21.0670 O   0  0  0  0  0  0  0  0  0  0  0  0
  -22.5140  -11.6090   22.7830 H   0  0  0  0  0  0  0  0  0  0  0  0
  -21.2160  -12.7690   22.8070 H   0  0  0  0  0  0  0  0  0  0  0  0
  -25.2200  -14.8220   20.3420 N   0  0  0  0  0  0  0  0  0  0  0  0
  -24.4970  -15.4880   20.5940 H   0  0  0  0  0  0  0  0  0  0  0  0
  -26.0320  -15.2580   19.9230 H   0  0  0  0  0  0  0  0  0  0  0  0
  -30.0590  -24.0510   21.1240 C   0  0  0  0  0  2  0  0  0  0  0  0
  -29.8590  -23.8000   19.6050 C   0  0  0  0  0  3  0  0  0  0  0  0
  -32.2380  -23.5470   18.8620 C   0  0  0  0  0  1  0  0  0  0  0  0
  -30.9860  -24.3310   18.7980 N   0  0  0  0  0  4  0  0  0  0  0  0
  -30.7040  -24.3350   17.8290 H   0  0  0  0  0  0  0  0  0  0  0  0
  -31.1880  -25.2840   19.0560 H   0  0  0  0  0  0  0  0  0  0  0  0
  -28.4960  -24.3040   19.0700 C   0  0  0  0  0  2  0  0  0  0  0  0
  -28.0680  -25.7350   19.4500 C   0  0  0  0  0  2  0  0  0  0  0  0
  -26.7700  -25.9010   18.8980 O   0  0  0  0  0  0  0  0  0  0  0  0
  -25.0930  -30.9110   23.7450 C   0  0  0  0  0  0  0  0  0  0  0  0
  -25.9470  -26.9030   19.3570 C   0  0  0  0  0  0  0  0  0  0  0  0
  -23.3410  -30.3430   22.0920 C   0  0  0  0  0  3  0  0  0  0  0  0
  -24.1020  -28.8970   20.1340 C   0  0  0  0  0  0  0  0  0  0  0  0
  -25.8170  -30.0800   21.5140 C   0  0  0  0  0  2  0  0  0  0  0  0
  -25.4210  -28.9410   20.6010 C   0  0  0  0  0  0  0  0  0  0  0  0
  -26.3500  -27.9460   20.2230 C   0  0  0  0  0  3  0  0  0  0  0  0
  -24.6150  -26.8710   18.8970 C   0  0  0  0  0  3  0  0  0  0  0  0
  -23.6880  -27.8580   19.2830 C   0  0  0  0  0  3  0  0  0  0  0  0
  -23.1780  -30.0070   20.5840 C   0  0  0  0  0  2  0  0  0  0  0  0
  -24.7780  -30.4370   22.5070 N   0  0  0  0  0  0  0  0  0  0  0  0
  -24.2120  -31.3050   24.5220 O   0  0  0  0  0  0  0  0  0  0  0  0
  -22.5340  -29.3150   22.9160 C   0  0  0  0  0  0  0  0  0  0  0  0
  -21.2010  -29.3320   22.7510 N   0  0  0  0  0  0  0  0  0  0  0  0
  -23.1040  -28.5100   23.6580 O   0  0  0  0  0  0  0  0  0  0  0  0
  -20.8110  -30.0280   22.1310 H   0  0  0  0  0  0  0  0  0  0  0  0
  -17.7200  -28.3740   22.8370 C   0  0  0  0  0  0  0  0  0  0  0  0
  -20.2430  -28.4330   23.3920 C   0  0  0  0  0  3  0  0  0  0  0  0
  -20.3090  -27.0160   22.7760 C   0  0  0  0  0  2  0  0  0  0  0  0
  -19.3050  -26.8080   21.6370 C   0  0  0  0  0  2  0  0  0  0  0  0
  -17.8740  -27.0360   22.1330 C   0  0  0  0  0  2  0  0  0  0  0  0
  -18.8350  -29.0380   23.4140 C   0  0  0  0  0  0  0  0  0  0  0  0
  -18.6420  -30.2950   24.0250 C   0  0  0  0  0  3  0  0  0  0  0  0
  -17.3670  -30.8880   24.0680 C   0  0  0  0  0  3  0  0  0  0  0  0
  -16.2630  -30.2190   23.5090 C   0  0  0  0  0  3  0  0  0  0  0  0
  -16.4400  -28.9650   22.8990 C   0  0  0  0  0  3  0  0  0  0  0  0
  -26.5730  -31.0020   24.2350 C   0  0  0  0  0  3  0  0  0  0  0  0
  -27.0000  -29.7920   25.1540 C   0  0  1  0  0  0  0  0  0  0  0  0
  -26.0150  -29.5150   26.3130 C   0  0  0  0  0  1  0  0  0  0  0  0
  -27.1290  -28.4950   24.3210 C   0  0  0  0  0  1  0  0  0  0  0  0
  -28.3930  -30.0650   25.7670 C   0  0  0  0  0  1  0  0  0  0  0  0
  -26.7250  -32.2750   24.9490 N   0  0  0  0  0  0  0  0  0  0  0  0
  -27.4170  -33.3260   24.4880 C   0  0  0  0  0  0  0  0  0  0  0  0
  -28.0610  -33.2940   23.4340 O   0  0  0  0  0  0  0  0  0  0  0  0
  -26.1810  -32.3900   25.7920 H   0  0  0  0  0  0  0  0  0  0  0  0
  -26.4280  -35.6280   24.6850 C   0  0  0  0  0  1  0  0  0  0  0  0
  -27.3890  -34.6160   25.3270 C   0  0  0  0  0  3  0  0  0  0  0  0
  -29.6200  -34.4510   26.3400 C   0  0  0  0  0  1  0  0  0  0  0  0
  -28.7230  -35.2350   25.4980 N   0  0  0  0  0  0  0  0  0  0  0  0
  -28.6390  -36.1640   25.9020 H   0  0  0  0  0  0  0  0  0  0  0  0
  3  1  1  0
  4  8  1  0
  5  2  1  0
  5  1  1  0
  6  4  1  0
  6  5  1  0
  7  6  1  0
  7  2  1  0
  8 10  1  0
  8  3  1  0
  8  9  1  6
 11 10  1  0
 12 11  1  0
 13 12  1  0
 14 13  1  0
 15 14  1  0
 16 21  1  0
 17 18  1  0
 17 16  1  0
 19 18  1  0
 19 26  1  0
 19 20  1  0
 21 15  1  0
 21 20  1  0
 22 15  2  0
 23 24  2  0
 24 43  1  0
 25 24  1  0
 25 28  1  0
 26 27  1  0
 26 23  1  0
 27 25  2  0
 28 29  1  0
 29 30  2  0
 31 34  1  0
 31 30  1  0
 32 31  2  0
 33 32  1  0
 33 28  2  0
 34 35  1  0
 35 36  1  0
 36 37  2  0
 38 37  1  0
 38 42  1  0
 39 38  2  0
 40 35  2  0
 40 39  1  0
 41 40  1  0
 43 44  1  0
 44 46  1  0
 44 47  1  0
 45 43  2  0
 48 23  1  0
 48 49  1  0
 50 48  1  0
 51  7  1  0
 52 57  1  0
 52 51  1  0
 54 53  1  0
 54 56  1  0
 54 52  1  0
 55 54  1  0
 57 58  1  0
 59 61  1  0
 59 58  1  0
 60 71  2  0
 61 66  1  0
 62 70  1  0
 62 72  1  0
 63 69  1  0
 63 65  1  0
 64 70  1  0
 65 64  1  0
 66 65  2  0
 67 68  1  0
 67 61  2  0
 68 63  2  0
 69 62  1  0
 70 60  1  0
 72 74  2  0
 73 72  1  0
 75 73  1  0
 76 85  2  0
 76 81  1  0
 77 73  1  0
 77 81  1  0
 78 77  1  0
 79 80  1  0
 79 78  1  0
 80 76  1  0
 81 82  2  0
 82 83  1  0
 84 83  2  0
 85 84  1  0
 86 60  1  0
 86 91  1  0
 86 87  1  0
 87 90  1  1
 87 88  1  0
 89 87  1  0
 91 94  1  0
 92 91  1  0
 92 96  1  0
 93 92  2  0
 96 95  1  0
 96 98  1  0
 98 99  1  0
 98 97  1  0
M  ISO  4  14 100  15 100  58 101  59 101
M  END
>  <TORSDO>  (11) 
F 26

>  <SCORE>  (11) 
-7.126

>  <name>  (11) 
10

>  <ligand_id>  (11) 
10

>  <original_smiles>  (11) 
[H]c1c([H])c([H])c2c(c1[H])C([H])([H])C([H])([H])C([H])([H])C2([H])N([H])C(=O)C1([H])N(C(=O)C([H])(N([H])C(=O)C([H])(N([H])C([H])([H])[H])C([H])([H])[H])C(C([H])([H])[H])(C([H])([H])[H])C([H])([H])[H])C([H])([H])c2c([H])c(OC([H])([H])C([H])([H])C([H])(C([H])([H])N3C([H])([H])C4([H])C([H])([H])C([H])([H])[N+]([H])(C([H])([H])C([H])([H])C([H])([H])C([H])([H])C([H])([H])C(=O)N5C([H])([H])C([H])([H])C([H])([H])C([H])(n6nc(-c7c([H])c([H])c(Oc8c([H])c([H])c(F)c([H])c8F)c([H])c7[H])c(C(=O)N([H])[H])c6N([H])[H])C5([H])[H])C([H])([H])C34[H])[N+]([H])([H])C([H])([H])[H])c([H])c([H])c2C1([H])[H]

>  <smiles>  (11) 
[H]c1c([H])c([H])c2c(c1[H])C([H])([H])C([H])([H])C([H])([H])C2([H])N([H])C(=O)C1([H])N(C(=O)C([H])(N([H])C(=O)C([H])(N([H])C([H])([H])[H])C([H])([H])[H])C(C([H])([H])[H])(C([H])([H])[H])C([H])([H])[H])C([H])([H])c2c([H])c(OC([H])([H])C([H])([H])C([H])(C([H])([H])N3C([H])([H])C4([H])C([H])([H])C([H])([H])[N+]([H])(C([H])([H])C([H])([H])C([H])([H])C([H])([H])C([H])([H])C(=O)N5C([H])([H])C([H])([H])C([H])([H])C([H])(n6nc(-c7c([H])c([H])c(Oc8c([H])c([H])c(F)c([H])c8F)c([H])c7[H])c(C(=O)N([H])[H])c6N([H])[H])C5([H])[H])C([H])([H])C34[H])[N+]([H])([H])C([H])([H])[H])c([H])c([H])c2C1([H])[H]

$$$$
11:0:0
     RDKit          3D

 96105  0  0  1  0  0  0  0  0999 V2000
  -27.3350  -21.1090   18.9980 C   0  0  0  0  0  2  0  0  0  0  0  0
  -25.9860  -21.8230   19.2180 C   0  0  0  0  0  2  0  0  0  0  0  0
  -27.9320  -21.3460   21.5340 C   0  0  0  0  0  2  0  0  0  0  0  0
  -27.8860  -20.4230   20.2770 C   0  0  0  0  0  3  0  0  0  0  0  0
  -26.0150  -22.7810   20.3950 C   0  0  0  0  0  3  0  0  0  0  0  0
  -26.9230  -22.4840   21.5520 C   0  0  0  0  0  3  0  0  0  0  0  0
  -27.2710  -23.5010   20.5540 N   0  0  2  0  0  4  0  0  0  0  0  0
  -27.9210  -23.1920   19.8470 H   0  0  0  0  0  0  0  0  0  0  0  0
  -29.3020  -19.8950   19.9920 C   0  0  0  0  0  0  0  0  0  0  0  0
  -29.4780  -18.5710   19.9270 N   0  0  0  0  0  0  0  0  0  0  0  0
  -30.2270  -20.6980   19.8450 O   0  0  0  0  0  0  0  0  0  0  0  0
  -28.6640  -17.9800   20.0340 H   0  0  0  0  0  0  0  0  0  0  0  0
  -30.7740  -17.9180   19.7560 C   0  0  0  0  0  2  0  0  0  0  0  0
  -31.2390  -17.2600   21.0710 C   0  0  0  0  0  2  0  0  0  0  0  0
  -30.5890  -15.8850   21.3550 C   0  0  0  0  0  2  0  0  0  0  0  0
  -31.1460  -14.7460   20.4790 C   0  0  0  0  0  0  0  0  0  0  0  0
  -30.8120  -12.5870   19.3300 C   0  0  0  0  0  2  0  0  0  0  0  0
  -29.8890  -12.7740   18.1110 C   0  0  0  0  0  2  0  0  0  0  0  0
  -28.4090  -12.6630   18.5260 C   0  0  0  0  0  2  0  0  0  0  0  0
  -28.0670  -13.5380   19.7620 C   0  0  0  0  0  3  0  0  0  0  0  0
  -29.1050  -13.3330   20.8880 C   0  0  0  0  0  2  0  0  0  0  0  0
  -30.4410  -13.5960   20.3310 N   0  0  0  0  0  0  0  0  0  0  0  0
  -32.2180  -14.9330   19.8950 O   0  0  0  0  0  0  0  0  0  0  0  0
  -25.6800  -14.1940   20.4720 C   0  0  0  0  0  0  0  0  0  0  0  0
  -24.5880  -13.4410   20.8150 C   0  0  0  0  0  0  0  0  0  0  0  0
  -25.0120  -12.0790   20.7480 C   0  0  0  0  0  0  0  0  0  0  0  0
  -26.7020  -13.2920   20.2260 N   0  0  0  0  0  0  0  0  0  0  0  0
  -26.3020  -12.0130   20.4430 N   0  0  0  0  0  0  0  0  0  0  0  0
  -24.2500  -10.8330   20.9010 C   0  0  0  0  0  0  0  0  0  0  0  0
  -24.6450   -9.8350   21.8200 C   0  0  0  0  0  3  0  0  0  0  0  0
  -23.8880   -8.6530   21.9610 C   0  0  0  0  0  3  0  0  0  0  0  0
  -22.7210   -8.4600   21.1830 C   0  0  0  0  0  0  0  0  0  0  0  0
  -22.3450   -9.4470   20.2550 C   0  0  0  0  0  3  0  0  0  0  0  0
  -23.1040  -10.6210   20.1110 C   0  0  0  0  0  3  0  0  0  0  0  0
  -21.9370   -7.3330   21.2350 O   0  0  0  0  0  0  0  0  0  0  0  0
  -21.8150   -6.5930   22.3840 C   0  0  0  0  0  0  0  0  0  0  0  0
  -21.3530   -7.1610   23.5910 C   0  0  0  0  0  3  0  0  0  0  0  0
  -21.1770   -6.3510   24.7300 C   0  0  0  0  0  3  0  0  0  0  0  0
  -21.4540   -4.9710   24.6620 C   0  0  0  0  0  0  0  0  0  0  0  0
  -21.9080   -4.4020   23.4580 C   0  0  0  0  0  3  0  0  0  0  0  0
  -22.0860   -5.2120   22.3230 C   0  0  0  0  0  0  0  0  0  0  0  0
  -22.5040   -4.6540   21.1610 F   0  0  0  0  0  0  0  0  0  0  0  0
  -21.2760   -4.1890   25.7520 F   0  0  0  0  0  0  0  0  0  0  0  0
  -23.2040  -13.9490   21.0990 C   0  0  0  0  0  0  0  0  0  0  0  0
  -22.4600  -13.2550   21.9530 N   0  0  0  0  0  0  0  0  0  0  0  0
  -22.7910  -14.9950   20.5980 O   0  0  0  0  0  0  0  0  0  0  0  0
  -22.8060  -12.4080   22.3790 H   0  0  0  0  0  0  0  0  0  0  0  0
  -21.5310  -13.5760   22.1860 H   0  0  0  0  0  0  0  0  0  0  0  0
  -25.8840  -15.5630   20.3320 N   0  0  0  0  0  0  0  0  0  0  0  0
  -25.1330  -16.2350   20.4460 H   0  0  0  0  0  0  0  0  0  0  0  0
  -26.7470  -15.9800   20.0080 H   0  0  0  0  0  0  0  0  0  0  0  0
  -26.9470  -25.3590   22.2860 C   0  0  0  0  0  1  0  0  0  0  0  0
  -27.2120  -24.9720   20.8150 C   0  0  0  0  0  3  0  0  0  0  0  0
  -28.5260  -25.6310   20.3320 C   0  0  0  0  0  2  0  0  0  0  0  0
  -28.5880  -25.9600   18.8200 C   0  0  0  0  0  2  0  0  0  0  0  0
  -28.4170  -27.3540   18.5750 O   0  0  0  0  0  0  0  0  0  0  0  0
  -24.5760  -31.5340   22.8190 C   0  0  0  0  0  0  0  0  0  0  0  0
  -27.1800  -27.9100   18.8020 C   0  0  0  0  0  0  0  0  0  0  0  0
  -23.2990  -30.3050   21.0940 C   0  0  0  0  0  3  0  0  0  0  0  0
  -24.6900  -29.1450   19.3010 C   0  0  0  0  0  0  0  0  0  0  0  0
  -25.7480  -30.9240   20.7060 C   0  0  0  0  0  2  0  0  0  0  0  0
  -25.8610  -29.6810   19.8500 C   0  0  0  0  0  0  0  0  0  0  0  0
  -27.1060  -29.0710   19.5960 C   0  0  0  0  0  3  0  0  0  0  0  0
  -25.9920  -27.3790   18.2490 C   0  0  0  0  0  3  0  0  0  0  0  0
  -24.7490  -27.9900   18.5010 C   0  0  0  0  0  3  0  0  0  0  0  0
  -23.3970  -29.8670   19.6070 C   0  0  0  0  0  2  0  0  0  0  0  0
  -24.5640  -30.9280   21.5970 N   0  0  0  0  0  0  0  0  0  0  0  0
  -23.5460  -31.6190   23.5010 O   0  0  0  0  0  0  0  0  0  0  0  0
  -22.8370  -29.0910   21.9310 C   0  0  0  0  0  0  0  0  0  0  0  0
  -21.5270  -28.7990   21.8890 N   0  0  0  0  0  0  0  0  0  0  0  0
  -23.6490  -28.4210   22.5750 O   0  0  0  0  0  0  0  0  0  0  0  0
  -20.9270  -29.4040   21.3460 H   0  0  0  0  0  0  0  0  0  0  0  0
  -18.3430  -27.1760   22.4040 C   0  0  0  0  0  0  0  0  0  0  0  0
  -20.8730  -27.6810   22.5650 C   0  0  0  0  0  3  0  0  0  0  0  0
  -21.0830  -26.3610   21.7870 C   0  0  0  0  0  2  0  0  0  0  0  0
  -19.9490  -26.0530   20.8030 C   0  0  0  0  0  2  0  0  0  0  0  0
  -18.6090  -25.9560   21.5390 C   0  0  0  0  0  2  0  0  0  0  0  0
  -19.4040  -27.9940   22.8730 C   0  0  0  0  0  0  0  0  0  0  0  0
  -19.1000  -29.1370   23.6430 C   0  0  0  0  0  3  0  0  0  0  0  0
  -17.7650  -29.4620   23.9520 C   0  0  0  0  0  3  0  0  0  0  0  0
  -16.7190  -28.6390   23.5000 C   0  0  0  0  0  3  0  0  0  0  0  0
  -17.0080  -27.5000   22.7290 C   0  0  0  0  0  3  0  0  0  0  0  0
  -25.8760  -32.1700   23.4040 C   0  0  0  0  0  3  0  0  0  0  0  0
  -25.5140  -33.4810   23.9610 N   0  0  0  0  0  0  0  0  0  0  0  0
  -25.7220  -34.6510   23.3450 C   0  0  0  0  0  0  0  0  0  0  0  0
  -26.3150  -34.7450   22.2650 O   0  0  0  0  0  0  0  0  0  0  0  0
  -24.9740  -33.4770   24.8140 H   0  0  0  0  0  0  0  0  0  0  0  0
  -23.8710  -36.3550   23.3750 C   0  0  0  0  0  1  0  0  0  0  0  0
  -25.1900  -35.9220   24.0350 C   0  0  0  0  0  3  0  0  0  0  0  0
  -27.3260  -36.8190   24.8480 C   0  0  0  0  0  1  0  0  0  0  0  0
  -26.1490  -37.0490   24.0150 N   0  0  0  0  0  0  0  0  0  0  0  0
  -25.7030  -37.9070   24.3250 H   0  0  0  0  0  0  0  0  0  0  0  0
  -26.5710  -31.2710   24.5000 C   0  0  1  0  0  0  0  0  0  0  0  0
  -25.6130  -30.8020   25.6200 C   0  0  0  0  0  1  0  0  0  0  0  0
  -27.1940  -30.0120   23.8540 C   0  0  0  0  0  1  0  0  0  0  0  0
  -27.7320  -32.0520   25.1590 C   0  0  0  0  0  1  0  0  0  0  0  0
  1  2  1  0
  1  4  1  0
  4  9  1  0
  4  3  1  0
  5  2  1  0
  5  7  1  0
  5  6  1  0
  6  3  1  0
  7 53  1  0
  7  6  1  0
  7  8  1  6
 10  9  1  0
 10 12  1  0
 11  9  2  0
 13 10  1  0
 13 14  1  0
 14 15  1  0
 16 15  1  0
 17 22  1  0
 18 19  1  0
 18 17  1  0
 20 19  1  0
 20 27  1  0
 20 21  1  0
 22 16  1  0
 22 21  1  0
 23 16  2  0
 24 25  2  0
 25 44  1  0
 26 25  1  0
 26 29  1  0
 27 28  1  0
 27 24  1  0
 28 26  2  0
 29 30  1  0
 30 31  2  0
 32 35  1  0
 32 31  1  0
 33 32  2  0
 34 33  1  0
 34 29  2  0
 35 36  1  0
 36 37  1  0
 37 38  2  0
 39 38  1  0
 39 43  1  0
 40 39  2  0
 41 36  2  0
 41 40  1  0
 42 41  1  0
 44 45  1  0
 45 48  1  0
 45 47  1  0
 46 44  2  0
 49 50  1  0
 49 24  1  0
 51 49  1  0
 53 52  1  0
 54 53  1  0
 55 54  1  0
 56 58  1  0
 56 55  1  0
 57 68  2  0
 58 63  1  0
 59 67  1  0
 59 69  1  0
 60 66  1  0
 60 62  1  0
 61 67  1  0
 62 61  1  0
 63 62  2  0
 64 65  1  0
 64 58  2  0
 65 60  2  0
 66 59  1  0
 67 57  1  0
 69 71  2  0
 70 69  1  0
 72 70  1  0
 73 82  2  0
 73 78  1  0
 74 70  1  0
 74 78  1  0
 75 74  1  0
 76 77  1  0
 76 75  1  0
 77 73  1  0
 78 79  2  0
 79 80  1  0
 81 80  2  0
 82 81  1  0
 83 57  1  0
 83 84  1  0
 83 93  1  0
 84 87  1  0
 85 84  1  0
 85 89  1  0
 86 85  2  0
 89 88  1  0
 91 89  1  0
 91 92  1  0
 91 90  1  0
 93 96  1  1
 93 94  1  0
 95 93  1  0
M  ISO  4  15 100  16 100  55 101  56 101
M  END
>  <TORSDO>  (12) 
F 23

>  <SCORE>  (12) 
-9.678

>  <name>  (12) 
11

>  <ligand_id>  (12) 
11

>  <original_smiles>  (12) 
[H]c1c([H])c([H])c2c(c1[H])C([H])([H])C([H])([H])C([H])([H])C2([H])N([H])C(=O)C1([H])N(C(=O)C([H])(N([H])C(=O)C([H])(N([H])C([H])([H])[H])C([H])([H])[H])C(C([H])([H])[H])(C([H])([H])[H])C([H])([H])[H])C([H])([H])c2c([H])c(OC([H])([H])C([H])([H])C([H])(C([H])([H])[H])[N+]3([H])C4([H])C([H])([H])C([H])([H])C([H])(C(=O)N([H])C([H])([H])C([H])([H])C([H])([H])C(=O)N5C([H])([H])C([H])([H])C([H])([H])C([H])(n6nc(-c7c([H])c([H])c(Oc8c([H])c([H])c(F)c([H])c8F)c([H])c7[H])c(C(=O)N([H])[H])c6N([H])[H])C5([H])[H])C([H])([H])C43[H])c([H])c([H])c2C1([H])[H]

>  <smiles>  (12) 
[H]c1c([H])c([H])c2c(c1[H])C([H])([H])C([H])([H])C([H])([H])C2([H])N([H])C(=O)C1([H])N(C(=O)C([H])(N([H])C(=O)C([H])(N([H])C([H])([H])[H])C([H])([H])[H])C(C([H])([H])[H])(C([H])([H])[H])C([H])([H])[H])C([H])([H])c2c([H])c(OC([H])([H])C([H])([H])C([H])(C([H])([H])[H])[N+]3([H])C4([H])C([H])([H])C([H])([H])C([H])(C(=O)N([H])C([H])([H])C([H])([H])C([H])([H])C(=O)N5C([H])([H])C([H])([H])C([H])([H])C([H])(n6nc(-c7c([H])c([H])c(Oc8c([H])c([H])c(F)c([H])c8F)c([H])c7[H])c(C(=O)N([H])[H])c6N([H])[H])C5([H])[H])C([H])([H])C43[H])c([H])c([H])c2C1([H])[H]

$$$$
12:0:0
     RDKit          3D

 96105  0  0  1  0  0  0  0  0999 V2000
  -29.0360  -23.7190   23.9920 C   0  0  0  0  0  3  0  0  0  0  0  0
  -27.8050  -23.6250   23.4290 C   0  0  0  0  0  3  0  0  0  0  0  0
  -30.4570  -23.4590   23.4550 C   0  0  0  0  0  2  0  0  0  0  0  0
  -27.3790  -23.2490   22.0070 C   0  0  0  0  0  2  0  0  0  0  0  0
  -30.6890  -24.2000   20.9990 C   0  0  0  0  0  2  0  0  0  0  0  0
  -30.6830  -23.0140   21.9830 C   0  0  0  0  0  3  0  0  0  0  0  0
  -28.5210  -23.1380   20.9890 C   0  0  0  0  0  3  0  0  0  0  0  0
  -29.2150  -24.5390   20.8360 C   0  0  0  0  0  3  0  0  0  0  0  0
  -29.5550  -22.0910   21.5080 C   0  0  0  0  0  3  0  0  0  0  0  0
  -29.9550  -20.9130   20.5480 C   0  0  0  0  0  2  0  0  0  0  0  0
  -29.3830  -19.5240   21.0210 C   0  0  0  0  0  2  0  0  0  0  0  0
  -29.6460  -18.2890   20.1960 N   0  0  2  0  0  4  0  0  0  0  0  0
  -28.8120  -17.7500   20.3710 H   0  0  0  0  0  0  0  0  0  0  0  0
  -30.7220  -17.3480   20.6790 C   0  0  0  0  0  2  0  0  0  0  0  0
  -30.1900  -15.9030   21.0200 C   0  0  0  0  0  2  0  0  0  0  0  0
  -30.9540  -14.6690   20.4350 C   0  0  0  0  0  0  0  0  0  0  0  0
  -30.7790  -12.3940   19.4510 C   0  0  0  0  0  2  0  0  0  0  0  0
  -29.8710  -12.4570   18.2040 C   0  0  0  0  0  2  0  0  0  0  0  0
  -28.3870  -12.3060   18.5970 C   0  0  0  0  0  2  0  0  0  0  0  0
  -27.9850  -13.2470   19.7630 C   0  0  0  0  0  3  0  0  0  0  0  0
  -29.0050  -13.1500   20.9200 C   0  0  0  0  0  2  0  0  0  0  0  0
  -30.3370  -13.4520   20.3750 N   0  0  0  0  0  0  0  0  0  0  0  0
  -32.0800  -14.8390   19.9590 O   0  0  0  0  0  0  0  0  0  0  0  0
  -25.5790  -13.8890   20.4140 C   0  0  0  0  0  0  0  0  0  0  0  0
  -24.4960  -13.1340   20.7710 C   0  0  0  0  0  0  0  0  0  0  0  0
  -24.9410  -11.7760   20.7630 C   0  0  0  0  0  0  0  0  0  0  0  0
  -26.6200  -12.9940   20.2150 N   0  0  0  0  0  0  0  0  0  0  0  0
  -26.2370  -11.7190   20.4810 N   0  0  0  0  0  0  0  0  0  0  0  0
  -24.1960  -10.5250   20.9490 C   0  0  0  0  0  0  0  0  0  0  0  0
  -24.5690   -9.5830   21.9340 C   0  0  0  0  0  3  0  0  0  0  0  0
  -23.8270   -8.3960   22.1070 C   0  0  0  0  0  3  0  0  0  0  0  0
  -22.6970   -8.1400   21.2940 C   0  0  0  0  0  0  0  0  0  0  0  0
  -22.3440   -9.0690   20.2980 C   0  0  0  0  0  3  0  0  0  0  0  0
  -23.0870  -10.2480   20.1250 C   0  0  0  0  0  3  0  0  0  0  0  0
  -21.9310   -7.0020   21.3740 O   0  0  0  0  0  0  0  0  0  0  0  0
  -21.7650   -6.3290   22.5570 C   0  0  0  0  0  0  0  0  0  0  0  0
  -21.2180   -6.9530   23.7000 C   0  0  0  0  0  3  0  0  0  0  0  0
  -21.0020   -6.2040   24.8750 C   0  0  0  0  0  3  0  0  0  0  0  0
  -21.3210   -4.8330   24.9040 C   0  0  0  0  0  0  0  0  0  0  0  0
  -21.8600   -4.2100   23.7650 C   0  0  0  0  0  3  0  0  0  0  0  0
  -22.0790   -4.9560   22.5940 C   0  0  0  0  0  0  0  0  0  0  0  0
  -22.5790   -4.3440   21.4930 F   0  0  0  0  0  0  0  0  0  0  0  0
  -21.1050   -4.1110   26.0300 F   0  0  0  0  0  0  0  0  0  0  0  0
  -23.0980  -13.6290   21.0090 C   0  0  0  0  0  0  0  0  0  0  0  0
  -22.3520  -12.9630   21.8830 N   0  0  0  0  0  0  0  0  0  0  0  0
  -22.6750  -14.6420   20.4550 O   0  0  0  0  0  0  0  0  0  0  0  0
  -22.7060  -12.1430   22.3540 H   0  0  0  0  0  0  0  0  0  0  0  0
  -21.4140  -13.2770   22.0880 H   0  0  0  0  0  0  0  0  0  0  0  0
  -25.7620  -15.2560   20.2200 N   0  0  0  0  0  0  0  0  0  0  0  0
  -24.9890  -15.9100   20.2740 H   0  0  0  0  0  0  0  0  0  0  0  0
  -26.5920  -15.6560   19.8060 H   0  0  0  0  0  0  0  0  0  0  0  0
  -29.6490  -18.4860   18.7210 C   0  0  0  0  0  2  0  0  0  0  0  0
  -28.2970  -19.1770   16.6550 C   0  0  0  0  0  1  0  0  0  0  0  0
  -28.2670  -18.8890   18.1620 C   0  0  0  0  0  2  0  0  0  0  0  0
  -28.8180  -25.3880   19.5970 C   0  0  0  0  0  2  0  0  0  0  0  0
  -28.7870  -26.8220   19.8570 O   0  0  0  0  0  0  0  0  0  0  0  0
  -24.6450  -31.7060   23.0520 C   0  0  0  0  0  0  0  0  0  0  0  0
  -27.5730  -27.5020   19.8410 C   0  0  0  0  0  0  0  0  0  0  0  0
  -23.5360  -30.2750   21.3700 C   0  0  0  0  0  3  0  0  0  0  0  0
  -25.0880  -28.8880   19.8950 C   0  0  0  0  0  0  0  0  0  0  0  0
  -26.0380  -30.7940   21.1920 C   0  0  0  0  0  2  0  0  0  0  0  0
  -26.2120  -29.4510   20.5070 C   0  0  0  0  0  0  0  0  0  0  0  0
  -27.4550  -28.7650   20.4800 C   0  0  0  0  0  3  0  0  0  0  0  0
  -26.4260  -26.9890   19.1860 C   0  0  0  0  0  3  0  0  0  0  0  0
  -25.1910  -27.6570   19.2310 C   0  0  0  0  0  3  0  0  0  0  0  0
  -23.7890  -29.6620   19.9690 C   0  0  0  0  0  2  0  0  0  0  0  0
  -24.7560  -30.9400   21.9300 N   0  0  0  0  0  0  0  0  0  0  0  0
  -23.5460  -31.8900   23.5970 O   0  0  0  0  0  0  0  0  0  0  0  0
  -22.9580  -29.1810   22.2970 C   0  0  0  0  0  0  0  0  0  0  0  0
  -21.6350  -28.9600   22.2120 N   0  0  0  0  0  0  0  0  0  0  0  0
  -23.6930  -28.5380   23.0510 O   0  0  0  0  0  0  0  0  0  0  0  0
  -21.1000  -29.5380   21.5790 H   0  0  0  0  0  0  0  0  0  0  0  0
  -18.3150  -27.6730   22.8310 C   0  0  0  0  0  0  0  0  0  0  0  0
  -20.8810  -27.9540   22.9600 C   0  0  0  0  0  3  0  0  0  0  0  0
  -20.9640  -26.5700   22.2770 C   0  0  0  0  0  2  0  0  0  0  0  0
  -19.8040  -26.3010   21.3140 C   0  0  0  0  0  2  0  0  0  0  0  0
  -18.4660  -26.3780   22.0510 C   0  0  0  0  0  2  0  0  0  0  0  0
  -19.4490  -28.4210   23.2440 C   0  0  0  0  0  0  0  0  0  0  0  0
  -19.2560  -29.6350   23.9380 C   0  0  0  0  0  3  0  0  0  0  0  0
  -17.9580  -30.1030   24.2200 C   0  0  0  0  0  3  0  0  0  0  0  0
  -16.8390  -29.3510   23.8240 C   0  0  0  0  0  3  0  0  0  0  0  0
  -17.0190  -28.1370   23.1360 C   0  0  0  0  0  3  0  0  0  0  0  0
  -25.8860  -32.4050   23.6900 C   0  0  0  0  0  3  0  0  0  0  0  0
  -25.4990  -33.7860   24.0070 N   0  0  0  0  0  0  0  0  0  0  0  0
  -25.7840  -34.8510   23.2440 C   0  0  0  0  0  0  0  0  0  0  0  0
  -26.4710  -34.7770   22.2220 O   0  0  0  0  0  0  0  0  0  0  0  0
  -24.8900  -33.9140   24.8010 H   0  0  0  0  0  0  0  0  0  0  0  0
  -23.9670  -36.5440   22.8580 C   0  0  0  0  0  1  0  0  0  0  0  0
  -25.2160  -36.2120   23.6880 C   0  0  0  0  0  3  0  0  0  0  0  0
  -27.2870  -37.2180   24.5420 C   0  0  0  0  0  1  0  0  0  0  0  0
  -26.1910  -37.3180   23.5810 N   0  0  0  0  0  0  0  0  0  0  0  0
  -25.7340  -38.2160   23.7190 H   0  0  0  0  0  0  0  0  0  0  0  0
  -26.4210  -31.6670   24.9780 C   0  0  1  0  0  0  0  0  0  0  0  0
  -25.3250  -31.3730   26.0280 C   0  0  0  0  0  1  0  0  0  0  0  0
  -27.0830  -30.3210   24.6000 C   0  0  0  0  0  1  0  0  0  0  0  0
  -27.5130  -32.5250   25.6590 C   0  0  0  0  0  1  0  0  0  0  0  0
  2  1  2  0
  3  1  1  0
  4  2  1  0
  6  5  1  0
  6  3  1  0
  7  9  1  0
  7  4  1  0
  8 55  1  0
  8  7  1  0
  8  5  1  0
  9 10  1  0
  9  6  1  0
 10 11  1  0
 12 13  1  6
 12 14  1  0
 12 11  1  0
 14 15  1  0
 16 15  1  0
 17 22  1  0
 18 19  1  0
 18 17  1  0
 20 19  1  0
 20 27  1  0
 20 21  1  0
 22 16  1  0
 22 21  1  0
 23 16  2  0
 24 25  2  0
 25 44  1  0
 26 25  1  0
 26 29  1  0
 27 24  1  0
 27 28  1  0
 28 26  2  0
 29 30  1  0
 30 31  2  0
 32 35  1  0
 32 31  1  0
 33 32  2  0
 34 33  1  0
 34 29  2  0
 35 36  1  0
 36 41  2  0
 36 37  1  0
 37 38  2  0
 38 39  1  0
 39 43  1  0
 40 39  2  0
 41 40  1  0
 42 41  1  0
 44 45  1  0
 45 48  1  0
 45 47  1  0
 46 44  2  0
 49 50  1  0
 49 24  1  0
 51 49  1  0
 52 12  1  0
 53 54  1  0
 54 52  1  0
 55 56  1  0
 57 68  2  0
 58 56  1  0
 58 63  1  0
 59 67  1  0
 59 69  1  0
 60 66  1  0
 60 62  1  0
 61 67  1  0
 62 61  1  0
 63 62  2  0
 64 65  1  0
 64 58  2  0
 65 60  2  0
 66 59  1  0
 67 57  1  0
 69 71  2  0
 70 69  1  0
 72 70  1  0
 73 82  2  0
 73 78  1  0
 74 70  1  0
 74 78  1  0
 75 74  1  0
 76 77  1  0
 76 75  1  0
 77 73  1  0
 78 79  2  0
 79 80  1  0
 81 80  2  0
 82 81  1  0
 83 57  1  0
 83 84  1  0
 83 93  1  0
 84 87  1  0
 85 89  1  0
 85 84  1  0
 86 85  2  0
 89 88  1  0
 91 89  1  0
 91 92  1  0
 91 90  1  0
 93 96  1  1
 93 94  1  0
 95 93  1  0
M  ISO  4  15 100  16 100  55 101  56 101
M  END
>  <TORSDO>  (13) 
F 24

>  <SCORE>  (13) 
-9.208

>  <name>  (13) 
12

>  <ligand_id>  (13) 
12

>  <original_smiles>  (13) 
[H]C1=C([H])C([H])([H])C2([H])C([H])(C([H])([H])Oc3c([H])c([H])c4c(c3[H])C([H])([H])N(C(=O)C([H])(N([H])C(=O)C([H])(N([H])C([H])([H])[H])C([H])([H])[H])C(C([H])([H])[H])(C([H])([H])[H])C([H])([H])[H])C([H])(C(=O)N([H])C3([H])c5c([H])c([H])c([H])c([H])c5C([H])([H])C([H])([H])C3([H])[H])C4([H])[H])C([H])([H])C([H])(C1([H])[H])C2([H])C([H])([H])C([H])([H])[N+]([H])(C([H])([H])C([H])([H])C(=O)N1C([H])([H])C([H])([H])C([H])([H])C([H])(n2nc(-c3c([H])c([H])c(Oc4c([H])c([H])c(F)c([H])c4F)c([H])c3[H])c(C(=O)N([H])[H])c2N([H])[H])C1([H])[H])C([H])([H])C([H])([H])C([H])([H])[H]

>  <smiles>  (13) 
[H]C1=C([H])C([H])([H])C2([H])C([H])(C([H])([H])Oc3c([H])c([H])c4c(c3[H])C([H])([H])N(C(=O)C([H])(N([H])C(=O)C([H])(N([H])C([H])([H])[H])C([H])([H])[H])C(C([H])([H])[H])(C([H])([H])[H])C([H])([H])[H])C([H])(C(=O)N([H])C3([H])c5c([H])c([H])c([H])c([H])c5C([H])([H])C([H])([H])C3([H])[H])C4([H])[H])C([H])([H])C([H])(C1([H])[H])C2([H])C([H])([H])C([H])([H])[N+]([H])(C([H])([H])C([H])([H])C(=O)N1C([H])([H])C([H])([H])C([H])([H])C([H])(n2nc(-c3c([H])c([H])c(Oc4c([H])c([H])c(F)c([H])c4F)c([H])c3[H])c(C(=O)N([H])[H])c2N([H])[H])C1([H])[H])C([H])([H])C([H])([H])C([H])([H])[H]

$$$$
13:0:0
     RDKit          3D

 85 92  0  0  1  0  0  0  0  0999 V2000
  -28.6950  -23.0110   19.9090 C   0  0  0  0  0  2  0  0  0  0  0  0
  -29.3900  -21.5190   20.5210 C   0  0  0  0  0  2  0  0  0  0  0  0
  -29.1560  -19.8390   20.0770 C   0  0  0  0  0  2  0  0  0  0  0  0
  -30.1770  -18.4020   20.1480 C   0  0  0  0  0  2  0  0  0  0  0  0
  -29.6730  -16.6930   21.9810 C   0  0  0  0  0  1  0  0  0  0  0  0
  -28.3360  -16.6390   19.8690 C   0  0  0  0  0  1  0  0  0  0  0  0
  -29.7480  -16.7210   20.4370 C   0  0  1  0  0  0  0  0  0  0  0  0
  -30.5150  -15.2190   19.9760 C   0  0  0  0  0  0  0  0  0  0  0  0
  -30.3890  -12.8440   18.9380 C   0  0  0  0  0  2  0  0  0  0  0  0
  -29.3700  -12.7440   17.7710 C   0  0  0  0  0  2  0  0  0  0  0  0
  -27.9510  -12.4490   18.2930 C   0  0  0  0  0  2  0  0  0  0  0  0
  -27.5930  -13.3500   19.4950 C   0  0  0  0  0  3  0  0  0  0  0  0
  -28.7250  -13.3930   20.5460 C   0  0  0  0  0  2  0  0  0  0  0  0
  -29.9430  -13.9170   19.8950 N   0  0  0  0  0  0  0  0  0  0  0  0
  -31.6840  -15.2540   19.5700 O   0  0  0  0  0  0  0  0  0  0  0  0
  -25.2670  -13.9060   20.4240 C   0  0  0  0  0  0  0  0  0  0  0  0
  -24.2400  -13.1230   20.8600 C   0  0  0  0  0  0  0  0  0  0  0  0
  -24.7020  -11.7760   20.7550 C   0  0  0  0  0  0  0  0  0  0  0  0
  -26.2950  -13.0390   20.0850 N   0  0  0  0  0  0  0  0  0  0  0  0
  -25.9670  -11.7490   20.3500 N   0  0  0  0  0  0  0  0  0  0  0  0
  -23.9870  -10.5120   20.9560 C   0  0  0  0  0  0  0  0  0  0  0  0
  -24.4530   -9.5370   21.8630 C   0  0  0  0  0  3  0  0  0  0  0  0
  -23.7340   -8.3380   22.0520 C   0  0  0  0  0  3  0  0  0  0  0  0
  -22.5360   -8.1060   21.3330 C   0  0  0  0  0  0  0  0  0  0  0  0
  -22.0910   -9.0720   20.4150 C   0  0  0  0  0  3  0  0  0  0  0  0
  -22.8100  -10.2630   20.2230 C   0  0  0  0  0  3  0  0  0  0  0  0
  -21.7870   -6.9590   21.4350 O   0  0  0  0  0  0  0  0  0  0  0  0
  -21.7380   -6.2330   22.5970 C   0  0  0  0  0  0  0  0  0  0  0  0
  -21.3120   -6.8050   23.8170 C   0  0  0  0  0  3  0  0  0  0  0  0
  -21.2090   -6.0040   24.9710 C   0  0  0  0  0  3  0  0  0  0  0  0
  -21.5240   -4.6330   24.9090 C   0  0  0  0  0  0  0  0  0  0  0  0
  -21.9440   -4.0620   23.6960 C   0  0  0  0  0  3  0  0  0  0  0  0
  -22.0490   -4.8600   22.5430 C   0  0  0  0  0  0  0  0  0  0  0  0
  -22.4350   -4.2990   21.3710 F   0  0  0  0  0  0  0  0  0  0  0  0
  -21.4180   -3.8630   26.0170 F   0  0  0  0  0  0  0  0  0  0  0  0
  -22.8680  -13.5960   21.2440 C   0  0  0  0  0  0  0  0  0  0  0  0
  -22.2090  -12.8900   22.1560 N   0  0  0  0  0  0  0  0  0  0  0  0
  -22.3940  -14.6310   20.7760 O   0  0  0  0  0  0  0  0  0  0  0  0
  -22.6070  -12.0540   22.5570 H   0  0  0  0  0  0  0  0  0  0  0  0
  -21.2940  -13.1930   22.4580 H   0  0  0  0  0  0  0  0  0  0  0  0
  -25.3800  -15.2800   20.2600 N   0  0  0  0  0  0  0  0  0  0  0  0
  -24.5980  -15.9020   20.4360 H   0  0  0  0  0  0  0  0  0  0  0  0
  -26.1690  -15.7490   19.8370 H   0  0  0  0  0  0  0  0  0  0  0  0
  -28.3180  -24.5410   20.6770 C   0  0  0  0  0  2  0  0  0  0  0  0
  -28.3900  -26.0800   20.2330 O   0  0  0  0  0  0  0  0  0  0  0  0
  -24.6600  -31.8630   23.1710 C   0  0  0  0  0  0  0  0  0  0  0  0
  -27.3110  -27.0700   20.2400 C   0  0  0  0  0  0  0  0  0  0  0  0
  -23.4950  -30.4500   21.5220 C   0  0  0  0  0  3  0  0  0  0  0  0
  -24.9750  -28.8510   20.1430 C   0  0  0  0  0  0  0  0  0  0  0  0
  -26.0540  -30.7090   21.3990 C   0  0  0  0  0  2  0  0  0  0  0  0
  -26.1470  -29.3000   20.7650 C   0  0  0  0  0  0  0  0  0  0  0  0
  -27.3130  -28.4310   20.7850 C   0  0  0  0  0  3  0  0  0  0  0  0
  -26.1080  -26.7370   19.5800 C   0  0  0  0  0  3  0  0  0  0  0  0
  -24.9740  -27.5870   19.5310 C   0  0  0  0  0  3  0  0  0  0  0  0
  -23.7460  -29.7550   20.1560 C   0  0  0  0  0  2  0  0  0  0  0  0
  -24.7560  -31.0330   22.0860 N   0  0  0  0  0  0  0  0  0  0  0  0
  -23.5630  -32.1470   23.6780 O   0  0  0  0  0  0  0  0  0  0  0  0
  -22.7970  -29.4550   22.4830 C   0  0  0  0  0  0  0  0  0  0  0  0
  -21.4700  -29.2820   22.3400 N   0  0  0  0  0  0  0  0  0  0  0  0
  -23.4560  -28.8360   23.3220 O   0  0  0  0  0  0  0  0  0  0  0  0
  -20.9940  -29.8340   21.6390 H   0  0  0  0  0  0  0  0  0  0  0  0
  -18.0880  -28.0610   22.7930 C   0  0  0  0  0  0  0  0  0  0  0  0
  -20.6410  -28.3470   23.1030 C   0  0  0  0  0  3  0  0  0  0  0  0
  -20.7630  -26.9100   22.5440 C   0  0  0  0  0  2  0  0  0  0  0  0
  -19.6820  -26.5700   21.5120 C   0  0  0  0  0  2  0  0  0  0  0  0
  -18.2870  -26.7080   22.1300 C   0  0  0  0  0  2  0  0  0  0  0  0
  -19.1930  -28.8370   23.2360 C   0  0  0  0  0  0  0  0  0  0  0  0
  -18.9510  -30.1000   23.8180 C   0  0  0  0  0  3  0  0  0  0  0  0
  -17.6400  -30.5890   23.9590 C   0  0  0  0  0  3  0  0  0  0  0  0
  -16.5500  -29.8120   23.5310 C   0  0  0  0  0  3  0  0  0  0  0  0
  -16.7750  -28.5500   22.9550 C   0  0  0  0  0  3  0  0  0  0  0  0
  -25.9210  -32.5120   23.8170 C   0  0  0  0  0  3  0  0  0  0  0  0
  -25.5930  -33.9100   24.1460 N   0  0  0  0  0  0  0  0  0  0  0  0
  -25.9260  -34.9700   23.4000 C   0  0  0  0  0  0  0  0  0  0  0  0
  -26.6060  -34.8770   22.3750 O   0  0  0  0  0  0  0  0  0  0  0  0
  -24.9890  -34.0560   24.9430 H   0  0  0  0  0  0  0  0  0  0  0  0
  -24.1880  -36.7590   23.0440 C   0  0  0  0  0  1  0  0  0  0  0  0
  -25.4270  -36.3560   23.8600 C   0  0  0  0  0  3  0  0  0  0  0  0
  -27.5520  -37.2540   24.7060 C   0  0  0  0  0  1  0  0  0  0  0  0
  -26.4540  -37.4170   23.7570 N   0  0  0  0  0  0  0  0  0  0  0  0
  -26.0420  -38.3340   23.9040 H   0  0  0  0  0  0  0  0  0  0  0  0
  -26.4160  -31.7510   25.1080 C   0  0  1  0  0  0  0  0  0  0  0  0
  -25.3030  -31.5150   26.1580 C   0  0  0  0  0  1  0  0  0  0  0  0
  -27.0100  -30.3720   24.7400 C   0  0  0  0  0  1  0  0  0  0  0  0
  -27.5500  -32.5520   25.7890 C   0  0  0  0  0  1  0  0  0  0  0  0
  1  2  1  0
  1 44  1  0
  3  4  1  0
  3  2  1  0
  4  7  1  0
  7  6  1  6
  7  5  1  0
  8  7  1  0
  9 14  1  0
 10 11  1  0
 10  9  1  0
 12 11  1  0
 12 19  1  0
 12 13  1  0
 14  8  1  0
 14 13  1  0
 15  8  2  0
 16 17  2  0
 17 36  1  0
 18 17  1  0
 18 21  1  0
 19 20  1  0
 19 16  1  0
 20 18  2  0
 21 22  1  0
 22 23  2  0
 24 27  1  0
 24 23  1  0
 25 24  2  0
 26 25  1  0
 26 21  2  0
 27 28  1  0
 28 29  1  0
 29 30  2  0
 31 30  1  0
 31 35  1  0
 32 31  2  0
 33 28  2  0
 33 32  1  0
 34 33  1  0
 36 37  1  0
 37 40  1  0
 37 39  1  0
 38 36  2  0
 41 16  1  0
 41 42  1  0
 43 41  1  0
 45 47  1  0
 45 44  1  0
 46 57  2  0
 47 52  1  0
 48 56  1  0
 48 58  1  0
 49 55  1  0
 49 51  1  0
 50 56  1  0
 51 52  2  0
 51 50  1  0
 53 47  2  0
 54 53  1  0
 54 49  2  0
 55 48  1  0
 56 46  1  0
 58 60  2  0
 59 58  1  0
 61 59  1  0
 62 71  2  0
 62 67  1  0
 63 59  1  0
 63 67  1  0
 64 63  1  0
 65 66  1  0
 65 64  1  0
 66 62  1  0
 67 68  2  0
 68 69  1  0
 70 69  2  0
 71 70  1  0
 72 46  1  0
 72 73  1  0
 72 82  1  0
 73 76  1  0
 74 78  1  0
 74 73  1  0
 75 74  2  0
 78 77  1  0
 80 78  1  0
 80 81  1  0
 80 79  1  0
 82 85  1  1
 82 83  1  0
 84 82  1  0
M  ISO  4   7 100   8 100  44 101  45 101
M  END
>  <TORSDO>  (14) 
F 21

>  <SCORE>  (14) 
-15.555

>  <name>  (14) 
13

>  <ligand_id>  (14) 
13

>  <original_smiles>  (14) 
[H]c1c([H])c([H])c2c(c1[H])C([H])([H])C([H])([H])C([H])([H])C2([H])N([H])C(=O)C1([H])N(C(=O)C([H])(N([H])C(=O)C([H])(N([H])C([H])([H])[H])C([H])([H])[H])C(C([H])([H])[H])(C([H])([H])[H])C([H])([H])[H])C([H])([H])c2c([H])c(OC([H])([H])C([H])([H])C([H])([H])C([H])([H])C([H])([H])C(C(=O)N3C([H])([H])C([H])([H])C([H])([H])C([H])(n4nc(-c5c([H])c([H])c(Oc6c([H])c([H])c(F)c([H])c6F)c([H])c5[H])c(C(=O)N([H])[H])c4N([H])[H])C3([H])[H])(C([H])([H])[H])C([H])([H])[H])c([H])c([H])c2C1([H])[H]

>  <smiles>  (14) 
[H]c1c([H])c([H])c2c(c1[H])C([H])([H])C([H])([H])C([H])([H])C2([H])N([H])C(=O)C1([H])N(C(=O)C([H])(N([H])C(=O)C([H])(N([H])C([H])([H])[H])C([H])([H])[H])C(C([H])([H])[H])(C([H])([H])[H])C([H])([H])[H])C([H])([H])c2c([H])c(OC([H])([H])C([H])([H])C([H])([H])C([H])([H])C([H])([H])C(C(=O)N3C([H])([H])C([H])([H])C([H])([H])C([H])(n4nc(-c5c([H])c([H])c(Oc6c([H])c([H])c(F)c([H])c6F)c([H])c5[H])c(C(=O)N([H])[H])c4N([H])[H])C3([H])[H])(C([H])([H])[H])C([H])([H])[H])c([H])c([H])c2C1([H])[H]

$$$$
14:0:0
     RDKit          3D

 90 98  0  0  1  0  0  0  0  0999 V2000
  -31.1470  -21.9260   21.7160 C   0  0  0  0  0  2  0  0  0  0  0  0
  -30.1090  -23.0100   21.3780 C   0  0  0  0  0  2  0  0  0  0  0  0
  -30.5310  -20.5130   21.7310 C   0  0  0  0  0  2  0  0  0  0  0  0
  -28.8590  -21.2560   20.0550 C   0  0  0  0  0  2  0  0  0  0  0  0
  -29.4140  -22.7710   20.0260 C   0  0  2  0  0  0  0  0  0  0  0  0
  -30.4330  -22.8780   18.8630 C   0  0  0  0  0  1  0  0  0  0  0  0
  -29.8460  -20.1540   20.4580 N   0  0  2  0  0  4  0  0  0  0  0  0
  -30.5490  -20.1550   19.7360 H   0  0  0  0  0  0  0  0  0  0  0  0
  -28.2910  -23.9190   19.8610 C   0  0  0  0  0  2  0  0  0  0  0  0
  -28.6400  -25.4150   19.3830 C   0  0  0  0  0  2  0  0  0  0  0  0
  -28.4110  -26.6020   20.2250 O   0  0  0  0  0  0  0  0  0  0  0  0
  -24.5970  -31.9020   23.2610 C   0  0  0  0  0  0  0  0  0  0  0  0
  -27.2510  -27.3860   20.1640 C   0  0  0  0  0  0  0  0  0  0  0  0
  -23.4030  -30.5040   21.6090 C   0  0  0  0  0  3  0  0  0  0  0  0
  -24.8630  -28.9610   20.1800 C   0  0  0  0  0  0  0  0  0  0  0  0
  -25.9370  -30.8350   21.4340 C   0  0  0  0  0  2  0  0  0  0  0  0
  -26.0250  -29.4610   20.7770 C   0  0  0  0  0  0  0  0  0  0  0  0
  -27.2170  -28.6810   20.7670 C   0  0  0  0  0  3  0  0  0  0  0  0
  -26.0640  -26.9230   19.5580 C   0  0  0  0  0  3  0  0  0  0  0  0
  -24.8820  -27.6970   19.5650 C   0  0  0  0  0  3  0  0  0  0  0  0
  -23.6240  -29.8330   20.2280 C   0  0  0  0  0  2  0  0  0  0  0  0
  -24.6650  -31.0950   22.1600 N   0  0  0  0  0  0  0  0  0  0  0  0
  -23.5140  -32.1740   23.7940 O   0  0  0  0  0  0  0  0  0  0  0  0
  -22.7400  -29.4810   22.5660 C   0  0  0  0  0  0  0  0  0  0  0  0
  -21.4140  -29.3080   22.4390 N   0  0  0  0  0  0  0  0  0  0  0  0
  -23.4190  -28.8520   23.3820 O   0  0  0  0  0  0  0  0  0  0  0  0
  -20.9270  -29.8740   21.7590 H   0  0  0  0  0  0  0  0  0  0  0  0
  -18.0400  -28.1080   22.9360 C   0  0  0  0  0  0  0  0  0  0  0  0
  -20.5970  -28.3670   23.2100 C   0  0  0  0  0  3  0  0  0  0  0  0
  -20.7020  -26.9370   22.6330 C   0  0  0  0  0  2  0  0  0  0  0  0
  -19.6010  -26.6160   21.6170 C   0  0  0  0  0  2  0  0  0  0  0  0
  -18.2180  -26.7600   22.2580 C   0  0  0  0  0  2  0  0  0  0  0  0
  -19.1590  -28.8680   23.3710 C   0  0  0  0  0  0  0  0  0  0  0  0
  -18.9390  -30.1290   23.9680 C   0  0  0  0  0  3  0  0  0  0  0  0
  -17.6330  -30.6310   24.1300 C   0  0  0  0  0  3  0  0  0  0  0  0
  -16.5290  -29.8660   23.7170 C   0  0  0  0  0  3  0  0  0  0  0  0
  -16.7330  -28.6080   23.1230 C   0  0  0  0  0  3  0  0  0  0  0  0
  -25.8780  -32.5370   23.8850 C   0  0  0  0  0  3  0  0  0  0  0  0
  -25.5690  -33.9360   24.2110 N   0  0  0  0  0  0  0  0  0  0  0  0
  -25.9060  -34.9890   23.4540 C   0  0  0  0  0  0  0  0  0  0  0  0
  -26.5810  -34.8830   22.4280 O   0  0  0  0  0  0  0  0  0  0  0  0
  -24.9700  -34.0930   25.0080 H   0  0  0  0  0  0  0  0  0  0  0  0
  -24.1820  -36.7820   23.0930 C   0  0  0  0  0  1  0  0  0  0  0  0
  -25.4190  -36.3780   23.9110 C   0  0  0  0  0  3  0  0  0  0  0  0
  -27.5520  -37.2590   24.7460 C   0  0  0  0  0  1  0  0  0  0  0  0
  -26.4520  -37.4300   23.7990 N   0  0  0  0  0  0  0  0  0  0  0  0
  -26.0500  -38.3510   23.9490 H   0  0  0  0  0  0  0  0  0  0  0  0
  -26.3900  -31.7730   25.1680 C   0  0  1  0  0  0  0  0  0  0  0  0
  -25.2930  -31.5420   26.2330 C   0  0  0  0  0  1  0  0  0  0  0  0
  -26.9700  -30.3930   24.7810 C   0  0  0  0  0  1  0  0  0  0  0  0
  -27.5400  -32.5680   25.8300 C   0  0  0  0  0  1  0  0  0  0  0  0
  -29.2910  -18.7240   20.5080 C   0  0  0  0  0  3  0  0  0  0  0  0
  -30.3170  -17.4790   20.4970 C   0  0  0  0  0  3  0  0  0  0  0  0
  -29.7540  -16.0060   20.7990 C   0  0  0  0  0  2  0  0  0  0  0  0
  -30.5660  -14.7120   20.3490 C   0  0  0  0  0  0  0  0  0  0  0  0
  -30.3550  -12.4710   19.2710 C   0  0  0  0  0  2  0  0  0  0  0  0
  -29.3970  -12.6070   18.0650 C   0  0  0  0  0  2  0  0  0  0  0  0
  -27.9280  -12.4360   18.5040 C   0  0  0  0  0  2  0  0  0  0  0  0
  -27.5820  -13.2950   19.7490 C   0  0  0  0  0  3  0  0  0  0  0  0
  -28.6530  -13.1440   20.8520 C   0  0  0  0  0  2  0  0  0  0  0  0
  -29.9570  -13.4840   20.2700 N   0  0  0  0  0  0  0  0  0  0  0  0
  -31.7190  -14.8580   19.9330 O   0  0  0  0  0  0  0  0  0  0  0  0
  -25.1970  -13.8990   20.4930 C   0  0  0  0  0  0  0  0  0  0  0  0
  -24.1310  -13.1280   20.8730 C   0  0  0  0  0  0  0  0  0  0  0  0
  -24.5910  -11.7760   20.8410 C   0  0  0  0  0  0  0  0  0  0  0  0
  -26.2370  -13.0160   20.2490 N   0  0  0  0  0  0  0  0  0  0  0  0
  -25.8780  -11.7350   20.5190 N   0  0  0  0  0  0  0  0  0  0  0  0
  -23.8650  -10.5140   21.0370 C   0  0  0  0  0  0  0  0  0  0  0  0
  -24.3130   -9.5420   21.9560 C   0  0  0  0  0  3  0  0  0  0  0  0
  -23.5860   -8.3450   22.1410 C   0  0  0  0  0  3  0  0  0  0  0  0
  -22.3990   -8.1140   21.4060 C   0  0  0  0  0  0  0  0  0  0  0  0
  -21.9700   -9.0770   20.4750 C   0  0  0  0  0  3  0  0  0  0  0  0
  -22.6970  -10.2650   20.2890 C   0  0  0  0  0  3  0  0  0  0  0  0
  -21.6400   -6.9710   21.5030 O   0  0  0  0  0  0  0  0  0  0  0  0
  -21.6210   -6.2150   22.6470 C   0  0  0  0  0  0  0  0  0  0  0  0
  -21.2360   -6.7560   23.8920 C   0  0  0  0  0  3  0  0  0  0  0  0
  -21.1630   -5.9250   25.0280 C   0  0  0  0  0  3  0  0  0  0  0  0
  -21.4670   -4.5540   24.9190 C   0  0  0  0  0  0  0  0  0  0  0  0
  -21.8450   -4.0130   23.6770 C   0  0  0  0  0  3  0  0  0  0  0  0
  -21.9190   -4.8410   22.5450 C   0  0  0  0  0  0  0  0  0  0  0  0
  -22.2640   -4.3090   21.3470 F   0  0  0  0  0  0  0  0  0  0  0  0
  -21.3880   -3.7540   26.0080 F   0  0  0  0  0  0  0  0  0  0  0  0
  -22.7370  -13.6070   21.1540 C   0  0  0  0  0  0  0  0  0  0  0  0
  -22.0130  -12.9120   22.0260 N   0  0  0  0  0  0  0  0  0  0  0  0
  -22.2980  -14.6340   20.6380 O   0  0  0  0  0  0  0  0  0  0  0  0
  -22.3810  -12.0800   22.4650 H   0  0  0  0  0  0  0  0  0  0  0  0
  -21.0790  -13.2170   22.2570 H   0  0  0  0  0  0  0  0  0  0  0  0
  -25.3600  -15.2690   20.3130 N   0  0  0  0  0  0  0  0  0  0  0  0
  -24.5930  -15.9210   20.4310 H   0  0  0  0  0  0  0  0  0  0  0  0
  -26.2020  -15.7070   19.9660 H   0  0  0  0  0  0  0  0  0  0  0  0
  1  3  1  0
  2  1  1  0
  4  7  1  0
  5  6  1  6
  5  4  1  0
  5  2  1  0
  7 52  1  0
  7  3  1  0
  7  8  1  6
  9  5  1  0
 10  9  1  0
 10 11  1  0
 12 23  2  0
 13 11  1  0
 13 18  1  0
 14 22  1  0
 14 24  1  0
 15 21  1  0
 15 17  1  0
 16 22  1  0
 17 16  1  0
 18 17  2  0
 19 20  1  0
 19 13  2  0
 20 15  2  0
 21 14  1  0
 22 12  1  0
 24 26  2  0
 25 24  1  0
 27 25  1  0
 28 37  2  0
 28 33  1  0
 29 25  1  0
 29 33  1  0
 30 29  1  0
 31 32  1  0
 31 30  1  0
 32 28  1  0
 33 34  2  0
 34 35  1  0
 36 35  2  0
 37 36  1  0
 38 12  1  0
 38 39  1  0
 38 48  1  0
 39 42  1  0
 40 44  1  0
 40 39  1  0
 41 40  2  0
 44 43  1  0
 46 44  1  0
 46 47  1  0
 46 45  1  0
 48 51  1  1
 48 49  1  0
 50 48  1  0
 53 52  2  0
 53 54  1  0
 55 54  1  0
 56 61  1  0
 57 58  1  0
 57 56  1  0
 59 58  1  0
 59 66  1  0
 59 60  1  0
 61 55  1  0
 61 60  1  0
 62 55  2  0
 63 64  2  0
 64 83  1  0
 65 64  1  0
 65 68  1  0
 66 63  1  0
 66 67  1  0
 67 65  2  0
 68 69  1  0
 69 70  2  0
 71 74  1  0
 71 70  1  0
 72 71  2  0
 73 72  1  0
 73 68  2  0
 74 75  1  0
 75 76  1  0
 76 77  2  0
 78 77  1  0
 78 82  1  0
 79 78  2  0
 80 75  2  0
 80 79  1  0
 81 80  1  0
 83 84  1  0
 84 87  1  0
 84 86  1  0
 85 83  2  0
 88 89  1  0
 88 63  1  0
 90 88  1  0
M  ISO  4  10 101  11 101  54 100  55 100
M  END
>  <TORSDO>  (15) 
F 21

>  <SCORE>  (15) 
-13.540

>  <name>  (15) 
14

>  <ligand_id>  (15) 
14

>  <original_smiles>  (15) 
[H]c1c([H])c([H])c2c(c1[H])C([H])([H])C([H])([H])C([H])([H])C2([H])N([H])C(=O)C1([H])N(C(=O)C([H])(N([H])C(=O)C([H])(N([H])C([H])([H])[H])C([H])([H])[H])C(C([H])([H])[H])(C([H])([H])[H])C([H])([H])[H])C([H])([H])c2c([H])c(OC([H])([H])C([H])([H])C3(C([H])([H])[H])C([H])([H])C([H])([H])C([H])([H])[N+]([H])(C([H])([H])C([H])([H])C([H])([H])C(=O)N4C([H])([H])C([H])([H])C([H])([H])C([H])(n5nc(-c6c([H])c([H])c(Oc7c([H])c([H])c(F)c([H])c7F)c([H])c6[H])c(C(=O)N([H])[H])c5N([H])[H])C4([H])[H])C3([H])[H])c([H])c([H])c2C1([H])[H]

>  <smiles>  (15) 
[H]c1c([H])c([H])c2c(c1[H])C([H])([H])C([H])([H])C([H])([H])C2([H])N([H])C(=O)C1([H])N(C(=O)C([H])(N([H])C(=O)C([H])(N([H])C([H])([H])[H])C([H])([H])[H])C(C([H])([H])[H])(C([H])([H])[H])C([H])([H])[H])C([H])([H])c2c([H])c(OC([H])([H])C([H])([H])C3(C([H])([H])[H])C([H])([H])C([H])([H])C([H])([H])[N+]([H])(C([H])([H])C([H])([H])C([H])([H])C(=O)N4C([H])([H])C([H])([H])C([H])([H])C([H])(n5nc(-c6c([H])c([H])c(Oc7c([H])c([H])c(F)c([H])c7F)c([H])c6[H])c(C(=O)N([H])[H])c5N([H])[H])C4([H])[H])C3([H])[H])c([H])c([H])c2C1([H])[H]

$$$$
15:0:0
     RDKit          3D

 94102  0  0  1  0  0  0  0  0999 V2000
  -29.2210  -22.6120   20.0770 C   0  0  0  0  0  3  0  0  0  0  0  0
  -26.8950  -23.7020   19.4820 C   0  0  0  0  0  2  0  0  0  0  0  0
  -27.9700  -22.6140   19.1430 C   0  0  0  0  0  3  0  0  0  0  0  0
  -26.8590  -21.4680   19.0360 C   0  0  2  0  0  0  0  0  0  0  0  0
  -26.2360  -20.8330   20.3010 C   0  0  0  0  0  1  0  0  0  0  0  0
  -26.9150  -20.4470   17.8850 C   0  0  0  0  0  1  0  0  0  0  0  0
  -24.3910  -22.7370   19.1160 O   0  0  0  0  0  0  0  0  0  0  0  0
  -25.8950  -23.0770   17.0380 O   0  0  0  0  0  0  0  0  0  0  0  0
  -25.7170  -22.7970   18.4740 S   0  0  1  0  0  0  0  0  0  0  0  0
  -30.2200  -21.4010   19.8770 N   0  0  0  0  0  4  0  0  0  0  0  0
  -30.4570  -21.3690   18.8990 H   0  0  0  0  0  0  0  0  0  0  0  0
  -31.0640  -21.6570   20.3630 H   0  0  0  0  0  0  0  0  0  0  0  0
  -29.8910  -19.9310   20.3360 C   0  0  0  0  0  3  0  0  0  0  0  0
  -30.8420  -18.5840   20.1010 C   0  0  0  0  0  3  0  0  0  0  0  0
  -30.3880  -17.0740   20.6560 C   0  0  0  0  0  2  0  0  0  0  0  0
  -31.2340  -15.6760   20.4920 C   0  0  0  0  0  0  0  0  0  0  0  0
  -31.2420  -13.2370   19.8230 C   0  0  0  0  0  2  0  0  0  0  0  0
  -30.4570  -13.0710   18.5010 C   0  0  0  0  0  2  0  0  0  0  0  0
  -28.9530  -12.8920   18.7800 C   0  0  0  0  0  2  0  0  0  0  0  0
  -28.4150  -13.9340   19.7970 C   0  0  0  0  0  3  0  0  0  0  0  0
  -29.3330  -14.0600   21.0300 C   0  0  0  0  0  2  0  0  0  0  0  0
  -30.6770  -14.4050   20.5490 N   0  0  0  0  0  0  0  0  0  0  0  0
  -32.4400  -15.7520   20.2310 O   0  0  0  0  0  0  0  0  0  0  0  0
  -25.9800  -14.5720   20.2840 C   0  0  0  0  0  0  0  0  0  0  0  0
  -24.8720  -13.8230   20.5740 C   0  0  0  0  0  0  0  0  0  0  0  0
  -25.3150  -12.4660   20.6260 C   0  0  0  0  0  0  0  0  0  0  0  0
  -27.0280  -13.6730   20.1700 N   0  0  0  0  0  0  0  0  0  0  0  0
  -26.6300  -12.4030   20.4400 N   0  0  0  0  0  0  0  0  0  0  0  0
  -24.5540  -11.2190   20.7830 C   0  0  0  0  0  0  0  0  0  0  0  0
  -24.8930  -10.2660   21.7680 C   0  0  0  0  0  3  0  0  0  0  0  0
  -24.1350   -9.0840   21.9120 C   0  0  0  0  0  3  0  0  0  0  0  0
  -23.0230   -8.8470   21.0690 C   0  0  0  0  0  0  0  0  0  0  0  0
  -22.7030   -9.7890   20.0760 C   0  0  0  0  0  3  0  0  0  0  0  0
  -23.4610  -10.9630   19.9300 C   0  0  0  0  0  3  0  0  0  0  0  0
  -22.2410   -7.7180   21.1200 O   0  0  0  0  0  0  0  0  0  0  0  0
  -22.0650   -7.0170   22.2860 C   0  0  0  0  0  0  0  0  0  0  0  0
  -21.5510   -7.6260   23.4510 C   0  0  0  0  0  3  0  0  0  0  0  0
  -21.3210   -6.8530   24.6080 C   0  0  0  0  0  3  0  0  0  0  0  0
  -21.5950   -5.4720   24.5970 C   0  0  0  0  0  0  0  0  0  0  0  0
  -22.1010   -4.8630   23.4360 C   0  0  0  0  0  3  0  0  0  0  0  0
  -22.3330   -5.6340   22.2830 C   0  0  0  0  0  0  0  0  0  0  0  0
  -22.8020   -5.0380   21.1600 F   0  0  0  0  0  0  0  0  0  0  0  0
  -21.3670   -4.7270   25.7040 F   0  0  0  0  0  0  0  0  0  0  0  0
  -23.4630  -14.3270   20.6970 C   0  0  0  0  0  0  0  0  0  0  0  0
  -22.6530  -13.6840   21.5280 N   0  0  0  0  0  0  0  0  0  0  0  0
  -23.0870  -15.3280   20.0860 O   0  0  0  0  0  0  0  0  0  0  0  0
  -22.9680  -12.8760   22.0440 H   0  0  0  0  0  0  0  0  0  0  0  0
  -21.7020  -14.0020   21.6500 H   0  0  0  0  0  0  0  0  0  0  0  0
  -26.1810  -15.9340   20.0850 N   0  0  0  0  0  0  0  0  0  0  0  0
  -25.4130  -16.5970   20.0980 H   0  0  0  0  0  0  0  0  0  0  0  0
  -27.0610  -16.3490   19.8090 H   0  0  0  0  0  0  0  0  0  0  0  0
  -29.7780  -24.1920   20.3370 C   0  0  0  0  0  2  0  0  0  0  0  0
  -29.2250  -25.6440   19.6980 C   0  0  0  0  0  2  0  0  0  0  0  0
  -29.2930  -27.0500   20.3450 O   0  0  0  0  0  0  0  0  0  0  0  0
  -24.9350  -31.8810   23.7510 C   0  0  0  0  0  0  0  0  0  0  0  0
  -28.1650  -27.9410   20.3120 C   0  0  0  0  0  0  0  0  0  0  0  0
  -24.0120  -30.7010   21.7930 C   0  0  0  0  0  3  0  0  0  0  0  0
  -25.7120  -29.4900   20.2970 C   0  0  0  0  0  0  0  0  0  0  0  0
  -26.5350  -31.1700   21.9390 C   0  0  0  0  0  2  0  0  0  0  0  0
  -26.7850  -29.9140   21.0900 C   0  0  0  0  0  0  0  0  0  0  0  0
  -28.0150  -29.1590   21.0840 C   0  0  0  0  0  3  0  0  0  0  0  0
  -27.0610  -27.6150   19.4910 C   0  0  0  0  0  3  0  0  0  0  0  0
  -25.8630  -28.3580   19.4840 C   0  0  0  0  0  3  0  0  0  0  0  0
  -24.4150  -30.2820   20.3550 C   0  0  0  0  0  2  0  0  0  0  0  0
  -25.1740  -31.2650   22.5540 N   0  0  0  0  0  0  0  0  0  0  0  0
  -23.7850  -31.9980   24.2020 O   0  0  0  0  0  0  0  0  0  0  0  0
  -23.3390  -29.5020   22.5070 C   0  0  0  0  0  0  0  0  0  0  0  0
  -22.0330  -29.2950   22.2580 N   0  0  0  0  0  0  0  0  0  0  0  0
  -23.9930  -28.7690   23.2540 O   0  0  0  0  0  0  0  0  0  0  0  0
  -21.5590  -29.9440   21.6460 H   0  0  0  0  0  0  0  0  0  0  0  0
  -18.6800  -27.9340   22.3900 C   0  0  0  0  0  0  0  0  0  0  0  0
  -21.2220  -28.1960   22.7870 C   0  0  0  0  0  3  0  0  0  0  0  0
  -21.3820  -26.9200   21.9280 C   0  0  0  0  0  2  0  0  0  0  0  0
  -20.3170  -26.7920   20.8350 C   0  0  0  0  0  2  0  0  0  0  0  0
  -18.9150  -26.7640   21.4500 C   0  0  0  0  0  2  0  0  0  0  0  0
  -19.7620  -28.6160   23.0070 C   0  0  0  0  0  0  0  0  0  0  0  0
  -19.4880  -29.7170   23.8460 C   0  0  0  0  0  3  0  0  0  0  0  0
  -18.1630  -30.1360   24.0760 C   0  0  0  0  0  3  0  0  0  0  0  0
  -17.0950  -29.4480   23.4720 C   0  0  0  0  0  3  0  0  0  0  0  0
  -17.3540  -28.3490   22.6350 C   0  0  0  0  0  3  0  0  0  0  0  0
  -26.0930  -32.4880   24.6010 C   0  0  0  0  0  3  0  0  0  0  0  0
  -25.7500  -33.8890   24.8880 N   0  0  0  0  0  0  0  0  0  0  0  0
  -26.2090  -34.9440   24.2040 C   0  0  0  0  0  0  0  0  0  0  0  0
  -27.0310  -34.8390   23.2890 O   0  0  0  0  0  0  0  0  0  0  0  0
  -25.0410  -34.0440   25.5900 H   0  0  0  0  0  0  0  0  0  0  0  0
  -24.5700  -36.7600   23.6160 C   0  0  0  0  0  1  0  0  0  0  0  0
  -25.6760  -36.3360   24.5950 C   0  0  0  0  0  3  0  0  0  0  0  0
  -27.6820  -37.1930   25.7270 C   0  0  0  0  0  1  0  0  0  0  0  0
  -26.7250  -37.3780   24.6390 N   0  0  0  0  0  0  0  0  0  0  0  0
  -26.3110  -38.3020   24.7340 H   0  0  0  0  0  0  0  0  0  0  0  0
  -26.3570  -31.6980   25.9420 C   0  0  1  0  0  0  0  0  0  0  0  0
  -25.0850  -31.4740   26.7930 C   0  0  0  0  0  1  0  0  0  0  0  0
  -26.9810  -30.3140   25.6510 C   0  0  0  0  0  1  0  0  0  0  0  0
  -27.3820  -32.4670   26.8090 C   0  0  0  0  0  1  0  0  0  0  0  0
  1 52  1  0
  3  2  1  0
  3  1  1  0
  4  3  1  0
  4  5  1  1
  6  4  1  0
  8  9  2  0
  9  4  1  0
  9  7  2  0
  9  2  1  1
 10  1  1  0
 10 13  1  0
 10 12  1  0
 11 10  1  0
 14 13  2  0
 14 15  1  0
 16 22  1  0
 16 15  1  0
 17 22  1  0
 18 19  1  0
 18 17  1  0
 20 19  1  0
 20 27  1  0
 20 21  1  0
 22 21  1  0
 23 16  2  0
 24 25  2  0
 25 26  1  0
 25 44  1  0
 26 29  1  0
 27 24  1  0
 27 28  1  0
 28 26  2  0
 29 30  1  0
 30 31  2  0
 32 35  1  0
 32 31  1  0
 33 32  2  0
 34 33  1  0
 34 29  2  0
 35 36  1  0
 36 37  1  0
 37 38  2  0
 39 38  1  0
 39 43  1  0
 40 39  2  0
 41 36  2  0
 41 40  1  0
 42 41  1  0
 44 45  1  0
 45 48  1  0
 45 47  1  0
 46 44  2  0
 49 50  1  0
 49 24  1  0
 51 49  1  0
 53 52  1  0
 53 54  1  0
 55 66  2  0
 56 54  1  0
 56 61  1  0
 57 67  1  0
 57 65  1  0
 58 64  1  0
 58 60  1  0
 59 65  1  0
 60 59  1  0
 61 60  2  0
 62 56  2  0
 63 62  1  0
 63 58  2  0
 64 57  1  0
 65 55  1  0
 67 69  2  0
 68 67  1  0
 70 68  1  0
 71 80  2  0
 71 76  1  0
 72 68  1  0
 72 76  1  0
 73 72  1  0
 74 75  1  0
 74 73  1  0
 75 71  1  0
 76 77  2  0
 77 78  1  0
 79 78  2  0
 80 79  1  0
 81 55  1  0
 81 82  1  0
 81 91  1  0
 82 85  1  0
 83 87  1  0
 83 82  1  0
 84 83  2  0
 87 86  1  0
 87 89  1  0
 89 90  1  0
 89 88  1  0
 91 92  1  1
 91 94  1  0
 93 91  1  0
M  ISO  4  15 100  16 100  53 101  54 101
M  END
>  <TORSDO>  (16) 
F 23

>  <SCORE>  (16) 
-9.104

>  <name>  (16) 
15

>  <ligand_id>  (16) 
15

>  <original_smiles>  (16) 
[H]c1c([H])c([H])c2c(c1[H])C([H])([H])C([H])([H])C([H])([H])C2([H])N([H])C(=O)C1([H])N(C(=O)C([H])(N([H])C(=O)C([H])(N([H])C([H])([H])[H])C([H])([H])[H])C(C([H])([H])[H])(C([H])([H])[H])C([H])([H])[H])C([H])([H])c2c([H])c(OC([H])([H])C([H])([H])C([H])(C3([H])C([H])([H])S(=O)(=O)C3(C([H])([H])[H])C([H])([H])[H])[N+]([H])([H])C([H])([H])C([H])([H])C([H])([H])C(=O)N3C([H])([H])C([H])([H])C([H])([H])C([H])(n4nc(-c5c([H])c([H])c(Oc6c([H])c([H])c(F)c([H])c6F)c([H])c5[H])c(C(=O)N([H])[H])c4N([H])[H])C3([H])[H])c([H])c([H])c2C1([H])[H]

>  <smiles>  (16) 
[H]c1c([H])c([H])c2c(c1[H])C([H])([H])C([H])([H])C([H])([H])C2([H])N([H])C(=O)C1([H])N(C(=O)C([H])(N([H])C(=O)C([H])(N([H])C([H])([H])[H])C([H])([H])[H])C(C([H])([H])[H])(C([H])([H])[H])C([H])([H])[H])C([H])([H])c2c([H])c(OC([H])([H])C([H])([H])C([H])(C3([H])C([H])([H])S(=O)(=O)C3(C([H])([H])[H])C([H])([H])[H])[N+]([H])([H])C([H])([H])C([H])([H])C([H])([H])C(=O)N3C([H])([H])C([H])([H])C([H])([H])C([H])(n4nc(-c5c([H])c([H])c(Oc6c([H])c([H])c(F)c([H])c6F)c([H])c5[H])c(C(=O)N([H])[H])c4N([H])[H])C3([H])[H])c([H])c([H])c2C1([H])[H]

$$$$
16:0:0
     RDKit          3D

 91 99  0  0  1  0  0  0  0  0999 V2000
  -28.5280  -21.8640   19.9600 N   0  0  0  0  0  4  0  0  0  0  0  0
  -27.8910  -21.8650   19.1790 H   0  0  0  0  0  0  0  0  0  0  0  0
  -29.4640  -21.8560   19.5890 H   0  0  0  0  0  0  0  0  0  0  0  0
  -29.1930  -20.4400   21.9390 C   0  0  0  0  0  2  0  0  0  0  0  0
  -29.7930  -19.0500   21.8030 C   0  0  0  0  0  2  0  0  0  0  0  0
  -28.6720  -19.3670   19.8350 C   0  0  0  0  0  2  0  0  0  0  0  0
  -28.3060  -20.5950   20.6940 C   0  0  0  0  0  3  0  0  0  0  0  0
  -29.9670  -18.9270   20.3560 N   0  0  0  0  0  0  0  0  0  0  0  0
  -30.2960  -17.5550   19.9620 C   0  0  0  0  0  2  0  0  0  0  0  0
  -31.6680  -17.1430   20.5380 C   0  0  0  0  0  2  0  0  0  0  0  0
  -31.7260  -15.6840   21.0450 C   0  0  0  0  0  2  0  0  0  0  0  0
  -31.9430  -14.6270   19.9450 C   0  0  0  0  0  0  0  0  0  0  0  0
  -31.4360  -12.4460   18.8940 C   0  0  0  0  0  2  0  0  0  0  0  0
  -30.4820  -12.5900   17.6940 C   0  0  0  0  0  2  0  0  0  0  0  0
  -29.0130  -12.5710   18.1560 C   0  0  0  0  0  2  0  0  0  0  0  0
  -28.7540  -13.5550   19.3280 C   0  0  0  0  0  3  0  0  0  0  0  0
  -29.8050  -13.3570   20.4420 C   0  0  0  0  0  2  0  0  0  0  0  0
  -31.1440  -13.5290   19.8480 N   0  0  0  0  0  0  0  0  0  0  0  0
  -32.9250  -14.7820   19.2090 O   0  0  0  0  0  0  0  0  0  0  0  0
  -26.4410  -14.4050   20.0840 C   0  0  0  0  0  0  0  0  0  0  0  0
  -25.3150  -13.7460   20.4990 C   0  0  0  0  0  0  0  0  0  0  0  0
  -25.6420  -12.3550   20.4770 C   0  0  0  0  0  0  0  0  0  0  0  0
  -27.3910  -13.4240   19.8420 N   0  0  0  0  0  0  0  0  0  0  0  0
  -26.9110  -12.1860   20.1300 N   0  0  0  0  0  0  0  0  0  0  0  0
  -24.8020  -11.1740   20.7130 C   0  0  0  0  0  0  0  0  0  0  0  0
  -25.1310  -10.2210   21.7030 C   0  0  0  0  0  3  0  0  0  0  0  0
  -24.3010   -9.1000   21.9200 C   0  0  0  0  0  3  0  0  0  0  0  0
  -23.1280   -8.9240   21.1470 C   0  0  0  0  0  0  0  0  0  0  0  0
  -22.8190   -9.8630   20.1470 C   0  0  0  0  0  3  0  0  0  0  0  0
  -23.6480  -10.9760   19.9290 C   0  0  0  0  0  3  0  0  0  0  0  0
  -22.2780   -7.8520   21.2700 O   0  0  0  0  0  0  0  0  0  0  0  0
  -22.0900   -7.2180   22.4700 C   0  0  0  0  0  0  0  0  0  0  0  0
  -21.6340   -7.9080   23.6150 C   0  0  0  0  0  3  0  0  0  0  0  0
  -21.3880   -7.2050   24.8110 C   0  0  0  0  0  3  0  0  0  0  0  0
  -21.5870   -5.8120   24.8640 C   0  0  0  0  0  0  0  0  0  0  0  0
  -22.0340   -5.1210   23.7240 C   0  0  0  0  0  3  0  0  0  0  0  0
  -22.2820   -5.8220   22.5310 C   0  0  0  0  0  0  0  0  0  0  0  0
  -22.6930   -5.1480   21.4300 F   0  0  0  0  0  0  0  0  0  0  0  0
  -21.3420   -5.1350   26.0110 F   0  0  0  0  0  0  0  0  0  0  0  0
  -23.9790  -14.3620   20.8030 C   0  0  0  0  0  0  0  0  0  0  0  0
  -23.2210  -13.7650   21.7190 N   0  0  0  0  0  0  0  0  0  0  0  0
  -23.6170  -15.4060   20.2650 O   0  0  0  0  0  0  0  0  0  0  0  0
  -23.5220  -12.9180   22.1770 H   0  0  0  0  0  0  0  0  0  0  0  0
  -22.3250  -14.1650   21.9630 H   0  0  0  0  0  0  0  0  0  0  0  0
  -26.7320  -15.7510   19.8760 N   0  0  0  0  0  0  0  0  0  0  0  0
  -26.0320  -16.4770   19.9860 H   0  0  0  0  0  0  0  0  0  0  0  0
  -27.5980  -16.0880   19.4770 H   0  0  0  0  0  0  0  0  0  0  0  0
  -28.3220  -23.1070   20.7400 C   0  0  0  0  0  2  0  0  0  0  0  0
  -28.3050  -24.3660   19.8540 C   0  0  0  0  0  2  0  0  0  0  0  0
  -28.3380  -25.6620   20.6860 C   0  0  0  0  0  2  0  0  0  0  0  0
  -28.3770  -26.8210   19.8520 O   0  0  0  0  0  0  0  0  0  0  0  0
  -24.6330  -31.8570   23.1600 C   0  0  0  0  0  0  0  0  0  0  0  0
  -27.2170  -27.5530   19.8800 C   0  0  0  0  0  0  0  0  0  0  0  0
  -23.3960  -30.5210   21.4810 C   0  0  0  0  0  3  0  0  0  0  0  0
  -24.8250  -29.0350   19.9830 C   0  0  0  0  0  0  0  0  0  0  0  0
  -25.9170  -30.8900   21.2580 C   0  0  0  0  0  2  0  0  0  0  0  0
  -25.9900  -29.5460   20.5690 C   0  0  0  0  0  0  0  0  0  0  0  0
  -27.1930  -28.8120   20.5140 C   0  0  0  0  0  3  0  0  0  0  0  0
  -26.0390  -27.0490   19.2920 C   0  0  0  0  0  3  0  0  0  0  0  0
  -24.8420  -27.7830   19.3440 C   0  0  0  0  0  3  0  0  0  0  0  0
  -23.5830  -29.8910   20.0750 C   0  0  0  0  0  2  0  0  0  0  0  0
  -24.6670  -31.1010   22.0250 N   0  0  0  0  0  0  0  0  0  0  0  0
  -23.5620  -32.1120   23.7260 O   0  0  0  0  0  0  0  0  0  0  0  0
  -22.7580  -29.4650   22.4120 C   0  0  0  0  0  0  0  0  0  0  0  0
  -21.4340  -29.2780   22.2820 N   0  0  0  0  0  0  0  0  0  0  0  0
  -23.4490  -28.8230   23.2070 O   0  0  0  0  0  0  0  0  0  0  0  0
  -20.9380  -29.8550   21.6170 H   0  0  0  0  0  0  0  0  0  0  0  0
  -18.0810  -28.0090   22.7040 C   0  0  0  0  0  0  0  0  0  0  0  0
  -20.6280  -28.3110   23.0230 C   0  0  0  0  0  3  0  0  0  0  0  0
  -20.7690  -26.8940   22.4240 C   0  0  0  0  0  2  0  0  0  0  0  0
  -19.6920  -26.5730   21.3830 C   0  0  0  0  0  2  0  0  0  0  0  0
  -18.2960  -26.6770   22.0040 C   0  0  0  0  0  2  0  0  0  0  0  0
  -19.1780  -28.7830   23.1670 C   0  0  0  0  0  0  0  0  0  0  0  0
  -18.9260  -30.0330   23.7760 C   0  0  0  0  0  3  0  0  0  0  0  0
  -17.6100  -30.5070   23.9250 C   0  0  0  0  0  3  0  0  0  0  0  0
  -16.5280  -29.7290   23.4790 C   0  0  0  0  0  3  0  0  0  0  0  0
  -16.7640  -28.4810   22.8740 C   0  0  0  0  0  3  0  0  0  0  0  0
  -25.9330  -32.4560   23.7830 C   0  0  0  0  0  3  0  0  0  0  0  0
  -25.6400  -33.8410   24.1720 N   0  0  0  0  0  0  0  0  0  0  0  0
  -25.9770  -34.9200   23.4520 C   0  0  0  0  0  0  0  0  0  0  0  0
  -26.6430  -34.8530   22.4150 O   0  0  0  0  0  0  0  0  0  0  0  0
  -25.0510  -33.9700   24.9820 H   0  0  0  0  0  0  0  0  0  0  0  0
  -24.2610  -36.7350   23.1680 C   0  0  0  0  0  1  0  0  0  0  0  0
  -25.4980  -36.2900   23.9640 C   0  0  0  0  0  3  0  0  0  0  0  0
  -27.6390  -37.1230   24.8300 C   0  0  0  0  0  1  0  0  0  0  0  0
  -26.5380  -37.3390   23.8930 N   0  0  0  0  0  0  0  0  0  0  0  0
  -26.1400  -38.2550   24.0770 H   0  0  0  0  0  0  0  0  0  0  0  0
  -26.4700  -31.6310   25.0160 C   0  0  1  0  0  0  0  0  0  0  0  0
  -25.3910  -31.3520   26.0890 C   0  0  0  0  0  1  0  0  0  0  0  0
  -27.0470  -30.2730   24.5580 C   0  0  0  0  0  1  0  0  0  0  0  0
  -27.6330  -32.3950   25.6930 C   0  0  0  0  0  1  0  0  0  0  0  0
  1 48  1  0
  2  1  1  0
  3  1  1  0
  5  4  1  0
  6  8  1  0
  6  7  1  0
  7  1  1  0
  7  4  1  0
  8  5  1  0
  9  8  1  0
  9 10  1  0
 10 11  1  0
 12 11  1  0
 13 18  1  0
 14 15  1  0
 14 13  1  0
 16 15  1  0
 16 23  1  0
 16 17  1  0
 18 12  1  0
 18 17  1  0
 19 12  2  0
 20 21  2  0
 21 40  1  0
 22 21  1  0
 22 25  1  0
 23 20  1  0
 23 24  1  0
 24 22  2  0
 25 26  1  0
 26 27  2  0
 28 31  1  0
 28 27  1  0
 29 28  2  0
 30 29  1  0
 30 25  2  0
 31 32  1  0
 32 37  2  0
 32 33  1  0
 33 34  2  0
 34 35  1  0
 35 39  1  0
 36 35  2  0
 37 36  1  0
 38 37  1  0
 40 41  1  0
 41 44  1  0
 41 43  1  0
 42 40  2  0
 45 46  1  0
 45 20  1  0
 47 45  1  0
 49 50  1  0
 49 48  1  0
 51 53  1  0
 51 50  1  0
 52 63  2  0
 53 58  1  0
 54 62  1  0
 54 64  1  0
 55 61  1  0
 55 57  1  0
 56 62  1  0
 57 56  1  0
 58 57  2  0
 59 60  1  0
 59 53  2  0
 60 55  2  0
 61 54  1  0
 62 52  1  0
 64 66  2  0
 65 64  1  0
 67 65  1  0
 68 77  2  0
 68 73  1  0
 69 65  1  0
 69 73  1  0
 70 69  1  0
 71 72  1  0
 71 70  1  0
 72 68  1  0
 73 74  2  0
 74 75  1  0
 76 75  2  0
 77 76  1  0
 78 52  1  0
 78 79  1  0
 78 88  1  0
 79 82  1  0
 80 84  1  0
 80 79  1  0
 81 80  2  0
 84 83  1  0
 86 84  1  0
 86 87  1  0
 86 85  1  0
 88 91  1  1
 88 89  1  0
 90 88  1  0
M  ISO  4  11 100  12 100  50 101  51 101
M  END
>  <TORSDO>  (17) 
F 23

>  <SCORE>  (17) 
-10.282

>  <name>  (17) 
16

>  <ligand_id>  (17) 
16

>  <original_smiles>  (17) 
[H]c1c([H])c([H])c2c(c1[H])C([H])([H])C([H])([H])C([H])([H])C2([H])N([H])C(=O)C1([H])N(C(=O)C([H])(N([H])C(=O)C([H])(N([H])C([H])([H])[H])C([H])([H])[H])C(C([H])([H])[H])(C([H])([H])[H])C([H])([H])[H])C([H])([H])c2c([H])c(OC([H])([H])C([H])([H])C([H])([H])[N+]([H])([H])C3([H])C([H])([H])N(C([H])([H])C([H])([H])C([H])([H])C(=O)N4C([H])([H])C([H])([H])C([H])([H])C([H])(n5nc(-c6c([H])c([H])c(Oc7c([H])c([H])c(F)c([H])c7F)c([H])c6[H])c(C(=O)N([H])[H])c5N([H])[H])C4([H])[H])C([H])([H])C3([H])[H])c([H])c([H])c2C1([H])[H]

>  <smiles>  (17) 
[H]c1c([H])c([H])c2c(c1[H])C([H])([H])C([H])([H])C([H])([H])C2([H])N([H])C(=O)C1([H])N(C(=O)C([H])(N([H])C(=O)C([H])(N([H])C([H])([H])[H])C([H])([H])[H])C(C([H])([H])[H])(C([H])([H])[H])C([H])([H])[H])C([H])([H])c2c([H])c(OC([H])([H])C([H])([H])C([H])([H])[N+]([H])([H])C3([H])C([H])([H])N(C([H])([H])C([H])([H])C([H])([H])C(=O)N4C([H])([H])C([H])([H])C([H])([H])C([H])(n5nc(-c6c([H])c([H])c(Oc7c([H])c([H])c(F)c([H])c7F)c([H])c6[H])c(C(=O)N([H])[H])c5N([H])[H])C4([H])[H])C([H])([H])C3([H])[H])c([H])c([H])c2C1([H])[H]

$$$$
17:0:0
     RDKit          3D

 96105  0  0  1  0  0  0  0  0999 V2000
  -32.6910  -24.8650   20.4050 C   0  0  0  0  0  3  0  0  0  0  0  0
  -31.8870  -26.0190   20.2870 C   0  0  0  0  0  3  0  0  0  0  0  0
  -32.9170  -22.4960   21.0140 C   0  0  0  0  0  3  0  0  0  0  0  0
  -29.9940  -24.7670   21.1690 C   0  0  0  0  0  3  0  0  0  0  0  0
  -30.9500  -21.3770   21.8660 C   0  0  0  0  0  3  0  0  0  0  0  0
  -32.1350  -23.6650   20.9010 C   0  0  0  0  0  0  0  0  0  0  0  0
  -32.3140  -21.3250   21.5210 C   0  0  0  0  0  0  0  0  0  0  0  0
  -30.5300  -25.9660   20.6650 C   0  0  0  0  0  0  0  0  0  0  0  0
  -30.7710  -23.6100   21.2910 C   0  0  0  0  0  0  0  0  0  0  0  0
  -30.1940  -22.4870   21.7640 N   0  0  0  0  0  0  0  0  0  0  0  0
  -33.0700  -20.0380   21.6270 C   0  0  0  0  0  0  0  0  0  0  0  0
  -32.8230  -19.3310   22.7350 N   0  0  0  0  0  0  0  0  0  0  0  0
  -33.8380  -19.6770   20.7350 O   0  0  0  0  0  0  0  0  0  0  0  0
  -32.2680  -19.7760   23.4530 H   0  0  0  0  0  0  0  0  0  0  0  0
  -33.0790  -17.9100   22.9150 C   0  0  0  0  0  2  0  0  0  0  0  0
  -31.8370  -17.1260   22.4560 C   0  0  0  0  0  2  0  0  0  0  0  0
  -31.8980  -15.6220   22.7520 C   0  0  0  0  0  2  0  0  0  0  0  0
  -30.6700  -14.8530   22.2050 C   0  0  0  0  0  2  0  0  0  0  0  0
  -30.8350  -14.2710   20.7880 C   0  0  0  0  0  0  0  0  0  0  0  0
  -30.4190  -12.2950   19.3640 C   0  0  0  0  0  2  0  0  0  0  0  0
  -29.4770  -12.5490   18.1800 C   0  0  0  0  0  2  0  0  0  0  0  0
  -28.0080  -12.3870   18.6100 C   0  0  0  0  0  2  0  0  0  0  0  0
  -27.6750  -13.2000   19.8890 C   0  0  0  0  0  3  0  0  0  0  0  0
  -28.7190  -12.9390   21.0000 C   0  0  0  0  0  2  0  0  0  0  0  0
  -30.0600  -13.2100   20.4530 N   0  0  0  0  0  0  0  0  0  0  0  0
  -31.7480  -14.6840   20.0640 O   0  0  0  0  0  0  0  0  0  0  0  0
  -25.2660  -13.8160   20.5720 C   0  0  0  0  0  0  0  0  0  0  0  0
  -24.1880  -13.0450   20.9180 C   0  0  0  0  0  0  0  0  0  0  0  0
  -24.6420  -11.6910   20.8750 C   0  0  0  0  0  0  0  0  0  0  0  0
  -26.3110  -12.9310   20.3460 N   0  0  0  0  0  0  0  0  0  0  0  0
  -25.9350  -11.6480   20.5800 N   0  0  0  0  0  0  0  0  0  0  0  0
  -23.9060  -10.4310   21.0400 C   0  0  0  0  0  0  0  0  0  0  0  0
  -24.3610   -9.4210   21.9170 C   0  0  0  0  0  3  0  0  0  0  0  0
  -23.6300   -8.2240   22.0740 C   0  0  0  0  0  3  0  0  0  0  0  0
  -22.4280   -8.0290   21.3530 C   0  0  0  0  0  0  0  0  0  0  0  0
  -21.9920   -9.0250   20.4620 C   0  0  0  0  0  3  0  0  0  0  0  0
  -22.7240  -10.2140   20.3030 C   0  0  0  0  0  3  0  0  0  0  0  0
  -21.6650   -6.8880   21.4240 O   0  0  0  0  0  0  0  0  0  0  0  0
  -21.6860   -6.0740   22.5280 C   0  0  0  0  0  0  0  0  0  0  0  0
  -21.4010   -6.5640   23.8220 C   0  0  0  0  0  3  0  0  0  0  0  0
  -21.3670   -5.6780   24.9180 C   0  0  0  0  0  3  0  0  0  0  0  0
  -21.6050   -4.3040   24.7230 C   0  0  0  0  0  0  0  0  0  0  0  0
  -21.8810   -3.8140   23.4340 C   0  0  0  0  0  3  0  0  0  0  0  0
  -21.9200   -4.6960   22.3400 C   0  0  0  0  0  0  0  0  0  0  0  0
  -22.1670   -4.2150   21.0990 F   0  0  0  0  0  0  0  0  0  0  0  0
  -21.5640   -3.4510   25.7730 F   0  0  0  0  0  0  0  0  0  0  0  0
  -22.7890  -13.5250   21.1810 C   0  0  0  0  0  0  0  0  0  0  0  0
  -22.0520  -12.8250   22.0370 N   0  0  0  0  0  0  0  0  0  0  0  0
  -22.3590  -14.5560   20.6660 O   0  0  0  0  0  0  0  0  0  0  0  0
  -22.4140  -11.9930   22.4780 H   0  0  0  0  0  0  0  0  0  0  0  0
  -21.1130  -13.1270   22.2530 H   0  0  0  0  0  0  0  0  0  0  0  0
  -25.4390  -15.1880   20.4150 N   0  0  0  0  0  0  0  0  0  0  0  0
  -24.6780  -15.8500   20.5220 H   0  0  0  0  0  0  0  0  0  0  0  0
  -26.3030  -15.6250   20.1170 H   0  0  0  0  0  0  0  0  0  0  0  0
  -29.6060  -27.1600   20.5400 C   0  0  0  0  0  2  0  0  0  0  0  0
  -28.3740  -26.7130   19.9880 O   0  0  0  0  0  0  0  0  0  0  0  0
  -24.6080  -31.8710   23.2140 C   0  0  0  0  0  0  0  0  0  0  0  0
  -27.2510  -27.4970   20.0770 C   0  0  0  0  0  0  0  0  0  0  0  0
  -23.3940  -30.4940   21.5520 C   0  0  0  0  0  3  0  0  0  0  0  0
  -24.8430  -28.9670   20.1170 C   0  0  0  0  0  0  0  0  0  0  0  0
  -25.9140  -30.8580   21.3550 C   0  0  0  0  0  2  0  0  0  0  0  0
  -25.9970  -29.4950   20.7070 C   0  0  0  0  0  0  0  0  0  0  0  0
  -27.2050  -28.7720   20.6880 C   0  0  0  0  0  3  0  0  0  0  0  0
  -26.0770  -26.9690   19.5040 C   0  0  0  0  0  3  0  0  0  0  0  0
  -24.8730  -27.6980   19.5150 C   0  0  0  0  0  3  0  0  0  0  0  0
  -23.5990  -29.8240   20.1660 C   0  0  0  0  0  2  0  0  0  0  0  0
  -24.6570  -31.0880   22.0990 N   0  0  0  0  0  0  0  0  0  0  0  0
  -23.5290  -32.1420   23.7560 O   0  0  0  0  0  0  0  0  0  0  0  0
  -22.7370  -29.4660   22.5010 C   0  0  0  0  0  0  0  0  0  0  0  0
  -21.4110  -29.3020   22.3750 N   0  0  0  0  0  0  0  0  0  0  0  0
  -23.4170  -28.8200   23.3030 O   0  0  0  0  0  0  0  0  0  0  0  0
  -20.9240  -29.8780   21.7030 H   0  0  0  0  0  0  0  0  0  0  0  0
  -18.0260  -28.1360   22.8500 C   0  0  0  0  0  0  0  0  0  0  0  0
  -20.5840  -28.3640   23.1330 C   0  0  0  0  0  3  0  0  0  0  0  0
  -20.6740  -26.9390   22.5420 C   0  0  0  0  0  2  0  0  0  0  0  0
  -19.5730  -26.6380   21.5210 C   0  0  0  0  0  2  0  0  0  0  0  0
  -18.1910  -26.7910   22.1620 C   0  0  0  0  0  2  0  0  0  0  0  0
  -19.1510  -28.8820   23.2910 C   0  0  0  0  0  0  0  0  0  0  0  0
  -18.9450  -30.1430   23.8910 C   0  0  0  0  0  3  0  0  0  0  0  0
  -17.6450  -30.6570   24.0570 C   0  0  0  0  0  3  0  0  0  0  0  0
  -16.5340  -29.9080   23.6310 C   0  0  0  0  0  3  0  0  0  0  0  0
  -16.7260  -28.6490   23.0350 C   0  0  0  0  0  3  0  0  0  0  0  0
  -25.9000  -32.4830   23.8420 C   0  0  0  0  0  3  0  0  0  0  0  0
  -25.5870  -33.8630   24.2360 N   0  0  0  0  0  0  0  0  0  0  0  0
  -25.9020  -34.9480   23.5150 C   0  0  0  0  0  0  0  0  0  0  0  0
  -26.5580  -34.8930   22.4710 O   0  0  0  0  0  0  0  0  0  0  0  0
  -25.0030  -33.9800   25.0510 H   0  0  0  0  0  0  0  0  0  0  0  0
  -24.1480  -36.7330   23.2640 C   0  0  0  0  0  1  0  0  0  0  0  0
  -25.4100  -36.3120   24.0340 C   0  0  0  0  0  3  0  0  0  0  0  0
  -27.5580  -37.1820   24.8460 C   0  0  0  0  0  1  0  0  0  0  0  0
  -26.4290  -37.3800   23.9410 N   0  0  0  0  0  0  0  0  0  0  0  0
  -26.0170  -38.2880   24.1420 H   0  0  0  0  0  0  0  0  0  0  0  0
  -26.4460  -31.6590   25.0720 C   0  0  1  0  0  0  0  0  0  0  0  0
  -25.3750  -31.3670   26.1490 C   0  0  0  0  0  1  0  0  0  0  0  0
  -27.0300  -30.3050   24.6030 C   0  0  0  0  0  1  0  0  0  0  0  0
  -27.6020  -32.4310   25.7500 C   0  0  0  0  0  1  0  0  0  0  0  0
  1  6  1  0
  2  1  2  0
  2  8  1  0
  3  7  1  0
  4  9  1  0
  6  3  2  0
  6  9  1  0
  7 11  1  0
  7  5  2  0
  8  4  2  0
  9 10  2  0
 10  5  1  0
 11 12  1  0
 12 15  1  0
 12 14  1  0
 13 11  2  0
 16 17  1  0
 16 15  1  0
 18 17  1  0
 19 18  1  0
 20 25  1  0
 21 22  1  0
 21 20  1  0
 23 22  1  0
 23 30  1  0
 23 24  1  0
 25 19  1  0
 25 24  1  0
 26 19  2  0
 27 28  2  0
 28 47  1  0
 29 28  1  0
 29 32  1  0
 30 27  1  0
 30 31  1  0
 31 29  2  0
 32 33  1  0
 33 34  2  0
 35 38  1  0
 35 34  1  0
 36 35  2  0
 37 36  1  0
 37 32  2  0
 38 39  1  0
 39 40  1  0
 40 41  2  0
 42 41  1  0
 42 46  1  0
 43 42  2  0
 44 39  2  0
 44 43  1  0
 45 44  1  0
 47 48  1  0
 48 51  1  0
 48 50  1  0
 49 47  2  0
 52 53  1  0
 52 27  1  0
 54 52  1  0
 55  8  1  0
 56 58  1  0
 56 55  1  0
 57 68  2  0
 58 63  1  0
 59 67  1  0
 59 69  1  0
 60 66  1  0
 60 62  1  0
 61 67  1  0
 62 61  1  0
 63 62  2  0
 64 65  1  0
 64 58  2  0
 65 60  2  0
 66 59  1  0
 67 57  1  0
 69 71  2  0
 70 69  1  0
 72 70  1  0
 73 82  2  0
 73 78  1  0
 74 70  1  0
 74 78  1  0
 75 74  1  0
 76 77  1  0
 76 75  1  0
 77 73  1  0
 78 79  2  0
 79 80  1  0
 81 80  2  0
 82 81  1  0
 83 57  1  0
 83 84  1  0
 83 93  1  0
 84 87  1  0
 85 89  1  0
 85 84  1  0
 86 85  2  0
 89 88  1  0
 91 89  1  0
 91 92  1  0
 91 90  1  0
 93 96  1  1
 93 94  1  0
 95 93  1  0
M  ISO  4  18 100  19 100  55 101  56 101
M  END
>  <TORSDO>  (18) 
F 22

>  <SCORE>  (18) 
-4.580

>  <name>  (18) 
17

>  <ligand_id>  (18) 
17

>  <original_smiles>  (18) 
[H]c1nc2c([H])c(C([H])([H])Oc3c([H])c([H])c4c(c3[H])C([H])([H])N(C(=O)C([H])(N([H])C(=O)C([H])(N([H])C([H])([H])[H])C([H])([H])[H])C(C([H])([H])[H])(C([H])([H])[H])C([H])([H])[H])C([H])(C(=O)N([H])C3([H])c5c([H])c([H])c([H])c([H])c5C([H])([H])C([H])([H])C3([H])[H])C4([H])[H])c([H])c([H])c2c([H])c1C(=O)N([H])C([H])([H])C([H])([H])C([H])([H])C([H])([H])C(=O)N1C([H])([H])C([H])([H])C([H])([H])C([H])(n2nc(-c3c([H])c([H])c(Oc4c([H])c([H])c(F)c([H])c4F)c([H])c3[H])c(C(=O)N([H])[H])c2N([H])[H])C1([H])[H]

>  <smiles>  (18) 
[H]c1nc2c([H])c(C([H])([H])Oc3c([H])c([H])c4c(c3[H])C([H])([H])N(C(=O)C([H])(N([H])C(=O)C([H])(N([H])C([H])([H])[H])C([H])([H])[H])C(C([H])([H])[H])(C([H])([H])[H])C([H])([H])[H])C([H])(C(=O)N([H])C3([H])c5c([H])c([H])c([H])c([H])c5C([H])([H])C([H])([H])C3([H])[H])C4([H])[H])c([H])c([H])c2c([H])c1C(=O)N([H])C([H])([H])C([H])([H])C([H])([H])C([H])([H])C(=O)N1C([H])([H])C([H])([H])C([H])([H])C([H])(n2nc(-c3c([H])c([H])c(Oc4c([H])c([H])c(F)c([H])c4F)c([H])c3[H])c(C(=O)N([H])[H])c2N([H])[H])C1([H])[H]

$$$$
18:0:0
     RDKit          3D

 91100  0  0  1  0  0  0  0  0999 V2000
  -29.2930  -20.7410   20.6660 C   0  0  0  0  0  0  0  0  0  0  0  0
  -30.2410  -19.7750   21.3740 C   0  0  0  0  0  2  0  0  0  0  0  0
  -28.5370  -19.9240   19.6410 C   0  0  0  0  0  2  0  0  0  0  0  0
  -29.4550  -16.2380   18.9730 C   0  0  0  0  0  2  0  0  0  0  0  0
  -28.6100  -17.5050   18.8870 C   0  0  0  0  0  2  0  0  0  0  0  0
  -30.1990  -17.1140   21.2700 C   0  0  0  0  0  2  0  0  0  0  0  0
  -29.7160  -15.8610   20.4460 C   0  0  0  0  0  3  0  0  0  0  0  0
  -30.3670  -18.4850   20.5050 C   0  0  0  0  0  3  0  0  0  0  0  0
  -29.4480  -18.7360   19.2690 C   0  0  2  0  0  0  0  0  0  0  0  0
  -30.3210  -19.1530   18.0590 C   0  0  0  0  0  1  0  0  0  0  0  0
  -29.1870  -22.0010   20.9210 N   0  0  0  0  0  0  0  0  0  0  0  0
  -30.6020  -14.5700   20.4490 C   0  0  0  0  0  0  0  0  0  0  0  0
  -30.3960  -12.3570   19.3950 C   0  0  0  0  0  2  0  0  0  0  0  0
  -29.4670  -12.5190   18.1690 C   0  0  0  0  0  2  0  0  0  0  0  0
  -27.9790  -12.3970   18.5670 C   0  0  0  0  0  2  0  0  0  0  0  0
  -27.6090  -13.2370   19.8180 C   0  0  0  0  0  3  0  0  0  0  0  0
  -28.6570  -13.0420   20.9400 C   0  0  0  0  0  2  0  0  0  0  0  0
  -29.9890  -13.3520   20.4010 N   0  0  0  0  0  0  0  0  0  0  0  0
  -31.8010  -14.7050   20.1880 O   0  0  0  0  0  0  0  0  0  0  0  0
  -25.2020  -13.8580   20.4810 C   0  0  0  0  0  0  0  0  0  0  0  0
  -24.1280  -13.0880   20.8370 C   0  0  0  0  0  0  0  0  0  0  0  0
  -24.5940  -11.7390   20.8340 C   0  0  0  0  0  0  0  0  0  0  0  0
  -26.2520  -12.9730   20.2800 N   0  0  0  0  0  0  0  0  0  0  0  0
  -25.8880  -11.6960   20.5530 N   0  0  0  0  0  0  0  0  0  0  0  0
  -23.8690  -10.4770   21.0240 C   0  0  0  0  0  0  0  0  0  0  0  0
  -24.2920   -9.5210   21.9740 C   0  0  0  0  0  3  0  0  0  0  0  0
  -23.5690   -8.3220   22.1520 C   0  0  0  0  0  3  0  0  0  0  0  0
  -22.4120   -8.0710   21.3790 C   0  0  0  0  0  0  0  0  0  0  0  0
  -22.0080   -9.0160   20.4190 C   0  0  0  0  0  3  0  0  0  0  0  0
  -22.7310  -10.2060   20.2390 C   0  0  0  0  0  3  0  0  0  0  0  0
  -21.6620   -6.9230   21.4650 O   0  0  0  0  0  0  0  0  0  0  0  0
  -21.5980   -6.1910   22.6240 C   0  0  0  0  0  0  0  0  0  0  0  0
  -21.1480   -6.7550   23.8390 C   0  0  0  0  0  3  0  0  0  0  0  0
  -21.0330   -5.9490   24.9880 C   0  0  0  0  0  3  0  0  0  0  0  0
  -21.3570   -4.5800   24.9240 C   0  0  0  0  0  0  0  0  0  0  0  0
  -21.8000   -4.0170   23.7160 C   0  0  0  0  0  3  0  0  0  0  0  0
  -21.9180   -4.8200   22.5680 C   0  0  0  0  0  0  0  0  0  0  0  0
  -22.3260   -4.2670   21.4000 F   0  0  0  0  0  0  0  0  0  0  0  0
  -21.2390   -3.8040   26.0270 F   0  0  0  0  0  0  0  0  0  0  0  0
  -22.7240  -13.5660   21.0750 C   0  0  0  0  0  0  0  0  0  0  0  0
  -21.9800  -12.8760   21.9320 N   0  0  0  0  0  0  0  0  0  0  0  0
  -22.2940  -14.5850   20.5380 O   0  0  0  0  0  0  0  0  0  0  0  0
  -22.3410  -12.0500   22.3870 H   0  0  0  0  0  0  0  0  0  0  0  0
  -21.0390  -13.1780   22.1380 H   0  0  0  0  0  0  0  0  0  0  0  0
  -25.3700  -15.2280   20.2930 N   0  0  0  0  0  0  0  0  0  0  0  0
  -24.6000  -15.8840   20.3850 H   0  0  0  0  0  0  0  0  0  0  0  0
  -26.2310  -15.6670   19.9970 H   0  0  0  0  0  0  0  0  0  0  0  0
  -28.1590  -22.8330   20.2730 C   0  0  0  0  0  2  0  0  0  0  0  0
  -28.6530  -24.2470   19.8490 C   0  0  0  0  0  2  0  0  0  0  0  0
  -28.2780  -25.3980   20.8170 C   0  0  0  0  0  2  0  0  0  0  0  0
  -28.3960  -26.7090   20.2200 O   0  0  0  0  0  0  0  0  0  0  0  0
  -24.5780  -31.9020   23.2520 C   0  0  0  0  0  0  0  0  0  0  0  0
  -27.2350  -27.4560   20.1930 C   0  0  0  0  0  0  0  0  0  0  0  0
  -23.3760  -30.4940   21.6120 C   0  0  0  0  0  3  0  0  0  0  0  0
  -24.8380  -28.9560   20.1890 C   0  0  0  0  0  0  0  0  0  0  0  0
  -25.9020  -30.8610   21.4140 C   0  0  0  0  0  2  0  0  0  0  0  0
  -25.9950  -29.4910   20.7710 C   0  0  0  0  0  0  0  0  0  0  0  0
  -27.2000  -28.7500   20.7630 C   0  0  0  0  0  3  0  0  0  0  0  0
  -26.0640  -26.9380   19.6000 C   0  0  0  0  0  3  0  0  0  0  0  0
  -24.8680  -27.6820   19.5950 C   0  0  0  0  0  3  0  0  0  0  0  0
  -23.5880  -29.8080   20.2340 C   0  0  0  0  0  2  0  0  0  0  0  0
  -24.6370  -31.1000   22.1510 N   0  0  0  0  0  0  0  0  0  0  0  0
  -23.4950  -32.1740   23.7910 O   0  0  0  0  0  0  0  0  0  0  0  0
  -22.7250  -29.4750   22.5750 C   0  0  0  0  0  0  0  0  0  0  0  0
  -21.4010  -29.2900   22.4440 N   0  0  0  0  0  0  0  0  0  0  0  0
  -23.4080  -28.8530   23.3920 O   0  0  0  0  0  0  0  0  0  0  0  0
  -20.9130  -29.8400   21.7490 H   0  0  0  0  0  0  0  0  0  0  0  0
  -18.0280  -28.0980   22.9460 C   0  0  0  0  0  0  0  0  0  0  0  0
  -20.5860  -28.3540   23.2160 C   0  0  0  0  0  3  0  0  0  0  0  0
  -20.6870  -26.9230   22.6400 C   0  0  0  0  0  2  0  0  0  0  0  0
  -19.5850  -26.6110   21.6210 C   0  0  0  0  0  2  0  0  0  0  0  0
  -18.2070  -26.7460   22.2760 C   0  0  0  0  0  2  0  0  0  0  0  0
  -19.1470  -28.8600   23.3750 C   0  0  0  0  0  0  0  0  0  0  0  0
  -18.9300  -30.1250   23.9640 C   0  0  0  0  0  3  0  0  0  0  0  0
  -17.6250  -30.6260   24.1280 C   0  0  0  0  0  3  0  0  0  0  0  0
  -16.5220  -29.8610   23.7170 C   0  0  0  0  0  3  0  0  0  0  0  0
  -16.7240  -28.5980   23.1320 C   0  0  0  0  0  3  0  0  0  0  0  0
  -25.8620  -32.5360   23.8740 C   0  0  0  0  0  3  0  0  0  0  0  0
  -26.3770  -31.7700   25.1550 C   0  0  1  0  0  0  0  0  0  0  0  0
  -25.2830  -31.5360   26.2210 C   0  0  0  0  0  1  0  0  0  0  0  0
  -26.9610  -30.3910   24.7680 C   0  0  0  0  0  1  0  0  0  0  0  0
  -27.5290  -32.5650   25.8140 C   0  0  0  0  0  1  0  0  0  0  0  0
  -25.5540  -33.9350   24.1970 N   0  0  0  0  0  0  0  0  0  0  0  0
  -25.8930  -34.9830   23.4330 C   0  0  0  0  0  0  0  0  0  0  0  0
  -26.5690  -34.8730   22.4060 O   0  0  0  0  0  0  0  0  0  0  0  0
  -24.9550  -34.0930   24.9930 H   0  0  0  0  0  0  0  0  0  0  0  0
  -24.1730  -36.7760   23.0520 C   0  0  0  0  0  1  0  0  0  0  0  0
  -25.4040  -36.3730   23.8800 C   0  0  0  0  0  3  0  0  0  0  0  0
  -27.5300  -37.2550   24.7310 C   0  0  0  0  0  1  0  0  0  0  0  0
  -26.4410  -37.4230   23.7740 N   0  0  0  0  0  0  0  0  0  0  0  0
  -26.0350  -38.3450   23.9140 H   0  0  0  0  0  0  0  0  0  0  0  0
  1 11  2  0
  1  2  1  0
  3  1  1  0
  4  7  1  0
  5  4  1  0
  5  9  1  0
  7 12  1  0
  7  6  1  0
  8  6  1  0
  8  2  1  0
  9 10  1  6
  9  3  1  0
  9  8  1  0
 13 18  1  0
 14 15  1  0
 14 13  1  0
 16 15  1  0
 16 23  1  0
 16 17  1  0
 18 12  1  0
 18 17  1  0
 19 12  2  0
 20 21  2  0
 21 40  1  0
 22 21  1  0
 22 25  1  0
 23 20  1  0
 23 24  1  0
 24 22  2  0
 25 26  1  0
 26 27  2  0
 28 31  1  0
 28 27  1  0
 29 28  2  0
 30 29  1  0
 30 25  2  0
 31 32  1  0
 32 33  1  0
 33 34  2  0
 35 34  1  0
 35 39  1  0
 36 35  2  0
 37 32  2  0
 37 36  1  0
 38 37  1  0
 40 41  1  0
 41 44  1  0
 41 43  1  0
 42 40  2  0
 45 46  1  0
 45 20  1  0
 47 45  1  0
 48 11  1  0
 49 48  1  0
 49 50  1  0
 51 50  1  0
 52 63  2  0
 53 51  1  0
 53 58  1  0
 54 62  1  0
 54 64  1  0
 55 61  1  0
 55 57  1  0
 56 62  1  0
 57 56  1  0
 58 57  2  0
 59 53  2  0
 60 59  1  0
 60 55  2  0
 61 54  1  0
 62 52  1  0
 64 66  2  0
 65 64  1  0
 67 65  1  0
 68 77  2  0
 68 73  1  0
 69 65  1  0
 69 73  1  0
 70 69  1  0
 71 72  1  0
 71 70  1  0
 72 68  1  0
 73 74  2  0
 74 75  1  0
 76 75  2  0
 77 76  1  0
 78 52  1  0
 78 83  1  0
 78 79  1  0
 79 82  1  1
 79 80  1  0
 81 79  1  0
 83 86  1  0
 84 88  1  0
 84 83  1  0
 85 84  2  0
 88 87  1  0
 90 88  1  0
 90 91  1  0
 90 89  1  0
M  ISO  4   7 100  12 100  50 101  51 101
M  END
>  <TORSDO>  (19) 
F 19

>  <SCORE>  (19) 
-14.403

>  <name>  (19) 
18

>  <ligand_id>  (19) 
18

>  <original_smiles>  (19) 
[H]c1c([H])c([H])c2c(c1[H])C([H])([H])C([H])([H])C([H])([H])C2([H])N([H])C(=O)C1([H])N(C(=O)C([H])(N([H])C(=O)C([H])(N([H])C([H])([H])[H])C([H])([H])[H])C(C([H])([H])[H])(C([H])([H])[H])C([H])([H])[H])C([H])([H])c2c([H])c(OC([H])([H])C([H])([H])C([H])([H])N=C3C([H])([H])C4([H])C([H])([H])C([H])(C(=O)N5C([H])([H])C([H])([H])C([H])([H])C([H])(n6nc(-c7c([H])c([H])c(Oc8c([H])c([H])c(F)c([H])c8F)c([H])c7[H])c(C(=O)N([H])[H])c6N([H])[H])C5([H])[H])C([H])([H])C([H])([H])C4(C([H])([H])[H])C3([H])[H])c([H])c([H])c2C1([H])[H]

>  <smiles>  (19) 
[H]c1c([H])c([H])c2c(c1[H])C([H])([H])C([H])([H])C([H])([H])C2([H])N([H])C(=O)C1([H])N(C(=O)C([H])(N([H])C(=O)C([H])(N([H])C([H])([H])[H])C([H])([H])[H])C(C([H])([H])[H])(C([H])([H])[H])C([H])([H])[H])C([H])([H])c2c([H])c(OC([H])([H])C([H])([H])C([H])([H])N=C3C([H])([H])C4([H])C([H])([H])C([H])(C(=O)N5C([H])([H])C([H])([H])C([H])([H])C([H])(n6nc(-c7c([H])c([H])c(Oc8c([H])c([H])c(F)c([H])c8F)c([H])c7[H])c(C(=O)N([H])[H])c6N([H])[H])C5([H])[H])C([H])([H])C([H])([H])C4(C([H])([H])[H])C3([H])[H])c([H])c([H])c2C1([H])[H]

$$$$
19:0:0
     RDKit          3D

 92100  0  0  1  0  0  0  0  0999 V2000
  -29.3890  -22.3140   20.2340 C   0  0  0  0  0  3  0  0  0  0  0  0
  -31.6260  -22.8850   18.2000 C   0  0  0  0  0  2  0  0  0  0  0  0
  -30.9430  -21.5430   18.4160 C   0  0  0  0  0  2  0  0  0  0  0  0
  -30.2230  -23.4860   18.1230 C   0  0  0  0  0  3  0  0  0  0  0  0
  -29.7120  -22.2590   18.7760 N   0  0  2  0  0  4  0  0  0  0  0  0
  -28.9210  -21.8870   18.2710 H   0  0  0  0  0  0  0  0  0  0  0  0
  -28.1680  -24.3860   16.9090 C   0  0  0  0  0  1  0  0  0  0  0  0
  -30.4280  -24.6310   15.8510 C   0  0  0  0  0  1  0  0  0  0  0  0
  -29.5570  -23.7450   16.7570 C   0  0  0  0  0  3  0  0  0  0  0  0
  -29.3990  -20.7550   20.8770 C   0  0  0  0  0  2  0  0  0  0  0  0
  -29.3090  -19.2730   20.1070 C   0  0  0  0  0  2  0  0  0  0  0  0
  -30.1400  -17.8940   20.5600 C   0  0  0  0  0  2  0  0  0  0  0  0
  -29.6120  -16.3330   20.3030 C   0  0  0  0  0  2  0  0  0  0  0  0
  -30.5270  -14.9760   20.0970 C   0  0  0  0  0  0  0  0  0  0  0  0
  -30.3990  -12.6660   19.0880 C   0  0  0  0  0  2  0  0  0  0  0  0
  -29.4050  -12.7120   17.9020 C   0  0  0  0  0  2  0  0  0  0  0  0
  -27.9560  -12.4990   18.3840 C   0  0  0  0  0  2  0  0  0  0  0  0
  -27.6160  -13.3610   19.6280 C   0  0  0  0  0  3  0  0  0  0  0  0
  -28.7220  -13.2830   20.7010 C   0  0  0  0  0  2  0  0  0  0  0  0
  -29.9810  -13.7000   20.0720 N   0  0  0  0  0  0  0  0  0  0  0  0
  -31.7060  -15.0970   19.7480 O   0  0  0  0  0  0  0  0  0  0  0  0
  -25.2690  -13.9210   20.4900 C   0  0  0  0  0  0  0  0  0  0  0  0
  -24.2220  -13.1370   20.8870 C   0  0  0  0  0  0  0  0  0  0  0  0
  -24.6830  -11.7870   20.7950 C   0  0  0  0  0  0  0  0  0  0  0  0
  -26.2990  -13.0510   20.1740 N   0  0  0  0  0  0  0  0  0  0  0  0
  -25.9570  -11.7600   20.4210 N   0  0  0  0  0  0  0  0  0  0  0  0
  -23.9640  -10.5200   20.9850 C   0  0  0  0  0  0  0  0  0  0  0  0
  -24.4050   -9.5550   21.9180 C   0  0  0  0  0  3  0  0  0  0  0  0
  -23.6870   -8.3520   22.0980 C   0  0  0  0  0  3  0  0  0  0  0  0
  -22.5140   -8.1070   21.3450 C   0  0  0  0  0  0  0  0  0  0  0  0
  -22.0940   -9.0600   20.4000 C   0  0  0  0  0  3  0  0  0  0  0  0
  -22.8110  -10.2540   20.2200 C   0  0  0  0  0  3  0  0  0  0  0  0
  -21.7690   -6.9550   21.4310 O   0  0  0  0  0  0  0  0  0  0  0  0
  -21.6970   -6.2320   22.5940 C   0  0  0  0  0  0  0  0  0  0  0  0
  -21.2010   -6.7930   23.7910 C   0  0  0  0  0  3  0  0  0  0  0  0
  -21.0780   -5.9950   24.9450 C   0  0  0  0  0  3  0  0  0  0  0  0
  -21.4400   -4.6350   24.9040 C   0  0  0  0  0  0  0  0  0  0  0  0
  -21.9260   -4.0730   23.7100 C   0  0  0  0  0  3  0  0  0  0  0  0
  -22.0510   -4.8680   22.5590 C   0  0  0  0  0  0  0  0  0  0  0  0
  -22.5030   -4.3160   21.4060 F   0  0  0  0  0  0  0  0  0  0  0  0
  -21.3140   -3.8650   26.0090 F   0  0  0  0  0  0  0  0  0  0  0  0
  -22.8400  -13.6040   21.2420 C   0  0  0  0  0  0  0  0  0  0  0  0
  -22.1550  -12.8770   22.1170 N   0  0  0  0  0  0  0  0  0  0  0  0
  -22.3800  -14.6470   20.7770 O   0  0  0  0  0  0  0  0  0  0  0  0
  -22.5460  -12.0330   22.5110 H   0  0  0  0  0  0  0  0  0  0  0  0
  -21.2270  -13.1650   22.3950 H   0  0  0  0  0  0  0  0  0  0  0  0
  -25.4280  -15.2970   20.3470 N   0  0  0  0  0  0  0  0  0  0  0  0
  -24.6720  -15.9490   20.5200 H   0  0  0  0  0  0  0  0  0  0  0  0
  -26.2680  -15.7440   20.0040 H   0  0  0  0  0  0  0  0  0  0  0  0
  -28.2360  -23.4780   20.5450 C   0  0  0  0  0  2  0  0  0  0  0  0
  -28.4640  -25.0600   21.0320 C   0  0  0  0  0  2  0  0  0  0  0  0
  -28.4130  -26.3990   20.2960 O   0  0  0  0  0  0  0  0  0  0  0  0
  -24.5980  -31.9620   23.2410 C   0  0  0  0  0  0  0  0  0  0  0  0
  -27.2980  -27.2880   20.3320 C   0  0  0  0  0  0  0  0  0  0  0  0
  -23.4400  -30.5270   21.6030 C   0  0  0  0  0  3  0  0  0  0  0  0
  -24.9330  -28.9460   20.2370 C   0  0  0  0  0  0  0  0  0  0  0  0
  -25.9870  -30.8390   21.4680 C   0  0  0  0  0  2  0  0  0  0  0  0
  -26.0920  -29.4380   20.8520 C   0  0  0  0  0  0  0  0  0  0  0  0
  -27.2790  -28.6240   20.8800 C   0  0  0  0  0  3  0  0  0  0  0  0
  -26.1140  -26.8720   19.6900 C   0  0  0  0  0  3  0  0  0  0  0  0
  -24.9540  -27.6740   19.6400 C   0  0  0  0  0  3  0  0  0  0  0  0
  -23.6910  -29.8230   20.2420 C   0  0  0  0  0  2  0  0  0  0  0  0
  -24.6930  -31.1320   22.1590 N   0  0  0  0  0  0  0  0  0  0  0  0
  -23.5000  -32.2390   23.7490 O   0  0  0  0  0  0  0  0  0  0  0  0
  -22.7610  -29.5260   22.5700 C   0  0  0  0  0  0  0  0  0  0  0  0
  -21.4370  -29.3450   22.4270 N   0  0  0  0  0  0  0  0  0  0  0  0
  -23.4280  -28.9160   23.4090 O   0  0  0  0  0  0  0  0  0  0  0  0
  -20.9580  -29.8880   21.7220 H   0  0  0  0  0  0  0  0  0  0  0  0
  -18.0520  -28.1560   22.9150 C   0  0  0  0  0  0  0  0  0  0  0  0
  -20.6100  -28.4130   23.1970 C   0  0  0  0  0  3  0  0  0  0  0  0
  -20.7130  -26.9790   22.6280 C   0  0  0  0  0  2  0  0  0  0  0  0
  -19.6160  -26.6550   21.6090 C   0  0  0  0  0  2  0  0  0  0  0  0
  -18.2310  -26.8030   22.2450 C   0  0  0  0  0  2  0  0  0  0  0  0
  -19.1700  -28.9180   23.3490 C   0  0  0  0  0  0  0  0  0  0  0  0
  -18.9480  -30.1820   23.9380 C   0  0  0  0  0  3  0  0  0  0  0  0
  -17.6420  -30.6830   24.0970 C   0  0  0  0  0  3  0  0  0  0  0  0
  -16.5400  -29.9180   23.6780 C   0  0  0  0  0  3  0  0  0  0  0  0
  -16.7460  -28.6560   23.0930 C   0  0  0  0  0  3  0  0  0  0  0  0
  -25.8590  -32.6180   23.8810 C   0  0  0  0  0  3  0  0  0  0  0  0
  -25.5270  -34.0160   24.1910 N   0  0  0  0  0  0  0  0  0  0  0  0
  -25.8680  -35.0680   23.4340 C   0  0  0  0  0  0  0  0  0  0  0  0
  -26.5630  -34.9620   22.4190 O   0  0  0  0  0  0  0  0  0  0  0  0
  -24.8990  -34.1700   24.9680 H   0  0  0  0  0  0  0  0  0  0  0  0
  -24.1400  -36.8520   23.0220 C   0  0  0  0  0  1  0  0  0  0  0  0
  -25.3610  -36.4580   23.8680 C   0  0  0  0  0  3  0  0  0  0  0  0
  -27.4650  -37.3660   24.7530 C   0  0  0  0  0  1  0  0  0  0  0  0
  -26.3910  -37.5160   23.7750 N   0  0  0  0  0  0  0  0  0  0  0  0
  -25.9740  -38.4350   23.9020 H   0  0  0  0  0  0  0  0  0  0  0  0
  -26.3580  -31.8650   25.1780 C   0  0  1  0  0  0  0  0  0  0  0  0
  -25.2440  -31.6230   26.2240 C   0  0  0  0  0  1  0  0  0  0  0  0
  -26.9610  -30.4880   24.8160 C   0  0  0  0  0  1  0  0  0  0  0  0
  -27.4860  -32.6780   25.8540 C   0  0  0  0  0  1  0  0  0  0  0  0
  1 50  1  0
  1 10  1  0
  2  3  1  0
  3  5  1  0
  4  9  1  0
  4  2  1  0
  4  5  1  0
  5  1  1  0
  5  6  1  6
  8  9  1  0
  9  7  1  0
 11 12  1  0
 11 10  1  0
 13 12  1  0
 14 13  1  0
 15 20  1  0
 16 17  1  0
 16 15  1  0
 18 17  1  0
 18 25  1  0
 18 19  1  0
 20 14  1  0
 20 19  1  0
 21 14  2  0
 22 23  2  0
 23 42  1  0
 24 23  1  0
 24 27  1  0
 25 26  1  0
 25 22  1  0
 26 24  2  0
 27 28  1  0
 28 29  2  0
 30 33  1  0
 30 29  1  0
 31 30  2  0
 32 31  1  0
 32 27  2  0
 33 34  1  0
 34 35  1  0
 35 36  2  0
 37 36  1  0
 37 41  1  0
 38 37  2  0
 39 34  2  0
 39 38  1  0
 40 39  1  0
 42 43  1  0
 43 46  1  0
 43 45  1  0
 44 42  2  0
 47 22  1  0
 47 48  1  0
 49 47  1  0
 50 51  1  0
 52 54  1  0
 52 51  1  0
 53 64  2  0
 54 59  1  0
 55 63  1  0
 55 65  1  0
 56 62  1  0
 56 58  1  0
 57 63  1  0
 58 59  2  0
 58 57  1  0
 60 54  2  0
 61 60  1  0
 61 56  2  0
 62 55  1  0
 63 53  1  0
 65 67  2  0
 66 65  1  0
 68 66  1  0
 69 78  2  0
 69 74  1  0
 70 66  1  0
 70 74  1  0
 71 70  1  0
 72 73  1  0
 72 71  1  0
 73 69  1  0
 74 75  2  0
 75 76  1  0
 77 76  2  0
 78 77  1  0
 79 53  1  0
 79 80  1  0
 79 89  1  0
 80 83  1  0
 81 85  1  0
 81 80  1  0
 82 81  2  0
 85 84  1  0
 87 85  1  0
 87 88  1  0
 87 86  1  0
 89 92  1  1
 89 90  1  0
 91 89  1  0
M  ISO  4  13 100  14 100  51 101  52 101
M  END
>  <TORSDO>  (20) 
F 24

>  <SCORE>  (20) 
-12.373

>  <name>  (20) 
19

>  <ligand_id>  (20) 
19

>  <original_smiles>  (20) 
[H]c1c([H])c([H])c2c(c1[H])C([H])([H])C([H])([H])C([H])([H])C2([H])N([H])C(=O)C1([H])N(C(=O)C([H])(N([H])C(=O)C([H])(N([H])C([H])([H])[H])C([H])([H])[H])C(C([H])([H])[H])(C([H])([H])[H])C([H])([H])[H])C([H])([H])c2c([H])c(OC([H])([H])C([H])([H])C([H])(C([H])([H])C([H])([H])C([H])([H])C([H])([H])C(=O)N3C([H])([H])C([H])([H])C([H])([H])C([H])(n4nc(-c5c([H])c([H])c(Oc6c([H])c([H])c(F)c([H])c6F)c([H])c5[H])c(C(=O)N([H])[H])c4N([H])[H])C3([H])[H])[N+]3([H])C([H])([H])C([H])([H])C3([H])C([H])(C([H])([H])[H])C([H])([H])[H])c([H])c([H])c2C1([H])[H]

>  <smiles>  (20) 
[H]c1c([H])c([H])c2c(c1[H])C([H])([H])C([H])([H])C([H])([H])C2([H])N([H])C(=O)C1([H])N(C(=O)C([H])(N([H])C(=O)C([H])(N([H])C([H])([H])[H])C([H])([H])[H])C(C([H])([H])[H])(C([H])([H])[H])C([H])([H])[H])C([H])([H])c2c([H])c(OC([H])([H])C([H])([H])C([H])(C([H])([H])C([H])([H])C([H])([H])C([H])([H])C(=O)N3C([H])([H])C([H])([H])C([H])([H])C([H])(n4nc(-c5c([H])c([H])c(Oc6c([H])c([H])c(F)c([H])c6F)c([H])c5[H])c(C(=O)N([H])[H])c4N([H])[H])C3([H])[H])[N+]3([H])C([H])([H])C([H])([H])C3([H])C([H])(C([H])([H])[H])C([H])([H])[H])c([H])c([H])c2C1([H])[H]

$$$$
20:0:0
     RDKit          3D

 96105  0  0  1  0  0  0  0  0999 V2000
  -31.6380  -16.4630   23.1030 C   0  0  0  0  0  2  0  0  0  0  0  0
  -32.2070  -20.6770   21.6260 C   0  0  0  0  0  2  0  0  0  0  0  0
  -29.7970  -21.0390   22.3230 C   0  0  0  0  0  2  0  0  0  0  0  0
  -31.0800  -17.6650   23.8770 C   0  0  0  0  0  2  0  0  0  0  0  0
  -32.3000  -19.4950   22.6080 C   0  0  0  0  0  2  0  0  0  0  0  0
  -29.9180  -19.8640   23.3130 C   0  0  0  0  0  2  0  0  0  0  0  0
  -30.4610  -18.0050   21.6110 C   0  0  0  0  0  2  0  0  0  0  0  0
  -31.2610  -16.6910   21.6270 C   0  0  0  0  0  3  0  0  0  0  0  0
  -31.1580  -21.7230   22.0580 C   0  0  0  0  0  3  0  0  0  0  0  0
  -30.9350  -18.7980   22.8470 C   0  0  2  0  0  0  0  0  0  0  0  0
  -30.7400  -14.9360   19.9300 C   0  0  0  0  0  0  0  0  0  0  0  0
  -30.2680  -12.9250   18.5790 C   0  0  0  0  0  2  0  0  0  0  0  0
  -29.2080  -13.1850   17.4940 C   0  0  0  0  0  2  0  0  0  0  0  0
  -27.7920  -12.9810   18.0620 C   0  0  0  0  0  2  0  0  0  0  0  0
  -27.5700  -13.7520   19.3900 C   0  0  0  0  0  3  0  0  0  0  0  0
  -28.7260  -13.4850   20.3800 C   0  0  0  0  0  2  0  0  0  0  0  0
  -30.0010  -13.8170   19.7180 N   0  0  0  0  0  0  0  0  0  0  0  0
  -31.6360  -15.3090   19.1650 O   0  0  0  0  0  0  0  0  0  0  0  0
  -30.4970  -15.5640   21.0890 N   0  0  0  0  0  0  0  0  0  0  0  0
  -29.7680  -15.1740   21.6670 H   0  0  0  0  0  0  0  0  0  0  0  0
  -25.2380  -14.2790   20.3490 C   0  0  0  0  0  0  0  0  0  0  0  0
  -24.2240  -13.4680   20.7830 C   0  0  0  0  0  0  0  0  0  0  0  0
  -24.7020  -12.1290   20.6440 C   0  0  0  0  0  0  0  0  0  0  0  0
  -26.2720  -13.4310   19.9790 N   0  0  0  0  0  0  0  0  0  0  0  0
  -25.9560  -12.1310   20.2090 N   0  0  0  0  0  0  0  0  0  0  0  0
  -24.0200  -10.8440   20.8440 C   0  0  0  0  0  0  0  0  0  0  0  0
  -24.5080   -9.8830   21.7560 C   0  0  0  0  0  3  0  0  0  0  0  0
  -23.8250   -8.6630   21.9440 C   0  0  0  0  0  3  0  0  0  0  0  0
  -22.6390   -8.3940   21.2200 C   0  0  0  0  0  0  0  0  0  0  0  0
  -22.1690   -9.3450   20.2970 C   0  0  0  0  0  3  0  0  0  0  0  0
  -22.8530  -10.5570   20.1070 C   0  0  0  0  0  3  0  0  0  0  0  0
  -21.9220   -7.2250   21.3190 O   0  0  0  0  0  0  0  0  0  0  0  0
  -21.8670   -6.5120   22.4890 C   0  0  0  0  0  0  0  0  0  0  0  0
  -21.3670   -7.0760   23.6830 C   0  0  0  0  0  3  0  0  0  0  0  0
  -21.2630   -6.2860   24.8460 C   0  0  0  0  0  3  0  0  0  0  0  0
  -21.6490   -4.9320   24.8140 C   0  0  0  0  0  0  0  0  0  0  0  0
  -22.1430   -4.3680   23.6260 C   0  0  0  0  0  3  0  0  0  0  0  0
  -22.2480   -5.1550   22.4650 C   0  0  0  0  0  0  0  0  0  0  0  0
  -22.7050   -4.6010   21.3160 F   0  0  0  0  0  0  0  0  0  0  0  0
  -21.5420   -4.1710   25.9280 F   0  0  0  0  0  0  0  0  0  0  0  0
  -22.8530  -13.9020   21.2130 C   0  0  0  0  0  0  0  0  0  0  0  0
  -22.2320  -13.1610   22.1260 N   0  0  0  0  0  0  0  0  0  0  0  0
  -22.3420  -14.9330   20.7770 O   0  0  0  0  0  0  0  0  0  0  0  0
  -22.6600  -12.3260   22.4990 H   0  0  0  0  0  0  0  0  0  0  0  0
  -21.3170  -13.4320   22.4550 H   0  0  0  0  0  0  0  0  0  0  0  0
  -25.3640  -15.6590   20.2210 N   0  0  0  0  0  0  0  0  0  0  0  0
  -24.6060  -16.2970   20.4390 H   0  0  0  0  0  0  0  0  0  0  0  0
  -26.1810  -16.1270   19.8490 H   0  0  0  0  0  0  0  0  0  0  0  0
  -31.0410  -22.7780   21.0260 N   0  0  0  0  0  4  0  0  0  0  0  0
  -30.5490  -22.4080   20.2290 H   0  0  0  0  0  0  0  0  0  0  0  0
  -31.9760  -23.0050   20.7230 H   0  0  0  0  0  0  0  0  0  0  0  0
  -30.4100  -24.0460   21.4580 C   0  0  0  0  0  2  0  0  0  0  0  0
  -30.1690  -24.9850   20.2590 C   0  0  0  0  0  2  0  0  0  0  0  0
  -29.7390  -26.4080   20.6580 C   0  0  0  0  0  2  0  0  0  0  0  0
  -29.4510  -27.3010   19.4390 C   0  0  0  0  0  2  0  0  0  0  0  0
  -28.2020  -26.9330   18.8470 O   0  0  0  0  0  0  0  0  0  0  0  0
  -24.4640  -31.6340   22.7600 C   0  0  0  0  0  0  0  0  0  0  0  0
  -27.0480  -27.6480   19.0970 C   0  0  0  0  0  0  0  0  0  0  0  0
  -23.1830  -30.3520   21.0700 C   0  0  0  0  0  3  0  0  0  0  0  0
  -24.5820  -29.0110   19.4120 C   0  0  0  0  0  0  0  0  0  0  0  0
  -25.6650  -30.8400   20.7310 C   0  0  0  0  0  2  0  0  0  0  0  0
  -25.7530  -29.5350   19.9720 C   0  0  0  0  0  0  0  0  0  0  0  0
  -26.9810  -28.8620   19.8240 C   0  0  0  0  0  3  0  0  0  0  0  0
  -25.8580  -27.1330   18.5400 C   0  0  0  0  0  3  0  0  0  0  0  0
  -24.6270  -27.8010   18.6960 C   0  0  0  0  0  3  0  0  0  0  0  0
  -23.3160  -29.8080   19.6210 C   0  0  0  0  0  2  0  0  0  0  0  0
  -24.4600  -30.9500   21.5810 N   0  0  0  0  0  0  0  0  0  0  0  0
  -23.4190  -31.8130   23.4000 O   0  0  0  0  0  0  0  0  0  0  0  0
  -22.6360  -29.2220   21.9700 C   0  0  0  0  0  0  0  0  0  0  0  0
  -21.3070  -29.0340   21.9470 N   0  0  0  0  0  0  0  0  0  0  0  0
  -23.3990  -28.5200   22.6410 O   0  0  0  0  0  0  0  0  0  0  0  0
  -20.7510  -29.6580   21.3800 H   0  0  0  0  0  0  0  0  0  0  0  0
  -17.9980  -27.7660   22.6470 C   0  0  0  0  0  0  0  0  0  0  0  0
  -20.5710  -28.0030   22.6790 C   0  0  0  0  0  3  0  0  0  0  0  0
  -20.6030  -26.6540   21.9260 C   0  0  0  0  0  2  0  0  0  0  0  0
  -19.3990  -26.4510   21.0000 C   0  0  0  0  0  2  0  0  0  0  0  0
  -18.0940  -26.5090   21.7990 C   0  0  0  0  0  2  0  0  0  0  0  0
  -19.1610  -28.4750   23.0460 C   0  0  0  0  0  0  0  0  0  0  0  0
  -19.0150  -29.6580   23.8050 C   0  0  0  0  0  3  0  0  0  0  0  0
  -17.7400  -30.1310   24.1630 C   0  0  0  0  0  3  0  0  0  0  0  0
  -16.5930  -29.4160   23.7770 C   0  0  0  0  0  3  0  0  0  0  0  0
  -16.7240  -28.2340   23.0270 C   0  0  0  0  0  3  0  0  0  0  0  0
  -25.7760  -32.2440   23.3500 C   0  0  0  0  0  3  0  0  0  0  0  0
  -25.4470  -33.5760   23.8730 N   0  0  0  0  0  0  0  0  0  0  0  0
  -25.6970  -34.7260   23.2310 C   0  0  0  0  0  0  0  0  0  0  0  0
  -26.3020  -34.7760   22.1570 O   0  0  0  0  0  0  0  0  0  0  0  0
  -24.8990  -33.6080   24.7210 H   0  0  0  0  0  0  0  0  0  0  0  0
  -23.8930  -36.4770   23.2040 C   0  0  0  0  0  1  0  0  0  0  0  0
  -25.1950  -36.0260   23.8860 C   0  0  0  0  0  3  0  0  0  0  0  0
  -27.3430  -36.8900   24.7030 C   0  0  0  0  0  1  0  0  0  0  0  0
  -26.1840  -37.1250   23.8460 N   0  0  0  0  0  0  0  0  0  0  0  0
  -25.7560  -38.0040   24.1260 H   0  0  0  0  0  0  0  0  0  0  0  0
  -26.4310  -31.3470   24.4700 C   0  0  1  0  0  0  0  0  0  0  0  0
  -25.4410  -30.9130   25.5760 C   0  0  0  0  0  1  0  0  0  0  0  0
  -27.0420  -30.0660   23.8520 C   0  0  0  0  0  1  0  0  0  0  0  0
  -27.5930  -32.1130   25.1450 C   0  0  0  0  0  1  0  0  0  0  0  0
  1  4  1  0
  2  9  1  0
  2  5  1  0
  3  6  1  0
 10  5  1  6
  7  8  1  0
  8 19  1  0
  8  1  1  0
  9 49  1  0
  9  3  1  0
 10  7  1  0
 10  6  1  0
 10  4  1  0
 11 19  1  0
 12 17  1  0
 13 14  1  0
 13 12  1  0
 15 14  1  0
 15 24  1  0
 15 16  1  0
 17 11  1  0
 17 16  1  0
 18 11  2  0
 19 20  1  0
 21 22  2  0
 22 41  1  0
 23 22  1  0
 23 26  1  0
 24 25  1  0
 24 21  1  0
 25 23  2  0
 26 27  1  0
 27 28  2  0
 29 32  1  0
 29 28  1  0
 30 29  2  0
 31 30  1  0
 31 26  2  0
 32 33  1  0
 33 34  1  0
 34 35  2  0
 36 35  1  0
 36 40  1  0
 37 36  2  0
 38 33  2  0
 38 37  1  0
 39 38  1  0
 41 42  1  0
 42 45  1  0
 42 44  1  0
 43 41  2  0
 46 21  1  0
 46 47  1  0
 48 46  1  0
 49 52  1  0
 50 49  1  0
 51 49  1  0
 53 54  1  0
 53 52  1  0
 55 54  1  0
 56 58  1  0
 56 55  1  0
 57 68  2  0
 58 63  1  0
 59 67  1  0
 59 69  1  0
 60 66  1  0
 60 62  1  0
 61 67  1  0
 62 61  1  0
 63 62  2  0
 64 65  1  0
 64 58  2  0
 65 60  2  0
 66 59  1  0
 67 57  1  0
 69 71  2  0
 70 69  1  0
 72 70  1  0
 73 82  2  0
 73 78  1  0
 74 70  1  0
 74 78  1  0
 75 74  1  0
 76 77  1  0
 76 75  1  0
 77 73  1  0
 78 79  2  0
 79 80  1  0
 81 80  2  0
 82 81  1  0
 83 57  1  0
 83 84  1  0
 83 93  1  0
 84 87  1  0
 85 84  1  0
 85 89  1  0
 86 85  2  0
 89 88  1  0
 91 89  1  0
 91 92  1  0
 91 90  1  0
 93 96  1  1
 93 94  1  0
 95 93  1  0
M  ISO  4  11 100  19 100  55 101  56 101
M  END
>  <TORSDO>  (21) 
F 21

>  <SCORE>  (21) 
-7.509

>  <name>  (21) 
20

>  <ligand_id>  (21) 
20

>  <original_smiles>  (21) 
[H]c1c([H])c([H])c2c(c1[H])C([H])([H])C([H])([H])C([H])([H])C2([H])N([H])C(=O)C1([H])N(C(=O)C([H])(N([H])C(=O)C([H])(N([H])C([H])([H])[H])C([H])([H])[H])C(C([H])([H])[H])(C([H])([H])[H])C([H])([H])[H])C([H])([H])c2c([H])c(OC([H])([H])C([H])([H])C([H])([H])C([H])([H])[N+]([H])([H])C3([H])C([H])([H])C([H])([H])C4(C([H])([H])C([H])([H])C([H])(N([H])C(=O)N5C([H])([H])C([H])([H])C([H])([H])C([H])(n6nc(-c7c([H])c([H])c(Oc8c([H])c([H])c(F)c([H])c8F)c([H])c7[H])c(C(=O)N([H])[H])c6N([H])[H])C5([H])[H])C4([H])[H])C([H])([H])C3([H])[H])c([H])c([H])c2C1([H])[H]

>  <smiles>  (21) 
[H]c1c([H])c([H])c2c(c1[H])C([H])([H])C([H])([H])C([H])([H])C2([H])N([H])C(=O)C1([H])N(C(=O)C([H])(N([H])C(=O)C([H])(N([H])C([H])([H])[H])C([H])([H])[H])C(C([H])([H])[H])(C([H])([H])[H])C([H])([H])[H])C([H])([H])c2c([H])c(OC([H])([H])C([H])([H])C([H])([H])C([H])([H])[N+]([H])([H])C3([H])C([H])([H])C([H])([H])C4(C([H])([H])C([H])([H])C([H])(N([H])C(=O)N5C([H])([H])C([H])([H])C([H])([H])C([H])(n6nc(-c7c([H])c([H])c(Oc8c([H])c([H])c(F)c([H])c8F)c([H])c7[H])c(C(=O)N([H])[H])c6N([H])[H])C5([H])[H])C4([H])[H])C([H])([H])C3([H])[H])c([H])c([H])c2C1([H])[H]

$$$$
21:0:0
     RDKit          3D

 91 99  0  0  1  0  0  0  0  0999 V2000
  -28.2750  -21.9850   22.3630 C   0  0  0  0  0  2  0  0  0  0  0  0
  -27.6660  -21.2430   21.1730 C   0  0  0  0  0  2  0  0  0  0  0  0
  -29.2480  -23.0350   21.7850 C   0  0  0  0  0  3  0  0  0  0  0  0
  -29.2190  -22.8520   20.2520 C   0  0  0  0  0  3  0  0  0  0  0  0
  -28.7260  -21.3310   20.0680 C   0  0  0  0  0  3  0  0  0  0  0  0
  -30.6600  -22.9270   22.3800 C   0  0  0  0  0  1  0  0  0  0  0  0
  -29.7940  -20.2310   20.1830 N   0  0  0  0  0  4  0  0  0  0  0  0
  -30.4400  -20.4970   20.9100 H   0  0  0  0  0  0  0  0  0  0  0  0
  -30.3130  -20.2460   19.3190 H   0  0  0  0  0  0  0  0  0  0  0  0
  -29.3730  -18.7810   20.4390 C   0  0  0  0  0  3  0  0  0  0  0  0
  -30.4690  -17.6100   20.2950 C   0  0  0  0  0  3  0  0  0  0  0  0
  -30.0770  -16.1420   20.8210 C   0  0  0  0  0  2  0  0  0  0  0  0
  -30.9050  -14.8530   20.3820 C   0  0  0  0  0  0  0  0  0  0  0  0
  -30.7440  -12.5800   19.3630 C   0  0  0  0  0  2  0  0  0  0  0  0
  -29.8180  -12.6700   18.1270 C   0  0  0  0  0  2  0  0  0  0  0  0
  -28.3370  -12.5080   18.5330 C   0  0  0  0  0  2  0  0  0  0  0  0
  -27.9550  -13.4060   19.7380 C   0  0  0  0  0  3  0  0  0  0  0  0
  -28.9920  -13.2860   20.8770 C   0  0  0  0  0  2  0  0  0  0  0  0
  -30.3110  -13.6170   20.3210 N   0  0  0  0  0  0  0  0  0  0  0  0
  -32.0690  -14.9970   19.9920 O   0  0  0  0  0  0  0  0  0  0  0  0
  -25.5630  -14.0340   20.4320 C   0  0  0  0  0  0  0  0  0  0  0  0
  -24.4850  -13.2710   20.7940 C   0  0  0  0  0  0  0  0  0  0  0  0
  -24.9350  -11.9160   20.7750 C   0  0  0  0  0  0  0  0  0  0  0  0
  -26.6010  -13.1420   20.2110 N   0  0  0  0  0  0  0  0  0  0  0  0
  -26.2270  -11.8640   20.4790 N   0  0  0  0  0  0  0  0  0  0  0  0
  -24.1970  -10.6610   20.9630 C   0  0  0  0  0  0  0  0  0  0  0  0
  -24.5930   -9.7090   21.9290 C   0  0  0  0  0  3  0  0  0  0  0  0
  -23.8550   -8.5190   22.1050 C   0  0  0  0  0  3  0  0  0  0  0  0
  -22.7100   -8.2710   21.3120 C   0  0  0  0  0  0  0  0  0  0  0  0
  -22.3320   -9.2130   20.3360 C   0  0  0  0  0  3  0  0  0  0  0  0
  -23.0690  -10.3940   20.1600 C   0  0  0  0  0  3  0  0  0  0  0  0
  -21.9490   -7.1300   21.3940 O   0  0  0  0  0  0  0  0  0  0  0  0
  -21.8290   -6.4260   22.5670 C   0  0  0  0  0  0  0  0  0  0  0  0
  -21.3150   -7.0170   23.7410 C   0  0  0  0  0  3  0  0  0  0  0  0
  -21.1450   -6.2400   24.9040 C   0  0  0  0  0  3  0  0  0  0  0  0
  -21.4770   -4.8710   24.8920 C   0  0  0  0  0  0  0  0  0  0  0  0
  -21.9830   -4.2790   23.7200 C   0  0  0  0  0  3  0  0  0  0  0  0
  -22.1550   -5.0550   22.5600 C   0  0  0  0  0  0  0  0  0  0  0  0
  -22.6240   -4.4750   21.4280 F   0  0  0  0  0  0  0  0  0  0  0  0
  -21.3050   -4.1210   26.0050 F   0  0  0  0  0  0  0  0  0  0  0  0
  -23.0890  -13.7640   21.0470 C   0  0  0  0  0  0  0  0  0  0  0  0
  -22.3470  -13.0850   21.9140 N   0  0  0  0  0  0  0  0  0  0  0  0
  -22.6620  -14.7830   20.5060 O   0  0  0  0  0  0  0  0  0  0  0  0
  -22.7020  -12.2590   22.3720 H   0  0  0  0  0  0  0  0  0  0  0  0
  -21.4080  -13.3960   22.1200 H   0  0  0  0  0  0  0  0  0  0  0  0
  -25.7390  -15.4020   20.2520 N   0  0  0  0  0  0  0  0  0  0  0  0
  -24.9740  -16.0580   20.3580 H   0  0  0  0  0  0  0  0  0  0  0  0
  -26.5910  -15.8340   19.9200 H   0  0  0  0  0  0  0  0  0  0  0  0
  -28.3040  -24.0300   19.6520 C   0  0  0  0  0  2  0  0  0  0  0  0
  -28.9170  -25.4880   19.3900 C   0  0  0  0  0  2  0  0  0  0  0  0
  -28.6700  -26.6790   20.2290 O   0  0  0  0  0  0  0  0  0  0  0  0
  -24.6440  -31.8620   23.1970 C   0  0  0  0  0  0  0  0  0  0  0  0
  -27.5100  -27.4570   20.1330 C   0  0  0  0  0  0  0  0  0  0  0  0
  -23.5410  -30.4470   21.5010 C   0  0  0  0  0  3  0  0  0  0  0  0
  -25.0850  -28.9720   20.0920 C   0  0  0  0  0  0  0  0  0  0  0  0
  -26.0670  -30.8660   21.3870 C   0  0  0  0  0  2  0  0  0  0  0  0
  -26.2150  -29.4970   20.7280 C   0  0  0  0  0  0  0  0  0  0  0  0
  -27.4260  -28.7480   20.7460 C   0  0  0  0  0  3  0  0  0  0  0  0
  -26.3540  -26.9770   19.4800 C   0  0  0  0  0  3  0  0  0  0  0  0
  -25.1560  -27.7180   19.4620 C   0  0  0  0  0  3  0  0  0  0  0  0
  -23.8190  -29.8050   20.1170 C   0  0  0  0  0  2  0  0  0  0  0  0
  -24.7690  -31.0780   22.0860 N   0  0  0  0  0  0  0  0  0  0  0  0
  -23.5380  -32.0870   23.7080 O   0  0  0  0  0  0  0  0  0  0  0  0
  -22.8920  -29.3920   22.4280 C   0  0  0  0  0  0  0  0  0  0  0  0
  -21.5720  -29.1820   22.2770 N   0  0  0  0  0  0  0  0  0  0  0  0
  -23.5740  -28.7640   23.2420 O   0  0  0  0  0  0  0  0  0  0  0  0
  -21.0790  -29.7400   21.5940 H   0  0  0  0  0  0  0  0  0  0  0  0
  -18.2160  -27.9150   22.7230 C   0  0  0  0  0  0  0  0  0  0  0  0
  -20.7700  -28.2080   23.0160 C   0  0  0  0  0  3  0  0  0  0  0  0
  -20.8980  -26.7980   22.3950 C   0  0  0  0  0  2  0  0  0  0  0  0
  -19.8070  -26.4910   21.3640 C   0  0  0  0  0  2  0  0  0  0  0  0
  -18.4180  -26.5940   22.0020 C   0  0  0  0  0  2  0  0  0  0  0  0
  -19.3190  -28.6810   23.1840 C   0  0  0  0  0  0  0  0  0  0  0  0
  -19.0750  -29.9210   23.8160 C   0  0  0  0  0  3  0  0  0  0  0  0
  -17.7600  -30.3960   23.9880 C   0  0  0  0  0  3  0  0  0  0  0  0
  -16.6720  -29.6280   23.5390 C   0  0  0  0  0  3  0  0  0  0  0  0
  -16.9020  -28.3890   22.9160 C   0  0  0  0  0  3  0  0  0  0  0  0
  -25.8830  -32.5340   23.8660 C   0  0  0  0  0  3  0  0  0  0  0  0
  -25.5210  -33.9230   24.1820 N   0  0  0  0  0  0  0  0  0  0  0  0
  -25.8490  -34.9840   23.4330 C   0  0  0  0  0  0  0  0  0  0  0  0
  -26.5580  -34.9000   22.4260 O   0  0  0  0  0  0  0  0  0  0  0  0
  -24.8970  -34.0600   24.9640 H   0  0  0  0  0  0  0  0  0  0  0  0
  -24.0840  -36.7250   23.0120 C   0  0  0  0  0  1  0  0  0  0  0  0
  -25.3070  -36.3600   23.8700 C   0  0  0  0  0  3  0  0  0  0  0  0
  -27.3850  -37.3060   24.7710 C   0  0  0  0  0  1  0  0  0  0  0  0
  -26.3120  -37.4410   23.7890 N   0  0  0  0  0  0  0  0  0  0  0  0
  -25.8760  -38.3500   23.9220 H   0  0  0  0  0  0  0  0  0  0  0  0
  -26.3730  -31.7810   25.1640 C   0  0  1  0  0  0  0  0  0  0  0  0
  -25.2460  -31.5000   26.1840 C   0  0  0  0  0  1  0  0  0  0  0  0
  -27.0180  -30.4270   24.7890 C   0  0  0  0  0  1  0  0  0  0  0  0
  -27.4650  -32.6140   25.8740 C   0  0  0  0  0  1  0  0  0  0  0  0
  2  1  1  0
  3  1  1  0
  3  6  1  0
  4 49  1  0
  4  3  1  0
  5  7  1  0
  5  4  1  0
  5  2  1  0
  7 10  1  0
  7  8  1  0
  9  7  1  0
 11 10  2  0
 11 12  1  0
 13 12  1  0
 14 19  1  0
 15 16  1  0
 15 14  1  0
 17 16  1  0
 17 24  1  0
 17 18  1  0
 19 13  1  0
 19 18  1  0
 20 13  2  0
 21 22  2  0
 22 41  1  0
 23 22  1  0
 23 26  1  0
 24 21  1  0
 24 25  1  0
 25 23  2  0
 26 27  1  0
 27 28  2  0
 29 32  1  0
 29 28  1  0
 30 29  2  0
 31 30  1  0
 31 26  2  0
 32 33  1  0
 33 34  1  0
 34 35  2  0
 36 35  1  0
 36 40  1  0
 37 36  2  0
 38 33  2  0
 38 37  1  0
 39 38  1  0
 41 42  1  0
 42 45  1  0
 42 44  1  0
 43 41  2  0
 46 47  1  0
 46 21  1  0
 48 46  1  0
 50 49  1  0
 50 51  1  0
 52 63  2  0
 53 51  1  0
 53 58  1  0
 54 62  1  0
 54 64  1  0
 55 61  1  0
 55 57  1  0
 56 62  1  0
 57 58  2  0
 57 56  1  0
 59 53  2  0
 60 59  1  0
 60 55  2  0
 61 54  1  0
 62 52  1  0
 64 66  2  0
 65 64  1  0
 67 65  1  0
 68 77  2  0
 68 73  1  0
 69 65  1  0
 69 73  1  0
 70 69  1  0
 71 72  1  0
 71 70  1  0
 72 68  1  0
 73 74  2  0
 74 75  1  0
 76 75  2  0
 77 76  1  0
 78 52  1  0
 78 79  1  0
 78 88  1  0
 79 82  1  0
 80 84  1  0
 80 79  1  0
 81 80  2  0
 84 83  1  0
 86 84  1  0
 86 87  1  0
 86 85  1  0
 88 91  1  1
 88 89  1  0
 90 88  1  0
M  ISO  4  12 100  13 100  50 101  51 101
M  END
>  <TORSDO>  (22) 
F 22

>  <SCORE>  (22) 
-12.249

>  <name>  (22) 
21

>  <ligand_id>  (22) 
21

>  <original_smiles>  (22) 
[H]c1c([H])c([H])c2c(c1[H])C([H])([H])C([H])([H])C([H])([H])C2([H])N([H])C(=O)C1([H])N(C(=O)C([H])(N([H])C(=O)C([H])(N([H])C([H])([H])[H])C([H])([H])[H])C(C([H])([H])[H])(C([H])([H])[H])C([H])([H])[H])C([H])([H])c2c([H])c(OC([H])([H])C([H])([H])C3([H])C([H])(C([H])([H])[H])C([H])([H])C([H])([H])C3([H])[N+]([H])([H])C([H])([H])C([H])([H])C([H])([H])C(=O)N3C([H])([H])C([H])([H])C([H])([H])C([H])(n4nc(-c5c([H])c([H])c(Oc6c([H])c([H])c(F)c([H])c6F)c([H])c5[H])c(C(=O)N([H])[H])c4N([H])[H])C3([H])[H])c([H])c([H])c2C1([H])[H]

>  <smiles>  (22) 
[H]c1c([H])c([H])c2c(c1[H])C([H])([H])C([H])([H])C([H])([H])C2([H])N([H])C(=O)C1([H])N(C(=O)C([H])(N([H])C(=O)C([H])(N([H])C([H])([H])[H])C([H])([H])[H])C(C([H])([H])[H])(C([H])([H])[H])C([H])([H])[H])C([H])([H])c2c([H])c(OC([H])([H])C([H])([H])C3([H])C([H])(C([H])([H])[H])C([H])([H])C([H])([H])C3([H])[N+]([H])([H])C([H])([H])C([H])([H])C([H])([H])C(=O)N3C([H])([H])C([H])([H])C([H])([H])C([H])(n4nc(-c5c([H])c([H])c(Oc6c([H])c([H])c(F)c([H])c6F)c([H])c5[H])c(C(=O)N([H])[H])c4N([H])[H])C3([H])[H])c([H])c([H])c2C1([H])[H]

$$$$
22:0:0
     RDKit          3D

 93101  0  0  1  0  0  0  0  0999 V2000
  -25.9230  -22.0250   18.2580 C   0  0  0  0  0  2  0  0  0  0  0  0
  -26.4940  -19.5480   17.8460 C   0  0  0  0  0  2  0  0  0  0  0  0
  -27.7880  -20.8600   19.6910 C   0  0  0  0  0  2  0  0  0  0  0  0
  -25.3920  -20.5600   18.0300 C   0  0  0  0  0  3  0  0  0  0  0  0
  -27.3440  -22.1800   18.9570 C   0  0  0  0  0  3  0  0  0  0  0  0
  -27.3750  -19.4650   19.0910 C   0  0  0  0  0  3  0  0  0  0  0  0
  -24.3920  -20.3410   16.8570 C   0  0  0  0  0  1  0  0  0  0  0  0
  -27.6080  -23.4410   19.9170 C   0  0  0  0  0  3  0  0  0  0  0  0
  -27.4620  -24.9510   19.4270 C   0  0  0  0  0  3  0  0  0  0  0  0
  -27.9690  -26.2350   20.1190 O   0  0  0  0  0  0  0  0  0  0  0  0
  -24.6430  -31.9620   23.3550 C   0  0  0  0  0  0  0  0  0  0  0  0
  -27.0680  -27.3320   20.1020 C   0  0  0  0  0  0  0  0  0  0  0  0
  -23.4290  -30.6040   21.7280 C   0  0  0  0  0  3  0  0  0  0  0  0
  -24.8350  -29.1090   20.2090 C   0  0  0  0  0  0  0  0  0  0  0  0
  -25.9940  -30.8330   21.5540 C   0  0  0  0  0  2  0  0  0  0  0  0
  -26.0250  -29.4730   20.8520 C   0  0  0  0  0  0  0  0  0  0  0  0
  -27.1550  -28.5790   20.8260 C   0  0  0  0  0  3  0  0  0  0  0  0
  -25.9130  -27.1740   19.3160 C   0  0  0  0  0  3  0  0  0  0  0  0
  -24.7800  -27.9630   19.4370 C   0  0  0  0  0  3  0  0  0  0  0  0
  -23.6230  -30.0080   20.3170 C   0  0  0  0  0  2  0  0  0  0  0  0
  -24.7140  -31.1480   22.2640 N   0  0  0  0  0  0  0  0  0  0  0  0
  -23.5570  -32.2430   23.8900 O   0  0  0  0  0  0  0  0  0  0  0  0
  -22.7730  -29.5450   22.6430 C   0  0  0  0  0  0  0  0  0  0  0  0
  -21.4530  -29.3450   22.4930 N   0  0  0  0  0  0  0  0  0  0  0  0
  -23.4470  -28.9200   23.4670 O   0  0  0  0  0  0  0  0  0  0  0  0
  -20.9640  -29.9090   21.8110 H   0  0  0  0  0  0  0  0  0  0  0  0
  -18.0840  -28.1030   22.9410 C   0  0  0  0  0  0  0  0  0  0  0  0
  -20.6360  -28.4030   23.2540 C   0  0  0  0  0  3  0  0  0  0  0  0
  -20.7680  -26.9720   22.6860 C   0  0  0  0  0  2  0  0  0  0  0  0
  -19.6890  -26.6250   21.6560 C   0  0  0  0  0  2  0  0  0  0  0  0
  -18.2940  -26.7520   22.2750 C   0  0  0  0  0  2  0  0  0  0  0  0
  -19.1860  -28.8860   23.3850 C   0  0  0  0  0  0  0  0  0  0  0  0
  -18.9360  -30.1470   23.9670 C   0  0  0  0  0  3  0  0  0  0  0  0
  -17.6210  -30.6310   24.1070 C   0  0  0  0  0  3  0  0  0  0  0  0
  -16.5370  -29.8480   23.6800 C   0  0  0  0  0  3  0  0  0  0  0  0
  -16.7670  -28.5860   23.1020 C   0  0  0  0  0  3  0  0  0  0  0  0
  -25.9300  -32.5860   23.9690 C   0  0  0  0  0  3  0  0  0  0  0  0
  -25.6370  -33.9980   24.2600 N   0  0  0  0  0  0  0  0  0  0  0  0
  -25.9730  -35.0280   23.4700 C   0  0  0  0  0  0  0  0  0  0  0  0
  -26.6480  -34.8880   22.4450 O   0  0  0  0  0  0  0  0  0  0  0  0
  -25.0420  -34.1850   25.0560 H   0  0  0  0  0  0  0  0  0  0  0  0
  -24.2680  -36.8280   23.0630 C   0  0  0  0  0  1  0  0  0  0  0  0
  -25.5000  -36.4350   23.8920 C   0  0  0  0  0  3  0  0  0  0  0  0
  -27.6370  -37.3160   24.7130 C   0  0  0  0  0  1  0  0  0  0  0  0
  -26.5440  -37.4730   23.7570 N   0  0  0  0  0  0  0  0  0  0  0  0
  -26.1500  -38.4010   23.8800 H   0  0  0  0  0  0  0  0  0  0  0  0
  -26.4130  -31.8440   25.2750 C   0  0  1  0  0  0  0  0  0  0  0  0
  -25.2970  -31.6440   26.3280 C   0  0  0  0  0  1  0  0  0  0  0  0
  -26.9870  -30.4500   24.9340 C   0  0  0  0  0  1  0  0  0  0  0  0
  -27.5620  -32.6430   25.9370 C   0  0  0  0  0  1  0  0  0  0  0  0
  -28.5230  -18.4950   18.7330 C   0  0  0  0  0  2  0  0  0  0  0  0
  -28.9710  -17.6940   19.8680 N   0  0  0  0  0  4  0  0  0  0  0  0
  -28.7490  -16.7160   19.6500 H   0  0  0  0  0  0  0  0  0  0  0  0
  -28.4890  -18.0220   20.6930 H   0  0  0  0  0  0  0  0  0  0  0  0
  -30.4340  -17.7520   20.0290 C   0  0  0  0  0  2  0  0  0  0  0  0
  -30.9690  -17.1110   21.3080 C   0  0  0  0  0  2  0  0  0  0  0  0
  -30.6430  -15.6070   21.5180 C   0  0  0  0  0  2  0  0  0  0  0  0
  -31.0320  -14.6270   20.3880 C   0  0  0  0  0  0  0  0  0  0  0  0
  -30.7310  -12.5250   19.1220 C   0  0  0  0  0  2  0  0  0  0  0  0
  -29.7200  -12.5540   17.9460 C   0  0  0  0  0  2  0  0  0  0  0  0
  -28.2550  -12.3820   18.4100 C   0  0  0  0  0  2  0  0  0  0  0  0
  -27.9210  -13.3450   19.5720 C   0  0  0  0  0  3  0  0  0  0  0  0
  -28.9860  -13.1960   20.7070 C   0  0  0  0  0  2  0  0  0  0  0  0
  -30.2990  -13.5040   20.1440 N   0  0  0  0  0  0  0  0  0  0  0  0
  -32.0640  -14.8810   19.7500 O   0  0  0  0  0  0  0  0  0  0  0  0
  -25.5880  -14.0430   20.4150 C   0  0  0  0  0  0  0  0  0  0  0  0
  -24.5080  -13.2910   20.8030 C   0  0  0  0  0  0  0  0  0  0  0  0
  -24.9360  -11.9300   20.7500 C   0  0  0  0  0  0  0  0  0  0  0  0
  -26.5820  -13.1280   20.1090 N   0  0  0  0  0  0  0  0  0  0  0  0
  -26.2130  -11.8690   20.4200 N   0  0  0  0  0  0  0  0  0  0  0  0
  -24.1990  -10.6900   20.9270 C   0  0  0  0  0  0  0  0  0  0  0  0
  -24.6010   -9.7380   21.8930 C   0  0  0  0  0  3  0  0  0  0  0  0
  -23.8640   -8.5500   22.0720 C   0  0  0  0  0  3  0  0  0  0  0  0
  -22.7200   -8.2900   21.2880 C   0  0  0  0  0  0  0  0  0  0  0  0
  -22.3410   -9.2310   20.3100 C   0  0  0  0  0  3  0  0  0  0  0  0
  -23.0690  -10.4210   20.1190 C   0  0  0  0  0  3  0  0  0  0  0  0
  -21.9440   -7.1600   21.3610 O   0  0  0  0  0  0  0  0  0  0  0  0
  -21.8010   -6.4740   22.5520 C   0  0  0  0  0  0  0  0  0  0  0  0
  -21.2610   -7.0860   23.6970 C   0  0  0  0  0  3  0  0  0  0  0  0
  -21.0490   -6.3230   24.8630 C   0  0  0  0  0  3  0  0  0  0  0  0
  -21.3790   -4.9580   24.8900 C   0  0  0  0  0  0  0  0  0  0  0  0
  -21.9020   -4.3500   23.7390 C   0  0  0  0  0  3  0  0  0  0  0  0
  -22.1140   -5.1010   22.5710 C   0  0  0  0  0  0  0  0  0  0  0  0
  -22.6030   -4.5020   21.4550 F   0  0  0  0  0  0  0  0  0  0  0  0
  -21.1720   -4.2250   26.0060 F   0  0  0  0  0  0  0  0  0  0  0  0
  -23.1160  -13.7740   21.0890 C   0  0  0  0  0  0  0  0  0  0  0  0
  -22.4030  -13.1190   21.9700 N   0  0  0  0  0  0  0  0  0  0  0  0
  -22.6820  -14.7930   20.5410 O   0  0  0  0  0  0  0  0  0  0  0  0
  -22.7750  -12.2880   22.4160 H   0  0  0  0  0  0  0  0  0  0  0  0
  -21.4550  -13.4220   22.1540 H   0  0  0  0  0  0  0  0  0  0  0  0
  -25.7900  -15.4280   20.2770 N   0  0  0  0  0  0  0  0  0  0  0  0
  -24.9650  -15.9770   20.5100 H   0  0  0  0  0  0  0  0  0  0  0  0
  -26.6040  -15.8800   20.6470 H   0  0  0  0  0  0  0  0  0  0  0  0
  1  5  1  0
  2  4  1  0
  2  6  1  0
  4  7  1  0
  4  1  1  0
  5  3  1  0
  5  8  1  0
  6 51  1  0
  6  3  1  0
  9  8  2  0
  9 10  1  0
 11 22  2  0
 12 10  1  0
 12 17  1  0
 13 21  1  0
 13 23  1  0
 14 20  1  0
 14 16  1  0
 15 21  1  0
 16 15  1  0
 17 16  2  0
 18 19  1  0
 18 12  2  0
 19 14  2  0
 20 13  1  0
 21 11  1  0
 23 25  2  0
 24 23  1  0
 26 24  1  0
 27 36  2  0
 27 32  1  0
 28 24  1  0
 28 32  1  0
 29 28  1  0
 30 31  1  0
 30 29  1  0
 31 27  1  0
 32 33  2  0
 33 34  1  0
 35 34  2  0
 36 35  1  0
 37 11  1  0
 37 38  1  0
 37 47  1  0
 38 41  1  0
 39 43  1  0
 39 38  1  0
 40 39  2  0
 43 42  1  0
 45 46  1  0
 45 43  1  0
 45 44  1  0
 47 50  1  1
 47 48  1  0
 49 47  1  0
 51 52  1  0
 52 55  1  0
 52 54  1  0
 53 52  1  0
 55 56  1  0
 56 57  1  0
 58 57  1  0
 59 64  1  0
 60 61  1  0
 60 59  1  0
 62 61  1  0
 62 69  1  0
 62 63  1  0
 64 58  1  0
 64 63  1  0
 65 58  2  0
 66 67  2  0
 67 86  1  0
 68 67  1  0
 68 71  1  0
 69 66  1  0
 69 70  1  0
 70 68  2  0
 71 72  1  0
 72 73  2  0
 74 77  1  0
 74 73  1  0
 75 74  2  0
 76 75  1  0
 76 71  2  0
 77 78  1  0
 78 83  2  0
 78 79  1  0
 79 80  2  0
 80 81  1  0
 81 85  1  0
 82 81  2  0
 83 82  1  0
 84 83  1  0
 86 87  1  0
 87 90  1  0
 87 89  1  0
 88 86  2  0
 91 66  1  0
 91 92  1  0
 91 93  1  0
M  ISO  4   9 101  10 101  57 100  58 100
M  END
>  <TORSDO>  (23) 
F 23

>  <SCORE>  (23) 
-12.408

>  <name>  (23) 
22

>  <ligand_id>  (23) 
22

>  <original_smiles>  (23) 
[H]c1c([H])c([H])c2c(c1[H])C([H])([H])C([H])([H])C([H])([H])C2([H])N([H])C(=O)C1([H])N(C(=O)C([H])(N([H])C(=O)C([H])(N([H])C([H])([H])[H])C([H])([H])[H])C(C([H])([H])[H])(C([H])([H])[H])C([H])([H])[H])C([H])([H])c2c([H])c(OC([H])([H])C([H])([H])C3([H])C([H])([H])C([H])(C([H])([H])[H])C([H])([H])C([H])(C([H])([H])[N+]([H])([H])C([H])([H])C([H])([H])C([H])([H])C(=O)N4C([H])([H])C([H])([H])C([H])([H])C([H])(n5nc(-c6c([H])c([H])c(Oc7c([H])c([H])c(F)c([H])c7F)c([H])c6[H])c(C(=O)N([H])[H])c5N([H])[H])C4([H])[H])C3([H])[H])c([H])c([H])c2C1([H])[H]

>  <smiles>  (23) 
[H]c1c([H])c([H])c2c(c1[H])C([H])([H])C([H])([H])C([H])([H])C2([H])N([H])C(=O)C1([H])N(C(=O)C([H])(N([H])C(=O)C([H])(N([H])C([H])([H])[H])C([H])([H])[H])C(C([H])([H])[H])(C([H])([H])[H])C([H])([H])[H])C([H])([H])c2c([H])c(OC([H])([H])C([H])([H])C3([H])C([H])([H])C([H])(C([H])([H])[H])C([H])([H])C([H])(C([H])([H])[N+]([H])([H])C([H])([H])C([H])([H])C([H])([H])C(=O)N4C([H])([H])C([H])([H])C([H])([H])C([H])(n5nc(-c6c([H])c([H])c(Oc7c([H])c([H])c(F)c([H])c7F)c([H])c6[H])c(C(=O)N([H])[H])c5N([H])[H])C4([H])[H])C3([H])[H])c([H])c([H])c2C1([H])[H]

$$$$
23:0:0
     RDKit          3D

 86 94  0  0  1  0  0  0  0  0999 V2000
  -28.8120  -21.8100   20.2490 C   0  0  0  0  0  2  0  0  0  0  0  0
  -30.1160  -19.2680   20.3960 C   0  0  0  0  0  3  0  0  0  0  0  0
  -30.0070  -20.6910   20.3430 C   0  0  0  0  0  0  0  0  0  0  0  0
  -31.3380  -21.4310   20.3570 C   0  0  0  0  0  1  0  0  0  0  0  0
  -29.2460  -16.9450   19.3110 C   0  0  0  0  0  2  0  0  0  0  0  0
  -29.2640  -17.9250   20.4250 C   0  0  0  0  0  3  0  0  0  0  0  0
  -29.4820  -16.2630   20.6660 C   0  0  0  0  0  3  0  0  0  0  0  0
  -30.4580  -14.9870   20.3810 C   0  0  0  0  0  0  0  0  0  0  0  0
  -30.3980  -12.6660   19.3650 C   0  0  0  0  0  2  0  0  0  0  0  0
  -29.4470  -12.6950   18.1420 C   0  0  0  0  0  2  0  0  0  0  0  0
  -27.9790  -12.4770   18.5660 C   0  0  0  0  0  2  0  0  0  0  0  0
  -27.5890  -13.3430   19.7920 C   0  0  0  0  0  3  0  0  0  0  0  0
  -28.6520  -13.2490   20.9060 C   0  0  0  0  0  2  0  0  0  0  0  0
  -29.9310  -13.6980   20.3320 N   0  0  0  0  0  0  0  0  0  0  0  0
  -31.6430  -15.1180   20.0510 O   0  0  0  0  0  0  0  0  0  0  0  0
  -25.1960  -13.9090   20.5160 C   0  0  0  0  0  0  0  0  0  0  0  0
  -24.1350  -13.1250   20.8820 C   0  0  0  0  0  0  0  0  0  0  0  0
  -24.6100  -11.7780   20.8520 C   0  0  0  0  0  0  0  0  0  0  0  0
  -26.2470  -13.0380   20.2800 N   0  0  0  0  0  0  0  0  0  0  0  0
  -25.9020  -11.7510   20.5450 N   0  0  0  0  0  0  0  0  0  0  0  0
  -23.8930  -10.5100   21.0410 C   0  0  0  0  0  0  0  0  0  0  0  0
  -24.3290   -9.5470   21.9790 C   0  0  0  0  0  3  0  0  0  0  0  0
  -23.6120   -8.3430   22.1560 C   0  0  0  0  0  3  0  0  0  0  0  0
  -22.4450   -8.0950   21.3960 C   0  0  0  0  0  0  0  0  0  0  0  0
  -22.0280   -9.0460   20.4470 C   0  0  0  0  0  3  0  0  0  0  0  0
  -22.7450  -10.2410   20.2690 C   0  0  0  0  0  3  0  0  0  0  0  0
  -21.7000   -6.9440   21.4810 O   0  0  0  0  0  0  0  0  0  0  0  0
  -21.6500   -6.2030   22.6340 C   0  0  0  0  0  0  0  0  0  0  0  0
  -21.1910   -6.7480   23.8530 C   0  0  0  0  0  3  0  0  0  0  0  0
  -21.0930   -5.9320   24.9980 C   0  0  0  0  0  3  0  0  0  0  0  0
  -21.4440   -4.5720   24.9240 C   0  0  0  0  0  0  0  0  0  0  0  0
  -21.8940   -4.0240   23.7100 C   0  0  0  0  0  3  0  0  0  0  0  0
  -21.9950   -4.8370   22.5680 C   0  0  0  0  0  0  0  0  0  0  0  0
  -22.4110   -4.3000   21.3950 F   0  0  0  0  0  0  0  0  0  0  0  0
  -21.3410   -3.7840   26.0210 F   0  0  0  0  0  0  0  0  0  0  0  0
  -22.7330  -13.5910   21.1480 C   0  0  0  0  0  0  0  0  0  0  0  0
  -22.0100  -12.8910   22.0170 N   0  0  0  0  0  0  0  0  0  0  0  0
  -22.2850  -14.6090   20.6210 O   0  0  0  0  0  0  0  0  0  0  0  0
  -22.3830  -12.0680   22.4650 H   0  0  0  0  0  0  0  0  0  0  0  0
  -21.0680  -13.1840   22.2380 H   0  0  0  0  0  0  0  0  0  0  0  0
  -25.3500  -15.2800   20.3400 N   0  0  0  0  0  0  0  0  0  0  0  0
  -24.5830  -15.9350   20.4520 H   0  0  0  0  0  0  0  0  0  0  0  0
  -26.2020  -15.7220   20.0150 H   0  0  0  0  0  0  0  0  0  0  0  0
  -29.1000  -23.4800   20.3520 C   0  0  0  0  0  3  0  0  0  0  0  0
  -27.9960  -24.7250   20.1270 C   0  0  0  0  0  3  0  0  0  0  0  0
  -28.2490  -26.2500   20.2800 O   0  0  0  0  0  0  0  0  0  0  0  0
  -24.5990  -31.9160   23.2490 C   0  0  0  0  0  0  0  0  0  0  0  0
  -27.1800  -27.2140   20.2170 C   0  0  0  0  0  0  0  0  0  0  0  0
  -23.3990  -30.5230   21.6040 C   0  0  0  0  0  3  0  0  0  0  0  0
  -24.8470  -28.9490   20.1830 C   0  0  0  0  0  0  0  0  0  0  0  0
  -25.9520  -30.7870   21.4470 C   0  0  0  0  0  2  0  0  0  0  0  0
  -26.0250  -29.3980   20.7920 C   0  0  0  0  0  0  0  0  0  0  0  0
  -27.1920  -28.5470   20.7910 C   0  0  0  0  0  3  0  0  0  0  0  0
  -25.9720  -26.8600   19.5750 C   0  0  0  0  0  3  0  0  0  0  0  0
  -24.8320  -27.6920   19.5580 C   0  0  0  0  0  3  0  0  0  0  0  0
  -23.6210  -29.8460   20.2260 C   0  0  0  0  0  2  0  0  0  0  0  0
  -24.6700  -31.0970   22.1550 N   0  0  0  0  0  0  0  0  0  0  0  0
  -23.5130  -32.2030   23.7730 O   0  0  0  0  0  0  0  0  0  0  0  0
  -22.7150  -29.5180   22.5640 C   0  0  0  0  0  0  0  0  0  0  0  0
  -21.3950  -29.3180   22.4020 N   0  0  0  0  0  0  0  0  0  0  0  0
  -23.3750  -28.9200   23.4180 O   0  0  0  0  0  0  0  0  0  0  0  0
  -20.9190  -29.8530   21.6880 H   0  0  0  0  0  0  0  0  0  0  0  0
  -18.0320  -28.0300   22.7940 C   0  0  0  0  0  0  0  0  0  0  0  0
  -20.5680  -28.3780   23.1640 C   0  0  0  0  0  3  0  0  0  0  0  0
  -20.7370  -26.9350   22.6360 C   0  0  0  0  0  2  0  0  0  0  0  0
  -19.6910  -26.5500   21.5850 C   0  0  0  0  0  2  0  0  0  0  0  0
  -18.2790  -26.6680   22.1660 C   0  0  0  0  0  2  0  0  0  0  0  0
  -19.1080  -28.8380   23.2480 C   0  0  0  0  0  0  0  0  0  0  0  0
  -18.8240  -30.1080   23.7950 C   0  0  0  0  0  3  0  0  0  0  0  0
  -17.4980  -30.5700   23.8950 C   0  0  0  0  0  3  0  0  0  0  0  0
  -16.4370  -29.7580   23.4600 C   0  0  0  0  0  3  0  0  0  0  0  0
  -16.7040  -28.4910   22.9130 C   0  0  0  0  0  3  0  0  0  0  0  0
  -25.8780  -32.5460   23.8810 C   0  0  0  0  0  3  0  0  0  0  0  0
  -26.3730  -31.7820   25.1710 C   0  0  1  0  0  0  0  0  0  0  0  0
  -25.2640  -31.5630   26.2270 C   0  0  0  0  0  1  0  0  0  0  0  0
  -26.9510  -30.3960   24.8030 C   0  0  0  0  0  1  0  0  0  0  0  0
  -27.5240  -32.5720   25.8390 C   0  0  0  0  0  1  0  0  0  0  0  0
  -25.5750  -33.9500   24.2010 N   0  0  0  0  0  0  0  0  0  0  0  0
  -25.8960  -34.9960   23.4280 C   0  0  0  0  0  0  0  0  0  0  0  0
  -26.5470  -34.8810   22.3860 O   0  0  0  0  0  0  0  0  0  0  0  0
  -24.9960  -34.1130   25.0120 H   0  0  0  0  0  0  0  0  0  0  0  0
  -24.1570  -36.7860   23.1070 C   0  0  0  0  0  1  0  0  0  0  0  0
  -25.4240  -36.3920   23.8840 C   0  0  0  0  0  3  0  0  0  0  0  0
  -27.5800  -37.2920   24.6410 C   0  0  0  0  0  1  0  0  0  0  0  0
  -26.4520  -37.4440   23.7250 N   0  0  0  0  0  0  0  0  0  0  0  0
  -26.0490  -38.3660   23.8670 H   0  0  0  0  0  0  0  0  0  0  0  0
  1  3  1  0
  1 44  1  0
  3  4  1  0
  3  2  2  0
  5  6  1  0
  5  7  1  0
  6  2  1  0
  6  7  1  0
  7  8  1  0
  9 14  1  0
 10 11  1  0
 10  9  1  0
 12 11  1  0
 12 19  1  0
 12 13  1  0
 14  8  1  0
 14 13  1  0
 15  8  2  0
 16 17  2  0
 17 36  1  0
 18 17  1  0
 18 21  1  0
 19 16  1  0
 19 20  1  0
 20 18  2  0
 21 22  1  0
 22 23  2  0
 24 27  1  0
 24 23  1  0
 25 24  2  0
 26 25  1  0
 26 21  2  0
 27 28  1  0
 28 29  1  0
 29 30  2  0
 31 30  1  0
 31 35  1  0
 32 31  2  0
 33 28  2  0
 33 32  1  0
 34 33  1  0
 36 37  1  0
 37 40  1  0
 37 39  1  0
 38 36  2  0
 41 42  1  0
 41 16  1  0
 43 41  1  0
 45 46  1  0
 45 44  2  0
 47 58  2  0
 48 46  1  0
 48 53  1  0
 49 57  1  0
 49 59  1  0
 50 56  1  0
 50 52  1  0
 51 57  1  0
 52 51  1  0
 53 52  2  0
 54 48  2  0
 55 54  1  0
 55 50  2  0
 56 49  1  0
 57 47  1  0
 59 61  2  0
 60 59  1  0
 62 60  1  0
 63 72  2  0
 63 68  1  0
 64 60  1  0
 64 68  1  0
 65 64  1  0
 66 67  1  0
 66 65  1  0
 67 63  1  0
 68 69  2  0
 69 70  1  0
 71 70  2  0
 72 71  1  0
 73 47  1  0
 73 78  1  0
 73 74  1  0
 74 77  1  1
 74 75  1  0
 76 74  1  0
 78 81  1  0
 79 83  1  0
 79 78  1  0
 80 79  2  0
 83 82  1  0
 85 86  1  0
 85 83  1  0
 85 84  1  0
M  ISO  4   7 100   8 100  45 101  46 101
M  END
>  <TORSDO>  (24) 
F 20

>  <SCORE>  (24) 
-14.534

>  <name>  (24) 
23

>  <ligand_id>  (24) 
23

>  <original_smiles>  (24) 
[H]C(=C(C([H])([H])[H])C([H])([H])C([H])([H])C([H])([H])Oc1c([H])c([H])c2c(c1[H])C([H])([H])N(C(=O)C([H])(N([H])C(=O)C([H])(N([H])C([H])([H])[H])C([H])([H])[H])C(C([H])([H])[H])(C([H])([H])[H])C([H])([H])[H])C([H])(C(=O)N([H])C1([H])c3c([H])c([H])c([H])c([H])c3C([H])([H])C([H])([H])C1([H])[H])C2([H])[H])C1([H])C([H])([H])C1([H])C(=O)N1C([H])([H])C([H])([H])C([H])([H])C([H])(n2nc(-c3c([H])c([H])c(Oc4c([H])c([H])c(F)c([H])c4F)c([H])c3[H])c(C(=O)N([H])[H])c2N([H])[H])C1([H])[H]

>  <smiles>  (24) 
[H]C(=C(C([H])([H])[H])C([H])([H])C([H])([H])C([H])([H])Oc1c([H])c([H])c2c(c1[H])C([H])([H])N(C(=O)C([H])(N([H])C(=O)C([H])(N([H])C([H])([H])[H])C([H])([H])[H])C(C([H])([H])[H])(C([H])([H])[H])C([H])([H])[H])C([H])(C(=O)N([H])C1([H])c3c([H])c([H])c([H])c([H])c3C([H])([H])C([H])([H])C1([H])[H])C2([H])[H])C1([H])C([H])([H])C1([H])C(=O)N1C([H])([H])C([H])([H])C([H])([H])C([H])(n2nc(-c3c([H])c([H])c(Oc4c([H])c([H])c(F)c([H])c4F)c([H])c3[H])c(C(=O)N([H])[H])c2N([H])[H])C1([H])[H]

$$$$
24:0:0
     RDKit          3D

 84 91  0  0  1  0  0  0  0  0999 V2000
  -29.0040  -22.3820   20.2880 C   0  0  0  0  0  3  0  0  0  0  0  0
  -28.7070  -20.5750   20.2880 C   0  0  0  0  0  0  0  0  0  0  0  0
  -27.5050  -20.3050   20.3150 O   0  0  0  0  0  0  0  0  0  0  0  0
  -30.9120  -19.3480   21.2050 C   0  0  0  0  0  1  0  0  0  0  0  0
  -29.7410  -19.0630   20.2540 C   0  0  0  0  0  3  0  0  0  0  0  0
  -29.4380  -17.1940   20.3660 C   0  0  0  0  0  2  0  0  0  0  0  0
  -30.3140  -15.5930   20.1460 C   0  0  0  0  0  0  0  0  0  0  0  0
  -30.3950  -13.0880   19.2750 C   0  0  0  0  0  2  0  0  0  0  0  0
  -29.4510  -12.7990   18.0740 C   0  0  0  0  0  2  0  0  0  0  0  0
  -28.0280  -12.4630   18.5530 C   0  0  0  0  0  2  0  0  0  0  0  0
  -27.5740  -13.4190   19.6800 C   0  0  0  0  0  3  0  0  0  0  0  0
  -28.6450  -13.6350   20.7700 C   0  0  0  0  0  2  0  0  0  0  0  0
  -29.8310  -14.2250   20.1180 N   0  0  0  0  0  0  0  0  0  0  0  0
  -31.5270  -15.5850   19.8690 O   0  0  0  0  0  0  0  0  0  0  0  0
  -25.2340  -13.9250   20.5390 C   0  0  0  0  0  0  0  0  0  0  0  0
  -24.1920  -13.1310   20.9240 C   0  0  0  0  0  0  0  0  0  0  0  0
  -24.6680  -11.7850   20.8450 C   0  0  0  0  0  0  0  0  0  0  0  0
  -26.2720  -13.0670   20.2330 N   0  0  0  0  0  0  0  0  0  0  0  0
  -25.9490  -11.7700   20.4860 N   0  0  0  0  0  0  0  0  0  0  0  0
  -23.9540  -10.5140   21.0300 C   0  0  0  0  0  0  0  0  0  0  0  0
  -24.4030   -9.5400   21.9480 C   0  0  0  0  0  3  0  0  0  0  0  0
  -23.6860   -8.3360   22.1240 C   0  0  0  0  0  3  0  0  0  0  0  0
  -22.5050   -8.0980   21.3820 C   0  0  0  0  0  0  0  0  0  0  0  0
  -22.0760   -9.0610   20.4510 C   0  0  0  0  0  3  0  0  0  0  0  0
  -22.7930  -10.2550   20.2750 C   0  0  0  0  0  3  0  0  0  0  0  0
  -21.7590   -6.9480   21.4670 O   0  0  0  0  0  0  0  0  0  0  0  0
  -21.6990   -6.2120   22.6230 C   0  0  0  0  0  0  0  0  0  0  0  0
  -21.2190   -6.7610   23.8320 C   0  0  0  0  0  3  0  0  0  0  0  0
  -21.1090   -5.9510   24.9790 C   0  0  0  0  0  3  0  0  0  0  0  0
  -21.4690   -4.5920   24.9190 C   0  0  0  0  0  0  0  0  0  0  0  0
  -21.9420   -4.0410   23.7150 C   0  0  0  0  0  3  0  0  0  0  0  0
  -22.0530   -4.8490   22.5700 C   0  0  0  0  0  0  0  0  0  0  0  0
  -22.4900   -4.3080   21.4060 F   0  0  0  0  0  0  0  0  0  0  0  0
  -21.3570   -3.8100   26.0180 F   0  0  0  0  0  0  0  0  0  0  0  0
  -22.8010  -13.5920   21.2490 C   0  0  0  0  0  0  0  0  0  0  0  0
  -22.1080  -12.8770   22.1280 N   0  0  0  0  0  0  0  0  0  0  0  0
  -22.3390  -14.6220   20.7580 O   0  0  0  0  0  0  0  0  0  0  0  0
  -22.4960  -12.0450   22.5470 H   0  0  0  0  0  0  0  0  0  0  0  0
  -21.1770  -13.1680   22.3890 H   0  0  0  0  0  0  0  0  0  0  0  0
  -25.3810  -15.3020   20.3920 N   0  0  0  0  0  0  0  0  0  0  0  0
  -24.6150  -15.9470   20.5550 H   0  0  0  0  0  0  0  0  0  0  0  0
  -26.2180  -15.7590   20.0550 H   0  0  0  0  0  0  0  0  0  0  0  0
  -27.9930  -23.9900   20.2160 C   0  0  0  0  0  3  0  0  0  0  0  0
  -28.1970  -25.7020   20.3100 O   0  0  0  0  0  0  0  0  0  0  0  0
  -24.6780  -31.8810   23.2550 C   0  0  0  0  0  0  0  0  0  0  0  0
  -27.2060  -26.8710   20.2580 C   0  0  0  0  0  0  0  0  0  0  0  0
  -23.4860  -30.4900   21.6150 C   0  0  0  0  0  3  0  0  0  0  0  0
  -24.9310  -28.8530   20.2000 C   0  0  0  0  0  0  0  0  0  0  0  0
  -26.0610  -30.6500   21.4870 C   0  0  0  0  0  2  0  0  0  0  0  0
  -26.1250  -29.2260   20.8290 C   0  0  0  0  0  0  0  0  0  0  0  0
  -27.2510  -28.2610   20.8260 C   0  0  0  0  0  3  0  0  0  0  0  0
  -25.9790  -26.6860   19.5780 C   0  0  0  0  0  3  0  0  0  0  0  0
  -24.8920  -27.6080   19.5510 C   0  0  0  0  0  3  0  0  0  0  0  0
  -23.7220  -29.7970   20.2430 C   0  0  0  0  0  2  0  0  0  0  0  0
  -24.7650  -31.0380   22.1710 N   0  0  0  0  0  0  0  0  0  0  0  0
  -23.5860  -32.1790   23.7690 O   0  0  0  0  0  0  0  0  0  0  0  0
  -22.7730  -29.5070   22.5830 C   0  0  0  0  0  0  0  0  0  0  0  0
  -21.4420  -29.3510   22.4530 N   0  0  0  0  0  0  0  0  0  0  0  0
  -23.4280  -28.8830   23.4210 O   0  0  0  0  0  0  0  0  0  0  0  0
  -20.9640  -29.9050   21.7560 H   0  0  0  0  0  0  0  0  0  0  0  0
  -18.0520  -28.1450   22.9540 C   0  0  0  0  0  0  0  0  0  0  0  0
  -20.6110  -28.4160   23.2230 C   0  0  0  0  0  3  0  0  0  0  0  0
  -20.7150  -26.9820   22.6520 C   0  0  0  0  0  2  0  0  0  0  0  0
  -19.6170  -26.6570   21.6340 C   0  0  0  0  0  2  0  0  0  0  0  0
  -18.2330  -26.7980   22.2740 C   0  0  0  0  0  2  0  0  0  0  0  0
  -19.1680  -28.9120   23.3850 C   0  0  0  0  0  0  0  0  0  0  0  0
  -18.9420  -30.1690   23.9850 C   0  0  0  0  0  3  0  0  0  0  0  0
  -17.6340  -30.6620   24.1550 C   0  0  0  0  0  3  0  0  0  0  0  0
  -16.5340  -29.8940   23.7370 C   0  0  0  0  0  3  0  0  0  0  0  0
  -16.7430  -28.6370   23.1430 C   0  0  0  0  0  3  0  0  0  0  0  0
  -25.9450  -32.5240   23.8960 C   0  0  0  0  0  3  0  0  0  0  0  0
  -26.4390  -31.7600   25.1880 C   0  0  1  0  0  0  0  0  0  0  0  0
  -25.3310  -31.5370   26.2440 C   0  0  0  0  0  1  0  0  0  0  0  0
  -27.0220  -30.3760   24.8250 C   0  0  0  0  0  1  0  0  0  0  0  0
  -27.5850  -32.5550   25.8590 C   0  0  0  0  0  1  0  0  0  0  0  0
  -25.6270  -33.9250   24.2340 N   0  0  0  0  0  0  0  0  0  0  0  0
  -25.9350  -34.9890   23.4790 C   0  0  0  0  0  0  0  0  0  0  0  0
  -26.5750  -34.8940   22.4290 O   0  0  0  0  0  0  0  0  0  0  0  0
  -25.0530  -34.0700   25.0510 H   0  0  0  0  0  0  0  0  0  0  0  0
  -24.1810  -36.7790   23.2130 C   0  0  0  0  0  1  0  0  0  0  0  0
  -25.4620  -36.3760   23.9630 C   0  0  0  0  0  3  0  0  0  0  0  0
  -27.6220  -37.2860   24.7000 C   0  0  0  0  0  1  0  0  0  0  0  0
  -26.4810  -37.4370   23.8010 N   0  0  0  0  0  0  0  0  0  0  0  0
  -26.0730  -38.3550   23.9580 H   0  0  0  0  0  0  0  0  0  0  0  0
  2  1  1  0
  2  3  2  0
  5  2  1  0
  5  6  1  0
  5  4  1  0
  7  6  1  0
  8 13  1  0
  9 10  1  0
  9  8  1  0
 11 10  1  0
 11 18  1  0
 11 12  1  0
 13  7  1  0
 13 12  1  0
 14  7  2  0
 15 16  2  0
 16 35  1  0
 17 16  1  0
 17 20  1  0
 18 19  1  0
 18 15  1  0
 19 17  2  0
 20 21  1  0
 21 22  2  0
 23 26  1  0
 23 22  1  0
 24 23  2  0
 25 24  1  0
 25 20  2  0
 26 27  1  0
 27 28  1  0
 28 29  2  0
 30 29  1  0
 30 34  1  0
 31 30  2  0
 32 27  2  0
 32 31  1  0
 33 32  1  0
 35 36  1  0
 36 39  1  0
 36 38  1  0
 37 35  2  0
 40 15  1  0
 40 41  1  0
 42 40  1  0
 43  1  2  0
 43 44  1  0
 45 56  2  0
 46 44  1  0
 46 51  1  0
 47 55  1  0
 47 57  1  0
 48 54  1  0
 48 50  1  0
 49 55  1  0
 50 49  1  0
 51 50  2  0
 52 46  2  0
 53 52  1  0
 53 48  2  0
 54 47  1  0
 55 45  1  0
 57 59  2  0
 58 57  1  0
 60 58  1  0
 61 70  2  0
 61 66  1  0
 62 58  1  0
 62 66  1  0
 63 62  1  0
 64 65  1  0
 64 63  1  0
 65 61  1  0
 66 67  2  0
 67 68  1  0
 69 68  2  0
 70 69  1  0
 71 45  1  0
 71 76  1  0
 71 72  1  0
 72 75  1  1
 72 73  1  0
 74 72  1  0
 76 79  1  0
 77 81  1  0
 77 76  1  0
 78 77  2  0
 81 80  1  0
 83 84  1  0
 83 81  1  0
 83 82  1  0
M  ISO  4   6 100   7 100  43 101  44 101
M  END
>  <TORSDO>  (25) 
F 20

>  <SCORE>  (25) 
-16.330

>  <name>  (25) 
24

>  <ligand_id>  (25) 
24

>  <original_smiles>  (25) 
[H]c1c([H])c([H])c2c(c1[H])C([H])([H])C([H])([H])C([H])([H])C2([H])N([H])C(=O)C1([H])N(C(=O)C([H])(N([H])C(=O)C([H])(N([H])C([H])([H])[H])C([H])([H])[H])C(C([H])([H])[H])(C([H])([H])[H])C([H])([H])[H])C([H])([H])c2c([H])c(OC([H])([H])C([H])([H])C(=O)C([H])(C([H])([H])[H])C([H])([H])C(=O)N3C([H])([H])C([H])([H])C([H])([H])C([H])(n4nc(-c5c([H])c([H])c(Oc6c([H])c([H])c(F)c([H])c6F)c([H])c5[H])c(C(=O)N([H])[H])c4N([H])[H])C3([H])[H])c([H])c([H])c2C1([H])[H]

>  <smiles>  (25) 
[H]c1c([H])c([H])c2c(c1[H])C([H])([H])C([H])([H])C([H])([H])C2([H])N([H])C(=O)C1([H])N(C(=O)C([H])(N([H])C(=O)C([H])(N([H])C([H])([H])[H])C([H])([H])[H])C(C([H])([H])[H])(C([H])([H])[H])C([H])([H])[H])C([H])([H])c2c([H])c(OC([H])([H])C([H])([H])C(=O)C([H])(C([H])([H])[H])C([H])([H])C(=O)N3C([H])([H])C([H])([H])C([H])([H])C([H])(n4nc(-c5c([H])c([H])c(Oc6c([H])c([H])c(F)c([H])c6F)c([H])c5[H])c(C(=O)N([H])[H])c4N([H])[H])C3([H])[H])c([H])c([H])c2C1([H])[H]

$$$$
25:0:0
     RDKit          3D

 92100  0  0  1  0  0  0  0  0999 V2000
  -30.6470  -19.7760   18.4670 C   0  0  0  0  0  0  0  0  0  0  0  0
  -31.0440  -21.6460   16.9760 C   0  0  0  0  0  1  0  0  0  0  0  0
  -30.7350  -21.1320   18.3200 N   0  0  0  0  0  0  0  0  0  0  0  0
  -30.4750  -19.0490   17.4820 O   0  0  0  0  0  0  0  0  0  0  0  0
  -31.8940  -18.8680   22.0030 C   0  0  0  0  0  3  0  0  0  0  0  0
  -31.6770  -19.5920   20.8140 C   0  0  0  0  0  3  0  0  0  0  0  0
  -31.3010  -17.6040   22.1840 C   0  0  0  0  0  3  0  0  0  0  0  0
  -30.2410  -17.8070   20.0020 C   0  0  0  0  0  3  0  0  0  0  0  0
  -30.8180  -19.0890   19.8080 C   0  0  0  0  0  0  0  0  0  0  0  0
  -30.4930  -17.0490   21.1720 C   0  0  0  0  0  0  0  0  0  0  0  0
  -29.8840  -15.6550   21.3550 C   0  0  0  0  0  2  0  0  0  0  0  0
  -30.5620  -14.5380   20.5180 C   0  0  0  0  0  0  0  0  0  0  0  0
  -30.2890  -12.4070   19.2890 C   0  0  0  0  0  2  0  0  0  0  0  0
  -29.3200  -12.6200   18.1080 C   0  0  0  0  0  2  0  0  0  0  0  0
  -27.8570  -12.4410   18.5630 C   0  0  0  0  0  2  0  0  0  0  0  0
  -27.5270  -13.2570   19.8400 C   0  0  0  0  0  3  0  0  0  0  0  0
  -28.6020  -13.0230   20.9260 C   0  0  0  0  0  2  0  0  0  0  0  0
  -29.9140  -13.3550   20.3480 N   0  0  0  0  0  0  0  0  0  0  0  0
  -31.6460  -14.7710   19.9690 O   0  0  0  0  0  0  0  0  0  0  0  0
  -25.1290  -13.8250   20.5870 C   0  0  0  0  0  0  0  0  0  0  0  0
  -24.0770  -13.0320   20.9600 C   0  0  0  0  0  0  0  0  0  0  0  0
  -24.5580  -11.6880   20.9060 C   0  0  0  0  0  0  0  0  0  0  0  0
  -26.1840  -12.9620   20.3330 N   0  0  0  0  0  0  0  0  0  0  0  0
  -25.8440  -11.6700   20.5790 N   0  0  0  0  0  0  0  0  0  0  0  0
  -23.8530  -10.4130   21.0890 C   0  0  0  0  0  0  0  0  0  0  0  0
  -24.3100   -9.4440   22.0070 C   0  0  0  0  0  3  0  0  0  0  0  0
  -23.6050   -8.2330   22.1790 C   0  0  0  0  0  3  0  0  0  0  0  0
  -22.4300   -7.9840   21.4300 C   0  0  0  0  0  0  0  0  0  0  0  0
  -21.9930   -8.9430   20.5000 C   0  0  0  0  0  3  0  0  0  0  0  0
  -22.6980  -10.1460   20.3270 C   0  0  0  0  0  3  0  0  0  0  0  0
  -21.6960   -6.8240   21.5100 O   0  0  0  0  0  0  0  0  0  0  0  0
  -21.6730   -6.0660   22.6530 C   0  0  0  0  0  0  0  0  0  0  0  0
  -21.2370   -6.5920   23.8880 C   0  0  0  0  0  3  0  0  0  0  0  0
  -21.1620   -5.7580   25.0220 C   0  0  0  0  0  3  0  0  0  0  0  0
  -21.5140   -4.3990   24.9210 C   0  0  0  0  0  0  0  0  0  0  0  0
  -21.9400   -3.8710   23.6900 C   0  0  0  0  0  3  0  0  0  0  0  0
  -22.0170   -4.7030   22.5580 C   0  0  0  0  0  0  0  0  0  0  0  0
  -22.4090   -4.1830   21.3700 F   0  0  0  0  0  0  0  0  0  0  0  0
  -21.4350   -3.5960   26.0090 F   0  0  0  0  0  0  0  0  0  0  0  0
  -22.6770  -13.4870   21.2540 C   0  0  0  0  0  0  0  0  0  0  0  0
  -21.9680  -12.7710   22.1200 N   0  0  0  0  0  0  0  0  0  0  0  0
  -22.2180  -14.5130   20.7530 O   0  0  0  0  0  0  0  0  0  0  0  0
  -22.3510  -11.9450   22.5560 H   0  0  0  0  0  0  0  0  0  0  0  0
  -21.0270  -13.0550   22.3480 H   0  0  0  0  0  0  0  0  0  0  0  0
  -25.2670  -15.2000   20.4230 N   0  0  0  0  0  0  0  0  0  0  0  0
  -24.4890  -15.8370   20.5510 H   0  0  0  0  0  0  0  0  0  0  0  0
  -26.1060  -15.6610   20.0940 H   0  0  0  0  0  0  0  0  0  0  0  0
  -30.6090  -22.1920   19.3430 C   0  0  0  0  0  2  0  0  0  0  0  0
  -29.3960  -23.1270   19.1040 C   0  0  0  0  0  2  0  0  0  0  0  0
  -29.4730  -24.4710   19.8740 C   0  0  0  0  0  2  0  0  0  0  0  0
  -28.2130  -25.3340   19.6630 C   0  0  0  0  0  2  0  0  0  0  0  0
  -28.3420  -26.7150   20.0600 O   0  0  0  0  0  0  0  0  0  0  0  0
  -24.5780  -31.9050   23.2170 C   0  0  0  0  0  0  0  0  0  0  0  0
  -27.1800  -27.4720   20.0590 C   0  0  0  0  0  0  0  0  0  0  0  0
  -23.3600  -30.5290   21.5710 C   0  0  0  0  0  3  0  0  0  0  0  0
  -24.7950  -29.0130   20.1150 C   0  0  0  0  0  0  0  0  0  0  0  0
  -25.8910  -30.8780   21.3600 C   0  0  0  0  0  2  0  0  0  0  0  0
  -25.9660  -29.5160   20.6950 C   0  0  0  0  0  0  0  0  0  0  0  0
  -27.1610  -28.7560   20.6630 C   0  0  0  0  0  3  0  0  0  0  0  0
  -25.9760  -26.9930   19.4850 C   0  0  0  0  0  3  0  0  0  0  0  0
  -24.7950  -27.7490   19.5110 C   0  0  0  0  0  3  0  0  0  0  0  0
  -23.5580  -29.8790   20.1790 C   0  0  0  0  0  2  0  0  0  0  0  0
  -24.6290  -31.1180   22.1070 N   0  0  0  0  0  0  0  0  0  0  0  0
  -23.5000  -32.1700   23.7670 O   0  0  0  0  0  0  0  0  0  0  0  0
  -22.7180  -29.4890   22.5190 C   0  0  0  0  0  0  0  0  0  0  0  0
  -21.3930  -29.3000   22.3930 N   0  0  0  0  0  0  0  0  0  0  0  0
  -23.4060  -28.8580   23.3250 O   0  0  0  0  0  0  0  0  0  0  0  0
  -20.8980  -29.8630   21.7140 H   0  0  0  0  0  0  0  0  0  0  0  0
  -18.0260  -28.0840   22.8890 C   0  0  0  0  0  0  0  0  0  0  0  0
  -20.5830  -28.3500   23.1560 C   0  0  0  0  0  3  0  0  0  0  0  0
  -20.6910  -26.9260   22.5660 C   0  0  0  0  0  2  0  0  0  0  0  0
  -19.5870  -26.6070   21.5510 C   0  0  0  0  0  2  0  0  0  0  0  0
  -18.2060  -26.7420   22.2000 C   0  0  0  0  0  2  0  0  0  0  0  0
  -19.1420  -28.8460   23.3240 C   0  0  0  0  0  0  0  0  0  0  0  0
  -18.9200  -30.1030   23.9270 C   0  0  0  0  0  3  0  0  0  0  0  0
  -17.6130  -30.5980   24.0990 C   0  0  0  0  0  3  0  0  0  0  0  0
  -16.5110  -29.8320   23.6810 C   0  0  0  0  0  3  0  0  0  0  0  0
  -16.7190  -28.5770   23.0820 C   0  0  0  0  0  3  0  0  0  0  0  0
  -25.8680  -32.5300   23.8350 C   0  0  0  0  0  3  0  0  0  0  0  0
  -25.5650  -33.9300   24.1640 N   0  0  0  0  0  0  0  0  0  0  0  0
  -25.9100  -34.9790   23.4070 C   0  0  0  0  0  0  0  0  0  0  0  0
  -26.5860  -34.8710   22.3800 O   0  0  0  0  0  0  0  0  0  0  0  0
  -24.9690  -34.0890   24.9620 H   0  0  0  0  0  0  0  0  0  0  0  0
  -24.2050  -36.7900   23.0290 C   0  0  0  0  0  1  0  0  0  0  0  0
  -25.4280  -36.3710   23.8610 C   0  0  0  0  0  3  0  0  0  0  0  0
  -27.5550  -37.2310   24.7330 C   0  0  0  0  0  1  0  0  0  0  0  0
  -26.4740  -37.4140   23.7690 N   0  0  0  0  0  0  0  0  0  0  0  0
  -26.0750  -38.3380   23.9100 H   0  0  0  0  0  0  0  0  0  0  0  0
  -26.3820  -31.7570   25.1110 C   0  0  1  0  0  0  0  0  0  0  0  0
  -25.2880  -31.5250   26.1810 C   0  0  0  0  0  1  0  0  0  0  0  0
  -26.9580  -30.3780   24.7170 C   0  0  0  0  0  1  0  0  0  0  0  0
  -27.5360  -32.5470   25.7710 C   0  0  0  0  0  1  0  0  0  0  0  0
  1  9  1  0
  2  3  1  0
  3  1  1  0
  3 48  1  0
  4  1  2  0
  5  7  1  0
  6  5  2  0
  8 10  1  0
  9  8  2  0
  9  6  1  0
 10 11  1  0
 10  7  2  0
 12 11  1  0
 13 18  1  0
 14 15  1  0
 14 13  1  0
 16 15  1  0
 16 23  1  0
 16 17  1  0
 18 12  1  0
 18 17  1  0
 19 12  2  0
 20 21  2  0
 21 40  1  0
 22 21  1  0
 22 25  1  0
 23 24  1  0
 23 20  1  0
 24 22  2  0
 25 26  1  0
 26 27  2  0
 28 31  1  0
 28 27  1  0
 29 28  2  0
 30 29  1  0
 30 25  2  0
 31 32  1  0
 32 33  1  0
 33 34  2  0
 35 34  1  0
 35 39  1  0
 36 35  2  0
 37 32  2  0
 37 36  1  0
 38 37  1  0
 40 41  1  0
 41 44  1  0
 41 43  1  0
 42 40  2  0
 45 46  1  0
 45 20  1  0
 47 45  1  0
 49 48  1  0
 49 50  1  0
 51 50  1  0
 51 52  1  0
 53 64  2  0
 54 52  1  0
 54 59  1  0
 55 63  1  0
 55 65  1  0
 56 62  1  0
 56 58  1  0
 57 63  1  0
 58 57  1  0
 59 58  2  0
 60 61  1  0
 60 54  2  0
 61 56  2  0
 62 55  1  0
 63 53  1  0
 65 67  2  0
 66 65  1  0
 68 66  1  0
 69 78  2  0
 69 74  1  0
 70 66  1  0
 70 74  1  0
 71 70  1  0
 72 73  1  0
 72 71  1  0
 73 69  1  0
 74 75  2  0
 75 76  1  0
 77 76  2  0
 78 77  1  0
 79 53  1  0
 79 80  1  0
 79 89  1  0
 80 83  1  0
 81 85  1  0
 81 80  1  0
 82 81  2  0
 85 84  1  0
 87 85  1  0
 87 88  1  0
 87 86  1  0
 89 92  1  1
 89 90  1  0
 91 89  1  0
M  ISO  4  11 100  12 100  51 101  52 101
M  END
>  <TORSDO>  (26) 
F 22

>  <SCORE>  (26) 
-12.986

>  <name>  (26) 
25

>  <ligand_id>  (26) 
25

>  <original_smiles>  (26) 
[H]c1c([H])c(C(=O)N(C([H])([H])[H])C([H])([H])C([H])([H])C([H])([H])C([H])([H])Oc2c([H])c([H])c3c(c2[H])C([H])([H])N(C(=O)C([H])(N([H])C(=O)C([H])(N([H])C([H])([H])[H])C([H])([H])[H])C(C([H])([H])[H])(C([H])([H])[H])C([H])([H])[H])C([H])(C(=O)N([H])C2([H])c4c([H])c([H])c([H])c([H])c4C([H])([H])C([H])([H])C2([H])[H])C3([H])[H])c([H])c(C([H])([H])C(=O)N2C([H])([H])C([H])([H])C([H])([H])C([H])(n3nc(-c4c([H])c([H])c(Oc5c([H])c([H])c(F)c([H])c5F)c([H])c4[H])c(C(=O)N([H])[H])c3N([H])[H])C2([H])[H])c1[H]

>  <smiles>  (26) 
[H]c1c([H])c(C(=O)N(C([H])([H])[H])C([H])([H])C([H])([H])C([H])([H])C([H])([H])Oc2c([H])c([H])c3c(c2[H])C([H])([H])N(C(=O)C([H])(N([H])C(=O)C([H])(N([H])C([H])([H])[H])C([H])([H])[H])C(C([H])([H])[H])(C([H])([H])[H])C([H])([H])[H])C([H])(C(=O)N([H])C2([H])c4c([H])c([H])c([H])c([H])c4C([H])([H])C([H])([H])C2([H])[H])C3([H])[H])c([H])c(C([H])([H])C(=O)N2C([H])([H])C([H])([H])C([H])([H])C([H])(n3nc(-c4c([H])c([H])c(Oc5c([H])c([H])c(F)c([H])c5F)c([H])c4[H])c(C(=O)N([H])[H])c3N([H])[H])C2([H])[H])c1[H]

$$$$
26:0:0
     RDKit          3D

 92100  0  0  1  0  0  0  0  0999 V2000
  -28.9440  -21.7400   20.4210 N   0  0  0  0  0  4  0  0  0  0  0  0
  -28.6170  -21.9370   21.3530 H   0  0  0  0  0  0  0  0  0  0  0  0
  -28.2700  -21.1160   20.0040 H   0  0  0  0  0  0  0  0  0  0  0  0
  -30.1600  -19.6400   21.1730 C   0  0  0  0  0  3  0  0  0  0  0  0
  -31.1830  -21.7110   21.5100 C   0  0  0  0  0  2  0  0  0  0  0  0
  -30.2490  -21.0180   20.5140 C   0  0  0  0  0  3  0  0  0  0  0  0
  -30.9800  -20.9030   22.8060 C   0  0  0  0  0  3  0  0  0  0  0  0
  -32.2430  -20.7870   23.6700 C   0  0  0  0  0  1  0  0  0  0  0  0
  -30.5350  -19.5900   22.3840 N   0  0  0  0  0  2  0  0  0  0  0  0
  -29.7070  -18.4080   20.3790 C   0  0  0  0  0  2  0  0  0  0  0  0
  -30.7440  -17.2340   20.2980 C   0  0  0  0  0  2  0  0  0  0  0  0
  -30.3930  -15.9090   21.0540 C   0  0  0  0  0  2  0  0  0  0  0  0
  -31.1280  -14.6390   20.5240 C   0  0  0  0  0  0  0  0  0  0  0  0
  -30.8430  -12.4560   19.3960 C   0  0  0  0  0  2  0  0  0  0  0  0
  -29.9320  -12.6550   18.1660 C   0  0  0  0  0  2  0  0  0  0  0  0
  -28.4450  -12.5470   18.5590 C   0  0  0  0  0  2  0  0  0  0  0  0
  -28.0940  -13.4150   19.7950 C   0  0  0  0  0  3  0  0  0  0  0  0
  -29.1150  -13.1950   20.9330 C   0  0  0  0  0  2  0  0  0  0  0  0
  -30.4570  -13.4620   20.4000 N   0  0  0  0  0  0  0  0  0  0  0  0
  -32.2820  -14.7720   20.1030 O   0  0  0  0  0  0  0  0  0  0  0  0
  -25.7000  -14.1000   20.4480 C   0  0  0  0  0  0  0  0  0  0  0  0
  -24.6000  -13.3610   20.7940 C   0  0  0  0  0  0  0  0  0  0  0  0
  -25.0210  -11.9960   20.7790 C   0  0  0  0  0  0  0  0  0  0  0  0
  -26.7230  -13.1850   20.2440 N   0  0  0  0  0  0  0  0  0  0  0  0
  -26.3160  -11.9160   20.5000 N   0  0  0  0  0  0  0  0  0  0  0  0
  -24.2540  -10.7580   20.9550 C   0  0  0  0  0  0  0  0  0  0  0  0
  -24.6240   -9.7900   21.9160 C   0  0  0  0  0  3  0  0  0  0  0  0
  -23.8620   -8.6140   22.0780 C   0  0  0  0  0  3  0  0  0  0  0  0
  -22.7140   -8.3960   21.2790 C   0  0  0  0  0  0  0  0  0  0  0  0
  -22.3640   -9.3520   20.3070 C   0  0  0  0  0  3  0  0  0  0  0  0
  -23.1280  -10.5190   20.1440 C   0  0  0  0  0  3  0  0  0  0  0  0
  -21.9260   -7.2720   21.3480 O   0  0  0  0  0  0  0  0  0  0  0  0
  -21.7860   -6.5630   22.5140 C   0  0  0  0  0  0  0  0  0  0  0  0
  -21.2980   -7.1620   23.6950 C   0  0  0  0  0  3  0  0  0  0  0  0
  -21.1040   -6.3800   24.8510 C   0  0  0  0  0  3  0  0  0  0  0  0
  -21.3880   -5.0020   24.8260 C   0  0  0  0  0  0  0  0  0  0  0  0
  -21.8700   -4.4030   23.6490 C   0  0  0  0  0  3  0  0  0  0  0  0
  -22.0670   -5.1820   22.4950 C   0  0  0  0  0  0  0  0  0  0  0  0
  -22.5100   -4.5970   21.3570 F   0  0  0  0  0  0  0  0  0  0  0  0
  -21.1950   -4.2490   25.9350 F   0  0  0  0  0  0  0  0  0  0  0  0
  -23.2110  -13.8800   21.0320 C   0  0  0  0  0  0  0  0  0  0  0  0
  -22.4470  -13.2130   21.8910 N   0  0  0  0  0  0  0  0  0  0  0  0
  -22.8110  -14.9110   20.4910 O   0  0  0  0  0  0  0  0  0  0  0  0
  -22.7840  -12.3800   22.3500 H   0  0  0  0  0  0  0  0  0  0  0  0
  -21.5140  -13.5390   22.0950 H   0  0  0  0  0  0  0  0  0  0  0  0
  -25.9140  -15.4640   20.2710 N   0  0  0  0  0  0  0  0  0  0  0  0
  -25.1720  -16.1490   20.3650 H   0  0  0  0  0  0  0  0  0  0  0  0
  -26.7900  -15.8680   19.9630 H   0  0  0  0  0  0  0  0  0  0  0  0
  -28.9640  -22.9910   19.6010 C   0  0  0  0  0  2  0  0  0  0  0  0
  -28.1620  -24.1970   20.1860 C   0  0  0  0  0  2  0  0  0  0  0  0
  -28.2180  -25.4670   19.2830 C   0  0  0  0  0  2  0  0  0  0  0  0
  -28.0830  -26.7300   19.9640 O   0  0  0  0  0  0  0  0  0  0  0  0
  -24.4930  -31.9330   23.2130 C   0  0  0  0  0  0  0  0  0  0  0  0
  -26.8990  -27.4460   19.9820 C   0  0  0  0  0  0  0  0  0  0  0  0
  -23.1830  -30.5750   21.6130 C   0  0  0  0  0  3  0  0  0  0  0  0
  -24.5360  -29.0140   20.1080 C   0  0  0  0  0  0  0  0  0  0  0  0
  -25.7010  -30.8770   21.3020 C   0  0  0  0  0  2  0  0  0  0  0  0
  -25.7270  -29.5050   20.6530 C   0  0  0  0  0  0  0  0  0  0  0  0
  -26.9060  -28.7260   20.5900 C   0  0  0  0  0  3  0  0  0  0  0  0
  -25.6850  -26.9700   19.4350 C   0  0  0  0  0  3  0  0  0  0  0  0
  -24.5110  -27.7460   19.4960 C   0  0  0  0  0  3  0  0  0  0  0  0
  -23.3140  -29.9030   20.2190 C   0  0  0  0  0  2  0  0  0  0  0  0
  -24.4800  -31.1440   22.1010 N   0  0  0  0  0  0  0  0  0  0  0  0
  -23.4450  -32.2220   23.8070 O   0  0  0  0  0  0  0  0  0  0  0  0
  -22.5520  -29.5600   22.5940 C   0  0  0  0  0  0  0  0  0  0  0  0
  -21.2270  -29.3710   22.4920 N   0  0  0  0  0  0  0  0  0  0  0  0
  -23.2520  -28.9440   23.4030 O   0  0  0  0  0  0  0  0  0  0  0  0
  -20.7220  -29.9200   21.8090 H   0  0  0  0  0  0  0  0  0  0  0  0
  -17.8820  -28.1010   22.9890 C   0  0  0  0  0  0  0  0  0  0  0  0
  -20.4270  -28.4360   23.2820 C   0  0  0  0  0  3  0  0  0  0  0  0
  -20.5740  -26.9900   22.7520 C   0  0  0  0  0  2  0  0  0  0  0  0
  -19.4940  -26.6070   21.7360 C   0  0  0  0  0  2  0  0  0  0  0  0
  -18.1020  -26.7350   22.3600 C   0  0  0  0  0  2  0  0  0  0  0  0
  -18.9740  -28.9060   23.4080 C   0  0  0  0  0  0  0  0  0  0  0  0
  -18.7150  -30.1800   23.9550 C   0  0  0  0  0  3  0  0  0  0  0  0
  -17.3950  -30.6510   24.0900 C   0  0  0  0  0  3  0  0  0  0  0  0
  -16.3170  -29.8440   23.6890 C   0  0  0  0  0  3  0  0  0  0  0  0
  -16.5610  -28.5710   23.1430 C   0  0  0  0  0  3  0  0  0  0  0  0
  -25.8190  -32.5300   23.7790 C   0  0  0  0  0  3  0  0  0  0  0  0
  -25.5530  -33.9270   24.1470 N   0  0  0  0  0  0  0  0  0  0  0  0
  -25.8740  -34.9870   23.3910 C   0  0  0  0  0  0  0  0  0  0  0  0
  -26.4950  -34.8890   22.3290 O   0  0  0  0  0  0  0  0  0  0  0  0
  -24.9980  -34.0770   24.9760 H   0  0  0  0  0  0  0  0  0  0  0  0
  -24.1650  -36.8170   23.1490 C   0  0  0  0  0  1  0  0  0  0  0  0
  -25.4350  -36.3750   23.8940 C   0  0  0  0  0  3  0  0  0  0  0  0
  -27.6250  -37.2090   24.6320 C   0  0  0  0  0  1  0  0  0  0  0  0
  -26.4830  -37.4110   23.7460 N   0  0  0  0  0  0  0  0  0  0  0  0
  -26.1020  -38.3360   23.9260 H   0  0  0  0  0  0  0  0  0  0  0  0
  -26.3860  -31.7270   25.0130 C   0  0  1  0  0  0  0  0  0  0  0  0
  -25.3440  -31.4860   26.1320 C   0  0  0  0  0  1  0  0  0  0  0  0
  -26.9220  -30.3470   24.5630 C   0  0  0  0  0  1  0  0  0  0  0  0
  -27.5830  -32.4860   25.6310 C   0  0  0  0  0  1  0  0  0  0  0  0
  1  2  1  0
  3  1  1  0
  4 10  1  0
  4  9  1  0
  5  7  1  0
  6  1  1  0
  6  4  1  0
  6  5  1  0
  7  8  1  0
  9  7  1  0
 11 10  1  0
 11 12  1  0
 13 12  1  0
 14 19  1  0
 15 16  1  0
 15 14  1  0
 17 16  1  0
 17 24  1  0
 17 18  1  0
 19 13  1  0
 19 18  1  0
 20 13  2  0
 21 22  2  0
 22 41  1  0
 23 22  1  0
 23 26  1  0
 24 21  1  0
 24 25  1  0
 25 23  2  0
 26 27  1  0
 27 28  2  0
 29 32  1  0
 29 28  1  0
 30 29  2  0
 31 30  1  0
 31 26  2  0
 32 33  1  0
 33 34  1  0
 34 35  2  0
 36 35  1  0
 36 40  1  0
 37 36  2  0
 38 33  2  0
 38 37  1  0
 39 38  1  0
 41 42  1  0
 42 45  1  0
 42 44  1  0
 43 41  2  0
 46 47  1  0
 46 21  1  0
 48 46  1  0
 49 50  1  0
 49  1  1  0
 51 52  1  0
 51 50  1  0
 52 54  1  0
 53 64  2  0
 54 59  1  0
 55 63  1  0
 55 65  1  0
 56 62  1  0
 56 58  1  0
 57 63  1  0
 58 57  1  0
 59 58  2  0
 60 61  1  0
 60 54  2  0
 61 56  2  0
 62 55  1  0
 63 53  1  0
 65 67  2  0
 66 65  1  0
 68 66  1  0
 69 78  2  0
 69 74  1  0
 70 66  1  0
 70 74  1  0
 71 70  1  0
 72 73  1  0
 72 71  1  0
 73 69  1  0
 74 75  2  0
 75 76  1  0
 77 76  2  0
 78 77  1  0
 79 53  1  0
 79 80  1  0
 79 89  1  0
 80 83  1  0
 81 85  1  0
 81 80  1  0
 82 81  2  0
 85 84  1  0
 87 85  1  0
 87 88  1  0
 87 86  1  0
 89 92  1  1
 89 90  1  0
 91 89  1  0
M  ISO  4  12 100  13 100  51 101  52 101
M  END
>  <TORSDO>  (27) 
F 23

>  <SCORE>  (27) 
-12.575

>  <name>  (27) 
26

>  <ligand_id>  (27) 
26

>  <original_smiles>  (27) 
[H]c1c([H])c([H])c2c(c1[H])C([H])([H])C([H])([H])C([H])([H])C2([H])N([H])C(=O)C1([H])N(C(=O)C([H])(N([H])C(=O)C([H])(N([H])C([H])([H])[H])C([H])([H])[H])C(C([H])([H])[H])(C([H])([H])[H])C([H])([H])[H])C([H])([H])c2c([H])c(OC([H])([H])C([H])([H])C([H])([H])[N+]([H])([H])C3([H])C(C([H])([H])C([H])([H])C([H])([H])C(=O)N4C([H])([H])C([H])([H])C([H])([H])C([H])(n5nc(-c6c([H])c([H])c(Oc7c([H])c([H])c(F)c([H])c7F)c([H])c6[H])c(C(=O)N([H])[H])c5N([H])[H])C4([H])[H])=NC([H])(C([H])([H])[H])C3([H])[H])c([H])c([H])c2C1([H])[H]

>  <smiles>  (27) 
[H]c1c([H])c([H])c2c(c1[H])C([H])([H])C([H])([H])C([H])([H])C2([H])N([H])C(=O)C1([H])N(C(=O)C([H])(N([H])C(=O)C([H])(N([H])C([H])([H])[H])C([H])([H])[H])C(C([H])([H])[H])(C([H])([H])[H])C([H])([H])[H])C([H])([H])c2c([H])c(OC([H])([H])C([H])([H])C([H])([H])[N+]([H])([H])C3([H])C(C([H])([H])C([H])([H])C([H])([H])C(=O)N4C([H])([H])C([H])([H])C([H])([H])C([H])(n5nc(-c6c([H])c([H])c(Oc7c([H])c([H])c(F)c([H])c7F)c([H])c6[H])c(C(=O)N([H])[H])c5N([H])[H])C4([H])[H])=NC([H])(C([H])([H])[H])C3([H])[H])c([H])c([H])c2C1([H])[H]

$$$$
27:0:0
     RDKit          3D

 89 96  0  0  1  0  0  0  0  0999 V2000
  -29.1920  -21.9420   20.0090 C   0  0  0  0  0  3  0  0  0  0  0  0
  -31.3770  -22.8380   19.4640 C   0  0  0  0  0  1  0  0  0  0  0  0
  -30.6080  -21.9920   20.3690 N   0  0  0  0  0  0  0  0  0  0  0  0
  -30.7140  -22.3420   21.3200 H   0  0  0  0  0  0  0  0  0  0  0  0
  -28.4500  -23.3670   20.5360 C   0  0  0  0  0  2  0  0  0  0  0  0
  -28.3620  -24.8220   19.7030 C   0  0  0  0  0  2  0  0  0  0  0  0
  -28.2850  -26.2610   20.2690 O   0  0  0  0  0  0  0  0  0  0  0  0
  -24.6100  -31.8820   23.2140 C   0  0  0  0  0  0  0  0  0  0  0  0
  -27.1930  -27.1890   20.1730 C   0  0  0  0  0  0  0  0  0  0  0  0
  -23.4070  -30.4780   21.5820 C   0  0  0  0  0  3  0  0  0  0  0  0
  -24.8520  -28.9050   20.1550 C   0  0  0  0  0  0  0  0  0  0  0  0
  -25.9560  -30.7540   21.4080 C   0  0  0  0  0  2  0  0  0  0  0  0
  -26.0280  -29.3620   20.7600 C   0  0  0  0  0  0  0  0  0  0  0  0
  -27.1970  -28.5160   20.7580 C   0  0  0  0  0  3  0  0  0  0  0  0
  -25.9890  -26.8210   19.5360 C   0  0  0  0  0  3  0  0  0  0  0  0
  -24.8430  -27.6480   19.5310 C   0  0  0  0  0  3  0  0  0  0  0  0
  -23.6230  -29.7970   20.2040 C   0  0  0  0  0  2  0  0  0  0  0  0
  -24.6770  -31.0600   22.1230 N   0  0  0  0  0  0  0  0  0  0  0  0
  -23.5240  -32.1690   23.7420 O   0  0  0  0  0  0  0  0  0  0  0  0
  -22.7350  -29.4710   22.5510 C   0  0  0  0  0  0  0  0  0  0  0  0
  -21.4090  -29.2940   22.4240 N   0  0  0  0  0  0  0  0  0  0  0  0
  -23.4090  -28.8550   23.3800 O   0  0  0  0  0  0  0  0  0  0  0  0
  -20.9260  -29.8450   21.7280 H   0  0  0  0  0  0  0  0  0  0  0  0
  -18.0310  -28.0750   22.9110 C   0  0  0  0  0  0  0  0  0  0  0  0
  -20.5870  -28.3580   23.1950 C   0  0  0  0  0  3  0  0  0  0  0  0
  -20.7020  -26.9220   22.6340 C   0  0  0  0  0  2  0  0  0  0  0  0
  -19.6090  -26.5820   21.6150 C   0  0  0  0  0  2  0  0  0  0  0  0
  -18.2220  -26.7200   22.2490 C   0  0  0  0  0  2  0  0  0  0  0  0
  -19.1410  -28.8500   23.3400 C   0  0  0  0  0  0  0  0  0  0  0  0
  -18.9080  -30.1160   23.9200 C   0  0  0  0  0  3  0  0  0  0  0  0
  -17.5980  -30.6060   24.0760 C   0  0  0  0  0  3  0  0  0  0  0  0
  -16.5030  -29.8280   23.6610 C   0  0  0  0  0  3  0  0  0  0  0  0
  -16.7200  -28.5650   23.0840 C   0  0  0  0  0  3  0  0  0  0  0  0
  -25.8890  -32.5190   23.8390 C   0  0  0  0  0  3  0  0  0  0  0  0
  -25.5750  -33.9170   24.1690 N   0  0  0  0  0  0  0  0  0  0  0  0
  -25.9040  -34.9740   23.4130 C   0  0  0  0  0  0  0  0  0  0  0  0
  -26.5710  -34.8730   22.3790 O   0  0  0  0  0  0  0  0  0  0  0  0
  -24.9800  -34.0680   24.9700 H   0  0  0  0  0  0  0  0  0  0  0  0
  -24.1730  -36.7720   23.0740 C   0  0  0  0  0  1  0  0  0  0  0  0
  -25.4180  -36.3630   23.8770 C   0  0  0  0  0  3  0  0  0  0  0  0
  -27.5590  -37.2480   24.6980 C   0  0  0  0  0  1  0  0  0  0  0  0
  -26.4510  -37.4160   23.7610 N   0  0  0  0  0  0  0  0  0  0  0  0
  -26.0480  -38.3370   23.9090 H   0  0  0  0  0  0  0  0  0  0  0  0
  -26.4010  -31.7520   25.1190 C   0  0  1  0  0  0  0  0  0  0  0  0
  -25.3040  -31.5250   26.1870 C   0  0  0  0  0  1  0  0  0  0  0  0
  -26.9830  -30.3710   24.7390 C   0  0  0  0  0  1  0  0  0  0  0  0
  -27.5530  -32.5500   25.7760 C   0  0  0  0  0  1  0  0  0  0  0  0
  -28.7490  -20.3840   20.4330 C   0  0  0  0  0  2  0  0  0  0  0  0
  -29.7980  -19.2080   20.4690 N   0  0  0  0  0  4  0  0  0  0  0  0
  -30.5640  -19.5870   19.9320 H   0  0  0  0  0  0  0  0  0  0  0  0
  -30.1530  -19.1710   21.4090 H   0  0  0  0  0  0  0  0  0  0  0  0
  -29.5790  -17.7300   19.9510 C   0  0  0  0  0  2  0  0  0  0  0  0
  -29.8420  -16.3390   20.8540 C   0  0  0  0  0  2  0  0  0  0  0  0
  -30.5410  -14.9330   20.3360 C   0  0  0  0  0  0  0  0  0  0  0  0
  -30.4020  -12.5970   19.3620 C   0  0  0  0  0  2  0  0  0  0  0  0
  -29.4650  -12.6030   18.1330 C   0  0  0  0  0  2  0  0  0  0  0  0
  -28.0020  -12.3980   18.5700 C   0  0  0  0  0  2  0  0  0  0  0  0
  -27.6110  -13.3000   19.7690 C   0  0  0  0  0  3  0  0  0  0  0  0
  -28.6710  -13.2700   20.8900 C   0  0  0  0  0  2  0  0  0  0  0  0
  -29.9510  -13.6710   20.2950 N   0  0  0  0  0  0  0  0  0  0  0  0
  -31.7040  -15.0050   19.9220 O   0  0  0  0  0  0  0  0  0  0  0  0
  -25.2240  -13.8690   20.5050 C   0  0  0  0  0  0  0  0  0  0  0  0
  -24.1650  -13.0870   20.8790 C   0  0  0  0  0  0  0  0  0  0  0  0
  -24.6390  -11.7390   20.8520 C   0  0  0  0  0  0  0  0  0  0  0  0
  -26.2740  -12.9970   20.2670 N   0  0  0  0  0  0  0  0  0  0  0  0
  -25.9300  -11.7110   20.5410 N   0  0  0  0  0  0  0  0  0  0  0  0
  -23.9200  -10.4730   21.0450 C   0  0  0  0  0  0  0  0  0  0  0  0
  -24.3630   -9.5060   21.9760 C   0  0  0  0  0  3  0  0  0  0  0  0
  -23.6410   -8.3060   22.1600 C   0  0  0  0  0  3  0  0  0  0  0  0
  -22.4640   -8.0640   21.4110 C   0  0  0  0  0  0  0  0  0  0  0  0
  -22.0420   -9.0190   20.4690 C   0  0  0  0  0  3  0  0  0  0  0  0
  -22.7640  -10.2110   20.2840 C   0  0  0  0  0  3  0  0  0  0  0  0
  -21.7160   -6.9160   21.5000 O   0  0  0  0  0  0  0  0  0  0  0  0
  -21.6820   -6.1680   22.6490 C   0  0  0  0  0  0  0  0  0  0  0  0
  -21.2700   -6.7160   23.8830 C   0  0  0  0  0  3  0  0  0  0  0  0
  -21.1820   -5.8960   25.0260 C   0  0  0  0  0  3  0  0  0  0  0  0
  -21.4970   -4.5260   24.9340 C   0  0  0  0  0  0  0  0  0  0  0  0
  -21.9020   -3.9770   23.7050 C   0  0  0  0  0  3  0  0  0  0  0  0
  -21.9910   -4.7950   22.5650 C   0  0  0  0  0  0  0  0  0  0  0  0
  -22.3610   -4.2550   21.3790 F   0  0  0  0  0  0  0  0  0  0  0  0
  -21.4060   -3.7350   26.0290 F   0  0  0  0  0  0  0  0  0  0  0  0
  -22.7650  -13.5570   21.1480 C   0  0  0  0  0  0  0  0  0  0  0  0
  -22.0400  -12.8600   22.0160 N   0  0  0  0  0  0  0  0  0  0  0  0
  -22.3230  -14.5790   20.6250 O   0  0  0  0  0  0  0  0  0  0  0  0
  -22.4130  -12.0340   22.4580 H   0  0  0  0  0  0  0  0  0  0  0  0
  -21.1020  -13.1570   22.2390 H   0  0  0  0  0  0  0  0  0  0  0  0
  -25.3750  -15.2410   20.3270 N   0  0  0  0  0  0  0  0  0  0  0  0
  -24.5940  -15.8800   20.4360 H   0  0  0  0  0  0  0  0  0  0  0  0
  -26.2150  -15.6960   19.9930 H   0  0  0  0  0  0  0  0  0  0  0  0
  1  3  1  0
  1 48  1  0
  1  5  1  0
  2  3  1  0
  3  4  1  0
  6  7  1  0
  6  5  1  0
  8 19  2  0
  9  7  1  0
  9 14  1  0
 10 18  1  0
 10 20  1  0
 11 17  1  0
 11 13  1  0
 12 18  1  0
 13 12  1  0
 14 13  2  0
 15  9  2  0
 16 15  1  0
 16 11  2  0
 17 10  1  0
 18  8  1  0
 20 22  2  0
 21 20  1  0
 23 21  1  0
 24 33  2  0
 24 29  1  0
 25 21  1  0
 25 29  1  0
 26 25  1  0
 27 28  1  0
 27 26  1  0
 28 24  1  0
 29 30  2  0
 30 31  1  0
 32 31  2  0
 33 32  1  0
 34  8  1  0
 34 35  1  0
 34 44  1  0
 35 38  1  0
 36 40  1  0
 36 35  1  0
 37 36  2  0
 40 39  1  0
 42 40  1  0
 42 43  1  0
 42 41  1  0
 44 47  1  1
 44 45  1  0
 46 44  1  0
 48 49  1  0
 49 51  1  0
 50 49  1  0
 52 49  1  0
 52 53  1  0
 54 53  1  0
 55 60  1  0
 56 57  1  0
 56 55  1  0
 58 57  1  0
 58 65  1  0
 58 59  1  0
 60 54  1  0
 60 59  1  0
 61 54  2  0
 62 63  2  0
 63 82  1  0
 64 63  1  0
 64 67  1  0
 65 62  1  0
 65 66  1  0
 66 64  2  0
 67 68  1  0
 68 69  2  0
 70 73  1  0
 70 69  1  0
 71 70  2  0
 72 71  1  0
 72 67  2  0
 73 74  1  0
 74 75  1  0
 75 76  2  0
 77 76  1  0
 77 81  1  0
 78 77  2  0
 79 74  2  0
 79 78  1  0
 80 79  1  0
 82 83  1  0
 83 86  1  0
 83 85  1  0
 84 82  2  0
 87 88  1  0
 87 62  1  0
 89 87  1  0
M  ISO  4   6 101   7 101  53 100  54 100
M  END
>  <TORSDO>  (28) 
F 23

>  <SCORE>  (28) 
-12.658

>  <name>  (28) 
27

>  <ligand_id>  (28) 
27

>  <original_smiles>  (28) 
[H]c1c([H])c([H])c2c(c1[H])C([H])([H])C([H])([H])C([H])([H])C2([H])N([H])C(=O)C1([H])N(C(=O)C([H])(N([H])C(=O)C([H])(N([H])C([H])([H])[H])C([H])([H])[H])C(C([H])([H])[H])(C([H])([H])[H])C([H])([H])[H])C([H])([H])c2c([H])c(OC([H])([H])C([H])([H])C([H])(N([H])C([H])([H])[H])C([H])([H])[N+]([H])([H])C([H])([H])C([H])([H])C(=O)N3C([H])([H])C([H])([H])C([H])([H])C([H])(n4nc(-c5c([H])c([H])c(Oc6c([H])c([H])c(F)c([H])c6F)c([H])c5[H])c(C(=O)N([H])[H])c4N([H])[H])C3([H])[H])c([H])c([H])c2C1([H])[H]

>  <smiles>  (28) 
[H]c1c([H])c([H])c2c(c1[H])C([H])([H])C([H])([H])C([H])([H])C2([H])N([H])C(=O)C1([H])N(C(=O)C([H])(N([H])C(=O)C([H])(N([H])C([H])([H])[H])C([H])([H])[H])C(C([H])([H])[H])(C([H])([H])[H])C([H])([H])[H])C([H])([H])c2c([H])c(OC([H])([H])C([H])([H])C([H])(N([H])C([H])([H])[H])C([H])([H])[N+]([H])([H])C([H])([H])C([H])([H])C(=O)N3C([H])([H])C([H])([H])C([H])([H])C([H])(n4nc(-c5c([H])c([H])c(Oc6c([H])c([H])c(F)c([H])c6F)c([H])c5[H])c(C(=O)N([H])[H])c4N([H])[H])C3([H])[H])c([H])c([H])c2C1([H])[H]

$$$$
28:0:0
     RDKit          3D

 97106  0  0  1  0  0  0  0  0999 V2000
  -28.8330  -21.0680   19.9280 C   0  0  0  0  0  3  0  0  0  0  0  0
  -29.7490  -19.9490   20.4090 N   0  0  0  0  0  4  0  0  0  0  0  0
  -30.6120  -19.9910   19.8930 H   0  0  0  0  0  0  0  0  0  0  0  0
  -29.9750  -20.1430   21.3710 H   0  0  0  0  0  0  0  0  0  0  0  0
  -29.2310  -18.5210   20.3730 C   0  0  0  0  0  3  0  0  0  0  0  0
  -30.3070  -17.3570   20.5430 C   0  0  0  0  0  3  0  0  0  0  0  0
  -29.7590  -15.9060   20.8990 C   0  0  0  0  0  2  0  0  0  0  0  0
  -30.5790  -14.6330   20.4470 C   0  0  0  0  0  0  0  0  0  0  0  0
  -30.3700  -12.4080   19.3580 C   0  0  0  0  0  2  0  0  0  0  0  0
  -29.4210  -12.5580   18.1460 C   0  0  0  0  0  2  0  0  0  0  0  0
  -27.9470  -12.4020   18.5720 C   0  0  0  0  0  2  0  0  0  0  0  0
  -27.5950  -13.2510   19.8210 C   0  0  0  0  0  3  0  0  0  0  0  0
  -28.6570  -13.0830   20.9310 C   0  0  0  0  0  2  0  0  0  0  0  0
  -29.9700  -13.4110   20.3610 N   0  0  0  0  0  0  0  0  0  0  0  0
  -31.7360  -14.7890   20.0430 O   0  0  0  0  0  0  0  0  0  0  0  0
  -25.2090  -13.8550   20.5580 C   0  0  0  0  0  0  0  0  0  0  0  0
  -24.1430  -13.0790   20.9300 C   0  0  0  0  0  0  0  0  0  0  0  0
  -24.6050  -11.7290   20.8940 C   0  0  0  0  0  0  0  0  0  0  0  0
  -26.2500  -12.9730   20.3140 N   0  0  0  0  0  0  0  0  0  0  0  0
  -25.8930  -11.6900   20.5800 N   0  0  0  0  0  0  0  0  0  0  0  0
  -23.8810  -10.4670   21.0830 C   0  0  0  0  0  0  0  0  0  0  0  0
  -24.3240   -9.4910   22.0030 C   0  0  0  0  0  3  0  0  0  0  0  0
  -23.6010   -8.2930   22.1780 C   0  0  0  0  0  3  0  0  0  0  0  0
  -22.4190   -8.0630   21.4330 C   0  0  0  0  0  0  0  0  0  0  0  0
  -21.9960   -9.0260   20.5010 C   0  0  0  0  0  3  0  0  0  0  0  0
  -22.7190  -10.2170   20.3240 C   0  0  0  0  0  3  0  0  0  0  0  0
  -21.6640   -6.9170   21.5190 O   0  0  0  0  0  0  0  0  0  0  0  0
  -21.6340   -6.1590   22.6610 C   0  0  0  0  0  0  0  0  0  0  0  0
  -21.2400   -6.6980   23.9050 C   0  0  0  0  0  3  0  0  0  0  0  0
  -21.1590   -5.8680   25.0410 C   0  0  0  0  0  3  0  0  0  0  0  0
  -21.4610   -4.4970   24.9310 C   0  0  0  0  0  0  0  0  0  0  0  0
  -21.8510   -3.9570   23.6940 C   0  0  0  0  0  3  0  0  0  0  0  0
  -21.9340   -4.7860   22.5620 C   0  0  0  0  0  0  0  0  0  0  0  0
  -22.2880   -4.2540   21.3670 F   0  0  0  0  0  0  0  0  0  0  0  0
  -21.3740   -3.6960   26.0200 F   0  0  0  0  0  0  0  0  0  0  0  0
  -22.7460  -13.5560   21.2080 C   0  0  0  0  0  0  0  0  0  0  0  0
  -22.0200  -12.8550   22.0730 N   0  0  0  0  0  0  0  0  0  0  0  0
  -22.3070  -14.5830   20.6920 O   0  0  0  0  0  0  0  0  0  0  0  0
  -22.3870  -12.0250   22.5110 H   0  0  0  0  0  0  0  0  0  0  0  0
  -21.0820  -13.1560   22.2960 H   0  0  0  0  0  0  0  0  0  0  0  0
  -25.3740  -15.2260   20.3860 N   0  0  0  0  0  0  0  0  0  0  0  0
  -24.6050  -15.8790   20.4980 H   0  0  0  0  0  0  0  0  0  0  0  0
  -26.2180  -15.6610   20.0380 H   0  0  0  0  0  0  0  0  0  0  0  0
  -28.7590  -21.1380   18.3720 C   0  0  0  0  0  2  0  0  0  0  0  0
  -30.1020  -21.3110   17.6160 C   0  0  0  0  0  2  0  0  0  0  0  0
  -29.9380  -21.8200   16.1580 C   0  0  0  0  0  2  0  0  0  0  0  0
  -32.6160  -25.1960   15.3220 C   0  0  0  0  0  2  0  0  0  0  0  0
  -32.5480  -24.5190   16.6960 C   0  0  0  0  0  2  0  0  0  0  0  0
  -30.5370  -23.6370   14.5530 C   0  0  0  0  0  2  0  0  0  0  0  0
  -32.0320  -23.9300   14.6710 C   0  0  0  0  0  3  0  0  0  0  0  0
  -31.9850  -23.2510   16.0350 C   0  0  0  0  0  3  0  0  0  0  0  0
  -30.5230  -23.1680   15.9400 N   0  0  2  0  0  4  0  0  0  0  0  0
  -30.0850  -23.8640   16.5240 H   0  0  0  0  0  0  0  0  0  0  0  0
  -29.0330  -22.5130   20.6260 C   0  0  0  0  0  2  0  0  0  0  0  0
  -29.1240  -24.0330   20.0960 C   0  0  0  0  0  3  0  0  0  0  0  0
  -28.1610  -25.1320   20.7180 C   0  0  0  0  0  3  0  0  0  0  0  0
  -28.3500  -26.5340   20.3000 O   0  0  0  0  0  0  0  0  0  0  0  0
  -24.5960  -31.9380   23.2500 C   0  0  0  0  0  0  0  0  0  0  0  0
  -27.2220  -27.3600   20.2710 C   0  0  0  0  0  0  0  0  0  0  0  0
  -23.3970  -30.5210   21.6170 C   0  0  0  0  0  3  0  0  0  0  0  0
  -24.8560  -28.9510   20.2230 C   0  0  0  0  0  0  0  0  0  0  0  0
  -25.9350  -30.8360   21.4520 C   0  0  0  0  0  2  0  0  0  0  0  0
  -26.0170  -29.4510   20.8260 C   0  0  0  0  0  0  0  0  0  0  0  0
  -27.2030  -28.6630   20.8470 C   0  0  0  0  0  3  0  0  0  0  0  0
  -26.0480  -26.9110   19.6310 C   0  0  0  0  0  3  0  0  0  0  0  0
  -24.8710  -27.6840   19.6150 C   0  0  0  0  0  3  0  0  0  0  0  0
  -23.6190  -29.8260   20.2470 C   0  0  0  0  0  2  0  0  0  0  0  0
  -24.6600  -31.1170   22.1630 N   0  0  0  0  0  0  0  0  0  0  0  0
  -23.5110  -32.2280   23.7740 O   0  0  0  0  0  0  0  0  0  0  0  0
  -22.7260  -29.5200   22.5860 C   0  0  0  0  0  0  0  0  0  0  0  0
  -21.3990  -29.3550   22.4590 N   0  0  0  0  0  0  0  0  0  0  0  0
  -23.3990  -28.8930   23.4090 O   0  0  0  0  0  0  0  0  0  0  0  0
  -20.9200  -29.9080   21.7620 H   0  0  0  0  0  0  0  0  0  0  0  0
  -18.0060  -28.2140   22.9740 C   0  0  0  0  0  0  0  0  0  0  0  0
  -20.5680  -28.4370   23.2390 C   0  0  0  0  0  3  0  0  0  0  0  0
  -20.6500  -27.0010   22.6720 C   0  0  0  0  0  2  0  0  0  0  0  0
  -19.5400  -26.6880   21.6630 C   0  0  0  0  0  2  0  0  0  0  0  0
  -18.1610  -26.8570   22.3080 C   0  0  0  0  0  2  0  0  0  0  0  0
  -19.1360  -28.9620   23.3970 C   0  0  0  0  0  0  0  0  0  0  0  0
  -18.9380  -30.2310   23.9840 C   0  0  0  0  0  3  0  0  0  0  0  0
  -17.6410  -30.7540   24.1480 C   0  0  0  0  0  3  0  0  0  0  0  0
  -16.5250  -30.0040   23.7430 C   0  0  0  0  0  3  0  0  0  0  0  0
  -16.7080  -28.7350   23.1620 C   0  0  0  0  0  3  0  0  0  0  0  0
  -25.8810  -32.5720   23.8700 C   0  0  0  0  0  3  0  0  0  0  0  0
  -25.5740  -33.9730   24.1920 N   0  0  0  0  0  0  0  0  0  0  0  0
  -25.9110  -35.0210   23.4290 C   0  0  0  0  0  0  0  0  0  0  0  0
  -26.5860  -34.9120   22.4010 O   0  0  0  0  0  0  0  0  0  0  0  0
  -24.9790  -34.1320   24.9910 H   0  0  0  0  0  0  0  0  0  0  0  0
  -24.1920  -36.8160   23.0510 C   0  0  0  0  0  1  0  0  0  0  0  0
  -25.4240  -36.4120   23.8750 C   0  0  0  0  0  3  0  0  0  0  0  0
  -27.5520  -37.2920   24.7240 C   0  0  0  0  0  1  0  0  0  0  0  0
  -26.4610  -37.4610   23.7690 N   0  0  0  0  0  0  0  0  0  0  0  0
  -26.0570  -38.3820   23.9110 H   0  0  0  0  0  0  0  0  0  0  0  0
  -26.3940  -31.8080   25.1530 C   0  0  1  0  0  0  0  0  0  0  0  0
  -25.2960  -31.5730   26.2140 C   0  0  0  0  0  1  0  0  0  0  0  0
  -26.9780  -30.4270   24.7700 C   0  0  0  0  0  1  0  0  0  0  0  0
  -27.5430  -32.6020   25.8150 C   0  0  0  0  0  1  0  0  0  0  0  0
  1 44  1  0
  1  2  1  0
  1 54  1  0
  2  4  1  0
  3  2  1  0
  5  2  1  0
  5  6  2  0
  6  7  1  0
  8  7  1  0
  9 14  1  0
 10 11  1  0
 10  9  1  0
 12 11  1  0
 12 19  1  0
 12 13  1  0
 14  8  1  0
 14 13  1  0
 15  8  2  0
 16 17  2  0
 17 36  1  0
 18 17  1  0
 18 21  1  0
 19 16  1  0
 19 20  1  0
 20 18  2  0
 21 22  1  0
 22 23  2  0
 24 27  1  0
 24 23  1  0
 25 24  2  0
 26 25  1  0
 26 21  2  0
 27 28  1  0
 28 29  1  0
 29 30  2  0
 31 30  1  0
 31 35  1  0
 32 31  2  0
 33 28  2  0
 33 32  1  0
 34 33  1  0
 36 37  1  0
 37 40  1  0
 37 39  1  0
 38 36  2  0
 41 42  1  0
 41 16  1  0
 43 41  1  0
 45 44  1  0
 46 45  1  0
 47 48  1  0
 49 52  1  0
 50 49  1  0
 50 47  1  0
 50 51  1  0
 51 48  1  0
 52 51  1  0
 52 46  1  0
 52 53  1  1
 55 54  1  0
 55 56  2  0
 57 56  1  0
 58 69  2  0
 59 57  1  0
 59 64  1  0
 60 68  1  0
 60 70  1  0
 61 67  1  0
 61 63  1  0
 62 68  1  0
 63 64  2  0
 63 62  1  0
 65 59  2  0
 66 65  1  0
 66 61  2  0
 67 60  1  0
 68 58  1  0
 70 72  2  0
 71 70  1  0
 73 71  1  0
 74 83  2  0
 74 79  1  0
 75 71  1  0
 75 79  1  0
 76 75  1  0
 77 78  1  0
 77 76  1  0
 78 74  1  0
 79 80  2  0
 80 81  1  0
 82 81  2  0
 83 82  1  0
 84 58  1  0
 84 85  1  0
 84 94  1  0
 85 88  1  0
 86 90  1  0
 86 85  1  0
 87 86  2  0
 90 89  1  0
 92 90  1  0
 92 93  1  0
 92 91  1  0
 94 97  1  1
 94 95  1  0
 96 94  1  0
M  ISO  4   7 100   8 100  56 101  57 101
M  END
>  <TORSDO>  (29) 
F 27

>  <SCORE>  (29) 
-11.622

>  <name>  (29) 
28

>  <ligand_id>  (29) 
28

>  <original_smiles>  (29) 
[H]c1c([H])c([H])c2c(c1[H])C([H])([H])C([H])([H])C([H])([H])C2([H])N([H])C(=O)C1([H])N(C(=O)C([H])(N([H])C(=O)C([H])(N([H])C([H])([H])[H])C([H])([H])[H])C(C([H])([H])[H])(C([H])([H])[H])C([H])([H])[H])C([H])([H])c2c([H])c(OC([H])([H])C([H])([H])C([H])([H])C([H])(C([H])([H])C([H])([H])C([H])([H])[N+]3([H])C([H])([H])C4([H])C([H])([H])C([H])([H])C43[H])[N+]([H])([H])C([H])([H])C([H])([H])C([H])([H])C(=O)N3C([H])([H])C([H])([H])C([H])([H])C([H])(n4nc(-c5c([H])c([H])c(Oc6c([H])c([H])c(F)c([H])c6F)c([H])c5[H])c(C(=O)N([H])[H])c4N([H])[H])C3([H])[H])c([H])c([H])c2C1([H])[H]

>  <smiles>  (29) 
[H]c1c([H])c([H])c2c(c1[H])C([H])([H])C([H])([H])C([H])([H])C2([H])N([H])C(=O)C1([H])N(C(=O)C([H])(N([H])C(=O)C([H])(N([H])C([H])([H])[H])C([H])([H])[H])C(C([H])([H])[H])(C([H])([H])[H])C([H])([H])[H])C([H])([H])c2c([H])c(OC([H])([H])C([H])([H])C([H])([H])C([H])(C([H])([H])C([H])([H])C([H])([H])[N+]3([H])C([H])([H])C4([H])C([H])([H])C([H])([H])C43[H])[N+]([H])([H])C([H])([H])C([H])([H])C([H])([H])C(=O)N3C([H])([H])C([H])([H])C([H])([H])C([H])(n4nc(-c5c([H])c([H])c(Oc6c([H])c([H])c(F)c([H])c6F)c([H])c5[H])c(C(=O)N([H])[H])c4N([H])[H])C3([H])[H])c([H])c([H])c2C1([H])[H]

$$$$
29:0:0
     RDKit          3D

 92100  0  0  1  0  0  0  0  0999 V2000
  -28.6270  -21.3130   19.8070 C   0  0  0  0  0  3  0  0  0  0  0  0
  -25.8010  -20.8950   17.1880 C   0  0  0  0  0  2  0  0  0  0  0  0
  -25.1000  -21.7030   18.2890 C   0  0  0  0  0  2  0  0  0  0  0  0
  -27.2700  -20.7530   17.6300 C   0  0  0  0  0  2  0  0  0  0  0  0
  -26.0110  -21.5750   19.5100 C   0  0  0  0  0  2  0  0  0  0  0  0
  -27.4150  -21.6300   18.8850 C   0  0  0  0  0  3  0  0  0  0  0  0
  -28.4770  -19.8710   20.3350 N   0  0  0  0  0  4  0  0  0  0  0  0
  -27.8270  -19.8730   21.1080 H   0  0  0  0  0  0  0  0  0  0  0  0
  -28.0100  -19.3900   19.5840 H   0  0  0  0  0  0  0  0  0  0  0  0
  -29.6460  -18.9600   20.6920 C   0  0  0  0  0  2  0  0  0  0  0  0
  -29.6200  -17.3960   20.2520 C   0  0  0  0  0  2  0  0  0  0  0  0
  -29.5750  -16.1640   21.2910 C   0  0  0  0  0  2  0  0  0  0  0  0
  -30.4130  -14.8380   20.9780 C   0  0  0  0  0  0  0  0  0  0  0  0
  -30.4520  -12.4790   20.1620 C   0  0  0  0  0  2  0  0  0  0  0  0
  -29.6310  -12.4100   18.8540 C   0  0  0  0  0  2  0  0  0  0  0  0
  -28.1320  -12.1960   19.1560 C   0  0  0  0  0  2  0  0  0  0  0  0
  -27.6020  -13.1500   20.2590 C   0  0  0  0  0  3  0  0  0  0  0  0
  -28.5540  -13.1800   21.4750 C   0  0  0  0  0  2  0  0  0  0  0  0
  -29.8850  -13.5670   20.9910 N   0  0  0  0  0  0  0  0  0  0  0  0
  -31.5880  -14.9910   20.6320 O   0  0  0  0  0  0  0  0  0  0  0  0
  -25.1440  -13.6720   20.7970 C   0  0  0  0  0  0  0  0  0  0  0  0
  -24.0790  -12.8700   21.0970 C   0  0  0  0  0  0  0  0  0  0  0  0
  -24.5840  -11.5330   21.1100 C   0  0  0  0  0  0  0  0  0  0  0  0
  -26.2320  -12.8250   20.6470 N   0  0  0  0  0  0  0  0  0  0  0  0
  -25.8960  -11.5340   20.8950 N   0  0  0  0  0  0  0  0  0  0  0  0
  -23.8860  -10.2500   21.2570 C   0  0  0  0  0  0  0  0  0  0  0  0
  -24.2930   -9.2910   22.2110 C   0  0  0  0  0  3  0  0  0  0  0  0
  -23.5960   -8.0730   22.3490 C   0  0  0  0  0  3  0  0  0  0  0  0
  -22.4720   -7.8030   21.5320 C   0  0  0  0  0  0  0  0  0  0  0  0
  -22.0820   -8.7510   20.5680 C   0  0  0  0  0  3  0  0  0  0  0  0
  -22.7820   -9.9610   20.4290 C   0  0  0  0  0  3  0  0  0  0  0  0
  -21.7480   -6.6360   21.5780 O   0  0  0  0  0  0  0  0  0  0  0  0
  -21.6800   -5.8750   22.7180 C   0  0  0  0  0  0  0  0  0  0  0  0
  -21.2110   -6.4020   23.9410 C   0  0  0  0  0  3  0  0  0  0  0  0
  -21.0940   -5.5660   25.0700 C   0  0  0  0  0  3  0  0  0  0  0  0
  -21.4350   -4.2040   24.9750 C   0  0  0  0  0  0  0  0  0  0  0  0
  -21.8950   -3.6740   23.7580 C   0  0  0  0  0  3  0  0  0  0  0  0
  -22.0160   -4.5090   22.6310 C   0  0  0  0  0  0  0  0  0  0  0  0
  -22.4410   -3.9890   21.4540 F   0  0  0  0  0  0  0  0  0  0  0  0
  -21.3160   -3.3990   26.0580 F   0  0  0  0  0  0  0  0  0  0  0  0
  -22.6500  -13.3040   21.2600 C   0  0  0  0  0  0  0  0  0  0  0  0
  -21.8820  -12.6070   22.0880 N   0  0  0  0  0  0  0  0  0  0  0  0
  -22.2170  -14.3000   20.6810 O   0  0  0  0  0  0  0  0  0  0  0  0
  -22.2390  -11.8040   22.5860 H   0  0  0  0  0  0  0  0  0  0  0  0
  -20.9190  -12.8780   22.2260 H   0  0  0  0  0  0  0  0  0  0  0  0
  -25.2740  -15.0480   20.6140 N   0  0  0  0  0  0  0  0  0  0  0  0
  -24.4660  -15.6610   20.6430 H   0  0  0  0  0  0  0  0  0  0  0  0
  -26.1190  -15.5130   20.3150 H   0  0  0  0  0  0  0  0  0  0  0  0
  -28.8680  -22.5140   20.8610 C   0  0  0  0  0  2  0  0  0  0  0  0
  -28.1290  -23.9720   20.8400 C   0  0  0  0  0  2  0  0  0  0  0  0
  -28.5550  -25.2120   19.9100 C   0  0  0  0  0  2  0  0  0  0  0  0
  -28.4220  -26.6270   20.3940 O   0  0  0  0  0  0  0  0  0  0  0  0
  -24.5240  -31.9550   23.3100 C   0  0  0  0  0  0  0  0  0  0  0  0
  -27.2730  -27.4370   20.2840 C   0  0  0  0  0  0  0  0  0  0  0  0
  -23.3870  -30.5700   21.6100 C   0  0  0  0  0  3  0  0  0  0  0  0
  -24.8920  -29.0430   20.2090 C   0  0  0  0  0  0  0  0  0  0  0  0
  -25.9240  -30.9040   21.5130 C   0  0  0  0  0  2  0  0  0  0  0  0
  -26.0340  -29.5320   20.8520 C   0  0  0  0  0  0  0  0  0  0  0  0
  -27.2220  -28.7410   20.8790 C   0  0  0  0  0  3  0  0  0  0  0  0
  -26.1100  -27.0060   19.6070 C   0  0  0  0  0  3  0  0  0  0  0  0
  -24.9350  -27.7870   19.5770 C   0  0  0  0  0  3  0  0  0  0  0  0
  -23.6470  -29.9080   20.2290 C   0  0  0  0  0  2  0  0  0  0  0  0
  -24.6280  -31.1630   22.2020 N   0  0  0  0  0  0  0  0  0  0  0  0
  -23.4210  -32.2150   23.8160 O   0  0  0  0  0  0  0  0  0  0  0  0
  -22.7000  -29.5390   22.5380 C   0  0  0  0  0  0  0  0  0  0  0  0
  -21.3750  -29.3750   22.3840 N   0  0  0  0  0  0  0  0  0  0  0  0
  -23.3600  -28.8920   23.3550 O   0  0  0  0  0  0  0  0  0  0  0  0
  -20.9010  -29.9500   21.7010 H   0  0  0  0  0  0  0  0  0  0  0  0
  -17.9790  -28.2270   22.8410 C   0  0  0  0  0  0  0  0  0  0  0  0
  -20.5400  -28.4250   23.1190 C   0  0  0  0  0  3  0  0  0  0  0  0
  -20.6120  -27.0160   22.4900 C   0  0  0  0  0  2  0  0  0  0  0  0
  -19.5140  -26.7680   21.4510 C   0  0  0  0  0  2  0  0  0  0  0  0
  -18.1300  -26.9120   22.0950 C   0  0  0  0  0  2  0  0  0  0  0  0
  -19.1120  -28.9470   23.3030 C   0  0  0  0  0  0  0  0  0  0  0  0
  -18.9190  -30.1870   23.9510 C   0  0  0  0  0  3  0  0  0  0  0  0
  -17.6240  -30.7040   24.1470 C   0  0  0  0  0  3  0  0  0  0  0  0
  -16.5060  -29.9780   23.7020 C   0  0  0  0  0  3  0  0  0  0  0  0
  -16.6840  -28.7410   23.0560 C   0  0  0  0  0  3  0  0  0  0  0  0
  -25.7790  -32.5890   23.9860 C   0  0  0  0  0  3  0  0  0  0  0  0
  -25.4620  -33.9920   24.2880 N   0  0  0  0  0  0  0  0  0  0  0  0
  -25.8430  -35.0390   23.5450 C   0  0  0  0  0  0  0  0  0  0  0  0
  -26.5650  -34.9240   22.5520 O   0  0  0  0  0  0  0  0  0  0  0  0
  -24.8250  -34.1550   25.0550 H   0  0  0  0  0  0  0  0  0  0  0  0
  -24.1440  -36.8400   23.0940 C   0  0  0  0  0  1  0  0  0  0  0  0
  -25.3440  -36.4350   23.9670 C   0  0  0  0  0  3  0  0  0  0  0  0
  -27.4430  -37.3140   24.8900 C   0  0  0  0  0  1  0  0  0  0  0  0
  -26.3870  -37.4820   23.8940 N   0  0  0  0  0  0  0  0  0  0  0  0
  -25.9810  -38.4050   24.0140 H   0  0  0  0  0  0  0  0  0  0  0  0
  -26.2290  -31.8320   25.2980 C   0  0  1  0  0  0  0  0  0  0  0  0
  -25.0830  -31.6010   26.3100 C   0  0  0  0  0  1  0  0  0  0  0  0
  -26.8330  -30.4520   24.9490 C   0  0  0  0  0  1  0  0  0  0  0  0
  -27.3440  -32.6360   26.0090 C   0  0  0  0  0  1  0  0  0  0  0  0
  1  7  1  0
  1 49  1  0
  2  4  1  0
  2  3  1  0
  3  5  1  0
  4  6  1  0
  6  5  1  0
  6  1  1  0
  7 10  1  0
  7  8  1  0
  9  7  1  0
 11 10  1  0
 11 12  1  0
 13 19  1  0
 13 12  1  0
 14 19  1  0
 15 16  1  0
 15 14  1  0
 17 16  1  0
 17 24  1  0
 17 18  1  0
 19 18  1  0
 20 13  2  0
 21 22  2  0
 22 23  1  0
 22 41  1  0
 23 26  1  0
 24 21  1  0
 24 25  1  0
 25 23  2  0
 26 27  1  0
 27 28  2  0
 29 32  1  0
 29 28  1  0
 30 29  2  0
 31 30  1  0
 31 26  2  0
 32 33  1  0
 33 34  1  0
 34 35  2  0
 36 35  1  0
 36 40  1  0
 37 36  2  0
 38 33  2  0
 38 37  1  0
 39 38  1  0
 41 42  1  0
 42 45  1  0
 42 44  1  0
 43 41  2  0
 46 47  1  0
 46 21  1  0
 48 46  1  0
 50 49  1  0
 51 52  1  0
 51 50  1  0
 53 64  2  0
 54 52  1  0
 54 59  1  0
 55 63  1  0
 55 65  1  0
 56 62  1  0
 56 58  1  0
 57 63  1  0
 58 59  2  0
 58 57  1  0
 60 54  2  0
 61 60  1  0
 61 56  2  0
 62 55  1  0
 63 53  1  0
 65 67  2  0
 66 65  1  0
 68 66  1  0
 69 78  2  0
 69 74  1  0
 70 66  1  0
 70 74  1  0
 71 70  1  0
 72 73  1  0
 72 71  1  0
 73 69  1  0
 74 75  2  0
 75 76  1  0
 77 76  2  0
 78 77  1  0
 79 53  1  0
 79 80  1  0
 79 89  1  0
 80 83  1  0
 81 85  1  0
 81 80  1  0
 82 81  2  0
 85 84  1  0
 87 85  1  0
 87 88  1  0
 87 86  1  0
 89 92  1  1
 89 90  1  0
 91 89  1  0
M  ISO  4  12 100  13 100  51 101  52 101
M  END
>  <TORSDO>  (30) 
F 24

>  <SCORE>  (30) 
-11.625

>  <name>  (30) 
29

>  <ligand_id>  (30) 
29

>  <original_smiles>  (30) 
[H]c1c([H])c([H])c2c(c1[H])C([H])([H])C([H])([H])C([H])([H])C2([H])N([H])C(=O)C1([H])N(C(=O)C([H])(N([H])C(=O)C([H])(N([H])C([H])([H])[H])C([H])([H])[H])C(C([H])([H])[H])(C([H])([H])[H])C([H])([H])[H])C([H])([H])c2c([H])c(OC([H])([H])C([H])([H])C([H])([H])C([H])(C3([H])C([H])([H])C([H])([H])C([H])([H])C3([H])[H])[N+]([H])([H])C([H])([H])C([H])([H])C([H])([H])C(=O)N3C([H])([H])C([H])([H])C([H])([H])C([H])(n4nc(-c5c([H])c([H])c(Oc6c([H])c([H])c(F)c([H])c6F)c([H])c5[H])c(C(=O)N([H])[H])c4N([H])[H])C3([H])[H])c([H])c([H])c2C1([H])[H]

>  <smiles>  (30) 
[H]c1c([H])c([H])c2c(c1[H])C([H])([H])C([H])([H])C([H])([H])C2([H])N([H])C(=O)C1([H])N(C(=O)C([H])(N([H])C(=O)C([H])(N([H])C([H])([H])[H])C([H])([H])[H])C(C([H])([H])[H])(C([H])([H])[H])C([H])([H])[H])C([H])([H])c2c([H])c(OC([H])([H])C([H])([H])C([H])([H])C([H])(C3([H])C([H])([H])C([H])([H])C([H])([H])C3([H])[H])[N+]([H])([H])C([H])([H])C([H])([H])C([H])([H])C(=O)N3C([H])([H])C([H])([H])C([H])([H])C([H])(n4nc(-c5c([H])c([H])c(Oc6c([H])c([H])c(F)c([H])c6F)c([H])c5[H])c(C(=O)N([H])[H])c4N([H])[H])C3([H])[H])c([H])c([H])c2C1([H])[H]

$$$$
30:0:0
     RDKit          3D

 90 87  0  0  1  0  0  0  0  0999 V2000
  -28.2480  -12.4150   21.5640 C   0  0  0  0  0  1  0  0  0  0  0  0
  -27.9820  -14.3150   21.8980 C   0  0  0  0  0  2  0  0  0  0  0  0
  -27.0620  -13.9220   18.0720 C   0  0  0  0  0 15  0  0  0  0  0  0
  -27.5080  -18.1950   20.2690 C   0  0  0  0  0  2  0  0  0  0  0  0
  -28.4200  -11.9240   19.5420 C   0  0  0  0  0 15  0  0  0  0  0  0
  -27.2320  -15.9570   18.9180 C   0  0  0  0  0  1  0  0  0  0  0  0
  -27.9210  -17.9450   18.7890 C   0  0  0  0  0  1  0  0  0  0  0  0
  -27.3740  -15.7380   20.7710 C   0  0  0  0  0  3  0  0  0  0  0  0
  -27.8810  -17.0700   21.1980 N   0  0  0  0  0  4  0  0  0  0  0  0
  -27.4680  -17.2780   22.0920 H   0  0  0  0  0  0  0  0  0  0  0  0
  -28.8770  -17.0630   21.3430 H   0  0  0  0  0  0  0  0  0  0  0  0
  -30.5390  -12.3670   19.4050 C   0  0  0  0  0  3  0  0  0  0  0  0
  -30.3380  -10.7090   18.9070 C   0  0  0  0  0  1  0  0  0  0  0  0
  -29.6380  -11.3310   17.4290 C   0  0  0  0  0  1  0  0  0  0  0  0
  -29.2160  -13.0250   17.5250 C   0  0  0  0  0  1  0  0  0  0  0  0
  -28.7400  -14.0330   19.4150 C   0  0  0  0  0 15  0  0  0  0  0  0
  -30.0620  -13.4020   20.3540 C   0  0  0  0  0  1  0  0  0  0  0  0
  -30.3320  -11.7180   20.2280 N   0  0  0  0  0  2  0  0  0  0  0  0
  -31.8770  -12.4170   19.4880 O   0  0  0  0  0  1  0  0  0  0  0  0
  -25.3310  -13.7790   20.4000 C   0  0  0  0  0  3  0  0  0  0  0  0
  -24.3780  -12.9000   20.8550 C   0  0  0  0  0  3  0  0  0  0  0  0
  -24.7610  -11.5870   20.5870 C   0  0  0  0  0  0  0  0  0  0  0  0
  -26.5840  -13.2720   20.1020 N   0  0  0  0  0  2  0  0  0  0  0  0
  -25.9420  -11.8500   19.9900 N   0  0  0  0  0  0  0  0  0  0  0  0
  -23.9540  -10.2840   20.7640 C   0  0  0  0  0  0  0  0  0  0  0  0
  -24.3110   -9.1970   21.6130 C   0  0  0  0  0  3  0  0  0  0  0  0
  -23.4280   -8.1010   21.8710 C   0  0  0  0  0  3  0  0  0  0  0  0
  -22.1310   -8.0500   21.2970 C   0  0  0  0  0  0  0  0  0  0  0  0
  -21.7700   -9.1170   20.4560 C   0  0  0  0  0  3  0  0  0  0  0  0
  -22.6530  -10.1940   20.1940 C   0  0  0  0  0  3  0  0  0  0  0  0
  -21.2080   -7.0250   21.4610 O   0  0  0  0  0  0  0  0  0  0  0  0
  -21.0870   -6.2980   22.6260 C   0  0  0  0  0  0  0  0  0  0  0  0
  -20.7230   -6.9090   23.8490 C   0  0  0  0  0  3  0  0  0  0  0  0
  -20.5370   -6.1270   25.0090 C   0  0  0  0  0  3  0  0  0  0  0  0
  -20.7140   -4.7290   24.9540 C   0  0  0  0  0  0  0  0  0  0  0  0
  -21.0610   -4.1100   23.7410 C   0  0  0  0  0  3  0  0  0  0  0  0
  -21.2390   -4.8920   22.5800 C   0  0  0  0  0  0  0  0  0  0  0  0
  -21.5420   -4.2800   21.4120 F   0  0  0  0  0  0  0  0  0  0  0  0
  -20.5480   -3.9790   26.0720 F   0  0  0  0  0  0  0  0  0  0  0  0
  -23.0610  -13.3380   21.3730 C   0  0  0  0  0  0  0  0  0  0  0  0
  -22.5320  -12.6480   22.3720 N   0  0  0  0  0  0  0  0  0  0  0  0
  -22.5290  -14.3550   20.9360 O   0  0  0  0  0  0  0  0  0  0  0  0
  -22.9900  -11.8450   22.7700 H   0  0  0  0  0  0  0  0  0  0  0  0
  -21.6500  -12.9550   22.7580 H   0  0  0  0  0  0  0  0  0  0  0  0
  -25.0430  -15.0740   20.1840 N   0  0  0  0  0  0  0  0  0  0  0  0
  -25.5820  -15.6290   19.5420 H   0  0  0  0  0  0  0  0  0  0  0  0
  -24.0400  -15.2250   20.0770 H   0  0  0  0  0  0  0  0  0  0  0  0
  -27.9900  -19.8920   17.9520 C   0  0  0  0  0 15  0  0  0  0  0  0
  -27.7220  -21.9970   18.1120 C   0  0  0  0  0 15  0  0  0  0  0  0
  -27.9910  -23.8150   17.5720 O   0  0  0  0  0  1  0  0  0  0  0  0
  -26.4570  -29.9370   22.5600 C   0  0  0  0  0  0  0  0  0  0  0  0
  -27.5980  -25.3050   18.0570 C   0  0  0  0  0  0  0  0  0  0  0  0
  -25.0420  -29.3410   20.6570 C   0  0  0  0  0  3  0  0  0  0  0  0
  -26.0900  -27.9040   18.7470 C   0  0  0  0  0  0  0  0  0  0  0  0
  -27.5810  -28.8670   20.4650 C   0  0  0  0  0  2  0  0  0  0  0  0
  -27.3040  -27.6940   19.4060 C   0  0  0  0  0  0  0  0  0  0  0  0
  -28.0660  -26.4310   19.0290 C   0  0  0  0  0  3  0  0  0  0  0  0
  -26.4720  -25.8340   17.4040 C   0  0  0  0  0  3  0  0  0  0  0  0
  -25.7440  -27.0120   17.7230 C   0  0  0  0  0  3  0  0  0  0  0  0
  -25.1610  -29.0660   19.1340 C   0  0  0  0  0  2  0  0  0  0  0  0
  -26.3990  -29.4000   21.2860 N   0  0  0  0  0  0  0  0  0  0  0  0
  -25.4330  -30.3010   23.1690 O   0  0  0  0  0  0  0  0  0  0  0  0
  -24.1190  -28.2870   21.3300 C   0  0  0  0  0  0  0  0  0  0  0  0
  -22.7880  -28.4960   21.3100 N   0  0  0  0  0  0  0  0  0  0  0  0
  -24.6140  -27.2850   21.8530 O   0  0  0  0  0  0  0  0  0  0  0  0
  -22.4460  -29.3460   20.8850 H   0  0  0  0  0  0  0  0  0  0  0  0
  -19.2320  -28.0470   21.9260 C   0  0  0  0  0  0  0  0  0  0  0  0
  -21.7740  -27.5660   21.8260 C   0  0  0  0  0  3  0  0  0  0  0  0
  -21.4180  -26.4910   20.7730 C   0  0  0  0  0  2  0  0  0  0  0  0
  -20.2080  -26.8680   19.9110 C   0  0  0  0  0  2  0  0  0  0  0  0
  -18.9690  -27.0750   20.7880 C   0  0  0  0  0  2  0  0  0  0  0  0
  -20.5490  -28.2900   22.4030 C   0  0  0  0  0  0  0  0  0  0  0  0
  -20.7340  -29.2220   23.4450 C   0  0  0  0  0  3  0  0  0  0  0  0
  -19.6390  -29.9060   24.0060 C   0  0  0  0  0  3  0  0  0  0  0  0
  -18.3380  -29.6550   23.5370 C   0  0  0  0  0  3  0  0  0  0  0  0
  -18.1360  -28.7230   22.5030 C   0  0  0  0  0  3  0  0  0  0  0  0
  -27.8020  -30.1300   23.3200 C   0  0  0  0  0  3  0  0  0  0  0  0
  -27.5500  -30.9780   24.5080 N   0  0  0  0  0  0  0  0  0  0  0  0
  -27.9620  -32.2440   24.6640 C   0  0  0  0  0  0  0  0  0  0  0  0
  -28.6460  -32.8230   23.8180 O   0  0  0  0  0  0  0  0  0  0  0  0
  -26.9470  -30.5850   25.2150 H   0  0  0  0  0  0  0  0  0  0  0  0
  -26.4290  -33.9880   25.6550 C   0  0  0  0  0  1  0  0  0  0  0  0
  -27.5580  -32.9880   25.9580 C   0  0  0  0  0  3  0  0  0  0  0  0
  -29.6690  -32.8030   27.2020 C   0  0  0  0  0  1  0  0  0  0  0  0
  -28.6810  -33.6980   26.6090 N   0  0  0  0  0  0  0  0  0  0  0  0
  -28.3410  -34.3220   27.3360 H   0  0  0  0  0  0  0  0  0  0  0  0
  -28.4500  -28.7650   23.7810 C   0  0  1  0  0  0  0  0  0  0  0  0
  -27.4750  -27.8310   24.5390 C   0  0  0  0  0  1  0  0  0  0  0  0
  -28.9990  -27.9750   22.5750 C   0  0  0  0  0  1  0  0  0  0  0  0
  -29.6580  -29.0450   24.7050 C   0  0  0  0  0  1  0  0  0  0  0  0
  1  2  1  0
  4  9  1  0
  7  4  1  0
  8  6  1  0
  8  9  1  0
  8  2  1  0
  9 11  1  0
  9 10  1  0
 12 19  1  0
 12 18  1  0
 12 17  1  0
 13 18  1  0
 14 15  1  0
 20 45  1  0
 20 21  1  0
 21 40  1  0
 22 25  1  0
 22 21  1  0
 23 20  1  0
 24 23  1  0
 24 22  2  0
 25 26  1  0
 26 27  2  0
 28 31  1  0
 28 27  1  0
 29 28  2  0
 30 29  1  0
 30 25  2  0
 31 32  1  0
 32 33  1  0
 33 34  2  0
 35 34  1  0
 35 39  1  0
 36 35  2  0
 37 32  2  0
 37 36  1  0
 38 37  1  0
 40 41  1  0
 41 44  1  0
 41 43  1  0
 42 40  2  0
 46 45  1  0
 47 45  1  0
 50 52  1  0
 51 62  2  0
 52 57  1  0
 53 61  1  0
 53 63  1  0
 54 60  1  0
 54 56  1  0
 55 61  1  0
 56 55  1  0
 57 56  2  0
 58 59  1  0
 58 52  2  0
 59 54  2  0
 60 53  1  0
 61 51  1  0
 63 65  2  0
 64 63  1  0
 66 64  1  0
 67 72  2  0
 67 76  1  0
 68 64  1  0
 68 72  1  0
 69 68  1  0
 70 69  1  0
 70 71  1  0
 71 67  1  0
 72 73  1  0
 73 74  2  0
 75 74  1  0
 76 75  2  0
 77 51  1  0
 77 87  1  0
 77 78  1  0
 78 79  1  0
 78 81  1  0
 79 83  1  0
 80 79  2  0
 83 82  1  0
 83 85  1  0
 85 84  1  0
 85 86  1  0
 87 88  1  1
 87 90  1  0
 89 87  1  0
M  ISO  4   5 100  12 100  49 101  50 101
M  END
>  <TORSDO>  (31) 
F 18

>  <SCORE>  (31) 
-7.028

>  <name>  (31) 
30

>  <ligand_id>  (31) 
30

>  <original_smiles>  (31) 
[H]c1c([H])c([H])c2c(c1[H])C([H])([H])C([H])([H])C([H])([H])C2([H])N([H])C(=O)C1([H])N(C(=O)C([H])(N([H])C(=O)C([H])(N([H])C([H])([H])[H])C([H])([H])[H])C(C([H])([H])[H])(C([H])([H])[H])C([H])([H])[H])C([H])([H])c2c([H])c(OC([H])([H])C([H])([H])C3([H])C4([H])C([H])([H])C([H])(C(=O)N5C([H])([H])C([H])([H])C([H])([H])C([H])(n6nc(-c7c([H])c([H])c(Oc8c([H])c([H])c(F)c([H])c8F)c([H])c7[H])c(C(=O)N([H])[H])c6N([H])[H])C5([H])[H])C([H])([H])C([H])([H])C4([H])[N+]([H])([H])C3([H])[H])c([H])c([H])c2C1([H])[H]

>  <smiles>  (31) 
[H]c1c([H])c([H])c2c(c1[H])C([H])([H])C([H])([H])C([H])([H])C2([H])N([H])C(=O)C1([H])N(C(=O)C([H])(N([H])C(=O)C([H])(N([H])C([H])([H])[H])C([H])([H])[H])C(C([H])([H])[H])(C([H])([H])[H])C([H])([H])[H])C([H])([H])c2c([H])c(OC([H])([H])C([H])([H])C3([H])C4([H])C([H])([H])C([H])(C(=O)N5C([H])([H])C([H])([H])C([H])([H])C([H])(n6nc(-c7c([H])c([H])c(Oc8c([H])c([H])c(F)c([H])c8F)c([H])c7[H])c(C(=O)N([H])[H])c6N([H])[H])C5([H])[H])C([H])([H])C([H])([H])C4([H])[N+]([H])([H])C3([H])[H])c([H])c([H])c2C1([H])[H]

$$$$
31:0:0
     RDKit          3D

 95103  0  0  1  0  0  0  0  0999 V2000
  -28.4710  -23.5500   21.9790 C   0  0  0  0  0  2  0  0  0  0  0  0
  -27.2990  -22.5910   21.8350 C   0  0  0  0  0  2  0  0  0  0  0  0
  -29.0090  -23.6540   20.5590 C   0  0  0  0  0  3  0  0  0  0  0  0
  -28.8200  -22.0540   20.0650 C   0  0  0  0  0  3  0  0  0  0  0  0
  -27.7890  -21.5260   20.9690 N   0  0  0  0  0  0  0  0  0  0  0  0
  -27.0100  -21.1350   20.4430 H   0  0  0  0  0  0  0  0  0  0  0  0
  -28.2700  -24.9690   19.8470 C   0  0  0  0  0  2  0  0  0  0  0  0
  -28.4330  -26.4520   20.2490 O   0  0  0  0  0  0  0  0  0  0  0  0
  -24.6630  -31.9560   23.2680 C   0  0  0  0  0  0  0  0  0  0  0  0
  -27.3540  -27.3940   20.1570 C   0  0  0  0  0  0  0  0  0  0  0  0
  -23.5010  -30.5720   21.5910 C   0  0  0  0  0  3  0  0  0  0  0  0
  -24.9870  -29.0680   20.1390 C   0  0  0  0  0  0  0  0  0  0  0  0
  -26.0460  -30.9050   21.4460 C   0  0  0  0  0  2  0  0  0  0  0  0
  -26.1510  -29.5330   20.7660 C   0  0  0  0  0  0  0  0  0  0  0  0
  -27.3350  -28.7110   20.7610 C   0  0  0  0  0  3  0  0  0  0  0  0
  -26.1690  -27.0330   19.4770 C   0  0  0  0  0  3  0  0  0  0  0  0
  -25.0080  -27.8310   19.4820 C   0  0  0  0  0  3  0  0  0  0  0  0
  -23.7410  -29.9350   20.1970 C   0  0  0  0  0  2  0  0  0  0  0  0
  -24.7560  -31.1630   22.1590 N   0  0  0  0  0  0  0  0  0  0  0  0
  -23.5690  -32.2060   23.7970 O   0  0  0  0  0  0  0  0  0  0  0  0
  -22.8380  -29.5290   22.5240 C   0  0  0  0  0  0  0  0  0  0  0  0
  -21.5140  -29.3370   22.3880 N   0  0  0  0  0  0  0  0  0  0  0  0
  -23.5170  -28.8960   23.3370 O   0  0  0  0  0  0  0  0  0  0  0  0
  -21.0220  -29.9030   21.7120 H   0  0  0  0  0  0  0  0  0  0  0  0
  -18.1500  -28.0880   22.8670 C   0  0  0  0  0  0  0  0  0  0  0  0
  -20.7060  -28.3700   23.1340 C   0  0  0  0  0  3  0  0  0  0  0  0
  -20.8220  -26.9570   22.5190 C   0  0  0  0  0  2  0  0  0  0  0  0
  -19.7210  -26.6500   21.4990 C   0  0  0  0  0  2  0  0  0  0  0  0
  -18.3390  -26.7620   22.1510 C   0  0  0  0  0  2  0  0  0  0  0  0
  -19.2610  -28.8520   23.3140 C   0  0  0  0  0  0  0  0  0  0  0  0
  -19.0310  -30.0930   23.9470 C   0  0  0  0  0  3  0  0  0  0  0  0
  -17.7210  -30.5740   24.1320 C   0  0  0  0  0  3  0  0  0  0  0  0
  -16.6240  -29.8090   23.7010 C   0  0  0  0  0  3  0  0  0  0  0  0
  -16.8380  -28.5670   23.0760 C   0  0  0  0  0  3  0  0  0  0  0  0
  -25.9270  -32.6030   23.9140 C   0  0  0  0  0  3  0  0  0  0  0  0
  -25.6040  -34.0050   24.2190 N   0  0  0  0  0  0  0  0  0  0  0  0
  -25.9370  -35.0500   23.4500 C   0  0  0  0  0  0  0  0  0  0  0  0
  -26.6130  -34.9370   22.4250 O   0  0  0  0  0  0  0  0  0  0  0  0
  -25.0060  -34.1660   25.0150 H   0  0  0  0  0  0  0  0  0  0  0  0
  -24.1980  -36.8320   23.0660 C   0  0  0  0  0  1  0  0  0  0  0  0
  -25.4380  -36.4420   23.8880 C   0  0  0  0  0  3  0  0  0  0  0  0
  -27.5550  -37.3580   24.7290 C   0  0  0  0  0  1  0  0  0  0  0  0
  -26.4640  -37.5000   23.7680 N   0  0  0  0  0  0  0  0  0  0  0  0
  -26.0490  -38.4180   23.8970 H   0  0  0  0  0  0  0  0  0  0  0  0
  -26.4100  -31.8550   25.2180 C   0  0  1  0  0  0  0  0  0  0  0  0
  -25.2870  -31.6250   26.2570 C   0  0  0  0  0  1  0  0  0  0  0  0
  -27.0170  -30.4770   24.8700 C   0  0  0  0  0  1  0  0  0  0  0  0
  -27.5340  -32.6670   25.9040 C   0  0  0  0  0  1  0  0  0  0  0  0
  -29.9730  -20.8310   20.1020 C   0  0  0  0  0  3  0  0  0  0  0  0
  -29.4920  -19.3230   20.1950 N   0  0  0  0  0  4  0  0  0  0  0  0
  -28.6740  -19.2520   19.6150 H   0  0  0  0  0  0  0  0  0  0  0  0
  -29.1520  -19.2580   21.1410 H   0  0  0  0  0  0  0  0  0  0  0  0
  -30.4350  -17.7660   18.4080 C   0  0  0  0  0  1  0  0  0  0  0  0
  -30.3710  -18.0270   19.9300 C   0  0  0  0  0  3  0  0  0  0  0  0
  -30.0030  -16.5520   20.6390 C   0  0  0  0  0  2  0  0  0  0  0  0
  -30.7880  -15.1320   20.3270 C   0  0  0  0  0  0  0  0  0  0  0  0
  -30.6410  -12.7820   19.3970 C   0  0  0  0  0  2  0  0  0  0  0  0
  -29.7230  -12.7840   18.1500 C   0  0  0  0  0  2  0  0  0  0  0  0
  -28.2480  -12.6010   18.5570 C   0  0  0  0  0  2  0  0  0  0  0  0
  -27.8440  -13.5350   19.7290 C   0  0  0  0  0  3  0  0  0  0  0  0
  -28.8830  -13.5160   20.8690 C   0  0  0  0  0  2  0  0  0  0  0  0
  -30.1860  -13.8790   20.2970 N   0  0  0  0  0  0  0  0  0  0  0  0
  -31.9770  -15.1850   19.9980 O   0  0  0  0  0  0  0  0  0  0  0  0
  -25.4610  -14.1500   20.4380 C   0  0  0  0  0  0  0  0  0  0  0  0
  -24.3830  -13.3890   20.7940 C   0  0  0  0  0  0  0  0  0  0  0  0
  -24.8290  -12.0310   20.7690 C   0  0  0  0  0  0  0  0  0  0  0  0
  -26.4950  -13.2570   20.2100 N   0  0  0  0  0  0  0  0  0  0  0  0
  -26.1230  -11.9770   20.4740 N   0  0  0  0  0  0  0  0  0  0  0  0
  -24.0830  -10.7800   20.9470 C   0  0  0  0  0  0  0  0  0  0  0  0
  -24.4700   -9.8200   21.9050 C   0  0  0  0  0  3  0  0  0  0  0  0
  -23.7250   -8.6320   22.0710 C   0  0  0  0  0  3  0  0  0  0  0  0
  -22.5760   -8.3990   21.2780 C   0  0  0  0  0  0  0  0  0  0  0  0
  -22.2090   -9.3480   20.3070 C   0  0  0  0  0  3  0  0  0  0  0  0
  -22.9550  -10.5260   20.1410 C   0  0  0  0  0  3  0  0  0  0  0  0
  -21.8050   -7.2650   21.3520 O   0  0  0  0  0  0  0  0  0  0  0  0
  -21.6870   -6.5490   22.5170 C   0  0  0  0  0  0  0  0  0  0  0  0
  -21.1640   -7.1250   23.6960 C   0  0  0  0  0  3  0  0  0  0  0  0
  -20.9980   -6.3340   24.8510 C   0  0  0  0  0  3  0  0  0  0  0  0
  -21.3430   -4.9700   24.8270 C   0  0  0  0  0  0  0  0  0  0  0  0
  -21.8570   -4.3940   23.6520 C   0  0  0  0  0  3  0  0  0  0  0  0
  -22.0260   -5.1800   22.5000 C   0  0  0  0  0  0  0  0  0  0  0  0
  -22.5040   -4.6160   21.3650 F   0  0  0  0  0  0  0  0  0  0  0  0
  -21.1750   -4.2080   25.9340 F   0  0  0  0  0  0  0  0  0  0  0  0
  -22.9890  -13.8840   21.0480 C   0  0  0  0  0  0  0  0  0  0  0  0
  -22.2460  -13.2060   21.9140 N   0  0  0  0  0  0  0  0  0  0  0  0
  -22.5680  -14.9090   20.5120 O   0  0  0  0  0  0  0  0  0  0  0  0
  -22.5950  -12.3760   22.3710 H   0  0  0  0  0  0  0  0  0  0  0  0
  -21.3110  -13.5240   22.1250 H   0  0  0  0  0  0  0  0  0  0  0  0
  -25.6450  -15.5180   20.2600 N   0  0  0  0  0  0  0  0  0  0  0  0
  -24.8830  -16.1820   20.3520 H   0  0  0  0  0  0  0  0  0  0  0  0
  -26.4980  -15.9430   19.9210 H   0  0  0  0  0  0  0  0  0  0  0  0
  -30.9980  -21.0240   18.9480 C   0  0  0  0  0  2  0  0  0  0  0  0
  -32.8030  -22.3310   17.7310 C   0  0  0  0  0  1  0  0  0  0  0  0
  -32.6420  -22.5340   20.2290 C   0  0  0  0  0  1  0  0  0  0  0  0
  -31.8430  -22.3220   18.9290 C   0  0  0  0  0  3  0  0  0  0  0  0
  2  1  1  0
  3  7  1  0
  3  1  1  0
  4 49  1  0
  4  3  1  0
  4  5  1  0
  5  2  1  0
  6  5  1  0
  7  8  1  0
  9 20  2  0
 10  8  1  0
 10 15  1  0
 11 19  1  0
 11 21  1  0
 12 18  1  0
 12 14  1  0
 13 19  1  0
 14 13  1  0
 15 14  2  0
 16 17  1  0
 16 10  2  0
 17 12  2  0
 18 11  1  0
 19  9  1  0
 21 23  2  0
 22 21  1  0
 24 22  1  0
 25 34  2  0
 25 30  1  0
 26 22  1  0
 26 30  1  0
 27 26  1  0
 28 29  1  0
 28 27  1  0
 29 25  1  0
 30 31  2  0
 31 32  1  0
 33 32  2  0
 34 33  1  0
 35  9  1  0
 35 36  1  0
 35 45  1  0
 36 39  1  0
 37 41  1  0
 37 36  1  0
 38 37  2  0
 41 40  1  0
 43 41  1  0
 43 44  1  0
 43 42  1  0
 45 48  1  1
 45 46  1  0
 47 45  1  0
 49 92  1  0
 49 50  1  0
 50 52  1  0
 51 50  1  0
 54 53  1  0
 54 50  1  0
 54 55  1  0
 56 55  1  0
 57 62  1  0
 58 59  1  0
 58 57  1  0
 60 59  1  0
 60 67  1  0
 60 61  1  0
 62 56  1  0
 62 61  1  0
 63 56  2  0
 64 65  2  0
 65 84  1  0
 66 65  1  0
 66 69  1  0
 67 64  1  0
 67 68  1  0
 68 66  2  0
 69 70  1  0
 70 71  2  0
 72 75  1  0
 72 71  1  0
 73 72  2  0
 74 73  1  0
 74 69  2  0
 75 76  1  0
 76 77  1  0
 77 78  2  0
 79 78  1  0
 79 83  1  0
 80 79  2  0
 81 76  2  0
 81 80  1  0
 82 81  1  0
 84 85  1  0
 85 88  1  0
 85 87  1  0
 86 84  2  0
 89 90  1  0
 89 64  1  0
 91 89  1  0
 93 95  1  0
 95 92  1  0
 95 94  1  0
M  ISO  4   7 101   8 101  55 100  56 100
M  END
>  <TORSDO>  (32) 
F 23

>  <SCORE>  (32) 
-12.590

>  <name>  (32) 
31

>  <ligand_id>  (32) 
31

>  <original_smiles>  (32) 
[H]c1c([H])c([H])c2c(c1[H])C([H])([H])C([H])([H])C([H])([H])C2([H])N([H])C(=O)C1([H])N(C(=O)C([H])(N([H])C(=O)C([H])(N([H])C([H])([H])[H])C([H])([H])[H])C(C([H])([H])[H])(C([H])([H])[H])C([H])([H])[H])C([H])([H])c2c([H])c(OC([H])([H])C3([H])C([H])([H])C([H])([H])N([H])C3([H])C([H])(C([H])([H])C([H])(C([H])([H])[H])C([H])([H])[H])[N+]([H])([H])C([H])(C([H])([H])[H])C([H])([H])C(=O)N3C([H])([H])C([H])([H])C([H])([H])C([H])(n4nc(-c5c([H])c([H])c(Oc6c([H])c([H])c(F)c([H])c6F)c([H])c5[H])c(C(=O)N([H])[H])c4N([H])[H])C3([H])[H])c([H])c([H])c2C1([H])[H]

>  <smiles>  (32) 
[H]c1c([H])c([H])c2c(c1[H])C([H])([H])C([H])([H])C([H])([H])C2([H])N([H])C(=O)C1([H])N(C(=O)C([H])(N([H])C(=O)C([H])(N([H])C([H])([H])[H])C([H])([H])[H])C(C([H])([H])[H])(C([H])([H])[H])C([H])([H])[H])C([H])([H])c2c([H])c(OC([H])([H])C3([H])C([H])([H])C([H])([H])N([H])C3([H])C([H])(C([H])([H])C([H])(C([H])([H])[H])C([H])([H])[H])[N+]([H])([H])C([H])(C([H])([H])[H])C([H])([H])C(=O)N3C([H])([H])C([H])([H])C([H])([H])C([H])(n4nc(-c5c([H])c([H])c(Oc6c([H])c([H])c(F)c([H])c6F)c([H])c5[H])c(C(=O)N([H])[H])c4N([H])[H])C3([H])[H])c([H])c([H])c2C1([H])[H]

$$$$
32:0:0
     RDKit          3D

 90 98  0  0  1  0  0  0  0  0999 V2000
  -29.5450  -20.4260   17.9550 C   0  0  0  0  0  3  0  0  0  0  0  0
  -29.3190  -21.6210   18.6600 C   0  0  0  0  0  3  0  0  0  0  0  0
  -29.7800  -19.2210   18.6440 C   0  0  0  0  0  3  0  0  0  0  0  0
  -29.5830  -20.4040   20.7530 C   0  0  0  0  0  3  0  0  0  0  0  0
  -29.3330  -21.6200   20.0720 C   0  0  0  0  0  0  0  0  0  0  0  0
  -29.8030  -19.1830   20.0600 C   0  0  0  0  0  0  0  0  0  0  0  0
  -29.1960  -17.8290   21.9770 C   0  0  0  0  0  1  0  0  0  0  0  0
  -30.0190  -17.9730   20.7740 N   0  0  0  0  0  0  0  0  0  0  0  0
  -30.4170  -16.7680   20.0220 C   0  0  0  0  0  2  0  0  0  0  0  0
  -30.8790  -15.5620   20.8860 C   0  0  0  0  0  2  0  0  0  0  0  0
  -31.3460  -14.3790   20.0070 C   0  0  0  0  0  0  0  0  0  0  0  0
  -30.8180  -12.3430   18.7110 C   0  0  0  0  0  2  0  0  0  0  0  0
  -29.8340  -12.7060   17.5800 C   0  0  0  0  0  2  0  0  0  0  0  0
  -28.3760  -12.6490   18.0820 C   0  0  0  0  0  2  0  0  0  0  0  0
  -28.1730  -13.4130   19.4170 C   0  0  0  0  0  3  0  0  0  0  0  0
  -29.2600  -13.0110   20.4380 C   0  0  0  0  0  2  0  0  0  0  0  0
  -30.5750  -13.2680   19.8310 N   0  0  0  0  0  0  0  0  0  0  0  0
  -32.4170  -14.5240   19.4110 O   0  0  0  0  0  0  0  0  0  0  0  0
  -25.8480  -14.1470   20.2460 C   0  0  0  0  0  0  0  0  0  0  0  0
  -24.7530  -13.4290   20.6520 C   0  0  0  0  0  0  0  0  0  0  0  0
  -25.1300  -12.0540   20.5730 C   0  0  0  0  0  0  0  0  0  0  0  0
  -26.8270  -13.2100   19.9520 N   0  0  0  0  0  0  0  0  0  0  0  0
  -26.4000  -11.9450   20.2020 N   0  0  0  0  0  0  0  0  0  0  0  0
  -24.3410  -10.8330   20.7770 C   0  0  0  0  0  0  0  0  0  0  0  0
  -24.7320   -9.8520   21.7130 C   0  0  0  0  0  3  0  0  0  0  0  0
  -23.9500   -8.6930   21.9050 C   0  0  0  0  0  3  0  0  0  0  0  0
  -22.7600   -8.5080   21.1610 C   0  0  0  0  0  0  0  0  0  0  0  0
  -22.3880   -9.4780   20.2120 C   0  0  0  0  0  3  0  0  0  0  0  0
  -23.1700  -10.6280   20.0190 C   0  0  0  0  0  3  0  0  0  0  0  0
  -21.9500   -7.4030   21.2610 O   0  0  0  0  0  0  0  0  0  0  0  0
  -21.8230   -6.7070   22.4350 C   0  0  0  0  0  0  0  0  0  0  0  0
  -21.3790   -7.3260   23.6240 C   0  0  0  0  0  3  0  0  0  0  0  0
  -21.1970   -6.5580   24.7910 C   0  0  0  0  0  3  0  0  0  0  0  0
  -21.4490   -5.1730   24.7700 C   0  0  0  0  0  0  0  0  0  0  0  0
  -21.8860   -4.5540   23.5860 C   0  0  0  0  0  3  0  0  0  0  0  0
  -22.0700   -5.3190   22.4210 C   0  0  0  0  0  0  0  0  0  0  0  0
  -22.4690   -4.7140   21.2760 F   0  0  0  0  0  0  0  0  0  0  0  0
  -21.2670   -4.4330   25.8890 F   0  0  0  0  0  0  0  0  0  0  0  0
  -23.4020  -13.9800   21.0030 C   0  0  0  0  0  0  0  0  0  0  0  0
  -22.6830  -13.3120   21.9000 N   0  0  0  0  0  0  0  0  0  0  0  0
  -22.9940  -15.0340   20.5180 O   0  0  0  0  0  0  0  0  0  0  0  0
  -23.0300  -12.4600   22.3150 H   0  0  0  0  0  0  0  0  0  0  0  0
  -21.7750  -13.6570   22.1740 H   0  0  0  0  0  0  0  0  0  0  0  0
  -26.0870  -15.5070   20.0880 N   0  0  0  0  0  0  0  0  0  0  0  0
  -25.3700  -16.2080   20.2450 H   0  0  0  0  0  0  0  0  0  0  0  0
  -26.9590  -15.9010   19.7580 H   0  0  0  0  0  0  0  0  0  0  0  0
  -29.0890  -22.8960   20.8840 C   0  0  0  0  0  2  0  0  0  0  0  0
  -28.8860  -24.2020   20.0780 C   0  0  0  0  0  2  0  0  0  0  0  0
  -28.5700  -25.4140   20.9740 C   0  0  0  0  0  2  0  0  0  0  0  0
  -28.5870  -26.6320   20.2280 O   0  0  0  0  0  0  0  0  0  0  0  0
  -24.5510  -31.6900   23.1800 C   0  0  0  0  0  0  0  0  0  0  0  0
  -27.3970  -27.3180   20.2070 C   0  0  0  0  0  0  0  0  0  0  0  0
  -23.4300  -30.2580   21.5010 C   0  0  0  0  0  3  0  0  0  0  0  0
  -24.9640  -28.7450   20.1360 C   0  0  0  0  0  0  0  0  0  0  0  0
  -25.9490  -30.6780   21.3860 C   0  0  0  0  0  2  0  0  0  0  0  0
  -26.0880  -29.3080   20.7550 C   0  0  0  0  0  0  0  0  0  0  0  0
  -27.3100  -28.6020   20.7850 C   0  0  0  0  0  3  0  0  0  0  0  0
  -26.2600  -26.7570   19.5910 C   0  0  0  0  0  3  0  0  0  0  0  0
  -25.0440  -27.4660   19.5510 C   0  0  0  0  0  3  0  0  0  0  0  0
  -23.7000  -29.5740   20.1330 C   0  0  0  0  0  2  0  0  0  0  0  0
  -24.6590  -30.8900   22.0820 N   0  0  0  0  0  0  0  0  0  0  0  0
  -23.4470  -31.9400   23.6840 O   0  0  0  0  0  0  0  0  0  0  0  0
  -22.7660  -29.2280   22.4430 C   0  0  0  0  0  0  0  0  0  0  0  0
  -21.4480  -29.0300   22.2780 N   0  0  0  0  0  0  0  0  0  0  0  0
  -23.4360  -28.6110   23.2750 O   0  0  0  0  0  0  0  0  0  0  0  0
  -20.9710  -29.5790   21.5780 H   0  0  0  0  0  0  0  0  0  0  0  0
  -18.0770  -27.7950   22.6770 C   0  0  0  0  0  0  0  0  0  0  0  0
  -20.6230  -28.0800   23.0240 C   0  0  0  0  0  3  0  0  0  0  0  0
  -20.7590  -26.6530   22.4450 C   0  0  0  0  0  2  0  0  0  0  0  0
  -19.6900  -26.3210   21.4000 C   0  0  0  0  0  2  0  0  0  0  0  0
  -18.2890  -26.4500   22.0040 C   0  0  0  0  0  2  0  0  0  0  0  0
  -19.1750  -28.5680   23.1410 C   0  0  0  0  0  0  0  0  0  0  0  0
  -18.9260  -29.8280   23.7270 C   0  0  0  0  0  3  0  0  0  0  0  0
  -17.6120  -30.3160   23.8560 C   0  0  0  0  0  3  0  0  0  0  0  0
  -16.5290  -29.5390   23.4110 C   0  0  0  0  0  3  0  0  0  0  0  0
  -16.7620  -28.2810   22.8270 C   0  0  0  0  0  3  0  0  0  0  0  0
  -25.8040  -32.3470   23.8420 C   0  0  0  0  0  3  0  0  0  0  0  0
  -25.4520  -33.7330   24.1770 N   0  0  0  0  0  0  0  0  0  0  0  0
  -25.7680  -34.7980   23.4280 C   0  0  0  0  0  0  0  0  0  0  0  0
  -26.4560  -34.7190   22.4070 O   0  0  0  0  0  0  0  0  0  0  0  0
  -24.8400  -33.8660   24.9690 H   0  0  0  0  0  0  0  0  0  0  0  0
  -23.9860  -36.5340   23.0660 C   0  0  0  0  0  1  0  0  0  0  0  0
  -25.2340  -36.1690   23.8850 C   0  0  0  0  0  3  0  0  0  0  0  0
  -27.3340  -37.1190   24.7330 C   0  0  0  0  0  1  0  0  0  0  0  0
  -26.2350  -37.2540   23.7810 N   0  0  0  0  0  0  0  0  0  0  0  0
  -25.7980  -38.1610   23.9290 H   0  0  0  0  0  0  0  0  0  0  0  0
  -26.3070  -31.5740   25.1220 C   0  0  1  0  0  0  0  0  0  0  0  0
  -25.1940  -31.2910   26.1570 C   0  0  0  0  0  1  0  0  0  0  0  0
  -26.9400  -30.2200   24.7250 C   0  0  0  0  0  1  0  0  0  0  0  0
  -27.4180  -32.3910   25.8230 C   0  0  0  0  0  1  0  0  0  0  0  0
  1  3  2  0
  1  2  1  0
  2  5  2  0
  3  6  1  0
  5  4  1  0
  5 47  1  0
  6  4  2  0
  6  8  1  0
  8  7  1  0
  9  8  1  0
  9 10  1  0
 11 10  1  0
 12 17  1  0
 13 14  1  0
 13 12  1  0
 15 14  1  0
 15 22  1  0
 15 16  1  0
 17 11  1  0
 17 16  1  0
 18 11  2  0
 19 20  2  0
 20 39  1  0
 21 20  1  0
 21 24  1  0
 22 23  1  0
 22 19  1  0
 23 21  2  0
 24 25  1  0
 25 26  2  0
 27 30  1  0
 27 26  1  0
 28 27  2  0
 29 28  1  0
 29 24  2  0
 30 31  1  0
 31 32  1  0
 32 33  2  0
 34 33  1  0
 34 38  1  0
 35 34  2  0
 36 31  2  0
 36 35  1  0
 37 36  1  0
 39 40  1  0
 40 43  1  0
 40 42  1  0
 41 39  2  0
 44 45  1  0
 44 19  1  0
 46 44  1  0
 48 47  1  0
 48 49  1  0
 50 49  1  0
 51 62  2  0
 52 50  1  0
 52 57  1  0
 53 61  1  0
 53 63  1  0
 54 56  1  0
 55 61  1  0
 56 57  2  0
 56 55  1  0
 58 52  2  0
 59 58  1  0
 59 54  2  0
 60 54  1  0
 60 53  1  0
 61 51  1  0
 63 65  2  0
 64 63  1  0
 66 64  1  0
 67 76  2  0
 67 72  1  0
 68 64  1  0
 68 72  1  0
 69 68  1  0
 70 71  1  0
 70 69  1  0
 71 67  1  0
 72 73  2  0
 73 74  1  0
 75 74  2  0
 76 75  1  0
 77 51  1  0
 77 78  1  0
 77 87  1  0
 78 81  1  0
 79 83  1  0
 79 78  1  0
 80 79  2  0
 83 82  1  0
 85 83  1  0
 85 86  1  0
 85 84  1  0
 87 90  1  1
 87 88  1  0
 89 87  1  0
M  ISO  4  10 100  11 100  49 101  50 101
M  END
>  <TORSDO>  (33) 
F 22

>  <SCORE>  (33) 
-11.402

>  <name>  (33) 
32

>  <ligand_id>  (33) 
32

>  <original_smiles>  (33) 
[H]c1c([H])c(N(C([H])([H])[H])C([H])([H])C([H])([H])C(=O)N2C([H])([H])C([H])([H])C([H])([H])C([H])(n3nc(-c4c([H])c([H])c(Oc5c([H])c([H])c(F)c([H])c5F)c([H])c4[H])c(C(=O)N([H])[H])c3N([H])[H])C2([H])[H])c([H])c(C([H])([H])C([H])([H])C([H])([H])Oc2c([H])c([H])c3c(c2[H])C([H])([H])N(C(=O)C([H])(N([H])C(=O)C([H])(N([H])C([H])([H])[H])C([H])([H])[H])C(C([H])([H])[H])(C([H])([H])[H])C([H])([H])[H])C([H])(C(=O)N([H])C2([H])c4c([H])c([H])c([H])c([H])c4C([H])([H])C([H])([H])C2([H])[H])C3([H])[H])c1[H]

>  <smiles>  (33) 
[H]c1c([H])c(N(C([H])([H])[H])C([H])([H])C([H])([H])C(=O)N2C([H])([H])C([H])([H])C([H])([H])C([H])(n3nc(-c4c([H])c([H])c(Oc5c([H])c([H])c(F)c([H])c5F)c([H])c4[H])c(C(=O)N([H])[H])c3N([H])[H])C2([H])[H])c([H])c(C([H])([H])C([H])([H])C([H])([H])Oc2c([H])c([H])c3c(c2[H])C([H])([H])N(C(=O)C([H])(N([H])C(=O)C([H])(N([H])C([H])([H])[H])C([H])([H])[H])C(C([H])([H])[H])(C([H])([H])[H])C([H])([H])[H])C([H])(C(=O)N([H])C2([H])c4c([H])c([H])c([H])c([H])c4C([H])([H])C([H])([H])C2([H])[H])C3([H])[H])c1[H]

$$$$
33:0:0
     RDKit          3D

 92100  0  0  1  0  0  0  0  0999 V2000
  -29.6970  -20.3090   19.1030 C   0  0  0  0  0  2  0  0  0  0  0  0
  -29.7900  -17.8020   19.5880 C   0  0  0  0  0  0  0  0  0  0  0  0
  -29.2090  -19.0270   19.6580 N   0  0  0  0  0  0  0  0  0  0  0  0
  -30.6760  -17.5540   18.7740 O   0  0  0  0  0  0  0  0  0  0  0  0
  -28.4380  -19.1030   20.3080 H   0  0  0  0  0  0  0  0  0  0  0  0
  -31.4420  -16.2990   21.8400 C   0  0  0  0  0  2  0  0  0  0  0  0
  -29.2780  -17.4450   22.0200 C   0  0  0  0  0  2  0  0  0  0  0  0
  -30.3180  -15.5710   21.0620 C   0  0  0  0  0  3  0  0  0  0  0  0
  -29.3330  -16.7370   20.6460 C   0  0  0  0  0  3  0  0  0  0  0  0
  -30.7590  -17.5480   22.4490 C   0  0  0  0  0  3  0  0  0  0  0  0
  -30.9340  -17.7070   23.9610 C   0  0  0  0  0  1  0  0  0  0  0  0
  -30.7990  -14.4760   20.0490 C   0  0  0  0  0  0  0  0  0  0  0  0
  -30.4030  -12.3770   18.7720 C   0  0  0  0  0  2  0  0  0  0  0  0
  -29.3910  -12.6540   17.6420 C   0  0  0  0  0  2  0  0  0  0  0  0
  -27.9380  -12.5250   18.1490 C   0  0  0  0  0  2  0  0  0  0  0  0
  -27.6990  -13.2880   19.4770 C   0  0  0  0  0  3  0  0  0  0  0  0
  -28.8100  -12.9650   20.4920 C   0  0  0  0  0  2  0  0  0  0  0  0
  -30.1050  -13.3080   19.8770 N   0  0  0  0  0  0  0  0  0  0  0  0
  -31.8580  -14.6720   19.4410 O   0  0  0  0  0  0  0  0  0  0  0  0
  -25.3540  -13.9120   20.3190 C   0  0  0  0  0  0  0  0  0  0  0  0
  -24.2910  -13.1510   20.7370 C   0  0  0  0  0  0  0  0  0  0  0  0
  -24.7360  -11.7960   20.6690 C   0  0  0  0  0  0  0  0  0  0  0  0
  -26.3710  -13.0210   20.0210 N   0  0  0  0  0  0  0  0  0  0  0  0
  -26.0040  -11.7410   20.2840 N   0  0  0  0  0  0  0  0  0  0  0  0
  -24.0060  -10.5420   20.8880 C   0  0  0  0  0  0  0  0  0  0  0  0
  -24.4480   -9.5870   21.8280 C   0  0  0  0  0  3  0  0  0  0  0  0
  -23.7200   -8.3940   22.0310 C   0  0  0  0  0  3  0  0  0  0  0  0
  -22.5340   -8.1520   21.2960 C   0  0  0  0  0  0  0  0  0  0  0  0
  -22.1060   -9.1010   20.3510 C   0  0  0  0  0  3  0  0  0  0  0  0
  -22.8350  -10.2830   20.1460 C   0  0  0  0  0  3  0  0  0  0  0  0
  -21.7790   -7.0090   21.4120 O   0  0  0  0  0  0  0  0  0  0  0  0
  -21.7020   -6.3100   22.5900 C   0  0  0  0  0  0  0  0  0  0  0  0
  -21.2670   -6.9140   23.7910 C   0  0  0  0  0  3  0  0  0  0  0  0
  -21.1280   -6.1400   24.9600 C   0  0  0  0  0  3  0  0  0  0  0  0
  -21.4200   -4.7630   24.9330 C   0  0  0  0  0  0  0  0  0  0  0  0
  -21.8510   -4.1590   23.7400 C   0  0  0  0  0  3  0  0  0  0  0  0
  -21.9840   -4.9280   22.5710 C   0  0  0  0  0  0  0  0  0  0  0  0
  -22.3720   -4.3350   21.4180 F   0  0  0  0  0  0  0  0  0  0  0  0
  -21.2900   -4.0180   26.0550 F   0  0  0  0  0  0  0  0  0  0  0  0
  -22.9200  -13.6490   21.0910 C   0  0  0  0  0  0  0  0  0  0  0  0
  -22.2400  -12.9600   22.0040 N   0  0  0  0  0  0  0  0  0  0  0  0
  -22.4690  -14.6810   20.6010 O   0  0  0  0  0  0  0  0  0  0  0  0
  -22.6200  -12.1280   22.4270 H   0  0  0  0  0  0  0  0  0  0  0  0
  -21.3240  -13.2700   22.2910 H   0  0  0  0  0  0  0  0  0  0  0  0
  -25.5290  -15.2770   20.1460 N   0  0  0  0  0  0  0  0  0  0  0  0
  -24.7700  -15.9280   20.2980 H   0  0  0  0  0  0  0  0  0  0  0  0
  -26.3380  -15.7040   19.7140 H   0  0  0  0  0  0  0  0  0  0  0  0
  -28.8310  -21.5300   19.5680 C   0  0  0  0  0  2  0  0  0  0  0  0
  -29.1790  -22.9480   18.9980 C   0  0  0  0  0  2  0  0  0  0  0  0
  -28.3700  -24.1200   19.6630 C   0  0  0  0  0  2  0  0  0  0  0  0
  -28.6660  -25.5710   19.1590 C   0  0  0  0  0  2  0  0  0  0  0  0
  -28.4300  -26.6470   20.1090 O   0  0  0  0  0  0  0  0  0  0  0  0
  -24.6620  -31.8810   23.2370 C   0  0  0  0  0  0  0  0  0  0  0  0
  -27.2540  -27.3880   20.1070 C   0  0  0  0  0  0  0  0  0  0  0  0
  -23.4350  -30.4910   21.6020 C   0  0  0  0  0  3  0  0  0  0  0  0
  -24.8670  -28.9350   20.1700 C   0  0  0  0  0  0  0  0  0  0  0  0
  -25.9670  -30.8050   21.4040 C   0  0  0  0  0  2  0  0  0  0  0  0
  -26.0360  -29.4330   20.7610 C   0  0  0  0  0  0  0  0  0  0  0  0
  -27.2240  -28.6600   20.7370 C   0  0  0  0  0  3  0  0  0  0  0  0
  -26.0630  -26.9080   19.5220 C   0  0  0  0  0  3  0  0  0  0  0  0
  -24.8760  -27.6680   19.5550 C   0  0  0  0  0  3  0  0  0  0  0  0
  -23.6350  -29.8100   20.2220 C   0  0  0  0  0  2  0  0  0  0  0  0
  -24.7040  -31.0760   22.1380 N   0  0  0  0  0  0  0  0  0  0  0  0
  -23.5860  -32.1690   23.7770 O   0  0  0  0  0  0  0  0  0  0  0  0
  -22.7730  -29.4820   22.5670 C   0  0  0  0  0  0  0  0  0  0  0  0
  -21.4450  -29.3160   22.4440 N   0  0  0  0  0  0  0  0  0  0  0  0
  -23.4490  -28.8450   23.3810 O   0  0  0  0  0  0  0  0  0  0  0  0
  -20.9590  -29.8880   21.7650 H   0  0  0  0  0  0  0  0  0  0  0  0
  -18.0630  -28.1550   22.9490 C   0  0  0  0  0  0  0  0  0  0  0  0
  -20.6210  -28.3870   23.2170 C   0  0  0  0  0  3  0  0  0  0  0  0
  -20.7140  -26.9550   22.6410 C   0  0  0  0  0  2  0  0  0  0  0  0
  -19.6070  -26.6420   21.6310 C   0  0  0  0  0  2  0  0  0  0  0  0
  -18.2260  -26.8020   22.2760 C   0  0  0  0  0  2  0  0  0  0  0  0
  -19.1900  -28.9040   23.3770 C   0  0  0  0  0  0  0  0  0  0  0  0
  -18.9850  -30.1690   23.9670 C   0  0  0  0  0  3  0  0  0  0  0  0
  -17.6860  -30.6850   24.1360 C   0  0  0  0  0  3  0  0  0  0  0  0
  -16.5740  -29.9340   23.7200 C   0  0  0  0  0  3  0  0  0  0  0  0
  -16.7630  -28.6720   23.1330 C   0  0  0  0  0  3  0  0  0  0  0  0
  -25.9590  -32.4930   23.8530 C   0  0  0  0  0  3  0  0  0  0  0  0
  -25.6590  -33.8830   24.2140 N   0  0  0  0  0  0  0  0  0  0  0  0
  -25.9880  -34.9500   23.4740 C   0  0  0  0  0  0  0  0  0  0  0  0
  -26.6430  -34.8600   22.4320 O   0  0  0  0  0  0  0  0  0  0  0  0
  -25.0540  -34.0250   25.0100 H   0  0  0  0  0  0  0  0  0  0  0  0
  -24.2570  -36.7500   23.1790 C   0  0  0  0  0  1  0  0  0  0  0  0
  -25.5110  -36.3300   23.9630 C   0  0  0  0  0  3  0  0  0  0  0  0
  -27.6610  -37.1930   24.7730 C   0  0  0  0  0  1  0  0  0  0  0  0
  -26.5430  -37.3840   23.8520 N   0  0  0  0  0  0  0  0  0  0  0  0
  -26.1440  -38.3050   24.0150 H   0  0  0  0  0  0  0  0  0  0  0  0
  -26.4920  -31.6950   25.1070 C   0  0  1  0  0  0  0  0  0  0  0  0
  -25.4140  -31.4390   26.1850 C   0  0  0  0  0  1  0  0  0  0  0  0
  -27.0650  -30.3210   24.6860 C   0  0  0  0  0  1  0  0  0  0  0  0
  -27.6520  -32.4740   25.7730 C   0  0  0  0  0  1  0  0  0  0  0  0
  1 48  1  0
  1  3  1  0
  2  3  1  0
  3  5  1  0
  4  2  2  0
  6 10  1  0
  7 10  1  0
  8 12  1  0
  8  6  1  0
  9  2  1  0
  9  8  1  0
  9  7  1  0
 10 11  1  0
 13 18  1  0
 14 15  1  0
 14 13  1  0
 16 15  1  0
 16 23  1  0
 16 17  1  0
 18 12  1  0
 18 17  1  0
 19 12  2  0
 20 21  2  0
 21 40  1  0
 22 21  1  0
 22 25  1  0
 23 24  1  0
 23 20  1  0
 24 22  2  0
 25 26  1  0
 26 27  2  0
 28 31  1  0
 28 27  1  0
 29 28  2  0
 30 29  1  0
 30 25  2  0
 31 32  1  0
 32 33  1  0
 33 34  2  0
 35 34  1  0
 35 39  1  0
 36 35  2  0
 37 32  2  0
 37 36  1  0
 38 37  1  0
 40 41  1  0
 41 44  1  0
 41 43  1  0
 42 40  2  0
 45 46  1  0
 45 20  1  0
 47 45  1  0
 49 48  1  0
 49 50  1  0
 51 50  1  0
 51 52  1  0
 53 64  2  0
 54 52  1  0
 54 59  1  0
 55 63  1  0
 55 65  1  0
 56 62  1  0
 56 58  1  0
 57 63  1  0
 58 57  1  0
 59 58  2  0
 60 61  1  0
 60 54  2  0
 61 56  2  0
 62 55  1  0
 63 53  1  0
 65 67  2  0
 66 65  1  0
 68 66  1  0
 69 78  2  0
 69 74  1  0
 70 66  1  0
 70 74  1  0
 71 70  1  0
 72 73  1  0
 72 71  1  0
 73 69  1  0
 74 75  2  0
 75 76  1  0
 77 76  2  0
 78 77  1  0
 79 53  1  0
 79 80  1  0
 79 89  1  0
 80 83  1  0
 81 85  1  0
 81 80  1  0
 82 81  2  0
 85 84  1  0
 87 85  1  0
 87 88  1  0
 87 86  1  0
 89 92  1  1
 89 90  1  0
 91 89  1  0
M  ISO  4   8 100  12 100  51 101  52 101
M  END
>  <TORSDO>  (34) 
F 22

>  <SCORE>  (34) 
-11.051

>  <name>  (34) 
33

>  <ligand_id>  (34) 
33

>  <original_smiles>  (34) 
[H]c1c([H])c([H])c2c(c1[H])C([H])([H])C([H])([H])C([H])([H])C2([H])N([H])C(=O)C1([H])N(C(=O)C([H])(N([H])C(=O)C([H])(N([H])C([H])([H])[H])C([H])([H])[H])C(C([H])([H])[H])(C([H])([H])[H])C([H])([H])[H])C([H])([H])c2c([H])c(OC([H])([H])C([H])([H])C([H])([H])C([H])([H])C([H])([H])N([H])C(=O)C3([H])C([H])([H])C([H])(C([H])([H])[H])C([H])([H])C3([H])C(=O)N3C([H])([H])C([H])([H])C([H])([H])C([H])(n4nc(-c5c([H])c([H])c(Oc6c([H])c([H])c(F)c([H])c6F)c([H])c5[H])c(C(=O)N([H])[H])c4N([H])[H])C3([H])[H])c([H])c([H])c2C1([H])[H]

>  <smiles>  (34) 
[H]c1c([H])c([H])c2c(c1[H])C([H])([H])C([H])([H])C([H])([H])C2([H])N([H])C(=O)C1([H])N(C(=O)C([H])(N([H])C(=O)C([H])(N([H])C([H])([H])[H])C([H])([H])[H])C(C([H])([H])[H])(C([H])([H])[H])C([H])([H])[H])C([H])([H])c2c([H])c(OC([H])([H])C([H])([H])C([H])([H])C([H])([H])C([H])([H])N([H])C(=O)C3([H])C([H])([H])C([H])(C([H])([H])[H])C([H])([H])C3([H])C(=O)N3C([H])([H])C([H])([H])C([H])([H])C([H])(n4nc(-c5c([H])c([H])c(Oc6c([H])c([H])c(F)c([H])c6F)c([H])c5[H])c(C(=O)N([H])[H])c4N([H])[H])C3([H])[H])c([H])c([H])c2C1([H])[H]

$$$$
34:0:0
     RDKit          3D

 92100  0  0  1  0  0  0  0  0999 V2000
  -30.7630  -20.0520   19.8570 N   0  0  0  0  0  4  0  0  0  0  0  0
  -30.6700  -19.8710   18.8700 H   0  0  0  0  0  0  0  0  0  0  0  0
  -31.6640  -20.4880   19.9770 H   0  0  0  0  0  0  0  0  0  0  0  0
  -29.7820  -16.3930   20.3780 C   0  0  0  0  0  2  0  0  0  0  0  0
  -29.4890  -17.9140   20.3120 C   0  0  0  0  0  2  0  0  0  0  0  0
  -31.7930  -17.5820   19.9950 C   0  0  0  0  0  2  0  0  0  0  0  0
  -31.2970  -16.1570   20.4990 C   0  0  0  0  0  3  0  0  0  0  0  0
  -30.8000  -18.6920   20.5750 C   0  0  1  0  0  0  0  0  0  0  0  0
  -31.8600  -14.8180   19.8420 C   0  0  0  0  0  0  0  0  0  0  0  0
  -31.3810  -12.6490   18.7070 C   0  0  0  0  0  2  0  0  0  0  0  0
  -30.3310  -12.8800   17.5970 C   0  0  0  0  0  2  0  0  0  0  0  0
  -28.9100  -12.7290   18.1690 C   0  0  0  0  0  2  0  0  0  0  0  0
  -28.7060  -13.5540   19.4620 C   0  0  0  0  0  3  0  0  0  0  0  0
  -29.8710  -13.3590   20.4620 C   0  0  0  0  0  2  0  0  0  0  0  0
  -31.1360  -13.6480   19.7690 N   0  0  0  0  0  0  0  0  0  0  0  0
  -32.9740  -14.8780   19.3160 O   0  0  0  0  0  0  0  0  0  0  0  0
  -26.4580  -14.2320   20.5080 C   0  0  0  0  0  0  0  0  0  0  0  0
  -25.3860  -13.4940   20.9300 C   0  0  0  0  0  0  0  0  0  0  0  0
  -25.7460  -12.1270   20.7210 C   0  0  0  0  0  0  0  0  0  0  0  0
  -27.4070  -13.3150   20.0770 N   0  0  0  0  0  0  0  0  0  0  0  0
  -26.9900  -12.0380   20.2680 N   0  0  0  0  0  0  0  0  0  0  0  0
  -24.9520  -10.9030   20.8680 C   0  0  0  0  0  0  0  0  0  0  0  0
  -25.2830   -9.9220   21.8300 C   0  0  0  0  0  3  0  0  0  0  0  0
  -24.4960   -8.7610   21.9640 C   0  0  0  0  0  3  0  0  0  0  0  0
  -23.3630   -8.5730   21.1370 C   0  0  0  0  0  0  0  0  0  0  0  0
  -23.0520   -9.5410   20.1640 C   0  0  0  0  0  3  0  0  0  0  0  0
  -23.8410  -10.6950   20.0270 C   0  0  0  0  0  3  0  0  0  0  0  0
  -22.5560   -7.4620   21.1790 O   0  0  0  0  0  0  0  0  0  0  0  0
  -22.2240   -6.8580   22.3650 C   0  0  0  0  0  0  0  0  0  0  0  0
  -21.5270   -7.5460   23.3820 C   0  0  0  0  0  3  0  0  0  0  0  0
  -21.1460   -6.8680   24.5570 C   0  0  0  0  0  3  0  0  0  0  0  0
  -21.4530   -5.5030   24.7130 C   0  0  0  0  0  0  0  0  0  0  0  0
  -22.1440   -4.8150   23.7000 C   0  0  0  0  0  3  0  0  0  0  0  0
  -22.5250   -5.4910   22.5270 C   0  0  0  0  0  0  0  0  0  0  0  0
  -23.1720   -4.8200   21.5460 F   0  0  0  0  0  0  0  0  0  0  0  0
  -21.0800   -4.8480   25.8380 F   0  0  0  0  0  0  0  0  0  0  0  0
  -24.0640  -14.0270   21.3980 C   0  0  0  0  0  0  0  0  0  0  0  0
  -23.3940  -13.3060   22.2910 N   0  0  0  0  0  0  0  0  0  0  0  0
  -23.6400  -15.1150   21.0090 O   0  0  0  0  0  0  0  0  0  0  0  0
  -23.7540  -12.4240   22.6260 H   0  0  0  0  0  0  0  0  0  0  0  0
  -22.5130  -13.6420   22.6520 H   0  0  0  0  0  0  0  0  0  0  0  0
  -26.6800  -15.6020   20.4310 N   0  0  0  0  0  0  0  0  0  0  0  0
  -25.9540  -16.2730   20.6620 H   0  0  0  0  0  0  0  0  0  0  0  0
  -27.4800  -16.0220   19.9780 H   0  0  0  0  0  0  0  0  0  0  0  0
  -30.1260  -19.5910   22.9920 C   0  0  0  0  0  1  0  0  0  0  0  0
  -32.5900  -19.3510   22.3670 C   0  0  0  0  0  1  0  0  0  0  0  0
  -31.1530  -18.8590   22.1060 C   0  0  0  0  0  3  0  0  0  0  0  0
  -29.7040  -21.0950   20.2350 C   0  0  0  0  0  3  0  0  0  0  0  0
  -29.6980  -22.5100   19.4840 C   0  0  0  0  0  3  0  0  0  0  0  0
  -28.8000  -23.7010   20.0810 C   0  0  0  0  0  2  0  0  0  0  0  0
  -28.7120  -25.0770   19.2720 C   0  0  0  0  0  2  0  0  0  0  0  0
  -28.5390  -26.3730   19.9660 O   0  0  0  0  0  0  0  0  0  0  0  0
  -24.7670  -31.5040   23.3000 C   0  0  0  0  0  0  0  0  0  0  0  0
  -27.3810  -27.1630   19.9380 C   0  0  0  0  0  0  0  0  0  0  0  0
  -23.5640  -30.2370   21.5520 C   0  0  0  0  0  3  0  0  0  0  0  0
  -25.0140  -28.7740   20.0280 C   0  0  0  0  0  0  0  0  0  0  0  0
  -26.1040  -30.5490   21.4100 C   0  0  0  0  0  2  0  0  0  0  0  0
  -26.1760  -29.2180   20.6670 C   0  0  0  0  0  0  0  0  0  0  0  0
  -27.3570  -28.4230   20.6150 C   0  0  0  0  0  3  0  0  0  0  0  0
  -26.1920  -26.7590   19.2920 C   0  0  0  0  0  3  0  0  0  0  0  0
  -25.0230  -27.5500   19.3360 C   0  0  0  0  0  3  0  0  0  0  0  0
  -23.7820  -29.6530   20.1290 C   0  0  0  0  0  2  0  0  0  0  0  0
  -24.8300  -30.7760   22.1450 N   0  0  0  0  0  0  0  0  0  0  0  0
  -23.6830  -31.7520   23.8470 O   0  0  0  0  0  0  0  0  0  0  0  0
  -22.8840  -29.1650   22.4340 C   0  0  0  0  0  0  0  0  0  0  0  0
  -21.5630  -28.9890   22.2610 N   0  0  0  0  0  0  0  0  0  0  0  0
  -23.5450  -28.4920   23.2310 O   0  0  0  0  0  0  0  0  0  0  0  0
  -21.0900  -29.5810   21.5910 H   0  0  0  0  0  0  0  0  0  0  0  0
  -18.1860  -27.7420   22.5880 C   0  0  0  0  0  0  0  0  0  0  0  0
  -20.7310  -28.0010   22.9510 C   0  0  0  0  0  3  0  0  0  0  0  0
  -20.8620  -26.6090   22.2880 C   0  0  0  0  0  2  0  0  0  0  0  0
  -19.7930  -26.3450   21.2230 C   0  0  0  0  0  2  0  0  0  0  0  0
  -18.3940  -26.4370   21.8370 C   0  0  0  0  0  2  0  0  0  0  0  0
  -19.2840  -28.4840   23.0970 C   0  0  0  0  0  0  0  0  0  0  0  0
  -19.0380  -29.7070   23.7580 C   0  0  0  0  0  3  0  0  0  0  0  0
  -17.7250  -30.1890   23.9150 C   0  0  0  0  0  3  0  0  0  0  0  0
  -16.6400  -29.4450   23.4210 C   0  0  0  0  0  3  0  0  0  0  0  0
  -16.8710  -28.2220   22.7650 C   0  0  0  0  0  3  0  0  0  0  0  0
  -26.0510  -32.0750   23.9780 C   0  0  0  0  0  3  0  0  0  0  0  0
  -25.7610  -33.4550   24.3920 N   0  0  0  0  0  0  0  0  0  0  0  0
  -26.1280  -34.5470   23.7100 C   0  0  0  0  0  0  0  0  0  0  0  0
  -26.8170  -34.4980   22.6860 O   0  0  0  0  0  0  0  0  0  0  0  0
  -25.1510  -33.5700   25.1890 H   0  0  0  0  0  0  0  0  0  0  0  0
  -24.4360  -36.3880   23.4440 C   0  0  0  0  0  1  0  0  0  0  0  0
  -25.6580  -35.9140   24.2470 C   0  0  0  0  0  3  0  0  0  0  0  0
  -27.7860  -36.7120   25.1740 C   0  0  0  0  0  1  0  0  0  0  0  0
  -26.7110  -36.9520   24.2140 N   0  0  0  0  0  0  0  0  0  0  0  0
  -26.3170  -37.8710   24.4010 H   0  0  0  0  0  0  0  0  0  0  0  0
  -26.5390  -31.2170   25.2100 C   0  0  1  0  0  0  0  0  0  0  0  0
  -25.4240  -30.9220   26.2420 C   0  0  0  0  0  1  0  0  0  0  0  0
  -27.1140  -29.8610   24.7390 C   0  0  0  0  0  1  0  0  0  0  0  0
  -27.6880  -31.9530   25.9400 C   0  0  0  0  0  1  0  0  0  0  0  0
  1  3  1  0
  1 48  1  0
  1  8  1  0
  2  1  1  0
  4  7  1  0
  5  4  1  0
  5  8  1  0
  6  7  1  0
  6  8  1  0
  7  9  1  0
  8 47  1  1
 10 15  1  0
 11 12  1  0
 11 10  1  0
 13 12  1  0
 13 20  1  0
 13 14  1  0
 15  9  1  0
 15 14  1  0
 16  9  2  0
 17 18  2  0
 18 37  1  0
 19 22  1  0
 19 18  1  0
 20 21  1  0
 20 17  1  0
 21 19  2  0
 22 23  1  0
 23 24  2  0
 25 28  1  0
 25 24  1  0
 26 25  2  0
 27 26  1  0
 27 22  2  0
 28 29  1  0
 29 34  2  0
 29 30  1  0
 30 31  2  0
 31 32  1  0
 32 36  1  0
 33 32  2  0
 34 33  1  0
 35 34  1  0
 37 38  1  0
 38 40  1  0
 38 41  1  0
 39 37  2  0
 42 17  1  0
 42 43  1  0
 44 42  1  0
 47 46  1  0
 47 45  1  0
 49 50  1  0
 49 48  2  0
 51 52  1  0
 51 50  1  0
 53 64  2  0
 54 52  1  0
 54 59  1  0
 55 63  1  0
 55 65  1  0
 56 62  1  0
 56 58  1  0
 57 63  1  0
 58 57  1  0
 59 58  2  0
 60 61  1  0
 60 54  2  0
 61 56  2  0
 62 55  1  0
 63 53  1  0
 65 67  2  0
 66 65  1  0
 68 66  1  0
 69 78  2  0
 69 74  1  0
 70 66  1  0
 70 74  1  0
 71 70  1  0
 72 73  1  0
 72 71  1  0
 73 69  1  0
 74 75  2  0
 75 76  1  0
 77 76  2  0
 78 77  1  0
 79 53  1  0
 79 80  1  0
 79 89  1  0
 80 83  1  0
 81 85  1  0
 81 80  1  0
 82 81  2  0
 85 84  1  0
 87 85  1  0
 87 88  1  0
 87 86  1  0
 89 92  1  1
 89 90  1  0
 91 89  1  0
M  ISO  4   7 100   9 100  51 101  52 101
M  END
>  <TORSDO>  (35) 
F 22

>  <SCORE>  (35) 
-9.892

>  <name>  (35) 
34

>  <ligand_id>  (35) 
34

>  <original_smiles>  (35) 
[H]c1c([H])c([H])c2c(c1[H])C([H])([H])C([H])([H])C([H])([H])C2([H])N([H])C(=O)C1([H])N(C(=O)C([H])(N([H])C(=O)C([H])(N([H])C([H])([H])[H])C([H])([H])[H])C(C([H])([H])[H])(C([H])([H])[H])C([H])([H])[H])C([H])([H])c2c([H])c(OC([H])([H])C([H])([H])C([H])([H])C([H])([H])[N+]([H])([H])C3(C([H])(C([H])([H])[H])C([H])([H])[H])C([H])([H])C([H])([H])C([H])(C(=O)N4C([H])([H])C([H])([H])C([H])([H])C([H])(n5nc(-c6c([H])c([H])c(Oc7c([H])c([H])c(F)c([H])c7F)c([H])c6[H])c(C(=O)N([H])[H])c5N([H])[H])C4([H])[H])C3([H])[H])c([H])c([H])c2C1([H])[H]

>  <smiles>  (35) 
[H]c1c([H])c([H])c2c(c1[H])C([H])([H])C([H])([H])C([H])([H])C2([H])N([H])C(=O)C1([H])N(C(=O)C([H])(N([H])C(=O)C([H])(N([H])C([H])([H])[H])C([H])([H])[H])C(C([H])([H])[H])(C([H])([H])[H])C([H])([H])[H])C([H])([H])c2c([H])c(OC([H])([H])C([H])([H])C([H])([H])C([H])([H])[N+]([H])([H])C3(C([H])(C([H])([H])[H])C([H])([H])[H])C([H])([H])C([H])([H])C([H])(C(=O)N4C([H])([H])C([H])([H])C([H])([H])C([H])(n5nc(-c6c([H])c([H])c(Oc7c([H])c([H])c(F)c([H])c7F)c([H])c6[H])c(C(=O)N([H])[H])c5N([H])[H])C4([H])[H])C3([H])[H])c([H])c([H])c2C1([H])[H]

$$$$
35:0:0
     RDKit          3D

101110  0  0  1  0  0  0  0  0999 V2000
  -27.8730  -21.6290   21.9740 C   0  0  0  0  0  2  0  0  0  0  0  0
  -26.4300  -20.6200   16.9780 C   0  0  0  0  0  2  0  0  0  0  0  0
  -25.5060  -20.7880   18.1800 C   0  0  0  0  0  2  0  0  0  0  0  0
  -29.4770  -21.3990   19.9860 C   0  0  0  0  0  2  0  0  0  0  0  0
  -27.5030  -19.5580   17.2580 C   0  0  0  0  0  2  0  0  0  0  0  0
  -26.3270  -21.1620   19.4170 C   0  0  0  0  0  2  0  0  0  0  0  0
  -29.2540  -20.9690   18.5290 C   0  0  0  0  0  2  0  0  0  0  0  0
  -28.4010  -20.7020   20.8410 C   0  0  0  0  0  3  0  0  0  0  0  0
  -28.3130  -19.7480   18.5750 C   0  0  1  0  0  0  0  0  0  0  0  0
  -27.3970  -20.0990   19.8070 C   0  0  2  0  0  0  0  0  0  0  0  0
  -26.6800  -18.8500   20.3700 C   0  0  0  0  0  1  0  0  0  0  0  0
  -29.1530  -18.4500   18.8260 C   0  0  0  0  0  2  0  0  0  0  0  0
  -30.5920  -18.4120   18.2670 C   0  0  0  0  0  2  0  0  0  0  0  0
  -31.0650  -16.9800   17.9590 C   0  0  0  0  0  2  0  0  0  0  0  0
  -30.7700  -15.9840   19.0990 C   0  0  0  0  0  2  0  0  0  0  0  0
  -31.4820  -14.6280   18.9540 C   0  0  0  0  0  0  0  0  0  0  0  0
  -31.6290  -12.2400   19.5810 C   0  0  0  0  0  2  0  0  0  0  0  0
  -30.7790  -11.3440   18.6630 C   0  0  0  0  0  2  0  0  0  0  0  0
  -29.3220  -11.2780   19.1580 C   0  0  0  0  0  2  0  0  0  0  0  0
  -28.7260  -12.6810   19.4390 C   0  0  0  0  0  3  0  0  0  0  0  0
  -29.6870  -13.5160   20.3130 C   0  0  0  0  0  2  0  0  0  0  0  0
  -30.9980  -13.5650   19.6430 N   0  0  0  0  0  0  0  0  0  0  0  0
  -32.4810  -14.5500   18.2300 O   0  0  0  0  0  0  0  0  0  0  0  0
  -26.5330  -13.5950   20.4380 C   0  0  0  0  0  0  0  0  0  0  0  0
  -25.3930  -12.9680   20.8660 C   0  0  0  0  0  0  0  0  0  0  0  0
  -25.6250  -11.5690   20.6950 C   0  0  0  0  0  0  0  0  0  0  0  0
  -27.3960  -12.5850   20.0390 N   0  0  0  0  0  0  0  0  0  0  0  0
  -26.8550  -11.3570   20.2460 N   0  0  0  0  0  0  0  0  0  0  0  0
  -24.7260  -10.4210   20.8750 C   0  0  0  0  0  0  0  0  0  0  0  0
  -24.9830   -9.4280   21.8460 C   0  0  0  0  0  3  0  0  0  0  0  0
  -24.0960   -8.3440   22.0130 C   0  0  0  0  0  3  0  0  0  0  0  0
  -22.9360   -8.2450   21.2080 C   0  0  0  0  0  0  0  0  0  0  0  0
  -22.6960   -9.2240   20.2280 C   0  0  0  0  0  3  0  0  0  0  0  0
  -23.5840  -10.3010   20.0590 C   0  0  0  0  0  3  0  0  0  0  0  0
  -22.0300   -7.2140   21.2820 O   0  0  0  0  0  0  0  0  0  0  0  0
  -21.6570   -6.6700   22.4850 C   0  0  0  0  0  0  0  0  0  0  0  0
  -21.0550   -7.4450   23.4990 C   0  0  0  0  0  3  0  0  0  0  0  0
  -20.6230   -6.8310   24.6930 C   0  0  0  0  0  3  0  0  0  0  0  0
  -20.7830   -5.4430   24.8690 C   0  0  0  0  0  0  0  0  0  0  0  0
  -21.3790   -4.6690   23.8580 C   0  0  0  0  0  3  0  0  0  0  0  0
  -21.8110   -5.2810   22.6670 C   0  0  0  0  0  0  0  0  0  0  0  0
  -22.3640   -4.5260   21.6880 F   0  0  0  0  0  0  0  0  0  0  0  0
  -20.3620   -4.8520   26.0110 F   0  0  0  0  0  0  0  0  0  0  0  0
  -24.1240  -13.6290   21.3200 C   0  0  0  0  0  0  0  0  0  0  0  0
  -23.3800  -12.9830   22.2120 N   0  0  0  0  0  0  0  0  0  0  0  0
  -23.8070  -14.7490   20.9200 O   0  0  0  0  0  0  0  0  0  0  0  0
  -23.6500  -12.0730   22.5550 H   0  0  0  0  0  0  0  0  0  0  0  0
  -22.5290  -13.4040   22.5550 H   0  0  0  0  0  0  0  0  0  0  0  0
  -26.8990  -14.9330   20.3370 N   0  0  0  0  0  0  0  0  0  0  0  0
  -26.2670  -15.6890   20.5790 H   0  0  0  0  0  0  0  0  0  0  0  0
  -27.7850  -15.2580   19.9690 H   0  0  0  0  0  0  0  0  0  0  0  0
  -26.5960  -22.4460   21.6520 C   0  0  0  0  0  2  0  0  0  0  0  0
  -25.8030  -24.8240   22.2250 C   0  0  0  0  0  1  0  0  0  0  0  0
  -26.8220  -23.9690   21.4490 C   0  0  0  0  0  3  0  0  0  0  0  0
  -26.7900  -24.3000   20.0070 N   0  0  0  0  0  4  0  0  0  0  0  0
  -27.1650  -23.5000   19.5240 H   0  0  0  0  0  0  0  0  0  0  0  0
  -25.8350  -24.4100   19.7000 H   0  0  0  0  0  0  0  0  0  0  0  0
  -27.5990  -25.4700   19.5920 C   0  0  0  0  0  2  0  0  0  0  0  0
  -27.9930  -25.3680   18.1050 C   0  0  0  0  0  2  0  0  0  0  0  0
  -28.7050  -26.6150   17.5510 C   0  0  0  0  0  2  0  0  0  0  0  0
  -27.8160  -27.4320   16.8010 O   0  0  0  0  0  0  0  0  0  0  0  0
  -24.7360  -30.1400   22.6100 C   0  0  0  0  0  0  0  0  0  0  0  0
  -26.6610  -27.7730   17.4460 C   0  0  0  0  0  0  0  0  0  0  0  0
  -23.2090  -29.1330   20.9420 C   0  0  0  0  0  3  0  0  0  0  0  0
  -24.2600  -28.5460   18.6970 C   0  0  0  0  0  0  0  0  0  0  0  0
  -25.4570  -30.1200   20.2290 C   0  0  0  0  0  2  0  0  0  0  0  0
  -25.4780  -29.1020   19.1120 C   0  0  0  0  0  0  0  0  0  0  0  0
  -26.6830  -28.7180   18.4910 C   0  0  0  0  0  3  0  0  0  0  0  0
  -25.4310  -27.2260   17.0260 C   0  0  0  0  0  3  0  0  0  0  0  0
  -24.2310  -27.5990   17.6570 C   0  0  0  0  0  3  0  0  0  0  0  0
  -23.0150  -29.0230   19.4060 C   0  0  0  0  0  2  0  0  0  0  0  0
  -24.5020  -29.7950   21.3130 N   0  0  0  0  0  0  0  0  0  0  0  0
  -23.8780  -29.9550   23.4860 O   0  0  0  0  0  0  0  0  0  0  0  0
  -23.0430  -27.7270   21.5600 C   0  0  0  0  0  0  0  0  0  0  0  0
  -21.8570  -27.1280   21.3670 N   0  0  0  0  0  0  0  0  0  0  0  0
  -23.9710  -27.1880   22.1690 O   0  0  0  0  0  0  0  0  0  0  0  0
  -21.1480  -27.6380   20.8580 H   0  0  0  0  0  0  0  0  0  0  0  0
  -19.3350  -24.5580   21.0910 C   0  0  0  0  0  0  0  0  0  0  0  0
  -21.4840  -25.7920   21.8260 C   0  0  0  0  0  3  0  0  0  0  0  0
  -22.2560  -24.7020   21.0460 C   0  0  0  0  0  2  0  0  0  0  0  0
  -21.4940  -24.1830   19.8220 C   0  0  0  0  0  2  0  0  0  0  0  0
  -20.1440  -23.5920   20.2420 C   0  0  0  0  0  2  0  0  0  0  0  0
  -19.9640  -25.6010   21.8220 C   0  0  0  0  0  0  0  0  0  0  0  0
  -19.1630  -26.4930   22.5670 C   0  0  0  0  0  3  0  0  0  0  0  0
  -17.7630  -26.3550   22.5930 C   0  0  0  0  0  3  0  0  0  0  0  0
  -17.1480  -25.3110   21.8820 C   0  0  0  0  0  3  0  0  0  0  0  0
  -17.9330  -24.4130   21.1360 C   0  0  0  0  0  3  0  0  0  0  0  0
  -26.0770  -30.8040   23.0510 C   0  0  0  0  0  3  0  0  0  0  0  0
  -25.7410  -32.0200   23.8030 N   0  0  0  0  0  0  0  0  0  0  0  0
  -25.8900  -33.2660   23.3360 C   0  0  0  0  0  0  0  0  0  0  0  0
  -26.3990  -33.5160   22.2400 O   0  0  0  0  0  0  0  0  0  0  0  0
  -25.2680  -31.8910   24.6860 H   0  0  0  0  0  0  0  0  0  0  0  0
  -24.0580  -34.9530   23.6860 C   0  0  0  0  0  1  0  0  0  0  0  0
  -25.3950  -34.4220   24.2280 C   0  0  0  0  0  3  0  0  0  0  0  0
  -27.5630  -35.1780   25.0940 C   0  0  0  0  0  1  0  0  0  0  0  0
  -26.3630  -35.5340   24.3420 N   0  0  0  0  0  0  0  0  0  0  0  0
  -25.9360  -36.3410   24.7880 H   0  0  0  0  0  0  0  0  0  0  0  0
  -26.9920  -29.8480   23.9120 C   0  0  1  0  0  0  0  0  0  0  0  0
  -26.2570  -29.1940   25.1060 C   0  0  0  0  0  1  0  0  0  0  0  0
  -27.5690  -28.7120   23.0340 C   0  0  0  0  0  1  0  0  0  0  0  0
  -28.2030  -30.6370   24.4640 C   0  0  0  0  0  1  0  0  0  0  0  0
  2  5  1  0
  2  3  1  0
  3  6  1  0
  4  8  1  0
  5  9  1  0
  6 10  1  0
  7  9  1  0
  7  4  1  0
  8  1  1  0
  9 12  1  1
  9 10  1  0
 10 11  1  1
 10  8  1  0
 13 12  1  0
 14 13  1  0
 14 15  1  0
 16 15  1  0
 16 22  1  0
 17 22  1  0
 18 19  1  0
 18 17  1  0
 20 19  1  0
 20 27  1  0
 20 21  1  0
 22 21  1  0
 23 16  2  0
 24 25  2  0
 25 44  1  0
 26 25  1  0
 26 29  1  0
 27 28  1  0
 27 24  1  0
 28 26  2  0
 29 30  1  0
 30 31  2  0
 32 35  1  0
 32 31  1  0
 33 32  2  0
 34 33  1  0
 34 29  2  0
 35 36  1  0
 36 41  2  0
 36 37  1  0
 37 38  2  0
 38 39  1  0
 39 43  1  0
 40 39  2  0
 41 40  1  0
 42 41  1  0
 44 45  1  0
 45 47  1  0
 45 48  1  0
 46 44  2  0
 49 24  1  0
 49 50  1  0
 51 49  1  0
 52  1  1  0
 54 52  1  0
 54 53  1  0
 55 54  1  0
 56 55  1  0
 57 55  1  0
 58 55  1  0
 59 58  1  0
 60 59  1  0
 61 63  1  0
 61 60  1  0
 62 73  2  0
 63 68  1  0
 64 72  1  0
 64 74  1  0
 65 67  1  0
 65 71  1  0
 66 72  1  0
 67 66  1  0
 68 67  2  0
 69 63  2  0
 69 70  1  0
 70 65  2  0
 71 64  1  0
 72 62  1  0
 74 76  2  0
 75 74  1  0
 77 75  1  0
 78 87  2  0
 78 83  1  0
 79 75  1  0
 80 79  1  0
 81 82  1  0
 81 80  1  0
 82 78  1  0
 83 79  1  0
 83 84  2  0
 84 85  1  0
 86 85  2  0
 87 86  1  0
 88 62  1  0
 88 89  1  0
 88 98  1  0
 89 92  1  0
 90 89  1  0
 90 94  1  0
 91 90  2  0
 94 93  1  0
 94 96  1  0
 96 97  1  0
 96 95  1  0
 98101  1  1
 98 99  1  0
100 98  1  0
M  ISO  4  15 100  16 100  60 101  61 101
M  END
>  <TORSDO>  (36) 
F 27

>  <SCORE>  (36) 
-5.509

>  <name>  (36) 
35

>  <ligand_id>  (36) 
35

>  <original_smiles>  (36) 
[H]c1c([H])c([H])c2c(c1[H])C([H])([H])C([H])([H])C([H])([H])C2([H])N([H])C(=O)C1([H])N(C(=O)C([H])(N([H])C(=O)C([H])(N([H])C([H])([H])[H])C([H])([H])[H])C(C([H])([H])[H])(C([H])([H])[H])C([H])([H])[H])C([H])([H])c2c([H])c(OC([H])([H])C([H])([H])C([H])([H])[N+]([H])([H])C([H])(C([H])([H])[H])C([H])([H])C([H])([H])C3([H])C([H])([H])C([H])([H])C4(C([H])([H])C([H])([H])C([H])([H])C([H])([H])C(=O)N5C([H])([H])C([H])([H])C([H])([H])C([H])(n6nc(-c7c([H])c([H])c(Oc8c([H])c([H])c(F)c([H])c8F)c([H])c7[H])c(C(=O)N([H])[H])c6N([H])[H])C5([H])[H])C([H])([H])C([H])([H])C([H])([H])C([H])([H])C34C([H])([H])[H])c([H])c([H])c2C1([H])[H]

>  <smiles>  (36) 
[H]c1c([H])c([H])c2c(c1[H])C([H])([H])C([H])([H])C([H])([H])C2([H])N([H])C(=O)C1([H])N(C(=O)C([H])(N([H])C(=O)C([H])(N([H])C([H])([H])[H])C([H])([H])[H])C(C([H])([H])[H])(C([H])([H])[H])C([H])([H])[H])C([H])([H])c2c([H])c(OC([H])([H])C([H])([H])C([H])([H])[N+]([H])([H])C([H])(C([H])([H])[H])C([H])([H])C([H])([H])C3([H])C([H])([H])C([H])([H])C4(C([H])([H])C([H])([H])C([H])([H])C([H])([H])C(=O)N5C([H])([H])C([H])([H])C([H])([H])C([H])(n6nc(-c7c([H])c([H])c(Oc8c([H])c([H])c(F)c([H])c8F)c([H])c7[H])c(C(=O)N([H])[H])c6N([H])[H])C5([H])[H])C([H])([H])C([H])([H])C([H])([H])C([H])([H])C34C([H])([H])[H])c([H])c([H])c2C1([H])[H]

$$$$
36:0:0
     RDKit          3D

 93 95  0  0  1  0  0  0  0  0999 V2000
  -18.9250  -27.1730   22.7300 C   0  0  0  0  0  2  0  0  0  0  0  0
  -18.5800  -27.4590   20.3910 C   0  0  2  0  0  0  0  0  0  0  0  0
  -20.6640  -25.9120   23.1610 C   0  0  0  0  0  1  0  0  0  0  0  0
  -19.8330  -26.5640   19.2200 C   0  0  0  0  0  2  0  0  0  0  0  0
  -22.1670  -24.9430   21.9030 C   0  0  0  0  0 15  0  0  0  0  0  0
  -21.4100  -26.5820   24.3250 C   0  0  0  0  0  1  0  0  0  0  0  0
  -20.9580  -25.7720   19.9530 N   0  0  0  0  0  2  0  0  0  0  0  0
  -21.7610  -26.0760   19.4240 H   0  0  0  0  0  0  0  0  0  0  0  0
  -20.7490  -24.8540   19.5900 H   0  0  0  0  0  0  0  0  0  0  0  0
  -17.4050  -27.5000   17.9140 C   0  0  0  0  0  1  0  0  0  0  0  0
  -16.4250  -29.0010   19.7600 C   0  0  0  0  0  1  0  0  0  0  0  0
  -17.6440  -28.1700   19.2900 C   0  0  0  0  0  3  0  0  0  0  0  0
  -21.0270  -26.8630   17.9280 C   0  0  0  0  0  1  0  0  0  0  0  0
  -22.8860  -26.8940   17.7260 C   0  0  0  0  0  2  0  0  0  0  0  0
  -24.4130  -27.2110   18.5670 O   0  0  0  0  0  0  0  0  0  0  0  0
  -24.8650  -31.7560   22.0990 C   0  0  0  0  0  0  0  0  0  0  0  0
  -25.7410  -27.4740   18.1680 C   0  0  0  0  0  3  0  0  0  0  0  0
  -23.4440  -30.8620   20.3250 C   0  0  0  0  0  3  0  0  0  0  0  0
  -24.6860  -29.8620   18.2780 C   0  0  0  0  0  3  0  0  0  0  0  0
  -25.9860  -30.7090   20.1550 C   0  0  0  0  0  2  0  0  0  0  0  0
  -25.7130  -29.6120   19.1640 C   0  0  0  0  0  3  0  0  0  0  0  0
  -26.4020  -28.3950   19.0330 C   0  0  0  0  0  2  0  0  0  0  0  0
  -25.4450  -27.9600   16.9360 C   0  0  0  0  0  2  0  0  0  0  0  0
  -24.7570  -29.1920   17.0290 C   0  0  0  0  0  2  0  0  0  0  0  0
  -23.6540  -30.8530   18.7440 C   0  0  0  0  0  2  0  0  0  0  0  0
  -24.7790  -31.1910   20.8770 N   0  0  0  0  0  0  0  0  0  0  0  0
  -23.8550  -32.1110   22.7220 O   0  0  0  0  0  0  0  0  0  0  0  0
  -23.0560  -29.5470   21.1040 C   0  0  0  0  0  0  0  0  0  0  0  0
  -21.8590  -29.1100   21.3100 N   0  0  0  0  0  0  0  0  0  0  0  0
  -23.8780  -28.8050   21.6020 O   0  0  0  0  0  0  0  0  0  0  0  0
  -21.0900  -29.7540   21.2060 H   0  0  0  0  0  0  0  0  0  0  0  0
  -17.9220  -27.9710   22.0870 C   0  0  1  0  0  0  0  0  0  0  0  0
  -21.5320  -27.6320   21.5100 C   0  0  0  0  0  2  0  0  0  0  0  0
  -21.0800  -26.3120   19.8700 C   0  0  0  0  0  3  0  0  0  0  0  0
  -18.7240  -26.0000   19.3140 C   0  0  0  0  0  2  0  0  0  0  0  0
  -17.3850  -26.8330   20.8100 C   0  0  0  0  0  2  0  0  0  0  0  0
  -20.3420  -28.2280   22.5020 C   0  0  0  0  0  3  0  0  0  0  0  0
  -20.7010  -29.6490   23.7580 C   0  0  0  0  0  2  0  0  0  0  0  0
  -19.4000  -30.6100   24.5350 C   0  0  0  0  0  3  0  0  0  0  0  0
  -17.6820  -30.4260   24.2560 C   0  0  0  0  0  3  0  0  0  0  0  0
  -16.9050  -29.2460   23.1250 C   0  0  0  0  0  2  0  0  0  0  0  0
  -26.2580  -31.9780   22.7410 C   0  0  0  0  0  3  0  0  0  0  0  0
  -26.1190  -33.1480   23.6060 N   0  0  0  0  0  0  0  0  0  0  0  0
  -26.6810  -34.3370   23.3560 C   0  0  0  0  0  0  0  0  0  0  0  0
  -27.4480  -34.5310   22.4080 O   0  0  0  0  0  0  0  0  0  0  0  0
  -25.4680  -33.0740   24.3730 H   0  0  0  0  0  0  0  0  0  0  0  0
  -25.3650  -36.4580   23.6340 C   0  0  0  0  0  1  0  0  0  0  0  0
  -26.3410  -35.4870   24.3170 C   0  0  0  0  0  3  0  0  0  0  0  0
  -28.3690  -35.4360   25.6960 C   0  0  0  0  0  1  0  0  0  0  0  0
  -27.5340  -36.2210   24.7910 N   0  0  0  0  0  0  0  0  0  0  0  0
  -27.2650  -37.0770   25.2680 H   0  0  0  0  0  0  0  0  0  0  0  0
  -26.7870  -30.7270   23.5430 C   0  0  1  0  0  0  0  0  0  0  0  0
  -25.7330  -30.1050   24.4880 C   0  0  0  0  0  1  0  0  0  0  0  0
  -27.2970  -29.6010   22.6110 C   0  0  0  0  0  1  0  0  0  0  0  0
  -28.0100  -31.1550   24.3820 C   0  0  0  0  0  1  0  0  0  0  0  0
  -24.8030  -23.1280   21.9020 C   0  0  0  0  0 15  0  0  0  0  0  0
  -27.4630  -21.4240   21.4350 C   0  0  0  0  0 15  0  0  0  0  0  0
  -29.7820  -19.6340   21.3230 C   0  0  0  0  0  2  0  0  0  0  0  0
  -32.2540  -17.4980   20.4530 C   0  0  0  0  0  2  0  0  0  0  0  0
  -32.5980  -16.2340   19.3850 C   0  0  0  0  0  2  0  0  0  0  0  0
  -31.7080  -15.0070   19.5460 C   0  0  0  0  0  2  0  0  0  0  0  0
  -30.5180  -15.6830   20.1950 C   0  0  0  0  0  3  0  0  0  0  0  0
  -30.6820  -16.5980   21.4740 C   0  0  0  0  0  2  0  0  0  0  0  0
  -30.6920  -18.0940   21.0330 N   0  0  0  0  0  0  0  0  0  0  0  0
  -31.1210  -19.8740   21.3650 O   0  0  0  0  0  1  0  0  0  0  0  0
  -28.1400  -15.6010   20.3490 C   0  0  0  0  0  0  0  0  0  0  0  0
  -27.2560  -14.6280   20.6160 C   0  0  0  0  0  0  0  0  0  0  0  0
  -28.0140  -13.4220   20.7530 C   0  0  0  0  0  0  0  0  0  0  0  0
  -29.3500  -14.9650   20.3690 N   0  0  0  0  0  0  0  0  0  0  0  0
  -29.3170  -13.6530   20.6660 N   0  0  0  0  0  0  0  0  0  0  0  0
  -27.5480  -12.0540   20.8800 C   0  0  0  0  0  0  0  0  0  0  0  0
  -27.3090  -11.4630   22.1370 C   0  0  0  0  0  3  0  0  0  0  0  0
  -26.8230  -10.1440   22.2110 C   0  0  0  0  0  3  0  0  0  0  0  0
  -26.5720   -9.4160   21.0230 C   0  0  0  0  0  0  0  0  0  0  0  0
  -26.8420  -10.0050   19.7770 C   0  0  0  0  0  3  0  0  0  0  0  0
  -27.3320  -11.3150   19.7030 C   0  0  0  0  0  3  0  0  0  0  0  0
  -26.1150   -8.1240   20.9940 O   0  0  0  0  0  0  0  0  0  0  0  0
  -24.8020   -7.8260   21.2470 C   0  0  0  0  0  0  0  0  0  0  0  0
  -23.7440   -8.5340   20.6350 C   0  0  0  0  0  3  0  0  0  0  0  0
  -22.4110   -8.1450   20.8710 C   0  0  0  0  0  3  0  0  0  0  0  0
  -22.1360   -7.0460   21.7080 C   0  0  0  0  0  0  0  0  0  0  0  0
  -23.1890   -6.3390   22.3140 C   0  0  0  0  0  3  0  0  0  0  0  0
  -24.5190   -6.7280   22.0810 C   0  0  0  0  0  0  0  0  0  0  0  0
  -25.5330   -6.0310   22.6500 F   0  0  0  0  0  0  0  0  0  0  0  0
  -20.8560   -6.6660   21.9270 F   0  0  0  0  0  0  0  0  0  0  0  0
  -25.7830  -14.8350   20.6230 C   0  0  0  0  0  0  0  0  0  0  0  0
  -25.0830  -14.1590   21.5180 N   0  0  0  0  0  0  0  0  0  0  0  0
  -25.2620  -15.6600   19.8740 O   0  0  0  0  0  0  0  0  0  0  0  0
  -25.5290  -13.5070   22.1470 H   0  0  0  0  0  0  0  0  0  0  0  0
  -24.0830  -14.2910   21.5770 H   0  0  0  0  0  0  0  0  0  0  0  0
  -28.0080  -16.9670   20.0880 N   0  0  0  0  0  0  0  0  0  0  0  0
  -27.0950  -17.3800   19.9340 H   0  0  0  0  0  0  0  0  0  0  0  0
  -28.7750  -17.5380   19.7570 H   0  0  0  0  0  0  0  0  0  0  0  0
  2 35  1  6
  2 36  1  0
  2 32  1  0
  3  6  1  0
  4 35  1  0
  4 34  1  0
  8 34  1  0
  9  7  1  0
 10 12  1  0
 12 11  1  0
 12  2  1  0
 14 13  1  0
 14 15  1  0
 16 27  2  0
 17 15  1  0
 17 22  1  0
 18 26  1  0
 18 28  1  0
 19 24  1  0
 19 25  1  0
 19 21  1  0
 20 26  1  0
 21 22  1  0
 21 20  1  0
 23 24  1  0
 23 17  1  0
 25 18  1  0
 26 16  1  0
 28 29  1  0
 28 30  2  0
 29 33  1  0
 31 29  1  0
 32 36  1  6
 32  1  1  0
 32 41  1  0
 34  7  1  0
 37 33  1  0
 37  1  1  0
 37 38  1  0
 38 39  1  0
 40 39  2  0
 41 40  1  0
 42 16  1  0
 42 52  1  0
 42 43  1  0
 43 46  1  0
 44 43  1  0
 44 48  1  0
 45 44  2  0
 48 47  1  0
 48 50  1  0
 50 51  1  0
 50 49  1  0
 52 55  1  1
 52 53  1  0
 54 52  1  0
 58 65  1  0
 59 64  1  0
 60 61  1  0
 60 59  1  0
 62 61  1  0
 62 69  1  0
 62 63  1  0
 64 58  1  0
 64 63  1  0
 66 69  1  0
 66 67  2  0
 67 86  1  0
 67 68  1  0
 68 71  1  0
 69 70  1  0
 70 68  2  0
 71 72  1  0
 72 73  2  0
 74 73  1  0
 75 74  2  0
 76 75  1  0
 76 71  2  0
 77 74  1  0
 77 78  1  0
 78 83  1  0
 79 80  1  0
 79 78  2  0
 80 81  2  0
 81 85  1  0
 81 82  1  0
 83 82  2  0
 83 84  1  0
 86 87  1  0
 87 90  1  0
 87 89  1  0
 88 86  2  0
 91 66  1  0
 92 91  1  0
 93 91  1  0
M  ISO  4  14 101  15 101  57 100  58 100
M  END
>  <TORSDO>  (37) 
F 21

>  <SCORE>  (37) 
3.615

>  <name>  (37) 
36

>  <ligand_id>  (37) 
36

>  <original_smiles>  (37) 
[H]C1=C(C([H])(C([H])([H])[H])C([H])([H])[H])C([H])(C([H])([H])C([H])([H])Oc2c([H])c([H])c3c(c2[H])C([H])([H])N(C(=O)C([H])(N([H])C(=O)C([H])(N([H])C([H])([H])[H])C([H])([H])[H])C(C([H])([H])[H])(C([H])([H])[H])C([H])([H])[H])C([H])(C(=O)N([H])C2([H])c4c([H])c([H])c([H])c([H])c4C([H])([H])C([H])([H])C2([H])[H])C3([H])[H])[N+]([H])([H])C([H])(C([H])([H])C([H])([H])C(=O)N2C([H])([H])C([H])([H])C([H])([H])C([H])(n3nc(-c4c([H])c([H])c(Oc5c([H])c([H])c(F)c([H])c5F)c([H])c4[H])c(C(=O)N([H])[H])c3N([H])[H])C2([H])[H])C1([H])C([H])([H])[H]

>  <smiles>  (37) 
[H]C1=C(C([H])(C([H])([H])[H])C([H])([H])[H])C([H])(C([H])([H])C([H])([H])Oc2c([H])c([H])c3c(c2[H])C([H])([H])N(C(=O)C([H])(N([H])C(=O)C([H])(N([H])C([H])([H])[H])C([H])([H])[H])C(C([H])([H])[H])(C([H])([H])[H])C([H])([H])[H])C([H])(C(=O)N([H])C2([H])c4c([H])c([H])c([H])c([H])c4C([H])([H])C([H])([H])C2([H])[H])C3([H])[H])[N+]([H])([H])C([H])(C([H])([H])C([H])([H])C(=O)N2C([H])([H])C([H])([H])C([H])([H])C([H])(n3nc(-c4c([H])c([H])c(Oc5c([H])c([H])c(F)c([H])c5F)c([H])c4[H])c(C(=O)N([H])[H])c3N([H])[H])C2([H])[H])C1([H])C([H])([H])[H]

$$$$
37:0:0
     RDKit          3D

 89 97  0  0  1  0  0  0  0  0999 V2000
  -29.1340  -21.0950   20.6620 C   0  0  0  0  0  3  0  0  0  0  0  0
  -29.9420  -19.9070   20.1380 N   0  0  0  0  0  4  0  0  0  0  0  0
  -29.9180  -19.9230   19.1320 H   0  0  0  0  0  0  0  0  0  0  0  0
  -30.9000  -20.0720   20.4010 H   0  0  0  0  0  0  0  0  0  0  0  0
  -30.6420  -14.7580   20.3390 C   0  0  0  0  0  0  0  0  0  0  0  0
  -30.3690  -12.4830   19.3500 C   0  0  0  0  0  2  0  0  0  0  0  0
  -29.4210  -12.5200   18.1330 C   0  0  0  0  0  2  0  0  0  0  0  0
  -27.9620  -12.3070   18.5810 C   0  0  0  0  0  2  0  0  0  0  0  0
  -27.5760  -13.2100   19.7780 C   0  0  0  0  0  3  0  0  0  0  0  0
  -28.6570  -13.2200   20.8880 C   0  0  0  0  0  2  0  0  0  0  0  0
  -29.9430  -13.5680   20.2630 N   0  0  0  0  0  0  0  0  0  0  0  0
  -31.8580  -14.7510   20.1330 O   0  0  0  0  0  0  0  0  0  0  0  0
  -28.4570  -17.8420   19.8000 C   0  0  0  0  0  2  0  0  0  0  0  0
  -28.6400  -16.3150   19.9720 C   0  0  0  0  0  2  0  0  0  0  0  0
  -30.6700  -17.3410   20.5020 C   0  0  0  0  0  2  0  0  0  0  0  0
  -29.5830  -18.4910   20.5920 C   0  0  0  0  0  3  0  0  0  0  0  0
  -29.9950  -15.9950   20.4400 N   0  0  0  0  0  0  0  0  0  0  0  0
  -25.2040  -13.8360   20.5150 C   0  0  0  0  0  0  0  0  0  0  0  0
  -24.1370  -13.0710   20.8930 C   0  0  0  0  0  0  0  0  0  0  0  0
  -24.5980  -11.7200   20.8730 C   0  0  0  0  0  0  0  0  0  0  0  0
  -26.2420  -12.9470   20.2890 N   0  0  0  0  0  0  0  0  0  0  0  0
  -25.8870  -11.6710   20.5690 N   0  0  0  0  0  0  0  0  0  0  0  0
  -23.8740  -10.4630   21.0640 C   0  0  0  0  0  0  0  0  0  0  0  0
  -24.3200   -9.4920   21.9870 C   0  0  0  0  0  3  0  0  0  0  0  0
  -23.6000   -8.2930   22.1670 C   0  0  0  0  0  3  0  0  0  0  0  0
  -22.4180   -8.0600   21.4240 C   0  0  0  0  0  0  0  0  0  0  0  0
  -21.9920   -9.0180   20.4880 C   0  0  0  0  0  3  0  0  0  0  0  0
  -22.7140  -10.2090   20.3070 C   0  0  0  0  0  3  0  0  0  0  0  0
  -21.6650   -6.9150   21.5170 O   0  0  0  0  0  0  0  0  0  0  0  0
  -21.6430   -6.1600   22.6610 C   0  0  0  0  0  0  0  0  0  0  0  0
  -21.2570   -6.7050   23.9060 C   0  0  0  0  0  3  0  0  0  0  0  0
  -21.1830   -5.8750   25.0430 C   0  0  0  0  0  3  0  0  0  0  0  0
  -21.4820   -4.5030   24.9350 C   0  0  0  0  0  0  0  0  0  0  0  0
  -21.8600   -3.9600   23.6940 C   0  0  0  0  0  3  0  0  0  0  0  0
  -21.9360   -4.7870   22.5600 C   0  0  0  0  0  0  0  0  0  0  0  0
  -22.2810   -4.2540   21.3630 F   0  0  0  0  0  0  0  0  0  0  0  0
  -21.4010   -3.7040   26.0240 F   0  0  0  0  0  0  0  0  0  0  0  0
  -22.7400  -13.5540   21.1570 C   0  0  0  0  0  0  0  0  0  0  0  0
  -22.0090  -12.8650   22.0260 N   0  0  0  0  0  0  0  0  0  0  0  0
  -22.3070  -14.5770   20.6300 O   0  0  0  0  0  0  0  0  0  0  0  0
  -22.3720  -12.0390   22.4740 H   0  0  0  0  0  0  0  0  0  0  0  0
  -21.0690  -13.1680   22.2450 H   0  0  0  0  0  0  0  0  0  0  0  0
  -25.3600  -15.2050   20.3140 N   0  0  0  0  0  0  0  0  0  0  0  0
  -24.5780  -15.8470   20.3870 H   0  0  0  0  0  0  0  0  0  0  0  0
  -26.1930  -15.6350   19.9380 H   0  0  0  0  0  0  0  0  0  0  0  0
  -29.2860  -22.5100   19.9060 C   0  0  0  0  0  3  0  0  0  0  0  0
  -28.6560  -23.8490   20.5440 C   0  0  0  0  0  3  0  0  0  0  0  0
  -28.5250  -25.1600   19.6290 C   0  0  0  0  0  3  0  0  0  0  0  0
  -28.3760  -26.5110   20.2340 O   0  0  0  0  0  0  0  0  0  0  0  0
  -24.6030  -31.8760   23.2300 C   0  0  0  0  0  0  0  0  0  0  0  0
  -27.2160  -27.3070   20.1660 C   0  0  0  0  0  0  0  0  0  0  0  0
  -23.3920  -30.4700   21.5980 C   0  0  0  0  0  3  0  0  0  0  0  0
  -24.8360  -28.9130   20.1690 C   0  0  0  0  0  0  0  0  0  0  0  0
  -25.9280  -30.7910   21.4010 C   0  0  0  0  0  2  0  0  0  0  0  0
  -26.0050  -29.4080   20.7580 C   0  0  0  0  0  0  0  0  0  0  0  0
  -27.1900  -28.6150   20.7500 C   0  0  0  0  0  3  0  0  0  0  0  0
  -26.0160  -26.8580   19.5660 C   0  0  0  0  0  3  0  0  0  0  0  0
  -24.8440  -27.6440   19.5680 C   0  0  0  0  0  3  0  0  0  0  0  0
  -23.5990  -29.7870   20.2200 C   0  0  0  0  0  2  0  0  0  0  0  0
  -24.6600  -31.0630   22.1340 N   0  0  0  0  0  0  0  0  0  0  0  0
  -23.5220  -32.1550   23.7710 O   0  0  0  0  0  0  0  0  0  0  0  0
  -22.7340  -29.4590   22.5670 C   0  0  0  0  0  0  0  0  0  0  0  0
  -21.4070  -29.2810   22.4470 N   0  0  0  0  0  0  0  0  0  0  0  0
  -23.4150  -28.8360   23.3860 O   0  0  0  0  0  0  0  0  0  0  0  0
  -20.9160  -29.8330   21.7580 H   0  0  0  0  0  0  0  0  0  0  0  0
  -18.0360  -28.0720   22.9540 C   0  0  0  0  0  0  0  0  0  0  0  0
  -20.5920  -28.3440   23.2240 C   0  0  0  0  0  3  0  0  0  0  0  0
  -20.7010  -26.9090   22.6580 C   0  0  0  0  0  2  0  0  0  0  0  0
  -19.6010  -26.5760   21.6450 C   0  0  0  0  0  2  0  0  0  0  0  0
  -18.2180  -26.7200   22.2870 C   0  0  0  0  0  2  0  0  0  0  0  0
  -19.1510  -28.8420   23.3800 C   0  0  0  0  0  0  0  0  0  0  0  0
  -18.9260  -30.1080   23.9640 C   0  0  0  0  0  3  0  0  0  0  0  0
  -17.6180  -30.6040   24.1260 C   0  0  0  0  0  3  0  0  0  0  0  0
  -16.5180  -29.8310   23.7160 C   0  0  0  0  0  3  0  0  0  0  0  0
  -16.7270  -28.5670   23.1370 C   0  0  0  0  0  3  0  0  0  0  0  0
  -25.8880  -32.5110   23.8450 C   0  0  0  0  0  3  0  0  0  0  0  0
  -26.4170  -31.7390   25.1160 C   0  0  1  0  0  0  0  0  0  0  0  0
  -25.3330  -31.4990   26.1940 C   0  0  0  0  0  1  0  0  0  0  0  0
  -26.9960  -30.3610   24.7190 C   0  0  0  0  0  1  0  0  0  0  0  0
  -27.5740  -32.5310   25.7690 C   0  0  0  0  0  1  0  0  0  0  0  0
  -25.5770  -33.9070   24.1820 N   0  0  0  0  0  0  0  0  0  0  0  0
  -25.9000  -34.9640   23.4250 C   0  0  0  0  0  0  0  0  0  0  0  0
  -26.5610  -34.8670   22.3880 O   0  0  0  0  0  0  0  0  0  0  0  0
  -24.9870  -34.0580   24.9870 H   0  0  0  0  0  0  0  0  0  0  0  0
  -24.1600  -36.7540   23.0960 C   0  0  0  0  0  1  0  0  0  0  0  0
  -25.4120  -36.3500   23.8920 C   0  0  0  0  0  3  0  0  0  0  0  0
  -27.5550  -37.2380   24.6990 C   0  0  0  0  0  1  0  0  0  0  0  0
  -26.4390  -37.4070   23.7720 N   0  0  0  0  0  0  0  0  0  0  0  0
  -26.0310  -38.3240   23.9320 H   0  0  0  0  0  0  0  0  0  0  0  0
  2  4  1  0
  2  1  1  0
  3  2  1  0
  5 17  1  0
  6 11  1  0
  7  8  1  0
  7  6  1  0
  9  8  1  0
  9 21  1  0
  9 10  1  0
 11  5  1  0
 11 10  1  0
 12  5  2  0
 13 14  1  0
 13 16  1  0
 14 17  1  0
 15 16  1  0
 16  2  1  0
 17 15  1  0
 18 19  2  0
 19 38  1  0
 20 19  1  0
 20 23  1  0
 21 18  1  0
 21 22  1  0
 22 20  2  0
 23 24  1  0
 24 25  2  0
 26 29  1  0
 26 25  1  0
 27 26  2  0
 28 27  1  0
 28 23  2  0
 29 30  1  0
 30 31  1  0
 31 32  2  0
 33 32  1  0
 33 37  1  0
 34 33  2  0
 35 30  2  0
 35 34  1  0
 36 35  1  0
 38 39  1  0
 39 42  1  0
 39 41  1  0
 40 38  2  0
 43 44  1  0
 43 18  1  0
 45 43  1  0
 46 47  1  0
 46  1  2  0
 48 49  1  0
 48 47  2  0
 50 61  2  0
 51 49  1  0
 51 56  1  0
 52 60  1  0
 52 62  1  0
 53 59  1  0
 53 55  1  0
 54 60  1  0
 55 54  1  0
 56 55  2  0
 57 58  1  0
 57 51  2  0
 58 53  2  0
 59 52  1  0
 60 50  1  0
 62 64  2  0
 63 62  1  0
 65 63  1  0
 66 75  2  0
 66 71  1  0
 67 63  1  0
 67 71  1  0
 68 67  1  0
 69 70  1  0
 69 68  1  0
 70 66  1  0
 71 72  2  0
 72 73  1  0
 74 73  2  0
 75 74  1  0
 76 50  1  0
 76 81  1  0
 76 77  1  0
 77 80  1  1
 77 78  1  0
 79 77  1  0
 81 84  1  0
 82 86  1  0
 82 81  1  0
 83 82  2  0
 86 85  1  0
 88 86  1  0
 88 89  1  0
 88 87  1  0
M  ISO  4   5 100  17 100  48 101  49 101
M  END
>  <TORSDO>  (38) 
F 20

>  <SCORE>  (38) 
-13.760

>  <name>  (38) 
37

>  <ligand_id>  (38) 
37

>  <original_smiles>  (38) 
[H]c1c([H])c([H])c2c(c1[H])C([H])([H])C([H])([H])C([H])([H])C2([H])N([H])C(=O)C1([H])N(C(=O)C([H])(N([H])C(=O)C([H])(N([H])C([H])([H])[H])C([H])([H])[H])C(C([H])([H])[H])(C([H])([H])[H])C([H])([H])[H])C([H])([H])c2c([H])c(OC([H])([H])C([H])([H])C([H])([H])C([H])([H])[N+]([H])([H])C3([H])C([H])([H])N(C(=O)N4C([H])([H])C([H])([H])C([H])([H])C([H])(n5nc(-c6c([H])c([H])c(Oc7c([H])c([H])c(F)c([H])c7F)c([H])c6[H])c(C(=O)N([H])[H])c5N([H])[H])C4([H])[H])C([H])([H])C3([H])[H])c([H])c([H])c2C1([H])[H]

>  <smiles>  (38) 
[H]c1c([H])c([H])c2c(c1[H])C([H])([H])C([H])([H])C([H])([H])C2([H])N([H])C(=O)C1([H])N(C(=O)C([H])(N([H])C(=O)C([H])(N([H])C([H])([H])[H])C([H])([H])[H])C(C([H])([H])[H])(C([H])([H])[H])C([H])([H])[H])C([H])([H])c2c([H])c(OC([H])([H])C([H])([H])C([H])([H])C([H])([H])[N+]([H])([H])C3([H])C([H])([H])N(C(=O)N4C([H])([H])C([H])([H])C([H])([H])C([H])(n5nc(-c6c([H])c([H])c(Oc7c([H])c([H])c(F)c([H])c7F)c([H])c6[H])c(C(=O)N([H])[H])c5N([H])[H])C4([H])[H])C([H])([H])C3([H])[H])c([H])c([H])c2C1([H])[H]

$$$$
38:0:0
     RDKit          3D

 89 97  0  0  1  0  0  0  0  0999 V2000
  -29.1970  -21.2790   20.1140 C   0  0  0  0  0  3  0  0  0  0  0  0
  -28.8010  -22.6260   20.8740 C   0  0  0  0  0  3  0  0  0  0  0  0
  -28.7910  -24.0100   20.0710 C   0  0  0  0  0  3  0  0  0  0  0  0
  -28.1920  -25.2900   20.8090 C   0  0  0  0  0  3  0  0  0  0  0  0
  -28.3300  -26.6340   20.2040 O   0  0  0  0  0  0  0  0  0  0  0  0
  -24.5350  -31.9560   23.2700 C   0  0  0  0  0  0  0  0  0  0  0  0
  -27.2020  -27.4610   20.1960 C   0  0  0  0  0  0  0  0  0  0  0  0
  -23.3480  -30.5580   21.6140 C   0  0  0  0  0  3  0  0  0  0  0  0
  -24.8190  -29.0310   20.1840 C   0  0  0  0  0  0  0  0  0  0  0  0
  -25.8820  -30.9080   21.4400 C   0  0  0  0  0  2  0  0  0  0  0  0
  -25.9800  -29.5360   20.7860 C   0  0  0  0  0  0  0  0  0  0  0  0
  -27.1770  -28.7640   20.7790 C   0  0  0  0  0  3  0  0  0  0  0  0
  -26.0230  -27.0010   19.5740 C   0  0  0  0  0  3  0  0  0  0  0  0
  -24.8420  -27.7680   19.5700 C   0  0  0  0  0  3  0  0  0  0  0  0
  -23.5730  -29.8920   20.2300 C   0  0  0  0  0  2  0  0  0  0  0  0
  -24.6070  -31.1580   22.1660 N   0  0  0  0  0  0  0  0  0  0  0  0
  -23.4470  -32.2200   23.8030 O   0  0  0  0  0  0  0  0  0  0  0  0
  -22.6910  -29.5300   22.5650 C   0  0  0  0  0  0  0  0  0  0  0  0
  -21.3750  -29.3140   22.4030 N   0  0  0  0  0  0  0  0  0  0  0  0
  -23.3650  -28.9300   23.4070 O   0  0  0  0  0  0  0  0  0  0  0  0
  -20.8910  -29.8500   21.6970 H   0  0  0  0  0  0  0  0  0  0  0  0
  -18.0250  -28.0090   22.8020 C   0  0  0  0  0  0  0  0  0  0  0  0
  -20.5630  -28.3590   23.1570 C   0  0  0  0  0  3  0  0  0  0  0  0
  -20.7330  -26.9250   22.6050 C   0  0  0  0  0  2  0  0  0  0  0  0
  -19.6790  -26.5520   21.5580 C   0  0  0  0  0  2  0  0  0  0  0  0
  -18.2710  -26.6580   22.1510 C   0  0  0  0  0  2  0  0  0  0  0  0
  -19.1020  -28.8140   23.2590 C   0  0  0  0  0  0  0  0  0  0  0  0
  -18.8210  -30.0760   23.8260 C   0  0  0  0  0  3  0  0  0  0  0  0
  -17.4960  -30.5360   23.9400 C   0  0  0  0  0  3  0  0  0  0  0  0
  -16.4320  -29.7290   23.5000 C   0  0  0  0  0  3  0  0  0  0  0  0
  -16.6980  -28.4680   22.9350 C   0  0  0  0  0  3  0  0  0  0  0  0
  -25.8100  -32.5930   23.9030 C   0  0  0  0  0  3  0  0  0  0  0  0
  -25.5060  -34.0010   24.1950 N   0  0  0  0  0  0  0  0  0  0  0  0
  -25.8780  -35.0350   23.4290 C   0  0  0  0  0  0  0  0  0  0  0  0
  -26.5820  -34.9040   22.4240 O   0  0  0  0  0  0  0  0  0  0  0  0
  -24.8830  -34.1770   24.9690 H   0  0  0  0  0  0  0  0  0  0  0  0
  -24.2030  -36.8540   22.9600 C   0  0  0  0  0  1  0  0  0  0  0  0
  -25.3910  -36.4370   23.8430 C   0  0  0  0  0  3  0  0  0  0  0  0
  -27.4850  -37.3010   24.7880 C   0  0  0  0  0  1  0  0  0  0  0  0
  -26.4460  -37.4700   23.7770 N   0  0  0  0  0  0  0  0  0  0  0  0
  -26.0480  -38.4000   23.8830 H   0  0  0  0  0  0  0  0  0  0  0  0
  -26.2960  -31.8480   25.2060 C   0  0  1  0  0  0  0  0  0  0  0  0
  -25.1790  -31.6410   26.2560 C   0  0  0  0  0  1  0  0  0  0  0  0
  -26.8780  -30.4570   24.8580 C   0  0  0  0  0  1  0  0  0  0  0  0
  -27.4360  -32.6520   25.8760 C   0  0  0  0  0  1  0  0  0  0  0  0
  -29.2770  -19.9070   20.9490 C   0  0  0  0  0  2  0  0  0  0  0  0
  -28.1930  -18.3640   19.3130 C   0  0  0  0  0  0  0  0  0  0  0  0
  -28.5930  -17.2910   18.3190 C   0  0  0  0  0  2  0  0  0  0  0  0
  -30.0840  -17.1300   18.6110 C   0  0  0  0  0  2  0  0  0  0  0  0
  -30.2150  -17.4970   20.1060 C   0  0  0  0  0  3  0  0  0  0  0  0
  -29.1780  -18.5970   20.1980 N   0  0  0  0  0  0  0  0  0  0  0  0
  -27.1210  -18.9680   19.2310 O   0  0  0  0  0  0  0  0  0  0  0  0
  -29.9900  -16.1860   21.0170 C   0  0  0  0  0  2  0  0  0  0  0  0
  -30.7910  -14.8540   20.6660 C   0  0  0  0  0  0  0  0  0  0  0  0
  -30.6090  -12.6420   19.5450 C   0  0  0  0  0  2  0  0  0  0  0  0
  -29.7120  -12.8100   18.2970 C   0  0  0  0  0  2  0  0  0  0  0  0
  -28.2250  -12.6350   18.6670 C   0  0  0  0  0  2  0  0  0  0  0  0
  -27.8220  -13.4650   19.9130 C   0  0  0  0  0  3  0  0  0  0  0  0
  -28.8410  -13.2980   21.0620 C   0  0  0  0  0  2  0  0  0  0  0  0
  -30.1710  -13.6380   20.5430 N   0  0  0  0  0  0  0  0  0  0  0  0
  -31.9790  -14.9700   20.3490 O   0  0  0  0  0  0  0  0  0  0  0  0
  -25.3960  -14.0400   20.5300 C   0  0  0  0  0  0  0  0  0  0  0  0
  -24.3240  -13.2570   20.8620 C   0  0  0  0  0  0  0  0  0  0  0  0
  -24.8040  -11.9110   20.8650 C   0  0  0  0  0  0  0  0  0  0  0  0
  -26.4600  -13.1710   20.3490 N   0  0  0  0  0  0  0  0  0  0  0  0
  -26.1080  -11.8870   20.6120 N   0  0  0  0  0  0  0  0  0  0  0  0
  -24.0870  -10.6420   21.0390 C   0  0  0  0  0  0  0  0  0  0  0  0
  -24.4730   -9.7040   22.0200 C   0  0  0  0  0  3  0  0  0  0  0  0
  -23.7560   -8.4980   22.1800 C   0  0  0  0  0  3  0  0  0  0  0  0
  -22.6380   -8.2230   21.3560 C   0  0  0  0  0  0  0  0  0  0  0  0
  -22.2720   -9.1510   20.3650 C   0  0  0  0  0  3  0  0  0  0  0  0
  -22.9900  -10.3480   20.2040 C   0  0  0  0  0  3  0  0  0  0  0  0
  -21.8980   -7.0670   21.4210 O   0  0  0  0  0  0  0  0  0  0  0  0
  -21.7700   -6.3590   22.5880 C   0  0  0  0  0  0  0  0  0  0  0  0
  -21.2000   -6.9300   23.7470 C   0  0  0  0  0  3  0  0  0  0  0  0
  -21.0240   -6.1460   24.9040 C   0  0  0  0  0  3  0  0  0  0  0  0
  -21.4070   -4.7910   24.9030 C   0  0  0  0  0  0  0  0  0  0  0  0
  -21.9710   -4.2200   23.7480 C   0  0  0  0  0  3  0  0  0  0  0  0
  -22.1480   -5.0010   22.5930 C   0  0  0  0  0  0  0  0  0  0  0  0
  -22.6720   -4.4410   21.4770 F   0  0  0  0  0  0  0  0  0  0  0  0
  -21.2310   -4.0360   26.0120 F   0  0  0  0  0  0  0  0  0  0  0  0
  -22.9100  -13.7190   21.0680 C   0  0  0  0  0  0  0  0  0  0  0  0
  -22.1540  -13.0200   21.9070 N   0  0  0  0  0  0  0  0  0  0  0  0
  -22.4830  -14.7350   20.5200 O   0  0  0  0  0  0  0  0  0  0  0  0
  -22.5120  -12.1980   22.3710 H   0  0  0  0  0  0  0  0  0  0  0  0
  -21.2040  -13.3110   22.0900 H   0  0  0  0  0  0  0  0  0  0  0  0
  -25.5490  -15.4100   20.3470 N   0  0  0  0  0  0  0  0  0  0  0  0
  -24.7700  -16.0550   20.4230 H   0  0  0  0  0  0  0  0  0  0  0  0
  -26.4080  -15.8620   20.0620 H   0  0  0  0  0  0  0  0  0  0  0  0
  1  2  2  0
  1 46  1  0
  3  4  2  0
  3  2  1  0
  5  4  1  0
  6 17  2  0
  7  5  1  0
  7 12  1  0
  8 16  1  0
  8 18  1  0
  9 15  1  0
  9 11  1  0
 10 16  1  0
 11 10  1  0
 12 11  2  0
 13  7  2  0
 14 13  1  0
 14  9  2  0
 15  8  1  0
 16  6  1  0
 18 20  2  0
 19 18  1  0
 21 19  1  0
 22 31  2  0
 22 27  1  0
 23 19  1  0
 23 27  1  0
 24 23  1  0
 25 26  1  0
 25 24  1  0
 26 22  1  0
 27 28  2  0
 28 29  1  0
 30 29  2  0
 31 30  1  0
 32  6  1  0
 32 33  1  0
 32 42  1  0
 33 36  1  0
 34 38  1  0
 34 33  1  0
 35 34  2  0
 38 37  1  0
 40 38  1  0
 40 41  1  0
 40 39  1  0
 42 45  1  1
 42 43  1  0
 44 42  1  0
 47 51  1  0
 48 49  1  0
 48 47  1  0
 49 50  1  0
 50 51  1  0
 50 53  1  0
 51 46  1  0
 52 47  2  0
 54 53  1  0
 55 60  1  0
 56 57  1  0
 56 55  1  0
 58 57  1  0
 58 65  1  0
 58 59  1  0
 60 54  1  0
 60 59  1  0
 61 54  2  0
 62 63  2  0
 63 64  1  0
 63 82  1  0
 64 67  1  0
 65 62  1  0
 65 66  1  0
 66 64  2  0
 67 68  1  0
 68 69  2  0
 70 73  1  0
 70 69  1  0
 71 70  2  0
 72 71  1  0
 72 67  2  0
 73 74  1  0
 74 79  2  0
 74 75  1  0
 75 76  2  0
 77 76  1  0
 77 81  1  0
 78 77  2  0
 79 78  1  0
 80 79  1  0
 82 83  1  0
 83 86  1  0
 83 85  1  0
 84 82  2  0
 87 88  1  0
 87 62  1  0
 89 87  1  0
M  ISO  4   4 101   5 101  53 100  54 100
M  END
>  <TORSDO>  (39) 
F 22

>  <SCORE>  (39) 
-12.974

>  <name>  (39) 
38

>  <ligand_id>  (39) 
38

>  <original_smiles>  (39) 
[H]c1c([H])c([H])c2c(c1[H])C([H])([H])C([H])([H])C([H])([H])C2([H])N([H])C(=O)C1([H])N(C(=O)C([H])(N([H])C(=O)C([H])(N([H])C([H])([H])[H])C([H])([H])[H])C(C([H])([H])[H])(C([H])([H])[H])C([H])([H])[H])C([H])([H])c2c([H])c(OC([H])([H])C([H])([H])C([H])([H])C([H])([H])C([H])([H])N3C(=O)C([H])([H])C([H])([H])C3([H])C([H])([H])C(=O)N3C([H])([H])C([H])([H])C([H])([H])C([H])(n4nc(-c5c([H])c([H])c(Oc6c([H])c([H])c(F)c([H])c6F)c([H])c5[H])c(C(=O)N([H])[H])c4N([H])[H])C3([H])[H])c([H])c([H])c2C1([H])[H]

>  <smiles>  (39) 
[H]c1c([H])c([H])c2c(c1[H])C([H])([H])C([H])([H])C([H])([H])C2([H])N([H])C(=O)C1([H])N(C(=O)C([H])(N([H])C(=O)C([H])(N([H])C([H])([H])[H])C([H])([H])[H])C(C([H])([H])[H])(C([H])([H])[H])C([H])([H])[H])C([H])([H])c2c([H])c(OC([H])([H])C([H])([H])C([H])([H])C([H])([H])C([H])([H])N3C(=O)C([H])([H])C([H])([H])C3([H])C([H])([H])C(=O)N3C([H])([H])C([H])([H])C([H])([H])C([H])(n4nc(-c5c([H])c([H])c(Oc6c([H])c([H])c(F)c([H])c6F)c([H])c5[H])c(C(=O)N([H])[H])c4N([H])[H])C3([H])[H])c([H])c([H])c2C1([H])[H]

$$$$
39:0:0
     RDKit          3D

 90 98  0  0  1  0  0  0  0  0999 V2000
  -31.5670  -22.2320   18.7660 C   0  0  0  0  0  2  0  0  0  0  0  0
  -31.7020  -20.7050   18.8010 C   0  0  0  0  0  2  0  0  0  0  0  0
  -29.9250  -21.3950   20.2450 C   0  0  0  0  0  2  0  0  0  0  0  0
  -30.1210  -22.4900   19.1820 C   0  0  0  0  0  3  0  0  0  0  0  0
  -30.6330  -20.2060   19.7060 N   0  0  2  0  0  4  0  0  0  0  0  0
  -29.9660  -19.7480   19.1050 H   0  0  0  0  0  0  0  0  0  0  0  0
  -29.8790  -23.9590   19.6160 C   0  0  0  0  0  2  0  0  0  0  0  0
  -28.6570  -24.6150   18.9370 C   0  0  0  0  0  2  0  0  0  0  0  0
  -28.7540  -26.1520   18.8640 C   0  0  0  0  0  2  0  0  0  0  0  0
  -28.4280  -26.7830   20.1040 O   0  0  0  0  0  0  0  0  0  0  0  0
  -24.5730  -31.8830   23.2390 C   0  0  0  0  0  0  0  0  0  0  0  0
  -27.2320  -27.4630   20.1420 C   0  0  0  0  0  0  0  0  0  0  0  0
  -23.3690  -30.4830   21.5920 C   0  0  0  0  0  3  0  0  0  0  0  0
  -24.8250  -28.9430   20.1730 C   0  0  0  0  0  0  0  0  0  0  0  0
  -25.8930  -30.8400   21.4020 C   0  0  0  0  0  2  0  0  0  0  0  0
  -25.9780  -29.4690   20.7710 C   0  0  0  0  0  0  0  0  0  0  0  0
  -27.1800  -28.7280   20.7690 C   0  0  0  0  0  3  0  0  0  0  0  0
  -26.0560  -26.9400   19.5580 C   0  0  0  0  0  3  0  0  0  0  0  0
  -24.8580  -27.6750   19.5680 C   0  0  0  0  0  3  0  0  0  0  0  0
  -23.5800  -29.7980   20.2140 C   0  0  0  0  0  2  0  0  0  0  0  0
  -24.6290  -31.0830   22.1370 N   0  0  0  0  0  0  0  0  0  0  0  0
  -23.4930  -32.1560   23.7780 O   0  0  0  0  0  0  0  0  0  0  0  0
  -22.7180  -29.4600   22.5490 C   0  0  0  0  0  0  0  0  0  0  0  0
  -21.3940  -29.2850   22.4200 N   0  0  0  0  0  0  0  0  0  0  0  0
  -23.4000  -28.8300   23.3640 O   0  0  0  0  0  0  0  0  0  0  0  0
  -20.9050  -29.8480   21.7380 H   0  0  0  0  0  0  0  0  0  0  0  0
  -18.0140  -28.1180   22.9190 C   0  0  0  0  0  0  0  0  0  0  0  0
  -20.5740  -28.3480   23.1840 C   0  0  0  0  0  3  0  0  0  0  0  0
  -20.6600  -26.9200   22.5940 C   0  0  0  0  0  2  0  0  0  0  0  0
  -19.5510  -26.6170   21.5810 C   0  0  0  0  0  2  0  0  0  0  0  0
  -18.1720  -26.7720   22.2300 C   0  0  0  0  0  2  0  0  0  0  0  0
  -19.1410  -28.8650   23.3520 C   0  0  0  0  0  0  0  0  0  0  0  0
  -18.9390  -30.1260   23.9520 C   0  0  0  0  0  3  0  0  0  0  0  0
  -17.6400  -30.6400   24.1260 C   0  0  0  0  0  3  0  0  0  0  0  0
  -16.5270  -29.8900   23.7100 C   0  0  0  0  0  3  0  0  0  0  0  0
  -16.7150  -28.6310   23.1140 C   0  0  0  0  0  3  0  0  0  0  0  0
  -25.8610  -32.5090   23.8610 C   0  0  0  0  0  3  0  0  0  0  0  0
  -25.5560  -33.9080   24.1850 N   0  0  0  0  0  0  0  0  0  0  0  0
  -25.9030  -34.9570   23.4270 C   0  0  0  0  0  0  0  0  0  0  0  0
  -26.5850  -34.8490   22.4040 O   0  0  0  0  0  0  0  0  0  0  0  0
  -24.9470  -34.0650   24.9740 H   0  0  0  0  0  0  0  0  0  0  0  0
  -24.1910  -36.7610   23.0460 C   0  0  0  0  0  1  0  0  0  0  0  0
  -25.4160  -36.3470   23.8770 C   0  0  0  0  0  3  0  0  0  0  0  0
  -27.5400  -37.2230   24.7420 C   0  0  0  0  0  1  0  0  0  0  0  0
  -26.4540  -37.3960   23.7790 N   0  0  0  0  0  0  0  0  0  0  0  0
  -26.0490  -38.3160   23.9200 H   0  0  0  0  0  0  0  0  0  0  0  0
  -26.3740  -31.7360   25.1370 C   0  0  1  0  0  0  0  0  0  0  0  0
  -25.2770  -31.4960   26.2010 C   0  0  0  0  0  1  0  0  0  0  0  0
  -26.9570  -30.3570   24.7450 C   0  0  0  0  0  1  0  0  0  0  0  0
  -27.5180  -32.5310   25.8100 C   0  0  0  0  0  1  0  0  0  0  0  0
  -31.0650  -19.1890   20.7070 C   0  0  0  0  0  2  0  0  0  0  0  0
  -30.4470  -17.7920   20.4450 C   0  0  0  0  0  2  0  0  0  0  0  0
  -30.8740  -16.7750   21.5280 C   0  0  0  0  0  2  0  0  0  0  0  0
  -30.1810  -15.3890   21.4910 C   0  0  0  0  0  2  0  0  0  0  0  0
  -30.7020  -14.3850   20.4420 C   0  0  0  0  0  0  0  0  0  0  0  0
  -30.3230  -12.3310   19.1060 C   0  0  0  0  0  2  0  0  0  0  0  0
  -29.3430  -12.6070   17.9510 C   0  0  0  0  0  2  0  0  0  0  0  0
  -27.8840  -12.4670   18.4240 C   0  0  0  0  0  2  0  0  0  0  0  0
  -27.6050  -13.2610   19.7260 C   0  0  0  0  0  3  0  0  0  0  0  0
  -28.6790  -12.9380   20.7890 C   0  0  0  0  0  2  0  0  0  0  0  0
  -29.9960  -13.2480   20.2080 N   0  0  0  0  0  0  0  0  0  0  0  0
  -31.7430  -14.6480   19.8310 O   0  0  0  0  0  0  0  0  0  0  0  0
  -25.2210  -13.8960   20.4640 C   0  0  0  0  0  0  0  0  0  0  0  0
  -24.1480  -13.1350   20.8410 C   0  0  0  0  0  0  0  0  0  0  0  0
  -24.5950  -11.7770   20.8040 C   0  0  0  0  0  0  0  0  0  0  0  0
  -26.2560  -13.0070   20.2210 N   0  0  0  0  0  0  0  0  0  0  0  0
  -25.8810  -11.7260   20.4790 N   0  0  0  0  0  0  0  0  0  0  0  0
  -23.8600  -10.5230   21.0020 C   0  0  0  0  0  0  0  0  0  0  0  0
  -24.2960   -9.5480   21.9280 C   0  0  0  0  0  3  0  0  0  0  0  0
  -23.5590   -8.3600   22.1170 C   0  0  0  0  0  3  0  0  0  0  0  0
  -22.3750   -8.1330   21.3750 C   0  0  0  0  0  0  0  0  0  0  0  0
  -21.9560   -9.0950   20.4400 C   0  0  0  0  0  3  0  0  0  0  0  0
  -22.6930  -10.2780   20.2500 C   0  0  0  0  0  3  0  0  0  0  0  0
  -21.6140   -6.9930   21.4690 O   0  0  0  0  0  0  0  0  0  0  0  0
  -21.5800   -6.2450   22.6180 C   0  0  0  0  0  0  0  0  0  0  0  0
  -21.1840   -6.8000   23.8550 C   0  0  0  0  0  3  0  0  0  0  0  0
  -21.0940   -5.9820   24.9990 C   0  0  0  0  0  3  0  0  0  0  0  0
  -21.3910   -4.6080   24.9070 C   0  0  0  0  0  0  0  0  0  0  0  0
  -21.7840   -4.0530   23.6760 C   0  0  0  0  0  3  0  0  0  0  0  0
  -21.8750   -4.8680   22.5350 C   0  0  0  0  0  0  0  0  0  0  0  0
  -22.2310   -4.3230   21.3460 F   0  0  0  0  0  0  0  0  0  0  0  0
  -21.2980   -3.8190   26.0020 F   0  0  0  0  0  0  0  0  0  0  0  0
  -22.7600  -13.6220   21.1360 C   0  0  0  0  0  0  0  0  0  0  0  0
  -22.0450  -12.9300   22.0140 N   0  0  0  0  0  0  0  0  0  0  0  0
  -22.3210  -14.6520   20.6250 O   0  0  0  0  0  0  0  0  0  0  0  0
  -22.4170  -12.0920   22.4410 H   0  0  0  0  0  0  0  0  0  0  0  0
  -21.1140  -13.2320   22.2620 H   0  0  0  0  0  0  0  0  0  0  0  0
  -25.3910  -15.2660   20.2860 N   0  0  0  0  0  0  0  0  0  0  0  0
  -24.6210  -15.9180   20.4000 H   0  0  0  0  0  0  0  0  0  0  0  0
  -26.2360  -15.7050   19.9460 H   0  0  0  0  0  0  0  0  0  0  0  0
  1  2  1  0
  1  4  1  0
  2  5  1  0
  4  7  1  0
  4  3  1  0
  5  3  1  0
  5 51  1  0
  5  6  1  6
  8  7  1  0
  9  8  1  0
  9 10  1  0
 10 12  1  0
 11 22  2  0
 12 17  1  0
 13 21  1  0
 13 23  1  0
 14 20  1  0
 14 16  1  0
 15 21  1  0
 16 15  1  0
 17 16  2  0
 18 19  1  0
 18 12  2  0
 19 14  2  0
 20 13  1  0
 21 11  1  0
 23 25  2  0
 24 23  1  0
 26 24  1  0
 27 36  2  0
 27 32  1  0
 28 24  1  0
 28 32  1  0
 29 28  1  0
 30 31  1  0
 30 29  1  0
 31 27  1  0
 32 33  2  0
 33 34  1  0
 35 34  2  0
 36 35  1  0
 37 11  1  0
 37 38  1  0
 37 47  1  0
 38 41  1  0
 39 43  1  0
 39 38  1  0
 40 39  2  0
 43 42  1  0
 45 43  1  0
 45 46  1  0
 45 44  1  0
 47 50  1  1
 47 48  1  0
 49 47  1  0
 52 51  1  0
 52 53  1  0
 54 53  1  0
 55 54  1  0
 56 61  1  0
 57 58  1  0
 57 56  1  0
 59 58  1  0
 59 66  1  0
 59 60  1  0
 61 55  1  0
 61 60  1  0
 62 55  2  0
 63 64  2  0
 64 83  1  0
 65 64  1  0
 65 68  1  0
 66 63  1  0
 66 67  1  0
 67 65  2  0
 68 69  1  0
 69 70  2  0
 71 74  1  0
 71 70  1  0
 72 71  2  0
 73 72  1  0
 73 68  2  0
 74 75  1  0
 75 76  1  0
 76 77  2  0
 78 77  1  0
 78 82  1  0
 79 78  2  0
 80 75  2  0
 80 79  1  0
 81 80  1  0
 83 84  1  0
 84 87  1  0
 84 86  1  0
 85 83  2  0
 88 89  1  0
 88 63  1  0
 90 88  1  0
M  ISO  4   9 101  10 101  54 100  55 100
M  END
>  <TORSDO>  (40) 
F 23

>  <SCORE>  (40) 
-12.678

>  <name>  (40) 
39

>  <ligand_id>  (40) 
39

>  <original_smiles>  (40) 
[H]c1c([H])c([H])c2c(c1[H])C([H])([H])C([H])([H])C([H])([H])C2([H])N([H])C(=O)C1([H])N(C(=O)C([H])(N([H])C(=O)C([H])(N([H])C([H])([H])[H])C([H])([H])[H])C(C([H])([H])[H])(C([H])([H])[H])C([H])([H])[H])C([H])([H])c2c([H])c(OC([H])([H])C([H])([H])C([H])([H])C3([H])C([H])([H])C([H])([H])[N+]([H])(C([H])([H])C([H])([H])C([H])([H])C([H])([H])C(=O)N4C([H])([H])C([H])([H])C([H])([H])C([H])(n5nc(-c6c([H])c([H])c(Oc7c([H])c([H])c(F)c([H])c7F)c([H])c6[H])c(C(=O)N([H])[H])c5N([H])[H])C4([H])[H])C3([H])[H])c([H])c([H])c2C1([H])[H]

>  <smiles>  (40) 
[H]c1c([H])c([H])c2c(c1[H])C([H])([H])C([H])([H])C([H])([H])C2([H])N([H])C(=O)C1([H])N(C(=O)C([H])(N([H])C(=O)C([H])(N([H])C([H])([H])[H])C([H])([H])[H])C(C([H])([H])[H])(C([H])([H])[H])C([H])([H])[H])C([H])([H])c2c([H])c(OC([H])([H])C([H])([H])C([H])([H])C3([H])C([H])([H])C([H])([H])[N+]([H])(C([H])([H])C([H])([H])C([H])([H])C([H])([H])C(=O)N4C([H])([H])C([H])([H])C([H])([H])C([H])(n5nc(-c6c([H])c([H])c(Oc7c([H])c([H])c(F)c([H])c7F)c([H])c6[H])c(C(=O)N([H])[H])c5N([H])[H])C4([H])[H])C3([H])[H])c([H])c([H])c2C1([H])[H]

$$$$
40:0:0
     RDKit          3D

 92101  0  0  1  0  0  0  0  0999 V2000
  -32.8620  -17.9230   17.9420 C   0  0  0  0  0  3  0  0  0  0  0  0
  -33.6570  -16.9060   17.4040 C   0  0  0  0  0  2  0  0  0  0  0  0
  -32.1320  -17.7960   19.2000 C   0  0  0  0  0  2  0  0  0  0  0  0
  -31.4540  -19.8540   16.7560 C   0  0  0  0  0  2  0  0  0  0  0  0
  -32.6990  -19.3430   17.4370 C   0  0  0  0  0  3  0  0  0  0  0  0
  -31.8320  -20.3990   18.1670 C   0  0  0  0  0  3  0  0  0  0  0  0
  -30.6870  -18.3630   19.2690 C   0  0  0  0  0  3  0  0  0  0  0  0
  -30.7510  -20.0510   19.2430 N   0  0  2  0  0  4  0  0  0  0  0  0
  -31.2450  -20.2720   20.0830 H   0  0  0  0  0  0  0  0  0  0  0  0
  -33.6880  -14.1490   17.8850 C   0  0  0  0  0  1  0  0  0  0  0  0
  -34.2040  -15.6160   18.1470 C   0  0  0  0  0  2  0  0  0  0  0  0
  -29.9930  -17.1140   20.2080 C   0  0  0  0  0  2  0  0  0  0  0  0
  -30.4160  -15.4170   20.2640 C   0  0  0  0  0  0  0  0  0  0  0  0
  -30.0870  -13.5810   18.7380 C   0  0  0  0  0  2  0  0  0  0  0  0
  -29.4120  -12.3560   18.2740 C   0  0  0  0  0  2  0  0  0  0  0  0
  -27.9120  -12.3940   18.5590 C   0  0  0  0  0  2  0  0  0  0  0  0
  -27.6810  -12.8850   20.0010 C   0  0  0  0  0  3  0  0  0  0  0  0
  -28.6210  -13.7500   20.8100 C   0  0  0  0  0  2  0  0  0  0  0  0
  -29.6570  -14.3200   19.9350 N   0  0  0  0  0  0  0  0  0  0  0  0
  -31.6240  -15.1170   20.4440 O   0  0  0  0  0  0  0  0  0  0  0  0
  -25.2430  -13.8440   20.4530 C   0  0  0  0  0  0  0  0  0  0  0  0
  -24.1240  -13.1290   20.7840 C   0  0  0  0  0  0  0  0  0  0  0  0
  -24.5430  -11.7690   20.8440 C   0  0  0  0  0  0  0  0  0  0  0  0
  -26.2800  -12.9010   20.3600 N   0  0  0  0  0  0  0  0  0  0  0  0
  -25.8160  -11.6740   20.5720 N   0  0  0  0  0  0  0  0  0  0  0  0
  -23.8310  -10.5100   21.0620 C   0  0  0  0  0  0  0  0  0  0  0  0
  -24.2880   -9.5280   21.9820 C   0  0  0  0  0  3  0  0  0  0  0  0
  -23.5500   -8.3380   22.1420 C   0  0  0  0  0  3  0  0  0  0  0  0
  -22.3650   -8.1250   21.3970 C   0  0  0  0  0  0  0  0  0  0  0  0
  -21.9770   -9.0820   20.4460 C   0  0  0  0  0  3  0  0  0  0  0  0
  -22.7100  -10.2630   20.2770 C   0  0  0  0  0  3  0  0  0  0  0  0
  -21.5960   -6.9960   21.4940 O   0  0  0  0  0  0  0  0  0  0  0  0
  -21.5550   -6.2510   22.6350 C   0  0  0  0  0  0  0  0  0  0  0  0
  -21.1550   -6.7990   23.8810 C   0  0  0  0  0  3  0  0  0  0  0  0
  -21.0710   -5.9740   25.0180 C   0  0  0  0  0  3  0  0  0  0  0  0
  -21.3690   -4.6070   24.9210 C   0  0  0  0  0  0  0  0  0  0  0  0
  -21.7530   -4.0530   23.6920 C   0  0  0  0  0  3  0  0  0  0  0  0
  -21.8440   -4.8700   22.5480 C   0  0  0  0  0  0  0  0  0  0  0  0
  -22.2020   -4.3280   21.3650 F   0  0  0  0  0  0  0  0  0  0  0  0
  -21.2710   -3.8080   26.0210 F   0  0  0  0  0  0  0  0  0  0  0  0
  -22.7350  -13.6360   21.0150 C   0  0  0  0  0  0  0  0  0  0  0  0
  -22.0000  -12.9720   21.8960 N   0  0  0  0  0  0  0  0  0  0  0  0
  -22.3050  -14.6410   20.4410 O   0  0  0  0  0  0  0  0  0  0  0  0
  -22.3950  -12.1750   22.3660 H   0  0  0  0  0  0  0  0  0  0  0  0
  -21.0610  -13.2590   22.1030 H   0  0  0  0  0  0  0  0  0  0  0  0
  -25.4580  -15.2070   20.2370 N   0  0  0  0  0  0  0  0  0  0  0  0
  -24.7220  -15.9070   20.3010 H   0  0  0  0  0  0  0  0  0  0  0  0
  -26.3300  -15.6310   19.9440 H   0  0  0  0  0  0  0  0  0  0  0  0
  -29.5910  -21.2480   19.2150 C   0  0  0  0  0  3  0  0  0  0  0  0
  -29.6910  -22.9630   19.7970 C   0  0  0  0  0  3  0  0  0  0  0  0
  -28.5100  -24.3740   19.6790 C   0  0  0  0  0  2  0  0  0  0  0  0
  -28.4650  -25.9910   20.1130 O   0  0  0  0  0  0  0  0  0  0  0  0
  -24.6200  -31.8130   23.1680 C   0  0  0  0  0  0  0  0  0  0  0  0
  -27.3260  -27.0030   20.1060 C   0  0  0  0  0  0  0  0  0  0  0  0
  -23.4270  -30.3950   21.5400 C   0  0  0  0  0  3  0  0  0  0  0  0
  -24.9090  -28.7710   20.1410 C   0  0  0  0  0  0  0  0  0  0  0  0
  -25.9950  -30.6440   21.3790 C   0  0  0  0  0  2  0  0  0  0  0  0
  -26.1050  -29.2310   20.7280 C   0  0  0  0  0  0  0  0  0  0  0  0
  -27.2860  -28.3800   20.6790 C   0  0  0  0  0  3  0  0  0  0  0  0
  -26.0920  -26.6810   19.5080 C   0  0  0  0  0  3  0  0  0  0  0  0
  -24.9270  -27.5150   19.5160 C   0  0  0  0  0  3  0  0  0  0  0  0
  -23.6770  -29.6780   20.1780 C   0  0  0  0  0  2  0  0  0  0  0  0
  -24.7010  -30.9820   22.0840 N   0  0  0  0  0  0  0  0  0  0  0  0
  -23.5310  -32.1010   23.6930 O   0  0  0  0  0  0  0  0  0  0  0  0
  -22.7270  -29.4200   22.5200 C   0  0  0  0  0  0  0  0  0  0  0  0
  -21.3950  -29.2730   22.4000 N   0  0  0  0  0  0  0  0  0  0  0  0
  -23.3980  -28.7980   23.3490 O   0  0  0  0  0  0  0  0  0  0  0  0
  -20.9140  -29.8230   21.7030 H   0  0  0  0  0  0  0  0  0  0  0  0
  -18.0070  -28.0880   22.9300 C   0  0  0  0  0  0  0  0  0  0  0  0
  -20.5730  -28.3460   23.1790 C   0  0  0  0  0  3  0  0  0  0  0  0
  -20.6640  -26.9110   22.6100 C   0  0  0  0  0  2  0  0  0  0  0  0
  -19.5540  -26.5910   21.6010 C   0  0  0  0  0  2  0  0  0  0  0  0
  -18.1770  -26.7410   22.2510 C   0  0  0  0  0  2  0  0  0  0  0  0
  -19.1330  -28.8490   23.3530 C   0  0  0  0  0  0  0  0  0  0  0  0
  -18.9210  -30.1100   23.9530 C   0  0  0  0  0  3  0  0  0  0  0  0
  -17.6190  -30.6110   24.1360 C   0  0  0  0  0  3  0  0  0  0  0  0
  -16.5100  -29.8490   23.7320 C   0  0  0  0  0  3  0  0  0  0  0  0
  -16.7040  -28.5900   23.1350 C   0  0  0  0  0  3  0  0  0  0  0  0
  -25.8830  -32.4640   23.8010 C   0  0  0  0  0  3  0  0  0  0  0  0
  -25.5640  -33.8610   24.1370 N   0  0  0  0  0  0  0  0  0  0  0  0
  -25.8990  -34.9290   23.4010 C   0  0  0  0  0  0  0  0  0  0  0  0
  -26.5660  -34.8390   22.3680 O   0  0  0  0  0  0  0  0  0  0  0  0
  -24.9710  -34.0020   24.9400 H   0  0  0  0  0  0  0  0  0  0  0  0
  -24.1680  -36.7330   23.0820 C   0  0  0  0  0  1  0  0  0  0  0  0
  -25.4130  -36.3150   23.8790 C   0  0  0  0  0  3  0  0  0  0  0  0
  -27.5510  -37.2000   24.7020 C   0  0  0  0  0  1  0  0  0  0  0  0
  -26.4390  -37.3720   23.7730 N   0  0  0  0  0  0  0  0  0  0  0  0
  -26.0300  -38.2850   23.9370 H   0  0  0  0  0  0  0  0  0  0  0  0
  -26.3920  -31.7030   25.0900 C   0  0  1  0  0  0  0  0  0  0  0  0
  -25.2980  -31.4840   26.1650 C   0  0  0  0  0  1  0  0  0  0  0  0
  -26.9690  -30.3150   24.7240 C   0  0  0  0  0  1  0  0  0  0  0  0
  -27.5390  -32.5030   25.7590 C   0  0  0  0  0  1  0  0  0  0  0  0
  1  2  1  0
  1  3  1  0
  2 11  1  0
  3  7  1  0
  5  4  1  0
  5  1  1  0
  5  6  1  0
  6  4  1  0
  6  8  1  0
  7 12  1  0
  8  7  1  0
  8  9  1  1
 10 11  1  0
 12 13  1  0
 13 20  2  0
 14 19  1  0
 15 16  1  0
 15 14  1  0
 17 16  1  0
 17 24  1  0
 17 18  1  0
 19 13  1  0
 19 18  1  0
 21 22  2  0
 22 23  1  0
 22 41  1  0
 23 26  1  0
 24 21  1  0
 24 25  1  0
 25 23  2  0
 26 27  1  0
 27 28  2  0
 29 32  1  0
 29 28  1  0
 30 29  2  0
 31 30  1  0
 31 26  2  0
 32 33  1  0
 33 34  1  0
 34 35  2  0
 36 35  1  0
 36 40  1  0
 37 36  2  0
 38 33  2  0
 38 37  1  0
 39 38  1  0
 41 42  1  0
 42 45  1  0
 42 44  1  0
 43 41  2  0
 46 47  1  0
 46 21  1  0
 48 46  1  0
 49  8  1  0
 49 50  2  0
 51 50  1  0
 51 52  1  0
 53 64  2  0
 54 52  1  0
 54 59  1  0
 55 63  1  0
 55 65  1  0
 56 62  1  0
 56 58  1  0
 57 63  1  0
 58 57  1  0
 59 58  2  0
 60 61  1  0
 60 54  2  0
 61 56  2  0
 62 55  1  0
 63 53  1  0
 65 67  2  0
 66 65  1  0
 68 66  1  0
 69 78  2  0
 69 74  1  0
 70 66  1  0
 70 74  1  0
 71 70  1  0
 72 73  1  0
 72 71  1  0
 73 69  1  0
 74 75  2  0
 75 76  1  0
 77 76  2  0
 78 77  1  0
 79 53  1  0
 79 80  1  0
 79 89  1  0
 80 83  1  0
 81 85  1  0
 81 80  1  0
 82 81  2  0
 85 84  1  0
 87 85  1  0
 87 88  1  0
 87 86  1  0
 89 92  1  1
 89 90  1  0
 91 89  1  0
M  ISO  4  12 100  13 100  51 101  52 101
M  END
>  <TORSDO>  (41) 
F 21

>  <SCORE>  (41) 
-15.618

>  <name>  (41) 
40

>  <ligand_id>  (41) 
40

>  <original_smiles>  (41) 
[H]C(=C1C([H])([H])C([H])(C([H])([H])C(=O)N2C([H])([H])C([H])([H])C([H])([H])C([H])(n3nc(-c4c([H])c([H])c(Oc5c([H])c([H])c(F)c([H])c5F)c([H])c4[H])c(C(=O)N([H])[H])c3N([H])[H])C2([H])[H])[N+]([H])(C([H])([H])C([H])([H])C([H])([H])Oc2c([H])c([H])c3c(c2[H])C([H])([H])N(C(=O)C([H])(N([H])C(=O)C([H])(N([H])C([H])([H])[H])C([H])([H])[H])C(C([H])([H])[H])(C([H])([H])[H])C([H])([H])[H])C([H])(C(=O)N([H])C2([H])c4c([H])c([H])c([H])c([H])c4C([H])([H])C([H])([H])C2([H])[H])C3([H])[H])C2([H])C([H])([H])C12[H])C([H])([H])C([H])([H])[H]

>  <smiles>  (41) 
[H]C(=C1C([H])([H])C([H])(C([H])([H])C(=O)N2C([H])([H])C([H])([H])C([H])([H])C([H])(n3nc(-c4c([H])c([H])c(Oc5c([H])c([H])c(F)c([H])c5F)c([H])c4[H])c(C(=O)N([H])[H])c3N([H])[H])C2([H])[H])[N+]([H])(C([H])([H])C([H])([H])C([H])([H])Oc2c([H])c([H])c3c(c2[H])C([H])([H])N(C(=O)C([H])(N([H])C(=O)C([H])(N([H])C([H])([H])[H])C([H])([H])[H])C(C([H])([H])[H])(C([H])([H])[H])C([H])([H])[H])C([H])(C(=O)N([H])C2([H])c4c([H])c([H])c([H])c([H])c4C([H])([H])C([H])([H])C2([H])[H])C3([H])[H])C2([H])C([H])([H])C12[H])C([H])([H])C([H])([H])[H]

$$$$
41:0:0
     RDKit          3D

101109  0  0  1  0  0  0  0  0999 V2000
  -30.8730  -22.0060   22.7340 C   0  0  0  0  0  2  0  0  0  0  0  0
  -33.8290  -21.6550   23.0330 C   0  0  0  0  0  2  0  0  0  0  0  0
  -33.6160  -20.7480   21.8200 C   0  0  0  0  0  2  0  0  0  0  0  0
  -32.7690  -21.1720   24.0090 C   0  0  0  0  0  2  0  0  0  0  0  0
  -32.2190  -20.1040   21.9950 C   0  0  0  0  0  3  0  0  0  0  0  0
  -31.6390  -20.8210   23.1500 N   0  0  0  0  0  0  0  0  0  0  0  0
  -31.1620  -18.1760   23.3350 C   0  0  0  0  0  1  0  0  0  0  0  0
  -32.2180  -18.5680   22.2790 C   0  0  0  0  0  3  0  0  0  0  0  0
  -32.0040  -17.7000   21.0190 C   0  0  0  0  0  0  0  0  0  0  0  0
  -32.0840  -16.3720   21.2020 N   0  0  0  0  0  0  0  0  0  0  0  0
  -31.8000  -18.2100   19.9180 O   0  0  0  0  0  0  0  0  0  0  0  0
  -32.2090  -16.0640   22.1570 H   0  0  0  0  0  0  0  0  0  0  0  0
  -30.8420  -15.3350   19.3130 C   0  0  0  0  0  1  0  0  0  0  0  0
  -32.1320  -15.3420   20.1580 C   0  0  0  0  0  3  0  0  0  0  0  0
  -32.4100  -13.9620   20.8120 C   0  0  0  0  0  2  0  0  0  0  0  0
  -32.4300  -12.7790   19.8270 C   0  0  0  0  0  0  0  0  0  0  0  0
  -31.5250  -10.6780   18.8970 C   0  0  0  0  0  2  0  0  0  0  0  0
  -30.5530  -10.9550   17.7340 C   0  0  0  0  0  2  0  0  0  0  0  0
  -29.1230  -11.1790   18.2660 C   0  0  0  0  0  2  0  0  0  0  0  0
  -29.0750  -12.1960   19.4380 C   0  0  0  0  0  3  0  0  0  0  0  0
  -30.1550  -11.8850   20.5000 C   0  0  0  0  0  2  0  0  0  0  0  0
  -31.4640  -11.8160   19.8280 N   0  0  0  0  0  0  0  0  0  0  0  0
  -33.4010  -12.7220   19.0670 O   0  0  0  0  0  0  0  0  0  0  0  0
  -27.0210  -13.3960   20.4310 C   0  0  0  0  0  0  0  0  0  0  0  0
  -25.8020  -12.9330   20.8440 C   0  0  0  0  0  0  0  0  0  0  0  0
  -25.8320  -11.5160   20.6540 C   0  0  0  0  0  0  0  0  0  0  0  0
  -27.7380  -12.2800   20.0270 N   0  0  0  0  0  0  0  0  0  0  0  0
  -27.0270  -11.1400   20.2140 N   0  0  0  0  0  0  0  0  0  0  0  0
  -24.7780  -10.5080   20.8180 C   0  0  0  0  0  0  0  0  0  0  0  0
  -24.8990   -9.4630   21.7580 C   0  0  0  0  0  3  0  0  0  0  0  0
  -23.8670   -8.5130   21.9100 C   0  0  0  0  0  3  0  0  0  0  0  0
  -22.6960   -8.6030   21.1200 C   0  0  0  0  0  0  0  0  0  0  0  0
  -22.5880   -9.6370   20.1730 C   0  0  0  0  0  3  0  0  0  0  0  0
  -23.6180  -10.5780   20.0190 C   0  0  0  0  0  3  0  0  0  0  0  0
  -21.6570   -7.7070   21.1760 O   0  0  0  0  0  0  0  0  0  0  0  0
  -21.2660   -7.1300   22.3580 C   0  0  0  0  0  0  0  0  0  0  0  0
  -20.7590   -7.8990   23.4270 C   0  0  0  0  0  3  0  0  0  0  0  0
  -20.3010   -7.2630   24.5980 C   0  0  0  0  0  3  0  0  0  0  0  0
  -20.3410   -5.8600   24.7000 C   0  0  0  0  0  0  0  0  0  0  0  0
  -20.8400   -5.0920   23.6340 C   0  0  0  0  0  3  0  0  0  0  0  0
  -21.2970   -5.7260   22.4650 C   0  0  0  0  0  0  0  0  0  0  0  0
  -21.7580   -4.9790   21.4340 F   0  0  0  0  0  0  0  0  0  0  0  0
  -19.8920   -5.2490   25.8210 F   0  0  0  0  0  0  0  0  0  0  0  0
  -24.6380  -13.7670   21.2950 C   0  0  0  0  0  0  0  0  0  0  0  0
  -23.8160  -13.2450   22.1960 N   0  0  0  0  0  0  0  0  0  0  0  0
  -24.4780  -14.9150   20.8810 O   0  0  0  0  0  0  0  0  0  0  0  0
  -23.9530  -12.3150   22.5650 H   0  0  0  0  0  0  0  0  0  0  0  0
  -23.0380  -13.7950   22.5300 H   0  0  0  0  0  0  0  0  0  0  0  0
  -27.5670  -14.6740   20.3510 N   0  0  0  0  0  0  0  0  0  0  0  0
  -27.0300  -15.4990   20.5900 H   0  0  0  0  0  0  0  0  0  0  0  0
  -28.4730  -14.8890   19.9560 H   0  0  0  0  0  0  0  0  0  0  0  0
  -30.0090  -21.6810   21.4840 C   0  0  0  0  0  3  0  0  0  0  0  0
  -28.8190  -23.7770   22.1640 C   0  0  0  0  0  1  0  0  0  0  0  0
  -29.0790  -22.7880   21.0840 N   0  0  1  0  0  4  0  0  0  0  0  0
  -28.2050  -22.3120   20.9150 H   0  0  0  0  0  0  0  0  0  0  0  0
  -29.4200  -23.4370   19.7830 C   0  0  0  0  0  2  0  0  0  0  0  0
  -28.4700  -24.6050   19.3950 C   0  0  0  0  0  2  0  0  0  0  0  0
  -28.9230  -25.3650   18.1210 C   0  0  0  0  0  2  0  0  0  0  0  0
  -27.8490  -25.9720   17.4010 O   0  0  0  0  0  0  0  0  0  0  0  0
  -25.1900  -28.7120   23.4440 C   0  0  0  0  0  0  0  0  0  0  0  0
  -26.9770  -26.8250   18.0420 C   0  0  0  0  0  0  0  0  0  0  0  0
  -23.8810  -29.1250   21.3860 C   0  0  0  0  0  3  0  0  0  0  0  0
  -25.0570  -28.5480   19.2010 C   0  0  0  0  0  0  0  0  0  0  0  0
  -26.4180  -28.8250   21.2750 C   0  0  0  0  0  2  0  0  0  0  0  0
  -26.2250  -28.2280   19.9010 C   0  0  0  0  0  0  0  0  0  0  0  0
  -27.1900  -27.3690   19.3310 C   0  0  0  0  0  3  0  0  0  0  0  0
  -25.8030  -27.1730   17.3410 C   0  0  0  0  0  3  0  0  0  0  0  0
  -24.8390  -28.0210   17.9170 C   0  0  0  0  0  3  0  0  0  0  0  0
  -24.0770  -29.4720   19.8880 C   0  0  0  0  0  2  0  0  0  0  0  0
  -25.1780  -28.8500   22.0880 N   0  0  0  0  0  0  0  0  0  0  0  0
  -24.1560  -28.8540   24.1120 O   0  0  0  0  0  0  0  0  0  0  0  0
  -22.8680  -27.9630   21.4890 C   0  0  0  0  0  0  0  0  0  0  0  0
  -21.5700  -28.2900   21.3840 N   0  0  0  0  0  0  0  0  0  0  0  0
  -23.2550  -26.8000   21.6270 O   0  0  0  0  0  0  0  0  0  0  0  0
  -21.3330  -29.2670   21.2870 H   0  0  0  0  0  0  0  0  0  0  0  0
  -17.9670  -28.0760   21.2590 C   0  0  0  0  0  0  0  0  0  0  0  0
  -20.4440  -27.3570   21.4110 C   0  0  0  0  0  3  0  0  0  0  0  0
  -20.2310  -26.6940   20.0300 C   0  0  0  0  0  2  0  0  0  0  0  0
  -19.2190  -27.4440   19.1570 C   0  0  0  0  0  2  0  0  0  0  0  0
  -17.8570  -27.5190   19.8500 C   0  0  0  0  0  2  0  0  0  0  0  0
  -19.1850  -28.0150   21.9860 C   0  0  0  0  0  0  0  0  0  0  0  0
  -19.2370  -28.5840   23.2780 C   0  0  0  0  0  3  0  0  0  0  0  0
  -18.1030  -29.1950   23.8430 C   0  0  0  0  0  3  0  0  0  0  0  0
  -16.8990  -29.2470   23.1200 C   0  0  0  0  0  3  0  0  0  0  0  0
  -16.8310  -28.6840   21.8340 C   0  0  0  0  0  3  0  0  0  0  0  0
  -26.5060  -28.3950   24.2200 C   0  0  0  0  0  3  0  0  0  0  0  0
  -26.5030  -29.1950   25.4500 N   0  0  0  0  0  0  0  0  0  0  0  0
  -27.2470  -30.2930   25.6390 C   0  0  0  0  0  0  0  0  0  0  0  0
  -28.0730  -30.6920   24.8120 O   0  0  0  0  0  0  0  0  0  0  0  0
  -25.8060  -28.9570   26.1440 H   0  0  0  0  0  0  0  0  0  0  0  0
  -26.1810  -32.3190   26.6900 C   0  0  0  0  0  1  0  0  0  0  0  0
  -27.0450  -31.0740   26.9530 C   0  0  0  0  0  3  0  0  0  0  0  0
  -29.0700  -30.3510   28.1440 C   0  0  0  0  0  1  0  0  0  0  0  0
  -28.3160  -31.4770   27.5960 N   0  0  0  0  0  0  0  0  0  0  0  0
  -28.1480  -32.1470   28.3400 H   0  0  0  0  0  0  0  0  0  0  0  0
  -26.6800  -26.8600   24.5500 C   0  0  1  0  0  0  0  0  0  0  0  0
  -25.4550  -26.2350   25.2550 C   0  0  0  0  0  1  0  0  0  0  0  0
  -26.9430  -26.0560   23.2520 C   0  0  0  0  0  1  0  0  0  0  0  0
  -27.9130  -26.6500   25.4570 C   0  0  0  0  0  1  0  0  0  0  0  0
  -28.4670  -19.8760   20.4680 C   0  0  0  0  0  1  0  0  0  0  0  0
  -29.2780  -20.3300   21.6880 C   0  0  0  0  0  2  0  0  0  0  0  0
  1  6  1  0
  2  4  1  0
  3  5  1  0
  3  2  1  0
  5  8  1  0
  5  6  1  0
  6  4  1  0
  8  7  1  0
  9 10  1  0
  9  8  1  0
 10 12  1  0
 11  9  2  0
 14 13  1  0
 14 15  1  0
 14 10  1  0
 16 22  1  0
 16 15  1  0
 17 22  1  0
 18 19  1  0
 18 17  1  0
 20 19  1  0
 20 27  1  0
 20 21  1  0
 22 21  1  0
 23 16  2  0
 24 25  2  0
 25 44  1  0
 26 29  1  0
 26 25  1  0
 27 28  1  0
 27 24  1  0
 28 26  2  0
 29 30  1  0
 30 31  2  0
 32 35  1  0
 32 31  1  0
 33 32  2  0
 34 33  1  0
 34 29  2  0
 35 36  1  0
 36 41  2  0
 36 37  1  0
 37 38  2  0
 38 39  1  0
 39 43  1  0
 40 39  2  0
 41 40  1  0
 42 41  1  0
 44 45  1  0
 45 48  1  0
 45 47  1  0
 46 44  2  0
 49 24  1  0
 49 50  1  0
 51 49  1  0
 52101  1  0
 52  1  1  0
 54 52  1  0
 54 53  1  0
 54 55  1  6
 56 54  1  0
 57 56  1  0
 58 57  1  0
 59 61  1  0
 59 58  1  0
 60 71  2  0
 61 66  1  0
 62 72  1  0
 62 70  1  0
 63 69  1  0
 63 65  1  0
 64 70  1  0
 65 64  1  0
 66 65  2  0
 67 68  1  0
 67 61  2  0
 68 63  2  0
 69 62  1  0
 70 60  1  0
 72 74  2  0
 73 72  1  0
 75 73  1  0
 76 85  2  0
 76 81  1  0
 77 73  1  0
 77 81  1  0
 78 77  1  0
 79 80  1  0
 79 78  1  0
 80 76  1  0
 81 82  2  0
 82 83  1  0
 84 83  2  0
 85 84  1  0
 86 60  1  0
 86 96  1  0
 86 87  1  0
 87 88  1  0
 87 90  1  0
 88 92  1  0
 89 88  2  0
 92 91  1  0
 92 94  1  0
 94 93  1  0
 94 95  1  0
 96 97  1  1
 96 99  1  0
 98 96  1  0
100101  1  0
M  ISO  4  15 100  16 100  58 101  59 101
M  END
>  <TORSDO>  (42) 
F 27

>  <SCORE>  (42) 
-4.451

>  <name>  (42) 
41

>  <ligand_id>  (42) 
41

>  <original_smiles>  (42) 
[H]c1c([H])c([H])c2c(c1[H])C([H])([H])C([H])([H])C([H])([H])C2([H])N([H])C(=O)C1([H])N(C(=O)C([H])(N([H])C(=O)C([H])(N([H])C([H])([H])[H])C([H])([H])[H])C(C([H])([H])[H])(C([H])([H])[H])C([H])([H])[H])C([H])([H])c2c([H])c(OC([H])([H])C([H])([H])C([H])([H])[N+]([H])(C([H])([H])[H])C([H])(C([H])([H])N3C([H])([H])C([H])([H])C([H])([H])C3([H])C([H])(C(=O)N([H])C([H])(C([H])([H])[H])C([H])([H])C(=O)N3C([H])([H])C([H])([H])C([H])([H])C([H])(n4nc(-c5c([H])c([H])c(Oc6c([H])c([H])c(F)c([H])c6F)c([H])c5[H])c(C(=O)N([H])[H])c4N([H])[H])C3([H])[H])C([H])([H])[H])C([H])([H])C([H])([H])[H])c([H])c([H])c2C1([H])[H]

>  <smiles>  (42) 
[H]c1c([H])c([H])c2c(c1[H])C([H])([H])C([H])([H])C([H])([H])C2([H])N([H])C(=O)C1([H])N(C(=O)C([H])(N([H])C(=O)C([H])(N([H])C([H])([H])[H])C([H])([H])[H])C(C([H])([H])[H])(C([H])([H])[H])C([H])([H])[H])C([H])([H])c2c([H])c(OC([H])([H])C([H])([H])C([H])([H])[N+]([H])(C([H])([H])[H])C([H])(C([H])([H])N3C([H])([H])C([H])([H])C([H])([H])C3([H])C([H])(C(=O)N([H])C([H])(C([H])([H])[H])C([H])([H])C(=O)N3C([H])([H])C([H])([H])C([H])([H])C([H])(n4nc(-c5c([H])c([H])c(Oc6c([H])c([H])c(F)c([H])c6F)c([H])c5[H])c(C(=O)N([H])[H])c4N([H])[H])C3([H])[H])C([H])([H])[H])C([H])([H])C([H])([H])[H])c([H])c([H])c2C1([H])[H]

$$$$
42:0:0
     RDKit          3D

 91 98  0  0  1  0  0  0  0  0999 V2000
  -29.4360  -19.3290   20.5670 C   0  0  0  0  0  0  0  0  0  0  0  0
  -28.4890  -19.0480   21.4770 N   0  0  0  0  0  4  0  0  0  0  0  0
  -29.5550  -20.6990   20.1700 N   0  0  0  0  0  0  0  0  0  0  0  0
  -28.3310  -18.1020   21.7940 H   0  0  0  0  0  0  0  0  0  0  0  0
  -27.9120  -19.7600   21.8990 H   0  0  0  0  0  0  0  0  0  0  0  0
  -30.2830  -20.8880   19.4920 H   0  0  0  0  0  0  0  0  0  0  0  0
  -28.6980  -21.9910   20.5040 C   0  0  0  0  0  2  0  0  0  0  0  0
  -29.1130  -23.5640   20.1070 C   0  0  0  0  0  3  0  0  0  0  0  0
  -28.1070  -24.8700   20.3980 C   0  0  0  0  0  3  0  0  0  0  0  0
  -28.3740  -26.3760   20.1500 O   0  0  0  0  0  0  0  0  0  0  0  0
  -24.7060  -31.9560   23.2420 C   0  0  0  0  0  0  0  0  0  0  0  0
  -27.2980  -27.3280   20.1340 C   0  0  0  0  0  0  0  0  0  0  0  0
  -23.5020  -30.5670   21.6000 C   0  0  0  0  0  3  0  0  0  0  0  0
  -24.9500  -29.0300   20.1400 C   0  0  0  0  0  0  0  0  0  0  0  0
  -26.0480  -30.8720   21.4050 C   0  0  0  0  0  2  0  0  0  0  0  0
  -26.1290  -29.4880   20.7420 C   0  0  0  0  0  0  0  0  0  0  0  0
  -27.3060  -28.6540   20.7220 C   0  0  0  0  0  3  0  0  0  0  0  0
  -26.0970  -26.9730   19.4820 C   0  0  0  0  0  3  0  0  0  0  0  0
  -24.9460  -27.7890   19.4900 C   0  0  0  0  0  3  0  0  0  0  0  0
  -23.7140  -29.9110   20.2100 C   0  0  0  0  0  2  0  0  0  0  0  0
  -24.7720  -31.1520   22.1380 N   0  0  0  0  0  0  0  0  0  0  0  0
  -23.6240  -32.2220   23.7860 O   0  0  0  0  0  0  0  0  0  0  0  0
  -22.8460  -29.5400   22.5580 C   0  0  0  0  0  0  0  0  0  0  0  0
  -21.5210  -29.3410   22.4300 N   0  0  0  0  0  0  0  0  0  0  0  0
  -23.5310  -28.9270   23.3790 O   0  0  0  0  0  0  0  0  0  0  0  0
  -21.0240  -29.8900   21.7430 H   0  0  0  0  0  0  0  0  0  0  0  0
  -18.1660  -28.0690   22.9210 C   0  0  0  0  0  0  0  0  0  0  0  0
  -20.7190  -28.3840   23.1970 C   0  0  0  0  0  3  0  0  0  0  0  0
  -20.8540  -26.9550   22.6200 C   0  0  0  0  0  2  0  0  0  0  0  0
  -19.7600  -26.6110   21.6040 C   0  0  0  0  0  2  0  0  0  0  0  0
  -18.3740  -26.7250   22.2450 C   0  0  0  0  0  2  0  0  0  0  0  0
  -19.2670  -28.8540   23.3560 C   0  0  0  0  0  0  0  0  0  0  0  0
  -19.0170  -30.1090   23.9510 C   0  0  0  0  0  3  0  0  0  0  0  0
  -17.7010  -30.5780   24.1200 C   0  0  0  0  0  3  0  0  0  0  0  0
  -16.6150  -29.7890   23.7020 C   0  0  0  0  0  3  0  0  0  0  0  0
  -16.8490  -28.5380   23.1060 C   0  0  0  0  0  3  0  0  0  0  0  0
  -25.9850  -32.5970   23.8620 C   0  0  0  0  0  3  0  0  0  0  0  0
  -25.6730  -33.9970   24.1910 N   0  0  0  0  0  0  0  0  0  0  0  0
  -25.9910  -35.0500   23.4260 C   0  0  0  0  0  0  0  0  0  0  0  0
  -26.6440  -34.9460   22.3830 O   0  0  0  0  0  0  0  0  0  0  0  0
  -25.0930  -34.1520   25.0020 H   0  0  0  0  0  0  0  0  0  0  0  0
  -24.2640  -36.8500   23.0840 C   0  0  0  0  0  1  0  0  0  0  0  0
  -25.5070  -36.4390   23.8900 C   0  0  0  0  0  3  0  0  0  0  0  0
  -27.6380  -37.3290   24.7240 C   0  0  0  0  0  1  0  0  0  0  0  0
  -26.5410  -37.4900   23.7750 N   0  0  0  0  0  0  0  0  0  0  0  0
  -26.1340  -38.4110   23.9160 H   0  0  0  0  0  0  0  0  0  0  0  0
  -26.5030  -31.8340   25.1430 C   0  0  1  0  0  0  0  0  0  0  0  0
  -25.4070  -31.5870   26.2060 C   0  0  0  0  0  1  0  0  0  0  0  0
  -27.1010  -30.4610   24.7590 C   0  0  0  0  0  1  0  0  0  0  0  0
  -27.6430  -32.6390   25.8090 C   0  0  0  0  0  1  0  0  0  0  0  0
  -30.2880  -18.0470   20.0200 C   0  0  0  0  0  3  0  0  0  0  0  0
  -31.2180  -17.3970   17.6780 C   0  0  0  0  0  1  0  0  0  0  0  0
  -28.7240  -17.7470   18.0180 C   0  0  0  0  0  1  0  0  0  0  0  0
  -30.1380  -18.1400   18.4790 C   0  0  0  0  0  3  0  0  0  0  0  0
  -29.9990  -16.4930   20.6030 C   0  0  0  0  0  2  0  0  0  0  0  0
  -30.7860  -15.1060   20.1590 C   0  0  0  0  0  0  0  0  0  0  0  0
  -30.6620  -12.7810   19.1580 C   0  0  0  0  0  2  0  0  0  0  0  0
  -29.6970  -12.7750   17.9490 C   0  0  0  0  0  2  0  0  0  0  0  0
  -28.2390  -12.5670   18.4010 C   0  0  0  0  0  2  0  0  0  0  0  0
  -27.8640  -13.4570   19.6140 C   0  0  0  0  0  3  0  0  0  0  0  0
  -28.9440  -13.4220   20.7160 C   0  0  0  0  0  2  0  0  0  0  0  0
  -30.2130  -13.8390   20.1050 N   0  0  0  0  0  0  0  0  0  0  0  0
  -31.9570  -15.1970   19.7710 O   0  0  0  0  0  0  0  0  0  0  0  0
  -25.4980  -14.0160   20.4180 C   0  0  0  0  0  0  0  0  0  0  0  0
  -24.4450  -13.2310   20.8010 C   0  0  0  0  0  0  0  0  0  0  0  0
  -24.9110  -11.8830   20.7330 C   0  0  0  0  0  0  0  0  0  0  0  0
  -26.5370  -13.1450   20.1360 N   0  0  0  0  0  0  0  0  0  0  0  0
  -26.1940  -11.8560   20.3880 N   0  0  0  0  0  0  0  0  0  0  0  0
  -24.1940  -10.6160   20.9180 C   0  0  0  0  0  0  0  0  0  0  0  0
  -24.6160   -9.6580   21.8670 C   0  0  0  0  0  3  0  0  0  0  0  0
  -23.8960   -8.4560   22.0390 C   0  0  0  0  0  3  0  0  0  0  0  0
  -22.7410   -8.2020   21.2630 C   0  0  0  0  0  0  0  0  0  0  0  0
  -22.3370   -9.1490   20.3040 C   0  0  0  0  0  3  0  0  0  0  0  0
  -23.0580  -10.3430   20.1290 C   0  0  0  0  0  3  0  0  0  0  0  0
  -21.9960   -7.0500   21.3430 O   0  0  0  0  0  0  0  0  0  0  0  0
  -21.8890   -6.3420   22.5130 C   0  0  0  0  0  0  0  0  0  0  0  0
  -21.3280   -6.9090   23.6790 C   0  0  0  0  0  3  0  0  0  0  0  0
  -21.1750   -6.1240   24.8400 C   0  0  0  0  0  3  0  0  0  0  0  0
  -21.5710   -4.7730   24.8340 C   0  0  0  0  0  0  0  0  0  0  0  0
  -22.1230   -4.2050   23.6720 C   0  0  0  0  0  3  0  0  0  0  0  0
  -22.2780   -4.9870   22.5150 C   0  0  0  0  0  0  0  0  0  0  0  0
  -22.7910   -4.4290   21.3920 F   0  0  0  0  0  0  0  0  0  0  0  0
  -21.4160   -4.0170   25.9470 F   0  0  0  0  0  0  0  0  0  0  0  0
  -23.0520  -13.6990   21.1130 C   0  0  0  0  0  0  0  0  0  0  0  0
  -22.3500  -12.9940   21.9940 N   0  0  0  0  0  0  0  0  0  0  0  0
  -22.5950  -14.7230   20.6100 O   0  0  0  0  0  0  0  0  0  0  0  0
  -22.7280  -12.1620   22.4230 H   0  0  0  0  0  0  0  0  0  0  0  0
  -21.4180  -13.2910   22.2430 H   0  0  0  0  0  0  0  0  0  0  0  0
  -25.6530  -15.3890   20.2610 N   0  0  0  0  0  0  0  0  0  0  0  0
  -24.8820  -16.0370   20.3930 H   0  0  0  0  0  0  0  0  0  0  0  0
  -26.4820  -15.8330   19.8910 H   0  0  0  0  0  0  0  0  0  0  0  0
  1  2  2  0
  2  4  1  0
  2  5  1  0
  3  7  1  0
  3  1  1  0
  6  3  1  0
  8  9  2  0
  8  7  1  0
 10  9  1  0
 11 22  2  0
 12 10  1  0
 12 17  1  0
 13 21  1  0
 13 23  1  0
 14 20  1  0
 14 16  1  0
 15 21  1  0
 16 15  1  0
 17 16  2  0
 18 19  1  0
 18 12  2  0
 19 14  2  0
 20 13  1  0
 21 11  1  0
 23 25  2  0
 24 23  1  0
 26 24  1  0
 27 36  2  0
 27 32  1  0
 28 24  1  0
 28 32  1  0
 29 28  1  0
 30 31  1  0
 30 29  1  0
 31 27  1  0
 32 33  2  0
 33 34  1  0
 35 34  2  0
 36 35  1  0
 37 11  1  0
 37 38  1  0
 37 47  1  0
 38 41  1  0
 39 43  1  0
 39 38  1  0
 40 39  2  0
 43 42  1  0
 45 43  1  0
 45 46  1  0
 45 44  1  0
 47 50  1  1
 47 48  1  0
 49 47  1  0
 51  1  1  0
 51 55  1  0
 52 54  1  0
 53 54  1  0
 54 51  1  0
 56 55  1  0
 57 62  1  0
 58 59  1  0
 58 57  1  0
 60 59  1  0
 60 67  1  0
 60 61  1  0
 62 56  1  0
 62 61  1  0
 63 56  2  0
 64 65  2  0
 65 84  1  0
 66 65  1  0
 66 69  1  0
 67 68  1  0
 67 64  1  0
 68 66  2  0
 69 70  1  0
 70 71  2  0
 72 75  1  0
 72 71  1  0
 73 72  2  0
 74 73  1  0
 74 69  2  0
 75 76  1  0
 76 81  2  0
 76 77  1  0
 77 78  2  0
 79 78  1  0
 79 83  1  0
 80 79  2  0
 81 80  1  0
 82 81  1  0
 84 85  1  0
 85 88  1  0
 85 87  1  0
 86 84  2  0
 89 90  1  0
 89 64  1  0
 91 89  1  0
M  ISO  4   9 101  10 101  55 100  56 100
M  END
>  <TORSDO>  (43) 
F 22

>  <SCORE>  (43) 
-12.173

>  <name>  (43) 
42

>  <ligand_id>  (43) 
42

>  <original_smiles>  (43) 
[H]c1c([H])c([H])c2c(c1[H])C([H])([H])C([H])([H])C([H])([H])C2([H])N([H])C(=O)C1([H])N(C(=O)C([H])(N([H])C(=O)C([H])(N([H])C([H])([H])[H])C([H])([H])[H])C(C([H])([H])[H])(C([H])([H])[H])C([H])([H])[H])C([H])([H])c2c([H])c(OC([H])([H])C([H])([H])C([H])([H])[N+]([H])=C(N([H])[H])C([H])(C([H])([H])C(=O)N3C([H])([H])C([H])([H])C([H])([H])C([H])(n4nc(-c5c([H])c([H])c(Oc6c([H])c([H])c(F)c([H])c6F)c([H])c5[H])c(C(=O)N([H])[H])c4N([H])[H])C3([H])[H])C([H])(C([H])([H])[H])C([H])([H])[H])c([H])c([H])c2C1([H])[H]

>  <smiles>  (43) 
[H]c1c([H])c([H])c2c(c1[H])C([H])([H])C([H])([H])C([H])([H])C2([H])N([H])C(=O)C1([H])N(C(=O)C([H])(N([H])C(=O)C([H])(N([H])C([H])([H])[H])C([H])([H])[H])C(C([H])([H])[H])(C([H])([H])[H])C([H])([H])[H])C([H])([H])c2c([H])c(OC([H])([H])C([H])([H])C([H])([H])[N+]([H])=C(N([H])[H])C([H])(C([H])([H])C(=O)N3C([H])([H])C([H])([H])C([H])([H])C([H])(n4nc(-c5c([H])c([H])c(Oc6c([H])c([H])c(F)c([H])c6F)c([H])c5[H])c(C(=O)N([H])[H])c4N([H])[H])C3([H])[H])C([H])(C([H])([H])[H])C([H])([H])[H])c([H])c([H])c2C1([H])[H]

$$$$
43:0:0
     RDKit          3D

 95103  0  0  1  0  0  0  0  0999 V2000
  -30.4700  -20.7450   20.8520 N   0  0  0  0  0  4  0  0  0  0  0  0
  -31.0370  -21.1420   20.1200 H   0  0  0  0  0  0  0  0  0  0  0  0
  -29.6240  -20.4110   20.4200 H   0  0  0  0  0  0  0  0  0  0  0  0
  -30.1660  -21.8480   21.7810 C   0  0  0  0  0  2  0  0  0  0  0  0
  -30.5250  -23.1860   21.1180 C   0  0  0  0  0  2  0  0  0  0  0  0
  -29.9710  -24.4060   21.8530 C   0  0  0  0  0  2  0  0  0  0  0  0
  -30.6320  -25.7110   21.3760 C   0  0  0  0  0  2  0  0  0  0  0  0
  -29.6640  -26.8950   21.3990 C   0  0  0  0  0  2  0  0  0  0  0  0
  -28.7430  -26.6990   20.3310 O   0  0  0  0  0  0  0  0  0  0  0  0
  -24.8550  -31.8490   23.3540 C   0  0  0  0  0  0  0  0  0  0  0  0
  -27.5940  -27.4510   20.3480 C   0  0  0  0  0  0  0  0  0  0  0  0
  -23.6770  -30.4180   21.7090 C   0  0  0  0  0  3  0  0  0  0  0  0
  -25.1650  -28.8860   20.3140 C   0  0  0  0  0  0  0  0  0  0  0  0
  -26.1910  -30.8210   21.5270 C   0  0  0  0  0  2  0  0  0  0  0  0
  -26.3010  -29.4450   20.9110 C   0  0  0  0  0  0  0  0  0  0  0  0
  -27.5160  -28.7360   20.9320 C   0  0  0  0  0  3  0  0  0  0  0  0
  -26.4490  -26.9010   19.7380 C   0  0  0  0  0  3  0  0  0  0  0  0
  -25.2310  -27.6100   19.7250 C   0  0  0  0  0  3  0  0  0  0  0  0
  -23.9060  -29.7220   20.3390 C   0  0  0  0  0  2  0  0  0  0  0  0
  -24.9260  -31.0440   22.2560 N   0  0  0  0  0  0  0  0  0  0  0  0
  -23.7680  -32.1140   23.8830 O   0  0  0  0  0  0  0  0  0  0  0  0
  -23.0310  -29.3990   22.6740 C   0  0  0  0  0  0  0  0  0  0  0  0
  -21.7230  -29.1580   22.4940 N   0  0  0  0  0  0  0  0  0  0  0  0
  -23.7030  -28.8270   23.5350 O   0  0  0  0  0  0  0  0  0  0  0  0
  -21.2450  -29.6770   21.7700 H   0  0  0  0  0  0  0  0  0  0  0  0
  -18.3840  -27.8290   22.8510 C   0  0  0  0  0  0  0  0  0  0  0  0
  -20.9080  -28.2120   23.2520 C   0  0  0  0  0  3  0  0  0  0  0  0
  -21.1060  -26.7680   22.7340 C   0  0  0  0  0  2  0  0  0  0  0  0
  -20.0790  -26.3610   21.6740 C   0  0  0  0  0  2  0  0  0  0  0  0
  -18.6570  -26.4660   22.2370 C   0  0  0  0  0  2  0  0  0  0  0  0
  -19.4430  -28.6560   23.3110 C   0  0  0  0  0  0  0  0  0  0  0  0
  -19.1380  -29.9290   23.8400 C   0  0  0  0  0  3  0  0  0  0  0  0
  -17.8060  -30.3770   23.9160 C   0  0  0  0  0  3  0  0  0  0  0  0
  -16.7610  -29.5490   23.4720 C   0  0  0  0  0  3  0  0  0  0  0  0
  -17.0500  -28.2760   22.9480 C   0  0  0  0  0  3  0  0  0  0  0  0
  -26.1330  -32.4930   23.9800 C   0  0  0  0  0  3  0  0  0  0  0  0
  -25.8020  -33.8830   24.3250 N   0  0  0  0  0  0  0  0  0  0  0  0
  -26.1400  -34.9480   23.5860 C   0  0  0  0  0  0  0  0  0  0  0  0
  -26.8350  -34.8660   22.5680 O   0  0  0  0  0  0  0  0  0  0  0  0
  -25.1890  -34.0200   25.1150 H   0  0  0  0  0  0  0  0  0  0  0  0
  -24.4030  -36.7240   23.2050 C   0  0  0  0  0  1  0  0  0  0  0  0
  -25.6250  -36.3240   24.0470 C   0  0  0  0  0  3  0  0  0  0  0  0
  -27.7220  -37.2220   24.9570 C   0  0  0  0  0  1  0  0  0  0  0  0
  -26.6490  -37.3900   23.9790 N   0  0  0  0  0  0  0  0  0  0  0  0
  -26.2280  -38.3030   24.1260 H   0  0  0  0  0  0  0  0  0  0  0  0
  -26.6670  -31.7150   25.2450 C   0  0  1  0  0  0  0  0  0  0  0  0
  -25.5680  -31.3850   26.2800 C   0  0  0  0  0  1  0  0  0  0  0  0
  -27.3310  -30.3840   24.8210 C   0  0  0  0  0  1  0  0  0  0  0  0
  -27.7580  -32.5500   25.9540 C   0  0  0  0  0  1  0  0  0  0  0  0
  -31.2440  -19.6100   21.3950 C   0  0  0  0  0  3  0  0  0  0  0  0
  -33.1320  -19.4130   19.6240 C   0  0  0  0  0  2  0  0  0  0  0  0
  -33.0620  -18.0170   20.1990 C   0  0  0  0  0  3  0  0  0  0  0  0
  -31.8290  -18.8910   20.1910 C   0  0  0  0  0  3  0  0  0  0  0  0
  -33.1580  -16.8420   19.2480 C   0  0  0  0  0  2  0  0  0  0  0  0
  -32.1590  -15.7070   19.5740 C   0  0  0  0  0  2  0  0  0  0  0  0
  -32.4110  -14.4180   18.7700 C   0  0  0  0  0  0  0  0  0  0  0  0
  -31.8830  -12.0550   18.2890 C   0  0  0  0  0  2  0  0  0  0  0  0
  -30.8230  -11.9010   17.1830 C   0  0  0  0  0  2  0  0  0  0  0  0
  -29.4070  -11.9660   17.7810 C   0  0  0  0  0  2  0  0  0  0  0  0
  -29.2120  -13.1890   18.7140 C   0  0  0  0  0  3  0  0  0  0  0  0
  -30.3700  -13.3060   19.7300 C   0  0  0  0  0  2  0  0  0  0  0  0
  -31.6420  -13.3230   18.9910 N   0  0  0  0  0  0  0  0  0  0  0  0
  -33.3300  -14.4090   17.9450 O   0  0  0  0  0  0  0  0  0  0  0  0
  -27.0480  -14.1810   19.6960 C   0  0  0  0  0  0  0  0  0  0  0  0
  -25.9410  -13.5940   20.2460 C   0  0  0  0  0  0  0  0  0  0  0  0
  -26.1900  -12.1870   20.2260 C   0  0  0  0  0  0  0  0  0  0  0  0
  -27.9120  -13.1440   19.3800 N   0  0  0  0  0  0  0  0  0  0  0  0
  -27.4050  -11.9410   19.7530 N   0  0  0  0  0  0  0  0  0  0  0  0
  -25.3190  -11.0570   20.5750 C   0  0  0  0  0  0  0  0  0  0  0  0
  -25.5710  -10.2560   21.7100 C   0  0  0  0  0  3  0  0  0  0  0  0
  -24.7100   -9.1860   22.0370 C   0  0  0  0  0  3  0  0  0  0  0  0
  -23.5830   -8.9100   21.2280 C   0  0  0  0  0  0  0  0  0  0  0  0
  -23.3500   -9.6960   20.0860 C   0  0  0  0  0  3  0  0  0  0  0  0
  -24.2100  -10.7570   19.7580 C   0  0  0  0  0  3  0  0  0  0  0  0
  -22.7060   -7.8750   21.4530 O   0  0  0  0  0  0  0  0  0  0  0  0
  -22.2660   -7.5680   22.7150 C   0  0  0  0  0  0  0  0  0  0  0  0
  -21.5640   -8.5030   23.5080 C   0  0  0  0  0  3  0  0  0  0  0  0
  -21.0670   -8.1230   24.7700 C   0  0  0  0  0  3  0  0  0  0  0  0
  -21.2610   -6.8090   25.2390 C   0  0  0  0  0  0  0  0  0  0  0  0
  -21.9550   -5.8760   24.4490 C   0  0  0  0  0  3  0  0  0  0  0  0
  -22.4530   -6.2530   23.1900 C   0  0  0  0  0  0  0  0  0  0  0  0
  -23.1020   -5.3430   22.4230 F   0  0  0  0  0  0  0  0  0  0  0  0
  -20.7770   -6.4430   26.4490 F   0  0  0  0  0  0  0  0  0  0  0  0
  -24.6800  -14.2870   20.6780 C   0  0  0  0  0  0  0  0  0  0  0  0
  -24.0060  -13.7540   21.6910 N   0  0  0  0  0  0  0  0  0  0  0  0
  -24.3100  -15.3340   20.1490 O   0  0  0  0  0  0  0  0  0  0  0  0
  -24.3220  -12.9060   22.1370 H   0  0  0  0  0  0  0  0  0  0  0  0
  -23.1640  -14.1990   22.0260 H   0  0  0  0  0  0  0  0  0  0  0  0
  -27.3850  -15.5010   19.4150 N   0  0  0  0  0  0  0  0  0  0  0  0
  -26.7500  -16.2730   19.5810 H   0  0  0  0  0  0  0  0  0  0  0  0
  -28.2370  -15.7820   18.9460 H   0  0  0  0  0  0  0  0  0  0  0  0
  -30.3570  -18.7080   22.2930 C   0  0  0  0  0  2  0  0  0  0  0  0
  -29.9900  -16.6060   23.6580 C   0  0  0  0  0  1  0  0  0  0  0  0
  -32.3340  -17.4450   23.3620 C   0  0  0  0  0  1  0  0  0  0  0  0
  -30.9460  -17.3370   22.7040 C   0  0  0  0  0  3  0  0  0  0  0  0
  1 50  1  0
  1  4  1  0
  2  1  1  0
  3  1  1  0
  5  4  1  0
  5  6  1  0
  7  8  1  0
  7  6  1  0
  9 11  1  0
  9  8  1  0
 10 21  2  0
 11 16  1  0
 12 20  1  0
 12 22  1  0
 13 19  1  0
 13 15  1  0
 14 20  1  0
 15 16  2  0
 15 14  1  0
 17 11  2  0
 18 17  1  0
 18 13  2  0
 19 12  1  0
 20 10  1  0
 22 24  2  0
 23 22  1  0
 25 23  1  0
 26 35  2  0
 26 31  1  0
 27 23  1  0
 27 31  1  0
 28 27  1  0
 29 30  1  0
 29 28  1  0
 30 26  1  0
 31 32  2  0
 32 33  1  0
 34 33  2  0
 35 34  1  0
 36 10  1  0
 36 37  1  0
 36 46  1  0
 37 40  1  0
 38 42  1  0
 38 37  1  0
 39 38  2  0
 42 41  1  0
 44 42  1  0
 44 45  1  0
 44 43  1  0
 46 49  1  1
 46 47  1  0
 48 46  1  0
 50 92  1  0
 51 53  1  0
 51 52  1  0
 52 54  1  0
 53 52  1  0
 53 50  1  0
 54 55  1  0
 56 62  1  0
 56 55  1  0
 57 62  1  0
 58 59  1  0
 58 57  1  0
 60 59  1  0
 60 67  1  0
 60 61  1  0
 62 61  1  0
 63 56  2  0
 64 65  2  0
 65 84  1  0
 66 65  1  0
 66 69  1  0
 67 64  1  0
 67 68  1  0
 68 66  2  0
 69 70  1  0
 70 71  2  0
 72 75  1  0
 72 71  1  0
 73 72  2  0
 74 73  1  0
 74 69  2  0
 75 76  1  0
 76 81  2  0
 76 77  1  0
 77 78  2  0
 78 79  1  0
 79 83  1  0
 80 79  2  0
 81 80  1  0
 82 81  1  0
 84 85  1  0
 85 88  1  0
 85 87  1  0
 86 84  2  0
 89 90  1  0
 89 64  1  0
 91 89  1  0
 92 95  1  0
 95 94  1  0
 95 93  1  0
M  ISO  4   8 101   9 101  55 100  56 100
M  END
>  <TORSDO>  (44) 
F 27

>  <SCORE>  (44) 
-2.165

>  <name>  (44) 
43

>  <ligand_id>  (44) 
43

>  <original_smiles>  (44) 
[H]c1c([H])c([H])c2c(c1[H])C([H])([H])C([H])([H])C([H])([H])C2([H])N([H])C(=O)C1([H])N(C(=O)C([H])(N([H])C(=O)C([H])(N([H])C([H])([H])[H])C([H])([H])[H])C(C([H])([H])[H])(C([H])([H])[H])C([H])([H])[H])C([H])([H])c2c([H])c(OC([H])([H])C([H])([H])C([H])([H])C([H])([H])C([H])([H])[N+]([H])([H])C([H])(C([H])([H])C([H])(C([H])([H])[H])C([H])([H])[H])C3([H])C([H])([H])C3([H])C([H])([H])C([H])([H])C(=O)N3C([H])([H])C([H])([H])C([H])([H])C([H])(n4nc(-c5c([H])c([H])c(Oc6c([H])c([H])c(F)c([H])c6F)c([H])c5[H])c(C(=O)N([H])[H])c4N([H])[H])C3([H])[H])c([H])c([H])c2C1([H])[H]

>  <smiles>  (44) 
[H]c1c([H])c([H])c2c(c1[H])C([H])([H])C([H])([H])C([H])([H])C2([H])N([H])C(=O)C1([H])N(C(=O)C([H])(N([H])C(=O)C([H])(N([H])C([H])([H])[H])C([H])([H])[H])C(C([H])([H])[H])(C([H])([H])[H])C([H])([H])[H])C([H])([H])c2c([H])c(OC([H])([H])C([H])([H])C([H])([H])C([H])([H])C([H])([H])[N+]([H])([H])C([H])(C([H])([H])C([H])(C([H])([H])[H])C([H])([H])[H])C3([H])C([H])([H])C3([H])C([H])([H])C([H])([H])C(=O)N3C([H])([H])C([H])([H])C([H])([H])C([H])(n4nc(-c5c([H])c([H])c(Oc6c([H])c([H])c(F)c([H])c6F)c([H])c5[H])c(C(=O)N([H])[H])c4N([H])[H])C3([H])[H])c([H])c([H])c2C1([H])[H]

$$$$
44:0:0
     RDKit          3D

 94103  0  0  1  0  0  0  0  0999 V2000
  -28.5270  -19.9900   18.0930 C   0  0  0  0  0  2  0  0  0  0  0  0
  -30.0760  -20.8080   19.7500 C   0  0  0  0  0  2  0  0  0  0  0  0
  -27.2510  -21.7610   19.5580 C   0  0  0  0  0  2  0  0  0  0  0  0
  -28.1510  -21.4190   18.3670 C   0  0  0  0  0  3  0  0  0  0  0  0
  -29.2860  -21.9990   19.1630 C   0  0  0  0  0  3  0  0  0  0  0  0
  -29.2510  -19.6600   19.3300 N   0  0  0  0  0  0  0  0  0  0  0  0
  -28.3010  -22.6510   20.0520 N   0  0  1  0  0  4  0  0  0  0  0  0
  -28.5060  -22.4850   21.0250 H   0  0  0  0  0  0  0  0  0  0  0  0
  -28.0000  -24.0840   19.7960 C   0  0  0  0  0  2  0  0  0  0  0  0
  -29.1950  -24.9230   19.2910 C   0  0  0  0  0  2  0  0  0  0  0  0
  -28.8700  -26.4280   19.1830 C   0  0  0  0  0  2  0  0  0  0  0  0
  -27.4410  -26.7280   18.6860 C   0  0  0  0  0  2  0  0  0  0  0  0
  -27.1630  -28.0940   18.9800 O   0  0  0  0  0  0  0  0  0  0  0  0
  -28.1720  -32.1980   24.6950 C   0  0  0  0  0  0  0  0  0  0  0  0
  -26.7560  -28.4080   20.2560 C   0  0  0  0  0  0  0  0  0  0  0  0
  -26.4980  -30.3970   24.9580 C   0  0  0  0  0  3  0  0  0  0  0  0
  -25.8360  -29.1810   22.8130 C   0  0  0  0  0  0  0  0  0  0  0  0
  -26.9780  -31.4010   22.6580 C   0  0  0  0  0  2  0  0  0  0  0  0
  -26.6330  -30.0520   22.0630 C   0  0  0  0  0  0  0  0  0  0  0  0
  -27.0860  -29.6730   20.7830 C   0  0  0  0  0  3  0  0  0  0  0  0
  -25.9630  -27.5320   21.0270 C   0  0  0  0  0  3  0  0  0  0  0  0
  -25.5000  -27.9110   22.3020 C   0  0  0  0  0  3  0  0  0  0  0  0
  -25.3740  -29.6740   24.1660 C   0  0  0  0  0  2  0  0  0  0  0  0
  -27.2770  -31.3550   24.1080 N   0  0  0  0  0  0  0  0  0  0  0  0
  -28.3240  -32.2150   25.9240 O   0  0  0  0  0  0  0  0  0  0  0  0
  -27.3770  -29.3240   25.6370 C   0  0  0  0  0  0  0  0  0  0  0  0
  -26.9280  -28.8420   26.8060 N   0  0  0  0  0  0  0  0  0  0  0  0
  -28.4130  -28.9220   25.1040 O   0  0  0  0  0  0  0  0  0  0  0  0
  -26.0800  -29.2430   27.1850 H   0  0  0  0  0  0  0  0  0  0  0  0
  -26.7910  -27.0900   29.9610 C   0  0  0  0  0  0  0  0  0  0  0  0
  -27.5680  -27.7960   27.6000 C   0  0  0  0  0  3  0  0  0  0  0  0
  -27.1020  -26.3980   27.1350 C   0  0  0  0  0  2  0  0  0  0  0  0
  -25.9180  -25.8430   27.9380 C   0  0  0  0  0  2  0  0  0  0  0  0
  -26.2540  -25.7730   29.4290 C   0  0  0  0  0  2  0  0  0  0  0  0
  -27.3980  -28.0440   29.1020 C   0  0  0  0  0  0  0  0  0  0  0  0
  -27.8570  -29.2610   29.6480 C   0  0  0  0  0  3  0  0  0  0  0  0
  -27.7230  -29.5340   31.0240 C   0  0  0  0  0  3  0  0  0  0  0  0
  -27.1220  -28.5840   31.8680 C   0  0  0  0  0  3  0  0  0  0  0  0
  -26.6610  -27.3660   31.3380 C   0  0  0  0  0  3  0  0  0  0  0  0
  -29.0310  -33.1930   23.8560 C   0  0  0  0  0  3  0  0  0  0  0  0
  -28.7400  -34.5470   24.3430 N   0  0  0  0  0  0  0  0  0  0  0  0
  -27.8700  -35.3890   23.7700 C   0  0  0  0  0  0  0  0  0  0  0  0
  -27.2770  -35.1270   22.7190 O   0  0  0  0  0  0  0  0  0  0  0  0
  -29.1450  -34.8100   25.2300 H   0  0  0  0  0  0  0  0  0  0  0  0
  -26.3370  -36.6490   25.3170 C   0  0  0  0  0  1  0  0  0  0  0  0
  -27.6190  -36.7380   24.4750 C   0  0  0  0  0  3  0  0  0  0  0  0
  -28.7900  -38.2120   22.8990 C   0  0  0  0  0  1  0  0  0  0  0  0
  -27.5200  -37.8800   23.5410 N   0  0  0  0  0  0  0  0  0  0  0  0
  -27.1840  -38.7090   24.0220 H   0  0  0  0  0  0  0  0  0  0  0  0
  -30.5800  -32.8940   23.9270 C   0  0  1  0  0  0  0  0  0  0  0  0
  -31.1210  -32.7420   25.3690 C   0  0  0  0  0  1  0  0  0  0  0  0
  -30.9140  -31.5930   23.1620 C   0  0  0  0  0  1  0  0  0  0  0  0
  -31.3690  -34.0360   23.2430 C   0  0  0  0  0  1  0  0  0  0  0  0
  -29.7040  -18.2670   19.3770 C   0  0  0  0  0  3  0  0  0  0  0  0
  -27.7790  -16.7410   18.5420 C   0  0  0  0  0  1  0  0  0  0  0  0
  -28.4910  -17.3710   19.7480 C   0  0  0  0  0  2  0  0  0  0  0  0
  -32.1210  -17.3940   20.2060 C   0  0  0  0  0  0  0  0  0  0  0  0
  -30.9060  -17.9520   20.2860 C   0  0  0  0  0  3  0  0  0  0  0  0
  -33.4430  -16.9860   20.6920 C   0  0  0  0  0  0  0  0  0  0  0  0
  -35.7650  -17.5520   20.0370 C   0  0  0  0  0  2  0  0  0  0  0  0
  -35.9120  -19.0900   20.0410 C   0  0  0  0  0  2  0  0  0  0  0  0
  -35.4310  -19.7150   18.7120 C   0  0  0  0  0  2  0  0  0  0  0  0
  -34.0420  -19.1820   18.2690 C   0  0  0  0  0  3  0  0  0  0  0  0
  -34.0460  -17.6390   18.3280 C   0  0  0  0  0  2  0  0  0  0  0  0
  -34.3660  -17.2380   19.7180 N   0  0  0  0  0  0  0  0  0  0  0  0
  -33.7600  -16.6460   21.8430 O   0  0  0  0  0  0  0  0  0  0  0  0
  -32.5210  -20.3550   16.5470 C   0  0  0  0  0  0  0  0  0  0  0  0
  -32.7000  -20.6460   15.2200 C   0  0  0  0  0  0  0  0  0  0  0  0
  -33.9840  -20.1330   14.8780 C   0  0  0  0  0  0  0  0  0  0  0  0
  -33.6650  -19.6780   16.9460 N   0  0  0  0  0  0  0  0  0  0  0  0
  -34.5270  -19.5070   15.9130 N   0  0  0  0  0  0  0  0  0  0  0  0
  -34.7550  -20.2450   13.6330 C   0  0  0  0  0  0  0  0  0  0  0  0
  -34.9770  -19.1280   12.8010 C   0  0  0  0  0  3  0  0  0  0  0  0
  -35.7160  -19.2600   11.6050 C   0  0  0  0  0  3  0  0  0  0  0  0
  -36.2310  -20.5230   11.2260 C   0  0  0  0  0  0  0  0  0  0  0  0
  -36.0300  -21.6270   12.0730 C   0  0  0  0  0  3  0  0  0  0  0  0
  -35.2980  -21.4920   13.2650 C   0  0  0  0  0  3  0  0  0  0  0  0
  -36.9800  -20.7400   10.0940 O   0  0  0  0  0  0  0  0  0  0  0  0
  -36.6150  -20.2190    8.8790 C   0  0  0  0  0  0  0  0  0  0  0  0
  -35.3930  -20.5570    8.2570 C   0  0  0  0  0  3  0  0  0  0  0  0
  -35.0880  -20.0530    6.9790 C   0  0  0  0  0  3  0  0  0  0  0  0
  -36.0060  -19.2180    6.3140 C   0  0  0  0  0  0  0  0  0  0  0  0
  -37.2270  -18.8860    6.9260 C   0  0  0  0  0  3  0  0  0  0  0  0
  -37.5300  -19.3840    8.2050 C   0  0  0  0  0  0  0  0  0  0  0  0
  -38.7170  -19.0750    8.7830 F   0  0  0  0  0  0  0  0  0  0  0  0
  -35.7180  -18.7400    5.0810 F   0  0  0  0  0  0  0  0  0  0  0  0
  -31.7760  -21.4460   14.3490 C   0  0  0  0  0  0  0  0  0  0  0  0
  -31.7550  -21.1530   13.0540 N   0  0  0  0  0  0  0  0  0  0  0  0
  -31.0350  -22.3070   14.8190 O   0  0  0  0  0  0  0  0  0  0  0  0
  -32.3520  -20.4340   12.6720 H   0  0  0  0  0  0  0  0  0  0  0  0
  -31.1370  -21.6610   12.4380 H   0  0  0  0  0  0  0  0  0  0  0  0
  -31.4990  -20.6310   17.4460 N   0  0  0  0  0  0  0  0  0  0  0  0
  -30.7310  -21.2450   17.1990 H   0  0  0  0  0  0  0  0  0  0  0  0
  -31.5760  -20.4660   18.4400 H   0  0  0  0  0  0  0  0  0  0  0  0
  1  6  1  0
  3  7  1  0
  4  1  1  0
  4  5  1  0
  4  3  1  0
  5  2  1  0
  5  7  1  0
  6 54  1  0
  6  2  1  0
  7  8  1  1
  9  7  1  0
 10  9  1  0
 11 10  1  0
 12 13  1  0
 12 11  1  0
 13 15  1  0
 14 25  2  0
 15 20  2  0
 15 21  1  0
 16 26  1  0
 17 23  1  0
 18 24  1  0
 19 18  1  0
 19 17  2  0
 20 19  1  0
 21 22  2  0
 22 17  1  0
 23 16  1  0
 24 14  1  0
 24 16  1  0
 26 27  1  0
 27 29  1  0
 28 26  2  0
 30 39  1  0
 31 27  1  0
 31 35  1  0
 32 31  1  0
 32 33  1  0
 33 34  1  0
 34 30  1  0
 35 36  1  0
 35 30  2  0
 36 37  2  0
 37 38  1  0
 39 38  2  0
 40 50  1  0
 40 41  1  0
 40 14  1  0
 41 44  1  0
 42 41  1  0
 42 46  1  0
 43 42  2  0
 46 45  1  0
 47 48  1  0
 48 49  1  0
 48 46  1  0
 50 51  1  1
 52 50  1  0
 53 50  1  0
 54 56  1  0
 54 58  1  0
 55 56  1  0
 57 58  2  0
 57 59  2  0
 59 66  2  0
 60 61  1  0
 62 61  1  0
 63 70  1  0
 63 64  1  0
 63 62  1  0
 64 65  1  0
 65 60  1  0
 65 59  1  0
 67 70  1  0
 67 92  1  0
 68 67  2  0
 69 68  1  0
 69 71  2  0
 71 70  1  0
 72 69  1  0
 73 72  2  0
 74 73  1  0
 75 74  2  0
 75 76  1  0
 76 77  2  0
 77 72  1  0
 78 75  1  0
 79 78  1  0
 80 79  1  0
 81 80  2  0
 82 83  2  0
 82 81  1  0
 83 84  1  0
 84 85  1  0
 84 79  2  0
 86 82  1  0
 87 89  2  0
 87 68  1  0
 88 87  1  0
 90 88  1  0
 91 88  1  0
 92 94  1  0
 93 92  1  0
M  ISO  4  12 101  13 101  57 100  59 100
M  END
>  <TORSDO>  (45) 
F 23

>  <SCORE>  (45) 
1.582

>  <name>  (45) 
44

>  <ligand_id>  (45) 
44

>  <original_smiles>  (45) 
[H]C(C(=O)N1C([H])([H])C([H])([H])C([H])([H])C([H])(n2nc(-c3c([H])c([H])c(Oc4c([H])c([H])c(F)c([H])c4F)c([H])c3[H])c(C(=O)N([H])[H])c2N([H])[H])C1([H])[H])=C([H])C([H])(N1C([H])([H])C2([H])C([H])([H])[N+]([H])(C([H])([H])C([H])([H])C([H])([H])C([H])([H])Oc3c([H])c([H])c4c(c3[H])C([H])([H])N(C(=O)C([H])(N([H])C(=O)C([H])(N([H])C([H])([H])[H])C([H])([H])[H])C(C([H])([H])[H])(C([H])([H])[H])C([H])([H])[H])C([H])(C(=O)N([H])C3([H])c5c([H])c([H])c([H])c([H])c5C([H])([H])C([H])([H])C3([H])[H])C4([H])[H])C2([H])C1([H])[H])C([H])([H])C([H])([H])[H]

>  <smiles>  (45) 
[H]C(C(=O)N1C([H])([H])C([H])([H])C([H])([H])C([H])(n2nc(-c3c([H])c([H])c(Oc4c([H])c([H])c(F)c([H])c4F)c([H])c3[H])c(C(=O)N([H])[H])c2N([H])[H])C1([H])[H])=C([H])C([H])(N1C([H])([H])C2([H])C([H])([H])[N+]([H])(C([H])([H])C([H])([H])C([H])([H])C([H])([H])Oc3c([H])c([H])c4c(c3[H])C([H])([H])N(C(=O)C([H])(N([H])C(=O)C([H])(N([H])C([H])([H])[H])C([H])([H])[H])C(C([H])([H])[H])(C([H])([H])[H])C([H])([H])[H])C([H])(C(=O)N([H])C3([H])c5c([H])c([H])c([H])c([H])c5C([H])([H])C([H])([H])C3([H])[H])C4([H])[H])C2([H])C1([H])[H])C([H])([H])C([H])([H])[H]

$$$$
45:0:0
     RDKit          3D

 94103  0  0  1  0  0  0  0  0999 V2000
  -29.8290  -24.2800   16.3230 C   0  0  0  0  0  2  0  0  0  0  0  0
  -29.8730  -22.0580   17.8870 C   0  0  0  0  0  2  0  0  0  0  0  0
  -30.4050  -24.7830   18.8900 C   0  0  0  0  0  2  0  0  0  0  0  0
  -30.4980  -23.0750   16.9420 C   0  0  0  0  0  3  0  0  0  0  0  0
  -30.8190  -24.4390   17.4710 C   0  0  0  0  0  3  0  0  0  0  0  0
  -29.0610  -22.5300   19.1480 C   0  0  0  0  0  3  0  0  0  0  0  0
  -29.0450  -24.1660   19.2840 C   0  0  0  0  0  3  0  0  0  0  0  0
  -29.1920  -21.4380   20.3550 C   0  0  0  0  0  2  0  0  0  0  0  0
  -30.1460  -20.1030   20.2710 C   0  0  0  0  0  3  0  0  0  0  0  0
  -29.5800  -18.7570   20.7470 N   0  0  0  0  0  4  0  0  0  0  0  0
  -29.4530  -18.8030   21.7460 H   0  0  0  0  0  0  0  0  0  0  0  0
  -28.6620  -18.6600   20.3420 H   0  0  0  0  0  0  0  0  0  0  0  0
  -30.3600  -17.4710   20.4090 C   0  0  0  0  0  3  0  0  0  0  0  0
  -29.8140  -16.0430   20.9100 C   0  0  0  0  0  3  0  0  0  0  0  0
  -30.5980  -14.7250   20.4600 C   0  0  0  0  0  0  0  0  0  0  0  0
  -30.3910  -12.4840   19.3760 C   0  0  0  0  0  2  0  0  0  0  0  0
  -29.4590  -12.6200   18.1500 C   0  0  0  0  0  2  0  0  0  0  0  0
  -27.9830  -12.4560   18.5640 C   0  0  0  0  0  2  0  0  0  0  0  0
  -27.6140  -13.3160   19.8010 C   0  0  0  0  0  3  0  0  0  0  0  0
  -28.6620  -13.1700   20.9260 C   0  0  0  0  0  2  0  0  0  0  0  0
  -29.9770  -13.5030   20.3660 N   0  0  0  0  0  0  0  0  0  0  0  0
  -31.7620  -14.8480   20.0680 O   0  0  0  0  0  0  0  0  0  0  0  0
  -25.2170  -13.9220   20.4920 C   0  0  0  0  0  0  0  0  0  0  0  0
  -24.1450  -13.1520   20.8560 C   0  0  0  0  0  0  0  0  0  0  0  0
  -24.6070  -11.8010   20.8430 C   0  0  0  0  0  0  0  0  0  0  0  0
  -26.2610  -13.0380   20.2750 N   0  0  0  0  0  0  0  0  0  0  0  0
  -25.9000  -11.7580   20.5490 N   0  0  0  0  0  0  0  0  0  0  0  0
  -23.8760  -10.5410   21.0350 C   0  0  0  0  0  0  0  0  0  0  0  0
  -24.3030   -9.5770   21.9750 C   0  0  0  0  0  3  0  0  0  0  0  0
  -23.5740   -8.3810   22.1550 C   0  0  0  0  0  3  0  0  0  0  0  0
  -22.4050   -8.1420   21.3930 C   0  0  0  0  0  0  0  0  0  0  0  0
  -22.0000   -9.0940   20.4420 C   0  0  0  0  0  3  0  0  0  0  0  0
  -22.7280  -10.2810   20.2620 C   0  0  0  0  0  3  0  0  0  0  0  0
  -21.6490   -6.9970   21.4820 O   0  0  0  0  0  0  0  0  0  0  0  0
  -21.5990   -6.2550   22.6340 C   0  0  0  0  0  0  0  0  0  0  0  0
  -21.1790   -6.8120   23.8620 C   0  0  0  0  0  3  0  0  0  0  0  0
  -21.0770   -5.9960   25.0060 C   0  0  0  0  0  3  0  0  0  0  0  0
  -21.3830   -4.6240   24.9240 C   0  0  0  0  0  0  0  0  0  0  0  0
  -21.7960   -4.0670   23.7010 C   0  0  0  0  0  3  0  0  0  0  0  0
  -21.9010   -4.8800   22.5590 C   0  0  0  0  0  0  0  0  0  0  0  0
  -22.2800   -4.3350   21.3780 F   0  0  0  0  0  0  0  0  0  0  0  0
  -21.2770   -3.8390   26.0210 F   0  0  0  0  0  0  0  0  0  0  0  0
  -22.7440  -13.6330   21.1060 C   0  0  0  0  0  0  0  0  0  0  0  0
  -22.0060  -12.9450   21.9690 N   0  0  0  0  0  0  0  0  0  0  0  0
  -22.3140  -14.6540   20.5720 O   0  0  0  0  0  0  0  0  0  0  0  0
  -22.3670  -12.1180   22.4230 H   0  0  0  0  0  0  0  0  0  0  0  0
  -21.0660  -13.2470   22.1800 H   0  0  0  0  0  0  0  0  0  0  0  0
  -25.3850  -15.2910   20.3050 N   0  0  0  0  0  0  0  0  0  0  0  0
  -24.6170  -15.9460   20.3960 H   0  0  0  0  0  0  0  0  0  0  0  0
  -26.2340  -15.7200   19.9610 H   0  0  0  0  0  0  0  0  0  0  0  0
  -32.2690  -21.6290   20.5680 C   0  0  0  0  0  1  0  0  0  0  0  0
  -31.4870  -20.3850   21.0120 C   0  0  0  0  0  2  0  0  0  0  0  0
  -28.3320  -25.0580   20.3930 C   0  0  0  0  0  2  0  0  0  0  0  0
  -28.3970  -26.5340   20.1650 O   0  0  0  0  0  0  0  0  0  0  0  0
  -24.6580  -31.8970   23.2360 C   0  0  0  0  0  0  0  0  0  0  0  0
  -27.2500  -27.3420   20.1600 C   0  0  0  0  0  0  0  0  0  0  0  0
  -23.4390  -30.4980   21.6040 C   0  0  0  0  0  3  0  0  0  0  0  0
  -24.8780  -28.9440   20.1670 C   0  0  0  0  0  0  0  0  0  0  0  0
  -25.9730  -30.8230   21.3940 C   0  0  0  0  0  2  0  0  0  0  0  0
  -26.0500  -29.4410   20.7500 C   0  0  0  0  0  0  0  0  0  0  0  0
  -27.2390  -28.6540   20.7310 C   0  0  0  0  0  3  0  0  0  0  0  0
  -26.0580  -26.8930   19.5550 C   0  0  0  0  0  3  0  0  0  0  0  0
  -24.8850  -27.6760   19.5600 C   0  0  0  0  0  3  0  0  0  0  0  0
  -23.6410  -29.8180   20.2240 C   0  0  0  0  0  2  0  0  0  0  0  0
  -24.7100  -31.0900   22.1350 N   0  0  0  0  0  0  0  0  0  0  0  0
  -23.5790  -32.1730   23.7820 O   0  0  0  0  0  0  0  0  0  0  0  0
  -22.7860  -29.4830   22.5710 C   0  0  0  0  0  0  0  0  0  0  0  0
  -21.4630  -29.2910   22.4430 N   0  0  0  0  0  0  0  0  0  0  0  0
  -23.4700  -28.8700   23.3960 O   0  0  0  0  0  0  0  0  0  0  0  0
  -20.9710  -29.8360   21.7490 H   0  0  0  0  0  0  0  0  0  0  0  0
  -18.1040  -28.0340   22.9150 C   0  0  0  0  0  0  0  0  0  0  0  0
  -20.6520  -28.3490   23.2170 C   0  0  0  0  0  3  0  0  0  0  0  0
  -20.7920  -26.9110   22.6650 C   0  0  0  0  0  2  0  0  0  0  0  0
  -19.7120  -26.5500   21.6420 C   0  0  0  0  0  2  0  0  0  0  0  0
  -18.3180  -26.6770   22.2630 C   0  0  0  0  0  2  0  0  0  0  0  0
  -19.2010  -28.8250   23.3480 C   0  0  0  0  0  0  0  0  0  0  0  0
  -18.9480  -30.0920   23.9180 C   0  0  0  0  0  3  0  0  0  0  0  0
  -17.6310  -30.5690   24.0560 C   0  0  0  0  0  3  0  0  0  0  0  0
  -16.5490  -29.7760   23.6390 C   0  0  0  0  0  3  0  0  0  0  0  0
  -16.7850  -28.5100   23.0740 C   0  0  0  0  0  3  0  0  0  0  0  0
  -25.9460  -32.5290   23.8480 C   0  0  0  0  0  3  0  0  0  0  0  0
  -25.6410  -33.9290   24.1800 N   0  0  0  0  0  0  0  0  0  0  0  0
  -25.9750  -34.9820   23.4220 C   0  0  0  0  0  0  0  0  0  0  0  0
  -26.6410  -34.8770   22.3880 O   0  0  0  0  0  0  0  0  0  0  0  0
  -25.0490  -34.0840   24.9830 H   0  0  0  0  0  0  0  0  0  0  0  0
  -24.2550  -36.7820   23.0710 C   0  0  0  0  0  1  0  0  0  0  0  0
  -25.4940  -36.3710   23.8830 C   0  0  0  0  0  3  0  0  0  0  0  0
  -27.6310  -37.2430   24.7170 C   0  0  0  0  0  1  0  0  0  0  0  0
  -26.5320  -37.4190   23.7730 N   0  0  0  0  0  0  0  0  0  0  0  0
  -26.1300  -38.3410   23.9220 H   0  0  0  0  0  0  0  0  0  0  0  0
  -26.4710  -31.7590   25.1230 C   0  0  1  0  0  0  0  0  0  0  0  0
  -25.3850  -31.5270   26.2000 C   0  0  0  0  0  1  0  0  0  0  0  0
  -27.0460  -30.3780   24.7280 C   0  0  0  0  0  1  0  0  0  0  0  0
  -27.6300  -32.5500   25.7730 C   0  0  0  0  0  1  0  0  0  0  0  0
  2  6  1  0
  3  7  1  0
  4  1  1  0
  4  5  1  0
  4  2  1  0
  5  1  1  0
  5  3  1  0
  6  7  1  0
  6  8  1  0
  7 53  1  0
  9  8  1  0
  9 10  1  0
  9 52  1  0
 10 11  1  0
 12 10  1  0
 13 10  1  0
 13 14  2  0
 15 14  1  0
 16 21  1  0
 17 18  1  0
 17 16  1  0
 19 18  1  0
 19 26  1  0
 19 20  1  0
 21 15  1  0
 21 20  1  0
 22 15  2  0
 23 24  2  0
 24 43  1  0
 25 24  1  0
 25 28  1  0
 26 23  1  0
 26 27  1  0
 27 25  2  0
 28 29  1  0
 29 30  2  0
 31 34  1  0
 31 30  1  0
 32 31  2  0
 33 32  1  0
 33 28  2  0
 34 35  1  0
 35 36  1  0
 36 37  2  0
 38 37  1  0
 38 42  1  0
 39 38  2  0
 40 35  2  0
 40 39  1  0
 41 40  1  0
 43 44  1  0
 44 47  1  0
 44 46  1  0
 45 43  2  0
 48 49  1  0
 48 23  1  0
 50 48  1  0
 51 52  1  0
 54 53  1  0
 55 66  2  0
 56 54  1  0
 56 61  1  0
 57 65  1  0
 57 67  1  0
 58 64  1  0
 58 60  1  0
 59 65  1  0
 60 59  1  0
 61 60  2  0
 62 63  1  0
 62 56  2  0
 63 58  2  0
 64 57  1  0
 65 55  1  0
 67 69  2  0
 68 67  1  0
 70 68  1  0
 71 80  2  0
 71 76  1  0
 72 68  1  0
 72 76  1  0
 73 72  1  0
 74 75  1  0
 74 73  1  0
 75 71  1  0
 76 77  2  0
 77 78  1  0
 79 78  2  0
 80 79  1  0
 81 55  1  0
 81 82  1  0
 81 91  1  0
 82 85  1  0
 83 87  1  0
 83 82  1  0
 84 83  2  0
 87 86  1  0
 89 87  1  0
 89 90  1  0
 89 88  1  0
 91 94  1  1
 91 92  1  0
 93 91  1  0
M  ISO  4  14 100  15 100  53 101  54 101
M  END
>  <TORSDO>  (46) 
F 23

>  <SCORE>  (46) 
-12.876

>  <name>  (46) 
45

>  <ligand_id>  (46) 
45

>  <original_smiles>  (46) 
[H]c1c([H])c([H])c2c(c1[H])C([H])([H])C([H])([H])C([H])([H])C2([H])N([H])C(=O)C1([H])N(C(=O)C([H])(N([H])C(=O)C([H])(N([H])C([H])([H])[H])C([H])([H])[H])C(C([H])([H])[H])(C([H])([H])[H])C([H])([H])[H])C([H])([H])c2c([H])c(OC([H])([H])C3([H])C([H])([H])C4([H])C([H])([H])C4([H])C([H])([H])C3([H])C([H])([H])C([H])(C([H])([H])C([H])([H])[H])[N+]([H])([H])C([H])([H])C([H])([H])C(=O)N3C([H])([H])C([H])([H])C([H])([H])C([H])(n4nc(-c5c([H])c([H])c(Oc6c([H])c([H])c(F)c([H])c6F)c([H])c5[H])c(C(=O)N([H])[H])c4N([H])[H])C3([H])[H])c([H])c([H])c2C1([H])[H]

>  <smiles>  (46) 
[H]c1c([H])c([H])c2c(c1[H])C([H])([H])C([H])([H])C([H])([H])C2([H])N([H])C(=O)C1([H])N(C(=O)C([H])(N([H])C(=O)C([H])(N([H])C([H])([H])[H])C([H])([H])[H])C(C([H])([H])[H])(C([H])([H])[H])C([H])([H])[H])C([H])([H])c2c([H])c(OC([H])([H])C3([H])C([H])([H])C4([H])C([H])([H])C4([H])C([H])([H])C3([H])C([H])([H])C([H])(C([H])([H])C([H])([H])[H])[N+]([H])([H])C([H])([H])C([H])([H])C(=O)N3C([H])([H])C([H])([H])C([H])([H])C([H])(n4nc(-c5c([H])c([H])c(Oc6c([H])c([H])c(F)c([H])c6F)c([H])c5[H])c(C(=O)N([H])[H])c4N([H])[H])C3([H])[H])c([H])c([H])c2C1([H])[H]

$$$$
46:0:0
     RDKit          3D

 95103  0  0  1  0  0  0  0  0999 V2000
  -31.2350  -21.7100   21.4530 C   0  0  0  0  0  3  0  0  0  0  0  0
  -31.9990  -21.1530   22.6860 C   0  0  0  0  0  2  0  0  0  0  0  0
  -35.6630  -20.3870   23.3920 C   0  0  0  0  0  2  0  0  0  0  0  0
  -35.3260  -19.3660   22.3020 C   0  0  0  0  0  2  0  0  0  0  0  0
  -34.3030  -20.9280   23.8170 C   0  0  0  0  0  2  0  0  0  0  0  0
  -34.0330  -19.8690   21.6430 C   0  0  0  0  0  2  0  0  0  0  0  0
  -33.5340  -21.0530   22.4960 C   0  0  0  0  0  3  0  0  0  0  0  0
  -30.0550  -22.6010   21.9120 C   0  0  0  0  0  2  0  0  0  0  0  0
  -29.3270  -23.3620   20.7760 C   0  0  0  0  0  2  0  0  0  0  0  0
  -28.6370  -24.6870   21.2430 C   0  0  0  0  0  2  0  0  0  0  0  0
  -29.0570  -26.1490   20.8840 C   0  0  0  0  0  2  0  0  0  0  0  0
  -28.4510  -26.6230   19.6770 O   0  0  0  0  0  0  0  0  0  0  0  0
  -24.7600  -31.3660   23.4990 C   0  0  0  0  0  0  0  0  0  0  0  0
  -27.2750  -27.3010   19.8650 C   0  0  0  0  0  0  0  0  0  0  0  0
  -23.4670  -30.0690   21.8320 C   0  0  0  0  0  3  0  0  0  0  0  0
  -24.8510  -28.7000   20.1840 C   0  0  0  0  0  0  0  0  0  0  0  0
  -25.9590  -30.5290   21.4840 C   0  0  0  0  0  2  0  0  0  0  0  0
  -26.0320  -29.2170   20.7300 C   0  0  0  0  0  0  0  0  0  0  0  0
  -27.2510  -28.5230   20.5730 C   0  0  0  0  0  3  0  0  0  0  0  0
  -26.0840  -26.7900   19.3150 C   0  0  0  0  0  3  0  0  0  0  0  0
  -24.8690  -27.4820   19.4780 C   0  0  0  0  0  3  0  0  0  0  0  0
  -23.5910  -29.5110   20.3880 C   0  0  0  0  0  2  0  0  0  0  0  0
  -24.7500  -30.6640   22.3310 N   0  0  0  0  0  0  0  0  0  0  0  0
  -23.7150  -31.5620   24.1350 O   0  0  0  0  0  0  0  0  0  0  0  0
  -22.9150  -28.9520   22.7470 C   0  0  0  0  0  0  0  0  0  0  0  0
  -21.6690  -28.5290   22.4870 N   0  0  0  0  0  0  0  0  0  0  0  0
  -23.6090  -28.4680   23.6450 O   0  0  0  0  0  0  0  0  0  0  0  0
  -21.1640  -28.9820   21.7370 H   0  0  0  0  0  0  0  0  0  0  0  0
  -18.6590  -26.5330   22.4590 C   0  0  0  0  0  0  0  0  0  0  0  0
  -20.9560  -27.4630   23.1890 C   0  0  0  0  0  3  0  0  0  0  0  0
  -21.5250  -26.0760   22.8140 C   0  0  0  0  0  2  0  0  0  0  0  0
  -20.7790  -25.4130   21.6510 C   0  0  0  0  0  2  0  0  0  0  0  0
  -19.2980  -25.2350   21.9940 C   0  0  0  0  0  2  0  0  0  0  0  0
  -19.4390  -27.5850   23.0040 C   0  0  0  0  0  0  0  0  0  0  0  0
  -18.8010  -28.7850   23.3880 C   0  0  0  0  0  3  0  0  0  0  0  0
  -17.4100  -28.9390   23.2390 C   0  0  0  0  0  3  0  0  0  0  0  0
  -16.6390  -27.8870   22.7130 C   0  0  0  0  0  3  0  0  0  0  0  0
  -17.2630  -26.6870   22.3270 C   0  0  0  0  0  3  0  0  0  0  0  0
  -26.0740  -31.9790   24.0760 C   0  0  0  0  0  3  0  0  0  0  0  0
  -25.7740  -33.3540   24.4970 N   0  0  0  0  0  0  0  0  0  0  0  0
  -26.1250  -34.4510   23.8100 C   0  0  0  0  0  0  0  0  0  0  0  0
  -26.8060  -34.4080   22.7820 O   0  0  0  0  0  0  0  0  0  0  0  0
  -25.1720  -33.4610   25.2990 H   0  0  0  0  0  0  0  0  0  0  0  0
  -24.4300  -36.2870   23.5370 C   0  0  0  0  0  1  0  0  0  0  0  0
  -25.6430  -35.8100   24.3510 C   0  0  0  0  0  3  0  0  0  0  0  0
  -27.7510  -36.6150   25.3180 C   0  0  0  0  0  1  0  0  0  0  0  0
  -26.6910  -36.8530   24.3410 N   0  0  0  0  0  0  0  0  0  0  0  0
  -26.2910  -37.7680   24.5250 H   0  0  0  0  0  0  0  0  0  0  0  0
  -26.6730  -31.1490   25.2760 C   0  0  1  0  0  0  0  0  0  0  0  0
  -25.6500  -30.8460   26.3960 C   0  0  0  0  0  1  0  0  0  0  0  0
  -27.2420  -29.8010   24.7740 C   0  0  0  0  0  1  0  0  0  0  0  0
  -27.8600  -31.9180   25.9040 C   0  0  0  0  0  1  0  0  0  0  0  0
  -30.8180  -20.5900   20.4600 C   0  0  0  0  0  2  0  0  0  0  0  0
  -31.9540  -19.5720   20.1950 C   0  0  0  0  0  2  0  0  0  0  0  0
  -31.6430  -19.0050   17.7980 C   0  0  0  0  0  1  0  0  0  0  0  0
  -31.6710  -18.5020   19.1960 N   0  0  1  0  0  4  0  0  0  0  0  0
  -30.7440  -18.1460   19.3760 H   0  0  0  0  0  0  0  0  0  0  0  0
  -32.6240  -17.3620   19.3580 C   0  0  0  0  0  2  0  0  0  0  0  0
  -31.9690  -16.0490   19.8740 C   0  0  0  0  0  2  0  0  0  0  0  0
  -32.5070  -14.7410   19.2530 C   0  0  0  0  0  0  0  0  0  0  0  0
  -32.2060  -12.3320   18.7710 C   0  0  0  0  0  2  0  0  0  0  0  0
  -31.2220  -12.1270   17.6030 C   0  0  0  0  0  2  0  0  0  0  0  0
  -29.7670  -12.1060   18.1100 C   0  0  0  0  0  2  0  0  0  0  0  0
  -29.4460  -13.3000   19.0460 C   0  0  0  0  0  3  0  0  0  0  0  0
  -30.5350  -13.4520   20.1330 C   0  0  0  0  0  2  0  0  0  0  0  0
  -31.8390  -13.5760   19.4620 N   0  0  0  0  0  0  0  0  0  0  0  0
  -33.5240  -14.7900   18.5530 O   0  0  0  0  0  0  0  0  0  0  0  0
  -27.1640  -14.1600   19.8770 C   0  0  0  0  0  0  0  0  0  0  0  0
  -26.0620  -13.5080   20.3640 C   0  0  0  0  0  0  0  0  0  0  0  0
  -26.4010  -12.1200   20.3780 C   0  0  0  0  0  0  0  0  0  0  0  0
  -28.1110  -13.1780   19.6290 N   0  0  0  0  0  0  0  0  0  0  0  0
  -27.6570  -11.9480   19.9840 N   0  0  0  0  0  0  0  0  0  0  0  0
  -25.5850  -10.9400   20.6880 C   0  0  0  0  0  0  0  0  0  0  0  0
  -25.7190  -10.2510   21.9140 C   0  0  0  0  0  3  0  0  0  0  0  0
  -24.9100   -9.1300   22.1970 C   0  0  0  0  0  3  0  0  0  0  0  0
  -23.9520   -8.6890   21.2530 C   0  0  0  0  0  0  0  0  0  0  0  0
  -23.8380   -9.3650   20.0250 C   0  0  0  0  0  3  0  0  0  0  0  0
  -24.6480  -10.4770   19.7430 C   0  0  0  0  0  3  0  0  0  0  0  0
  -23.1400   -7.5950   21.4310 O   0  0  0  0  0  0  0  0  0  0  0  0
  -22.4150   -7.4180   22.5820 C   0  0  0  0  0  0  0  0  0  0  0  0
  -21.4010   -8.3220   22.9710 C   0  0  0  0  0  3  0  0  0  0  0  0
  -20.6330   -8.0630   24.1250 C   0  0  0  0  0  3  0  0  0  0  0  0
  -20.8690   -6.9010   24.8830 C   0  0  0  0  0  0  0  0  0  0  0  0
  -21.8750   -5.9990   24.4940 C   0  0  0  0  0  3  0  0  0  0  0  0
  -22.6440   -6.2560   23.3450 C   0  0  0  0  0  0  0  0  0  0  0  0
  -23.5970   -5.3710   22.9630 F   0  0  0  0  0  0  0  0  0  0  0  0
  -20.1270   -6.6490   25.9870 F   0  0  0  0  0  0  0  0  0  0  0  0
  -24.7350  -14.1220   20.7020 C   0  0  0  0  0  0  0  0  0  0  0  0
  -24.0270  -13.5560   21.6750 N   0  0  0  0  0  0  0  0  0  0  0  0
  -24.3400  -15.1420   20.1390 O   0  0  0  0  0  0  0  0  0  0  0  0
  -24.3600  -12.7310   22.1510 H   0  0  0  0  0  0  0  0  0  0  0  0
  -23.1390  -13.9530   21.9430 H   0  0  0  0  0  0  0  0  0  0  0  0
  -27.4350  -15.4990   19.6100 N   0  0  0  0  0  0  0  0  0  0  0  0
  -26.7370  -16.2250   19.7280 H   0  0  0  0  0  0  0  0  0  0  0  0
  -28.2920  -15.8370   19.1890 H   0  0  0  0  0  0  0  0  0  0  0  0
  1 53  1  0
  1  8  1  0
  1  2  1  0
  3  5  1  0
  4  3  1  0
  6  4  1  0
  6  7  1  0
  7  2  1  0
  7  5  1  0
  9 10  1  0
  9  8  1  0
 11 10  1  0
 12 14  1  0
 12 11  1  0
 13 24  2  0
 14 19  1  0
 15 23  1  0
 15 25  1  0
 16 22  1  0
 16 18  1  0
 17 23  1  0
 18 17  1  0
 19 18  2  0
 20 21  1  0
 20 14  2  0
 21 16  2  0
 22 15  1  0
 23 13  1  0
 25 27  2  0
 26 25  1  0
 28 26  1  0
 29 34  1  0
 30 26  1  0
 31 30  1  0
 32 33  1  0
 32 31  1  0
 33 29  1  0
 34 30  1  0
 34 35  2  0
 36 35  1  0
 37 36  2  0
 38 29  2  0
 38 37  1  0
 39 13  1  0
 39 40  1  0
 39 49  1  0
 40 43  1  0
 41 45  1  0
 41 40  1  0
 42 41  2  0
 45 44  1  0
 47 45  1  0
 47 48  1  0
 47 46  1  0
 49 52  1  1
 49 50  1  0
 51 49  1  0
 54 53  1  0
 55 56  1  0
 56 58  1  0
 56 57  1  1
 56 54  1  0
 58 59  1  0
 60 66  1  0
 60 59  1  0
 61 66  1  0
 62 63  1  0
 62 61  1  0
 64 63  1  0
 64 71  1  0
 64 65  1  0
 66 65  1  0
 67 60  2  0
 68 69  2  0
 69 70  1  0
 69 88  1  0
 70 73  1  0
 71 68  1  0
 71 72  1  0
 72 70  2  0
 73 74  1  0
 74 75  2  0
 76 79  1  0
 76 75  1  0
 77 76  2  0
 78 77  1  0
 78 73  2  0
 79 80  1  0
 80 81  2  0
 80 85  1  0
 81 82  1  0
 82 83  2  0
 83 87  1  0
 84 83  1  0
 85 84  2  0
 86 85  1  0
 88 89  1  0
 89 92  1  0
 89 91  1  0
 90 88  2  0
 93 94  1  0
 93 68  1  0
 95 93  1  0
M  ISO  4  11 101  12 101  59 100  60 100
M  END
>  <TORSDO>  (47) 
F 27

>  <SCORE>  (47) 
-6.807

>  <name>  (47) 
46

>  <ligand_id>  (47) 
46

>  <original_smiles>  (47) 
[H]c1c([H])c([H])c2c(c1[H])C([H])([H])C([H])([H])C([H])([H])C2([H])N([H])C(=O)C1([H])N(C(=O)C([H])(N([H])C(=O)C([H])(N([H])C([H])([H])[H])C([H])([H])[H])C(C([H])([H])[H])(C([H])([H])[H])C([H])([H])[H])C([H])([H])c2c([H])c(OC([H])([H])C([H])([H])C([H])([H])C([H])([H])C([H])(C([H])([H])C3([H])C([H])([H])C([H])([H])C([H])([H])C3([H])[H])C([H])([H])C([H])([H])[N+]([H])(C([H])([H])[H])C([H])([H])C([H])([H])C(=O)N3C([H])([H])C([H])([H])C([H])([H])C([H])(n4nc(-c5c([H])c([H])c(Oc6c([H])c([H])c(F)c([H])c6F)c([H])c5[H])c(C(=O)N([H])[H])c4N([H])[H])C3([H])[H])c([H])c([H])c2C1([H])[H]

>  <smiles>  (47) 
[H]c1c([H])c([H])c2c(c1[H])C([H])([H])C([H])([H])C([H])([H])C2([H])N([H])C(=O)C1([H])N(C(=O)C([H])(N([H])C(=O)C([H])(N([H])C([H])([H])[H])C([H])([H])[H])C(C([H])([H])[H])(C([H])([H])[H])C([H])([H])[H])C([H])([H])c2c([H])c(OC([H])([H])C([H])([H])C([H])([H])C([H])([H])C([H])(C([H])([H])C3([H])C([H])([H])C([H])([H])C([H])([H])C3([H])[H])C([H])([H])C([H])([H])[N+]([H])(C([H])([H])[H])C([H])([H])C([H])([H])C(=O)N3C([H])([H])C([H])([H])C([H])([H])C([H])(n4nc(-c5c([H])c([H])c(Oc6c([H])c([H])c(F)c([H])c6F)c([H])c5[H])c(C(=O)N([H])[H])c4N([H])[H])C3([H])[H])c([H])c([H])c2C1([H])[H]

$$$$
47:0:0
     RDKit          3D

100111  0  0  1  0  0  0  0  0999 V2000
  -33.6950  -21.6080   19.9040 C   0  0  0  0  0  3  0  0  0  0  0  0
  -32.9580  -20.9870   18.8700 C   0  0  0  0  0  3  0  0  0  0  0  0
  -33.4270  -21.3020   21.2560 C   0  0  0  0  0  3  0  0  0  0  0  0
  -31.9430  -20.0570   19.1800 C   0  0  0  0  0  3  0  0  0  0  0  0
  -32.4140  -20.3690   21.5430 C   0  0  0  0  0  0  0  0  0  0  0  0
  -31.6820  -19.7580   20.5330 C   0  0  0  0  0  0  0  0  0  0  0  0
  -31.9810  -19.8980   22.9000 C   0  0  0  0  0  2  0  0  0  0  0  0
  -32.1430  -16.9680   21.4070 C   0  0  0  0  0  2  0  0  0  0  0  0
  -31.7010  -17.3920   22.7930 C   0  0  0  0  0  2  0  0  0  0  0  0
  -30.9310  -17.3280   20.5180 C   0  0  0  0  0  3  0  0  0  0  0  0
  -30.6060  -18.8150   21.0620 C   0  0  1  0  0  0  0  0  0  0  0  0
  -30.9590  -18.7430   22.6170 C   0  0  2  0  0  0  0  0  0  0  0  0
  -30.1130  -18.7940   25.0820 C   0  0  0  0  0  1  0  0  0  0  0  0
  -29.7400  -18.7360   23.5880 C   0  0  0  0  0  2  0  0  0  0  0  0
  -29.2430  -19.5630   20.6750 C   0  0  0  0  0  2  0  0  0  0  0  0
  -29.3150  -21.8900   21.9240 C   0  0  0  0  0  3  0  0  0  0  0  0
  -28.7680  -21.9300   19.5900 C   0  0  0  0  0  3  0  0  0  0  0  0
  -29.0850  -23.2860   22.0050 C   0  0  0  0  0  3  0  0  0  0  0  0
  -28.5310  -23.3410   19.6690 C   0  0  0  0  0  3  0  0  0  0  0  0
  -29.1400  -21.1500   20.7260 C   0  0  0  0  0  0  0  0  0  0  0  0
  -28.6610  -24.0520   20.8920 C   0  0  0  0  0  0  0  0  0  0  0  0
  -28.1130  -25.4950   21.1560 C   0  0  0  0  0  2  0  0  0  0  0  0
  -28.4290  -26.6540   20.3080 O   0  0  0  0  0  0  0  0  0  0  0  0
  -24.6370  -31.9770   23.3270 C   0  0  0  0  0  0  0  0  0  0  0  0
  -27.3510  -27.5360   20.2310 C   0  0  0  0  0  0  0  0  0  0  0  0
  -23.4720  -30.5730   21.6640 C   0  0  0  0  0  3  0  0  0  0  0  0
  -24.9610  -29.0810   20.2200 C   0  0  0  0  0  0  0  0  0  0  0  0
  -26.0020  -30.9520   21.4980 C   0  0  0  0  0  2  0  0  0  0  0  0
  -26.1140  -29.5880   20.8330 C   0  0  0  0  0  0  0  0  0  0  0  0
  -27.3170  -28.8240   20.8370 C   0  0  0  0  0  3  0  0  0  0  0  0
  -26.1850  -27.0790   19.5790 C   0  0  0  0  0  3  0  0  0  0  0  0
  -24.9970  -27.8300   19.5820 C   0  0  0  0  0  3  0  0  0  0  0  0
  -23.7020  -29.9190   20.2770 C   0  0  0  0  0  2  0  0  0  0  0  0
  -24.7220  -31.1860   22.2180 N   0  0  0  0  0  0  0  0  0  0  0  0
  -23.5460  -32.2250   23.8610 O   0  0  0  0  0  0  0  0  0  0  0  0
  -22.8280  -29.5320   22.6090 C   0  0  0  0  0  0  0  0  0  0  0  0
  -21.5090  -29.3170   22.4610 N   0  0  0  0  0  0  0  0  0  0  0  0
  -23.5130  -28.9220   23.4340 O   0  0  0  0  0  0  0  0  0  0  0  0
  -21.0170  -29.8580   21.7640 H   0  0  0  0  0  0  0  0  0  0  0  0
  -18.1610  -28.0260   22.9050 C   0  0  0  0  0  0  0  0  0  0  0  0
  -20.7070  -28.3560   23.2170 C   0  0  0  0  0  3  0  0  0  0  0  0
  -20.8590  -26.9310   22.6370 C   0  0  0  0  0  2  0  0  0  0  0  0
  -19.7830  -26.5810   21.6050 C   0  0  0  0  0  2  0  0  0  0  0  0
  -18.3870  -26.6840   22.2250 C   0  0  0  0  0  2  0  0  0  0  0  0
  -19.2510  -28.8180   23.3540 C   0  0  0  0  0  0  0  0  0  0  0  0
  -18.9850  -30.0700   23.9460 C   0  0  0  0  0  3  0  0  0  0  0  0
  -17.6640  -30.5340   24.0940 C   0  0  0  0  0  3  0  0  0  0  0  0
  -16.5890  -29.7390   23.6600 C   0  0  0  0  0  3  0  0  0  0  0  0
  -16.8390  -28.4870   23.0710 C   0  0  0  0  0  3  0  0  0  0  0  0
  -25.9050  -32.6260   23.9640 C   0  0  0  0  0  3  0  0  0  0  0  0
  -25.5850  -34.0310   24.2520 N   0  0  0  0  0  0  0  0  0  0  0  0
  -25.9350  -35.0650   23.4770 C   0  0  0  0  0  0  0  0  0  0  0  0
  -26.6290  -34.9380   22.4640 O   0  0  0  0  0  0  0  0  0  0  0  0
  -24.9720  -34.2050   25.0340 H   0  0  0  0  0  0  0  0  0  0  0  0
  -24.2110  -36.8460   23.0460 C   0  0  0  0  0  1  0  0  0  0  0  0
  -25.4360  -36.4630   23.8920 C   0  0  0  0  0  3  0  0  0  0  0  0
  -27.5510  -37.3740   24.7430 C   0  0  0  0  0  1  0  0  0  0  0  0
  -26.4690  -37.5160   23.7730 N   0  0  0  0  0  0  0  0  0  0  0  0
  -26.0570  -38.4390   23.8900 H   0  0  0  0  0  0  0  0  0  0  0  0
  -26.3930  -31.8880   25.2700 C   0  0  1  0  0  0  0  0  0  0  0  0
  -25.2750  -31.6600   26.3160 C   0  0  0  0  0  1  0  0  0  0  0  0
  -26.9980  -30.5070   24.9240 C   0  0  0  0  0  1  0  0  0  0  0  0
  -27.5200  -32.7090   25.9420 C   0  0  0  0  0  1  0  0  0  0  0  0
  -29.9180  -16.0830   20.5300 C   0  0  0  0  0  2  0  0  0  0  0  0
  -30.5030  -14.7440   19.9060 C   0  0  0  0  0  0  0  0  0  0  0  0
  -30.1640  -12.4980   18.8980 C   0  0  0  0  0  2  0  0  0  0  0  0
  -29.1540  -12.6200   17.7380 C   0  0  0  0  0  2  0  0  0  0  0  0
  -27.7190  -12.4450   18.2680 C   0  0  0  0  0  2  0  0  0  0  0  0
  -27.4330  -13.3330   19.5110 C   0  0  0  0  0  3  0  0  0  0  0  0
  -28.5650  -13.2430   20.5580 C   0  0  0  0  0  2  0  0  0  0  0  0
  -29.8360  -13.5470   19.8880 N   0  0  0  0  0  0  0  0  0  0  0  0
  -31.5810  -14.8300   19.3120 O   0  0  0  0  0  0  0  0  0  0  0  0
  -25.1030  -13.8930   20.4320 C   0  0  0  0  0  0  0  0  0  0  0  0
  -24.0730  -13.1020   20.8640 C   0  0  0  0  0  0  0  0  0  0  0  0
  -24.5390  -11.7550   20.7660 C   0  0  0  0  0  0  0  0  0  0  0  0
  -26.1290  -13.0270   20.0950 N   0  0  0  0  0  0  0  0  0  0  0  0
  -25.8010  -11.7340   20.3560 N   0  0  0  0  0  0  0  0  0  0  0  0
  -23.8370  -10.4830   20.9830 C   0  0  0  0  0  0  0  0  0  0  0  0
  -24.2870   -9.5400   21.9340 C   0  0  0  0  0  3  0  0  0  0  0  0
  -23.5800   -8.3350   22.1380 C   0  0  0  0  0  3  0  0  0  0  0  0
  -22.4080   -8.0640   21.3910 C   0  0  0  0  0  0  0  0  0  0  0  0
  -21.9770   -8.9960   20.4300 C   0  0  0  0  0  3  0  0  0  0  0  0
  -22.6850  -10.1920   20.2250 C   0  0  0  0  0  3  0  0  0  0  0  0
  -21.6710   -6.9090   21.5030 O   0  0  0  0  0  0  0  0  0  0  0  0
  -21.5760   -6.2290   22.6920 C   0  0  0  0  0  0  0  0  0  0  0  0
  -21.0720   -6.8400   23.8610 C   0  0  0  0  0  3  0  0  0  0  0  0
  -20.9250   -6.0850   25.0410 C   0  0  0  0  0  3  0  0  0  0  0  0
  -21.2720   -4.7210   25.0530 C   0  0  0  0  0  0  0  0  0  0  0  0
  -21.7700   -4.1100   23.8890 C   0  0  0  0  0  3  0  0  0  0  0  0
  -21.9200   -4.8620   22.7110 C   0  0  0  0  0  0  0  0  0  0  0  0
  -22.3780   -4.2650   21.5850 F   0  0  0  0  0  0  0  0  0  0  0  0
  -21.1260   -3.9930   26.1850 F   0  0  0  0  0  0  0  0  0  0  0  0
  -22.7000  -13.5630   21.2580 C   0  0  0  0  0  0  0  0  0  0  0  0
  -22.0460  -12.8460   22.1650 N   0  0  0  0  0  0  0  0  0  0  0  0
  -22.2170  -14.5950   20.7960 O   0  0  0  0  0  0  0  0  0  0  0  0
  -22.4490  -12.0070   22.5610 H   0  0  0  0  0  0  0  0  0  0  0  0
  -21.1290  -13.1400   22.4690 H   0  0  0  0  0  0  0  0  0  0  0  0
  -25.2420  -15.2680   20.2760 N   0  0  0  0  0  0  0  0  0  0  0  0
  -24.4810  -15.9110   20.4650 H   0  0  0  0  0  0  0  0  0  0  0  0
  -26.0660  -15.7270   19.9090 H   0  0  0  0  0  0  0  0  0  0  0  0
  1  3  1  0
  2  4  1  0
  2  1  2  0
  3  5  2  0
  4  6  2  0
  5  7  1  0
  6 11  1  0
  6  5  1  0
  8  9  1  0
 10 64  1  0
 10 11  1  0
 10  8  1  0
 11 15  1  1
 11 12  1  0
 12  9  1  0
 12  7  1  0
 12 14  1  1
 14 13  1  0
 15 20  1  0
 16 18  1  0
 17 19  2  0
 17 20  1  0
 19 21  1  0
 20 16  2  0
 21 22  1  0
 21 18  2  0
 23 22  1  0
 24 35  2  0
 25 23  1  0
 25 30  1  0
 26 34  1  0
 26 36  1  0
 27 33  1  0
 27 29  1  0
 28 34  1  0
 29 30  2  0
 29 28  1  0
 31 32  1  0
 31 25  2  0
 32 27  2  0
 33 26  1  0
 34 24  1  0
 36 38  2  0
 37 36  1  0
 39 37  1  0
 40 49  2  0
 40 45  1  0
 41 37  1  0
 41 45  1  0
 42 41  1  0
 43 44  1  0
 43 42  1  0
 44 40  1  0
 45 46  2  0
 46 47  1  0
 48 47  2  0
 49 48  1  0
 50 24  1  0
 50 51  1  0
 50 60  1  0
 51 54  1  0
 52 56  1  0
 52 51  1  0
 53 52  2  0
 56 55  1  0
 58 59  1  0
 58 56  1  0
 58 57  1  0
 60 63  1  1
 60 61  1  0
 62 60  1  0
 65 64  1  0
 66 71  1  0
 67 68  1  0
 67 66  1  0
 69 68  1  0
 69 76  1  0
 69 70  1  0
 71 65  1  0
 71 70  1  0
 72 65  2  0
 73 74  2  0
 74 93  1  0
 75 74  1  0
 75 78  1  0
 76 77  1  0
 76 73  1  0
 77 75  2  0
 78 79  1  0
 79 80  2  0
 81 84  1  0
 81 80  1  0
 82 81  2  0
 83 82  1  0
 83 78  2  0
 84 85  1  0
 85 90  2  0
 85 86  1  0
 86 87  2  0
 87 88  1  0
 88 92  1  0
 89 88  2  0
 90 89  1  0
 91 90  1  0
 93 94  1  0
 94 97  1  0
 94 96  1  0
 95 93  2  0
 98 73  1  0
 98 99  1  0
100 98  1  0
M  ISO  4  22 101  23 101  64 100  65 100
M  END
>  <TORSDO>  (48) 
F 21

>  <SCORE>  (48) 
-8.939

>  <name>  (48) 
47

>  <ligand_id>  (48) 
47

>  <original_smiles>  (48) 
[H]c1c([H])c([H])c2c(c1[H])C([H])([H])C([H])([H])C([H])([H])C2([H])N([H])C(=O)C1([H])N(C(=O)C([H])(N([H])C(=O)C([H])(N([H])C([H])([H])[H])C([H])([H])[H])C(C([H])([H])[H])(C([H])([H])[H])C([H])([H])[H])C([H])([H])c2c([H])c(OC([H])([H])c3c([H])c([H])c(C([H])([H])C45c6c([H])c([H])c([H])c([H])c6C([H])([H])C4(C([H])([H])C([H])([H])[H])C([H])([H])C([H])([H])C5([H])C([H])([H])C(=O)N4C([H])([H])C([H])([H])C([H])([H])C([H])(n5nc(-c6c([H])c([H])c(Oc7c([H])c([H])c(F)c([H])c7F)c([H])c6[H])c(C(=O)N([H])[H])c5N([H])[H])C4([H])[H])c([H])c3[H])c([H])c([H])c2C1([H])[H]

>  <smiles>  (48) 
[H]c1c([H])c([H])c2c(c1[H])C([H])([H])C([H])([H])C([H])([H])C2([H])N([H])C(=O)C1([H])N(C(=O)C([H])(N([H])C(=O)C([H])(N([H])C([H])([H])[H])C([H])([H])[H])C(C([H])([H])[H])(C([H])([H])[H])C([H])([H])[H])C([H])([H])c2c([H])c(OC([H])([H])c3c([H])c([H])c(C([H])([H])C45c6c([H])c([H])c([H])c([H])c6C([H])([H])C4(C([H])([H])C([H])([H])[H])C([H])([H])C([H])([H])C5([H])C([H])([H])C(=O)N4C([H])([H])C([H])([H])C([H])([H])C([H])(n5nc(-c6c([H])c([H])c(Oc7c([H])c([H])c(F)c([H])c7F)c([H])c6[H])c(C(=O)N([H])[H])c5N([H])[H])C4([H])[H])c([H])c3[H])c([H])c([H])c2C1([H])[H]

$$$$
48:0:0
     RDKit          3D

 92101  0  0  1  0  0  0  0  0999 V2000
  -31.1410  -19.5410   18.9050 C   0  0  0  0  0  2  0  0  0  0  0  0
  -32.0910  -19.4700   20.1220 C   0  0  0  0  0  2  0  0  0  0  0  0
  -29.2670  -17.9820   19.7130 C   0  0  0  0  0  2  0  0  0  0  0  0
  -30.8010  -17.9030   21.6880 C   0  0  0  0  0  2  0  0  0  0  0  0
  -30.3250  -17.0980   20.4480 C   0  0  0  0  0  3  0  0  0  0  0  0
  -29.7310  -19.4830   19.5350 C   0  0  0  0  0  3  0  0  0  0  0  0
  -31.1330  -19.3980   21.3350 C   0  0  0  0  0  3  0  0  0  0  0  0
  -29.9210  -20.1310   20.8610 N   0  0  1  0  0  4  0  0  0  0  0  0
  -29.1400  -19.9200   21.4650 H   0  0  0  0  0  0  0  0  0  0  0  0
  -30.6360  -14.5660   20.4250 C   0  0  0  0  0  0  0  0  0  0  0  0
  -30.3320  -12.3680   19.3390 C   0  0  0  0  0  2  0  0  0  0  0  0
  -29.3860  -12.5450   18.1330 C   0  0  0  0  0  2  0  0  0  0  0  0
  -27.9180  -12.4000   18.5750 C   0  0  0  0  0  2  0  0  0  0  0  0
  -27.5810  -13.2500   19.8300 C   0  0  0  0  0  3  0  0  0  0  0  0
  -28.6490  -13.0810   20.9350 C   0  0  0  0  0  2  0  0  0  0  0  0
  -29.9590  -13.3830   20.3420 N   0  0  0  0  0  0  0  0  0  0  0  0
  -31.8000  -14.6720   20.0330 O   0  0  0  0  0  0  0  0  0  0  0  0
  -29.9100  -15.6820   20.7260 N   0  0  0  0  0  0  0  0  0  0  0  0
  -28.9570  -15.5240   21.0190 H   0  0  0  0  0  0  0  0  0  0  0  0
  -25.1950  -13.8480   20.5750 C   0  0  0  0  0  0  0  0  0  0  0  0
  -24.1300  -13.0740   20.9480 C   0  0  0  0  0  0  0  0  0  0  0  0
  -24.5890  -11.7220   20.9030 C   0  0  0  0  0  0  0  0  0  0  0  0
  -26.2360  -12.9680   20.3250 N   0  0  0  0  0  0  0  0  0  0  0  0
  -25.8770  -11.6840   20.5830 N   0  0  0  0  0  0  0  0  0  0  0  0
  -23.8620  -10.4600   21.0890 C   0  0  0  0  0  0  0  0  0  0  0  0
  -24.3040   -9.4810   22.0060 C   0  0  0  0  0  3  0  0  0  0  0  0
  -23.5770   -8.2830   22.1810 C   0  0  0  0  0  3  0  0  0  0  0  0
  -22.3940   -8.0560   21.4390 C   0  0  0  0  0  0  0  0  0  0  0  0
  -21.9710   -9.0230   20.5110 C   0  0  0  0  0  3  0  0  0  0  0  0
  -22.6980  -10.2120   20.3330 C   0  0  0  0  0  3  0  0  0  0  0  0
  -21.6380   -6.9120   21.5240 O   0  0  0  0  0  0  0  0  0  0  0  0
  -21.6050   -6.1540   22.6680 C   0  0  0  0  0  0  0  0  0  0  0  0
  -21.1730   -6.6870   23.9020 C   0  0  0  0  0  3  0  0  0  0  0  0
  -21.0890   -5.8550   25.0360 C   0  0  0  0  0  3  0  0  0  0  0  0
  -21.4270   -4.4920   24.9380 C   0  0  0  0  0  0  0  0  0  0  0  0
  -21.8520   -3.9590   23.7080 C   0  0  0  0  0  3  0  0  0  0  0  0
  -21.9380   -4.7880   22.5760 C   0  0  0  0  0  0  0  0  0  0  0  0
  -22.3280   -4.2650   21.3890 F   0  0  0  0  0  0  0  0  0  0  0  0
  -21.3380   -3.6910   26.0250 F   0  0  0  0  0  0  0  0  0  0  0  0
  -22.7370  -13.5510   21.2350 C   0  0  0  0  0  0  0  0  0  0  0  0
  -22.0130  -12.8510   22.1020 N   0  0  0  0  0  0  0  0  0  0  0  0
  -22.2960  -14.5820   20.7250 O   0  0  0  0  0  0  0  0  0  0  0  0
  -22.3830  -12.0180   22.5360 H   0  0  0  0  0  0  0  0  0  0  0  0
  -21.0790  -13.1530   22.3350 H   0  0  0  0  0  0  0  0  0  0  0  0
  -25.3590  -15.2200   20.4050 N   0  0  0  0  0  0  0  0  0  0  0  0
  -24.5900  -15.8700   20.5190 H   0  0  0  0  0  0  0  0  0  0  0  0
  -26.1970  -15.6580   20.0430 H   0  0  0  0  0  0  0  0  0  0  0  0
  -30.1180  -21.6420   20.8790 C   0  0  0  0  0  2  0  0  0  0  0  0
  -28.9390  -22.5860   20.4430 C   0  0  0  0  0  2  0  0  0  0  0  0
  -29.2480  -24.1320   20.5690 C   0  0  0  0  0  3  0  0  0  0  0  0
  -28.1120  -25.1060   20.1030 C   0  0  0  0  0  3  0  0  0  0  0  0
  -28.3310  -26.5440   20.2810 O   0  0  0  0  0  0  0  0  0  0  0  0
  -24.5930  -31.9110   23.2370 C   0  0  0  0  0  0  0  0  0  0  0  0
  -27.2030  -27.3650   20.2110 C   0  0  0  0  0  0  0  0  0  0  0  0
  -23.3890  -30.5120   21.5960 C   0  0  0  0  0  3  0  0  0  0  0  0
  -24.8380  -28.9580   20.1840 C   0  0  0  0  0  0  0  0  0  0  0  0
  -25.9270  -30.8300   21.4220 C   0  0  0  0  0  2  0  0  0  0  0  0
  -26.0040  -29.4520   20.7830 C   0  0  0  0  0  0  0  0  0  0  0  0
  -27.1910  -28.6670   20.7890 C   0  0  0  0  0  3  0  0  0  0  0  0
  -26.0140  -26.9170   19.5870 C   0  0  0  0  0  3  0  0  0  0  0  0
  -24.8430  -27.6930   19.5800 C   0  0  0  0  0  3  0  0  0  0  0  0
  -23.6050  -29.8320   20.2210 C   0  0  0  0  0  2  0  0  0  0  0  0
  -24.6550  -31.1010   22.1420 N   0  0  0  0  0  0  0  0  0  0  0  0
  -23.5080  -32.1960   23.7650 O   0  0  0  0  0  0  0  0  0  0  0  0
  -22.7200  -29.5010   22.5560 C   0  0  0  0  0  0  0  0  0  0  0  0
  -21.3920  -29.3360   22.4270 N   0  0  0  0  0  0  0  0  0  0  0  0
  -23.3910  -28.8670   23.3740 O   0  0  0  0  0  0  0  0  0  0  0  0
  -20.9100  -29.9000   21.7400 H   0  0  0  0  0  0  0  0  0  0  0  0
  -17.9960  -28.2070   22.9450 C   0  0  0  0  0  0  0  0  0  0  0  0
  -20.5610  -28.4110   23.1980 C   0  0  0  0  0  3  0  0  0  0  0  0
  -20.6290  -26.9820   22.6120 C   0  0  0  0  0  2  0  0  0  0  0  0
  -19.5140  -26.6890   21.6050 C   0  0  0  0  0  2  0  0  0  0  0  0
  -18.1400  -26.8590   22.2600 C   0  0  0  0  0  2  0  0  0  0  0  0
  -19.1340  -28.9440   23.3710 C   0  0  0  0  0  0  0  0  0  0  0  0
  -18.9460  -30.2070   23.9710 C   0  0  0  0  0  3  0  0  0  0  0  0
  -17.6530  -30.7350   24.1490 C   0  0  0  0  0  3  0  0  0  0  0  0
  -16.5300  -29.9960   23.7390 C   0  0  0  0  0  3  0  0  0  0  0  0
  -16.7030  -28.7340   23.1430 C   0  0  0  0  0  3  0  0  0  0  0  0
  -25.8770  -32.5370   23.8630 C   0  0  0  0  0  3  0  0  0  0  0  0
  -26.3860  -31.7620   25.1400 C   0  0  1  0  0  0  0  0  0  0  0  0
  -25.2880  -31.5250   26.2020 C   0  0  0  0  0  1  0  0  0  0  0  0
  -26.9690  -30.3840   24.7490 C   0  0  0  0  0  1  0  0  0  0  0  0
  -27.5350  -32.5540   25.8080 C   0  0  0  0  0  1  0  0  0  0  0  0
  -25.5730  -33.9360   24.1930 N   0  0  0  0  0  0  0  0  0  0  0  0
  -25.9000  -34.9870   23.4280 C   0  0  0  0  0  0  0  0  0  0  0  0
  -26.5630  -34.8790   22.3920 O   0  0  0  0  0  0  0  0  0  0  0  0
  -24.9850  -34.0940   24.9980 H   0  0  0  0  0  0  0  0  0  0  0  0
  -24.1720  -36.7800   23.0820 C   0  0  0  0  0  1  0  0  0  0  0  0
  -25.4180  -36.3770   23.8850 C   0  0  0  0  0  3  0  0  0  0  0  0
  -27.5570  -37.2640   24.7010 C   0  0  0  0  0  1  0  0  0  0  0  0
  -26.4520  -37.4270   23.7620 N   0  0  0  0  0  0  0  0  0  0  0  0
  -26.0470  -38.3490   23.9050 H   0  0  0  0  0  0  0  0  0  0  0  0
  1  2  1  0
  3  5  1  0
  5 18  1  0
  5  4  1  0
  6  1  1  0
  6  3  1  0
  6  8  1  0
  7  2  1  0
  7  4  1  0
  8 48  1  0
  8  7  1  0
  8  9  1  1
 10 18  1  0
 11 16  1  0
 12 13  1  0
 12 11  1  0
 14 13  1  0
 14 23  1  0
 14 15  1  0
 16 10  1  0
 16 15  1  0
 17 10  2  0
 18 19  1  0
 20 21  2  0
 21 40  1  0
 22 21  1  0
 22 25  1  0
 23 20  1  0
 23 24  1  0
 24 22  2  0
 25 26  1  0
 26 27  2  0
 28 31  1  0
 28 27  1  0
 29 28  2  0
 30 29  1  0
 30 25  2  0
 31 32  1  0
 32 33  1  0
 33 34  2  0
 35 34  1  0
 35 39  1  0
 36 35  2  0
 37 32  2  0
 37 36  1  0
 38 37  1  0
 40 41  1  0
 41 44  1  0
 41 43  1  0
 42 40  2  0
 45 46  1  0
 45 20  1  0
 47 45  1  0
 49 50  1  0
 49 48  1  0
 51 52  1  0
 51 50  2  0
 53 64  2  0
 54 52  1  0
 54 59  1  0
 55 63  1  0
 55 65  1  0
 56 62  1  0
 56 58  1  0
 57 63  1  0
 58 59  2  0
 58 57  1  0
 60 54  2  0
 61 60  1  0
 61 56  2  0
 62 55  1  0
 63 53  1  0
 65 67  2  0
 66 65  1  0
 68 66  1  0
 69 78  2  0
 69 74  1  0
 70 66  1  0
 70 74  1  0
 71 70  1  0
 72 73  1  0
 72 71  1  0
 73 69  1  0
 74 75  2  0
 75 76  1  0
 77 76  2  0
 78 77  1  0
 79 53  1  0
 79 84  1  0
 79 80  1  0
 80 83  1  1
 80 81  1  0
 82 80  1  0
 84 87  1  0
 85 89  1  0
 85 84  1  0
 86 85  2  0
 89 88  1  0
 91 89  1  0
 91 92  1  0
 91 90  1  0
M  ISO  4  10 100  18 100  51 101  52 101
M  END
>  <TORSDO>  (49) 
F 20

>  <SCORE>  (49) 
-14.039

>  <name>  (49) 
48

>  <ligand_id>  (49) 
48

>  <original_smiles>  (49) 
[H]c1c([H])c([H])c2c(c1[H])C([H])([H])C([H])([H])C([H])([H])C2([H])N([H])C(=O)C1([H])N(C(=O)C([H])(N([H])C(=O)C([H])(N([H])C([H])([H])[H])C([H])([H])[H])C(C([H])([H])[H])(C([H])([H])[H])C([H])([H])[H])C([H])([H])c2c([H])c(OC([H])([H])C([H])([H])C([H])([H])C([H])([H])[N+]3([H])C4([H])C([H])([H])C([H])([H])C3([H])C([H])([H])C([H])(N([H])C(=O)N3C([H])([H])C([H])([H])C([H])([H])C([H])(n5nc(-c6c([H])c([H])c(Oc7c([H])c([H])c(F)c([H])c7F)c([H])c6[H])c(C(=O)N([H])[H])c5N([H])[H])C3([H])[H])C4([H])[H])c([H])c([H])c2C1([H])[H]

>  <smiles>  (49) 
[H]c1c([H])c([H])c2c(c1[H])C([H])([H])C([H])([H])C([H])([H])C2([H])N([H])C(=O)C1([H])N(C(=O)C([H])(N([H])C(=O)C([H])(N([H])C([H])([H])[H])C([H])([H])[H])C(C([H])([H])[H])(C([H])([H])[H])C([H])([H])[H])C([H])([H])c2c([H])c(OC([H])([H])C([H])([H])C([H])([H])C([H])([H])[N+]3([H])C4([H])C([H])([H])C([H])([H])C3([H])C([H])([H])C([H])(N([H])C(=O)N3C([H])([H])C([H])([H])C([H])([H])C([H])(n5nc(-c6c([H])c([H])c(Oc7c([H])c([H])c(F)c([H])c7F)c([H])c6[H])c(C(=O)N([H])[H])c5N([H])[H])C3([H])[H])C4([H])[H])c([H])c([H])c2C1([H])[H]

$$$$
49:0:0
     RDKit          3D

 94102  0  0  1  0  0  0  0  0999 V2000
  -30.2820  -21.4560   22.1860 N   0  0  0  0  0  4  0  0  0  0  0  0
  -31.0300  -22.0160   22.5620 H   0  0  0  0  0  0  0  0  0  0  0  0
  -30.5430  -21.1850   21.2500 H   0  0  0  0  0  0  0  0  0  0  0  0
  -29.0510  -22.2760   22.0860 C   0  0  0  0  0  2  0  0  0  0  0  0
  -29.3660  -23.7330   21.6940 C   0  0  0  0  0  2  0  0  0  0  0  0
  -28.1570  -24.4920   21.1150 C   0  0  0  0  0  2  0  0  0  0  0  0
  -28.4750  -25.9660   20.7960 C   0  0  0  0  0  2  0  0  0  0  0  0
  -27.7880  -26.3740   19.6220 O   0  0  0  0  0  0  0  0  0  0  0  0
  -24.4850  -31.6520   23.1030 C   0  0  0  0  0  0  0  0  0  0  0  0
  -26.6610  -27.1290   19.8140 C   0  0  0  0  0  0  0  0  0  0  0  0
  -23.0850  -30.3260   21.5510 C   0  0  0  0  0  3  0  0  0  0  0  0
  -24.3460  -28.7220   20.0210 C   0  0  0  0  0  0  0  0  0  0  0  0
  -25.5990  -30.5620   21.1610 C   0  0  0  0  0  2  0  0  0  0  0  0
  -25.5680  -29.1910   20.5240 C   0  0  0  0  0  0  0  0  0  0  0  0
  -26.7300  -28.3980   20.4260 C   0  0  0  0  0  3  0  0  0  0  0  0
  -25.4310  -26.6640   19.3110 C   0  0  0  0  0  3  0  0  0  0  0  0
  -24.2690  -27.4530   19.4180 C   0  0  0  0  0  3  0  0  0  0  0  0
  -23.1540  -29.6410   20.1590 C   0  0  0  0  0  2  0  0  0  0  0  0
  -24.4120  -30.8600   21.9950 N   0  0  0  0  0  0  0  0  0  0  0  0
  -23.4660  -31.9740   23.7270 O   0  0  0  0  0  0  0  0  0  0  0  0
  -22.4590  -29.3320   22.5550 C   0  0  0  0  0  0  0  0  0  0  0  0
  -21.1340  -29.1390   22.4570 N   0  0  0  0  0  0  0  0  0  0  0  0
  -23.1610  -28.7350   23.3760 O   0  0  0  0  0  0  0  0  0  0  0  0
  -20.6280  -29.6730   21.7630 H   0  0  0  0  0  0  0  0  0  0  0  0
  -17.7990  -27.8430   22.9530 C   0  0  0  0  0  0  0  0  0  0  0  0
  -20.3350  -28.2210   23.2690 C   0  0  0  0  0  3  0  0  0  0  0  0
  -20.5090  -26.7600   22.7930 C   0  0  0  0  0  2  0  0  0  0  0  0
  -19.4480  -26.3270   21.7750 C   0  0  0  0  0  2  0  0  0  0  0  0
  -18.0450  -26.4590   22.3740 C   0  0  0  0  0  2  0  0  0  0  0  0
  -18.8740  -28.6760   23.3580 C   0  0  0  0  0  0  0  0  0  0  0  0
  -18.5930  -29.9680   23.8550 C   0  0  0  0  0  3  0  0  0  0  0  0
  -17.2670  -30.4280   23.9520 C   0  0  0  0  0  3  0  0  0  0  0  0
  -16.2040  -29.5940   23.5640 C   0  0  0  0  0  3  0  0  0  0  0  0
  -16.4700  -28.3030   23.0720 C   0  0  0  0  0  3  0  0  0  0  0  0
  -25.8480  -32.2080   23.6240 C   0  0  0  0  0  3  0  0  0  0  0  0
  -26.4500  -31.3660   24.8150 C   0  0  1  0  0  0  0  0  0  0  0  0
  -25.4490  -31.1170   25.9680 C   0  0  0  0  0  1  0  0  0  0  0  0
  -26.9440  -29.9900   24.3120 C   0  0  0  0  0  1  0  0  0  0  0  0
  -27.6830  -32.0940   25.4020 C   0  0  0  0  0  1  0  0  0  0  0  0
  -25.6290  -33.6020   24.0300 N   0  0  0  0  0  0  0  0  0  0  0  0
  -26.0110  -34.6700   23.3170 C   0  0  0  0  0  0  0  0  0  0  0  0
  -26.6580  -34.5800   22.2700 O   0  0  0  0  0  0  0  0  0  0  0  0
  -25.0590  -33.7500   24.8500 H   0  0  0  0  0  0  0  0  0  0  0  0
  -24.4010  -36.5840   23.0640 C   0  0  0  0  0  1  0  0  0  0  0  0
  -25.6120  -36.0590   23.8500 C   0  0  0  0  0  3  0  0  0  0  0  0
  -27.7990  -36.7560   24.7230 C   0  0  0  0  0  1  0  0  0  0  0  0
  -26.7110  -37.0490   23.7940 N   0  0  0  0  0  0  0  0  0  0  0  0
  -26.3650  -37.9830   23.9950 H   0  0  0  0  0  0  0  0  0  0  0  0
  -30.1690  -20.2260   23.0050 C   0  0  0  0  0  3  0  0  0  0  0  0
  -32.2210  -20.9220   24.4500 C   0  0  0  0  0  1  0  0  0  0  0  0
  -30.7560  -20.4510   24.4200 C   0  0  0  0  0  2  0  0  0  0  0  0
  -30.8240  -19.0100   22.3010 C   0  0  0  0  0  2  0  0  0  0  0  0
  -29.8330  -19.2790   19.8420 C   0  0  0  0  0  2  0  0  0  0  0  0
  -29.7730  -17.9490   19.0990 C   0  0  0  0  0  2  0  0  0  0  0  0
  -30.0150  -18.4550   21.1230 C   0  0  0  0  0  3  0  0  0  0  0  0
  -30.5800  -17.2960   20.2460 C   0  0  2  0  0  0  0  0  0  0  0  0
  -32.1080  -17.3050   20.0460 C   0  0  0  0  0  1  0  0  0  0  0  0
  -30.1580  -15.8590   20.6680 C   0  0  0  0  0  2  0  0  0  0  0  0
  -30.8190  -14.6770   19.9150 C   0  0  0  0  0  0  0  0  0  0  0  0
  -30.5700  -12.4250   18.9260 C   0  0  0  0  0  2  0  0  0  0  0  0
  -29.5760  -12.4840   17.7480 C   0  0  0  0  0  2  0  0  0  0  0  0
  -28.1270  -12.3220   18.2450 C   0  0  0  0  0  2  0  0  0  0  0  0
  -27.7970  -13.2570   19.4390 C   0  0  0  0  0  3  0  0  0  0  0  0
  -28.8980  -13.1750   20.5210 C   0  0  0  0  0  2  0  0  0  0  0  0
  -30.1890  -13.4730   19.8830 N   0  0  0  0  0  0  0  0  0  0  0  0
  -31.8700  -14.8730   19.2960 O   0  0  0  0  0  0  0  0  0  0  0  0
  -25.4280  -13.8430   20.2640 C   0  0  0  0  0  0  0  0  0  0  0  0
  -24.3910  -13.0600   20.6970 C   0  0  0  0  0  0  0  0  0  0  0  0
  -24.8680  -11.7140   20.6540 C   0  0  0  0  0  0  0  0  0  0  0  0
  -26.4720  -12.9740   19.9900 N   0  0  0  0  0  0  0  0  0  0  0  0
  -26.1410  -11.6890   20.2790 N   0  0  0  0  0  0  0  0  0  0  0  0
  -24.1700  -10.4440   20.8950 C   0  0  0  0  0  0  0  0  0  0  0  0
  -24.5660   -9.5700   21.9300 C   0  0  0  0  0  3  0  0  0  0  0  0
  -23.8680   -8.3620   22.1550 C   0  0  0  0  0  3  0  0  0  0  0  0
  -22.7600   -8.0220   21.3420 C   0  0  0  0  0  0  0  0  0  0  0  0
  -22.3850   -8.8870   20.2980 C   0  0  0  0  0  3  0  0  0  0  0  0
  -23.0850  -10.0840   20.0730 C   0  0  0  0  0  3  0  0  0  0  0  0
  -22.0390   -6.8600   21.4680 O   0  0  0  0  0  0  0  0  0  0  0  0
  -21.8160   -6.2810   22.6920 C   0  0  0  0  0  0  0  0  0  0  0  0
  -21.1540   -6.9680   23.7330 C   0  0  0  0  0  3  0  0  0  0  0  0
  -20.8850   -6.3120   24.9500 C   0  0  0  0  0  3  0  0  0  0  0  0
  -21.2660   -4.9690   25.1260 C   0  0  0  0  0  0  0  0  0  0  0  0
  -21.9220   -4.2810   24.0890 C   0  0  0  0  0  3  0  0  0  0  0  0
  -22.1930   -4.9350   22.8740 C   0  0  0  0  0  0  0  0  0  0  0  0
  -22.8050   -4.2610   21.8700 F   0  0  0  0  0  0  0  0  0  0  0  0
  -21.0010   -4.3350   26.2920 F   0  0  0  0  0  0  0  0  0  0  0  0
  -23.0030  -13.5220   21.0400 C   0  0  0  0  0  0  0  0  0  0  0  0
  -22.3450  -12.8420   21.9740 N   0  0  0  0  0  0  0  0  0  0  0  0
  -22.5120  -14.5190   20.5140 O   0  0  0  0  0  0  0  0  0  0  0  0
  -22.7560  -12.0360   22.4190 H   0  0  0  0  0  0  0  0  0  0  0  0
  -21.4180  -13.1340   22.2460 H   0  0  0  0  0  0  0  0  0  0  0  0
  -25.5640  -15.2140   20.0650 N   0  0  0  0  0  0  0  0  0  0  0  0
  -24.7960  -15.8620   20.2080 H   0  0  0  0  0  0  0  0  0  0  0  0
  -26.3940  -15.6610   19.6950 H   0  0  0  0  0  0  0  0  0  0  0  0
  1  2  1  0
  1 49  1  0
  3  1  1  0
  4  1  1  0
  5  4  1  0
  6  5  1  0
  7  6  1  0
  8 10  1  0
  8  7  1  0
  9 20  2  0
 10 15  1  0
 11 19  1  0
 11 21  1  0
 12 18  1  0
 12 14  1  0
 13 19  1  0
 14 13  1  0
 15 14  2  0
 16 17  1  0
 16 10  2  0
 17 12  2  0
 18 11  1  0
 19  9  1  0
 21 23  2  0
 22 21  1  0
 24 22  1  0
 25 34  2  0
 25 30  1  0
 26 22  1  0
 26 30  1  0
 27 26  1  0
 28 29  1  0
 28 27  1  0
 29 25  1  0
 30 31  2  0
 31 32  1  0
 33 32  2  0
 34 33  1  0
 35  9  1  0
 35 40  1  0
 35 36  1  0
 36 39  1  1
 36 37  1  0
 38 36  1  0
 40 43  1  0
 41 45  1  0
 41 40  1  0
 42 41  2  0
 45 44  1  0
 47 45  1  0
 47 48  1  0
 47 46  1  0
 49 52  1  0
 49 51  1  0
 51 50  1  0
 53 55  1  0
 54 53  1  0
 54 56  1  0
 55 52  1  0
 56 57  1  6
 56 58  1  0
 56 55  1  0
 59 58  1  0
 60 65  1  0
 61 62  1  0
 61 60  1  0
 63 62  1  0
 63 70  1  0
 63 64  1  0
 65 59  1  0
 65 64  1  0
 66 59  2  0
 67 68  2  0
 68 87  1  0
 69 68  1  0
 69 72  1  0
 70 67  1  0
 70 71  1  0
 71 69  2  0
 72 73  1  0
 73 74  2  0
 75 78  1  0
 75 74  1  0
 76 75  2  0
 77 76  1  0
 77 72  2  0
 78 79  1  0
 79 84  2  0
 79 80  1  0
 80 81  2  0
 81 82  1  0
 82 86  1  0
 83 82  2  0
 84 83  1  0
 85 84  1  0
 87 88  1  0
 88 91  1  0
 88 90  1  0
 89 87  2  0
 92 93  1  0
 92 67  1  0
 94 92  1  0
M  ISO  4   7 101   8 101  58 100  59 100
M  END
>  <TORSDO>  (50) 
F 25

>  <SCORE>  (50) 
-10.649

>  <name>  (50) 
49

>  <ligand_id>  (50) 
49

>  <original_smiles>  (50) 
[H]c1c([H])c([H])c2c(c1[H])C([H])([H])C([H])([H])C([H])([H])C2([H])N([H])C(=O)C1([H])N(C(=O)C([H])(N([H])C(=O)C([H])(N([H])C([H])([H])[H])C([H])([H])[H])C(C([H])([H])[H])(C([H])([H])[H])C([H])([H])[H])C([H])([H])c2c([H])c(OC([H])([H])C([H])([H])C([H])([H])C([H])([H])[N+]([H])([H])C([H])(C([H])([H])C([H])([H])[H])C([H])([H])C3([H])C([H])([H])C([H])([H])C3(C([H])([H])[H])C([H])([H])C(=O)N3C([H])([H])C([H])([H])C([H])([H])C([H])(n4nc(-c5c([H])c([H])c(Oc6c([H])c([H])c(F)c([H])c6F)c([H])c5[H])c(C(=O)N([H])[H])c4N([H])[H])C3([H])[H])c([H])c([H])c2C1([H])[H]

>  <smiles>  (50) 
[H]c1c([H])c([H])c2c(c1[H])C([H])([H])C([H])([H])C([H])([H])C2([H])N([H])C(=O)C1([H])N(C(=O)C([H])(N([H])C(=O)C([H])(N([H])C([H])([H])[H])C([H])([H])[H])C(C([H])([H])[H])(C([H])([H])[H])C([H])([H])[H])C([H])([H])c2c([H])c(OC([H])([H])C([H])([H])C([H])([H])C([H])([H])[N+]([H])([H])C([H])(C([H])([H])C([H])([H])[H])C([H])([H])C3([H])C([H])([H])C([H])([H])C3(C([H])([H])[H])C([H])([H])C(=O)N3C([H])([H])C([H])([H])C([H])([H])C([H])(n4nc(-c5c([H])c([H])c(Oc6c([H])c([H])c(F)c([H])c6F)c([H])c5[H])c(C(=O)N([H])[H])c4N([H])[H])C3([H])[H])c([H])c([H])c2C1([H])[H]

$$$$
50:0:0
     RDKit          3D

 90 98  0  0  1  0  0  0  0  0999 V2000
  -27.5780  -20.7050   18.9950 C   0  0  0  0  0  2  0  0  0  0  0  0
  -28.1390  -19.0960   21.1190 C   0  0  0  0  0  2  0  0  0  0  0  0
  -27.5090  -19.3840   19.7600 C   0  0  1  0  0  0  0  0  0  0  0  0
  -26.4390  -18.4390   19.2080 C   0  0  0  0  0  1  0  0  0  0  0  0
  -28.8730  -18.8570   19.8960 N   0  0  2  0  0  4  0  0  0  0  0  0
  -29.5770  -19.5540   19.7020 H   0  0  0  0  0  0  0  0  0  0  0  0
  -29.1470  -17.4830   19.4320 C   0  0  0  0  0  2  0  0  0  0  0  0
  -30.4580  -16.8880   19.9840 C   0  0  0  0  0  2  0  0  0  0  0  0
  -31.0110  -15.8330   19.0130 C   0  0  0  0  0  2  0  0  0  0  0  0
  -31.7220  -14.6090   19.6050 C   0  0  0  0  0  0  0  0  0  0  0  0
  -31.2700  -12.3460   18.8620 C   0  0  0  0  0  2  0  0  0  0  0  0
  -30.3040  -12.4710   17.6660 C   0  0  0  0  0  2  0  0  0  0  0  0
  -28.8400  -12.4500   18.1500 C   0  0  0  0  0  2  0  0  0  0  0  0
  -28.5670  -13.4380   19.3150 C   0  0  0  0  0  3  0  0  0  0  0  0
  -29.6760  -13.3740   20.3920 C   0  0  0  0  0  2  0  0  0  0  0  0
  -31.0000  -13.4710   19.7610 N   0  0  0  0  0  0  0  0  0  0  0  0
  -32.9390  -14.6180   19.4450 O   0  0  0  0  0  0  0  0  0  0  0  0
  -26.2580  -14.2120   20.1450 C   0  0  0  0  0  0  0  0  0  0  0  0
  -25.1660  -13.5250   20.5880 C   0  0  0  0  0  0  0  0  0  0  0  0
  -25.5310  -12.1450   20.5520 C   0  0  0  0  0  0  0  0  0  0  0  0
  -27.2320  -13.2610   19.8780 N   0  0  0  0  0  0  0  0  0  0  0  0
  -26.8000  -12.0120   20.1850 N   0  0  0  0  0  0  0  0  0  0  0  0
  -24.7270  -10.9410   20.7850 C   0  0  0  0  0  0  0  0  0  0  0  0
  -25.0850   -9.9970   21.7720 C   0  0  0  0  0  3  0  0  0  0  0  0
  -24.2860   -8.8530   21.9900 C   0  0  0  0  0  3  0  0  0  0  0  0
  -23.1150   -8.6470   21.2230 C   0  0  0  0  0  0  0  0  0  0  0  0
  -22.7770   -9.5780   20.2250 C   0  0  0  0  0  3  0  0  0  0  0  0
  -23.5770  -10.7130   20.0040 C   0  0  0  0  0  3  0  0  0  0  0  0
  -22.2900   -7.5540   21.3510 O   0  0  0  0  0  0  0  0  0  0  0  0
  -22.1150   -6.9240   22.5560 C   0  0  0  0  0  0  0  0  0  0  0  0
  -21.6110   -7.6020   23.6870 C   0  0  0  0  0  3  0  0  0  0  0  0
  -21.3800   -6.8970   24.8860 C   0  0  0  0  0  3  0  0  0  0  0  0
  -21.6510   -5.5170   24.9530 C   0  0  0  0  0  0  0  0  0  0  0  0
  -22.1510   -4.8390   23.8280 C   0  0  0  0  0  3  0  0  0  0  0  0
  -22.3800   -5.5410   22.6320 C   0  0  0  0  0  0  0  0  0  0  0  0
  -22.8390   -4.8820   21.5410 F   0  0  0  0  0  0  0  0  0  0  0  0
  -21.4260   -4.8370   26.1010 F   0  0  0  0  0  0  0  0  0  0  0  0
  -23.8200  -14.1030   20.9160 C   0  0  0  0  0  0  0  0  0  0  0  0
  -23.0910  -13.4730   21.8290 N   0  0  0  0  0  0  0  0  0  0  0  0
  -23.4290  -15.1490   20.3980 O   0  0  0  0  0  0  0  0  0  0  0  0
  -23.4140  -12.6240   22.2670 H   0  0  0  0  0  0  0  0  0  0  0  0
  -22.1880  -13.8440   22.0900 H   0  0  0  0  0  0  0  0  0  0  0  0
  -26.4800  -15.5620   19.9080 N   0  0  0  0  0  0  0  0  0  0  0  0
  -25.6350  -16.1250   19.8900 H   0  0  0  0  0  0  0  0  0  0  0  0
  -27.0900  -15.7810   19.1340 H   0  0  0  0  0  0  0  0  0  0  0  0
  -27.9590  -21.9060   19.8680 C   0  0  0  0  0  2  0  0  0  0  0  0
  -28.2220  -23.1700   19.0440 C   0  0  0  0  0  2  0  0  0  0  0  0
  -28.2230  -24.4200   19.9290 C   0  0  0  0  0  2  0  0  0  0  0  0
  -28.6210  -25.6870   19.1600 C   0  0  0  0  0  2  0  0  0  0  0  0
  -28.4550  -26.8270   19.9910 O   0  0  0  0  0  0  0  0  0  0  0  0
  -24.5920  -31.7420   23.3270 C   0  0  0  0  0  0  0  0  0  0  0  0
  -27.2380  -27.4750   20.0280 C   0  0  0  0  0  0  0  0  0  0  0  0
  -23.3820  -30.4330   21.6100 C   0  0  0  0  0  3  0  0  0  0  0  0
  -24.8330  -28.9570   20.1230 C   0  0  0  0  0  0  0  0  0  0  0  0
  -25.9070  -30.7900   21.4420 C   0  0  0  0  0  2  0  0  0  0  0  0
  -25.9860  -29.4510   20.7440 C   0  0  0  0  0  0  0  0  0  0  0  0
  -27.1840  -28.7100   20.7050 C   0  0  0  0  0  3  0  0  0  0  0  0
  -26.0600  -26.9830   19.4140 C   0  0  0  0  0  3  0  0  0  0  0  0
  -24.8600  -27.7170   19.4630 C   0  0  0  0  0  3  0  0  0  0  0  0
  -23.5920  -29.8160   20.2010 C   0  0  0  0  0  2  0  0  0  0  0  0
  -24.6460  -31.0010   22.1860 N   0  0  0  0  0  0  0  0  0  0  0  0
  -23.5110  -31.9960   23.8750 O   0  0  0  0  0  0  0  0  0  0  0  0
  -22.7220  -29.3700   22.5160 C   0  0  0  0  0  0  0  0  0  0  0  0
  -21.3990  -29.1970   22.3640 N   0  0  0  0  0  0  0  0  0  0  0  0
  -23.3960  -28.7040   23.3070 O   0  0  0  0  0  0  0  0  0  0  0  0
  -20.9150  -29.7880   21.7030 H   0  0  0  0  0  0  0  0  0  0  0  0
  -18.0180  -27.9890   22.7490 C   0  0  0  0  0  0  0  0  0  0  0  0
  -20.5710  -28.2260   23.0770 C   0  0  0  0  0  3  0  0  0  0  0  0
  -20.6840  -26.8230   22.4370 C   0  0  0  0  0  2  0  0  0  0  0  0
  -19.5970  -26.5500   21.3910 C   0  0  0  0  0  2  0  0  0  0  0  0
  -18.2050  -26.6710   22.0180 C   0  0  0  0  0  2  0  0  0  0  0  0
  -19.1290  -28.7270   23.2320 C   0  0  0  0  0  0  0  0  0  0  0  0
  -18.9030  -29.9680   23.8690 C   0  0  0  0  0  3  0  0  0  0  0  0
  -17.5980  -30.4650   24.0320 C   0  0  0  0  0  3  0  0  0  0  0  0
  -16.4990  -29.7220   23.5670 C   0  0  0  0  0  3  0  0  0  0  0  0
  -16.7100  -28.4860   22.9290 C   0  0  0  0  0  3  0  0  0  0  0  0
  -25.8820  -32.3280   23.9840 C   0  0  0  0  0  3  0  0  0  0  0  0
  -25.5940  -33.7180   24.3570 N   0  0  0  0  0  0  0  0  0  0  0  0
  -25.9520  -34.7890   23.6350 C   0  0  0  0  0  0  0  0  0  0  0  0
  -26.6310  -34.7080   22.6080 O   0  0  0  0  0  0  0  0  0  0  0  0
  -24.9950  -33.8600   25.1560 H   0  0  0  0  0  0  0  0  0  0  0  0
  -24.2500  -36.6130   23.3280 C   0  0  0  0  0  1  0  0  0  0  0  0
  -25.4820  -36.1680   24.1310 C   0  0  0  0  0  3  0  0  0  0  0  0
  -27.6180  -37.0040   25.0030 C   0  0  0  0  0  1  0  0  0  0  0  0
  -26.5280  -37.2100   24.0540 N   0  0  0  0  0  0  0  0  0  0  0  0
  -26.1310  -38.1300   24.2260 H   0  0  0  0  0  0  0  0  0  0  0  0
  -26.3730  -31.5030   25.2370 C   0  0  1  0  0  0  0  0  0  0  0  0
  -25.2630  -31.2400   26.2800 C   0  0  0  0  0  1  0  0  0  0  0  0
  -26.9400  -30.1330   24.7970 C   0  0  0  0  0  1  0  0  0  0  0  0
  -27.5250  -32.2540   25.9430 C   0  0  0  0  0  1  0  0  0  0  0  0
  1  3  1  0
  1 46  1  0
  3  4  1  6
  3  5  1  0
  3  2  1  0
  5  2  1  0
  5  6  1  1
  7  5  1  0
  7  8  1  0
  9 10  1  0
  9  8  1  0
 10 16  1  0
 11 16  1  0
 12 13  1  0
 12 11  1  0
 14 13  1  0
 14 21  1  0
 14 15  1  0
 16 15  1  0
 17 10  2  0
 18 19  2  0
 19 38  1  0
 20 19  1  0
 20 23  1  0
 21 18  1  0
 21 22  1  0
 22 20  2  0
 23 24  1  0
 24 25  2  0
 26 29  1  0
 26 25  1  0
 27 26  2  0
 28 27  1  0
 28 23  2  0
 29 30  1  0
 30 35  2  0
 30 31  1  0
 31 32  2  0
 32 33  1  0
 33 37  1  0
 34 33  2  0
 35 34  1  0
 36 35  1  0
 38 39  1  0
 39 42  1  0
 39 41  1  0
 40 38  2  0
 43 18  1  0
 44 43  1  0
 45 43  1  0
 47 46  1  0
 47 48  1  0
 49 48  1  0
 49 50  1  0
 50 52  1  0
 51 62  2  0
 52 57  1  0
 53 61  1  0
 53 63  1  0
 54 60  1  0
 54 56  1  0
 55 61  1  0
 56 55  1  0
 57 56  2  0
 58 59  1  0
 58 52  2  0
 59 54  2  0
 60 53  1  0
 61 51  1  0
 63 65  2  0
 64 63  1  0
 66 64  1  0
 67 76  2  0
 67 72  1  0
 68 64  1  0
 68 72  1  0
 69 68  1  0
 70 71  1  0
 70 69  1  0
 71 67  1  0
 72 73  2  0
 73 74  1  0
 75 74  2  0
 76 75  1  0
 77 51  1  0
 77 78  1  0
 77 87  1  0
 78 81  1  0
 79 83  1  0
 79 78  1  0
 80 79  2  0
 83 82  1  0
 85 83  1  0
 85 86  1  0
 85 84  1  0
 87 90  1  1
 87 88  1  0
 89 87  1  0
M  ISO  4   9 100  10 100  49 101  50 101
M  END
>  <TORSDO>  (51) 
F 24

>  <SCORE>  (51) 
-10.225

>  <name>  (51) 
50

>  <ligand_id>  (51) 
50

>  <original_smiles>  (51) 
[H]c1c([H])c([H])c2c(c1[H])C([H])([H])C([H])([H])C([H])([H])C2([H])N([H])C(=O)C1([H])N(C(=O)C([H])(N([H])C(=O)C([H])(N([H])C([H])([H])[H])C([H])([H])[H])C(C([H])([H])[H])(C([H])([H])[H])C([H])([H])[H])C([H])([H])c2c([H])c(OC([H])([H])C([H])([H])C([H])([H])C([H])([H])C([H])([H])C3(C([H])([H])[H])C([H])([H])[N+]3([H])C([H])([H])C([H])([H])C([H])([H])C(=O)N3C([H])([H])C([H])([H])C([H])([H])C([H])(n4nc(-c5c([H])c([H])c(Oc6c([H])c([H])c(F)c([H])c6F)c([H])c5[H])c(C(=O)N([H])[H])c4N([H])[H])C3([H])[H])c([H])c([H])c2C1([H])[H]

>  <smiles>  (51) 
[H]c1c([H])c([H])c2c(c1[H])C([H])([H])C([H])([H])C([H])([H])C2([H])N([H])C(=O)C1([H])N(C(=O)C([H])(N([H])C(=O)C([H])(N([H])C([H])([H])[H])C([H])([H])[H])C(C([H])([H])[H])(C([H])([H])[H])C([H])([H])[H])C([H])([H])c2c([H])c(OC([H])([H])C([H])([H])C([H])([H])C([H])([H])C([H])([H])C3(C([H])([H])[H])C([H])([H])[N+]3([H])C([H])([H])C([H])([H])C([H])([H])C(=O)N3C([H])([H])C([H])([H])C([H])([H])C([H])(n4nc(-c5c([H])c([H])c(Oc6c([H])c([H])c(F)c([H])c6F)c([H])c5[H])c(C(=O)N([H])[H])c4N([H])[H])C3([H])[H])c([H])c([H])c2C1([H])[H]

$$$$
51:0:0
     RDKit          3D

 88 96  0  0  1  0  0  0  0  0999 V2000
  -28.5870  -21.8480   20.0400 C   0  0  0  0  0  3  0  0  0  0  0  0
  -28.8300  -23.4280   20.5350 C   0  0  0  0  0  3  0  0  0  0  0  0
  -27.9460  -24.7400   19.9940 C   0  0  0  0  0  3  0  0  0  0  0  0
  -28.2180  -26.2420   20.2530 O   0  0  0  0  0  0  0  0  0  0  0  0
  -24.6090  -31.8970   23.2380 C   0  0  0  0  0  0  0  0  0  0  0  0
  -27.1680  -27.2190   20.1730 C   0  0  0  0  0  0  0  0  0  0  0  0
  -23.3990  -30.5020   21.6050 C   0  0  0  0  0  3  0  0  0  0  0  0
  -24.8390  -28.9440   20.1600 C   0  0  0  0  0  0  0  0  0  0  0  0
  -25.9510  -30.7800   21.4240 C   0  0  0  0  0  2  0  0  0  0  0  0
  -26.0200  -29.3940   20.7650 C   0  0  0  0  0  0  0  0  0  0  0  0
  -27.1850  -28.5430   20.7620 C   0  0  0  0  0  3  0  0  0  0  0  0
  -25.9680  -26.8760   19.5120 C   0  0  0  0  0  3  0  0  0  0  0  0
  -24.8260  -27.6990   19.5180 C   0  0  0  0  0  3  0  0  0  0  0  0
  -23.6100  -29.8340   20.2210 C   0  0  0  0  0  2  0  0  0  0  0  0
  -24.6720  -31.0810   22.1420 N   0  0  0  0  0  0  0  0  0  0  0  0
  -23.5270  -32.1770   23.7760 O   0  0  0  0  0  0  0  0  0  0  0  0
  -22.7360  -29.4860   22.5680 C   0  0  0  0  0  0  0  0  0  0  0  0
  -21.4080  -29.3090   22.4510 N   0  0  0  0  0  0  0  0  0  0  0  0
  -23.4180  -28.8640   23.3880 O   0  0  0  0  0  0  0  0  0  0  0  0
  -20.9140  -29.8610   21.7630 H   0  0  0  0  0  0  0  0  0  0  0  0
  -18.0380  -28.0850   22.9620 C   0  0  0  0  0  0  0  0  0  0  0  0
  -20.5950  -28.3670   23.2240 C   0  0  0  0  0  3  0  0  0  0  0  0
  -20.7060  -26.9360   22.6520 C   0  0  0  0  0  2  0  0  0  0  0  0
  -19.6040  -26.6020   21.6410 C   0  0  0  0  0  2  0  0  0  0  0  0
  -18.2230  -26.7340   22.2890 C   0  0  0  0  0  2  0  0  0  0  0  0
  -19.1510  -28.8570   23.3870 C   0  0  0  0  0  0  0  0  0  0  0  0
  -18.9240  -30.1210   23.9760 C   0  0  0  0  0  3  0  0  0  0  0  0
  -17.6160  -30.6130   24.1430 C   0  0  0  0  0  3  0  0  0  0  0  0
  -16.5170  -29.8380   23.7340 C   0  0  0  0  0  3  0  0  0  0  0  0
  -16.7290  -28.5770   23.1470 C   0  0  0  0  0  3  0  0  0  0  0  0
  -25.8910  -32.5320   23.8560 C   0  0  0  0  0  3  0  0  0  0  0  0
  -25.5790  -33.9300   24.1880 N   0  0  0  0  0  0  0  0  0  0  0  0
  -25.9110  -34.9880   23.4350 C   0  0  0  0  0  0  0  0  0  0  0  0
  -26.5820  -34.8890   22.4050 O   0  0  0  0  0  0  0  0  0  0  0  0
  -24.9810  -34.0790   24.9870 H   0  0  0  0  0  0  0  0  0  0  0  0
  -24.1920  -36.7920   23.0870 C   0  0  0  0  0  1  0  0  0  0  0  0
  -25.4250  -36.3740   23.9010 C   0  0  0  0  0  3  0  0  0  0  0  0
  -27.5550  -37.2500   24.7560 C   0  0  0  0  0  1  0  0  0  0  0  0
  -26.4610  -37.4250   23.8040 N   0  0  0  0  0  0  0  0  0  0  0  0
  -26.0560  -38.3450   23.9540 H   0  0  0  0  0  0  0  0  0  0  0  0
  -26.4100  -31.7640   25.1350 C   0  0  1  0  0  0  0  0  0  0  0  0
  -25.3190  -31.5330   26.2080 C   0  0  0  0  0  1  0  0  0  0  0  0
  -26.9920  -30.3830   24.7510 C   0  0  0  0  0  1  0  0  0  0  0  0
  -27.5600  -32.5620   25.7910 C   0  0  0  0  0  1  0  0  0  0  0  0
  -29.2640  -20.4550   20.7040 C   0  0  0  0  0  3  0  0  0  0  0  0
  -27.9560  -17.5490   18.5630 C   0  0  0  0  0  2  0  0  0  0  0  0
  -29.4810  -17.2920   18.5630 C   0  0  0  0  0  2  0  0  0  0  0  0
  -27.7090  -18.6760   19.5840 C   0  0  0  0  0  2  0  0  0  0  0  0
  -29.9490  -17.7500   19.9530 C   0  0  0  0  0  3  0  0  0  0  0  0
  -29.0640  -19.0590   20.0050 N   0  0  2  0  0  4  0  0  0  0  0  0
  -29.3890  -19.3990   19.1130 H   0  0  0  0  0  0  0  0  0  0  0  0
  -29.7870  -16.3720   20.8860 C   0  0  0  0  0  2  0  0  0  0  0  0
  -30.5930  -14.9660   20.5480 C   0  0  0  0  0  0  0  0  0  0  0  0
  -30.5210  -12.6430   19.5540 C   0  0  0  0  0  2  0  0  0  0  0  0
  -29.6290  -12.6690   18.2930 C   0  0  0  0  0  2  0  0  0  0  0  0
  -28.1470  -12.4630   18.6690 C   0  0  0  0  0  2  0  0  0  0  0  0
  -27.7090  -13.3540   19.8590 C   0  0  0  0  0  3  0  0  0  0  0  0
  -28.7230  -13.2950   21.0190 C   0  0  0  0  0  2  0  0  0  0  0  0
  -30.0260  -13.6990   20.4820 N   0  0  0  0  0  0  0  0  0  0  0  0
  -31.7830  -15.0490   20.2260 O   0  0  0  0  0  0  0  0  0  0  0  0
  -25.2900  -13.9240   20.4830 C   0  0  0  0  0  0  0  0  0  0  0  0
  -24.2210  -13.1440   20.8260 C   0  0  0  0  0  0  0  0  0  0  0  0
  -24.7030  -11.7980   20.8410 C   0  0  0  0  0  0  0  0  0  0  0  0
  -26.3520  -13.0540   20.3010 N   0  0  0  0  0  0  0  0  0  0  0  0
  -26.0060  -11.7720   20.5820 N   0  0  0  0  0  0  0  0  0  0  0  0
  -23.9850  -10.5330   21.0300 C   0  0  0  0  0  0  0  0  0  0  0  0
  -24.3970   -9.5840   21.9910 C   0  0  0  0  0  3  0  0  0  0  0  0
  -23.6760   -8.3830   22.1640 C   0  0  0  0  0  3  0  0  0  0  0  0
  -22.5310   -8.1210   21.3750 C   0  0  0  0  0  0  0  0  0  0  0  0
  -22.1420   -9.0590   20.4010 C   0  0  0  0  0  3  0  0  0  0  0  0
  -22.8640  -10.2510   20.2260 C   0  0  0  0  0  3  0  0  0  0  0  0
  -21.7830   -6.9710   21.4570 O   0  0  0  0  0  0  0  0  0  0  0  0
  -21.7030   -6.2440   22.6180 C   0  0  0  0  0  0  0  0  0  0  0  0
  -21.2290   -6.8110   23.8220 C   0  0  0  0  0  3  0  0  0  0  0  0
  -21.0950   -6.0090   24.9730 C   0  0  0  0  0  3  0  0  0  0  0  0
  -21.4260   -4.6410   24.9220 C   0  0  0  0  0  0  0  0  0  0  0  0
  -21.8920   -4.0740   23.7230 C   0  0  0  0  0  3  0  0  0  0  0  0
  -22.0260   -4.8730   22.5740 C   0  0  0  0  0  0  0  0  0  0  0  0
  -22.4540   -4.3150   21.4160 F   0  0  0  0  0  0  0  0  0  0  0  0
  -21.2920   -3.8700   26.0270 F   0  0  0  0  0  0  0  0  0  0  0  0
  -22.8100  -13.6070   21.0370 C   0  0  0  0  0  0  0  0  0  0  0  0
  -22.0550  -12.9190   21.8850 N   0  0  0  0  0  0  0  0  0  0  0  0
  -22.3830  -14.6180   20.4790 O   0  0  0  0  0  0  0  0  0  0  0  0
  -22.4140  -12.1030   22.3610 H   0  0  0  0  0  0  0  0  0  0  0  0
  -21.1040  -13.2130   22.0620 H   0  0  0  0  0  0  0  0  0  0  0  0
  -25.4440  -15.2940   20.2890 N   0  0  0  0  0  0  0  0  0  0  0  0
  -24.6650  -15.9410   20.3680 H   0  0  0  0  0  0  0  0  0  0  0  0
  -26.3060  -15.7420   20.0140 H   0  0  0  0  0  0  0  0  0  0  0  0
  1  2  1  0
  1 45  2  0
  3  4  1  0
  3  2  2  0
  5 16  2  0
  6  4  1  0
  6 11  1  0
  7 15  1  0
  7 17  1  0
  8 14  1  0
  8 10  1  0
  9 15  1  0
 10  9  1  0
 11 10  2  0
 12 13  1  0
 12  6  2  0
 13  8  2  0
 14  7  1  0
 15  5  1  0
 17 19  2  0
 18 17  1  0
 20 18  1  0
 21 30  2  0
 21 26  1  0
 22 18  1  0
 22 26  1  0
 23 22  1  0
 24 25  1  0
 24 23  1  0
 25 21  1  0
 26 27  2  0
 27 28  1  0
 29 28  2  0
 30 29  1  0
 31  5  1  0
 31 32  1  0
 31 41  1  0
 32 35  1  0
 33 37  1  0
 33 32  1  0
 34 33  2  0
 37 36  1  0
 39 37  1  0
 39 40  1  0
 39 38  1  0
 41 44  1  1
 41 42  1  0
 43 41  1  0
 46 47  1  0
 46 48  1  0
 47 49  1  0
 48 50  1  0
 49 50  1  0
 49 52  1  0
 50 45  1  0
 50 51  1  6
 53 52  1  0
 54 59  1  0
 55 56  1  0
 55 54  1  0
 57 56  1  0
 57 64  1  0
 57 58  1  0
 59 53  1  0
 59 58  1  0
 60 53  2  0
 61 62  2  0
 62 63  1  0
 62 81  1  0
 63 66  1  0
 64 61  1  0
 64 65  1  0
 65 63  2  0
 66 67  1  0
 67 68  2  0
 69 72  1  0
 69 68  1  0
 70 69  2  0
 71 70  1  0
 71 66  2  0
 72 73  1  0
 73 74  1  0
 74 75  2  0
 76 75  1  0
 76 80  1  0
 77 76  2  0
 78 73  2  0
 78 77  1  0
 79 78  1  0
 81 82  1  0
 82 85  1  0
 82 84  1  0
 83 81  2  0
 86 87  1  0
 86 61  1  0
 88 86  1  0
M  ISO  4   3 101   4 101  52 100  53 100
M  END
>  <TORSDO>  (52) 
F 21

>  <SCORE>  (52) 
-13.425

>  <name>  (52) 
51

>  <ligand_id>  (52) 
51

>  <original_smiles>  (52) 
[H]c1c([H])c([H])c2c(c1[H])C([H])([H])C([H])([H])C([H])([H])C2([H])N([H])C(=O)C1([H])N(C(=O)C([H])(N([H])C(=O)C([H])(N([H])C([H])([H])[H])C([H])([H])[H])C(C([H])([H])[H])(C([H])([H])[H])C([H])([H])[H])C([H])([H])c2c([H])c(OC([H])([H])C([H])([H])C([H])([H])C([H])([H])[N+]3([H])C([H])([H])C([H])([H])C([H])([H])C3([H])C([H])([H])C(=O)N3C([H])([H])C([H])([H])C([H])([H])C([H])(n4nc(-c5c([H])c([H])c(Oc6c([H])c([H])c(F)c([H])c6F)c([H])c5[H])c(C(=O)N([H])[H])c4N([H])[H])C3([H])[H])c([H])c([H])c2C1([H])[H]

>  <smiles>  (52) 
[H]c1c([H])c([H])c2c(c1[H])C([H])([H])C([H])([H])C([H])([H])C2([H])N([H])C(=O)C1([H])N(C(=O)C([H])(N([H])C(=O)C([H])(N([H])C([H])([H])[H])C([H])([H])[H])C(C([H])([H])[H])(C([H])([H])[H])C([H])([H])[H])C([H])([H])c2c([H])c(OC([H])([H])C([H])([H])C([H])([H])C([H])([H])[N+]3([H])C([H])([H])C([H])([H])C([H])([H])C3([H])C([H])([H])C(=O)N3C([H])([H])C([H])([H])C([H])([H])C([H])(n4nc(-c5c([H])c([H])c(Oc6c([H])c([H])c(F)c([H])c6F)c([H])c5[H])c(C(=O)N([H])[H])c4N([H])[H])C3([H])[H])c([H])c([H])c2C1([H])[H]

$$$$
52:0:0
     RDKit          3D

 92101  0  0  1  0  0  0  0  0999 V2000
  -30.2670  -24.1990   22.2150 C   0  0  0  0  0  2  0  0  0  0  0  0
  -29.8170  -22.7340   22.3010 C   0  0  0  0  0  2  0  0  0  0  0  0
  -28.4500  -21.1210   20.8440 C   0  0  0  0  0  2  0  0  0  0  0  0
  -30.6470  -21.9080   20.0060 C   0  0  0  0  0  2  0  0  0  0  0  0
  -28.7970  -23.6330   20.3500 C   0  0  0  0  0  2  0  0  0  0  0  0
  -29.1100  -19.7860   21.2760 C   0  0  0  0  0  2  0  0  0  0  0  0
  -31.2760  -20.5500   20.4040 C   0  0  0  0  0  2  0  0  0  0  0  0
  -29.6180  -24.7970   20.9510 C   0  0  0  0  0  3  0  0  0  0  0  0
  -29.4290  -22.3160   20.8700 C   0  0  2  0  0  0  0  0  0  0  0  0
  -30.2910  -19.4310   20.4360 N   0  0  1  0  0  4  0  0  0  0  0  0
  -29.9620  -19.3170   19.4890 H   0  0  0  0  0  0  0  0  0  0  0  0
  -28.8300  -26.1090   21.2270 C   0  0  0  0  0  2  0  0  0  0  0  0
  -28.4490  -26.7490   20.0090 O   0  0  0  0  0  0  0  0  0  0  0  0
  -24.5860  -31.8680   23.1940 C   0  0  0  0  0  0  0  0  0  0  0  0
  -27.2980  -27.4980   20.0720 C   0  0  0  0  0  0  0  0  0  0  0  0
  -23.4050  -30.4750   21.5230 C   0  0  0  0  0  3  0  0  0  0  0  0
  -24.8870  -28.9710   20.0890 C   0  0  0  0  0  0  0  0  0  0  0  0
  -25.9280  -30.8600   21.3530 C   0  0  0  0  0  2  0  0  0  0  0  0
  -26.0330  -29.4970   20.7010 C   0  0  0  0  0  0  0  0  0  0  0  0
  -27.2420  -28.7630   20.7000 C   0  0  0  0  0  3  0  0  0  0  0  0
  -26.1430  -26.9880   19.4500 C   0  0  0  0  0  3  0  0  0  0  0  0
  -24.9360  -27.7140   19.4620 C   0  0  0  0  0  3  0  0  0  0  0  0
  -23.6330  -29.8140   20.1380 C   0  0  0  0  0  2  0  0  0  0  0  0
  -24.6560  -31.0830   22.0820 N   0  0  0  0  0  0  0  0  0  0  0  0
  -23.4980  -32.1210   23.7320 O   0  0  0  0  0  0  0  0  0  0  0  0
  -22.7570  -29.4350   22.4660 C   0  0  0  0  0  0  0  0  0  0  0  0
  -21.4300  -29.2650   22.3480 N   0  0  0  0  0  0  0  0  0  0  0  0
  -23.4440  -28.7850   23.2590 O   0  0  0  0  0  0  0  0  0  0  0  0
  -20.9360  -29.8440   21.6830 H   0  0  0  0  0  0  0  0  0  0  0  0
  -18.0500  -28.1000   22.8730 C   0  0  0  0  0  0  0  0  0  0  0  0
  -20.6160  -28.3110   23.1010 C   0  0  0  0  0  3  0  0  0  0  0  0
  -20.6850  -26.9000   22.4720 C   0  0  0  0  0  2  0  0  0  0  0  0
  -19.5560  -26.6270   21.4740 C   0  0  0  0  0  2  0  0  0  0  0  0
  -18.1910  -26.7720   22.1500 C   0  0  0  0  0  2  0  0  0  0  0  0
  -19.1880  -28.8310   23.3050 C   0  0  0  0  0  0  0  0  0  0  0  0
  -19.0000  -30.0780   23.9390 C   0  0  0  0  0  3  0  0  0  0  0  0
  -17.7070  -30.5920   24.1480 C   0  0  0  0  0  3  0  0  0  0  0  0
  -16.5840  -29.8560   23.7350 C   0  0  0  0  0  3  0  0  0  0  0  0
  -16.7560  -28.6120   23.1030 C   0  0  0  0  0  3  0  0  0  0  0  0
  -25.8630  -32.5010   23.8310 C   0  0  0  0  0  3  0  0  0  0  0  0
  -26.3710  -31.7290   25.1090 C   0  0  1  0  0  0  0  0  0  0  0  0
  -25.2690  -31.4740   26.1630 C   0  0  0  0  0  1  0  0  0  0  0  0
  -26.9720  -30.3590   24.7160 C   0  0  0  0  0  1  0  0  0  0  0  0
  -27.5070  -32.5300   25.7890 C   0  0  0  0  0  1  0  0  0  0  0  0
  -25.5480  -33.8990   24.1590 N   0  0  0  0  0  0  0  0  0  0  0  0
  -25.8960  -34.9530   23.4070 C   0  0  0  0  0  0  0  0  0  0  0  0
  -26.5850  -34.8510   22.3900 O   0  0  0  0  0  0  0  0  0  0  0  0
  -24.9450  -34.0550   24.9530 H   0  0  0  0  0  0  0  0  0  0  0  0
  -24.1790  -36.7450   23.0100 C   0  0  0  0  0  1  0  0  0  0  0  0
  -25.3970  -36.3390   23.8560 C   0  0  0  0  0  3  0  0  0  0  0  0
  -27.5070  -37.2150   24.7520 C   0  0  0  0  0  1  0  0  0  0  0  0
  -26.4330  -37.3910   23.7790 N   0  0  0  0  0  0  0  0  0  0  0  0
  -26.0220  -38.3100   23.9240 H   0  0  0  0  0  0  0  0  0  0  0  0
  -30.9470  -18.1400   20.8220 C   0  0  0  0  0  2  0  0  0  0  0  0
  -30.0580  -16.8690   20.6950 C   0  0  0  0  0  2  0  0  0  0  0  0
  -30.7130  -15.5690   21.2520 C   0  0  0  0  0  2  0  0  0  0  0  0
  -31.0840  -14.5020   20.1930 C   0  0  0  0  0  0  0  0  0  0  0  0
  -30.6920  -12.3490   19.0230 C   0  0  0  0  0  2  0  0  0  0  0  0
  -29.7470  -12.5200   17.8190 C   0  0  0  0  0  2  0  0  0  0  0  0
  -28.2780  -12.4010   18.2680 C   0  0  0  0  0  2  0  0  0  0  0  0
  -27.9620  -13.3030   19.4900 C   0  0  0  0  0  3  0  0  0  0  0  0
  -29.0140  -13.1130   20.6050 C   0  0  0  0  0  2  0  0  0  0  0  0
  -30.3490  -13.3650   20.0350 N   0  0  0  0  0  0  0  0  0  0  0  0
  -32.0990  -14.7170   19.5220 O   0  0  0  0  0  0  0  0  0  0  0  0
  -25.5930  -13.9960   20.2330 C   0  0  0  0  0  0  0  0  0  0  0  0
  -24.5070  -13.2610   20.6290 C   0  0  0  0  0  0  0  0  0  0  0  0
  -24.9240  -11.8960   20.6000 C   0  0  0  0  0  0  0  0  0  0  0  0
  -26.6040  -13.0790   19.9900 N   0  0  0  0  0  0  0  0  0  0  0  0
  -26.2060  -11.8120   20.2690 N   0  0  0  0  0  0  0  0  0  0  0  0
  -24.1620  -10.6590   20.8180 C   0  0  0  0  0  0  0  0  0  0  0  0
  -24.5560   -9.7110   21.7880 C   0  0  0  0  0  3  0  0  0  0  0  0
  -23.7980   -8.5360   21.9890 C   0  0  0  0  0  3  0  0  0  0  0  0
  -22.6340   -8.3020   21.2210 C   0  0  0  0  0  0  0  0  0  0  0  0
  -22.2590   -9.2400   20.2420 C   0  0  0  0  0  3  0  0  0  0  0  0
  -23.0160  -10.4060   20.0390 C   0  0  0  0  0  3  0  0  0  0  0  0
  -21.8480   -7.1800   21.3290 O   0  0  0  0  0  0  0  0  0  0  0  0
  -21.7240   -6.5000   22.5150 C   0  0  0  0  0  0  0  0  0  0  0  0
  -21.2540   -7.1280   23.6870 C   0  0  0  0  0  3  0  0  0  0  0  0
  -21.0790   -6.3770   24.8670 C   0  0  0  0  0  3  0  0  0  0  0  0
  -21.3600   -4.9980   24.8730 C   0  0  0  0  0  0  0  0  0  0  0  0
  -21.8190   -4.3690   23.7030 C   0  0  0  0  0  3  0  0  0  0  0  0
  -21.9980   -5.1170   22.5260 C   0  0  0  0  0  0  0  0  0  0  0  0
  -22.4230   -4.5020   21.3950 F   0  0  0  0  0  0  0  0  0  0  0  0
  -21.1840   -4.2740   26.0040 F   0  0  0  0  0  0  0  0  0  0  0  0
  -23.1300  -13.7850   20.9230 C   0  0  0  0  0  0  0  0  0  0  0  0
  -22.3970  -13.1280   21.8160 N   0  0  0  0  0  0  0  0  0  0  0  0
  -22.7110  -14.8130   20.3910 O   0  0  0  0  0  0  0  0  0  0  0  0
  -22.7420  -12.2950   22.2690 H   0  0  0  0  0  0  0  0  0  0  0  0
  -21.4720  -13.4630   22.0490 H   0  0  0  0  0  0  0  0  0  0  0  0
  -25.8020  -15.3570   20.0390 N   0  0  0  0  0  0  0  0  0  0  0  0
  -25.0610  -16.0420   20.1390 H   0  0  0  0  0  0  0  0  0  0  0  0
  -26.6710  -15.7590   19.7130 H   0  0  0  0  0  0  0  0  0  0  0  0
  1  2  1  0
  9  3  1  1
  3  6  1  0
  4  7  1  0
  5  9  1  0
  5  8  1  0
  7 10  1  0
  8 12  1  0
  8  1  1  0
  9  4  1  0
  9  2  1  0
 10 54  1  0
 10  6  1  0
 10 11  1  6
 13 15  1  0
 13 12  1  0
 14 25  2  0
 15 20  1  0
 16 24  1  0
 16 26  1  0
 17 23  1  0
 17 19  1  0
 18 24  1  0
 19 18  1  0
 20 19  2  0
 21 22  1  0
 21 15  2  0
 22 17  2  0
 23 16  1  0
 24 14  1  0
 26 28  2  0
 27 26  1  0
 29 27  1  0
 30 39  2  0
 30 35  1  0
 31 27  1  0
 31 35  1  0
 32 31  1  0
 33 34  1  0
 33 32  1  0
 34 30  1  0
 35 36  2  0
 36 37  1  0
 38 37  2  0
 39 38  1  0
 40 14  1  0
 40 45  1  0
 40 41  1  0
 41 44  1  1
 41 42  1  0
 43 41  1  0
 45 48  1  0
 46 50  1  0
 46 45  1  0
 47 46  2  0
 50 49  1  0
 52 50  1  0
 52 53  1  0
 52 51  1  0
 55 54  1  0
 55 56  1  0
 57 56  1  0
 58 63  1  0
 59 60  1  0
 59 58  1  0
 61 60  1  0
 61 68  1  0
 61 62  1  0
 63 57  1  0
 63 62  1  0
 64 57  2  0
 65 66  2  0
 66 85  1  0
 67 66  1  0
 67 70  1  0
 68 65  1  0
 68 69  1  0
 69 67  2  0
 70 71  1  0
 71 72  2  0
 73 76  1  0
 73 72  1  0
 74 73  2  0
 75 74  1  0
 75 70  2  0
 76 77  1  0
 77 82  2  0
 77 78  1  0
 78 79  2  0
 79 80  1  0
 80 84  1  0
 81 80  2  0
 82 81  1  0
 83 82  1  0
 85 86  1  0
 86 89  1  0
 86 88  1  0
 87 85  2  0
 90 91  1  0
 90 65  1  0
 92 90  1  0
M  ISO  4  12 101  13 101  56 100  57 100
M  END
>  <TORSDO>  (53) 
F 20

>  <SCORE>  (53) 
-13.521

>  <name>  (53) 
52

>  <ligand_id>  (53) 
52

>  <original_smiles>  (53) 
[H]c1c([H])c([H])c2c(c1[H])C([H])([H])C([H])([H])C([H])([H])C2([H])N([H])C(=O)C1([H])N(C(=O)C([H])(N([H])C(=O)C([H])(N([H])C([H])([H])[H])C([H])([H])[H])C(C([H])([H])[H])(C([H])([H])[H])C([H])([H])[H])C([H])([H])c2c([H])c(OC([H])([H])C3([H])C([H])([H])C([H])([H])C4(C3([H])[H])C([H])([H])C([H])([H])[N+]([H])(C([H])([H])C([H])([H])C([H])([H])C(=O)N3C([H])([H])C([H])([H])C([H])([H])C([H])(n5nc(-c6c([H])c([H])c(Oc7c([H])c([H])c(F)c([H])c7F)c([H])c6[H])c(C(=O)N([H])[H])c5N([H])[H])C3([H])[H])C([H])([H])C4([H])[H])c([H])c([H])c2C1([H])[H]

>  <smiles>  (53) 
[H]c1c([H])c([H])c2c(c1[H])C([H])([H])C([H])([H])C([H])([H])C2([H])N([H])C(=O)C1([H])N(C(=O)C([H])(N([H])C(=O)C([H])(N([H])C([H])([H])[H])C([H])([H])[H])C(C([H])([H])[H])(C([H])([H])[H])C([H])([H])[H])C([H])([H])c2c([H])c(OC([H])([H])C3([H])C([H])([H])C([H])([H])C4(C3([H])[H])C([H])([H])C([H])([H])[N+]([H])(C([H])([H])C([H])([H])C([H])([H])C(=O)N3C([H])([H])C([H])([H])C([H])([H])C([H])(n5nc(-c6c([H])c([H])c(Oc7c([H])c([H])c(F)c([H])c7F)c([H])c6[H])c(C(=O)N([H])[H])c5N([H])[H])C3([H])[H])C([H])([H])C4([H])[H])c([H])c([H])c2C1([H])[H]

$$$$
53:0:0
     RDKit          3D

 98107  0  0  1  0  0  0  0  0999 V2000
  -28.1430  -21.8300   23.6140 C   0  0  0  0  0  1  0  0  0  0  0  0
  -29.0670  -21.9940   22.3740 C   0  0  0  0  0  3  0  0  0  0  0  0
  -32.8280  -20.7370   22.8240 C   0  0  0  0  0  2  0  0  0  0  0  0
  -33.1420  -20.2310   21.4080 C   0  0  0  0  0  2  0  0  0  0  0  0
  -31.9550  -22.2350   21.1830 C   0  0  0  0  0  2  0  0  0  0  0  0
  -31.6590  -21.7160   22.5870 C   0  0  0  0  0  3  0  0  0  0  0  0
  -31.9800  -20.8360   20.5870 C   0  0  0  0  0  3  0  0  0  0  0  0
  -30.2980  -20.9720   22.3810 C   0  0  0  0  0  3  0  0  0  0  0  0
  -30.5990  -20.2390   21.0050 C   0  0  0  0  0  3  0  0  0  0  0  0
  -30.7290  -18.7500   21.0610 N   0  0  0  0  0  4  0  0  0  0  0  0
  -30.6610  -18.4810   22.0280 H   0  0  0  0  0  0  0  0  0  0  0  0
  -31.6690  -18.5370   20.7570 H   0  0  0  0  0  0  0  0  0  0  0  0
  -29.8240  -17.9050   20.2390 C   0  0  0  0  0  2  0  0  0  0  0  0
  -29.4020  -16.6020   20.9720 C   0  0  0  0  0  2  0  0  0  0  0  0
  -30.4090  -15.4210   21.0800 C   0  0  0  0  0  0  0  0  0  0  0  0
  -30.5790  -13.0600   20.3890 C   0  0  0  0  0  2  0  0  0  0  0  0
  -29.8200  -12.8910   19.0530 C   0  0  0  0  0  2  0  0  0  0  0  0
  -28.3240  -12.6170   19.3110 C   0  0  0  0  0  2  0  0  0  0  0  0
  -27.6980  -13.6320   20.3010 C   0  0  0  0  0  3  0  0  0  0  0  0
  -28.5750  -13.7840   21.5640 C   0  0  0  0  0  2  0  0  0  0  0  0
  -29.9330  -14.1480   21.1390 N   0  0  0  0  0  0  0  0  0  0  0  0
  -31.5940  -15.6680   20.8470 O   0  0  0  0  0  0  0  0  0  0  0  0
  -25.2410  -14.1130   20.8780 C   0  0  0  0  0  0  0  0  0  0  0  0
  -24.1740  -13.2810   21.0920 C   0  0  0  0  0  0  0  0  0  0  0  0
  -24.6820  -11.9520   20.9730 C   0  0  0  0  0  0  0  0  0  0  0  0
  -26.3260  -13.2820   20.6450 N   0  0  0  0  0  0  0  0  0  0  0  0
  -25.9900  -11.9750   20.7630 N   0  0  0  0  0  0  0  0  0  0  0  0
  -23.9930  -10.6570   20.9870 C   0  0  0  0  0  0  0  0  0  0  0  0
  -24.3770   -9.6300   21.8740 C   0  0  0  0  0  3  0  0  0  0  0  0
  -23.6820   -8.4020   21.8850 C   0  0  0  0  0  3  0  0  0  0  0  0
  -22.5990   -8.1900   20.9990 C   0  0  0  0  0  0  0  0  0  0  0  0
  -22.2350   -9.2110   20.1040 C   0  0  0  0  0  3  0  0  0  0  0  0
  -22.9300  -10.4320   20.0900 C   0  0  0  0  0  3  0  0  0  0  0  0
  -21.8840   -7.0170   20.9160 O   0  0  0  0  0  0  0  0  0  0  0  0
  -21.5890   -6.2750   22.0300 C   0  0  0  0  0  0  0  0  0  0  0  0
  -20.8780   -6.8200   23.1220 C   0  0  0  0  0  3  0  0  0  0  0  0
  -20.5340   -6.0020   24.2170 C   0  0  0  0  0  3  0  0  0  0  0  0
  -20.8900   -4.6400   24.2200 C   0  0  0  0  0  0  0  0  0  0  0  0
  -21.5930   -4.0960   23.1290 C   0  0  0  0  0  3  0  0  0  0  0  0
  -21.9400   -4.9100   22.0370 C   0  0  0  0  0  0  0  0  0  0  0  0
  -22.5980   -4.3750   20.9810 F   0  0  0  0  0  0  0  0  0  0  0  0
  -20.5630   -3.8520   25.2690 F   0  0  0  0  0  0  0  0  0  0  0  0
  -22.7440  -13.6910   21.2950 C   0  0  0  0  0  0  0  0  0  0  0  0
  -21.9630  -12.8750   21.9940 N   0  0  0  0  0  0  0  0  0  0  0  0
  -22.3220  -14.7650   20.8720 O   0  0  0  0  0  0  0  0  0  0  0  0
  -22.3140  -12.0040   22.3650 H   0  0  0  0  0  0  0  0  0  0  0  0
  -21.0010  -13.1290   22.1680 H   0  0  0  0  0  0  0  0  0  0  0  0
  -25.3770  -15.4970   20.8430 N   0  0  0  0  0  0  0  0  0  0  0  0
  -24.5660  -16.0980   20.9110 H   0  0  0  0  0  0  0  0  0  0  0  0
  -26.1980  -15.9840   20.5000 H   0  0  0  0  0  0  0  0  0  0  0  0
  -28.2280  -21.9290   21.1350 N   0  0  0  0  0  4  0  0  0  0  0  0
  -28.3450  -21.0310   20.7000 H   0  0  0  0  0  0  0  0  0  0  0  0
  -27.2600  -22.0100   21.3980 H   0  0  0  0  0  0  0  0  0  0  0  0
  -28.5130  -22.9440   20.0700 C   0  0  0  0  0  2  0  0  0  0  0  0
  -27.2300  -23.6450   19.5480 C   0  0  0  0  0  2  0  0  0  0  0  0
  -27.4450  -24.7950   18.5210 C   0  0  0  0  0  2  0  0  0  0  0  0
  -26.1130  -25.4790   18.1250 C   0  0  0  0  0  2  0  0  0  0  0  0
  -26.2490  -26.8590   17.7090 O   0  0  0  0  0  0  0  0  0  0  0  0
  -25.7660  -30.6910   23.6900 C   0  0  0  0  0  0  0  0  0  0  0  0
  -25.5270  -27.8210   18.4000 C   0  0  0  0  0  0  0  0  0  0  0  0
  -23.7360  -30.6300   22.2820 C   0  0  0  0  0  3  0  0  0  0  0  0
  -24.0470  -29.6960   19.9320 C   0  0  0  0  0  0  0  0  0  0  0  0
  -26.0600  -30.3870   21.2350 C   0  0  0  0  0  2  0  0  0  0  0  0
  -25.4200  -29.5410   20.1520 C   0  0  0  0  0  0  0  0  0  0  0  0
  -26.1660  -28.6100   19.3870 C   0  0  0  0  0  3  0  0  0  0  0  0
  -24.1500  -28.0440   18.1600 C   0  0  0  0  0  3  0  0  0  0  0  0
  -23.4080  -28.9510   18.9300 C   0  0  0  0  0  3  0  0  0  0  0  0
  -23.3120  -30.6960   20.7910 C   0  0  0  0  0  2  0  0  0  0  0  0
  -25.2230  -30.5520   22.4480 N   0  0  0  0  0  0  0  0  0  0  0  0
  -25.0550  -30.9220   24.6780 O   0  0  0  0  0  0  0  0  0  0  0  0
  -22.9840  -29.4640   22.9610 C   0  0  0  0  0  0  0  0  0  0  0  0
  -21.6450  -29.4700   22.8520 N   0  0  0  0  0  0  0  0  0  0  0  0
  -23.5990  -28.5660   23.5440 O   0  0  0  0  0  0  0  0  0  0  0  0
  -21.2150  -30.2450   22.3660 H   0  0  0  0  0  0  0  0  0  0  0  0
  -18.2560  -28.2300   22.6790 C   0  0  0  0  0  0  0  0  0  0  0  0
  -20.7340  -28.4570   23.3810 C   0  0  0  0  0  3  0  0  0  0  0  0
  -20.9500  -27.0940   22.6850 C   0  0  0  0  0  2  0  0  0  0  0  0
  -20.0280  -26.8800   21.4790 C   0  0  0  0  0  2  0  0  0  0  0  0
  -18.5590  -26.9580   21.9060 C   0  0  0  0  0  2  0  0  0  0  0  0
  -19.2800  -28.9430   23.3590 C   0  0  0  0  0  0  0  0  0  0  0  0
  -18.9500  -30.1390   24.0330 C   0  0  0  0  0  3  0  0  0  0  0  0
  -17.6280  -30.6210   24.0380 C   0  0  0  0  0  3  0  0  0  0  0  0
  -16.6160  -29.9040   23.3750 C   0  0  0  0  0  3  0  0  0  0  0  0
  -16.9310  -28.7090   22.7030 C   0  0  0  0  0  3  0  0  0  0  0  0
  -27.3050  -30.5940   23.9220 C   0  0  0  0  0  3  0  0  0  0  0  0
  -27.7560  -29.2060   24.5260 C   0  0  1  0  0  0  0  0  0  0  0  0
  -26.9610  -28.7910   25.7860 C   0  0  0  0  0  1  0  0  0  0  0  0
  -27.6070  -28.0770   23.4780 C   0  0  0  0  0  1  0  0  0  0  0  0
  -29.2550  -29.2640   24.9040 C   0  0  0  0  0  1  0  0  0  0  0  0
  -27.6840  -31.6970   24.8130 N   0  0  0  0  0  0  0  0  0  0  0  0
  -28.4050  -32.7650   24.4400 C   0  0  0  0  0  0  0  0  0  0  0  0
  -28.8840  -32.8860   23.3090 O   0  0  0  0  0  0  0  0  0  0  0  0
  -27.2730  -31.6960   25.7350 H   0  0  0  0  0  0  0  0  0  0  0  0
  -27.7180  -35.0710   25.1710 C   0  0  0  0  0  1  0  0  0  0  0  0
  -28.6260  -33.8720   25.4860 C   0  0  0  0  0  3  0  0  0  0  0  0
  -30.9280  -33.3170   26.1380 C   0  0  0  0  0  1  0  0  0  0  0  0
  -30.0330  -34.3240   25.5730 N   0  0  0  0  0  0  0  0  0  0  0  0
  -30.1070  -35.1670   26.1370 H   0  0  0  0  0  0  0  0  0  0  0  0
  2  1  1  0
  4  3  1  0
  6  5  1  0
  6  3  1  0
  7  9  1  0
  7  5  1  0
  7  4  1  0
  8  2  1  0
  8  6  1  0
  9 10  1  0
  9  8  1  0
 10 11  1  0
 12 10  1  0
 13 14  1  0
 13 10  1  0
 14 15  1  0
 15 21  1  0
 16 21  1  0
 17 18  1  0
 17 16  1  0
 19 18  1  0
 19 26  1  0
 19 20  1  0
 21 20  1  0
 22 15  2  0
 23 24  2  0
 24 43  1  0
 25 28  1  0
 25 24  1  0
 26 27  1  0
 26 23  1  0
 27 25  2  0
 28 29  1  0
 29 30  2  0
 31 30  1  0
 32 31  2  0
 33 32  1  0
 33 28  2  0
 34 31  1  0
 34 35  1  0
 35 40  2  0
 35 36  1  0
 36 37  2  0
 37 38  1  0
 38 42  1  0
 39 38  2  0
 40 39  1  0
 41 40  1  0
 43 44  1  0
 44 47  1  0
 44 46  1  0
 45 43  2  0
 48 23  1  0
 48 49  1  0
 50 48  1  0
 51 53  1  0
 51  2  1  0
 52 51  1  0
 54 51  1  0
 55 54  1  0
 56 55  1  0
 57 56  1  0
 58 57  1  0
 58 60  1  0
 59 70  2  0
 60 65  1  0
 61 69  1  0
 61 71  1  0
 62 64  1  0
 62 68  1  0
 63 69  1  0
 64 63  1  0
 65 64  2  0
 66 60  2  0
 66 67  1  0
 67 62  2  0
 68 61  1  0
 69 59  1  0
 71 73  2  0
 72 71  1  0
 74 72  1  0
 75 84  2  0
 75 80  1  0
 76 72  1  0
 77 76  1  0
 78 79  1  0
 78 77  1  0
 79 75  1  0
 80 76  1  0
 80 81  2  0
 81 82  1  0
 83 82  2  0
 84 83  1  0
 85 59  1  0
 85 86  1  0
 85 90  1  0
 86 89  1  1
 86 87  1  0
 88 86  1  0
 90 93  1  0
 91 90  1  0
 91 95  1  0
 92 91  2  0
 95 94  1  0
 95 97  1  0
 97 98  1  0
 97 96  1  0
M  ISO  4  14 100  15 100  57 101  58 101
M  END
>  <TORSDO>  (54) 
F 25

>  <SCORE>  (54) 
-7.538

>  <name>  (54) 
53

>  <ligand_id>  (54) 
53

>  <original_smiles>  (54) 
[H]c1c([H])c([H])c2c(c1[H])C([H])([H])C([H])([H])C([H])([H])C2([H])N([H])C(=O)C1([H])N(C(=O)C([H])(N([H])C(=O)C([H])(N([H])C([H])([H])[H])C([H])([H])[H])C(C([H])([H])[H])(C([H])([H])[H])C([H])([H])[H])C([H])([H])c2c([H])c(OC([H])([H])C([H])([H])C([H])([H])C([H])([H])[N+]([H])([H])C([H])(C([H])([H])[H])C3([H])C4([H])C([H])([H])C([H])([H])C([H])(C4([H])[H])C3([H])[N+]([H])([H])C([H])([H])C([H])([H])C(=O)N3C([H])([H])C([H])([H])C([H])([H])C([H])(n4nc(-c5c([H])c([H])c(Oc6c([H])c([H])c(F)c([H])c6F)c([H])c5[H])c(C(=O)N([H])[H])c4N([H])[H])C3([H])[H])c([H])c([H])c2C1([H])[H]

>  <smiles>  (54) 
[H]c1c([H])c([H])c2c(c1[H])C([H])([H])C([H])([H])C([H])([H])C2([H])N([H])C(=O)C1([H])N(C(=O)C([H])(N([H])C(=O)C([H])(N([H])C([H])([H])[H])C([H])([H])[H])C(C([H])([H])[H])(C([H])([H])[H])C([H])([H])[H])C([H])([H])c2c([H])c(OC([H])([H])C([H])([H])C([H])([H])C([H])([H])[N+]([H])([H])C([H])(C([H])([H])[H])C3([H])C4([H])C([H])([H])C([H])([H])C([H])(C4([H])[H])C3([H])[N+]([H])([H])C([H])([H])C([H])([H])C(=O)N3C([H])([H])C([H])([H])C([H])([H])C([H])(n4nc(-c5c([H])c([H])c(Oc6c([H])c([H])c(F)c([H])c6F)c([H])c5[H])c(C(=O)N([H])[H])c4N([H])[H])C3([H])[H])c([H])c([H])c2C1([H])[H]

$$$$
54:0:0
     RDKit          3D

 99108  0  0  1  0  0  0  0  0999 V2000
  -30.1540  -20.2370   20.0630 C   0  0  0  0  0  3  0  0  0  0  0  0
  -28.8490  -18.1480   21.1480 C   0  0  0  0  0  2  0  0  0  0  0  0
  -28.9840  -16.5910   21.1180 C   0  0  0  0  0  2  0  0  0  0  0  0
  -30.7870  -17.6090   19.8640 C   0  0  0  0  0  3  0  0  0  0  0  0
  -30.2110  -18.7700   20.7490 C   0  0  0  0  0  3  0  0  0  0  0  0
  -30.2840  -17.6390   18.4080 C   0  0  0  0  0  3  0  0  0  0  0  0
  -30.0750  -16.2050   20.1050 C   0  0  2  0  0  0  0  0  0  0  0  0
  -29.8220  -16.2120   18.5630 C   0  0  2  0  0  0  0  0  0  0  0  0
  -31.2040  -18.0160   17.2510 C   0  0  0  0  0  1  0  0  0  0  0  0
  -30.6490  -15.4650   17.8370 F   0  0  0  0  0  0  0  0  0  0  0  0
  -28.5650  -16.0870   18.1420 F   0  0  0  0  0  0  0  0  0  0  0  0
  -30.9020  -14.8690   20.4760 C   0  0  0  0  0  0  0  0  0  0  0  0
  -30.7840  -12.4980   19.7400 C   0  0  0  0  0  2  0  0  0  0  0  0
  -29.9020  -12.3740   18.4750 C   0  0  0  0  0  2  0  0  0  0  0  0
  -28.3990  -12.3170   18.8210 C   0  0  0  0  0  2  0  0  0  0  0  0
  -27.9640  -13.2890   19.9530 C   0  0  0  0  0  3  0  0  0  0  0  0
  -28.9770  -13.3200   21.1120 C   0  0  0  0  0  2  0  0  0  0  0  0
  -30.2980  -13.6320   20.5500 N   0  0  0  0  0  0  0  0  0  0  0  0
  -32.1300  -14.9330   20.3910 O   0  0  0  0  0  0  0  0  0  0  0  0
  -25.5530  -13.9330   20.5720 C   0  0  0  0  0  0  0  0  0  0  0  0
  -24.4630  -13.1770   20.9020 C   0  0  0  0  0  0  0  0  0  0  0  0
  -24.9110  -11.8210   20.8980 C   0  0  0  0  0  0  0  0  0  0  0  0
  -26.5980  -13.0380   20.3950 N   0  0  0  0  0  0  0  0  0  0  0  0
  -26.2130  -11.7640   20.6520 N   0  0  0  0  0  0  0  0  0  0  0  0
  -24.1660  -10.5680   21.0560 C   0  0  0  0  0  0  0  0  0  0  0  0
  -24.5420   -9.6040   22.0170 C   0  0  0  0  0  3  0  0  0  0  0  0
  -23.8010   -8.4120   22.1620 C   0  0  0  0  0  3  0  0  0  0  0  0
  -22.6700   -8.1770   21.3450 C   0  0  0  0  0  0  0  0  0  0  0  0
  -22.3150   -9.1270   20.3730 C   0  0  0  0  0  3  0  0  0  0  0  0
  -23.0560  -10.3100   20.2260 C   0  0  0  0  0  3  0  0  0  0  0  0
  -21.9020   -7.0400   21.4010 O   0  0  0  0  0  0  0  0  0  0  0  0
  -21.7600   -6.3250   22.5640 C   0  0  0  0  0  0  0  0  0  0  0  0
  -21.2070   -6.8980   23.7280 C   0  0  0  0  0  3  0  0  0  0  0  0
  -21.0160   -6.1080   24.8790 C   0  0  0  0  0  3  0  0  0  0  0  0
  -21.3670   -4.7450   24.8660 C   0  0  0  0  0  0  0  0  0  0  0  0
  -21.9120   -4.1700   23.7050 C   0  0  0  0  0  3  0  0  0  0  0  0
  -22.1050   -4.9580   22.5560 C   0  0  0  0  0  0  0  0  0  0  0  0
  -22.6130   -4.3950   21.4330 F   0  0  0  0  0  0  0  0  0  0  0  0
  -21.1750   -3.9840   25.9690 F   0  0  0  0  0  0  0  0  0  0  0  0
  -23.0590  -13.6690   21.1090 C   0  0  0  0  0  0  0  0  0  0  0  0
  -22.2880  -12.9940   21.9530 N   0  0  0  0  0  0  0  0  0  0  0  0
  -22.6550  -14.6920   20.5560 O   0  0  0  0  0  0  0  0  0  0  0  0
  -22.6220  -12.1690   22.4320 H   0  0  0  0  0  0  0  0  0  0  0  0
  -21.3440  -13.3070   22.1290 H   0  0  0  0  0  0  0  0  0  0  0  0
  -25.7300  -15.3010   20.3780 N   0  0  0  0  0  0  0  0  0  0  0  0
  -24.9520  -15.9490   20.4390 H   0  0  0  0  0  0  0  0  0  0  0  0
  -26.5690  -15.7220   20.0020 H   0  0  0  0  0  0  0  0  0  0  0  0
  -29.6420  -21.4270   20.8590 N   0  0  0  0  0  4  0  0  0  0  0  0
  -28.8890  -21.1200   21.4530 H   0  0  0  0  0  0  0  0  0  0  0  0
  -30.3870  -21.7300   21.4650 H   0  0  0  0  0  0  0  0  0  0  0  0
  -29.1340  -22.6190   20.0560 C   0  0  0  0  0  2  0  0  0  0  0  0
  -29.2900  -24.0940   20.6430 C   0  0  0  0  0  2  0  0  0  0  0  0
  -28.3940  -25.1950   19.9270 C   0  0  0  0  0  2  0  0  0  0  0  0
  -28.5500  -26.6330   20.2370 O   0  0  0  0  0  0  0  0  0  0  0  0
  -24.6880  -31.8640   23.3170 C   0  0  0  0  0  0  0  0  0  0  0  0
  -27.4220  -27.4670   20.1530 C   0  0  0  0  0  0  0  0  0  0  0  0
  -23.5350  -30.5180   21.5970 C   0  0  0  0  0  3  0  0  0  0  0  0
  -25.0340  -29.0460   20.1410 C   0  0  0  0  0  0  0  0  0  0  0  0
  -26.0740  -30.8750   21.4840 C   0  0  0  0  0  2  0  0  0  0  0  0
  -26.1830  -29.5260   20.7850 C   0  0  0  0  0  0  0  0  0  0  0  0
  -27.3760  -28.7470   20.7860 C   0  0  0  0  0  3  0  0  0  0  0  0
  -26.2560  -27.0540   19.4630 C   0  0  0  0  0  3  0  0  0  0  0  0
  -25.0730  -27.8150   19.4740 C   0  0  0  0  0  3  0  0  0  0  0  0
  -23.7850  -29.8980   20.1970 C   0  0  0  0  0  2  0  0  0  0  0  0
  -24.7830  -31.1020   22.1880 N   0  0  0  0  0  0  0  0  0  0  0  0
  -23.5910  -32.1100   23.8390 O   0  0  0  0  0  0  0  0  0  0  0  0
  -22.8650  -29.4590   22.5020 C   0  0  0  0  0  0  0  0  0  0  0  0
  -21.5410  -29.2850   22.3490 N   0  0  0  0  0  0  0  0  0  0  0  0
  -23.5350  -28.7960   23.3000 O   0  0  0  0  0  0  0  0  0  0  0  0
  -21.0610  -29.8700   21.6790 H   0  0  0  0  0  0  0  0  0  0  0  0
  -18.1530  -28.0920   22.7810 C   0  0  0  0  0  0  0  0  0  0  0  0
  -20.7140  -28.3150   23.0660 C   0  0  0  0  0  3  0  0  0  0  0  0
  -20.8040  -26.9160   22.4140 C   0  0  0  0  0  2  0  0  0  0  0  0
  -19.6990  -26.6590   21.3840 C   0  0  0  0  0  2  0  0  0  0  0  0
  -18.3170  -26.7820   22.0320 C   0  0  0  0  0  2  0  0  0  0  0  0
  -19.2780  -28.8210   23.2520 C   0  0  0  0  0  0  0  0  0  0  0  0
  -19.0700  -30.0530   23.9100 C   0  0  0  0  0  3  0  0  0  0  0  0
  -17.7690  -30.5560   24.1020 C   0  0  0  0  0  3  0  0  0  0  0  0
  -16.6590  -29.8240   23.6460 C   0  0  0  0  0  3  0  0  0  0  0  0
  -16.8510  -28.5940   22.9930 C   0  0  0  0  0  3  0  0  0  0  0  0
  -25.9520  -32.4820   23.9900 C   0  0  0  0  0  3  0  0  0  0  0  0
  -26.4330  -31.6820   25.2630 C   0  0  1  0  0  0  0  0  0  0  0  0
  -25.3100  -31.4150   26.2920 C   0  0  0  0  0  1  0  0  0  0  0  0
  -27.0340  -30.3150   24.8560 C   0  0  0  0  0  1  0  0  0  0  0  0
  -27.5620  -32.4630   25.9750 C   0  0  0  0  0  1  0  0  0  0  0  0
  -25.6290  -33.8720   24.3470 N   0  0  0  0  0  0  0  0  0  0  0  0
  -25.9840  -34.9450   23.6280 C   0  0  0  0  0  0  0  0  0  0  0  0
  -26.6860  -34.8680   22.6160 O   0  0  0  0  0  0  0  0  0  0  0  0
  -25.0060  -34.0060   25.1300 H   0  0  0  0  0  0  0  0  0  0  0  0
  -24.2760  -36.7510   23.2490 C   0  0  0  0  0  1  0  0  0  0  0  0
  -25.4780  -36.3200   24.1050 C   0  0  0  0  0  3  0  0  0  0  0  0
  -27.5690  -37.1720   25.0680 C   0  0  0  0  0  1  0  0  0  0  0  0
  -26.5170  -37.3730   24.0750 N   0  0  0  0  0  0  0  0  0  0  0  0
  -26.1040  -38.2890   24.2270 H   0  0  0  0  0  0  0  0  0  0  0  0
  -31.4910  -20.6180   19.3610 C   0  0  0  0  0  2  0  0  0  0  0  0
  -32.5470  -21.3810   20.1970 C   0  0  0  0  0  2  0  0  0  0  0  0
  -33.4030  -22.2900   19.2960 C   0  0  0  0  0  2  0  0  0  0  0  0
  -35.1250  -24.1500   19.1420 C   0  0  0  0  0  1  0  0  0  0  0  0
  -34.3970  -23.1680   20.0690 C   0  0  0  0  0  2  0  0  0  0  0  0
  1 95  1  0
  1  5  1  0
  1 48  1  0
  3  2  1  0
  4  7  1  0
  4  5  1  0
  5  2  1  0
  6  8  1  0
  6  4  1  0
  7 12  1  1
  7  3  1  0
  8  7  1  0
  9  6  1  0
  8 10  1  6
 11  8  1  0
 12 18  1  0
 13 18  1  0
 14 15  1  0
 14 13  1  0
 15 16  1  0
 16 23  1  0
 16 17  1  0
 18 17  1  0
 19 12  2  0
 20 21  2  0
 21 40  1  0
 22 21  1  0
 22 25  1  0
 23 20  1  0
 23 24  1  0
 24 22  2  0
 25 26  1  0
 26 27  2  0
 28 31  1  0
 28 27  1  0
 29 28  2  0
 30 29  1  0
 30 25  2  0
 31 32  1  0
 32 33  1  0
 33 34  2  0
 35 34  1  0
 35 39  1  0
 36 35  2  0
 37 32  2  0
 37 36  1  0
 38 37  1  0
 40 41  1  0
 41 44  1  0
 41 43  1  0
 42 40  2  0
 45 46  1  0
 45 20  1  0
 47 45  1  0
 48 49  1  0
 48 50  1  0
 51 52  1  0
 51 48  1  0
 53 54  1  0
 53 52  1  0
 55 66  2  0
 55 81  1  0
 56 54  1  0
 56 61  1  0
 57 65  1  0
 57 67  1  0
 58 64  1  0
 58 60  1  0
 59 65  1  0
 60 61  2  0
 60 59  1  0
 62 63  1  0
 62 56  2  0
 63 58  2  0
 64 57  1  0
 65 55  1  0
 67 69  2  0
 68 67  1  0
 68 72  1  0
 70 68  1  0
 71 80  2  0
 71 76  1  0
 72 76  1  0
 73 72  1  0
 74 75  1  0
 74 73  1  0
 75 71  1  0
 76 77  2  0
 77 78  1  0
 79 78  2  0
 80 79  1  0
 81 86  1  0
 81 82  1  0
 82 85  1  1
 82 83  1  0
 84 82  1  0
 86 89  1  0
 87 91  1  0
 87 86  1  0
 88 87  2  0
 90 91  1  0
 93 91  1  0
 93 94  1  0
 93 92  1  0
 95 96  1  0
 97 99  1  0
 97 96  1  0
 98 99  1  0
M  ISO  4   7 100  12 100  53 101  54 101
M  END
>  <TORSDO>  (55) 
F 25

>  <SCORE>  (55) 
-10.892

>  <name>  (55) 
54

>  <ligand_id>  (55) 
54

>  <original_smiles>  (55) 
[H]c1c([H])c([H])c2c(c1[H])C([H])([H])C([H])([H])C([H])([H])C2([H])N([H])C(=O)C1([H])N(C(=O)C([H])(N([H])C(=O)C([H])(N([H])C([H])([H])[H])C([H])([H])[H])C(C([H])([H])[H])(C([H])([H])[H])C([H])([H])[H])C([H])([H])c2c([H])c(OC([H])([H])C([H])([H])C([H])([H])[N+]([H])([H])C([H])(C([H])([H])C([H])([H])C([H])([H])C([H])([H])C([H])([H])[H])C3([H])C([H])([H])C([H])([H])C4(C(=O)N5C([H])([H])C([H])([H])C([H])([H])C([H])(n6nc(-c7c([H])c([H])c(Oc8c([H])c([H])c(F)c([H])c8F)c([H])c7[H])c(C(=O)N([H])[H])c6N([H])[H])C5([H])[H])C(F)(F)C([H])(C([H])([H])[H])C34[H])c([H])c([H])c2C1([H])[H]

>  <smiles>  (55) 
[H]c1c([H])c([H])c2c(c1[H])C([H])([H])C([H])([H])C([H])([H])C2([H])N([H])C(=O)C1([H])N(C(=O)C([H])(N([H])C(=O)C([H])(N([H])C([H])([H])[H])C([H])([H])[H])C(C([H])([H])[H])(C([H])([H])[H])C([H])([H])[H])C([H])([H])c2c([H])c(OC([H])([H])C([H])([H])C([H])([H])[N+]([H])([H])C([H])(C([H])([H])C([H])([H])C([H])([H])C([H])([H])C([H])([H])[H])C3([H])C([H])([H])C([H])([H])C4(C(=O)N5C([H])([H])C([H])([H])C([H])([H])C([H])(n6nc(-c7c([H])c([H])c(Oc8c([H])c([H])c(F)c([H])c8F)c([H])c7[H])c(C(=O)N([H])[H])c6N([H])[H])C5([H])[H])C(F)(F)C([H])(C([H])([H])[H])C34[H])c([H])c([H])c2C1([H])[H]

$$$$
55:0:0
     RDKit          3D

 92101  0  0  1  0  0  0  0  0999 V2000
  -28.0660  -20.1680   18.0910 C   0  0  0  0  0  2  0  0  0  0  0  0
  -28.0660  -19.0180   19.1050 C   0  0  0  0  0  2  0  0  0  0  0  0
  -28.7810  -21.8110   20.5670 C   0  0  0  0  0  2  0  0  0  0  0  0
  -29.3200  -21.0200   18.4060 C   0  0  0  0  0  3  0  0  0  0  0  0
  -29.4290  -19.1590   19.7650 C   0  0  0  0  0  3  0  0  0  0  0  0
  -29.1300  -23.4230   20.2540 C   0  0  0  0  0  3  0  0  0  0  0  0
  -29.1850  -22.5190   17.9700 C   0  0  0  0  0  3  0  0  0  0  0  0
  -29.6870  -22.6960   16.5210 C   0  0  0  0  0  1  0  0  0  0  0  0
  -30.3250  -24.7290   18.4840 C   0  0  0  0  0  1  0  0  0  0  0  0
  -29.6100  -20.7210   19.8330 N   0  0  0  0  0  0  0  0  0  0  0  0
  -29.8660  -23.4000   18.9600 N   0  0  1  0  0  4  0  0  0  0  0  0
  -30.7060  -22.8820   19.1810 H   0  0  0  0  0  0  0  0  0  0  0  0
  -29.9570  -17.8710   20.6870 C   0  0  0  0  0  2  0  0  0  0  0  0
  -29.5730  -16.2780   20.3220 C   0  0  0  0  0  2  0  0  0  0  0  0
  -30.5080  -14.9150   20.3380 C   0  0  0  0  0  0  0  0  0  0  0  0
  -30.4330  -12.5760   19.3930 C   0  0  0  0  0  2  0  0  0  0  0  0
  -29.4940  -12.5850   18.1620 C   0  0  0  0  0  2  0  0  0  0  0  0
  -28.0250  -12.3740   18.5850 C   0  0  0  0  0  2  0  0  0  0  0  0
  -27.6230  -13.2670   19.7870 C   0  0  0  0  0  3  0  0  0  0  0  0
  -28.6800  -13.2260   20.9080 C   0  0  0  0  0  2  0  0  0  0  0  0
  -29.9650  -13.6340   20.3260 N   0  0  0  0  0  0  0  0  0  0  0  0
  -31.7150  -15.0200   20.0960 O   0  0  0  0  0  0  0  0  0  0  0  0
  -25.2330  -13.8280   20.5220 C   0  0  0  0  0  0  0  0  0  0  0  0
  -24.1740  -13.0440   20.8910 C   0  0  0  0  0  0  0  0  0  0  0  0
  -24.6500  -11.6980   20.8610 C   0  0  0  0  0  0  0  0  0  0  0  0
  -26.2830  -12.9590   20.2820 N   0  0  0  0  0  0  0  0  0  0  0  0
  -25.9420  -11.6720   20.5520 N   0  0  0  0  0  0  0  0  0  0  0  0
  -23.9340  -10.4290   21.0510 C   0  0  0  0  0  0  0  0  0  0  0  0
  -24.3750   -9.4640   21.9840 C   0  0  0  0  0  3  0  0  0  0  0  0
  -23.6580   -8.2610   22.1630 C   0  0  0  0  0  3  0  0  0  0  0  0
  -22.4870   -8.0130   21.4080 C   0  0  0  0  0  0  0  0  0  0  0  0
  -22.0650   -8.9670   20.4660 C   0  0  0  0  0  3  0  0  0  0  0  0
  -22.7820  -10.1620   20.2840 C   0  0  0  0  0  3  0  0  0  0  0  0
  -21.7420   -6.8610   21.4960 O   0  0  0  0  0  0  0  0  0  0  0  0
  -21.7030   -6.1150   22.6460 C   0  0  0  0  0  0  0  0  0  0  0  0
  -21.2700   -6.6610   23.8740 C   0  0  0  0  0  3  0  0  0  0  0  0
  -21.1790   -5.8410   25.0160 C   0  0  0  0  0  3  0  0  0  0  0  0
  -21.5110   -4.4750   24.9310 C   0  0  0  0  0  0  0  0  0  0  0  0
  -21.9370   -3.9280   23.7080 C   0  0  0  0  0  3  0  0  0  0  0  0
  -22.0300   -4.7460   22.5680 C   0  0  0  0  0  0  0  0  0  0  0  0
  -22.4210   -4.2100   21.3870 F   0  0  0  0  0  0  0  0  0  0  0  0
  -21.4180   -3.6840   26.0260 F   0  0  0  0  0  0  0  0  0  0  0  0
  -22.7720  -13.5080   21.1590 C   0  0  0  0  0  0  0  0  0  0  0  0
  -22.0470  -12.8050   22.0230 N   0  0  0  0  0  0  0  0  0  0  0  0
  -22.3260  -14.5300   20.6380 O   0  0  0  0  0  0  0  0  0  0  0  0
  -22.4210  -11.9800   22.4670 H   0  0  0  0  0  0  0  0  0  0  0  0
  -21.1060  -13.0980   22.2440 H   0  0  0  0  0  0  0  0  0  0  0  0
  -25.3860  -15.2010   20.3440 N   0  0  0  0  0  0  0  0  0  0  0  0
  -24.6170  -15.8510   20.4600 H   0  0  0  0  0  0  0  0  0  0  0  0
  -26.2360  -15.6480   20.0250 H   0  0  0  0  0  0  0  0  0  0  0  0
  -28.0020  -24.6720   20.3130 C   0  0  0  0  0  2  0  0  0  0  0  0
  -28.2630  -26.2060   20.3000 O   0  0  0  0  0  0  0  0  0  0  0  0
  -24.6000  -31.8740   23.2470 C   0  0  0  0  0  0  0  0  0  0  0  0
  -27.1880  -27.1630   20.2430 C   0  0  0  0  0  0  0  0  0  0  0  0
  -23.4020  -30.4740   21.6090 C   0  0  0  0  0  3  0  0  0  0  0  0
  -24.8540  -28.8950   20.1990 C   0  0  0  0  0  0  0  0  0  0  0  0
  -25.9570  -30.7410   21.4510 C   0  0  0  0  0  2  0  0  0  0  0  0
  -26.0320  -29.3470   20.8070 C   0  0  0  0  0  0  0  0  0  0  0  0
  -27.2000  -28.4980   20.8100 C   0  0  0  0  0  3  0  0  0  0  0  0
  -25.9810  -26.8080   19.5970 C   0  0  0  0  0  3  0  0  0  0  0  0
  -24.8400  -27.6370   19.5790 C   0  0  0  0  0  3  0  0  0  0  0  0
  -23.6260  -29.7900   20.2350 C   0  0  0  0  0  2  0  0  0  0  0  0
  -24.6730  -31.0510   22.1570 N   0  0  0  0  0  0  0  0  0  0  0  0
  -23.5130  -32.1610   23.7700 O   0  0  0  0  0  0  0  0  0  0  0  0
  -22.7200  -29.4710   22.5730 C   0  0  0  0  0  0  0  0  0  0  0  0
  -21.3920  -29.3030   22.4430 N   0  0  0  0  0  0  0  0  0  0  0  0
  -23.3880  -28.8420   23.3980 O   0  0  0  0  0  0  0  0  0  0  0  0
  -20.9100  -29.8600   21.7510 H   0  0  0  0  0  0  0  0  0  0  0  0
  -18.0040  -28.1240   22.9450 C   0  0  0  0  0  0  0  0  0  0  0  0
  -20.5640  -28.3730   23.2170 C   0  0  0  0  0  3  0  0  0  0  0  0
  -20.6590  -26.9390   22.6450 C   0  0  0  0  0  2  0  0  0  0  0  0
  -19.5560  -26.6190   21.6310 C   0  0  0  0  0  2  0  0  0  0  0  0
  -18.1740  -26.7730   22.2720 C   0  0  0  0  0  2  0  0  0  0  0  0
  -19.1260  -28.8830   23.3750 C   0  0  0  0  0  0  0  0  0  0  0  0
  -18.9120  -30.1470   23.9650 C   0  0  0  0  0  3  0  0  0  0  0  0
  -17.6080  -30.6530   24.1280 C   0  0  0  0  0  3  0  0  0  0  0  0
  -16.5010  -29.8920   23.7150 C   0  0  0  0  0  3  0  0  0  0  0  0
  -16.7000  -28.6290   23.1300 C   0  0  0  0  0  3  0  0  0  0  0  0
  -25.8780  -32.5080   23.8760 C   0  0  0  0  0  3  0  0  0  0  0  0
  -26.3770  -31.7480   25.1650 C   0  0  1  0  0  0  0  0  0  0  0  0
  -25.2730  -31.5270   26.2250 C   0  0  0  0  0  1  0  0  0  0  0  0
  -26.9580  -30.3630   24.7960 C   0  0  0  0  0  1  0  0  0  0  0  0
  -27.5250  -32.5420   25.8300 C   0  0  0  0  0  1  0  0  0  0  0  0
  -25.5690  -33.9100   24.1950 N   0  0  0  0  0  0  0  0  0  0  0  0
  -25.9080  -34.9600   23.4340 C   0  0  0  0  0  0  0  0  0  0  0  0
  -26.5790  -34.8500   22.4050 O   0  0  0  0  0  0  0  0  0  0  0  0
  -24.9740  -34.0710   24.9940 H   0  0  0  0  0  0  0  0  0  0  0  0
  -24.1900  -36.7630   23.0680 C   0  0  0  0  0  1  0  0  0  0  0  0
  -25.4280  -36.3550   23.8850 C   0  0  0  0  0  3  0  0  0  0  0  0
  -27.5630  -37.2340   24.7190 C   0  0  0  0  0  1  0  0  0  0  0  0
  -26.4660  -37.4020   23.7700 N   0  0  0  0  0  0  0  0  0  0  0  0
  -26.0640  -38.3250   23.9090 H   0  0  0  0  0  0  0  0  0  0  0  0
  1  2  1  0
  2  5  1  0
  4  1  1  0
  4 10  1  0
  5 10  1  0
  5 13  1  0
  6 51  1  0
  6  3  1  0
  7  8  1  0
  7  4  1  0
  7 11  1  0
  9 11  1  0
 10  3  1  0
 11 12  1  1
 11  6  1  0
 14 15  1  0
 14 13  1  0
 16 21  1  0
 17 18  1  0
 17 16  1  0
 19 18  1  0
 19 26  1  0
 19 20  1  0
 21 15  1  0
 21 20  1  0
 22 15  2  0
 23 24  2  0
 24 43  1  0
 25 24  1  0
 25 28  1  0
 26 23  1  0
 26 27  1  0
 27 25  2  0
 28 29  1  0
 29 30  2  0
 31 34  1  0
 31 30  1  0
 32 31  2  0
 33 32  1  0
 33 28  2  0
 34 35  1  0
 35 36  1  0
 36 37  2  0
 38 37  1  0
 38 42  1  0
 39 38  2  0
 40 35  2  0
 40 39  1  0
 41 40  1  0
 43 44  1  0
 44 47  1  0
 44 46  1  0
 45 43  2  0
 48 49  1  0
 48 23  1  0
 50 48  1  0
 52 51  1  0
 53 64  2  0
 54 52  1  0
 54 59  1  0
 55 63  1  0
 55 65  1  0
 56 62  1  0
 56 58  1  0
 57 63  1  0
 58 59  2  0
 58 57  1  0
 60 54  2  0
 61 60  1  0
 61 56  2  0
 62 55  1  0
 63 53  1  0
 65 67  2  0
 66 65  1  0
 68 66  1  0
 69 78  2  0
 69 74  1  0
 70 66  1  0
 70 74  1  0
 71 70  1  0
 72 73  1  0
 72 71  1  0
 73 69  1  0
 74 75  2  0
 75 76  1  0
 77 76  2  0
 78 77  1  0
 79 53  1  0
 79 84  1  0
 79 80  1  0
 80 83  1  1
 80 81  1  0
 82 80  1  0
 84 87  1  0
 85 89  1  0
 85 84  1  0
 86 85  2  0
 89 88  1  0
 91 89  1  0
 91 92  1  0
 91 90  1  0
M  ISO  4  14 100  15 100  51 101  52 101
M  END
>  <TORSDO>  (56) 
F 19

>  <SCORE>  (56) 
-14.280

>  <name>  (56) 
55

>  <ligand_id>  (56) 
55

>  <original_smiles>  (56) 
[H]c1c([H])c([H])c2c(c1[H])C([H])([H])C([H])([H])C([H])([H])C2([H])N([H])C(=O)C1([H])N(C(=O)C([H])(N([H])C(=O)C([H])(N([H])C([H])([H])[H])C([H])([H])[H])C(C([H])([H])[H])(C([H])([H])[H])C([H])([H])[H])C([H])([H])c2c([H])c(OC([H])([H])C3([H])C([H])([H])N4C([H])(C([H])([H])C([H])([H])C(=O)N5C([H])([H])C([H])([H])C([H])([H])C([H])(n6nc(-c7c([H])c([H])c(Oc8c([H])c([H])c(F)c([H])c8F)c([H])c7[H])c(C(=O)N([H])[H])c6N([H])[H])C5([H])[H])C([H])([H])C([H])([H])C4([H])C([H])(C([H])([H])[H])[N+]3([H])C([H])([H])[H])c([H])c([H])c2C1([H])[H]

>  <smiles>  (56) 
[H]c1c([H])c([H])c2c(c1[H])C([H])([H])C([H])([H])C([H])([H])C2([H])N([H])C(=O)C1([H])N(C(=O)C([H])(N([H])C(=O)C([H])(N([H])C([H])([H])[H])C([H])([H])[H])C(C([H])([H])[H])(C([H])([H])[H])C([H])([H])[H])C([H])([H])c2c([H])c(OC([H])([H])C3([H])C([H])([H])N4C([H])(C([H])([H])C([H])([H])C(=O)N5C([H])([H])C([H])([H])C([H])([H])C([H])(n6nc(-c7c([H])c([H])c(Oc8c([H])c([H])c(F)c([H])c8F)c([H])c7[H])c(C(=O)N([H])[H])c6N([H])[H])C5([H])[H])C([H])([H])C([H])([H])C4([H])C([H])(C([H])([H])[H])[N+]3([H])C([H])([H])[H])c([H])c([H])c2C1([H])[H]

$$$$
56:0:0
     RDKit          3D

 95104  0  0  1  0  0  0  0  0999 V2000
  -29.7930  -20.0600   20.5610 C   0  0  0  0  0  3  0  0  0  0  0  0
  -28.8050  -18.2250   19.2370 C   0  0  0  0  0  3  0  0  0  0  0  0
  -30.1710  -18.7800   19.6460 C   0  0  0  0  0  3  0  0  0  0  0  0
  -27.7120  -18.8980   20.0150 C   0  0  0  0  0  3  0  0  0  0  0  0
  -27.7000  -18.9640   18.4930 C   0  0  1  0  0  0  0  0  0  0  0  0
  -27.9860  -20.2090   17.6630 C   0  0  0  0  0  1  0  0  0  0  0  0
  -26.6560  -18.1350   17.7650 C   0  0  0  0  0  1  0  0  0  0  0  0
  -28.3280  -20.0200   20.7490 N   0  0  0  0  0  4  0  0  0  0  0  0
  -27.9360  -20.8870   20.4260 H   0  0  0  0  0  0  0  0  0  0  0  0
  -28.1260  -19.9310   21.7330 H   0  0  0  0  0  0  0  0  0  0  0  0
  -30.2180  -21.5490   20.1760 C   0  0  0  0  0  0  0  0  0  0  0  0
  -29.5210  -22.6450   20.6450 N   0  0  0  0  0  0  0  0  0  0  0  0
  -31.1940  -21.7120   19.4410 O   0  0  0  0  0  0  0  0  0  0  0  0
  -28.7750  -22.4800   21.3050 H   0  0  0  0  0  0  0  0  0  0  0  0
  -29.8370  -24.1130   20.4580 C   0  0  0  0  0  3  0  0  0  0  0  0
  -28.7460  -25.1640   20.9650 C   0  0  0  0  0  3  0  0  0  0  0  0
  -28.9040  -26.6010   20.6390 O   0  0  0  0  0  0  0  0  0  0  0  0
  -24.6740  -31.8040   23.3070 C   0  0  0  0  0  0  0  0  0  0  0  0
  -27.7470  -27.3790   20.5270 C   0  0  0  0  0  0  0  0  0  0  0  0
  -23.6820  -30.3520   21.5730 C   0  0  0  0  0  3  0  0  0  0  0  0
  -25.3190  -28.8630   20.2920 C   0  0  0  0  0  0  0  0  0  0  0  0
  -26.2060  -30.7890   21.6080 C   0  0  0  0  0  2  0  0  0  0  0  0
  -26.4060  -29.4150   20.9830 C   0  0  0  0  0  0  0  0  0  0  0  0
  -27.6270  -28.6870   21.0870 C   0  0  0  0  0  3  0  0  0  0  0  0
  -26.6400  -26.8700   19.8160 C   0  0  0  0  0  3  0  0  0  0  0  0
  -25.4360  -27.5940   19.7000 C   0  0  0  0  0  3  0  0  0  0  0  0
  -24.0460  -29.6810   20.2220 C   0  0  0  0  0  2  0  0  0  0  0  0
  -24.8660  -30.9990   22.2210 N   0  0  0  0  0  0  0  0  0  0  0  0
  -23.5370  -32.0340   23.7430 O   0  0  0  0  0  0  0  0  0  0  0  0
  -22.9820  -29.3090   22.4760 C   0  0  0  0  0  0  0  0  0  0  0  0
  -21.6680  -29.1160   22.2710 N   0  0  0  0  0  0  0  0  0  0  0  0
  -23.6230  -28.6760   23.3180 O   0  0  0  0  0  0  0  0  0  0  0  0
  -21.2110  -29.6790   21.5670 H   0  0  0  0  0  0  0  0  0  0  0  0
  -18.2660  -27.9460   22.6360 C   0  0  0  0  0  0  0  0  0  0  0  0
  -20.8200  -28.1540   22.9770 C   0  0  0  0  0  3  0  0  0  0  0  0
  -20.9160  -26.7500   22.3350 C   0  0  0  0  0  2  0  0  0  0  0  0
  -19.8330  -26.4920   21.2830 C   0  0  0  0  0  2  0  0  0  0  0  0
  -18.4400  -26.6280   21.9020 C   0  0  0  0  0  2  0  0  0  0  0  0
  -19.3840  -28.6700   23.1270 C   0  0  0  0  0  0  0  0  0  0  0  0
  -19.1680  -29.9060   23.7730 C   0  0  0  0  0  3  0  0  0  0  0  0
  -17.8680  -30.4180   23.9360 C   0  0  0  0  0  3  0  0  0  0  0  0
  -16.7630  -29.6880   23.4620 C   0  0  0  0  0  3  0  0  0  0  0  0
  -16.9630  -28.4550   22.8170 C   0  0  0  0  0  3  0  0  0  0  0  0
  -25.8690  -32.4900   24.0390 C   0  0  0  0  0  3  0  0  0  0  0  0
  -25.4980  -33.8940   24.2690 N   0  0  0  0  0  0  0  0  0  0  0  0
  -25.8910  -34.9200   23.5040 C   0  0  0  0  0  0  0  0  0  0  0  0
  -26.6690  -34.7890   22.5540 O   0  0  0  0  0  0  0  0  0  0  0  0
  -24.8170  -34.0690   24.9930 H   0  0  0  0  0  0  0  0  0  0  0  0
  -24.1740  -36.6550   22.8940 C   0  0  0  0  0  1  0  0  0  0  0  0
  -25.3320  -36.3150   23.8440 C   0  0  0  0  0  3  0  0  0  0  0  0
  -27.3550  -37.2860   24.8440 C   0  0  0  0  0  1  0  0  0  0  0  0
  -26.3510  -37.3880   23.7880 N   0  0  0  0  0  0  0  0  0  0  0  0
  -25.9140  -38.3040   23.8550 H   0  0  0  0  0  0  0  0  0  0  0  0
  -26.2560  -31.7850   25.3970 C   0  0  1  0  0  0  0  0  0  0  0  0
  -25.0550  -31.5560   26.3430 C   0  0  0  0  0  1  0  0  0  0  0  0
  -26.9140  -30.4110   25.1330 C   0  0  0  0  0  1  0  0  0  0  0  0
  -27.3030  -32.6390   26.1520 C   0  0  0  0  0  1  0  0  0  0  0  0
  -31.0900  -17.5970   20.2580 C   0  0  0  0  0  2  0  0  0  0  0  0
  -30.4860  -16.1080   20.3190 C   0  0  0  0  0  2  0  0  0  0  0  0
  -31.3070  -14.8040   19.9320 C   0  0  0  0  0  0  0  0  0  0  0  0
  -31.0700  -12.4680   19.0790 C   0  0  0  0  0  2  0  0  0  0  0  0
  -30.1050  -12.4860   17.8700 C   0  0  0  0  0  2  0  0  0  0  0  0
  -28.6330  -12.3920   18.3250 C   0  0  0  0  0  2  0  0  0  0  0  0
  -28.3060  -13.3910   19.4670 C   0  0  0  0  0  3  0  0  0  0  0  0
  -29.3740  -13.3230   20.5810 C   0  0  0  0  0  2  0  0  0  0  0  0
  -30.6870  -13.5800   19.9710 N   0  0  0  0  0  0  0  0  0  0  0  0
  -32.4520  -14.9140   19.4840 O   0  0  0  0  0  0  0  0  0  0  0  0
  -25.9970  -14.1550   20.2920 C   0  0  0  0  0  0  0  0  0  0  0  0
  -24.8850  -13.4560   20.6780 C   0  0  0  0  0  0  0  0  0  0  0  0
  -25.2390  -12.0750   20.5900 C   0  0  0  0  0  0  0  0  0  0  0  0
  -26.9590  -13.2020   19.9920 N   0  0  0  0  0  0  0  0  0  0  0  0
  -26.5090  -11.9450   20.2330 N   0  0  0  0  0  0  0  0  0  0  0  0
  -24.4220  -10.8670   20.7670 C   0  0  0  0  0  0  0  0  0  0  0  0
  -24.7950   -9.8510   21.6740 C   0  0  0  0  0  3  0  0  0  0  0  0
  -23.9850   -8.7080   21.8400 C   0  0  0  0  0  3  0  0  0  0  0  0
  -22.7860   -8.5740   21.1000 C   0  0  0  0  0  0  0  0  0  0  0  0
  -22.4310   -9.5780   20.1820 C   0  0  0  0  0  3  0  0  0  0  0  0
  -23.2410  -10.7130   20.0140 C   0  0  0  0  0  3  0  0  0  0  0  0
  -21.9500   -7.4870   21.1780 O   0  0  0  0  0  0  0  0  0  0  0  0
  -21.8140   -6.7650   22.3370 C   0  0  0  0  0  0  0  0  0  0  0  0
  -21.4110   -7.3700   23.5480 C   0  0  0  0  0  3  0  0  0  0  0  0
  -21.2150   -6.5790   24.6980 C   0  0  0  0  0  3  0  0  0  0  0  0
  -21.4150   -5.1860   24.6380 C   0  0  0  0  0  0  0  0  0  0  0  0
  -21.8110   -4.5820   23.4320 C   0  0  0  0  0  3  0  0  0  0  0  0
  -22.0070   -5.3700   22.2830 C   0  0  0  0  0  0  0  0  0  0  0  0
  -22.3690   -4.7800   21.1190 F   0  0  0  0  0  0  0  0  0  0  0  0
  -21.2180   -4.4260   25.7400 F   0  0  0  0  0  0  0  0  0  0  0  0
  -23.5410  -14.0330   21.0150 C   0  0  0  0  0  0  0  0  0  0  0  0
  -22.8000  -13.3800   21.9030 N   0  0  0  0  0  0  0  0  0  0  0  0
  -23.1580  -15.0950   20.5250 O   0  0  0  0  0  0  0  0  0  0  0  0
  -23.1240  -12.5210   22.3220 H   0  0  0  0  0  0  0  0  0  0  0  0
  -21.8980  -13.7480   22.1700 H   0  0  0  0  0  0  0  0  0  0  0  0
  -26.2630  -15.5130   20.1460 N   0  0  0  0  0  0  0  0  0  0  0  0
  -25.5520  -16.2190   20.2940 H   0  0  0  0  0  0  0  0  0  0  0  0
  -27.1340  -15.8900   19.7970 H   0  0  0  0  0  0  0  0  0  0  0  0
  1 11  1  0
  1  8  1  0
  2  5  1  0
  2  3  1  0
  2  4  1  0
  3 58  1  0
  3  1  1  0
  4  5  1  0
  4  8  1  0
  5  6  1  1
  7  5  1  0
  8 10  1  0
  9  8  1  0
 11 12  1  0
 12 14  1  0
 13 11  2  0
 15 12  1  0
 15 16  2  0
 17 16  1  0
 18 29  2  0
 19 17  1  0
 19 24  1  0
 20 28  1  0
 20 30  1  0
 21 23  1  0
 22 28  1  0
 23 24  2  0
 23 22  1  0
 25 19  2  0
 26 25  1  0
 26 21  2  0
 27 21  1  0
 27 20  1  0
 28 18  1  0
 30 32  2  0
 31 30  1  0
 33 31  1  0
 34 43  2  0
 34 39  1  0
 35 31  1  0
 35 39  1  0
 36 35  1  0
 37 38  1  0
 37 36  1  0
 38 34  1  0
 39 40  2  0
 40 41  1  0
 42 41  2  0
 43 42  1  0
 44 18  1  0
 44 45  1  0
 44 54  1  0
 45 48  1  0
 46 50  1  0
 46 45  1  0
 47 46  2  0
 50 49  1  0
 52 50  1  0
 52 53  1  0
 52 51  1  0
 54 57  1  1
 54 55  1  0
 56 54  1  0
 58 59  1  0
 60 66  1  0
 60 59  1  0
 61 66  1  0
 62 63  1  0
 62 61  1  0
 64 63  1  0
 64 71  1  0
 64 65  1  0
 66 65  1  0
 67 60  2  0
 68 69  2  0
 69 88  1  0
 70 69  1  0
 70 73  1  0
 71 72  1  0
 71 68  1  0
 72 70  2  0
 73 74  1  0
 74 75  2  0
 76 79  1  0
 76 75  1  0
 77 76  2  0
 78 77  1  0
 78 73  2  0
 79 80  1  0
 80 81  1  0
 81 82  2  0
 83 82  1  0
 83 87  1  0
 84 83  2  0
 85 80  2  0
 85 84  1  0
 86 85  1  0
 88 89  1  0
 89 92  1  0
 89 91  1  0
 90 88  2  0
 93 68  1  0
 93 94  1  0
 95 93  1  0
M  ISO  4  16 101  17 101  59 100  60 100
M  END
>  <TORSDO>  (57) 
F 21

>  <SCORE>  (57) 
-12.149

>  <name>  (57) 
56

>  <ligand_id>  (57) 
56

>  <original_smiles>  (57) 
[H]c1c([H])c([H])c2c(c1[H])C([H])([H])C([H])([H])C([H])([H])C2([H])N([H])C(=O)C1([H])N(C(=O)C([H])(N([H])C(=O)C([H])(N([H])C([H])([H])[H])C([H])([H])[H])C(C([H])([H])[H])(C([H])([H])[H])C([H])([H])[H])C([H])([H])c2c([H])c(OC([H])([H])C([H])([H])N([H])C(=O)C3([H])C([H])(C([H])([H])C([H])([H])C(=O)N4C([H])([H])C([H])([H])C([H])([H])C([H])(n5nc(-c6c([H])c([H])c(Oc7c([H])c([H])c(F)c([H])c7F)c([H])c6[H])c(C(=O)N([H])[H])c5N([H])[H])C4([H])[H])C4([H])C(C([H])([H])[H])(C([H])([H])[H])C4([H])[N+]3([H])[H])c([H])c([H])c2C1([H])[H]

>  <smiles>  (57) 
[H]c1c([H])c([H])c2c(c1[H])C([H])([H])C([H])([H])C([H])([H])C2([H])N([H])C(=O)C1([H])N(C(=O)C([H])(N([H])C(=O)C([H])(N([H])C([H])([H])[H])C([H])([H])[H])C(C([H])([H])[H])(C([H])([H])[H])C([H])([H])[H])C([H])([H])c2c([H])c(OC([H])([H])C([H])([H])N([H])C(=O)C3([H])C([H])(C([H])([H])C([H])([H])C(=O)N4C([H])([H])C([H])([H])C([H])([H])C([H])(n5nc(-c6c([H])c([H])c(Oc7c([H])c([H])c(F)c([H])c7F)c([H])c6[H])c(C(=O)N([H])[H])c5N([H])[H])C4([H])[H])C4([H])C(C([H])([H])[H])(C([H])([H])[H])C4([H])[N+]3([H])[H])c([H])c([H])c2C1([H])[H]

$$$$
57:0:0
     RDKit          3D

 90 98  0  0  1  0  0  0  0  0999 V2000
  -31.2740  -22.8760   19.7600 C   0  0  0  0  0  2  0  0  0  0  0  0
  -30.4330  -24.1710   19.8970 C   0  0  0  0  0  2  0  0  0  0  0  0
  -30.4650  -21.6720   19.2270 C   0  0  0  0  0  2  0  0  0  0  0  0
  -28.8030  -22.5390   20.9740 C   0  0  0  0  0  2  0  0  0  0  0  0
  -28.9350  -23.9270   20.2000 C   0  0  0  0  0  3  0  0  0  0  0  0
  -29.3030  -21.2540   20.1650 C   0  0  0  0  0  3  0  0  0  0  0  0
  -29.6760  -20.0240   20.9810 N   0  0  0  0  0  4  0  0  0  0  0  0
  -29.1890  -20.0760   21.8610 H   0  0  0  0  0  0  0  0  0  0  0  0
  -30.6590  -20.0840   21.1900 H   0  0  0  0  0  0  0  0  0  0  0  0
  -29.3780  -18.6470   20.4050 C   0  0  0  0  0  2  0  0  0  0  0  0
  -30.3090  -17.4240   20.8550 C   0  0  0  0  0  2  0  0  0  0  0  0
  -29.6860  -15.9530   20.7870 C   0  0  0  0  0  2  0  0  0  0  0  0
  -30.5570  -14.6750   20.4190 C   0  0  0  0  0  0  0  0  0  0  0  0
  -30.3710  -12.4400   19.3270 C   0  0  0  0  0  2  0  0  0  0  0  0
  -29.4130  -12.5730   18.1190 C   0  0  0  0  0  2  0  0  0  0  0  0
  -27.9460  -12.3960   18.5590 C   0  0  0  0  0  2  0  0  0  0  0  0
  -27.5900  -13.2510   19.8030 C   0  0  0  0  0  3  0  0  0  0  0  0
  -28.6570  -13.0890   20.9070 C   0  0  0  0  0  2  0  0  0  0  0  0
  -29.9650  -13.4400   20.3370 N   0  0  0  0  0  0  0  0  0  0  0  0
  -31.7190  -14.8360   20.0360 O   0  0  0  0  0  0  0  0  0  0  0  0
  -25.2020  -13.8430   20.5450 C   0  0  0  0  0  0  0  0  0  0  0  0
  -24.1400  -13.0660   20.9240 C   0  0  0  0  0  0  0  0  0  0  0  0
  -24.6090  -11.7160   20.8870 C   0  0  0  0  0  0  0  0  0  0  0  0
  -26.2470  -12.9660   20.3000 N   0  0  0  0  0  0  0  0  0  0  0  0
  -25.8970  -11.6820   20.5670 N   0  0  0  0  0  0  0  0  0  0  0  0
  -23.8920  -10.4500   21.0830 C   0  0  0  0  0  0  0  0  0  0  0  0
  -24.3470   -9.4740   21.9970 C   0  0  0  0  0  3  0  0  0  0  0  0
  -23.6280   -8.2740   22.1780 C   0  0  0  0  0  3  0  0  0  0  0  0
  -22.4390   -8.0400   21.4470 C   0  0  0  0  0  0  0  0  0  0  0  0
  -22.0030   -9.0060   20.5230 C   0  0  0  0  0  3  0  0  0  0  0  0
  -22.7230  -10.1990   20.3380 C   0  0  0  0  0  3  0  0  0  0  0  0
  -21.6920   -6.8920   21.5380 O   0  0  0  0  0  0  0  0  0  0  0  0
  -21.6850   -6.1270   22.6770 C   0  0  0  0  0  0  0  0  0  0  0  0
  -21.3130   -6.6610   23.9310 C   0  0  0  0  0  3  0  0  0  0  0  0
  -21.2500   -5.8230   25.0620 C   0  0  0  0  0  3  0  0  0  0  0  0
  -21.5520   -4.4540   24.9420 C   0  0  0  0  0  0  0  0  0  0  0  0
  -21.9210   -3.9200   23.6940 C   0  0  0  0  0  3  0  0  0  0  0  0
  -21.9820   -4.7540   22.5640 C   0  0  0  0  0  0  0  0  0  0  0  0
  -22.3160   -4.2300   21.3600 F   0  0  0  0  0  0  0  0  0  0  0  0
  -21.4860   -3.6470   26.0270 F   0  0  0  0  0  0  0  0  0  0  0  0
  -22.7420  -13.5360   21.2070 C   0  0  0  0  0  0  0  0  0  0  0  0
  -22.0250  -12.8350   22.0780 N   0  0  0  0  0  0  0  0  0  0  0  0
  -22.2940  -14.5590   20.6920 O   0  0  0  0  0  0  0  0  0  0  0  0
  -22.4010  -12.0060   22.5150 H   0  0  0  0  0  0  0  0  0  0  0  0
  -21.0900  -13.1340   22.3140 H   0  0  0  0  0  0  0  0  0  0  0  0
  -25.3590  -15.2160   20.3690 N   0  0  0  0  0  0  0  0  0  0  0  0
  -24.5930  -15.8660   20.5030 H   0  0  0  0  0  0  0  0  0  0  0  0
  -26.2030  -15.6640   20.0370 H   0  0  0  0  0  0  0  0  0  0  0  0
  -28.2490  -25.2040   20.8660 C   0  0  0  0  0  2  0  0  0  0  0  0
  -28.3900  -26.5330   20.2320 O   0  0  0  0  0  0  0  0  0  0  0  0
  -24.6290  -31.9030   23.2320 C   0  0  0  0  0  0  0  0  0  0  0  0
  -27.2620  -27.3570   20.2130 C   0  0  0  0  0  0  0  0  0  0  0  0
  -23.4260  -30.4950   21.5970 C   0  0  0  0  0  3  0  0  0  0  0  0
  -24.8830  -28.9350   20.1840 C   0  0  0  0  0  0  0  0  0  0  0  0
  -25.9620  -30.8270   21.4080 C   0  0  0  0  0  2  0  0  0  0  0  0
  -26.0490  -29.4460   20.7720 C   0  0  0  0  0  0  0  0  0  0  0  0
  -27.2430  -28.6690   20.7730 C   0  0  0  0  0  3  0  0  0  0  0  0
  -26.0780  -26.8900   19.6050 C   0  0  0  0  0  3  0  0  0  0  0  0
  -24.8980  -27.6620   19.5930 C   0  0  0  0  0  3  0  0  0  0  0  0
  -23.6420  -29.8050   20.2230 C   0  0  0  0  0  2  0  0  0  0  0  0
  -24.6910  -31.0910   22.1360 N   0  0  0  0  0  0  0  0  0  0  0  0
  -23.5450  -32.1800   23.7670 O   0  0  0  0  0  0  0  0  0  0  0  0
  -22.7660  -29.4830   22.5650 C   0  0  0  0  0  0  0  0  0  0  0  0
  -21.4400  -29.3030   22.4380 N   0  0  0  0  0  0  0  0  0  0  0  0
  -23.4460  -28.8610   23.3860 O   0  0  0  0  0  0  0  0  0  0  0  0
  -20.9520  -29.8580   21.7480 H   0  0  0  0  0  0  0  0  0  0  0  0
  -18.0640  -28.1070   22.9400 C   0  0  0  0  0  0  0  0  0  0  0  0
  -20.6220  -28.3710   23.2140 C   0  0  0  0  0  3  0  0  0  0  0  0
  -20.7270  -26.9360   22.6470 C   0  0  0  0  0  2  0  0  0  0  0  0
  -19.6280  -26.6050   21.6330 C   0  0  0  0  0  2  0  0  0  0  0  0
  -18.2460  -26.7530   22.2730 C   0  0  0  0  0  2  0  0  0  0  0  0
  -19.1820  -28.8730   23.3670 C   0  0  0  0  0  0  0  0  0  0  0  0
  -18.9600  -30.1400   23.9490 C   0  0  0  0  0  3  0  0  0  0  0  0
  -17.6540  -30.6400   24.1090 C   0  0  0  0  0  3  0  0  0  0  0  0
  -16.5520  -29.8710   23.6990 C   0  0  0  0  0  3  0  0  0  0  0  0
  -16.7580  -28.6070   23.1190 C   0  0  0  0  0  3  0  0  0  0  0  0
  -25.9120  -32.5390   23.8510 C   0  0  0  0  0  3  0  0  0  0  0  0
  -25.5990  -33.9360   24.1860 N   0  0  0  0  0  0  0  0  0  0  0  0
  -25.9260  -34.9900   23.4260 C   0  0  0  0  0  0  0  0  0  0  0  0
  -26.5910  -34.8910   22.3920 O   0  0  0  0  0  0  0  0  0  0  0  0
  -25.0100  -34.0880   24.9900 H   0  0  0  0  0  0  0  0  0  0  0  0
  -24.1900  -36.7770   23.0850 C   0  0  0  0  0  1  0  0  0  0  0  0
  -25.4370  -36.3770   23.8890 C   0  0  0  0  0  3  0  0  0  0  0  0
  -27.5760  -37.2670   24.7040 C   0  0  0  0  0  1  0  0  0  0  0  0
  -26.4670  -37.4330   23.7690 N   0  0  0  0  0  0  0  0  0  0  0  0
  -26.0590  -38.3530   23.9210 H   0  0  0  0  0  0  0  0  0  0  0  0
  -26.4360  -31.7670   25.1240 C   0  0  1  0  0  0  0  0  0  0  0  0
  -25.3500  -31.5250   26.1980 C   0  0  0  0  0  1  0  0  0  0  0  0
  -27.0200  -30.3890   24.7290 C   0  0  0  0  0  1  0  0  0  0  0  0
  -27.5890  -32.5620   25.7810 C   0  0  0  0  0  1  0  0  0  0  0  0
  1  2  1  0
  2  5  1  0
  3  1  1  0
  3  6  1  0
  5 49  1  0
  5  4  1  0
  6  4  1  0
  6  7  1  0
  7  9  1  0
  7  8  1  0
 10 11  1  0
 10  7  1  0
 12 11  1  0
 13 12  1  0
 14 19  1  0
 15 16  1  0
 15 14  1  0
 17 16  1  0
 17 24  1  0
 17 18  1  0
 19 13  1  0
 19 18  1  0
 20 13  2  0
 21 22  2  0
 22 41  1  0
 23 22  1  0
 23 26  1  0
 24 21  1  0
 24 25  1  0
 25 23  2  0
 26 27  1  0
 27 28  2  0
 29 32  1  0
 29 28  1  0
 30 29  2  0
 31 30  1  0
 31 26  2  0
 32 33  1  0
 33 34  1  0
 34 35  2  0
 36 35  1  0
 36 40  1  0
 37 36  2  0
 38 33  2  0
 38 37  1  0
 39 38  1  0
 41 42  1  0
 42 45  1  0
 42 44  1  0
 43 41  2  0
 46 47  1  0
 46 21  1  0
 48 46  1  0
 50 49  1  0
 51 62  2  0
 52 50  1  0
 52 57  1  0
 53 61  1  0
 53 63  1  0
 54 60  1  0
 54 56  1  0
 55 61  1  0
 56 57  2  0
 56 55  1  0
 58 52  2  0
 59 58  1  0
 59 54  2  0
 60 53  1  0
 61 51  1  0
 63 65  2  0
 64 63  1  0
 66 64  1  0
 67 76  2  0
 67 72  1  0
 68 64  1  0
 68 72  1  0
 69 68  1  0
 70 71  1  0
 70 69  1  0
 71 67  1  0
 72 73  2  0
 73 74  1  0
 75 74  2  0
 76 75  1  0
 77 51  1  0
 77 78  1  0
 77 87  1  0
 78 81  1  0
 79 83  1  0
 79 78  1  0
 80 79  2  0
 83 82  1  0
 85 83  1  0
 85 86  1  0
 85 84  1  0
 87 90  1  1
 87 88  1  0
 89 87  1  0
M  ISO  4  12 100  13 100  49 101  50 101
M  END
>  <TORSDO>  (58) 
F 21

>  <SCORE>  (58) 
-13.506

>  <name>  (58) 
57

>  <ligand_id>  (58) 
57

>  <original_smiles>  (58) 
[H]c1c([H])c([H])c2c(c1[H])C([H])([H])C([H])([H])C([H])([H])C2([H])N([H])C(=O)C1([H])N(C(=O)C([H])(N([H])C(=O)C([H])(N([H])C([H])([H])[H])C([H])([H])[H])C(C([H])([H])[H])(C([H])([H])[H])C([H])([H])[H])C([H])([H])c2c([H])c(OC([H])([H])C3([H])C([H])([H])C([H])([H])C([H])([H])C([H])([N+]([H])([H])C([H])([H])C([H])([H])C([H])([H])C(=O)N4C([H])([H])C([H])([H])C([H])([H])C([H])(n5nc(-c6c([H])c([H])c(Oc7c([H])c([H])c(F)c([H])c7F)c([H])c6[H])c(C(=O)N([H])[H])c5N([H])[H])C4([H])[H])C3([H])[H])c([H])c([H])c2C1([H])[H]

>  <smiles>  (58) 
[H]c1c([H])c([H])c2c(c1[H])C([H])([H])C([H])([H])C([H])([H])C2([H])N([H])C(=O)C1([H])N(C(=O)C([H])(N([H])C(=O)C([H])(N([H])C([H])([H])[H])C([H])([H])[H])C(C([H])([H])[H])(C([H])([H])[H])C([H])([H])[H])C([H])([H])c2c([H])c(OC([H])([H])C3([H])C([H])([H])C([H])([H])C([H])([H])C([H])([N+]([H])([H])C([H])([H])C([H])([H])C([H])([H])C(=O)N4C([H])([H])C([H])([H])C([H])([H])C([H])(n5nc(-c6c([H])c([H])c(Oc7c([H])c([H])c(F)c([H])c7F)c([H])c6[H])c(C(=O)N([H])[H])c5N([H])[H])C4([H])[H])C3([H])[H])c([H])c([H])c2C1([H])[H]

$$$$
58:0:0
     RDKit          3D

 90 98  0  0  1  0  0  0  0  0999 V2000
  -29.9970  -17.1210   21.0370 C   0  0  0  0  0  0  0  0  0  0  0  0
  -30.0150  -15.7720   21.3680 C   0  0  0  0  0  3  0  0  0  0  0  0
  -29.0810  -18.0850   21.7590 C   0  0  0  0  0  2  0  0  0  0  0  0
  -30.7120  -18.0570   20.0230 C   0  0  0  0  0  2  0  0  0  0  0  0
  -28.5950  -19.1290   20.7300 C   0  0  0  0  0  3  0  0  0  0  0  0
  -29.7270  -19.2790   19.6770 C   0  0  0  0  0  3  0  0  0  0  0  0
  -30.8560  -14.6030   20.9550 C   0  0  0  0  0  0  0  0  0  0  0  0
  -30.9100  -12.1470   20.4510 C   0  0  0  0  0  2  0  0  0  0  0  0
  -30.1740  -11.8780   19.1190 C   0  0  0  0  0  2  0  0  0  0  0  0
  -28.6630  -11.6960   19.3650 C   0  0  0  0  0  2  0  0  0  0  0  0
  -28.0700  -12.8090   20.2670 C   0  0  0  0  0  3  0  0  0  0  0  0
  -28.9370  -13.0180   21.5260 C   0  0  0  0  0  2  0  0  0  0  0  0
  -30.3060  -13.3440   21.0820 N   0  0  0  0  0  0  0  0  0  0  0  0
  -32.0150  -14.7230   20.5460 O   0  0  0  0  0  0  0  0  0  0  0  0
  -25.6110  -13.4440   20.6750 C   0  0  0  0  0  0  0  0  0  0  0  0
  -24.5030  -12.6920   20.9580 C   0  0  0  0  0  0  0  0  0  0  0  0
  -24.9540  -11.3400   21.0450 C   0  0  0  0  0  0  0  0  0  0  0  0
  -26.6690  -12.5510   20.6050 N   0  0  0  0  0  0  0  0  0  0  0  0
  -26.2710  -11.2820   20.8850 N   0  0  0  0  0  0  0  0  0  0  0  0
  -24.2010  -10.0910   21.2190 C   0  0  0  0  0  0  0  0  0  0  0  0
  -24.5770   -9.1280   22.1790 C   0  0  0  0  0  3  0  0  0  0  0  0
  -23.8260   -7.9440   22.3410 C   0  0  0  0  0  3  0  0  0  0  0  0
  -22.6830   -7.7150   21.5400 C   0  0  0  0  0  0  0  0  0  0  0  0
  -22.3220   -8.6680   20.5710 C   0  0  0  0  0  3  0  0  0  0  0  0
  -23.0760   -9.8410   20.4090 C   0  0  0  0  0  3  0  0  0  0  0  0
  -21.9110   -6.5810   21.6040 O   0  0  0  0  0  0  0  0  0  0  0  0
  -21.8380   -5.8240   22.7450 C   0  0  0  0  0  0  0  0  0  0  0  0
  -21.4270   -6.3720   23.9800 C   0  0  0  0  0  3  0  0  0  0  0  0
  -21.3010   -5.5430   25.1120 C   0  0  0  0  0  3  0  0  0  0  0  0
  -21.5770   -4.1670   25.0110 C   0  0  0  0  0  0  0  0  0  0  0  0
  -21.9820   -3.6160   23.7820 C   0  0  0  0  0  3  0  0  0  0  0  0
  -22.1100   -4.4430   22.6520 C   0  0  0  0  0  0  0  0  0  0  0  0
  -22.4800   -3.9040   21.4660 F   0  0  0  0  0  0  0  0  0  0  0  0
  -21.4470   -3.3700   26.0970 F   0  0  0  0  0  0  0  0  0  0  0  0
  -23.0880  -13.1880   21.0440 C   0  0  0  0  0  0  0  0  0  0  0  0
  -22.2640  -12.5560   21.8740 N   0  0  0  0  0  0  0  0  0  0  0  0
  -22.7200  -14.1740   20.4070 O   0  0  0  0  0  0  0  0  0  0  0  0
  -22.5690  -11.7600   22.4120 H   0  0  0  0  0  0  0  0  0  0  0  0
  -21.3100  -12.8750   21.9730 H   0  0  0  0  0  0  0  0  0  0  0  0
  -25.8090  -14.8050   20.4560 N   0  0  0  0  0  0  0  0  0  0  0  0
  -25.0440  -15.4720   20.4690 H   0  0  0  0  0  0  0  0  0  0  0  0
  -26.7040  -15.2300   20.2480 H   0  0  0  0  0  0  0  0  0  0  0  0
  -27.2490  -18.6590   20.1400 C   0  0  0  0  0  2  0  0  0  0  0  0
  -25.2940  -19.0470   18.5700 C   0  0  0  0  0  1  0  0  0  0  0  0
  -26.6260  -19.5930   19.0950 C   0  0  0  0  0  2  0  0  0  0  0  0
  -30.2810  -20.7930   19.5350 C   0  0  0  0  0  3  0  0  0  0  0  0
  -29.2490  -22.0220   19.3640 C   0  0  0  0  0  3  0  0  0  0  0  0
  -29.7210  -23.5690   19.4470 C   0  0  0  0  0  3  0  0  0  0  0  0
  -28.5870  -24.7120   19.3990 C   0  0  0  0  0  3  0  0  0  0  0  0
  -28.8910  -26.1840   19.4960 O   0  0  0  0  0  0  0  0  0  0  0  0
  -25.2050  -31.2520   23.1440 C   0  0  0  0  0  0  0  0  0  0  0  0
  -27.8020  -27.0880   19.5390 C   0  0  0  0  0  0  0  0  0  0  0  0
  -24.0150  -30.1190   21.3050 C   0  0  0  0  0  3  0  0  0  0  0  0
  -25.4690  -28.7610   19.7010 C   0  0  0  0  0  0  0  0  0  0  0  0
  -26.5640  -30.4140   21.2090 C   0  0  0  0  0  2  0  0  0  0  0  0
  -26.6380  -29.1350   20.3760 C   0  0  0  0  0  0  0  0  0  0  0  0
  -27.8080  -28.3150   20.2830 C   0  0  0  0  0  3  0  0  0  0  0  0
  -26.6080  -26.7900   18.8380 C   0  0  0  0  0  3  0  0  0  0  0  0
  -25.4590  -27.5960   18.9210 C   0  0  0  0  0  3  0  0  0  0  0  0
  -24.2480  -29.6440   19.8480 C   0  0  0  0  0  2  0  0  0  0  0  0
  -25.2800  -30.6040   21.9440 N   0  0  0  0  0  0  0  0  0  0  0  0
  -24.1150  -31.4700   23.6930 O   0  0  0  0  0  0  0  0  0  0  0  0
  -23.3180  -28.9870   22.0980 C   0  0  0  0  0  0  0  0  0  0  0  0
  -21.9830  -28.8930   21.9790 N   0  0  0  0  0  0  0  0  0  0  0  0
  -23.9800  -28.2030   22.7840 O   0  0  0  0  0  0  0  0  0  0  0  0
  -21.5120  -29.5770   21.4030 H   0  0  0  0  0  0  0  0  0  0  0  0
  -18.5550  -27.8270   22.4160 C   0  0  0  0  0  0  0  0  0  0  0  0
  -21.1320  -27.8820   22.6090 C   0  0  0  0  0  3  0  0  0  0  0  0
  -21.1190  -26.5760   21.7800 C   0  0  0  0  0  2  0  0  0  0  0  0
  -19.9620  -26.5090   20.7780 C   0  0  0  0  0  2  0  0  0  0  0  0
  -18.6180  -26.6160   21.5000 C   0  0  0  0  0  2  0  0  0  0  0  0
  -19.7350  -28.4310   22.9230 C   0  0  0  0  0  0  0  0  0  0  0  0
  -19.6220  -29.5750   23.7420 C   0  0  0  0  0  3  0  0  0  0  0  0
  -18.3590  -30.1100   24.0610 C   0  0  0  0  0  3  0  0  0  0  0  0
  -17.1920  -29.5010   23.5670 C   0  0  0  0  0  3  0  0  0  0  0  0
  -17.2910  -28.3610   22.7490 C   0  0  0  0  0  3  0  0  0  0  0  0
  -26.4820  -31.7710   23.8720 C   0  0  0  0  0  3  0  0  0  0  0  0
  -26.1770  -33.1060   24.4040 N   0  0  0  0  0  0  0  0  0  0  0  0
  -26.5370  -34.2570   23.8210 C   0  0  0  0  0  0  0  0  0  0  0  0
  -27.2320  -34.3010   22.8010 O   0  0  0  0  0  0  0  0  0  0  0  0
  -25.5680  -33.1470   25.2070 H   0  0  0  0  0  0  0  0  0  0  0  0
  -24.8420  -36.1110   23.7020 C   0  0  0  0  0  1  0  0  0  0  0  0
  -26.0540  -35.5670   24.4750 C   0  0  0  0  0  3  0  0  0  0  0  0
  -28.1750  -36.2770   25.4880 C   0  0  0  0  0  1  0  0  0  0  0  0
  -27.1030  -36.6070   24.5530 N   0  0  0  0  0  0  0  0  0  0  0  0
  -26.7030  -37.5000   24.8320 H   0  0  0  0  0  0  0  0  0  0  0  0
  -26.9670  -30.8120   25.0280 C   0  0  1  0  0  0  0  0  0  0  0  0
  -25.8540  -30.4410   26.0340 C   0  0  0  0  0  1  0  0  0  0  0  0
  -27.5370  -29.4960   24.4490 C   0  0  0  0  0  1  0  0  0  0  0  0
  -28.1160  -31.4840   25.8180 C   0  0  0  0  0  1  0  0  0  0  0  0
  1  2  2  0
  1  3  1  0
  4  1  1  0
  5 43  1  0
  5  3  1  0
  6 46  1  0
  6  4  1  0
  6  5  1  0
  7 13  1  0
  7  2  1  0
  8 13  1  0
  9 10  1  0
  9  8  1  0
 11 10  1  0
 11 18  1  0
 11 12  1  0
 13 12  1  0
 14  7  2  0
 15 16  2  0
 16 35  1  0
 16 17  1  0
 17 20  1  0
 18 15  1  0
 18 19  1  0
 19 17  2  0
 20 21  1  0
 21 22  2  0
 23 26  1  0
 23 22  1  0
 24 23  2  0
 25 24  1  0
 25 20  2  0
 26 27  1  0
 27 28  1  0
 28 29  2  0
 30 29  1  0
 30 34  1  0
 31 30  2  0
 32 27  2  0
 32 31  1  0
 33 32  1  0
 35 36  1  0
 36 39  1  0
 36 38  1  0
 37 35  2  0
 40 41  1  0
 40 15  1  0
 42 40  1  0
 44 45  1  0
 45 43  1  0
 47 48  1  0
 47 46  2  0
 49 48  2  0
 49 50  1  0
 50 52  1  0
 51 62  2  0
 52 57  1  0
 53 61  1  0
 53 63  1  0
 54 60  1  0
 54 56  1  0
 55 61  1  0
 56 55  1  0
 57 56  2  0
 58 59  1  0
 58 52  2  0
 59 54  2  0
 60 53  1  0
 61 51  1  0
 63 65  2  0
 64 63  1  0
 66 64  1  0
 67 76  2  0
 67 72  1  0
 68 64  1  0
 68 72  1  0
 69 68  1  0
 70 71  1  0
 70 69  1  0
 71 67  1  0
 72 73  2  0
 73 74  1  0
 75 74  2  0
 76 75  1  0
 77 51  1  0
 77 78  1  0
 77 87  1  0
 78 81  1  0
 79 78  1  0
 79 83  1  0
 80 79  2  0
 83 82  1  0
 83 85  1  0
 85 86  1  0
 85 84  1  0
 87 90  1  1
 87 88  1  0
 89 87  1  0
M  ISO  4   2 100   7 100  49 101  50 101
M  END
>  <TORSDO>  (59) 
F 22

>  <SCORE>  (59) 
-8.650

>  <name>  (59) 
58

>  <ligand_id>  (59) 
58

>  <original_smiles>  (59) 
[H]C(C(=O)N1C([H])([H])C([H])([H])C([H])([H])C([H])(n2nc(-c3c([H])c([H])c(Oc4c([H])c([H])c(F)c([H])c4F)c([H])c3[H])c(C(=O)N([H])[H])c2N([H])[H])C1([H])[H])=C1C([H])([H])C([H])(C([H])([H])C([H])([H])C([H])([H])[H])C([H])(C([H])([H])C([H])([H])C([H])([H])C([H])([H])Oc2c([H])c([H])c3c(c2[H])C([H])([H])N(C(=O)C([H])(N([H])C(=O)C([H])(N([H])C([H])([H])[H])C([H])([H])[H])C(C([H])([H])[H])(C([H])([H])[H])C([H])([H])[H])C([H])(C(=O)N([H])C2([H])c4c([H])c([H])c([H])c([H])c4C([H])([H])C([H])([H])C2([H])[H])C3([H])[H])C1([H])[H]

>  <smiles>  (59) 
[H]C(C(=O)N1C([H])([H])C([H])([H])C([H])([H])C([H])(n2nc(-c3c([H])c([H])c(Oc4c([H])c([H])c(F)c([H])c4F)c([H])c3[H])c(C(=O)N([H])[H])c2N([H])[H])C1([H])[H])=C1C([H])([H])C([H])(C([H])([H])C([H])([H])C([H])([H])[H])C([H])(C([H])([H])C([H])([H])C([H])([H])C([H])([H])Oc2c([H])c([H])c3c(c2[H])C([H])([H])N(C(=O)C([H])(N([H])C(=O)C([H])(N([H])C([H])([H])[H])C([H])([H])[H])C(C([H])([H])[H])(C([H])([H])[H])C([H])([H])[H])C([H])(C(=O)N([H])C2([H])c4c([H])c([H])c([H])c([H])c4C([H])([H])C([H])([H])C2([H])[H])C3([H])[H])C1([H])[H]

$$$$
59:0:0
     RDKit          3D

 89 97  0  0  1  0  0  0  0  0999 V2000
  -28.8570  -21.6200   20.6370 N   0  0  0  0  0  0  0  0  0  0  0  0
  -28.9060  -21.9570   21.5970 H   0  0  0  0  0  0  0  0  0  0  0  0
  -30.4370  -18.3140   21.5860 C   0  0  0  0  0  3  0  0  0  0  0  0
  -29.1670  -17.9500   19.5800 C   0  0  0  0  0  3  0  0  0  0  0  0
  -30.1330  -19.7050   21.5290 C   0  0  0  0  0  3  0  0  0  0  0  0
  -28.8790  -19.3530   19.5110 C   0  0  0  0  0  3  0  0  0  0  0  0
  -29.9240  -17.3820   20.6450 C   0  0  0  0  0  0  0  0  0  0  0  0
  -29.3100  -20.2610   20.5170 C   0  0  0  0  0  0  0  0  0  0  0  0
  -29.9190  -15.8420   20.9990 C   0  0  0  0  0  2  0  0  0  0  0  0
  -30.6750  -14.6940   20.2000 C   0  0  0  0  0  0  0  0  0  0  0  0
  -30.4570  -12.5060   18.9990 C   0  0  0  0  0  2  0  0  0  0  0  0
  -29.4510  -12.6730   17.8370 C   0  0  0  0  0  2  0  0  0  0  0  0
  -27.9960  -12.4970   18.3220 C   0  0  0  0  0  2  0  0  0  0  0  0
  -27.7000  -13.3060   19.6120 C   0  0  0  0  0  3  0  0  0  0  0  0
  -28.8020  -13.0640   20.6660 C   0  0  0  0  0  2  0  0  0  0  0  0
  -30.0830  -13.4620   20.0610 N   0  0  0  0  0  0  0  0  0  0  0  0
  -31.7780  -14.9160   19.6860 O   0  0  0  0  0  0  0  0  0  0  0  0
  -25.3290  -13.9020   20.4100 C   0  0  0  0  0  0  0  0  0  0  0  0
  -24.2740  -13.1260   20.8070 C   0  0  0  0  0  0  0  0  0  0  0  0
  -24.7340  -11.7750   20.7460 C   0  0  0  0  0  0  0  0  0  0  0  0
  -26.3660  -13.0230   20.1360 N   0  0  0  0  0  0  0  0  0  0  0  0
  -26.0150  -11.7380   20.3960 N   0  0  0  0  0  0  0  0  0  0  0  0
  -24.0150  -10.5100   20.9490 C   0  0  0  0  0  0  0  0  0  0  0  0
  -24.4630   -9.5480   21.8810 C   0  0  0  0  0  3  0  0  0  0  0  0
  -23.7460   -8.3480   22.0700 C   0  0  0  0  0  3  0  0  0  0  0  0
  -22.5660   -8.1010   21.3280 C   0  0  0  0  0  0  0  0  0  0  0  0
  -22.1380   -9.0520   20.3850 C   0  0  0  0  0  3  0  0  0  0  0  0
  -22.8560  -10.2450   20.1930 C   0  0  0  0  0  3  0  0  0  0  0  0
  -21.8190   -6.9530   21.4260 O   0  0  0  0  0  0  0  0  0  0  0  0
  -21.7600   -6.2310   22.5910 C   0  0  0  0  0  0  0  0  0  0  0  0
  -21.3080   -6.8020   23.8000 C   0  0  0  0  0  3  0  0  0  0  0  0
  -21.1980   -6.0050   24.9580 C   0  0  0  0  0  3  0  0  0  0  0  0
  -21.5310   -4.6380   24.9060 C   0  0  0  0  0  0  0  0  0  0  0  0
  -21.9760   -4.0660   23.7020 C   0  0  0  0  0  3  0  0  0  0  0  0
  -22.0880   -4.8610   22.5470 C   0  0  0  0  0  0  0  0  0  0  0  0
  -22.4970   -4.3000   21.3830 F   0  0  0  0  0  0  0  0  0  0  0  0
  -21.4180   -3.8710   26.0150 F   0  0  0  0  0  0  0  0  0  0  0  0
  -22.8870  -13.6000   21.1320 C   0  0  0  0  0  0  0  0  0  0  0  0
  -22.1910  -12.8930   22.0150 N   0  0  0  0  0  0  0  0  0  0  0  0
  -22.4300  -14.6310   20.6410 O   0  0  0  0  0  0  0  0  0  0  0  0
  -22.5730  -12.0560   22.4320 H   0  0  0  0  0  0  0  0  0  0  0  0
  -21.2630  -13.1910   22.2810 H   0  0  0  0  0  0  0  0  0  0  0  0
  -25.4880  -15.2750   20.2410 N   0  0  0  0  0  0  0  0  0  0  0  0
  -24.7260  -15.9290   20.3860 H   0  0  0  0  0  0  0  0  0  0  0  0
  -26.3290  -15.7200   19.8980 H   0  0  0  0  0  0  0  0  0  0  0  0
  -29.1900  -22.6920   19.6610 C   0  0  0  0  0  2  0  0  0  0  0  0
  -28.2730  -24.0080   19.5960 C   0  0  0  0  0  2  0  0  0  0  0  0
  -28.4270  -25.2050   20.6260 C   0  0  0  0  0  2  0  0  0  0  0  0
  -28.3980  -26.6020   20.1510 O   0  0  0  0  0  0  0  0  0  0  0  0
  -24.5940  -31.9120   23.2220 C   0  0  0  0  0  0  0  0  0  0  0  0
  -27.2320  -27.3660   20.1950 C   0  0  0  0  0  0  0  0  0  0  0  0
  -23.3950  -30.5090   21.5790 C   0  0  0  0  0  3  0  0  0  0  0  0
  -24.8500  -28.9420   20.1770 C   0  0  0  0  0  0  0  0  0  0  0  0
  -25.9300  -30.8350   21.3990 C   0  0  0  0  0  2  0  0  0  0  0  0
  -26.0140  -29.4510   20.7650 C   0  0  0  0  0  0  0  0  0  0  0  0
  -27.2080  -28.6780   20.7560 C   0  0  0  0  0  3  0  0  0  0  0  0
  -26.0440  -26.8860   19.6060 C   0  0  0  0  0  3  0  0  0  0  0  0
  -24.8660  -27.6620   19.5900 C   0  0  0  0  0  3  0  0  0  0  0  0
  -23.6150  -29.8180   20.2080 C   0  0  0  0  0  2  0  0  0  0  0  0
  -24.6590  -31.1020   22.1250 N   0  0  0  0  0  0  0  0  0  0  0  0
  -23.5100  -32.1920   23.7520 O   0  0  0  0  0  0  0  0  0  0  0  0
  -22.7250  -29.5000   22.5410 C   0  0  0  0  0  0  0  0  0  0  0  0
  -21.3960  -29.3400   22.4190 N   0  0  0  0  0  0  0  0  0  0  0  0
  -23.3990  -28.8640   23.3560 O   0  0  0  0  0  0  0  0  0  0  0  0
  -20.9110  -29.9030   21.7350 H   0  0  0  0  0  0  0  0  0  0  0  0
  -18.0040  -28.1990   22.9360 C   0  0  0  0  0  0  0  0  0  0  0  0
  -20.5690  -28.4090   23.1890 C   0  0  0  0  0  3  0  0  0  0  0  0
  -20.6410  -26.9810   22.5990 C   0  0  0  0  0  2  0  0  0  0  0  0
  -19.5250  -26.6870   21.5920 C   0  0  0  0  0  2  0  0  0  0  0  0
  -18.1520  -26.8520   22.2480 C   0  0  0  0  0  2  0  0  0  0  0  0
  -19.1400  -28.9360   23.3640 C   0  0  0  0  0  0  0  0  0  0  0  0
  -18.9490  -30.1990   23.9670 C   0  0  0  0  0  3  0  0  0  0  0  0
  -17.6550  -30.7220   24.1480 C   0  0  0  0  0  3  0  0  0  0  0  0
  -16.5330  -29.9810   23.7380 C   0  0  0  0  0  3  0  0  0  0  0  0
  -16.7090  -28.7200   23.1370 C   0  0  0  0  0  3  0  0  0  0  0  0
  -25.8760  -32.5420   23.8510 C   0  0  0  0  0  3  0  0  0  0  0  0
  -25.5700  -33.9410   24.1810 N   0  0  0  0  0  0  0  0  0  0  0  0
  -25.9090  -34.9940   23.4240 C   0  0  0  0  0  0  0  0  0  0  0  0
  -26.5800  -34.8870   22.3950 O   0  0  0  0  0  0  0  0  0  0  0  0
  -24.9780  -34.0980   24.9820 H   0  0  0  0  0  0  0  0  0  0  0  0
  -24.1910  -36.7920   23.0620 C   0  0  0  0  0  1  0  0  0  0  0  0
  -25.4250  -36.3830   23.8810 C   0  0  0  0  0  3  0  0  0  0  0  0
  -27.5590  -37.2570   24.7240 C   0  0  0  0  0  1  0  0  0  0  0  0
  -26.4620  -37.4310   23.7750 N   0  0  0  0  0  0  0  0  0  0  0  0
  -26.0600  -38.3530   23.9220 H   0  0  0  0  0  0  0  0  0  0  0  0
  -26.3840  -31.7700   25.1300 C   0  0  1  0  0  0  0  0  0  0  0  0
  -25.2850  -31.5350   26.1930 C   0  0  0  0  0  1  0  0  0  0  0  0
  -26.9640  -30.3910   24.7360 C   0  0  0  0  0  1  0  0  0  0  0  0
  -27.5350  -32.5590   25.7980 C   0  0  0  0  0  1  0  0  0  0  0  0
  1  2  1  0
  4  7  1  0
  5  3  1  0
  6  4  2  0
  6  8  1  0
  7  9  1  0
  7  3  2  0
  8  1  1  0
  8  5  2  0
 10  9  1  0
 11 16  1  0
 12 13  1  0
 12 11  1  0
 14 13  1  0
 14 21  1  0
 14 15  1  0
 16 10  1  0
 16 15  1  0
 17 10  2  0
 18 19  2  0
 19 38  1  0
 20 19  1  0
 20 23  1  0
 21 22  1  0
 21 18  1  0
 22 20  2  0
 23 24  1  0
 24 25  2  0
 26 29  1  0
 26 25  1  0
 27 26  2  0
 28 27  1  0
 28 23  2  0
 29 30  1  0
 30 31  1  0
 31 32  2  0
 33 32  1  0
 33 37  1  0
 34 33  2  0
 35 30  2  0
 35 34  1  0
 36 35  1  0
 38 39  1  0
 39 42  1  0
 39 41  1  0
 40 38  2  0
 43 44  1  0
 43 18  1  0
 45 43  1  0
 46  1  1  0
 47 46  1  0
 47 48  1  0
 49 51  1  0
 49 48  1  0
 50 61  2  0
 51 56  1  0
 52 60  1  0
 52 62  1  0
 53 59  1  0
 53 55  1  0
 54 60  1  0
 55 54  1  0
 56 55  2  0
 57 51  2  0
 58 57  1  0
 58 53  2  0
 59 52  1  0
 60 50  1  0
 62 64  2  0
 63 62  1  0
 65 63  1  0
 66 75  2  0
 66 71  1  0
 67 63  1  0
 67 71  1  0
 68 67  1  0
 69 70  1  0
 69 68  1  0
 70 66  1  0
 71 72  2  0
 72 73  1  0
 74 73  2  0
 75 74  1  0
 76 50  1  0
 76 77  1  0
 76 86  1  0
 77 80  1  0
 78 82  1  0
 78 77  1  0
 79 78  2  0
 82 81  1  0
 84 82  1  0
 84 85  1  0
 84 83  1  0
 86 89  1  1
 86 87  1  0
 88 86  1  0
M  ISO  4   9 100  10 100  48 101  49 101
M  END
>  <TORSDO>  (60) 
F 21

>  <SCORE>  (60) 
-13.323

>  <name>  (60) 
59

>  <ligand_id>  (60) 
59

>  <original_smiles>  (60) 
[H]c1c([H])c([H])c2c(c1[H])C([H])([H])C([H])([H])C([H])([H])C2([H])N([H])C(=O)C1([H])N(C(=O)C([H])(N([H])C(=O)C([H])(N([H])C([H])([H])[H])C([H])([H])[H])C(C([H])([H])[H])(C([H])([H])[H])C([H])([H])[H])C([H])([H])c2c([H])c(OC([H])([H])C([H])([H])C([H])([H])N([H])c3c([H])c([H])c(C([H])([H])C(=O)N4C([H])([H])C([H])([H])C([H])([H])C([H])(n5nc(-c6c([H])c([H])c(Oc7c([H])c([H])c(F)c([H])c7F)c([H])c6[H])c(C(=O)N([H])[H])c5N([H])[H])C4([H])[H])c([H])c3[H])c([H])c([H])c2C1([H])[H]

>  <smiles>  (60) 
[H]c1c([H])c([H])c2c(c1[H])C([H])([H])C([H])([H])C([H])([H])C2([H])N([H])C(=O)C1([H])N(C(=O)C([H])(N([H])C(=O)C([H])(N([H])C([H])([H])[H])C([H])([H])[H])C(C([H])([H])[H])(C([H])([H])[H])C([H])([H])[H])C([H])([H])c2c([H])c(OC([H])([H])C([H])([H])C([H])([H])N([H])c3c([H])c([H])c(C([H])([H])C(=O)N4C([H])([H])C([H])([H])C([H])([H])C([H])(n5nc(-c6c([H])c([H])c(Oc7c([H])c([H])c(F)c([H])c7F)c([H])c6[H])c(C(=O)N([H])[H])c5N([H])[H])C4([H])[H])c([H])c3[H])c([H])c([H])c2C1([H])[H]

$$$$
60:0:0
     RDKit          3D

 86 94  0  0  1  0  0  0  0  0999 V2000
  -30.1720  -22.3730   20.6450 C   0  0  0  0  0  2  0  0  0  0  0  0
  -30.4340  -20.8130   20.9640 C   0  0  0  0  0  2  0  0  0  0  0  0
  -28.3640  -21.1130   19.9830 C   0  0  0  0  0  2  0  0  0  0  0  0
  -28.6530  -22.7050   20.5580 C   0  0  0  0  0  3  0  0  0  0  0  0
  -29.2660  -19.9400   20.5980 N   0  0  1  0  0  4  0  0  0  0  0  0
  -28.8080  -19.7390   21.4750 H   0  0  0  0  0  0  0  0  0  0  0  0
  -28.0480  -24.2990   19.9670 C   0  0  0  0  0  2  0  0  0  0  0  0
  -28.1820  -25.8880   20.3680 O   0  0  0  0  0  0  0  0  0  0  0  0
  -24.6120  -31.8610   23.2320 C   0  0  0  0  0  0  0  0  0  0  0  0
  -27.1720  -26.9780   20.2510 C   0  0  0  0  0  0  0  0  0  0  0  0
  -23.4190  -30.4550   21.6010 C   0  0  0  0  0  3  0  0  0  0  0  0
  -24.8710  -28.8450   20.1870 C   0  0  0  0  0  0  0  0  0  0  0  0
  -25.9850  -30.6690   21.4570 C   0  0  0  0  0  2  0  0  0  0  0  0
  -26.0550  -29.2570   20.8100 C   0  0  0  0  0  0  0  0  0  0  0  0
  -27.1970  -28.3410   20.8220 C   0  0  0  0  0  3  0  0  0  0  0  0
  -25.9630  -26.7190   19.5640 C   0  0  0  0  0  3  0  0  0  0  0  0
  -24.8490  -27.5980   19.5430 C   0  0  0  0  0  3  0  0  0  0  0  0
  -23.6500  -29.7630   20.2290 C   0  0  0  0  0  2  0  0  0  0  0  0
  -24.6940  -31.0220   22.1500 N   0  0  0  0  0  0  0  0  0  0  0  0
  -23.5230  -32.1540   23.7510 O   0  0  0  0  0  0  0  0  0  0  0  0
  -22.7250  -29.4650   22.5720 C   0  0  0  0  0  0  0  0  0  0  0  0
  -21.3950  -29.3020   22.4490 N   0  0  0  0  0  0  0  0  0  0  0  0
  -23.3900  -28.8430   23.4040 O   0  0  0  0  0  0  0  0  0  0  0  0
  -20.9120  -29.8530   21.7530 H   0  0  0  0  0  0  0  0  0  0  0  0
  -18.0090  -28.1080   22.9690 C   0  0  0  0  0  0  0  0  0  0  0  0
  -20.5700  -28.3710   23.2260 C   0  0  0  0  0  3  0  0  0  0  0  0
  -20.6670  -26.9350   22.6570 C   0  0  0  0  0  2  0  0  0  0  0  0
  -19.5620  -26.6100   21.6470 C   0  0  0  0  0  2  0  0  0  0  0  0
  -18.1820  -26.7580   22.2940 C   0  0  0  0  0  2  0  0  0  0  0  0
  -19.1290  -28.8730   23.3910 C   0  0  0  0  0  0  0  0  0  0  0  0
  -18.9110  -30.1350   23.9850 C   0  0  0  0  0  3  0  0  0  0  0  0
  -17.6050  -30.6330   24.1580 C   0  0  0  0  0  3  0  0  0  0  0  0
  -16.5000  -29.8670   23.7490 C   0  0  0  0  0  3  0  0  0  0  0  0
  -16.7030  -28.6060   23.1600 C   0  0  0  0  0  3  0  0  0  0  0  0
  -25.8830  -32.5080   23.8620 C   0  0  0  0  0  3  0  0  0  0  0  0
  -26.3740  -31.7640   25.1670 C   0  0  1  0  0  0  0  0  0  0  0  0
  -25.2620  -31.5610   26.2250 C   0  0  0  0  0  1  0  0  0  0  0  0
  -26.9510  -30.3720   24.8240 C   0  0  0  0  0  1  0  0  0  0  0  0
  -27.5210  -32.5650   25.8260 C   0  0  0  0  0  1  0  0  0  0  0  0
  -25.5720  -33.9140   24.1690 N   0  0  0  0  0  0  0  0  0  0  0  0
  -25.9130  -34.9610   23.4050 C   0  0  0  0  0  0  0  0  0  0  0  0
  -26.5850  -34.8440   22.3780 O   0  0  0  0  0  0  0  0  0  0  0  0
  -24.9730  -34.0790   24.9660 H   0  0  0  0  0  0  0  0  0  0  0  0
  -24.1970  -36.7680   23.0360 C   0  0  0  0  0  1  0  0  0  0  0  0
  -25.4350  -36.3600   23.8500 C   0  0  0  0  0  3  0  0  0  0  0  0
  -27.5740  -37.2460   24.6730 C   0  0  0  0  0  1  0  0  0  0  0  0
  -26.4750  -37.4060   23.7240 N   0  0  0  0  0  0  0  0  0  0  0  0
  -26.0740  -38.3300   23.8570 H   0  0  0  0  0  0  0  0  0  0  0  0
  -29.5960  -18.4250   19.9710 C   0  0  0  0  0  2  0  0  0  0  0  0
  -29.6690  -16.8030   20.7360 C   0  0  0  0  0  2  0  0  0  0  0  0
  -30.4150  -15.2720   20.3200 C   0  0  0  0  0  0  0  0  0  0  0  0
  -30.3930  -12.8260   19.4390 C   0  0  0  0  0  2  0  0  0  0  0  0
  -29.4760  -12.6660   18.1990 C   0  0  0  0  0  2  0  0  0  0  0  0
  -28.0200  -12.4050   18.6260 C   0  0  0  0  0  2  0  0  0  0  0  0
  -27.5770  -13.3560   19.7650 C   0  0  0  0  0  3  0  0  0  0  0  0
  -28.6200  -13.4690   20.8970 C   0  0  0  0  0  2  0  0  0  0  0  0
  -29.8710  -13.9560   20.2940 N   0  0  0  0  0  0  0  0  0  0  0  0
  -31.6060  -15.2790   19.9780 O   0  0  0  0  0  0  0  0  0  0  0  0
  -25.2030  -13.9190   20.5090 C   0  0  0  0  0  0  0  0  0  0  0  0
  -24.1390  -13.1440   20.8750 C   0  0  0  0  0  0  0  0  0  0  0  0
  -24.6040  -11.7930   20.8460 C   0  0  0  0  0  0  0  0  0  0  0  0
  -26.2450  -13.0420   20.2670 N   0  0  0  0  0  0  0  0  0  0  0  0
  -25.8950  -11.7560   20.5370 N   0  0  0  0  0  0  0  0  0  0  0  0
  -23.8730  -10.5320   21.0340 C   0  0  0  0  0  0  0  0  0  0  0  0
  -24.2970   -9.5630   21.9700 C   0  0  0  0  0  3  0  0  0  0  0  0
  -23.5640   -8.3690   22.1470 C   0  0  0  0  0  3  0  0  0  0  0  0
  -22.3930   -8.1360   21.3880 C   0  0  0  0  0  0  0  0  0  0  0  0
  -21.9880   -9.0920   20.4410 C   0  0  0  0  0  3  0  0  0  0  0  0
  -22.7210  -10.2780   20.2620 C   0  0  0  0  0  3  0  0  0  0  0  0
  -21.6330   -6.9930   21.4730 O   0  0  0  0  0  0  0  0  0  0  0  0
  -21.5750   -6.2520   22.6260 C   0  0  0  0  0  0  0  0  0  0  0  0
  -21.1340   -6.8070   23.8470 C   0  0  0  0  0  3  0  0  0  0  0  0
  -21.0230   -5.9920   24.9920 C   0  0  0  0  0  3  0  0  0  0  0  0
  -21.3440   -4.6230   24.9150 C   0  0  0  0  0  0  0  0  0  0  0  0
  -21.7770   -4.0680   23.6990 C   0  0  0  0  0  3  0  0  0  0  0  0
  -21.8890   -4.8800   22.5570 C   0  0  0  0  0  0  0  0  0  0  0  0
  -22.2870   -4.3350   21.3820 F   0  0  0  0  0  0  0  0  0  0  0  0
  -21.2300   -3.8370   26.0120 F   0  0  0  0  0  0  0  0  0  0  0  0
  -22.7420  -13.6240   21.1390 C   0  0  0  0  0  0  0  0  0  0  0  0
  -22.0060  -12.9270   21.9970 N   0  0  0  0  0  0  0  0  0  0  0  0
  -22.3120  -14.6530   20.6200 O   0  0  0  0  0  0  0  0  0  0  0  0
  -22.3660  -12.0940   22.4390 H   0  0  0  0  0  0  0  0  0  0  0  0
  -21.0680  -13.2320   22.2170 H   0  0  0  0  0  0  0  0  0  0  0  0
  -25.3680  -15.2890   20.3340 N   0  0  0  0  0  0  0  0  0  0  0  0
  -24.6020  -15.9440   20.4450 H   0  0  0  0  0  0  0  0  0  0  0  0
  -26.2190  -15.7270   20.0030 H   0  0  0  0  0  0  0  0  0  0  0  0
  1  2  1  0
  3  4  1  0
  3  5  1  0
  4  7  1  0
  4  1  1  0
  5  2  1  0
  5  6  1  1
  7  8  1  0
  9 20  2  0
 10  8  1  0
 10 15  1  0
 11 19  1  0
 11 21  1  0
 12 18  1  0
 12 14  1  0
 13 19  1  0
 14 15  2  0
 14 13  1  0
 16 10  2  0
 17 16  1  0
 17 12  2  0
 18 11  1  0
 19  9  1  0
 21 23  2  0
 22 21  1  0
 24 22  1  0
 25 34  2  0
 25 30  1  0
 26 22  1  0
 26 30  1  0
 27 26  1  0
 28 29  1  0
 28 27  1  0
 29 25  1  0
 30 31  2  0
 31 32  1  0
 33 32  2  0
 34 33  1  0
 35  9  1  0
 35 40  1  0
 35 36  1  0
 36 39  1  1
 36 37  1  0
 38 36  1  0
 40 43  1  0
 41 45  1  0
 41 40  1  0
 42 41  2  0
 45 44  1  0
 47 45  1  0
 47 48  1  0
 47 46  1  0
 49  5  1  0
 49 50  1  0
 51 50  1  0
 52 57  1  0
 53 54  1  0
 53 52  1  0
 55 54  1  0
 55 62  1  0
 55 56  1  0
 57 51  1  0
 57 56  1  0
 58 51  2  0
 59 60  2  0
 60 79  1  0
 61 60  1  0
 61 64  1  0
 62 59  1  0
 62 63  1  0
 63 61  2  0
 64 65  1  0
 65 66  2  0
 67 70  1  0
 67 66  1  0
 68 67  2  0
 69 68  1  0
 69 64  2  0
 70 71  1  0
 71 72  1  0
 72 73  2  0
 74 73  1  0
 74 78  1  0
 75 74  2  0
 76 71  2  0
 76 75  1  0
 77 76  1  0
 79 80  1  0
 80 83  1  0
 80 82  1  0
 81 79  2  0
 84 85  1  0
 84 59  1  0
 86 84  1  0
M  ISO  4   7 101   8 101  50 100  51 100
M  END
>  <TORSDO>  (61) 
F 19

>  <SCORE>  (61) 
-16.013

>  <name>  (61) 
60

>  <ligand_id>  (61) 
60

>  <original_smiles>  (61) 
[H]c1c([H])c([H])c2c(c1[H])C([H])([H])C([H])([H])C([H])([H])C2([H])N([H])C(=O)C1([H])N(C(=O)C([H])(N([H])C(=O)C([H])(N([H])C([H])([H])[H])C([H])([H])[H])C(C([H])([H])[H])(C([H])([H])[H])C([H])([H])[H])C([H])([H])c2c([H])c(OC([H])([H])C3([H])C([H])([H])C([H])([H])[N+]([H])(C([H])([H])C([H])([H])C(=O)N4C([H])([H])C([H])([H])C([H])([H])C([H])(n5nc(-c6c([H])c([H])c(Oc7c([H])c([H])c(F)c([H])c7F)c([H])c6[H])c(C(=O)N([H])[H])c5N([H])[H])C4([H])[H])C3([H])[H])c([H])c([H])c2C1([H])[H]

>  <smiles>  (61) 
[H]c1c([H])c([H])c2c(c1[H])C([H])([H])C([H])([H])C([H])([H])C2([H])N([H])C(=O)C1([H])N(C(=O)C([H])(N([H])C(=O)C([H])(N([H])C([H])([H])[H])C([H])([H])[H])C(C([H])([H])[H])(C([H])([H])[H])C([H])([H])[H])C([H])([H])c2c([H])c(OC([H])([H])C3([H])C([H])([H])C([H])([H])[N+]([H])(C([H])([H])C([H])([H])C(=O)N4C([H])([H])C([H])([H])C([H])([H])C([H])(n5nc(-c6c([H])c([H])c(Oc7c([H])c([H])c(F)c([H])c7F)c([H])c6[H])c(C(=O)N([H])[H])c5N([H])[H])C4([H])[H])C3([H])[H])c([H])c([H])c2C1([H])[H]

$$$$
61:0:0
     RDKit          3D

 93101  0  0  1  0  0  0  0  0999 V2000
  -29.4600  -21.4210   19.9140 N   0  0  0  0  0  4  0  0  0  0  0  0
  -30.1510  -21.7390   19.2530 H   0  0  0  0  0  0  0  0  0  0  0  0
  -28.8290  -20.8160   19.4110 H   0  0  0  0  0  0  0  0  0  0  0  0
  -28.6430  -22.5830   20.4160 C   0  0  0  0  0  2  0  0  0  0  0  0
  -28.9800  -24.0200   19.8720 C   0  0  0  0  0  2  0  0  0  0  0  0
  -28.2040  -25.1480   20.6500 C   0  0  0  0  0  2  0  0  0  0  0  0
  -28.3900  -26.5370   20.2330 O   0  0  0  0  0  0  0  0  0  0  0  0
  -24.5280  -31.8260   23.2060 C   0  0  0  0  0  0  0  0  0  0  0  0
  -27.2480  -27.3310   20.2070 C   0  0  0  0  0  0  0  0  0  0  0  0
  -23.3720  -30.4240   21.5340 C   0  0  0  0  0  3  0  0  0  0  0  0
  -24.8640  -28.8740   20.1550 C   0  0  0  0  0  0  0  0  0  0  0  0
  -25.9070  -30.7640   21.4120 C   0  0  0  0  0  2  0  0  0  0  0  0
  -26.0100  -29.3880   20.7750 C   0  0  0  0  0  0  0  0  0  0  0  0
  -27.2070  -28.6260   20.7920 C   0  0  0  0  0  3  0  0  0  0  0  0
  -26.0850  -26.8540   19.5700 C   0  0  0  0  0  3  0  0  0  0  0  0
  -24.8980  -27.6070   19.5490 C   0  0  0  0  0  3  0  0  0  0  0  0
  -23.6250  -29.7400   20.1640 C   0  0  0  0  0  2  0  0  0  0  0  0
  -24.6200  -31.0220   22.1090 N   0  0  0  0  0  0  0  0  0  0  0  0
  -23.4310  -32.0970   23.7160 O   0  0  0  0  0  0  0  0  0  0  0  0
  -22.6900  -29.4060   22.4790 C   0  0  0  0  0  0  0  0  0  0  0  0
  -21.3610  -29.2560   22.3450 N   0  0  0  0  0  0  0  0  0  0  0  0
  -23.3550  -28.7550   23.2920 O   0  0  0  0  0  0  0  0  0  0  0  0
  -20.8870  -29.8390   21.6660 H   0  0  0  0  0  0  0  0  0  0  0  0
  -17.9540  -28.1640   22.8640 C   0  0  0  0  0  0  0  0  0  0  0  0
  -20.5220  -28.3220   23.1000 C   0  0  0  0  0  3  0  0  0  0  0  0
  -20.5610  -26.9080   22.4780 C   0  0  0  0  0  2  0  0  0  0  0  0
  -19.4320  -26.6570   21.4740 C   0  0  0  0  0  2  0  0  0  0  0  0
  -18.0680  -26.8310   22.1450 C   0  0  0  0  0  2  0  0  0  0  0  0
  -19.1050  -28.8710   23.3010 C   0  0  0  0  0  0  0  0  0  0  0  0
  -18.9390  -30.1210   23.9360 C   0  0  0  0  0  3  0  0  0  0  0  0
  -17.6540  -30.6610   24.1380 C   0  0  0  0  0  3  0  0  0  0  0  0
  -16.5170  -29.9510   23.7160 C   0  0  0  0  0  3  0  0  0  0  0  0
  -16.6690  -28.7040   23.0840 C   0  0  0  0  0  3  0  0  0  0  0  0
  -25.7930  -32.4590   23.8640 C   0  0  0  0  0  3  0  0  0  0  0  0
  -25.4770  -33.8570   24.1860 N   0  0  0  0  0  0  0  0  0  0  0  0
  -25.8310  -34.9100   23.4380 C   0  0  0  0  0  0  0  0  0  0  0  0
  -26.5270  -34.8070   22.4240 O   0  0  0  0  0  0  0  0  0  0  0  0
  -24.8540  -34.0100   24.9670 H   0  0  0  0  0  0  0  0  0  0  0  0
  -24.1210  -36.7110   23.0220 C   0  0  0  0  0  1  0  0  0  0  0  0
  -25.3290  -36.2990   23.8790 C   0  0  0  0  0  3  0  0  0  0  0  0
  -27.4280  -37.1790   24.8020 C   0  0  0  0  0  1  0  0  0  0  0  0
  -26.3690  -37.3480   23.8110 N   0  0  0  0  0  0  0  0  0  0  0  0
  -25.9600  -38.2700   23.9380 H   0  0  0  0  0  0  0  0  0  0  0  0
  -26.2780  -31.6860   25.1520 C   0  0  1  0  0  0  0  0  0  0  0  0
  -25.1590  -31.4400   26.1910 C   0  0  0  0  0  1  0  0  0  0  0  0
  -26.8760  -30.3120   24.7720 C   0  0  0  0  0  1  0  0  0  0  0  0
  -27.4110  -32.4820   25.8420 C   0  0  0  0  0  1  0  0  0  0  0  0
  -30.1510  -20.5960   20.9640 C   0  0  0  0  0  3  0  0  0  0  0  0
  -30.9120  -16.6980   21.6540 C   0  0  0  0  0  2  0  0  0  0  0  0
  -29.6280  -16.8340   19.4960 C   0  0  0  0  0  2  0  0  0  0  0  0
  -30.5250  -18.1870   21.9260 C   0  0  0  0  0  2  0  0  0  0  0  0
  -29.2270  -18.3060   19.8450 C   0  0  0  0  0  2  0  0  0  0  0  0
  -29.9570  -15.8940   20.7050 C   0  0  0  0  0  3  0  0  0  0  0  0
  -30.3380  -19.0410   20.6370 C   0  0  0  0  0  3  0  0  0  0  0  0
  -30.6200  -14.5470   20.1890 C   0  0  0  0  0  0  0  0  0  0  0  0
  -30.3060  -12.3590   19.0560 C   0  0  0  0  0  2  0  0  0  0  0  0
  -29.3120  -12.5460   17.8880 C   0  0  0  0  0  2  0  0  0  0  0  0
  -27.8600  -12.3750   18.3750 C   0  0  0  0  0  2  0  0  0  0  0  0
  -27.5620  -13.2020   19.6580 C   0  0  0  0  0  3  0  0  0  0  0  0
  -28.6720  -13.0060   20.7180 C   0  0  0  0  0  2  0  0  0  0  0  0
  -29.9580  -13.3500   20.0990 N   0  0  0  0  0  0  0  0  0  0  0  0
  -31.7510  -14.6530   19.7120 O   0  0  0  0  0  0  0  0  0  0  0  0
  -25.1930  -13.7710   20.4780 C   0  0  0  0  0  0  0  0  0  0  0  0
  -24.1460  -12.9790   20.8770 C   0  0  0  0  0  0  0  0  0  0  0  0
  -24.6130  -11.6340   20.7990 C   0  0  0  0  0  0  0  0  0  0  0  0
  -26.2350  -12.9010   20.1910 N   0  0  0  0  0  0  0  0  0  0  0  0
  -25.8910  -11.6110   20.4410 N   0  0  0  0  0  0  0  0  0  0  0  0
  -23.9010  -10.3620   20.9900 C   0  0  0  0  0  0  0  0  0  0  0  0
  -24.3470   -9.4030   21.9250 C   0  0  0  0  0  3  0  0  0  0  0  0
  -23.6370   -8.1970   22.1110 C   0  0  0  0  0  3  0  0  0  0  0  0
  -22.4690   -7.9400   21.3560 C   0  0  0  0  0  0  0  0  0  0  0  0
  -22.0380   -8.8890   20.4120 C   0  0  0  0  0  3  0  0  0  0  0  0
  -22.7490  -10.0860   20.2240 C   0  0  0  0  0  3  0  0  0  0  0  0
  -21.7270   -6.7860   21.4530 O   0  0  0  0  0  0  0  0  0  0  0  0
  -21.6630   -6.0650   22.6180 C   0  0  0  0  0  0  0  0  0  0  0  0
  -21.1590   -6.6240   23.8130 C   0  0  0  0  0  3  0  0  0  0  0  0
  -21.0430   -5.8260   24.9700 C   0  0  0  0  0  3  0  0  0  0  0  0
  -21.4210   -4.4700   24.9310 C   0  0  0  0  0  0  0  0  0  0  0  0
  -21.9140   -3.9100   23.7390 C   0  0  0  0  0  3  0  0  0  0  0  0
  -22.0310   -4.7040   22.5850 C   0  0  0  0  0  0  0  0  0  0  0  0
  -22.4880   -4.1550   21.4340 F   0  0  0  0  0  0  0  0  0  0  0  0
  -21.3030   -3.7000   26.0370 F   0  0  0  0  0  0  0  0  0  0  0  0
  -22.7580  -13.4410   21.2150 C   0  0  0  0  0  0  0  0  0  0  0  0
  -22.0690  -12.7240   22.0980 N   0  0  0  0  0  0  0  0  0  0  0  0
  -22.2940  -14.4730   20.7360 O   0  0  0  0  0  0  0  0  0  0  0  0
  -22.4510  -11.8850   22.5070 H   0  0  0  0  0  0  0  0  0  0  0  0
  -21.1400  -13.0190   22.3660 H   0  0  0  0  0  0  0  0  0  0  0  0
  -25.3350  -15.1440   20.3160 N   0  0  0  0  0  0  0  0  0  0  0  0
  -24.5710  -15.7900   20.4770 H   0  0  0  0  0  0  0  0  0  0  0  0
  -26.1760  -15.6050   19.9910 H   0  0  0  0  0  0  0  0  0  0  0  0
  -32.3240  -21.6740   20.0340 C   0  0  0  0  0  1  0  0  0  0  0  0
  -31.4900  -22.4590   22.2720 C   0  0  0  0  0  1  0  0  0  0  0  0
  -31.5360  -21.2590   21.2950 C   0  0  0  0  0  3  0  0  0  0  0  0
  1  4  1  0
  1 48  1  0
  2  1  1  0
  3  1  1  0
  5  4  1  0
  5  6  1  0
  7  6  1  0
  8 19  2  0
  9  7  1  0
  9 14  1  0
 10 18  1  0
 10 20  1  0
 11 17  1  0
 11 13  1  0
 12 18  1  0
 13 14  2  0
 13 12  1  0
 15  9  2  0
 16 15  1  0
 16 11  2  0
 17 10  1  0
 18  8  1  0
 20 22  2  0
 21 20  1  0
 23 21  1  0
 24 33  2  0
 24 29  1  0
 25 21  1  0
 25 29  1  0
 26 25  1  0
 27 28  1  0
 27 26  1  0
 28 24  1  0
 29 30  2  0
 30 31  1  0
 32 31  2  0
 33 32  1  0
 34  8  1  0
 34 35  1  0
 34 44  1  0
 35 38  1  0
 36 40  1  0
 36 35  1  0
 37 36  2  0
 40 39  1  0
 42 40  1  0
 42 43  1  0
 42 41  1  0
 44 47  1  1
 44 45  1  0
 46 44  1  0
 48 93  1  0
 49 51  1  0
 50 52  1  0
 50 53  1  0
 52 54  1  0
 53 55  1  0
 53 49  1  0
 54 48  1  0
 54 51  1  0
 56 61  1  0
 57 58  1  0
 57 56  1  0
 59 58  1  0
 59 66  1  0
 59 60  1  0
 61 55  1  0
 61 60  1  0
 62 55  2  0
 63 64  2  0
 64 83  1  0
 65 64  1  0
 65 68  1  0
 66 67  1  0
 66 63  1  0
 67 65  2  0
 68 69  1  0
 69 70  2  0
 71 74  1  0
 71 70  1  0
 72 71  2  0
 73 72  1  0
 73 68  2  0
 74 75  1  0
 75 76  1  0
 76 77  2  0
 78 77  1  0
 78 82  1  0
 79 78  2  0
 80 75  2  0
 80 79  1  0
 81 80  1  0
 83 84  1  0
 84 87  1  0
 84 86  1  0
 85 83  2  0
 88 89  1  0
 88 63  1  0
 90 88  1  0
 91 93  1  0
 93 92  1  0
M  ISO  4   6 101   7 101  53 100  55 100
M  END
>  <TORSDO>  (62) 
F 22

>  <SCORE>  (62) 
-12.840

>  <name>  (62) 
61

>  <ligand_id>  (62) 
61

>  <original_smiles>  (62) 
[H]c1c([H])c([H])c2c(c1[H])C([H])([H])C([H])([H])C([H])([H])C2([H])N([H])C(=O)C1([H])N(C(=O)C([H])(N([H])C(=O)C([H])(N([H])C([H])([H])[H])C([H])([H])[H])C(C([H])([H])[H])(C([H])([H])[H])C([H])([H])[H])C([H])([H])c2c([H])c(OC([H])([H])C([H])([H])C([H])([H])[N+]([H])([H])C([H])(C([H])(C([H])([H])[H])C([H])([H])[H])C3([H])C([H])([H])C([H])([H])C([H])(C(=O)N4C([H])([H])C([H])([H])C([H])([H])C([H])(n5nc(-c6c([H])c([H])c(Oc7c([H])c([H])c(F)c([H])c7F)c([H])c6[H])c(C(=O)N([H])[H])c5N([H])[H])C4([H])[H])C([H])([H])C3([H])[H])c([H])c([H])c2C1([H])[H]

>  <smiles>  (62) 
[H]c1c([H])c([H])c2c(c1[H])C([H])([H])C([H])([H])C([H])([H])C2([H])N([H])C(=O)C1([H])N(C(=O)C([H])(N([H])C(=O)C([H])(N([H])C([H])([H])[H])C([H])([H])[H])C(C([H])([H])[H])(C([H])([H])[H])C([H])([H])[H])C([H])([H])c2c([H])c(OC([H])([H])C([H])([H])C([H])([H])[N+]([H])([H])C([H])(C([H])(C([H])([H])[H])C([H])([H])[H])C3([H])C([H])([H])C([H])([H])C([H])(C(=O)N4C([H])([H])C([H])([H])C([H])([H])C([H])(n5nc(-c6c([H])c([H])c(Oc7c([H])c([H])c(F)c([H])c7F)c([H])c6[H])c(C(=O)N([H])[H])c5N([H])[H])C4([H])[H])C([H])([H])C3([H])[H])c([H])c([H])c2C1([H])[H]

$$$$
62:0:0
     RDKit          3D

 91 98  0  0  1  0  0  0  0  0999 V2000
  -30.3470  -20.7830   20.3580 C   0  0  0  0  0  3  0  0  0  0  0  0
  -30.4320  -19.3670   19.6420 N   0  0  0  0  0  4  0  0  0  0  0  0
  -30.1560  -19.5760   18.6960 H   0  0  0  0  0  0  0  0  0  0  0  0
  -31.4200  -19.1870   19.5570 H   0  0  0  0  0  0  0  0  0  0  0  0
  -28.2580  -18.0120   19.9960 C   0  0  0  0  0  1  0  0  0  0  0  0
  -29.7900  -17.9370   19.9070 C   0  0  0  0  0  3  0  0  0  0  0  0
  -30.3980  -16.7240   20.9020 C   0  0  0  0  0  2  0  0  0  0  0  0
  -31.0980  -15.3030   20.4330 C   0  0  0  0  0  0  0  0  0  0  0  0
  -30.9910  -12.9640   19.4800 C   0  0  0  0  0  2  0  0  0  0  0  0
  -30.0880  -12.9710   18.2250 C   0  0  0  0  0  2  0  0  0  0  0  0
  -28.6130  -12.7600   18.6160 C   0  0  0  0  0  2  0  0  0  0  0  0
  -28.1800  -13.6500   19.8110 C   0  0  0  0  0  3  0  0  0  0  0  0
  -29.2150  -13.6270   20.9580 C   0  0  0  0  0  2  0  0  0  0  0  0
  -30.5080  -14.0400   20.3930 N   0  0  0  0  0  0  0  0  0  0  0  0
  -32.2730  -15.3680   20.0580 O   0  0  0  0  0  0  0  0  0  0  0  0
  -25.7680  -14.2040   20.4840 C   0  0  0  0  0  0  0  0  0  0  0  0
  -24.7010  -13.4200   20.8200 C   0  0  0  0  0  0  0  0  0  0  0  0
  -25.1760  -12.0720   20.7910 C   0  0  0  0  0  0  0  0  0  0  0  0
  -26.8280  -13.3380   20.2660 N   0  0  0  0  0  0  0  0  0  0  0  0
  -26.4760  -12.0480   20.5150 N   0  0  0  0  0  0  0  0  0  0  0  0
  -24.4540  -10.8020   20.9530 C   0  0  0  0  0  0  0  0  0  0  0  0
  -24.8330   -9.8540   21.9280 C   0  0  0  0  0  3  0  0  0  0  0  0
  -24.1090   -8.6510   22.0800 C   0  0  0  0  0  3  0  0  0  0  0  0
  -22.9910   -8.3880   21.2550 C   0  0  0  0  0  0  0  0  0  0  0  0
  -22.6310   -9.3230   20.2680 C   0  0  0  0  0  3  0  0  0  0  0  0
  -23.3560  -10.5160   20.1150 C   0  0  0  0  0  3  0  0  0  0  0  0
  -22.2440   -7.2370   21.3120 O   0  0  0  0  0  0  0  0  0  0  0  0
  -22.0660   -6.5540   22.4870 C   0  0  0  0  0  0  0  0  0  0  0  0
  -21.4750   -7.1580   23.6180 C   0  0  0  0  0  3  0  0  0  0  0  0
  -21.2490   -6.3990   24.7840 C   0  0  0  0  0  3  0  0  0  0  0  0
  -21.6010   -5.0370   24.8180 C   0  0  0  0  0  0  0  0  0  0  0  0
  -22.1820   -4.4310   23.6900 C   0  0  0  0  0  3  0  0  0  0  0  0
  -22.4120   -5.1870   22.5270 C   0  0  0  0  0  0  0  0  0  0  0  0
  -22.9540   -4.5950   21.4350 F   0  0  0  0  0  0  0  0  0  0  0  0
  -21.3760   -4.3050   25.9340 F   0  0  0  0  0  0  0  0  0  0  0  0
  -23.2930  -13.8840   21.0580 C   0  0  0  0  0  0  0  0  0  0  0  0
  -22.5550  -13.1900   21.9170 N   0  0  0  0  0  0  0  0  0  0  0  0
  -22.8580  -14.9010   20.5180 O   0  0  0  0  0  0  0  0  0  0  0  0
  -22.9210  -12.3700   22.3770 H   0  0  0  0  0  0  0  0  0  0  0  0
  -21.6080  -13.4790   22.1190 H   0  0  0  0  0  0  0  0  0  0  0  0
  -25.9230  -15.5780   20.3200 N   0  0  0  0  0  0  0  0  0  0  0  0
  -25.1440  -16.2180   20.4300 H   0  0  0  0  0  0  0  0  0  0  0  0
  -26.7740  -16.0310   20.0160 H   0  0  0  0  0  0  0  0  0  0  0  0
  -29.9370  -20.3140   22.8790 C   0  0  0  0  0  1  0  0  0  0  0  0
  -30.9110  -20.8410   21.8090 C   0  0  0  0  0  3  0  0  0  0  0  0
  -33.2990  -21.0760   22.7840 C   0  0  0  0  0  1  0  0  0  0  0  0
  -32.3210  -20.2270   21.9610 C   0  0  0  0  0  2  0  0  0  0  0  0
  -29.1820  -21.9580   20.0520 C   0  0  0  0  0  2  0  0  0  0  0  0
  -29.3900  -23.6180   20.2640 C   0  0  0  0  0  3  0  0  0  0  0  0
  -28.2460  -24.8050   19.9520 C   0  0  0  0  0  3  0  0  0  0  0  0
  -28.4080  -26.3410   20.0980 O   0  0  0  0  0  0  0  0  0  0  0  0
  -24.6500  -31.8560   23.1750 C   0  0  0  0  0  0  0  0  0  0  0  0
  -27.3080  -27.2700   20.0380 C   0  0  0  0  0  0  0  0  0  0  0  0
  -23.4590  -30.4580   21.5280 C   0  0  0  0  0  3  0  0  0  0  0  0
  -24.9260  -28.9370   20.0640 C   0  0  0  0  0  0  0  0  0  0  0  0
  -26.0010  -30.7880   21.3370 C   0  0  0  0  0  2  0  0  0  0  0  0
  -26.0980  -29.4070   20.6660 C   0  0  0  0  0  0  0  0  0  0  0  0
  -27.2840  -28.5860   20.6450 C   0  0  0  0  0  3  0  0  0  0  0  0
  -26.1070  -26.8980   19.3910 C   0  0  0  0  0  3  0  0  0  0  0  0
  -24.9400  -27.6920   19.4160 C   0  0  0  0  0  3  0  0  0  0  0  0
  -23.6760  -29.8000   20.1380 C   0  0  0  0  0  2  0  0  0  0  0  0
  -24.7240  -31.0550   22.0690 N   0  0  0  0  0  0  0  0  0  0  0  0
  -23.5640  -32.1110   23.7190 O   0  0  0  0  0  0  0  0  0  0  0  0
  -22.8130  -29.4240   22.4840 C   0  0  0  0  0  0  0  0  0  0  0  0
  -21.5020  -29.1750   22.3230 N   0  0  0  0  0  0  0  0  0  0  0  0
  -23.4980  -28.8470   23.3320 O   0  0  0  0  0  0  0  0  0  0  0  0
  -21.0040  -29.6960   21.6150 H   0  0  0  0  0  0  0  0  0  0  0  0
  -18.1990  -27.7440   22.7060 C   0  0  0  0  0  0  0  0  0  0  0  0
  -20.7150  -28.2020   23.0860 C   0  0  0  0  0  3  0  0  0  0  0  0
  -20.9480  -26.7650   22.5640 C   0  0  0  0  0  2  0  0  0  0  0  0
  -19.9240  -26.3330   21.5090 C   0  0  0  0  0  2  0  0  0  0  0  0
  -18.5050  -26.3930   22.0810 C   0  0  0  0  0  2  0  0  0  0  0  0
  -19.2350  -28.5980   23.1630 C   0  0  0  0  0  0  0  0  0  0  0  0
  -18.8940  -29.8560   23.7060 C   0  0  0  0  0  3  0  0  0  0  0  0
  -17.5490  -30.2610   23.7960 C   0  0  0  0  0  3  0  0  0  0  0  0
  -16.5270  -29.4050   23.3550 C   0  0  0  0  0  3  0  0  0  0  0  0
  -16.8510  -28.1480   22.8160 C   0  0  0  0  0  3  0  0  0  0  0  0
  -25.9230  -32.5080   23.7950 C   0  0  0  0  0  3  0  0  0  0  0  0
  -26.4560  -31.7390   25.0680 C   0  0  1  0  0  0  0  0  0  0  0  0
  -25.3740  -31.4810   26.1420 C   0  0  0  0  0  1  0  0  0  0  0  0
  -27.0590  -30.3710   24.6730 C   0  0  0  0  0  1  0  0  0  0  0  0
  -27.5980  -32.5480   25.7280 C   0  0  0  0  0  1  0  0  0  0  0  0
  -25.5900  -33.8990   24.1410 N   0  0  0  0  0  0  0  0  0  0  0  0
  -25.9240  -34.9690   23.4060 C   0  0  0  0  0  0  0  0  0  0  0  0
  -26.6100  -34.8890   22.3840 O   0  0  0  0  0  0  0  0  0  0  0  0
  -24.9800  -34.0330   24.9330 H   0  0  0  0  0  0  0  0  0  0  0  0
  -24.1830  -36.7540   23.0590 C   0  0  0  0  0  1  0  0  0  0  0  0
  -25.4170  -36.3450   23.8800 C   0  0  0  0  0  3  0  0  0  0  0  0
  -27.5250  -37.2400   24.7630 C   0  0  0  0  0  1  0  0  0  0  0  0
  -26.4400  -37.4100   23.8020 N   0  0  0  0  0  0  0  0  0  0  0  0
  -26.0210  -38.3240   23.9540 H   0  0  0  0  0  0  0  0  0  0  0  0
  1 48  1  0
  1 45  1  0
  2  6  1  0
  2  1  1  0
  3  2  1  0
  4  2  1  0
  6  5  1  0
  6  7  1  0
  8  7  1  0
  9 14  1  0
 10 11  1  0
 10  9  1  0
 12 11  1  0
 12 19  1  0
 12 13  1  0
 14  8  1  0
 14 13  1  0
 15  8  2  0
 16 17  2  0
 17 36  1  0
 18 17  1  0
 18 21  1  0
 19 16  1  0
 19 20  1  0
 20 18  2  0
 21 22  1  0
 22 23  2  0
 24 27  1  0
 24 23  1  0
 25 24  2  0
 26 25  1  0
 26 21  2  0
 27 28  1  0
 28 33  2  0
 28 29  1  0
 29 30  2  0
 30 31  1  0
 31 35  1  0
 32 31  2  0
 33 32  1  0
 34 33  1  0
 36 37  1  0
 37 40  1  0
 37 39  1  0
 38 36  2  0
 41 42  1  0
 41 16  1  0
 43 41  1  0
 45 47  1  0
 45 44  1  0
 47 46  1  0
 48 49  1  0
 50 51  1  0
 50 49  2  0
 52 63  2  0
 53 51  1  0
 53 58  1  0
 54 62  1  0
 54 64  1  0
 55 61  1  0
 55 57  1  0
 56 62  1  0
 57 56  1  0
 58 57  2  0
 59 60  1  0
 59 53  2  0
 60 55  2  0
 61 54  1  0
 62 52  1  0
 64 66  2  0
 65 64  1  0
 67 65  1  0
 68 77  2  0
 68 73  1  0
 69 65  1  0
 69 73  1  0
 70 69  1  0
 71 72  1  0
 71 70  1  0
 72 68  1  0
 73 74  2  0
 74 75  1  0
 76 75  2  0
 77 76  1  0
 78 52  1  0
 78 83  1  0
 78 79  1  0
 79 82  1  1
 79 80  1  0
 81 79  1  0
 83 86  1  0
 84 88  1  0
 84 83  1  0
 85 84  2  0
 88 87  1  0
 90 88  1  0
 90 91  1  0
 90 89  1  0
M  ISO  4   7 100   8 100  50 101  51 101
M  END
>  <TORSDO>  (63) 
F 24

>  <SCORE>  (63) 
-11.412

>  <name>  (63) 
62

>  <ligand_id>  (63) 
62

>  <original_smiles>  (63) 
[H]c1c([H])c([H])c2c(c1[H])C([H])([H])C([H])([H])C([H])([H])C2([H])N([H])C(=O)C1([H])N(C(=O)C([H])(N([H])C(=O)C([H])(N([H])C([H])([H])[H])C([H])([H])[H])C(C([H])([H])[H])(C([H])([H])[H])C([H])([H])[H])C([H])([H])c2c([H])c(OC([H])([H])C([H])([H])C([H])([H])C([H])(C([H])(C([H])([H])[H])C([H])([H])C([H])([H])[H])[N+]([H])([H])C([H])(C([H])([H])[H])C([H])([H])C(=O)N3C([H])([H])C([H])([H])C([H])([H])C([H])(n4nc(-c5c([H])c([H])c(Oc6c([H])c([H])c(F)c([H])c6F)c([H])c5[H])c(C(=O)N([H])[H])c4N([H])[H])C3([H])[H])c([H])c([H])c2C1([H])[H]

>  <smiles>  (63) 
[H]c1c([H])c([H])c2c(c1[H])C([H])([H])C([H])([H])C([H])([H])C2([H])N([H])C(=O)C1([H])N(C(=O)C([H])(N([H])C(=O)C([H])(N([H])C([H])([H])[H])C([H])([H])[H])C(C([H])([H])[H])(C([H])([H])[H])C([H])([H])[H])C([H])([H])c2c([H])c(OC([H])([H])C([H])([H])C([H])([H])C([H])(C([H])(C([H])([H])[H])C([H])([H])C([H])([H])[H])[N+]([H])([H])C([H])(C([H])([H])[H])C([H])([H])C(=O)N3C([H])([H])C([H])([H])C([H])([H])C([H])(n4nc(-c5c([H])c([H])c(Oc6c([H])c([H])c(F)c([H])c6F)c([H])c5[H])c(C(=O)N([H])[H])c4N([H])[H])C3([H])[H])c([H])c([H])c2C1([H])[H]

$$$$
63:0:0
     RDKit          3D

 95103  0  0  1  0  0  0  0  0999 V2000
  -30.8990  -21.0260   23.0070 C   0  0  0  0  0  1  0  0  0  0  0  0
  -30.6940  -21.6460   21.6090 C   0  0  0  0  0  3  0  0  0  0  0  0
  -27.9230  -19.5500   19.8910 C   0  0  0  0  0  2  0  0  0  0  0  0
  -28.4040  -20.4930   20.9940 C   0  0  0  0  0  2  0  0  0  0  0  0
  -29.1450  -18.7110   19.4880 C   0  0  0  0  0  2  0  0  0  0  0  0
  -29.8700  -20.7450   20.6270 C   0  0  0  0  0  3  0  0  0  0  0  0
  -30.3920  -19.3420   20.1610 C   0  0  0  0  0  3  0  0  0  0  0  0
  -30.9110  -18.4440   21.2370 N   0  0  0  0  0  4  0  0  0  0  0  0
  -30.2000  -18.2510   21.9260 H   0  0  0  0  0  0  0  0  0  0  0  0
  -31.6400  -18.9520   21.7120 H   0  0  0  0  0  0  0  0  0  0  0  0
  -31.5700  -17.1760   20.8030 C   0  0  0  0  0  2  0  0  0  0  0  0
  -30.7460  -15.8730   21.0310 C   0  0  0  0  0  2  0  0  0  0  0  0
  -31.3890  -14.6170   20.3930 C   0  0  0  0  0  0  0  0  0  0  0  0
  -31.0390  -12.3960   19.3620 C   0  0  0  0  0  2  0  0  0  0  0  0
  -30.1350  -12.5540   18.1230 C   0  0  0  0  0  2  0  0  0  0  0  0
  -28.6470  -12.4930   18.5230 C   0  0  0  0  0  2  0  0  0  0  0  0
  -28.3100  -13.4290   19.7150 C   0  0  0  0  0  3  0  0  0  0  0  0
  -29.3310  -13.2510   20.8620 C   0  0  0  0  0  2  0  0  0  0  0  0
  -30.6790  -13.4580   20.3140 N   0  0  0  0  0  0  0  0  0  0  0  0
  -32.5070  -14.7290   19.8830 O   0  0  0  0  0  0  0  0  0  0  0  0
  -25.9570  -14.1870   20.4350 C   0  0  0  0  0  0  0  0  0  0  0  0
  -24.8330  -13.4820   20.7720 C   0  0  0  0  0  0  0  0  0  0  0  0
  -25.1930  -12.1010   20.6940 C   0  0  0  0  0  0  0  0  0  0  0  0
  -26.9360  -13.2400   20.1770 N   0  0  0  0  0  0  0  0  0  0  0  0
  -26.4790  -11.9790   20.3870 N   0  0  0  0  0  0  0  0  0  0  0  0
  -24.3760  -10.8900   20.8350 C   0  0  0  0  0  0  0  0  0  0  0  0
  -24.7480   -9.8460   21.7110 C   0  0  0  0  0  3  0  0  0  0  0  0
  -23.9370   -8.6990   21.8430 C   0  0  0  0  0  3  0  0  0  0  0  0
  -22.7390   -8.5870   21.0980 C   0  0  0  0  0  0  0  0  0  0  0  0
  -22.3840   -9.6190   20.2110 C   0  0  0  0  0  3  0  0  0  0  0  0
  -23.1950  -10.7580   20.0770 C   0  0  0  0  0  3  0  0  0  0  0  0
  -21.9000   -7.5000   21.1430 O   0  0  0  0  0  0  0  0  0  0  0  0
  -21.8190   -6.7000   22.2550 C   0  0  0  0  0  0  0  0  0  0  0  0
  -21.4910   -7.2210   23.5250 C   0  0  0  0  0  3  0  0  0  0  0  0
  -21.3480   -6.3540   24.6270 C   0  0  0  0  0  3  0  0  0  0  0  0
  -21.5260   -4.9670   24.4600 C   0  0  0  0  0  0  0  0  0  0  0  0
  -21.8480   -4.4450   23.1950 C   0  0  0  0  0  3  0  0  0  0  0  0
  -21.9920   -5.3100   22.0950 C   0  0  0  0  0  0  0  0  0  0  0  0
  -22.2820   -4.7990   20.8740 F   0  0  0  0  0  0  0  0  0  0  0  0
  -21.3810   -4.1330   25.5170 F   0  0  0  0  0  0  0  0  0  0  0  0
  -23.4720  -14.0500   21.0560 C   0  0  0  0  0  0  0  0  0  0  0  0
  -22.6940  -13.3880   21.9060 N   0  0  0  0  0  0  0  0  0  0  0  0
  -23.1080  -15.1160   20.5590 O   0  0  0  0  0  0  0  0  0  0  0  0
  -22.9970  -12.5240   22.3310 H   0  0  0  0  0  0  0  0  0  0  0  0
  -21.7800  -13.7520   22.1350 H   0  0  0  0  0  0  0  0  0  0  0  0
  -26.2230  -15.5470   20.3070 N   0  0  0  0  0  0  0  0  0  0  0  0
  -25.5010  -16.2470   20.4320 H   0  0  0  0  0  0  0  0  0  0  0  0
  -27.0960  -15.9330   19.9720 H   0  0  0  0  0  0  0  0  0  0  0  0
  -30.0950  -23.0050   21.7860 N   0  0  0  0  0  4  0  0  0  0  0  0
  -29.1120  -22.9380   21.9990 H   0  0  0  0  0  0  0  0  0  0  0  0
  -30.5390  -23.3870   22.6060 H   0  0  0  0  0  0  0  0  0  0  0  0
  -30.3190  -24.0120   20.7120 C   0  0  0  0  0  2  0  0  0  0  0  0
  -30.5220  -25.4450   21.2810 C   0  0  0  0  0  2  0  0  0  0  0  0
  -29.2590  -26.3250   21.4300 C   0  0  0  0  0  2  0  0  0  0  0  0
  -28.8660  -26.8540   20.1650 O   0  0  0  0  0  0  0  0  0  0  0  0
  -24.5910  -31.7450   23.1550 C   0  0  0  0  0  0  0  0  0  0  0  0
  -27.6740  -27.5390   20.1690 C   0  0  0  0  0  0  0  0  0  0  0  0
  -23.5610  -30.2840   21.4450 C   0  0  0  0  0  3  0  0  0  0  0  0
  -25.1850  -28.8660   20.0790 C   0  0  0  0  0  0  0  0  0  0  0  0
  -26.0600  -30.8180   21.3700 C   0  0  0  0  0  2  0  0  0  0  0  0
  -26.2710  -29.4610   20.7340 C   0  0  0  0  0  0  0  0  0  0  0  0
  -27.5190  -28.8010   20.7870 C   0  0  0  0  0  3  0  0  0  0  0  0
  -26.5780  -26.9580   19.5030 C   0  0  0  0  0  3  0  0  0  0  0  0
  -25.3310  -27.6100   19.4630 C   0  0  0  0  0  3  0  0  0  0  0  0
  -23.8820  -29.6360   20.0710 C   0  0  0  0  0  2  0  0  0  0  0  0
  -24.7510  -30.9650   22.0500 N   0  0  0  0  0  0  0  0  0  0  0  0
  -23.4710  -31.9370   23.6470 O   0  0  0  0  0  0  0  0  0  0  0  0
  -22.9380  -29.2100   22.3640 C   0  0  0  0  0  0  0  0  0  0  0  0
  -21.6230  -28.9820   22.2120 N   0  0  0  0  0  0  0  0  0  0  0  0
  -23.6340  -28.5850   23.1680 O   0  0  0  0  0  0  0  0  0  0  0  0
  -21.1210  -29.5400   21.5360 H   0  0  0  0  0  0  0  0  0  0  0  0
  -18.2810  -27.6830   22.6590 C   0  0  0  0  0  0  0  0  0  0  0  0
  -20.8320  -27.9910   22.9410 C   0  0  0  0  0  3  0  0  0  0  0  0
  -20.9690  -26.5900   22.3010 C   0  0  0  0  0  2  0  0  0  0  0  0
  -19.8730  -26.2870   21.2740 C   0  0  0  0  0  2  0  0  0  0  0  0
  -18.4900  -26.3700   21.9260 C   0  0  0  0  0  2  0  0  0  0  0  0
  -19.3820  -28.4520   23.1230 C   0  0  0  0  0  0  0  0  0  0  0  0
  -19.1340  -29.6830   23.7680 C   0  0  0  0  0  3  0  0  0  0  0  0
  -17.8180  -30.1460   23.9560 C   0  0  0  0  0  3  0  0  0  0  0  0
  -16.7320  -29.3730   23.5100 C   0  0  0  0  0  3  0  0  0  0  0  0
  -16.9640  -28.1440   22.8680 C   0  0  0  0  0  3  0  0  0  0  0  0
  -25.8020  -32.4530   23.8410 C   0  0  0  0  0  3  0  0  0  0  0  0
  -25.3940  -33.8300   24.1500 N   0  0  0  0  0  0  0  0  0  0  0  0
  -25.6980  -34.8980   23.4010 C   0  0  0  0  0  0  0  0  0  0  0  0
  -26.4240  -34.8340   22.4040 O   0  0  0  0  0  0  0  0  0  0  0  0
  -24.7520  -33.9500   24.9200 H   0  0  0  0  0  0  0  0  0  0  0  0
  -23.8760  -36.5730   22.9560 C   0  0  0  0  0  1  0  0  0  0  0  0
  -25.1030  -36.2550   23.8250 C   0  0  0  0  0  3  0  0  0  0  0  0
  -27.1420  -37.2730   24.7370 C   0  0  0  0  0  1  0  0  0  0  0  0
  -26.0710  -37.3710   23.7490 N   0  0  0  0  0  0  0  0  0  0  0  0
  -25.6020  -38.2630   23.8760 H   0  0  0  0  0  0  0  0  0  0  0  0
  -26.3010  -31.7110   25.1420 C   0  0  1  0  0  0  0  0  0  0  0  0
  -25.1730  -31.4070   26.1540 C   0  0  0  0  0  1  0  0  0  0  0  0
  -26.9840  -30.3710   24.7780 C   0  0  0  0  0  1  0  0  0  0  0  0
  -27.3680  -32.5720   25.8590 C   0  0  0  0  0  1  0  0  0  0  0  0
  2 49  1  0
  2  1  1  0
  3  4  1  0
  5  3  1  0
  5  7  1  0
  6  4  1  0
  6  2  1  0
  7  6  1  0
  7  8  1  0
  8 10  1  0
  8  9  1  0
 11 12  1  0
 11  8  1  0
 13 12  1  0
 14 19  1  0
 15 16  1  0
 15 14  1  0
 17 16  1  0
 17 24  1  0
 17 18  1  0
 19 13  1  0
 19 18  1  0
 20 13  2  0
 21 22  2  0
 22 41  1  0
 23 22  1  0
 23 26  1  0
 24 25  1  0
 24 21  1  0
 25 23  2  0
 26 27  1  0
 27 28  2  0
 29 32  1  0
 29 28  1  0
 30 29  2  0
 31 30  1  0
 31 26  2  0
 32 33  1  0
 33 34  1  0
 34 35  2  0
 36 35  1  0
 36 40  1  0
 37 36  2  0
 38 33  2  0
 38 37  1  0
 39 38  1  0
 41 42  1  0
 42 45  1  0
 42 44  1  0
 43 41  2  0
 46 47  1  0
 46 21  1  0
 48 46  1  0
 49 50  1  0
 49 51  1  0
 52 53  1  0
 52 49  1  0
 53 54  1  0
 55 57  1  0
 55 54  1  0
 56 67  2  0
 57 62  1  0
 58 66  1  0
 58 68  1  0
 59 61  1  0
 60 66  1  0
 61 62  2  0
 61 60  1  0
 63 57  2  0
 64 63  1  0
 64 59  2  0
 65 59  1  0
 65 58  1  0
 66 56  1  0
 68 70  2  0
 69 68  1  0
 71 69  1  0
 72 81  2  0
 72 77  1  0
 73 69  1  0
 73 77  1  0
 74 73  1  0
 75 76  1  0
 75 74  1  0
 76 72  1  0
 77 78  2  0
 78 79  1  0
 80 79  2  0
 81 80  1  0
 82 56  1  0
 82 83  1  0
 82 92  1  0
 83 86  1  0
 84 88  1  0
 84 83  1  0
 85 84  2  0
 88 87  1  0
 90 88  1  0
 90 91  1  0
 90 89  1  0
 92 95  1  1
 92 93  1  0
 94 92  1  0
M  ISO  4  12 100  13 100  54 101  55 101
M  END
>  <TORSDO>  (64) 
F 24

>  <SCORE>  (64) 
-12.030

>  <name>  (64) 
63

>  <ligand_id>  (64) 
63

>  <original_smiles>  (64) 
[H]c1c([H])c([H])c2c(c1[H])C([H])([H])C([H])([H])C([H])([H])C2([H])N([H])C(=O)C1([H])N(C(=O)C([H])(N([H])C(=O)C([H])(N([H])C([H])([H])[H])C([H])([H])[H])C(C([H])([H])[H])(C([H])([H])[H])C([H])([H])[H])C([H])([H])c2c([H])c(OC([H])([H])C([H])([H])C([H])([H])[N+]([H])([H])C([H])(C([H])([H])[H])C3([H])C([H])([H])C([H])([H])C([H])([H])C3([H])[N+]([H])([H])C([H])([H])C([H])([H])C(=O)N3C([H])([H])C([H])([H])C([H])([H])C([H])(n4nc(-c5c([H])c([H])c(Oc6c([H])c([H])c(F)c([H])c6F)c([H])c5[H])c(C(=O)N([H])[H])c4N([H])[H])C3([H])[H])c([H])c([H])c2C1([H])[H]

>  <smiles>  (64) 
[H]c1c([H])c([H])c2c(c1[H])C([H])([H])C([H])([H])C([H])([H])C2([H])N([H])C(=O)C1([H])N(C(=O)C([H])(N([H])C(=O)C([H])(N([H])C([H])([H])[H])C([H])([H])[H])C(C([H])([H])[H])(C([H])([H])[H])C([H])([H])[H])C([H])([H])c2c([H])c(OC([H])([H])C([H])([H])C([H])([H])[N+]([H])([H])C([H])(C([H])([H])[H])C3([H])C([H])([H])C([H])([H])C([H])([H])C3([H])[N+]([H])([H])C([H])([H])C([H])([H])C(=O)N3C([H])([H])C([H])([H])C([H])([H])C([H])(n4nc(-c5c([H])c([H])c(Oc6c([H])c([H])c(F)c([H])c6F)c([H])c5[H])c(C(=O)N([H])[H])c4N([H])[H])C3([H])[H])c([H])c([H])c2C1([H])[H]

$$$$
64:0:0
     RDKit          3D

 88 96  0  0  1  0  0  0  0  0999 V2000
  -32.1090  -21.3820   19.9010 C   0  0  0  0  0  2  0  0  0  0  0  0
  -31.7030  -20.5890   18.6690 C   0  0  0  0  0  2  0  0  0  0  0  0
  -31.0690  -20.9770   20.9500 C   0  0  0  0  0  2  0  0  0  0  0  0
  -30.1770  -20.6540   18.6980 C   0  0  0  0  0  2  0  0  0  0  0  0
  -29.7530  -20.6650   20.1880 C   0  0  1  0  0  0  0  0  0  0  0  0
  -29.2800  -19.1160   20.5740 C   0  0  0  0  0  2  0  0  0  0  0  0
  -30.1820  -17.7460   20.3000 C   0  0  0  0  0  3  0  0  0  0  0  0
  -29.7180  -16.2220   20.7500 C   0  0  0  0  0  3  0  0  0  0  0  0
  -30.5360  -14.8570   20.3730 C   0  0  0  0  0  0  0  0  0  0  0  0
  -30.3920  -12.5550   19.3570 C   0  0  0  0  0  2  0  0  0  0  0  0
  -29.4450  -12.6020   18.1350 C   0  0  0  0  0  2  0  0  0  0  0  0
  -27.9810  -12.3930   18.5700 C   0  0  0  0  0  2  0  0  0  0  0  0
  -27.5960  -13.2850   19.7760 C   0  0  0  0  0  3  0  0  0  0  0  0
  -28.6560  -13.2270   20.8970 C   0  0  0  0  0  2  0  0  0  0  0  0
  -29.9500  -13.6030   20.3130 N   0  0  0  0  0  0  0  0  0  0  0  0
  -31.7120  -14.9590   20.0100 O   0  0  0  0  0  0  0  0  0  0  0  0
  -25.2120  -13.8690   20.5160 C   0  0  0  0  0  0  0  0  0  0  0  0
  -24.1480  -13.0940   20.8880 C   0  0  0  0  0  0  0  0  0  0  0  0
  -24.6140  -11.7430   20.8590 C   0  0  0  0  0  0  0  0  0  0  0  0
  -26.2560  -12.9910   20.2740 N   0  0  0  0  0  0  0  0  0  0  0  0
  -25.9040  -11.7080   20.5450 N   0  0  0  0  0  0  0  0  0  0  0  0
  -23.8900  -10.4810   21.0520 C   0  0  0  0  0  0  0  0  0  0  0  0
  -24.3300   -9.5100   21.9790 C   0  0  0  0  0  3  0  0  0  0  0  0
  -23.6060   -8.3120   22.1600 C   0  0  0  0  0  3  0  0  0  0  0  0
  -22.4290   -8.0750   21.4110 C   0  0  0  0  0  0  0  0  0  0  0  0
  -22.0080   -9.0350   20.4720 C   0  0  0  0  0  3  0  0  0  0  0  0
  -22.7320  -10.2240   20.2920 C   0  0  0  0  0  3  0  0  0  0  0  0
  -21.6740   -6.9300   21.5010 O   0  0  0  0  0  0  0  0  0  0  0  0
  -21.6420   -6.1780   22.6480 C   0  0  0  0  0  0  0  0  0  0  0  0
  -21.2320   -6.7210   23.8850 C   0  0  0  0  0  3  0  0  0  0  0  0
  -21.1470   -5.8950   25.0240 C   0  0  0  0  0  3  0  0  0  0  0  0
  -21.4620   -4.5260   24.9250 C   0  0  0  0  0  0  0  0  0  0  0  0
  -21.8660   -3.9820   23.6940 C   0  0  0  0  0  3  0  0  0  0  0  0
  -21.9540   -4.8050   22.5570 C   0  0  0  0  0  0  0  0  0  0  0  0
  -22.3210   -4.2710   21.3680 F   0  0  0  0  0  0  0  0  0  0  0  0
  -21.3730   -3.7310   26.0170 F   0  0  0  0  0  0  0  0  0  0  0  0
  -22.7500  -13.5670   21.1590 C   0  0  0  0  0  0  0  0  0  0  0  0
  -22.0230  -12.8700   22.0250 N   0  0  0  0  0  0  0  0  0  0  0  0
  -22.3080  -14.5910   20.6400 O   0  0  0  0  0  0  0  0  0  0  0  0
  -22.3930  -12.0410   22.4660 H   0  0  0  0  0  0  0  0  0  0  0  0
  -21.0850  -13.1690   22.2480 H   0  0  0  0  0  0  0  0  0  0  0  0
  -25.3770  -15.2410   20.3410 N   0  0  0  0  0  0  0  0  0  0  0  0
  -24.6170  -15.9020   20.4580 H   0  0  0  0  0  0  0  0  0  0  0  0
  -26.2330  -15.6750   20.0210 H   0  0  0  0  0  0  0  0  0  0  0  0
  -28.7140  -21.9470   20.4030 C   0  0  0  0  0  2  0  0  0  0  0  0
  -29.1220  -23.5510   20.2520 C   0  0  0  0  0  3  0  0  0  0  0  0
  -28.0050  -24.7670   20.2010 C   0  0  0  0  0  3  0  0  0  0  0  0
  -28.2800  -26.2770   20.2360 O   0  0  0  0  0  0  0  0  0  0  0  0
  -24.6380  -31.8860   23.2480 C   0  0  0  0  0  0  0  0  0  0  0  0
  -27.1970  -27.2120   20.1990 C   0  0  0  0  0  0  0  0  0  0  0  0
  -23.4210  -30.4900   21.6210 C   0  0  0  0  0  3  0  0  0  0  0  0
  -24.8560  -28.9180   20.1930 C   0  0  0  0  0  0  0  0  0  0  0  0
  -25.9700  -30.7680   21.4260 C   0  0  0  0  0  2  0  0  0  0  0  0
  -26.0390  -29.3780   20.7830 C   0  0  0  0  0  0  0  0  0  0  0  0
  -27.2120  -28.5400   20.7690 C   0  0  0  0  0  3  0  0  0  0  0  0
  -25.9800  -26.8380   19.5820 C   0  0  0  0  0  3  0  0  0  0  0  0
  -24.8350  -27.6580   19.5790 C   0  0  0  0  0  3  0  0  0  0  0  0
  -23.6270  -29.8090   20.2440 C   0  0  0  0  0  2  0  0  0  0  0  0
  -24.6980  -31.0670   22.1550 N   0  0  0  0  0  0  0  0  0  0  0  0
  -23.5560  -32.1730   23.7830 O   0  0  0  0  0  0  0  0  0  0  0  0
  -22.7510  -29.4830   22.5880 C   0  0  0  0  0  0  0  0  0  0  0  0
  -21.4230  -29.3100   22.4630 N   0  0  0  0  0  0  0  0  0  0  0  0
  -23.4260  -28.8590   23.4100 O   0  0  0  0  0  0  0  0  0  0  0  0
  -20.9370  -29.8660   21.7730 H   0  0  0  0  0  0  0  0  0  0  0  0
  -18.0440  -28.1080   22.9620 C   0  0  0  0  0  0  0  0  0  0  0  0
  -20.6010  -28.3790   23.2380 C   0  0  0  0  0  3  0  0  0  0  0  0
  -20.7080  -26.9420   22.6770 C   0  0  0  0  0  2  0  0  0  0  0  0
  -19.6110  -26.6060   21.6610 C   0  0  0  0  0  2  0  0  0  0  0  0
  -18.2260  -26.7530   22.2990 C   0  0  0  0  0  2  0  0  0  0  0  0
  -19.1580  -28.8780   23.3880 C   0  0  0  0  0  0  0  0  0  0  0  0
  -18.9330  -30.1450   23.9690 C   0  0  0  0  0  3  0  0  0  0  0  0
  -17.6260  -30.6420   24.1280 C   0  0  0  0  0  3  0  0  0  0  0  0
  -16.5260  -29.8700   23.7160 C   0  0  0  0  0  3  0  0  0  0  0  0
  -16.7350  -28.6050   23.1390 C   0  0  0  0  0  3  0  0  0  0  0  0
  -25.9220  -32.5180   23.8660 C   0  0  0  0  0  3  0  0  0  0  0  0
  -25.6150  -33.9180   24.2000 N   0  0  0  0  0  0  0  0  0  0  0  0
  -25.9360  -34.9720   23.4390 C   0  0  0  0  0  0  0  0  0  0  0  0
  -26.5880  -34.8700   22.3970 O   0  0  0  0  0  0  0  0  0  0  0  0
  -25.0310  -34.0700   25.0090 H   0  0  0  0  0  0  0  0  0  0  0  0
  -24.1980  -36.7650   23.1250 C   0  0  0  0  0  1  0  0  0  0  0  0
  -25.4580  -36.3610   23.9070 C   0  0  0  0  0  3  0  0  0  0  0  0
  -27.6110  -37.2490   24.6880 C   0  0  0  0  0  1  0  0  0  0  0  0
  -26.4870  -37.4160   23.7690 N   0  0  0  0  0  0  0  0  0  0  0  0
  -26.0840  -38.3350   23.9250 H   0  0  0  0  0  0  0  0  0  0  0  0
  -26.4390  -31.7460   25.1410 C   0  0  1  0  0  0  0  0  0  0  0  0
  -25.3480  -31.5140   26.2140 C   0  0  0  0  0  1  0  0  0  0  0  0
  -27.0110  -30.3650   24.7490 C   0  0  0  0  0  1  0  0  0  0  0  0
  -27.5960  -32.5330   25.7980 C   0  0  0  0  0  1  0  0  0  0  0  0
  1  3  1  0
  2  4  1  0
  2  1  1  0
  4  5  1  0
  5 45  1  6
  5  6  1  0
  5  3  1  0
  7  6  1  0
  7  8  2  0
  9  8  1  0
 10 15  1  0
 11 12  1  0
 11 10  1  0
 13 12  1  0
 13 20  1  0
 13 14  1  0
 15  9  1  0
 15 14  1  0
 16  9  2  0
 17 18  2  0
 18 37  1  0
 19 18  1  0
 19 22  1  0
 20 17  1  0
 20 21  1  0
 21 19  2  0
 22 23  1  0
 23 24  2  0
 25 28  1  0
 25 24  1  0
 26 25  2  0
 27 26  1  0
 27 22  2  0
 28 29  1  0
 29 30  1  0
 30 31  2  0
 32 31  1  0
 32 36  1  0
 33 32  2  0
 34 29  2  0
 34 33  1  0
 35 34  1  0
 37 38  1  0
 38 41  1  0
 38 40  1  0
 39 37  2  0
 42 43  1  0
 42 17  1  0
 44 42  1  0
 46 45  1  0
 47 48  1  0
 47 46  2  0
 49 60  2  0
 50 48  1  0
 50 55  1  0
 51 59  1  0
 51 61  1  0
 52 58  1  0
 52 54  1  0
 53 59  1  0
 54 53  1  0
 55 54  2  0
 56 50  2  0
 57 56  1  0
 57 52  2  0
 58 51  1  0
 59 49  1  0
 61 63  2  0
 62 61  1  0
 64 62  1  0
 65 74  2  0
 65 70  1  0
 66 62  1  0
 66 70  1  0
 67 66  1  0
 68 69  1  0
 68 67  1  0
 69 65  1  0
 70 71  2  0
 71 72  1  0
 73 72  2  0
 74 73  1  0
 75 49  1  0
 75 76  1  0
 75 85  1  0
 76 79  1  0
 77 81  1  0
 77 76  1  0
 78 77  2  0
 81 80  1  0
 83 81  1  0
 83 84  1  0
 83 82  1  0
 85 88  1  1
 85 86  1  0
 87 85  1  0
M  ISO  4   8 100   9 100  47 101  48 101
M  END
>  <TORSDO>  (65) 
F 22

>  <SCORE>  (65) 
-13.037

>  <name>  (65) 
64

>  <ligand_id>  (65) 
64

>  <original_smiles>  (65) 
[H]c1c([H])c([H])c2c(c1[H])C([H])([H])C([H])([H])C([H])([H])C2([H])N([H])C(=O)C1([H])N(C(=O)C([H])(N([H])C(=O)C([H])(N([H])C([H])([H])[H])C([H])([H])[H])C(C([H])([H])[H])(C([H])([H])[H])C([H])([H])[H])C([H])([H])c2c([H])c(OC([H])([H])C([H])([H])C([H])([H])C3(C([H])([H])C([H])([H])C([H])([H])C(=O)N4C([H])([H])C([H])([H])C([H])([H])C([H])(n5nc(-c6c([H])c([H])c(Oc7c([H])c([H])c(F)c([H])c7F)c([H])c6[H])c(C(=O)N([H])[H])c5N([H])[H])C4([H])[H])C([H])([H])C([H])([H])C([H])([H])C3([H])[H])c([H])c([H])c2C1([H])[H]

>  <smiles>  (65) 
[H]c1c([H])c([H])c2c(c1[H])C([H])([H])C([H])([H])C([H])([H])C2([H])N([H])C(=O)C1([H])N(C(=O)C([H])(N([H])C(=O)C([H])(N([H])C([H])([H])[H])C([H])([H])[H])C(C([H])([H])[H])(C([H])([H])[H])C([H])([H])[H])C([H])([H])c2c([H])c(OC([H])([H])C([H])([H])C([H])([H])C3(C([H])([H])C([H])([H])C([H])([H])C(=O)N4C([H])([H])C([H])([H])C([H])([H])C([H])(n5nc(-c6c([H])c([H])c(Oc7c([H])c([H])c(F)c([H])c7F)c([H])c6[H])c(C(=O)N([H])[H])c5N([H])[H])C4([H])[H])C([H])([H])C([H])([H])C([H])([H])C3([H])[H])c([H])c([H])c2C1([H])[H]

$$$$
65:0:0
     RDKit          3D

 99109  0  0  1  0  0  0  0  0999 V2000
  -29.6240  -23.8420   21.7030 C   0  0  0  0  0  3  0  0  0  0  0  0
  -26.0920  -22.6560   20.5290 C   0  0  0  0  0  2  0  0  0  0  0  0
  -27.1980  -24.0040   19.5060 C   0  0  0  0  0  2  0  0  0  0  0  0
  -27.1560  -23.6560   21.0090 C   0  0  1  0  0  0  0  0  0  0  0  0
  -27.2240  -22.4660   19.4960 C   0  0  2  0  0  0  0  0  0  0  0  0
  -28.4180  -22.8970   21.4270 C   0  0  0  0  0  3  0  0  0  0  0  0
  -28.5000  -21.9730   20.1810 C   0  0  0  0  0  3  0  0  0  0  0  0
  -28.3890  -20.5270   20.5020 N   0  0  0  0  0  4  0  0  0  0  0  0
  -27.6120  -20.1710   19.9710 H   0  0  0  0  0  0  0  0  0  0  0  0
  -28.1550  -20.4160   21.4740 H   0  0  0  0  0  0  0  0  0  0  0  0
  -29.5600  -19.6780   20.1780 C   0  0  0  0  0  2  0  0  0  0  0  0
  -29.3810  -18.2660   20.7800 C   0  0  0  0  0  2  0  0  0  0  0  0
  -30.4270  -17.2160   20.3430 C   0  0  0  0  0  2  0  0  0  0  0  0
  -30.1760  -15.8460   21.0240 C   0  0  0  0  0  2  0  0  0  0  0  0
  -30.8240  -14.6430   20.3020 C   0  0  0  0  0  0  0  0  0  0  0  0
  -30.6080  -12.3660   19.3620 C   0  0  0  0  0  2  0  0  0  0  0  0
  -29.6600  -12.3910   18.1460 C   0  0  0  0  0  2  0  0  0  0  0  0
  -28.1860  -12.2680   18.5840 C   0  0  0  0  0  2  0  0  0  0  0  0
  -27.8220  -13.2440   19.7350 C   0  0  0  0  0  3  0  0  0  0  0  0
  -28.8740  -13.1440   20.8640 C   0  0  0  0  0  2  0  0  0  0  0  0
  -30.1920  -13.4380   20.2780 N   0  0  0  0  0  0  0  0  0  0  0  0
  -31.8950  -14.8330   19.7160 O   0  0  0  0  0  0  0  0  0  0  0  0
  -25.4530  -13.9190   20.4880 C   0  0  0  0  0  0  0  0  0  0  0  0
  -24.3670  -13.1740   20.8630 C   0  0  0  0  0  0  0  0  0  0  0  0
  -24.7850  -11.8100   20.8020 C   0  0  0  0  0  0  0  0  0  0  0  0
  -26.4670  -13.0100   20.2280 N   0  0  0  0  0  0  0  0  0  0  0  0
  -26.0680  -11.7350   20.4700 N   0  0  0  0  0  0  0  0  0  0  0  0
  -24.0230  -10.5670   20.9860 C   0  0  0  0  0  0  0  0  0  0  0  0
  -24.4490   -9.5700   21.8910 C   0  0  0  0  0  3  0  0  0  0  0  0
  -23.6930   -8.3910   22.0640 C   0  0  0  0  0  3  0  0  0  0  0  0
  -22.4980   -8.2000   21.3310 C   0  0  0  0  0  0  0  0  0  0  0  0
  -22.0900   -9.1860   20.4140 C   0  0  0  0  0  3  0  0  0  0  0  0
  -22.8460  -10.3570   20.2400 C   0  0  0  0  0  3  0  0  0  0  0  0
  -21.7130   -7.0770   21.4160 O   0  0  0  0  0  0  0  0  0  0  0  0
  -21.6740   -6.3080   22.5510 C   0  0  0  0  0  0  0  0  0  0  0  0
  -21.3110   -6.8480   23.8040 C   0  0  0  0  0  3  0  0  0  0  0  0
  -21.2170   -6.0070   24.9320 C   0  0  0  0  0  3  0  0  0  0  0  0
  -21.4770   -4.6290   24.8060 C   0  0  0  0  0  0  0  0  0  0  0  0
  -21.8360   -4.0890   23.5590 C   0  0  0  0  0  3  0  0  0  0  0  0
  -21.9310   -4.9270   22.4340 C   0  0  0  0  0  0  0  0  0  0  0  0
  -22.2550   -4.3980   21.2280 F   0  0  0  0  0  0  0  0  0  0  0  0
  -21.3790   -3.8200   25.8880 F   0  0  0  0  0  0  0  0  0  0  0  0
  -22.9890  -13.6870   21.1710 C   0  0  0  0  0  0  0  0  0  0  0  0
  -22.2610  -13.0030   22.0460 N   0  0  0  0  0  0  0  0  0  0  0  0
  -22.5690  -14.7320   20.6730 O   0  0  0  0  0  0  0  0  0  0  0  0
  -22.6140  -12.1580   22.4710 H   0  0  0  0  0  0  0  0  0  0  0  0
  -21.3370  -13.3280   22.2930 H   0  0  0  0  0  0  0  0  0  0  0  0
  -25.6570  -15.2870   20.3300 N   0  0  0  0  0  0  0  0  0  0  0  0
  -24.9090  -15.9620   20.4490 H   0  0  0  0  0  0  0  0  0  0  0  0
  -26.5140  -15.7000   19.9840 H   0  0  0  0  0  0  0  0  0  0  0  0
  -29.3960  -24.5670   22.9830 N   0  0  0  0  0  4  0  0  0  0  0  0
  -28.4130  -24.7650   23.0810 H   0  0  0  0  0  0  0  0  0  0  0  0
  -29.6360  -23.9450   23.7410 H   0  0  0  0  0  0  0  0  0  0  0  0
  -30.1390  -25.8310   23.2080 C   0  0  0  0  0  2  0  0  0  0  0  0
  -29.4540  -27.0900   22.6260 C   0  0  0  0  0  2  0  0  0  0  0  0
  -29.7100  -27.3580   21.1250 C   0  0  0  0  0  2  0  0  0  0  0  0
  -28.6180  -26.9620   20.2950 O   0  0  0  0  0  0  0  0  0  0  0  0
  -24.5390  -31.9780   23.3440 C   0  0  0  0  0  0  0  0  0  0  0  0
  -27.4610  -27.7150   20.3000 C   0  0  0  0  0  0  0  0  0  0  0  0
  -23.4390  -30.5730   21.6220 C   0  0  0  0  0  3  0  0  0  0  0  0
  -24.9980  -29.1080   20.2320 C   0  0  0  0  0  0  0  0  0  0  0  0
  -25.9500  -31.0290   21.5270 C   0  0  0  0  0  2  0  0  0  0  0  0
  -26.1060  -29.6740   20.8720 C   0  0  0  0  0  0  0  0  0  0  0  0
  -27.3340  -28.9870   20.9090 C   0  0  0  0  0  3  0  0  0  0  0  0
  -26.3360  -27.1610   19.6560 C   0  0  0  0  0  3  0  0  0  0  0  0
  -25.1050  -27.8450   19.6210 C   0  0  0  0  0  3  0  0  0  0  0  0
  -23.7230  -29.9190   20.2400 C   0  0  0  0  0  2  0  0  0  0  0  0
  -24.6580  -31.2060   22.2270 N   0  0  0  0  0  0  0  0  0  0  0  0
  -23.4310  -32.2080   23.8470 O   0  0  0  0  0  0  0  0  0  0  0  0
  -22.7810  -29.5170   22.5370 C   0  0  0  0  0  0  0  0  0  0  0  0
  -21.4620  -29.3290   22.3770 N   0  0  0  0  0  0  0  0  0  0  0  0
  -23.4560  -28.8700   23.3430 O   0  0  0  0  0  0  0  0  0  0  0  0
  -20.9810  -29.9010   21.6960 H   0  0  0  0  0  0  0  0  0  0  0  0
  -18.0790  -28.1470   22.8160 C   0  0  0  0  0  0  0  0  0  0  0  0
  -20.6400  -28.3590   23.0970 C   0  0  0  0  0  3  0  0  0  0  0  0
  -20.7250  -26.9610   22.4410 C   0  0  0  0  0  2  0  0  0  0  0  0
  -19.6180  -26.7080   21.4140 C   0  0  0  0  0  2  0  0  0  0  0  0
  -18.2390  -26.8350   22.0680 C   0  0  0  0  0  2  0  0  0  0  0  0
  -19.2070  -28.8710   23.2850 C   0  0  0  0  0  0  0  0  0  0  0  0
  -19.0060  -30.1030   23.9430 C   0  0  0  0  0  3  0  0  0  0  0  0
  -17.7080  -30.6130   24.1370 C   0  0  0  0  0  3  0  0  0  0  0  0
  -16.5940  -29.8850   23.6870 C   0  0  0  0  0  3  0  0  0  0  0  0
  -16.7800  -28.6540   23.0330 C   0  0  0  0  0  3  0  0  0  0  0  0
  -25.7840  -32.6290   24.0290 C   0  0  0  0  0  3  0  0  0  0  0  0
  -25.4470  -34.0290   24.3240 N   0  0  0  0  0  0  0  0  0  0  0  0
  -25.8140  -35.0740   23.5690 C   0  0  0  0  0  0  0  0  0  0  0  0
  -26.5440  -34.9630   22.5810 O   0  0  0  0  0  0  0  0  0  0  0  0
  -24.8170  -34.1920   25.0960 H   0  0  0  0  0  0  0  0  0  0  0  0
  -24.0940  -36.8400   23.0850 C   0  0  0  0  0  1  0  0  0  0  0  0
  -25.2870  -36.4630   23.9770 C   0  0  0  0  0  3  0  0  0  0  0  0
  -27.3610  -37.3750   24.9210 C   0  0  0  0  0  1  0  0  0  0  0  0
  -26.3150  -37.5250   23.9130 N   0  0  0  0  0  0  0  0  0  0  0  0
  -25.8940  -38.4420   24.0300 H   0  0  0  0  0  0  0  0  0  0  0  0
  -26.2410  -31.8740   25.3380 C   0  0  1  0  0  0  0  0  0  0  0  0
  -25.0900  -31.6190   26.3390 C   0  0  0  0  0  1  0  0  0  0  0  0
  -26.8750  -30.5090   24.9840 C   0  0  0  0  0  1  0  0  0  0  0  0
  -27.3320  -32.6960   26.0640 C   0  0  0  0  0  1  0  0  0  0  0  0
  -31.1250  -21.9470   22.7060 C   0  0  0  0  0  1  0  0  0  0  0  0
  -30.9880  -23.1010   21.6960 C   0  0  0  0  0  2  0  0  0  0  0  0
  1 99  1  0
  1 51  1  0
  4  2  1  6
  4  3  1  0
  4  6  1  0
  5  3  1  1
  5  7  1  0
  5  2  1  0
  5  4  1  0
  6  1  1  0
  7  8  1  0
  7  6  1  0
  8 10  1  0
  9  8  1  0
 11  8  1  0
 11 12  1  0
 13 12  1  0
 13 14  1  0
 15 14  1  0
 16 21  1  0
 17 18  1  0
 17 16  1  0
 19 18  1  0
 19 26  1  0
 19 20  1  0
 21 15  1  0
 21 20  1  0
 22 15  2  0
 23 24  2  0
 24 43  1  0
 25 24  1  0
 25 28  1  0
 26 27  1  0
 26 23  1  0
 27 25  2  0
 28 29  1  0
 29 30  2  0
 31 34  1  0
 31 30  1  0
 32 31  2  0
 33 32  1  0
 33 28  2  0
 34 35  1  0
 35 36  1  0
 36 37  2  0
 38 37  1  0
 38 42  1  0
 39 38  2  0
 40 35  2  0
 40 39  1  0
 41 40  1  0
 43 44  1  0
 44 47  1  0
 44 46  1  0
 45 43  2  0
 48 49  1  0
 48 23  1  0
 50 48  1  0
 51 52  1  0
 51 54  1  0
 51 53  1  0
 55 54  1  0
 56 55  1  0
 57 59  1  0
 57 56  1  0
 58 69  2  0
 59 64  1  0
 60 68  1  0
 60 70  1  0
 61 67  1  0
 61 63  1  0
 62 68  1  0
 63 64  2  0
 63 62  1  0
 65 59  2  0
 66 65  1  0
 66 61  2  0
 67 60  1  0
 68 58  1  0
 70 72  2  0
 71 70  1  0
 73 71  1  0
 74 83  2  0
 74 79  1  0
 75 71  1  0
 75 79  1  0
 76 75  1  0
 77 78  1  0
 77 76  1  0
 78 74  1  0
 79 80  2  0
 80 81  1  0
 82 81  2  0
 83 82  1  0
 84 58  1  0
 84 85  1  0
 84 94  1  0
 85 88  1  0
 86 90  1  0
 86 85  1  0
 87 86  2  0
 90 89  1  0
 92 90  1  0
 92 93  1  0
 92 91  1  0
 94 97  1  1
 94 95  1  0
 96 94  1  0
 99 98  1  0
M  ISO  4  14 100  15 100  56 101  57 101
M  END
>  <TORSDO>  (66) 
F 27

>  <SCORE>  (66) 
-11.455

>  <name>  (66) 
65

>  <ligand_id>  (66) 
65

>  <original_smiles>  (66) 
[H]c1c([H])c([H])c2c(c1[H])C([H])([H])C([H])([H])C([H])([H])C2([H])N([H])C(=O)C1([H])N(C(=O)C([H])(N([H])C(=O)C([H])(N([H])C([H])([H])[H])C([H])([H])[H])C(C([H])([H])[H])(C([H])([H])[H])C([H])([H])[H])C([H])([H])c2c([H])c(OC([H])([H])C([H])([H])C([H])([H])[N+]([H])([H])C([H])(C([H])([H])C([H])([H])[H])C3([H])C4([H])C([H])([H])C([H])(C4([H])[H])C3([H])[N+]([H])([H])C([H])([H])C([H])([H])C([H])([H])C([H])([H])C(=O)N3C([H])([H])C([H])([H])C([H])([H])C([H])(n4nc(-c5c([H])c([H])c(Oc6c([H])c([H])c(F)c([H])c6F)c([H])c5[H])c(C(=O)N([H])[H])c4N([H])[H])C3([H])[H])c([H])c([H])c2C1([H])[H]

>  <smiles>  (66) 
[H]c1c([H])c([H])c2c(c1[H])C([H])([H])C([H])([H])C([H])([H])C2([H])N([H])C(=O)C1([H])N(C(=O)C([H])(N([H])C(=O)C([H])(N([H])C([H])([H])[H])C([H])([H])[H])C(C([H])([H])[H])(C([H])([H])[H])C([H])([H])[H])C([H])([H])c2c([H])c(OC([H])([H])C([H])([H])C([H])([H])[N+]([H])([H])C([H])(C([H])([H])C([H])([H])[H])C3([H])C4([H])C([H])([H])C([H])(C4([H])[H])C3([H])[N+]([H])([H])C([H])([H])C([H])([H])C([H])([H])C([H])([H])C(=O)N3C([H])([H])C([H])([H])C([H])([H])C([H])(n4nc(-c5c([H])c([H])c(Oc6c([H])c([H])c(F)c([H])c6F)c([H])c5[H])c(C(=O)N([H])[H])c4N([H])[H])C3([H])[H])c([H])c([H])c2C1([H])[H]

$$$$
66:0:0
     RDKit          3D

 94 91  0  0  1  0  0  0  0  0999 V2000
  -25.0130  -17.4510   17.9150 C   0  0  0  0  0  1  0  0  0  0  0  0
  -25.3460  -17.3490   19.4110 C   0  0  0  0  0  0  0  0  0  0  0  0
  -25.9310  -13.5210   23.3830 C   0  0  0  0  0 15  0  0  0  0  0  0
  -27.2310  -11.8800   22.2530 C   0  0  0  0  0 15  0  0  0  0  0  0
  -24.8650  -15.3750   22.2630 C   0  0  0  0  0  1  0  0  0  0  0  0
  -27.3410  -11.9220   19.7330 C   0  0  0  0  0  1  0  0  0  0  0  0
  -25.2800  -15.5070   19.8320 C   0  0  0  0  0  1  0  0  0  0  0  0
  -25.1560  -16.7160   22.9910 C   0  0  0  0  0  1  0  0  0  0  0  0
  -26.1540  -13.7440   18.8300 N   0  0  0  0  0  1  0  0  0  0  0  0
  -25.6760  -13.4370   19.6880 H   0  0  0  0  0  0  0  0  0  0  0  0
  -27.0160  -14.2630   18.8150 H   0  0  0  0  0  0  0  0  0  0  0  0
  -29.1420  -11.7990   19.8870 C   0  0  0  0  0  1  0  0  0  0  0  0
  -30.6480  -13.3650   19.7510 C   0  0  2  0  0  0  0  0  0  0  0  0
  -31.2140  -12.0240   18.9150 C   0  0  0  0  0  1  0  0  0  0  0  0
  -30.1150  -12.4300   17.5980 C   0  0  0  0  0  1  0  0  0  0  0  0
  -28.7830  -13.4160   17.9700 C   0  0  0  0  0  2  0  0  0  0  0  0
  -28.4450  -14.1620   19.6430 C   0  0  0  0  0  2  0  0  0  0  0  0
  -29.6540  -13.7610   20.8800 C   0  0  0  0  0  1  0  0  0  0  0  0
  -30.8010  -12.5870   20.4550 N   0  0  0  0  0  1  0  0  0  0  0  0
  -31.7760  -14.0480   19.9410 O   0  0  0  0  0  1  0  0  0  0  0  0
  -26.2460  -14.1200   20.9040 C   0  0  0  0  0  0  0  0  0  0  0  0
  -24.7490  -13.3840   20.6680 C   0  0  0  0  0  0  0  0  0  0  0  0
  -24.9440  -12.0820   20.3310 C   0  0  0  0  0  2  0  0  0  0  0  0
  -27.2690  -13.8180   20.6740 N   0  0  0  0  0  2  0  0  0  0  0  0
  -25.7010  -13.2450   20.6500 N   0  0  0  0  0  0  0  0  0  0  0  0
  -24.2150  -10.7880   20.8010 C   0  0  0  0  0  3  0  0  0  0  0  0
  -24.5960   -9.7420   21.7150 C   0  0  0  0  0  3  0  0  0  0  0  0
  -23.8380   -8.5560   21.9060 C   0  0  0  0  0  3  0  0  0  0  0  0
  -22.6470   -8.3450   21.1850 C   0  0  0  0  0  0  0  0  0  0  0  0
  -22.2730   -9.3250   20.2520 C   0  0  0  0  0  3  0  0  0  0  0  0
  -23.0460  -10.4920   20.0610 C   0  0  0  0  0  3  0  0  0  0  0  0
  -21.8600   -7.2160   21.2730 O   0  0  0  0  0  0  0  0  0  0  0  0
  -21.7600   -6.4630   22.4200 C   0  0  0  0  0  0  0  0  0  0  0  0
  -21.3640   -7.0270   23.6540 C   0  0  0  0  0  3  0  0  0  0  0  0
  -21.1980   -6.2040   24.7880 C   0  0  0  0  0  3  0  0  0  0  0  0
  -21.4230   -4.8190   24.6940 C   0  0  0  0  0  0  0  0  0  0  0  0
  -21.8100   -4.2510   23.4680 C   0  0  0  0  0  3  0  0  0  0  0  0
  -21.9720   -5.0690   22.3350 C   0  0  0  0  0  0  0  0  0  0  0  0
  -22.3170   -4.5080   21.1520 F   0  0  0  0  0  0  0  0  0  0  0  0
  -21.2590   -4.0290   25.7830 F   0  0  0  0  0  0  0  0  0  0  0  0
  -23.1990  -13.7180   20.8780 C   0  0  0  0  0  0  0  0  0  0  0  0
  -22.5430  -13.0880   21.8550 N   0  0  0  0  0  0  0  0  0  0  0  0
  -22.6780  -14.6500   20.2700 O   0  0  0  0  0  0  0  0  0  0  0  0
  -22.9880  -12.3570   22.3870 H   0  0  0  0  0  0  0  0  0  0  0  0
  -21.5830  -13.3230   22.0550 H   0  0  0  0  0  0  0  0  0  0  0  0
  -27.0820  -15.2840   21.3320 N   0  0  0  0  0  4  0  0  0  0  0  0
  -26.5320  -15.9390   21.8780 H   0  0  0  0  0  0  0  0  0  0  0  0
  -27.9660  -15.0940   21.7840 H   0  0  0  0  0  0  0  0  0  0  0  0
  -26.3150  -18.7100   19.7400 N   0  0  0  0  0  4  0  0  0  0  0  0
  -26.6070  -18.5870   20.7090 H   0  0  0  0  0  0  0  0  0  0  0  0
  -26.2570  -20.3900   19.4640 C   0  0  0  0  0  3  0  0  0  0  0  0
  -27.2630  -21.9360   19.8900 C   0  0  0  0  0  3  0  0  0  0  0  0
  -27.2010  -23.8050   19.6260 C   0  0  0  0  0  2  0  0  0  0  0  0
  -27.9870  -25.2930   20.0420 O   0  0  0  0  0  0  0  0  0  0  0  0
  -24.9320  -31.5290   23.2310 C   0  0  0  0  0  0  0  0  0  0  0  0
  -27.3490  -26.6530   20.0120 C   0  0  0  0  0  0  0  0  0  0  0  0
  -23.8240  -30.2290   21.4850 C   0  0  0  0  0  3  0  0  0  0  0  0
  -25.2960  -28.7470   19.9900 C   0  0  0  0  0  0  0  0  0  0  0  0
  -26.4050  -30.3730   21.4870 C   0  0  0  0  0  2  0  0  0  0  0  0
  -26.4580  -29.0030   20.7270 C   0  0  0  0  0  0  0  0  0  0  0  0
  -27.5050  -27.9590   20.7370 C   0  0  0  0  0  3  0  0  0  0  0  0
  -26.2490  -26.6580   19.1640 C   0  0  0  0  0  3  0  0  0  0  0  0
  -25.2330  -27.6130   19.1870 C   0  0  0  0  0  3  0  0  0  0  0  0
  -24.1080  -29.6910   20.0650 C   0  0  0  0  0  2  0  0  0  0  0  0
  -25.0780  -30.7420   22.1170 N   0  0  0  0  0  0  0  0  0  0  0  0
  -23.8160  -31.7830   23.7140 O   0  0  0  0  0  0  0  0  0  0  0  0
  -23.1200  -29.1440   22.3420 C   0  0  0  0  0  0  0  0  0  0  0  0
  -21.7960  -28.9710   22.1670 N   0  0  0  0  0  0  0  0  0  0  0  0
  -23.7690  -28.4710   23.1480 O   0  0  0  0  0  0  0  0  0  0  0  0
  -21.3250  -29.5710   21.5030 H   0  0  0  0  0  0  0  0  0  0  0  0
  -18.4130  -27.7090   22.5110 C   0  0  0  0  0  0  0  0  0  0  0  0
  -20.9640  -27.9800   22.8580 C   0  0  0  0  0  3  0  0  0  0  0  0
  -21.0930  -26.5870   22.2000 C   0  0  0  0  0  2  0  0  0  0  0  0
  -20.0210  -26.3190   21.1380 C   0  0  0  0  0  2  0  0  0  0  0  0
  -18.6220  -26.4080   21.7530 C   0  0  0  0  0  2  0  0  0  0  0  0
  -19.5120  -28.4540   23.0160 C   0  0  0  0  0  0  0  0  0  0  0  0
  -19.2630  -29.6700   23.6880 C   0  0  0  0  0  3  0  0  0  0  0  0
  -17.9490  -30.1460   23.8550 C   0  0  0  0  0  3  0  0  0  0  0  0
  -16.8650  -29.3990   23.3640 C   0  0  0  0  0  3  0  0  0  0  0  0
  -17.0970  -28.1810   22.6990 C   0  0  0  0  0  3  0  0  0  0  0  0
  -26.1590  -32.1640   23.9460 C   0  0  0  0  0  3  0  0  0  0  0  0
  -25.7820  -33.5320   24.3530 N   0  0  0  0  0  0  0  0  0  0  0  0
  -26.0880  -34.6510   23.6840 C   0  0  0  0  0  0  0  0  0  0  0  0
  -26.7830  -34.6450   22.6650 O   0  0  0  0  0  0  0  0  0  0  0  0
  -25.1580  -33.6050   25.1430 H   0  0  0  0  0  0  0  0  0  0  0  0
  -24.2920  -36.4040   23.4330 C   0  0  0  0  0  1  0  0  0  0  0  0
  -25.5410  -35.9900   24.2270 C   0  0  0  0  0  3  0  0  0  0  0  0
  -27.6310  -36.9070   25.1380 C   0  0  0  0  0  1  0  0  0  0  0  0
  -26.5300  -37.0890   24.1960 N   0  0  0  0  0  0  0  0  0  0  0  0
  -26.0850  -37.9810   24.3980 H   0  0  0  0  0  0  0  0  0  0  0  0
  -26.6320  -31.3410   25.2070 C   0  0  1  0  0  0  0  0  0  0  0  0
  -25.4970  -31.0240   26.2110 C   0  0  0  0  0  1  0  0  0  0  0  0
  -27.2650  -29.9930   24.7940 C   0  0  0  0  0  1  0  0  0  0  0  0
  -27.7310  -32.1260   25.9590 C   0  0  0  0  0  1  0  0  0  0  0  0
  1  2  1  0
  2 49  2  0
  2  7  1  0
  5  8  1  0
  6 12  1  0
 10 25  1  0
 11  9  1  0
 13 20  1  0
 13 19  1  0
 13 18  1  6
 14 13  1  0
 15 16  1  0
 16 17  1  0
 17 24  1  0
 21 46  2  0
 22 41  1  0
 23 22  2  0
 24 21  1  0
 25 22  1  0
 25 21  1  0
 26 27  1  0
 27 28  2  0
 29 32  1  0
 29 28  1  0
 30 29  2  0
 31 30  1  0
 31 26  2  0
 32 33  1  0
 33 34  1  0
 34 35  2  0
 36 35  1  0
 36 40  1  0
 37 36  2  0
 38 33  2  0
 38 37  1  0
 39 38  1  0
 41 42  1  0
 42 45  1  0
 42 44  1  0
 43 41  2  0
 46 48  1  0
 46 47  1  0
 49 50  1  0
 51 49  1  0
 51 52  2  0
 53 52  1  0
 53 54  1  0
 55 66  2  0
 56 54  1  0
 56 61  1  0
 57 65  1  0
 57 67  1  0
 58 64  1  0
 58 60  1  0
 59 65  1  0
 60 61  2  0
 60 59  1  0
 62 63  1  0
 62 56  2  0
 63 58  2  0
 64 57  1  0
 65 55  1  0
 67 69  2  0
 68 67  1  0
 70 68  1  0
 71 80  2  0
 71 76  1  0
 72 68  1  0
 72 76  1  0
 73 72  1  0
 74 75  1  0
 74 73  1  0
 75 71  1  0
 76 77  2  0
 77 78  1  0
 79 78  2  0
 80 79  1  0
 81 55  1  0
 81 82  1  0
 81 91  1  0
 82 85  1  0
 83 87  1  0
 83 82  1  0
 84 83  2  0
 87 86  1  0
 89 87  1  0
 89 90  1  0
 89 88  1  0
 91 94  1  1
 91 92  1  0
 93 91  1  0
M  ISO  4  12 100  13 100  53 101  54 101
M  END
>  <TORSDO>  (67) 
F 22

>  <SCORE>  (67) 
6.011

>  <name>  (67) 
66

>  <ligand_id>  (67) 
66

>  <original_smiles>  (67) 
[H]c1c([H])c([H])c2c(c1[H])C([H])([H])C([H])([H])C([H])([H])C2([H])N([H])C(=O)C1([H])N(C(=O)C([H])(N([H])C(=O)C([H])(N([H])C([H])([H])[H])C([H])([H])[H])C(C([H])([H])[H])(C([H])([H])[H])C([H])([H])[H])C([H])([H])c2c([H])c(OC([H])([H])C([H])([H])C([H])([H])N([H])C([H])(C([H])([H])[H])C3([H])C([H])(C([H])([H])[H])C([H])([H])C([H])([H])C([H])(C([H])([H])C(=O)N4C([H])([H])C([H])([H])C([H])([H])C([H])(n5nc(-c6c([H])c([H])c(Oc7c([H])c([H])c(F)c([H])c7F)c([H])c6[H])c(C(=O)N([H])[H])c5N([H])[H])C4([H])[H])[N+]3([H])[H])c([H])c([H])c2C1([H])[H]

>  <smiles>  (67) 
[H]c1c([H])c([H])c2c(c1[H])C([H])([H])C([H])([H])C([H])([H])C2([H])N([H])C(=O)C1([H])N(C(=O)C([H])(N([H])C(=O)C([H])(N([H])C([H])([H])[H])C([H])([H])[H])C(C([H])([H])[H])(C([H])([H])[H])C([H])([H])[H])C([H])([H])c2c([H])c(OC([H])([H])C([H])([H])C([H])([H])N([H])C([H])(C([H])([H])[H])C3([H])C([H])(C([H])([H])[H])C([H])([H])C([H])([H])C([H])(C([H])([H])C(=O)N4C([H])([H])C([H])([H])C([H])([H])C([H])(n5nc(-c6c([H])c([H])c(Oc7c([H])c([H])c(F)c([H])c7F)c([H])c6[H])c(C(=O)N([H])[H])c5N([H])[H])C4([H])[H])[N+]3([H])[H])c([H])c([H])c2C1([H])[H]

$$$$
67:0:0
     RDKit          3D

 97106  0  0  1  0  0  0  0  0999 V2000
  -29.3440  -21.4880   20.6830 C   0  0  0  0  0  3  0  0  0  0  0  0
  -29.5430  -22.9460   20.8580 N   0  0  0  0  0  4  0  0  0  0  0  0
  -28.6780  -23.3570   21.1680 H   0  0  0  0  0  0  0  0  0  0  0  0
  -30.2170  -23.0690   21.5960 H   0  0  0  0  0  0  0  0  0  0  0  0
  -30.0630  -23.6790   19.6790 C   0  0  0  0  0  2  0  0  0  0  0  0
  -30.0270  -25.2020   19.9060 C   0  0  0  0  0  2  0  0  0  0  0  0
  -28.6950  -25.8190   19.4640 C   0  0  0  0  0  2  0  0  0  0  0  0
  -28.6290  -27.1550   19.9440 O   0  0  0  0  0  0  0  0  0  0  0  0
  -24.6070  -31.9040   23.3360 C   0  0  0  0  0  0  0  0  0  0  0  0
  -27.3980  -27.7730   19.9830 C   0  0  0  0  0  0  0  0  0  0  0  0
  -23.4370  -30.5470   21.6310 C   0  0  0  0  0  3  0  0  0  0  0  0
  -24.9340  -29.1530   20.1100 C   0  0  0  0  0  0  0  0  0  0  0  0
  -25.9400  -31.0260   21.4260 C   0  0  0  0  0  2  0  0  0  0  0  0
  -26.0740  -29.6940   20.7160 C   0  0  0  0  0  0  0  0  0  0  0  0
  -27.3070  -29.0130   20.6480 C   0  0  0  0  0  3  0  0  0  0  0  0
  -26.2390  -27.2340   19.3810 C   0  0  0  0  0  3  0  0  0  0  0  0
  -25.0110  -27.9180   19.4410 C   0  0  0  0  0  3  0  0  0  0  0  0
  -23.6570  -29.9520   20.2140 C   0  0  0  0  0  2  0  0  0  0  0  0
  -24.6810  -31.1690   22.1910 N   0  0  0  0  0  0  0  0  0  0  0  0
  -23.5220  -32.1060   23.8980 O   0  0  0  0  0  0  0  0  0  0  0  0
  -22.8360  -29.4500   22.5390 C   0  0  0  0  0  0  0  0  0  0  0  0
  -21.5350  -29.1770   22.3580 N   0  0  0  0  0  0  0  0  0  0  0  0
  -23.5370  -28.8500   23.3580 O   0  0  0  0  0  0  0  0  0  0  0  0
  -21.0300  -29.7220   21.6740 H   0  0  0  0  0  0  0  0  0  0  0  0
  -18.2480  -27.7020   22.6560 C   0  0  0  0  0  0  0  0  0  0  0  0
  -20.7590  -28.1580   23.0660 C   0  0  0  0  0  3  0  0  0  0  0  0
  -21.0080  -26.7550   22.4680 C   0  0  0  0  0  2  0  0  0  0  0  0
  -19.9870  -26.3680   21.3920 C   0  0  0  0  0  2  0  0  0  0  0  0
  -18.5670  -26.3860   21.9670 C   0  0  0  0  0  2  0  0  0  0  0  0
  -19.2790  -28.5420   23.1570 C   0  0  0  0  0  0  0  0  0  0  0  0
  -18.9300  -29.7720   23.7570 C   0  0  0  0  0  3  0  0  0  0  0  0
  -17.5810  -30.1640   23.8630 C   0  0  0  0  0  3  0  0  0  0  0  0
  -16.5660  -29.3200   23.3810 C   0  0  0  0  0  3  0  0  0  0  0  0
  -16.8990  -28.0930   22.7840 C   0  0  0  0  0  3  0  0  0  0  0  0
  -25.8750  -32.5460   23.9840 C   0  0  0  0  0  3  0  0  0  0  0  0
  -26.3780  -31.7740   25.2650 C   0  0  1  0  0  0  0  0  0  0  0  0
  -25.2630  -31.4970   26.3000 C   0  0  0  0  0  1  0  0  0  0  0  0
  -27.0060  -30.4180   24.8670 C   0  0  0  0  0  1  0  0  0  0  0  0
  -27.4920  -32.5900   25.9650 C   0  0  0  0  0  1  0  0  0  0  0  0
  -25.5480  -33.9400   24.3110 N   0  0  0  0  0  0  0  0  0  0  0  0
  -25.8940  -34.9960   23.5630 C   0  0  0  0  0  0  0  0  0  0  0  0
  -26.5950  -34.9020   22.5510 O   0  0  0  0  0  0  0  0  0  0  0  0
  -24.9270  -34.0870   25.0930 H   0  0  0  0  0  0  0  0  0  0  0  0
  -24.1630  -36.7770   23.1660 C   0  0  0  0  0  1  0  0  0  0  0  0
  -25.3820  -36.3780   24.0130 C   0  0  0  0  0  3  0  0  0  0  0  0
  -27.4790  -37.2770   24.9170 C   0  0  0  0  0  1  0  0  0  0  0  0
  -26.4090  -37.4400   23.9370 N   0  0  0  0  0  0  0  0  0  0  0  0
  -25.9890  -38.3560   24.0750 H   0  0  0  0  0  0  0  0  0  0  0  0
  -27.8330  -19.9170   19.3010 C   0  0  0  0  0  1  0  0  0  0  0  0
  -27.9210  -21.1990   20.1460 C   0  0  0  0  0  2  0  0  0  0  0  0
  -29.5710  -20.7660   22.0390 C   0  0  0  0  0  2  0  0  0  0  0  0
  -31.6370  -21.0380   24.5150 C   0  0  0  0  0  2  0  0  0  0  0  0
  -32.1180  -21.9840   23.4110 C   0  0  0  0  0  2  0  0  0  0  0  0
  -31.0840  -19.7900   23.8040 C   0  0  0  0  0  2  0  0  0  0  0  0
  -32.1360  -21.1280   22.1450 C   0  0  0  0  0  2  0  0  0  0  0  0
  -30.9690  -20.1370   22.3010 C   0  0  2  0  0  0  0  0  0  0  0  0
  -30.8820  -17.6450   21.7050 C   0  0  0  0  0  3  0  0  0  0  0  0
  -31.1830  -18.9230   21.4010 C   0  0  0  0  0  3  0  0  0  0  0  0
  -31.8020  -15.2720   21.5340 C   0  0  0  0  0  2  0  0  0  0  0  0
  -31.2070  -16.4730   20.8490 C   0  0  0  0  0  3  0  0  0  0  0  0
  -30.4490  -15.1430   20.8560 C   0  0  0  0  0  3  0  0  0  0  0  0
  -30.4910  -14.2930   19.6140 C   0  0  0  0  0  0  0  0  0  0  0  0
  -29.9250  -12.2130   18.4130 C   0  0  0  0  0  2  0  0  0  0  0  0
  -28.7990  -12.4100   17.3850 C   0  0  0  0  0  2  0  0  0  0  0  0
  -27.4240  -12.2310   18.0520 C   0  0  0  0  0  2  0  0  0  0  0  0
  -27.2860  -13.0460   19.3650 C   0  0  0  0  0  3  0  0  0  0  0  0
  -28.5150  -12.8340   20.2830 C   0  0  0  0  0  2  0  0  0  0  0  0
  -29.7300  -13.1670   19.5180 N   0  0  0  0  0  0  0  0  0  0  0  0
  -31.3010  -14.5920   18.7290 O   0  0  0  0  0  0  0  0  0  0  0  0
  -25.0390  -13.5860   20.5020 C   0  0  0  0  0  0  0  0  0  0  0  0
  -24.0490  -12.7810   21.0000 C   0  0  0  0  0  0  0  0  0  0  0  0
  -24.4970  -11.4380   20.8100 C   0  0  0  0  0  0  0  0  0  0  0  0
  -26.0320  -12.7310   20.0480 N   0  0  0  0  0  0  0  0  0  0  0  0
  -25.7180  -11.4310   20.2860 N   0  0  0  0  0  0  0  0  0  0  0  0
  -23.8150  -10.1600   21.0470 C   0  0  0  0  0  0  0  0  0  0  0  0
  -24.2940   -9.2330   22.0000 C   0  0  0  0  0  3  0  0  0  0  0  0
  -23.6110   -8.0180   22.2230 C   0  0  0  0  0  3  0  0  0  0  0  0
  -22.4340   -7.7210   21.4940 C   0  0  0  0  0  0  0  0  0  0  0  0
  -21.9750   -8.6370   20.5310 C   0  0  0  0  0  3  0  0  0  0  0  0
  -22.6580   -9.8430   20.3070 C   0  0  0  0  0  3  0  0  0  0  0  0
  -21.7180   -6.5570   21.6270 O   0  0  0  0  0  0  0  0  0  0  0  0
  -21.6040   -5.9140   22.8330 C   0  0  0  0  0  0  0  0  0  0  0  0
  -21.0100   -6.5340   23.9550 C   0  0  0  0  0  3  0  0  0  0  0  0
  -20.8500   -5.8140   25.1550 C   0  0  0  0  0  3  0  0  0  0  0  0
  -21.2740   -4.4730   25.2350 C   0  0  0  0  0  0  0  0  0  0  0  0
  -21.8610   -3.8530   24.1170 C   0  0  0  0  0  3  0  0  0  0  0  0
  -22.0220   -4.5700   22.9200 C   0  0  0  0  0  0  0  0  0  0  0  0
  -22.5690   -3.9600   21.8390 F   0  0  0  0  0  0  0  0  0  0  0  0
  -21.1140   -3.7780   26.3860 F   0  0  0  0  0  0  0  0  0  0  0  0
  -22.7190  -13.2250   21.5390 C   0  0  0  0  0  0  0  0  0  0  0  0
  -22.1640  -12.4870   22.4930 N   0  0  0  0  0  0  0  0  0  0  0  0
  -22.1850  -14.2620   21.1450 O   0  0  0  0  0  0  0  0  0  0  0  0
  -22.6100  -11.6470   22.8310 H   0  0  0  0  0  0  0  0  0  0  0  0
  -21.2790  -12.7660   22.8940 H   0  0  0  0  0  0  0  0  0  0  0  0
  -25.1700  -14.9670   20.3790 N   0  0  0  0  0  0  0  0  0  0  0  0
  -24.4350  -15.6080   20.6590 H   0  0  0  0  0  0  0  0  0  0  0  0
  -25.9630  -15.4310   19.9550 H   0  0  0  0  0  0  0  0  0  0  0  0
  1 50  1  0
  1  2  1  0
  1 51  1  0
  2  3  1  0
  2  4  1  0
  5  6  1  0
  5  2  1  0
  7  6  1  0
  7  8  1  0
  8 10  1  0
  9 20  2  0
 10 15  1  0
 11 19  1  0
 11 21  1  0
 12 18  1  0
 12 14  1  0
 13 19  1  0
 14 13  1  0
 15 14  2  0
 16 17  1  0
 16 10  2  0
 17 12  2  0
 18 11  1  0
 19  9  1  0
 21 23  2  0
 22 21  1  0
 24 22  1  0
 25 34  2  0
 25 30  1  0
 26 22  1  0
 26 30  1  0
 27 26  1  0
 28 29  1  0
 28 27  1  0
 29 25  1  0
 30 31  2  0
 31 32  1  0
 33 32  2  0
 34 33  1  0
 35  9  1  0
 35 40  1  0
 35 36  1  0
 36 39  1  1
 36 37  1  0
 38 36  1  0
 40 43  1  0
 41 45  1  0
 41 40  1  0
 42 41  2  0
 45 44  1  0
 47 45  1  0
 47 48  1  0
 47 46  1  0
 49 50  1  0
 56 51  1  1
 53 52  1  0
 54 52  1  0
 55 56  1  0
 55 53  1  0
 56 54  1  0
 58 57  2  0
 58 56  1  0
 60 61  1  0
 60 59  1  0
 60 57  1  0
 61 62  1  0
 61 59  1  0
 63 68  1  0
 64 65  1  0
 64 63  1  0
 66 65  1  0
 66 73  1  0
 66 67  1  0
 68 62  1  0
 68 67  1  0
 69 62  2  0
 70 71  2  0
 71 90  1  0
 72 71  1  0
 72 75  1  0
 73 74  1  0
 73 70  1  0
 74 72  2  0
 75 76  1  0
 76 77  2  0
 78 81  1  0
 78 77  1  0
 79 78  2  0
 80 79  1  0
 80 75  2  0
 81 82  1  0
 82 87  2  0
 82 83  1  0
 83 84  2  0
 84 85  1  0
 85 89  1  0
 86 85  2  0
 87 86  1  0
 88 87  1  0
 90 91  1  0
 91 93  1  0
 91 94  1  0
 92 90  2  0
 95 70  1  0
 95 96  1  0
 97 95  1  0
M  ISO  4   7 101   8 101  61 100  62 100
M  END
>  <TORSDO>  (68) 
F 25

>  <SCORE>  (68) 
-10.226

>  <name>  (68) 
67

>  <ligand_id>  (68) 
67

>  <original_smiles>  (68) 
[H]C(=C([H])C1(C([H])([H])C([H])(C([H])([H])C([H])([H])[H])[N+]([H])([H])C([H])([H])C([H])([H])C([H])([H])Oc2c([H])c([H])c3c(c2[H])C([H])([H])N(C(=O)C([H])(N([H])C(=O)C([H])(N([H])C([H])([H])[H])C([H])([H])[H])C(C([H])([H])[H])(C([H])([H])[H])C([H])([H])[H])C([H])(C(=O)N([H])C2([H])c4c([H])c([H])c([H])c([H])c4C([H])([H])C([H])([H])C2([H])[H])C3([H])[H])C([H])([H])C([H])([H])C([H])([H])C1([H])[H])C1([H])C([H])([H])C1([H])C(=O)N1C([H])([H])C([H])([H])C([H])([H])C([H])(n2nc(-c3c([H])c([H])c(Oc4c([H])c([H])c(F)c([H])c4F)c([H])c3[H])c(C(=O)N([H])[H])c2N([H])[H])C1([H])[H]

>  <smiles>  (68) 
[H]C(=C([H])C1(C([H])([H])C([H])(C([H])([H])C([H])([H])[H])[N+]([H])([H])C([H])([H])C([H])([H])C([H])([H])Oc2c([H])c([H])c3c(c2[H])C([H])([H])N(C(=O)C([H])(N([H])C(=O)C([H])(N([H])C([H])([H])[H])C([H])([H])[H])C(C([H])([H])[H])(C([H])([H])[H])C([H])([H])[H])C([H])(C(=O)N([H])C2([H])c4c([H])c([H])c([H])c([H])c4C([H])([H])C([H])([H])C2([H])[H])C3([H])[H])C([H])([H])C([H])([H])C([H])([H])C1([H])[H])C1([H])C([H])([H])C1([H])C(=O)N1C([H])([H])C([H])([H])C([H])([H])C([H])(n2nc(-c3c([H])c([H])c(Oc4c([H])c([H])c(F)c([H])c4F)c([H])c3[H])c(C(=O)N([H])[H])c2N([H])[H])C1([H])[H]

$$$$
68:0:0
     RDKit          3D

 91 99  0  0  1  0  0  0  0  0999 V2000
  -28.3950  -20.9080   20.4700 C   0  0  0  0  0  2  0  0  0  0  0  0
  -28.6350  -22.4140   20.7130 C   0  0  0  0  0  2  0  0  0  0  0  0
  -27.5050  -23.1760   21.4310 C   0  0  0  0  0  2  0  0  0  0  0  0
  -27.7710  -24.6990   21.5400 C   0  0  0  0  0  2  0  0  0  0  0  0
  -28.3940  -25.3430   20.2710 C   0  0  0  0  0  2  0  0  0  0  0  0
  -28.4550  -26.7710   20.3010 O   0  0  0  0  0  0  0  0  0  0  0  0
  -24.5430  -31.8750   23.2410 C   0  0  0  0  0  0  0  0  0  0  0  0
  -27.2730  -27.4720   20.2210 C   0  0  0  0  0  0  0  0  0  0  0  0
  -23.3740  -30.4600   21.5810 C   0  0  0  0  0  3  0  0  0  0  0  0
  -24.8640  -28.9450   20.1770 C   0  0  0  0  0  0  0  0  0  0  0  0
  -25.8970  -30.8570   21.4150 C   0  0  0  0  0  2  0  0  0  0  0  0
  -26.0060  -29.4880   20.7790 C   0  0  0  0  0  0  0  0  0  0  0  0
  -27.2140  -28.7600   20.7930 C   0  0  0  0  0  3  0  0  0  0  0  0
  -26.1130  -26.9400   19.6070 C   0  0  0  0  0  3  0  0  0  0  0  0
  -24.9130  -27.6720   19.5870 C   0  0  0  0  0  3  0  0  0  0  0  0
  -23.6080  -29.7830   20.2050 C   0  0  0  0  0  2  0  0  0  0  0  0
  -24.6230  -31.0790   22.1370 N   0  0  0  0  0  0  0  0  0  0  0  0
  -23.4530  -32.1320   23.7680 O   0  0  0  0  0  0  0  0  0  0  0  0
  -22.7280  -29.4290   22.5320 C   0  0  0  0  0  0  0  0  0  0  0  0
  -21.4100  -29.2230   22.3820 N   0  0  0  0  0  0  0  0  0  0  0  0
  -23.4110  -28.8120   23.3540 O   0  0  0  0  0  0  0  0  0  0  0  0
  -20.9210  -29.7710   21.6880 H   0  0  0  0  0  0  0  0  0  0  0  0
  -18.0470  -27.9830   22.8190 C   0  0  0  0  0  0  0  0  0  0  0  0
  -20.5950  -28.2750   23.1380 C   0  0  0  0  0  3  0  0  0  0  0  0
  -20.7280  -26.8440   22.5680 C   0  0  0  0  0  2  0  0  0  0  0  0
  -19.6510  -26.5030   21.5340 C   0  0  0  0  0  2  0  0  0  0  0  0
  -18.2550  -26.6330   22.1510 C   0  0  0  0  0  2  0  0  0  0  0  0
  -19.1460  -28.7610   23.2670 C   0  0  0  0  0  0  0  0  0  0  0  0
  -18.9000  -30.0260   23.8460 C   0  0  0  0  0  3  0  0  0  0  0  0
  -17.5850  -30.5100   23.9850 C   0  0  0  0  0  3  0  0  0  0  0  0
  -16.5010  -29.7280   23.5520 C   0  0  0  0  0  3  0  0  0  0  0  0
  -16.7320  -28.4670   22.9750 C   0  0  0  0  0  3  0  0  0  0  0  0
  -25.8160  -32.5220   23.8740 C   0  0  0  0  0  3  0  0  0  0  0  0
  -25.4830  -33.9160   24.2000 N   0  0  0  0  0  0  0  0  0  0  0  0
  -25.8120  -34.9710   23.4420 C   0  0  0  0  0  0  0  0  0  0  0  0
  -26.4970  -34.8780   22.4200 O   0  0  0  0  0  0  0  0  0  0  0  0
  -24.8840  -34.0630   24.9980 H   0  0  0  0  0  0  0  0  0  0  0  0
  -24.0610  -36.7360   23.0630 C   0  0  0  0  0  1  0  0  0  0  0  0
  -25.2980  -36.3520   23.8910 C   0  0  0  0  0  3  0  0  0  0  0  0
  -27.4090  -37.2690   24.7470 C   0  0  0  0  0  1  0  0  0  0  0  0
  -26.3160  -37.4210   23.7900 N   0  0  0  0  0  0  0  0  0  0  0  0
  -25.8930  -38.3340   23.9370 H   0  0  0  0  0  0  0  0  0  0  0  0
  -26.3310  -31.7560   25.1530 C   0  0  1  0  0  0  0  0  0  0  0  0
  -25.2300  -31.4960   26.2050 C   0  0  0  0  0  1  0  0  0  0  0  0
  -26.9400  -30.3900   24.7590 C   0  0  0  0  0  1  0  0  0  0  0  0
  -27.4580  -32.5670   25.8340 C   0  0  0  0  0  1  0  0  0  0  0  0
  -29.3410  -20.0090   21.2870 C   0  0  0  0  0  2  0  0  0  0  0  0
  -29.3980  -18.5430   20.7950 C   0  0  0  0  0  2  0  0  0  0  0  0
  -31.4930  -16.4380   23.1380 C   0  0  0  0  0  2  0  0  0  0  0  0
  -32.1050  -16.1060   21.7640 C   0  0  0  0  0  2  0  0  0  0  0  0
  -30.3540  -17.4330   22.8510 C   0  0  0  0  0  2  0  0  0  0  0  0
  -31.0630  -16.6020   20.7500 C   0  0  0  0  0  3  0  0  0  0  0  0
  -30.5160  -17.8040   21.4330 N   0  0  1  0  0  4  0  0  0  0  0  0
  -31.2860  -18.4540   21.4200 H   0  0  0  0  0  0  0  0  0  0  0  0
  -30.0050  -15.4880   20.4630 C   0  0  0  0  0  2  0  0  0  0  0  0
  -30.4950  -14.3380   19.5530 C   0  0  0  0  0  0  0  0  0  0  0  0
  -30.0230  -12.1710   18.4410 C   0  0  0  0  0  2  0  0  0  0  0  0
  -28.9650  -12.3600   17.3360 C   0  0  0  0  0  2  0  0  0  0  0  0
  -27.5390  -12.2670   17.9170 C   0  0  0  0  0  2  0  0  0  0  0  0
  -27.3520  -13.1430   19.1840 C   0  0  0  0  0  3  0  0  0  0  0  0
  -28.5100  -12.9220   20.1810 C   0  0  0  0  0  2  0  0  0  0  0  0
  -29.7770  -13.1850   19.4800 N   0  0  0  0  0  0  0  0  0  0  0  0
  -31.5000  -14.5210   18.8590 O   0  0  0  0  0  0  0  0  0  0  0  0
  -25.0590  -13.8260   20.1280 C   0  0  0  0  0  0  0  0  0  0  0  0
  -24.0190  -13.0910   20.6280 C   0  0  0  0  0  0  0  0  0  0  0  0
  -24.4400  -11.7270   20.5820 C   0  0  0  0  0  0  0  0  0  0  0  0
  -26.0530  -12.9130   19.8110 N   0  0  0  0  0  0  0  0  0  0  0  0
  -25.6890  -11.6470   20.1390 N   0  0  0  0  0  0  0  0  0  0  0  0
  -23.7100  -10.4880   20.8820 C   0  0  0  0  0  0  0  0  0  0  0  0
  -24.1980   -9.5530   21.8210 C   0  0  0  0  0  3  0  0  0  0  0  0
  -23.4730   -8.3770   22.1050 C   0  0  0  0  0  3  0  0  0  0  0  0
  -22.2430   -8.1270   21.4490 C   0  0  0  0  0  0  0  0  0  0  0  0
  -21.7710   -9.0520   20.5010 C   0  0  0  0  0  3  0  0  0  0  0  0
  -22.4970  -10.2200   20.2160 C   0  0  0  0  0  3  0  0  0  0  0  0
  -21.4820   -6.9980   21.6390 O   0  0  0  0  0  0  0  0  0  0  0  0
  -21.4900   -6.3180   22.8310 C   0  0  0  0  0  0  0  0  0  0  0  0
  -21.1540   -6.9480   24.0480 C   0  0  0  0  0  3  0  0  0  0  0  0
  -21.1040   -6.1960   25.2390 C   0  0  0  0  0  3  0  0  0  0  0  0
  -21.3840   -4.8170   25.2140 C   0  0  0  0  0  0  0  0  0  0  0  0
  -21.7170   -4.1880   24.0020 C   0  0  0  0  0  3  0  0  0  0  0  0
  -21.7680   -4.9360   22.8120 C   0  0  0  0  0  0  0  0  0  0  0  0
  -22.0650   -4.3220   21.6420 F   0  0  0  0  0  0  0  0  0  0  0  0
  -21.3330   -4.0910   26.3550 F   0  0  0  0  0  0  0  0  0  0  0  0
  -22.6690  -13.6110   21.0360 C   0  0  0  0  0  0  0  0  0  0  0  0
  -22.0240  -12.9670   21.9990 N   0  0  0  0  0  0  0  0  0  0  0  0
  -22.1990  -14.6300   20.5290 O   0  0  0  0  0  0  0  0  0  0  0  0
  -22.4150  -12.1450   22.4330 H   0  0  0  0  0  0  0  0  0  0  0  0
  -21.1240  -13.3080   22.3070 H   0  0  0  0  0  0  0  0  0  0  0  0
  -25.2420  -15.1860   19.8950 N   0  0  0  0  0  0  0  0  0  0  0  0
  -24.5110  -15.8730   20.0470 H   0  0  0  0  0  0  0  0  0  0  0  0
  -26.0550  -15.5730   19.4330 H   0  0  0  0  0  0  0  0  0  0  0  0
  1  2  1  0
  1 47  1  0
  2  3  1  0
  3  4  1  0
  5  6  1  0
  5  4  1  0
  7 18  2  0
  8  6  1  0
  8 13  1  0
  9 17  1  0
  9 19  1  0
 10 16  1  0
 10 12  1  0
 11 17  1  0
 12 13  2  0
 12 11  1  0
 14  8  2  0
 15 14  1  0
 15 10  2  0
 16  9  1  0
 17  7  1  0
 19 21  2  0
 20 19  1  0
 22 20  1  0
 23 32  2  0
 23 28  1  0
 24 20  1  0
 24 28  1  0
 25 24  1  0
 26 27  1  0
 26 25  1  0
 27 23  1  0
 28 29  2  0
 29 30  1  0
 31 30  2  0
 32 31  1  0
 33  7  1  0
 33 34  1  0
 33 43  1  0
 34 37  1  0
 35 39  1  0
 35 34  1  0
 36 35  2  0
 39 38  1  0
 41 39  1  0
 41 42  1  0
 41 40  1  0
 43 46  1  1
 43 44  1  0
 45 43  1  0
 48 47  1  0
 48 53  1  0
 50 49  1  0
 51 49  1  0
 52 55  1  0
 52 53  1  0
 52 50  1  0
 53 51  1  0
 53 54  1  1
 56 55  1  0
 57 62  1  0
 58 59  1  0
 58 57  1  0
 60 59  1  0
 60 67  1  0
 60 61  1  0
 62 56  1  0
 62 61  1  0
 63 56  2  0
 64 65  2  0
 65 84  1  0
 66 65  1  0
 66 69  1  0
 67 64  1  0
 67 68  1  0
 68 66  2  0
 69 70  1  0
 70 71  2  0
 72 75  1  0
 72 71  1  0
 73 72  2  0
 74 73  1  0
 74 69  2  0
 75 76  1  0
 76 77  1  0
 77 78  2  0
 79 78  1  0
 79 83  1  0
 80 79  2  0
 81 76  2  0
 81 80  1  0
 82 81  1  0
 84 85  1  0
 85 88  1  0
 85 87  1  0
 86 84  2  0
 89 90  1  0
 89 64  1  0
 91 89  1  0
M  ISO  4   5 101   6 101  55 100  56 100
M  END
>  <TORSDO>  (69) 
F 24

>  <SCORE>  (69) 
-8.722

>  <name>  (69) 
68

>  <ligand_id>  (69) 
68

>  <original_smiles>  (69) 
[H]c1c([H])c([H])c2c(c1[H])C([H])([H])C([H])([H])C([H])([H])C2([H])N([H])C(=O)C1([H])N(C(=O)C([H])(N([H])C(=O)C([H])(N([H])C([H])([H])[H])C([H])([H])[H])C(C([H])([H])[H])(C([H])([H])[H])C([H])([H])[H])C([H])([H])c2c([H])c(OC([H])([H])C([H])([H])C([H])([H])C([H])([H])C([H])([H])C([H])([H])C([H])([H])[N+]3([H])C([H])([H])C([H])([H])C([H])([H])C3([H])C([H])([H])C(=O)N3C([H])([H])C([H])([H])C([H])([H])C([H])(n4nc(-c5c([H])c([H])c(Oc6c([H])c([H])c(F)c([H])c6F)c([H])c5[H])c(C(=O)N([H])[H])c4N([H])[H])C3([H])[H])c([H])c([H])c2C1([H])[H]

>  <smiles>  (69) 
[H]c1c([H])c([H])c2c(c1[H])C([H])([H])C([H])([H])C([H])([H])C2([H])N([H])C(=O)C1([H])N(C(=O)C([H])(N([H])C(=O)C([H])(N([H])C([H])([H])[H])C([H])([H])[H])C(C([H])([H])[H])(C([H])([H])[H])C([H])([H])[H])C([H])([H])c2c([H])c(OC([H])([H])C([H])([H])C([H])([H])C([H])([H])C([H])([H])C([H])([H])C([H])([H])[N+]3([H])C([H])([H])C([H])([H])C([H])([H])C3([H])C([H])([H])C(=O)N3C([H])([H])C([H])([H])C([H])([H])C([H])(n4nc(-c5c([H])c([H])c(Oc6c([H])c([H])c(F)c([H])c6F)c([H])c5[H])c(C(=O)N([H])[H])c4N([H])[H])C3([H])[H])c([H])c([H])c2C1([H])[H]

$$$$
69:0:0
     RDKit          3D

 94103  0  0  1  0  0  0  0  0999 V2000
  -29.1220  -21.4390   19.8760 C   0  0  0  0  0  0  0  0  0  0  0  0
  -29.3580  -19.9020   17.2330 C   0  0  0  0  0  2  0  0  0  0  0  0
  -28.0660  -20.1730   17.9990 C   0  0  0  0  0  2  0  0  0  0  0  0
  -27.0220  -20.4810   20.2680 C   0  0  0  0  0  2  0  0  0  0  0  0
  -26.9130  -22.0120   20.2320 C   0  0  0  0  0  2  0  0  0  0  0  0
  -29.8770  -18.5180   17.6020 C   0  0  0  0  0  2  0  0  0  0  0  0
  -28.9570  -18.8040   19.9540 C   0  0  0  0  0  2  0  0  0  0  0  0
  -28.3310  -20.1710   19.5230 C   0  0  2  0  0  0  0  0  0  0  0  0
  -28.2830  -22.4750   20.0380 N   0  0  0  0  0  0  0  0  0  0  0  0
  -30.0350  -18.2420   19.0680 N   0  0  1  0  0  4  0  0  0  0  0  0
  -30.3550  -21.4980   19.8370 O   0  0  0  0  0  0  0  0  0  0  0  0
  -30.9050  -18.6760   19.3460 H   0  0  0  0  0  0  0  0  0  0  0  0
  -28.5070  -23.7770   19.3960 C   0  0  0  0  0  2  0  0  0  0  0  0
  -29.3290  -24.7660   20.2320 C   0  0  0  0  0  2  0  0  0  0  0  0
  -29.6120  -26.0810   19.4710 C   0  0  0  0  0  2  0  0  0  0  0  0
  -29.2560  -27.2300   20.2370 O   0  0  0  0  0  0  0  0  0  0  0  0
  -24.8410  -31.8200   23.3300 C   0  0  0  0  0  0  0  0  0  0  0  0
  -27.9900  -27.7770   20.1860 C   0  0  0  0  0  0  0  0  0  0  0  0
  -23.8340  -30.4370   21.5400 C   0  0  0  0  0  3  0  0  0  0  0  0
  -25.4770  -29.0850   20.1320 C   0  0  0  0  0  0  0  0  0  0  0  0
  -26.3310  -30.9860   21.5170 C   0  0  0  0  0  2  0  0  0  0  0  0
  -26.5530  -29.6620   20.8160 C   0  0  0  0  0  0  0  0  0  0  0  0
  -27.8040  -29.0150   20.8410 C   0  0  0  0  0  3  0  0  0  0  0  0
  -26.8870  -27.1950   19.5150 C   0  0  0  0  0  3  0  0  0  0  0  0
  -25.6370  -27.8480   19.4840 C   0  0  0  0  0  3  0  0  0  0  0  0
  -24.1730  -29.8480   20.1430 C   0  0  0  0  0  2  0  0  0  0  0  0
  -25.0150  -31.0950   22.1880 N   0  0  0  0  0  0  0  0  0  0  0  0
  -23.7140  -31.9820   23.8200 O   0  0  0  0  0  0  0  0  0  0  0  0
  -23.2050  -29.3200   22.4030 C   0  0  0  0  0  0  0  0  0  0  0  0
  -21.8940  -29.0890   22.2170 N   0  0  0  0  0  0  0  0  0  0  0  0
  -23.8930  -28.6690   23.1940 O   0  0  0  0  0  0  0  0  0  0  0  0
  -21.4020  -29.6650   21.5500 H   0  0  0  0  0  0  0  0  0  0  0  0
  -18.5540  -27.7650   22.5690 C   0  0  0  0  0  0  0  0  0  0  0  0
  -21.1000  -28.0640   22.8940 C   0  0  0  0  0  3  0  0  0  0  0  0
  -21.2460  -26.6930   22.1930 C   0  0  0  0  0  2  0  0  0  0  0  0
  -20.1650  -26.4380   21.1380 C   0  0  0  0  0  2  0  0  0  0  0  0
  -18.7730  -26.4880   21.7740 C   0  0  0  0  0  2  0  0  0  0  0  0
  -19.6470  -28.5140   23.0810 C   0  0  0  0  0  0  0  0  0  0  0  0
  -19.3880  -29.7130   23.7790 C   0  0  0  0  0  3  0  0  0  0  0  0
  -18.0680  -30.1620   23.9760 C   0  0  0  0  0  3  0  0  0  0  0  0
  -16.9890  -29.4070   23.4830 C   0  0  0  0  0  3  0  0  0  0  0  0
  -17.2340  -28.2100   22.7840 C   0  0  0  0  0  3  0  0  0  0  0  0
  -26.0420  -32.4970   24.0610 C   0  0  0  0  0  3  0  0  0  0  0  0
  -25.6640  -33.8890   24.3340 N   0  0  0  0  0  0  0  0  0  0  0  0
  -26.0300  -34.9380   23.5850 C   0  0  0  0  0  0  0  0  0  0  0  0
  -26.7930  -34.8380   22.6200 O   0  0  0  0  0  0  0  0  0  0  0  0
  -24.9970  -34.0390   25.0770 H   0  0  0  0  0  0  0  0  0  0  0  0
  -24.2770  -36.6580   23.0480 C   0  0  0  0  0  1  0  0  0  0  0  0
  -25.4600  -36.3160   23.9660 C   0  0  0  0  0  3  0  0  0  0  0  0
  -27.4830  -37.3010   24.9510 C   0  0  0  0  0  1  0  0  0  0  0  0
  -26.4620  -37.4040   23.9110 N   0  0  0  0  0  0  0  0  0  0  0  0
  -26.0130  -38.3120   23.9960 H   0  0  0  0  0  0  0  0  0  0  0  0
  -26.4570  -31.7600   25.3940 C   0  0  1  0  0  0  0  0  0  0  0  0
  -25.2720  -31.4910   26.3530 C   0  0  0  0  0  1  0  0  0  0  0  0
  -27.1260  -30.4010   25.0790 C   0  0  0  0  0  1  0  0  0  0  0  0
  -27.5040  -32.6050   26.1590 C   0  0  0  0  0  1  0  0  0  0  0  0
  -30.1650  -16.7560   19.1930 C   0  0  0  0  0  2  0  0  0  0  0  0
  -31.0340  -16.1210   20.3050 C   0  0  0  0  0  2  0  0  0  0  0  0
  -31.6300  -14.7750   19.8190 C   0  0  0  0  0  0  0  0  0  0  0  0
  -31.2290  -12.4880   18.9700 C   0  0  0  0  0  2  0  0  0  0  0  0
  -30.2500  -12.5210   17.7780 C   0  0  0  0  0  2  0  0  0  0  0  0
  -28.7930  -12.4350   18.2730 C   0  0  0  0  0  2  0  0  0  0  0  0
  -28.4930  -13.4660   19.3860 C   0  0  0  0  0  3  0  0  0  0  0  0
  -29.5860  -13.4450   20.4860 C   0  0  0  0  0  2  0  0  0  0  0  0
  -30.9050  -13.6200   19.8550 N   0  0  0  0  0  0  0  0  0  0  0  0
  -32.7330  -14.8320   19.2720 O   0  0  0  0  0  0  0  0  0  0  0  0
  -26.2160  -14.2710   20.2810 C   0  0  0  0  0  0  0  0  0  0  0  0
  -25.1070  -13.5860   20.6950 C   0  0  0  0  0  0  0  0  0  0  0  0
  -25.4360  -12.2020   20.5780 C   0  0  0  0  0  0  0  0  0  0  0  0
  -27.1540  -13.3060   19.9430 N   0  0  0  0  0  0  0  0  0  0  0  0
  -26.6930  -12.0550   20.1830 N   0  0  0  0  0  0  0  0  0  0  0  0
  -24.6090  -11.0040   20.7560 C   0  0  0  0  0  0  0  0  0  0  0  0
  -24.9630   -9.9970   21.6790 C   0  0  0  0  0  3  0  0  0  0  0  0
  -24.1440   -8.8600   21.8440 C   0  0  0  0  0  3  0  0  0  0  0  0
  -22.9560   -8.7250   21.0860 C   0  0  0  0  0  0  0  0  0  0  0  0
  -22.6220   -9.7200   20.1500 C   0  0  0  0  0  3  0  0  0  0  0  0
  -23.4420  -10.8480   19.9830 C   0  0  0  0  0  3  0  0  0  0  0  0
  -22.1120   -7.6450   21.1620 O   0  0  0  0  0  0  0  0  0  0  0  0
  -21.9180   -6.9660   22.3390 C   0  0  0  0  0  0  0  0  0  0  0  0
  -21.4150   -7.6060   23.4930 C   0  0  0  0  0  3  0  0  0  0  0  0
  -21.1650   -6.8560   24.6600 C   0  0  0  0  0  3  0  0  0  0  0  0
  -21.4090   -5.4710   24.6730 C   0  0  0  0  0  0  0  0  0  0  0  0
  -21.9060   -4.8320   23.5220 C   0  0  0  0  0  3  0  0  0  0  0  0
  -22.1570   -5.5780   22.3580 C   0  0  0  0  0  0  0  0  0  0  0  0
  -22.6160   -4.9550   21.2460 F   0  0  0  0  0  0  0  0  0  0  0  0
  -21.1620   -4.7480   25.7900 F   0  0  0  0  0  0  0  0  0  0  0  0
  -23.7790  -14.1770   21.0720 C   0  0  0  0  0  0  0  0  0  0  0  0
  -23.0470  -13.5220   21.9660 N   0  0  0  0  0  0  0  0  0  0  0  0
  -23.4030  -15.2500   20.6030 O   0  0  0  0  0  0  0  0  0  0  0  0
  -23.3650  -12.6500   22.3630 H   0  0  0  0  0  0  0  0  0  0  0  0
  -22.1560  -13.8970   22.2570 H   0  0  0  0  0  0  0  0  0  0  0  0
  -26.4870  -15.6270   20.1290 N   0  0  0  0  0  0  0  0  0  0  0  0
  -25.6960  -16.2580   20.2150 H   0  0  0  0  0  0  0  0  0  0  0  0
  -27.1030  -15.9000   19.3790 H   0  0  0  0  0  0  0  0  0  0  0  0
  1  9  1  0
  2  6  1  0
  2  3  1  0
  5  4  1  0
  6 10  1  0
  8  3  1  6
  8  1  1  0
  8  7  1  0
  8  4  1  0
  9  5  1  0
 10 57  1  0
 10 12  1  1
 10  7  1  0
 11  1  2  0
 13  9  1  0
 13 14  1  0
 15 14  1  0
 15 16  1  0
 17 28  2  0
 18 16  1  0
 18 23  1  0
 19 27  1  0
 19 29  1  0
 20 26  1  0
 20 22  1  0
 21 27  1  0
 22 23  2  0
 22 21  1  0
 24 18  2  0
 25 24  1  0
 25 20  2  0
 26 19  1  0
 27 17  1  0
 29 31  2  0
 30 29  1  0
 32 30  1  0
 33 42  2  0
 33 38  1  0
 34 30  1  0
 34 38  1  0
 35 34  1  0
 36 37  1  0
 36 35  1  0
 37 33  1  0
 38 39  2  0
 39 40  1  0
 41 40  2  0
 42 41  1  0
 43 17  1  0
 43 44  1  0
 43 53  1  0
 44 47  1  0
 45 49  1  0
 45 44  1  0
 46 45  2  0
 49 48  1  0
 51 49  1  0
 51 52  1  0
 51 50  1  0
 53 56  1  1
 53 54  1  0
 55 53  1  0
 57 58  1  0
 59 65  1  0
 59 58  1  0
 60 65  1  0
 61 62  1  0
 61 60  1  0
 63 62  1  0
 63 70  1  0
 63 64  1  0
 65 64  1  0
 66 59  2  0
 67 68  2  0
 68 87  1  0
 69 68  1  0
 69 72  1  0
 70 71  1  0
 70 67  1  0
 71 69  2  0
 72 73  1  0
 73 74  2  0
 75 78  1  0
 75 74  1  0
 76 75  2  0
 77 76  1  0
 77 72  2  0
 78 79  1  0
 79 84  2  0
 79 80  1  0
 80 81  2  0
 81 82  1  0
 82 86  1  0
 83 82  2  0
 84 83  1  0
 85 84  1  0
 87 88  1  0
 88 91  1  0
 88 90  1  0
 89 87  2  0
 92 93  1  0
 92 67  1  0
 94 92  1  0
M  ISO  4  15 101  16 101  58 100  59 100
M  END
>  <TORSDO>  (70) 
F 21

>  <SCORE>  (70) 
-11.132

>  <name>  (70) 
69

>  <ligand_id>  (70) 
69

>  <original_smiles>  (70) 
[H]c1c([H])c([H])c2c(c1[H])C([H])([H])C([H])([H])C([H])([H])C2([H])N([H])C(=O)C1([H])N(C(=O)C([H])(N([H])C(=O)C([H])(N([H])C([H])([H])[H])C([H])([H])[H])C(C([H])([H])[H])(C([H])([H])[H])C([H])([H])[H])C([H])([H])c2c([H])c(OC([H])([H])C([H])([H])C([H])([H])N3C(=O)C4(C([H])([H])C3([H])[H])C([H])([H])C([H])([H])C([H])([H])[N+]([H])(C([H])([H])C([H])([H])C(=O)N3C([H])([H])C([H])([H])C([H])([H])C([H])(n5nc(-c6c([H])c([H])c(Oc7c([H])c([H])c(F)c([H])c7F)c([H])c6[H])c(C(=O)N([H])[H])c5N([H])[H])C3([H])[H])C4([H])[H])c([H])c([H])c2C1([H])[H]

>  <smiles>  (70) 
[H]c1c([H])c([H])c2c(c1[H])C([H])([H])C([H])([H])C([H])([H])C2([H])N([H])C(=O)C1([H])N(C(=O)C([H])(N([H])C(=O)C([H])(N([H])C([H])([H])[H])C([H])([H])[H])C(C([H])([H])[H])(C([H])([H])[H])C([H])([H])[H])C([H])([H])c2c([H])c(OC([H])([H])C([H])([H])C([H])([H])N3C(=O)C4(C([H])([H])C3([H])[H])C([H])([H])C([H])([H])C([H])([H])[N+]([H])(C([H])([H])C([H])([H])C(=O)N3C([H])([H])C([H])([H])C([H])([H])C([H])(n5nc(-c6c([H])c([H])c(Oc7c([H])c([H])c(F)c([H])c7F)c([H])c6[H])c(C(=O)N([H])[H])c5N([H])[H])C3([H])[H])C4([H])[H])c([H])c([H])c2C1([H])[H]

$$$$
70:0:0
     RDKit          3D

 93 91  0  0  1  0  0  0  0  0999 V2000
  -30.6910  -11.5350   18.9810 C   0  0  0  0  0  2  0  0  0  0  0  0
  -29.0710  -14.8550   18.8000 C   0  0  0  0  0  2  0  0  0  0  0  0
  -29.7630  -11.7640   20.0320 C   0  0  0  0  0  3  0  0  0  0  0  0
  -29.4520  -12.6100   19.1740 C   0  0  0  0  0  3  0  0  0  0  0  0
  -28.9500  -14.1130   19.7260 C   0  0  0  0  0  2  0  0  0  0  0  0
  -29.4400  -15.9300   20.0510 C   0  0  0  0  0  1  0  0  0  0  0  0
  -29.2940  -10.3630   20.7270 C   0  0  0  0  0  0  0  0  0  0  0  0
  -29.8540   -9.9160   21.8960 N   0  0  0  0  0  0  0  0  0  0  0  0
  -28.5320   -9.6140   20.1240 O   0  0  0  0  0  0  0  0  0  0  0  0
  -29.4000   -9.1180   22.3170 H   0  0  0  0  0  0  0  0  0  0  0  0
  -31.2470  -10.1350   22.3770 C   0  0  0  0  0  2  0  0  0  0  0  0
  -31.5070  -11.4160   23.2410 C   0  0  0  0  0  2  0  0  0  0  0  0
  -32.3290  -12.6430   22.7030 C   0  0  0  0  0  2  0  0  0  0  0  0
  -32.1550  -13.2270   21.2790 C   0  0  0  0  0  0  0  0  0  0  0  0
  -31.4060  -13.6770   18.7020 C   0  0  0  0  0 15  0  0  0  0  0  0
  -29.7190  -13.3250   17.0940 C   0  0  0  0  0 15  0  0  0  0  0  0
  -27.5870  -13.1620   18.0150 C   0  0  0  0  0 15  0  0  0  0  0  0
  -27.4030  -12.9070   20.1960 C   0  0  0  0  0  1  0  0  0  0  0  0
  -29.1650  -13.2960   21.7230 C   0  0  0  0  0 15  0  0  0  0  0  0
  -31.0450  -13.6100   20.7720 N   0  0  0  0  0  1  0  0  0  0  0  0
  -33.1040  -13.3520   20.5280 O   0  0  0  0  0  0  0  0  0  0  0  0
  -25.3940  -13.3950   21.2200 C   0  0  0  0  0  0  0  0  0  0  0  0
  -24.3270  -12.6220   21.4290 C   0  0  0  0  0  0  0  0  0  0  0  0
  -24.7120  -11.2730   21.1440 C   0  0  0  0  0  0  0  0  0  0  0  0
  -26.2840  -12.4940   20.7530 N   0  0  0  0  0  0  0  0  0  0  0  0
  -25.9430  -11.2140   20.7210 N   0  0  0  0  0  0  0  0  0  0  0  0
  -23.9550  -10.0480   21.1720 C   0  0  0  0  0  0  0  0  0  0  0  0
  -24.3680   -8.9580   21.9650 C   0  0  0  0  0  3  0  0  0  0  0  0
  -23.5660   -7.8040   22.0290 C   0  0  0  0  0  3  0  0  0  0  0  0
  -22.3600   -7.7480   21.2910 C   0  0  0  0  0  0  0  0  0  0  0  0
  -21.9950   -8.8190   20.4610 C   0  0  0  0  0  3  0  0  0  0  0  0
  -22.7920   -9.9660   20.3950 C   0  0  0  0  0  3  0  0  0  0  0  0
  -21.5140   -6.6710   21.2820 O   0  0  0  0  0  0  0  0  0  0  0  0
  -21.4090   -5.8450   22.3680 C   0  0  0  0  0  0  0  0  0  0  0  0
  -20.9660   -6.3070   23.6250 C   0  0  0  0  0  3  0  0  0  0  0  0
  -20.8070   -5.3990   24.6920 C   0  0  0  0  0  3  0  0  0  0  0  0
  -21.0810   -4.0320   24.4980 C   0  0  0  0  0  0  0  0  0  0  0  0
  -21.5190   -3.5720   23.2420 C   0  0  0  0  0  3  0  0  0  0  0  0
  -21.6830   -4.4780   22.1810 C   0  0  0  0  0  0  0  0  0  0  0  0
  -22.0860   -4.0290   20.9680 F   0  0  0  0  0  0  0  0  0  0  0  0
  -20.9170   -3.1560   25.5150 F   0  0  0  0  0  0  0  0  0  0  0  0
  -23.0080  -13.1680   21.7830 C   0  0  0  0  0  0  0  0  0  0  0  0
  -22.2900  -12.4450   22.6270 N   0  0  0  0  0  0  0  0  0  0  0  0
  -22.6590  -14.2680   21.3560 O   0  0  0  0  0  0  0  0  0  0  0  0
  -22.6240  -11.5520   22.9580 H   0  0  0  0  0  0  0  0  0  0  0  0
  -21.3870  -12.7620   22.9530 H   0  0  0  0  0  0  0  0  0  0  0  0
  -25.6590  -14.7730   21.3020 N   0  0  0  0  0  0  0  0  0  0  0  0
  -24.9360  -15.4130   21.6020 H   0  0  0  0  0  0  0  0  0  0  0  0
  -26.5350  -15.2250   21.0810 H   0  0  0  0  0  0  0  0  0  0  0  0
  -28.6230  -17.8450   20.7130 C   0  0  0  0  0 15  0  0  0  0  0  0
  -28.8360  -19.9890   21.0180 C   0  0  0  0  0 15  0  0  0  0  0  0
  -27.9540  -21.9590   21.3460 C   0  0  0  0  0 15  0  0  0  0  0  0
  -28.0810  -23.9040   21.5570 O   0  0  0  0  0  1  0  0  0  0  0  0
  -24.5170  -31.0800   23.3160 C   0  0  0  0  0  0  0  0  0  0  0  0
  -27.2380  -25.3180   21.3350 C   0  0  0  0  0  0  0  0  0  0  0  0
  -23.5510  -29.4870   21.7280 C   0  0  0  0  0  3  0  0  0  0  0  0
  -25.1200  -27.6000   20.7640 C   0  0  0  0  0  0  0  0  0  0  0  0
  -26.1330  -29.4800   22.0120 C   0  0  0  0  0  2  0  0  0  0  0  0
  -26.2370  -27.9400   21.5320 C   0  0  0  0  0  0  0  0  0  0  0  0
  -27.2800  -26.8330   21.7670 C   0  0  0  0  0  3  0  0  0  0  0  0
  -26.0920  -25.2810   20.4930 C   0  0  0  0  0  3  0  0  0  0  0  0
  -25.1110  -26.2990   20.2300 C   0  0  0  0  0  3  0  0  0  0  0  0
  -23.9730  -28.6080   20.5130 C   0  0  0  0  0  2  0  0  0  0  0  0
  -24.7590  -30.0640   22.4020 N   0  0  0  0  0  0  0  0  0  0  0  0
  -23.3660  -31.4580   23.6000 O   0  0  0  0  0  0  0  0  0  0  0  0
  -22.6500  -28.6730   22.7000 C   0  0  0  0  0  0  0  0  0  0  0  0
  -21.3270  -28.5970   22.4470 N   0  0  0  0  0  0  0  0  0  0  0  0
  -23.1610  -28.1000   23.6640 O   0  0  0  0  0  0  0  0  0  0  0  0
  -20.9610  -29.1080   21.6560 H   0  0  0  0  0  0  0  0  0  0  0  0
  -17.8150  -27.6810   22.7590 C   0  0  0  0  0  0  0  0  0  0  0  0
  -20.3640  -27.7870   23.2070 C   0  0  0  0  0  3  0  0  0  0  0  0
  -20.3930  -26.3110   22.7450 C   0  0  0  0  0  2  0  0  0  0  0  0
  -19.3540  -25.9960   21.6640 C   0  0  0  0  0  2  0  0  0  0  0  0
  -17.9410  -26.2810   22.1820 C   0  0  0  0  0  2  0  0  0  0  0  0
  -18.9530  -28.3940   23.2260 C   0  0  0  0  0  0  0  0  0  0  0  0
  -18.7800  -29.7010   23.7320 C   0  0  0  0  0  3  0  0  0  0  0  0
  -17.5040  -30.2960   23.7690 C   0  0  0  0  0  3  0  0  0  0  0  0
  -16.3820  -29.5830   23.3140 C   0  0  0  0  0  3  0  0  0  0  0  0
  -16.5380  -28.2760   22.8170 C   0  0  0  0  0  3  0  0  0  0  0  0
  -25.6700  -31.8260   24.0530 C   0  0  0  0  0  3  0  0  0  0  0  0
  -25.3280  -33.2650   24.1330 N   0  0  0  0  0  0  0  0  0  0  0  0
  -25.7920  -34.2270   23.3200 C   0  0  0  0  0  0  0  0  0  0  0  0
  -26.6010  -33.9940   22.4210 O   0  0  0  0  0  0  0  0  0  0  0  0
  -24.6230  -33.5170   24.8100 H   0  0  0  0  0  0  0  0  0  0  0  0
  -24.1640  -35.9880   22.5290 C   0  0  0  0  0  1  0  0  0  0  0  0
  -25.2840  -35.6720   23.5350 C   0  0  0  0  0  3  0  0  0  0  0  0
  -27.3070  -36.6670   24.5170 C   0  0  0  0  0  1  0  0  0  0  0  0
  -26.3440  -36.7000   23.4210 N   0  0  0  0  0  0  0  0  0  0  0  0
  -25.9390  -37.6320   23.3830 H   0  0  0  0  0  0  0  0  0  0  0  0
  -25.9240  -31.2730   25.5120 C   0  0  1  0  0  0  0  0  0  0  0  0
  -24.6490  -31.1940   26.3870 C   0  0  0  0  0  1  0  0  0  0  0  0
  -26.5470  -29.8610   25.4750 C   0  0  0  0  0  1  0  0  0  0  0  0
  -26.9440  -32.1780   26.2440 C   0  0  0  0  0  1  0  0  0  0  0  0
  1  4  1  0
  1  3  1  0
  2  5  1  0
  2  6  1  0
  3  7  1  0
  4  5  1  0
  4  3  1  0
  7  8  1  0
  8 10  1  0
  8 11  1  0
  9  7  2  0
 11 12  1  0
 13 12  1  0
 14 13  1  0
 18 25  1  0
 20 14  1  0
 21 14  2  0
 22 47  1  0
 22 23  2  0
 23 42  1  0
 24 27  1  0
 24 23  1  0
 25 22  1  0
 26 25  1  0
 26 24  2  0
 27 28  1  0
 28 29  2  0
 30 29  1  0
 31 30  2  0
 32 31  1  0
 32 27  2  0
 33 30  1  0
 33 34  1  0
 34 35  1  0
 35 36  2  0
 37 36  1  0
 37 41  1  0
 38 37  2  0
 39 34  2  0
 39 38  1  0
 40 39  1  0
 42 43  1  0
 43 46  1  0
 43 45  1  0
 44 42  2  0
 47 48  1  0
 49 47  1  0
 54 65  2  0
 55 53  1  0
 55 60  1  0
 56 64  1  0
 56 66  1  0
 57 59  1  0
 58 64  1  0
 59 60  2  0
 59 58  1  0
 61 55  2  0
 62 61  1  0
 62 57  2  0
 63 57  1  0
 63 56  1  0
 64 54  1  0
 66 68  2  0
 67 66  1  0
 69 67  1  0
 70 79  2  0
 70 75  1  0
 71 67  1  0
 71 75  1  0
 72 71  1  0
 73 74  1  0
 73 72  1  0
 74 70  1  0
 75 76  2  0
 76 77  1  0
 78 77  2  0
 79 78  1  0
 80 54  1  0
 80 81  1  0
 80 90  1  0
 81 84  1  0
 82 86  1  0
 82 81  1  0
 83 82  2  0
 86 85  1  0
 88 86  1  0
 88 87  1  0
 89 88  1  0
 90 93  1  1
 90 91  1  0
 92 90  1  0
M  ISO  4  13 100  14 100  52 101  53 101
M  END
>  <TORSDO>  (71) 
F 23

>  <SCORE>  (71) 
-6.895

>  <name>  (71) 
70

>  <ligand_id>  (71) 
70

>  <original_smiles>  (71) 
[H]c1c([H])c([H])c2c(c1[H])C([H])([H])C([H])([H])C([H])([H])C2([H])N([H])C(=O)C1([H])N(C(=O)C([H])(N([H])C(=O)C([H])(N([H])C([H])([H])[H])C([H])([H])[H])C(C([H])([H])[H])(C([H])([H])[H])C([H])([H])[H])C([H])([H])c2c([H])c(OC([H])([H])C([H])([H])C([H])([H])C3([H])C([H])([H])C4([H])C([H])([H])C([H])(C(=O)N([H])C([H])([H])C([H])([H])C([H])([H])C(=O)N5C([H])([H])C([H])([H])C([H])([H])C([H])(n6nc(-c7c([H])c([H])c(Oc8c([H])c([H])c(F)c([H])c8F)c([H])c7[H])c(C(=O)N([H])[H])c6N([H])[H])C5([H])[H])C34[H])c([H])c([H])c2C1([H])[H]

>  <smiles>  (71) 
[H]c1c([H])c([H])c2c(c1[H])C([H])([H])C([H])([H])C([H])([H])C2([H])N([H])C(=O)C1([H])N(C(=O)C([H])(N([H])C(=O)C([H])(N([H])C([H])([H])[H])C([H])([H])[H])C(C([H])([H])[H])(C([H])([H])[H])C([H])([H])[H])C([H])([H])c2c([H])c(OC([H])([H])C([H])([H])C([H])([H])C3([H])C([H])([H])C4([H])C([H])([H])C([H])(C(=O)N([H])C([H])([H])C([H])([H])C([H])([H])C(=O)N5C([H])([H])C([H])([H])C([H])([H])C([H])(n6nc(-c7c([H])c([H])c(Oc8c([H])c([H])c(F)c([H])c8F)c([H])c7[H])c(C(=O)N([H])[H])c6N([H])[H])C5([H])[H])C34[H])c([H])c([H])c2C1([H])[H]

$$$$
71:0:0
     RDKit          3D

 96105  0  0  1  0  0  0  0  0999 V2000
  -30.5770  -20.8020   20.0330 C   0  0  0  0  0  3  0  0  0  0  0  0
  -33.8600  -22.4040   18.9860 C   0  0  0  0  0  2  0  0  0  0  0  0
  -31.1140  -20.6850   16.6680 C   0  0  0  0  0  2  0  0  0  0  0  0
  -32.7600  -23.3820   18.5910 C   0  0  0  0  0  2  0  0  0  0  0  0
  -31.5710  -22.1330   16.7190 C   0  0  0  0  0  2  0  0  0  0  0  0
  -33.1120  -21.2880   19.7150 C   0  0  0  0  0  2  0  0  0  0  0  0
  -31.7830  -20.0690   17.8920 C   0  0  0  0  0  2  0  0  0  0  0  0
  -31.5740  -22.4840   18.2160 C   0  0  0  0  0  3  0  0  0  0  0  0
  -31.7310  -21.1460   19.0120 C   0  0  1  0  0  0  0  0  0  0  0  0
  -30.9800  -19.5860   20.8020 N   0  0  0  0  0  4  0  0  0  0  0  0
  -31.8180  -19.2510   20.3540 H   0  0  0  0  0  0  0  0  0  0  0  0
  -31.2420  -19.8520   21.7380 H   0  0  0  0  0  0  0  0  0  0  0  0
  -30.0440  -18.4270   20.8650 C   0  0  0  0  0  2  0  0  0  0  0  0
  -30.8230  -17.0840   20.9170 C   0  0  0  0  0  2  0  0  0  0  0  0
  -29.9790  -15.7750   21.0550 C   0  0  0  0  0  2  0  0  0  0  0  0
  -30.6820  -14.5060   20.4980 C   0  0  0  0  0  0  0  0  0  0  0  0
  -30.3600  -12.3580   19.3300 C   0  0  0  0  0  2  0  0  0  0  0  0
  -29.4220  -12.5840   18.1270 C   0  0  0  0  0  2  0  0  0  0  0  0
  -27.9460  -12.4540   18.5490 C   0  0  0  0  0  2  0  0  0  0  0  0
  -27.6130  -13.2800   19.8180 C   0  0  0  0  0  3  0  0  0  0  0  0
  -28.6670  -13.0610   20.9260 C   0  0  0  0  0  2  0  0  0  0  0  0
  -29.9950  -13.3390   20.3640 N   0  0  0  0  0  0  0  0  0  0  0  0
  -31.8250  -14.6320   20.0510 O   0  0  0  0  0  0  0  0  0  0  0  0
  -25.2150  -13.8870   20.5180 C   0  0  0  0  0  0  0  0  0  0  0  0
  -24.1430  -13.1160   20.8820 C   0  0  0  0  0  0  0  0  0  0  0  0
  -24.6020  -11.7640   20.8580 C   0  0  0  0  0  0  0  0  0  0  0  0
  -26.2600  -13.0030   20.2940 N   0  0  0  0  0  0  0  0  0  0  0  0
  -25.8950  -11.7220   20.5570 N   0  0  0  0  0  0  0  0  0  0  0  0
  -23.8730  -10.5040   21.0490 C   0  0  0  0  0  0  0  0  0  0  0  0
  -24.3040   -9.5350   21.9820 C   0  0  0  0  0  3  0  0  0  0  0  0
  -23.5770   -8.3380   22.1610 C   0  0  0  0  0  3  0  0  0  0  0  0
  -22.4040   -8.1030   21.4040 C   0  0  0  0  0  0  0  0  0  0  0  0
  -21.9920   -9.0590   20.4600 C   0  0  0  0  0  3  0  0  0  0  0  0
  -22.7200  -10.2460   20.2810 C   0  0  0  0  0  3  0  0  0  0  0  0
  -21.6480   -6.9580   21.4910 O   0  0  0  0  0  0  0  0  0  0  0  0
  -21.6030   -6.2120   22.6400 C   0  0  0  0  0  0  0  0  0  0  0  0
  -21.1840   -6.7650   23.8700 C   0  0  0  0  0  3  0  0  0  0  0  0
  -21.0850   -5.9460   25.0130 C   0  0  0  0  0  3  0  0  0  0  0  0
  -21.3930   -4.5740   24.9250 C   0  0  0  0  0  0  0  0  0  0  0  0
  -21.8050   -4.0220   23.6990 C   0  0  0  0  0  3  0  0  0  0  0  0
  -21.9060   -4.8380   22.5600 C   0  0  0  0  0  0  0  0  0  0  0  0
  -22.2830   -4.2960   21.3770 F   0  0  0  0  0  0  0  0  0  0  0  0
  -21.2890   -3.7850   26.0190 F   0  0  0  0  0  0  0  0  0  0  0  0
  -22.7450  -13.5960   21.1460 C   0  0  0  0  0  0  0  0  0  0  0  0
  -22.0130  -12.8990   22.0100 N   0  0  0  0  0  0  0  0  0  0  0  0
  -22.3100  -14.6220   20.6250 O   0  0  0  0  0  0  0  0  0  0  0  0
  -22.3800  -12.0710   22.4530 H   0  0  0  0  0  0  0  0  0  0  0  0
  -21.0750  -13.2000   22.2330 H   0  0  0  0  0  0  0  0  0  0  0  0
  -25.3840  -15.2560   20.3360 N   0  0  0  0  0  0  0  0  0  0  0  0
  -24.6210  -15.9170   20.4370 H   0  0  0  0  0  0  0  0  0  0  0  0
  -26.2420  -15.6900   20.0210 H   0  0  0  0  0  0  0  0  0  0  0  0
  -30.2020  -21.9740   20.9970 C   0  0  0  0  0  2  0  0  0  0  0  0
  -29.0540  -22.9030   20.5160 C   0  0  0  0  0  2  0  0  0  0  0  0
  -29.3330  -24.4220   20.6440 C   0  0  0  0  0  2  0  0  0  0  0  0
  -28.1760  -25.2550   20.0630 C   0  0  0  0  0  2  0  0  0  0  0  0
  -28.3620  -26.6740   20.1980 O   0  0  0  0  0  0  0  0  0  0  0  0
  -24.6110  -31.9070   23.2220 C   0  0  0  0  0  0  0  0  0  0  0  0
  -27.2090  -27.4360   20.1430 C   0  0  0  0  0  0  0  0  0  0  0  0
  -23.3950  -30.5130   21.5860 C   0  0  0  0  0  3  0  0  0  0  0  0
  -24.8310  -28.9750   20.1550 C   0  0  0  0  0  0  0  0  0  0  0  0
  -25.9240  -30.8530   21.3840 C   0  0  0  0  0  2  0  0  0  0  0  0
  -25.9980  -29.4830   20.7410 C   0  0  0  0  0  0  0  0  0  0  0  0
  -27.1890  -28.7210   20.7340 C   0  0  0  0  0  3  0  0  0  0  0  0
  -26.0260  -26.9590   19.5270 C   0  0  0  0  0  3  0  0  0  0  0  0
  -24.8420  -27.7110   19.5440 C   0  0  0  0  0  3  0  0  0  0  0  0
  -23.5960  -29.8400   20.2040 C   0  0  0  0  0  2  0  0  0  0  0  0
  -24.6620  -31.1050   22.1220 N   0  0  0  0  0  0  0  0  0  0  0  0
  -23.5330  -32.1880   23.7630 O   0  0  0  0  0  0  0  0  0  0  0  0
  -22.7400  -29.4930   22.5450 C   0  0  0  0  0  0  0  0  0  0  0  0
  -21.4140  -29.3230   22.4220 N   0  0  0  0  0  0  0  0  0  0  0  0
  -23.4210  -28.8590   23.3570 O   0  0  0  0  0  0  0  0  0  0  0  0
  -20.9270  -29.8830   21.7350 H   0  0  0  0  0  0  0  0  0  0  0  0
  -18.0280  -28.1690   22.9330 C   0  0  0  0  0  0  0  0  0  0  0  0
  -20.5900  -28.3940   23.1940 C   0  0  0  0  0  3  0  0  0  0  0  0
  -20.6730  -26.9630   22.6120 C   0  0  0  0  0  2  0  0  0  0  0  0
  -19.5620  -26.6580   21.6030 C   0  0  0  0  0  2  0  0  0  0  0  0
  -18.1850  -26.8190   22.2540 C   0  0  0  0  0  2  0  0  0  0  0  0
  -19.1580  -28.9150   23.3590 C   0  0  0  0  0  0  0  0  0  0  0  0
  -18.9580  -30.1810   23.9530 C   0  0  0  0  0  3  0  0  0  0  0  0
  -17.6610  -30.6990   24.1260 C   0  0  0  0  0  3  0  0  0  0  0  0
  -16.5450  -29.9480   23.7180 C   0  0  0  0  0  3  0  0  0  0  0  0
  -16.7290  -28.6860   23.1260 C   0  0  0  0  0  3  0  0  0  0  0  0
  -25.9010  -32.5310   23.8380 C   0  0  0  0  0  3  0  0  0  0  0  0
  -26.4260  -31.7490   25.1050 C   0  0  1  0  0  0  0  0  0  0  0  0
  -25.3390  -31.5040   26.1780 C   0  0  0  0  0  1  0  0  0  0  0  0
  -27.0030  -30.3750   24.6970 C   0  0  0  0  0  1  0  0  0  0  0  0
  -27.5810  -32.5370   25.7650 C   0  0  0  0  0  1  0  0  0  0  0  0
  -25.6000  -33.9290   24.1760 N   0  0  0  0  0  0  0  0  0  0  0  0
  -25.9330  -34.9830   23.4180 C   0  0  0  0  0  0  0  0  0  0  0  0
  -26.5980  -34.8810   22.3840 O   0  0  0  0  0  0  0  0  0  0  0  0
  -25.0070  -34.0830   24.9790 H   0  0  0  0  0  0  0  0  0  0  0  0
  -24.2120  -36.7840   23.0720 C   0  0  0  0  0  1  0  0  0  0  0  0
  -25.4510  -36.3710   23.8820 C   0  0  0  0  0  3  0  0  0  0  0  0
  -27.5880  -37.2420   24.7170 C   0  0  0  0  0  1  0  0  0  0  0  0
  -26.4870  -37.4200   23.7740 N   0  0  0  0  0  0  0  0  0  0  0  0
  -26.0850  -38.3410   23.9290 H   0  0  0  0  0  0  0  0  0  0  0  0
  1 10  1  0
  1 52  1  0
  2  6  1  0
  3  5  1  0
  3  7  1  0
  4  2  1  0
  7  9  1  0
  8  5  1  0
  8  4  1  0
  8  9  1  0
  9  6  1  0
  9  1  1  1
 10 13  1  0
 10 12  1  0
 11 10  1  0
 13 14  1  0
 14 15  1  0
 16 15  1  0
 17 22  1  0
 18 19  1  0
 18 17  1  0
 20 19  1  0
 20 27  1  0
 20 21  1  0
 22 16  1  0
 22 21  1  0
 23 16  2  0
 24 25  2  0
 25 44  1  0
 26 25  1  0
 26 29  1  0
 27 24  1  0
 27 28  1  0
 28 26  2  0
 29 30  1  0
 30 31  2  0
 32 35  1  0
 32 31  1  0
 33 32  2  0
 34 33  1  0
 34 29  2  0
 35 36  1  0
 36 37  1  0
 37 38  2  0
 39 38  1  0
 39 43  1  0
 40 39  2  0
 41 36  2  0
 41 40  1  0
 42 41  1  0
 44 45  1  0
 45 48  1  0
 45 47  1  0
 46 44  2  0
 49 50  1  0
 49 24  1  0
 51 49  1  0
 53 54  1  0
 53 52  1  0
 55 56  1  0
 55 54  1  0
 57 68  2  0
 58 56  1  0
 58 63  1  0
 59 67  1  0
 59 69  1  0
 60 66  1  0
 60 62  1  0
 61 67  1  0
 62 61  1  0
 63 62  2  0
 64 65  1  0
 64 58  2  0
 65 60  2  0
 66 59  1  0
 67 57  1  0
 69 71  2  0
 70 69  1  0
 72 70  1  0
 73 82  2  0
 73 78  1  0
 74 70  1  0
 74 78  1  0
 75 74  1  0
 76 77  1  0
 76 75  1  0
 77 73  1  0
 78 79  2  0
 79 80  1  0
 81 80  2  0
 82 81  1  0
 83 57  1  0
 83 88  1  0
 83 84  1  0
 84 87  1  1
 84 85  1  0
 86 84  1  0
 88 91  1  0
 89 93  1  0
 89 88  1  0
 90 89  2  0
 93 92  1  0
 95 93  1  0
 95 96  1  0
 95 94  1  0
M  ISO  4  15 100  16 100  55 101  56 101
M  END
>  <TORSDO>  (72) 
F 25

>  <SCORE>  (72) 
-12.238

>  <name>  (72) 
71

>  <ligand_id>  (72) 
71

>  <original_smiles>  (72) 
[H]c1c([H])c([H])c2c(c1[H])C([H])([H])C([H])([H])C([H])([H])C2([H])N([H])C(=O)C1([H])N(C(=O)C([H])(N([H])C(=O)C([H])(N([H])C([H])([H])[H])C([H])([H])[H])C(C([H])([H])[H])(C([H])([H])[H])C([H])([H])[H])C([H])([H])c2c([H])c(OC([H])([H])C([H])([H])C([H])([H])C([H])([H])C([H])(C34C([H])([H])C([H])([H])C([H])([H])C3([H])C([H])([H])C([H])([H])C4([H])[H])[N+]([H])([H])C([H])([H])C([H])([H])C([H])([H])C(=O)N3C([H])([H])C([H])([H])C([H])([H])C([H])(n4nc(-c5c([H])c([H])c(Oc6c([H])c([H])c(F)c([H])c6F)c([H])c5[H])c(C(=O)N([H])[H])c4N([H])[H])C3([H])[H])c([H])c([H])c2C1([H])[H]

>  <smiles>  (72) 
[H]c1c([H])c([H])c2c(c1[H])C([H])([H])C([H])([H])C([H])([H])C2([H])N([H])C(=O)C1([H])N(C(=O)C([H])(N([H])C(=O)C([H])(N([H])C([H])([H])[H])C([H])([H])[H])C(C([H])([H])[H])(C([H])([H])[H])C([H])([H])[H])C([H])([H])c2c([H])c(OC([H])([H])C([H])([H])C([H])([H])C([H])([H])C([H])(C34C([H])([H])C([H])([H])C([H])([H])C3([H])C([H])([H])C([H])([H])C4([H])[H])[N+]([H])([H])C([H])([H])C([H])([H])C([H])([H])C(=O)N3C([H])([H])C([H])([H])C([H])([H])C([H])(n4nc(-c5c([H])c([H])c(Oc6c([H])c([H])c(F)c([H])c6F)c([H])c5[H])c(C(=O)N([H])[H])c4N([H])[H])C3([H])[H])c([H])c([H])c2C1([H])[H]

$$$$
72:0:0
     RDKit          3D

 97105  0  0  1  0  0  0  0  0999 V2000
  -32.3060  -22.4700   22.1550 C   0  0  0  0  0  2  0  0  0  0  0  0
  -31.9770  -23.4880   21.0730 C   0  0  0  0  0  2  0  0  0  0  0  0
  -31.0400  -21.6230   22.2310 C   0  0  0  0  0  2  0  0  0  0  0  0
  -31.2340  -22.6720   19.9980 C   0  0  0  0  0  3  0  0  0  0  0  0
  -30.5290  -21.5170   20.7790 C   0  0  0  0  0  3  0  0  0  0  0  0
  -30.3070  -23.5330   19.1070 C   0  0  0  0  0  0  0  0  0  0  0  0
  -30.6960  -24.7920   18.8650 N   0  0  0  0  0  0  0  0  0  0  0  0
  -29.2820  -23.0530   18.6180 O   0  0  0  0  0  0  0  0  0  0  0  0
  -31.5600  -25.0940   19.2970 H   0  0  0  0  0  0  0  0  0  0  0  0
  -30.0070  -25.7830   18.0350 C   0  0  0  0  0  2  0  0  0  0  0  0
  -29.5760  -27.0170   18.8520 C   0  0  0  0  0  2  0  0  0  0  0  0
  -28.5830  -26.6350   19.7970 O   0  0  0  0  0  0  0  0  0  0  0  0
  -24.6500  -31.6020   23.0390 C   0  0  0  0  0  0  0  0  0  0  0  0
  -27.4270  -27.3760   19.7920 C   0  0  0  0  0  0  0  0  0  0  0  0
  -23.4880  -30.2440   21.3290 C   0  0  0  0  0  3  0  0  0  0  0  0
  -24.9900  -28.7950   19.8570 C   0  0  0  0  0  0  0  0  0  0  0  0
  -26.0040  -30.6690   21.1700 C   0  0  0  0  0  2  0  0  0  0  0  0
  -26.1290  -29.3310   20.4720 C   0  0  0  0  0  0  0  0  0  0  0  0
  -27.3550  -28.6290   20.4380 C   0  0  0  0  0  3  0  0  0  0  0  0
  -26.2710  -26.8360   19.1930 C   0  0  0  0  0  3  0  0  0  0  0  0
  -25.0530  -27.5450   19.2150 C   0  0  0  0  0  3  0  0  0  0  0  0
  -23.7240  -29.6230   19.9270 C   0  0  0  0  0  2  0  0  0  0  0  0
  -24.7320  -30.8500   21.9060 N   0  0  0  0  0  0  0  0  0  0  0  0
  -23.5610  -31.8310   23.5790 O   0  0  0  0  0  0  0  0  0  0  0  0
  -22.8480  -29.1740   22.2420 C   0  0  0  0  0  0  0  0  0  0  0  0
  -21.5200  -29.0050   22.1270 N   0  0  0  0  0  0  0  0  0  0  0  0
  -23.5430  -28.5010   23.0080 O   0  0  0  0  0  0  0  0  0  0  0  0
  -21.0200  -29.5980   21.4780 H   0  0  0  0  0  0  0  0  0  0  0  0
  -18.1450  -27.8220   22.6480 C   0  0  0  0  0  0  0  0  0  0  0  0
  -20.7140  -28.0290   22.8600 C   0  0  0  0  0  3  0  0  0  0  0  0
  -20.7790  -26.6390   22.1890 C   0  0  0  0  0  2  0  0  0  0  0  0
  -19.6440  -26.3960   21.1890 C   0  0  0  0  0  2  0  0  0  0  0  0
  -18.2830  -26.5170   21.8810 C   0  0  0  0  0  2  0  0  0  0  0  0
  -19.2870  -28.5390   23.0950 C   0  0  0  0  0  0  0  0  0  0  0  0
  -19.1040  -29.7640   23.7740 C   0  0  0  0  0  3  0  0  0  0  0  0
  -17.8120  -30.2720   24.0060 C   0  0  0  0  0  3  0  0  0  0  0  0
  -16.6850  -29.5510   23.5750 C   0  0  0  0  0  3  0  0  0  0  0  0
  -16.8530  -28.3260   22.9040 C   0  0  0  0  0  3  0  0  0  0  0  0
  -25.9190  -32.2330   23.6930 C   0  0  0  0  0  3  0  0  0  0  0  0
  -26.4480  -31.4230   24.9400 C   0  0  1  0  0  0  0  0  0  0  0  0
  -25.3540  -31.1230   25.9930 C   0  0  0  0  0  1  0  0  0  0  0  0
  -27.0580  -30.0720   24.4990 C   0  0  0  0  0  1  0  0  0  0  0  0
  -27.5820  -32.2130   25.6360 C   0  0  0  0  0  1  0  0  0  0  0  0
  -25.5810  -33.6120   24.0730 N   0  0  0  0  0  0  0  0  0  0  0  0
  -25.9060  -34.6970   23.3580 C   0  0  0  0  0  0  0  0  0  0  0  0
  -26.5910  -34.6440   22.3340 O   0  0  0  0  0  0  0  0  0  0  0  0
  -24.9650  -33.7250   24.8650 H   0  0  0  0  0  0  0  0  0  0  0  0
  -24.1440  -36.4650   23.0520 C   0  0  0  0  0  1  0  0  0  0  0  0
  -25.3870  -36.0570   23.8590 C   0  0  0  0  0  3  0  0  0  0  0  0
  -27.5020  -36.9490   24.7350 C   0  0  0  0  0  1  0  0  0  0  0  0
  -26.4000  -37.1340   23.7950 N   0  0  0  0  0  0  0  0  0  0  0  0
  -25.9750  -38.0390   23.9800 H   0  0  0  0  0  0  0  0  0  0  0  0
  -30.7740  -20.1150   20.1530 C   0  0  0  0  0  2  0  0  0  0  0  0
  -29.8130  -18.9890   20.6290 C   0  0  0  0  0  3  0  0  0  0  0  0
  -30.2190  -17.6540   20.1140 N   0  0  0  0  0  4  0  0  0  0  0  0
  -29.3720  -17.1120   20.1060 H   0  0  0  0  0  0  0  0  0  0  0  0
  -30.5340  -17.7330   19.1600 H   0  0  0  0  0  0  0  0  0  0  0  0
  -31.2010  -16.8760   20.9140 C   0  0  0  0  0  2  0  0  0  0  0  0
  -30.6820  -15.4420   21.2360 C   0  0  0  0  0  2  0  0  0  0  0  0
  -31.1520  -14.3020   20.3040 C   0  0  0  0  0  0  0  0  0  0  0  0
  -30.7910  -12.0760   19.2790 C   0  0  0  0  0  2  0  0  0  0  0  0
  -29.8360  -12.1720   18.0720 C   0  0  0  0  0  2  0  0  0  0  0  0
  -28.3670  -12.0940   18.5310 C   0  0  0  0  0  2  0  0  0  0  0  0
  -28.0530  -13.0670   19.7000 C   0  0  0  0  0  3  0  0  0  0  0  0
  -29.1100  -12.9080   20.8200 C   0  0  0  0  0  2  0  0  0  0  0  0
  -30.4360  -13.1470   20.2240 N   0  0  0  0  0  0  0  0  0  0  0  0
  -32.1870  -14.4710   19.6520 O   0  0  0  0  0  0  0  0  0  0  0  0
  -25.7000  -13.8200   20.4400 C   0  0  0  0  0  0  0  0  0  0  0  0
  -24.5940  -13.1100   20.8250 C   0  0  0  0  0  0  0  0  0  0  0  0
  -24.9720  -11.7350   20.7820 C   0  0  0  0  0  0  0  0  0  0  0  0
  -26.6900  -12.8780   20.1960 N   0  0  0  0  0  0  0  0  0  0  0  0
  -26.2520  -11.6190   20.4530 N   0  0  0  0  0  0  0  0  0  0  0  0
  -24.1760  -10.5160   20.9790 C   0  0  0  0  0  0  0  0  0  0  0  0
  -24.5590   -9.5250   21.9100 C   0  0  0  0  0  3  0  0  0  0  0  0
  -23.7670   -8.3720   22.0950 C   0  0  0  0  0  3  0  0  0  0  0  0
  -22.5760   -8.2020   21.3500 C   0  0  0  0  0  0  0  0  0  0  0  0
  -22.2110   -9.1790   20.4070 C   0  0  0  0  0  3  0  0  0  0  0  0
  -23.0020  -10.3250   20.2210 C   0  0  0  0  0  3  0  0  0  0  0  0
  -21.7580   -7.1020   21.4450 O   0  0  0  0  0  0  0  0  0  0  0  0
  -21.6640   -6.3740   22.6040 C   0  0  0  0  0  0  0  0  0  0  0  0
  -21.2760   -6.9650   23.8260 C   0  0  0  0  0  3  0  0  0  0  0  0
  -21.1250   -6.1670   24.9780 C   0  0  0  0  0  3  0  0  0  0  0  0
  -21.3500   -4.7790   24.9070 C   0  0  0  0  0  0  0  0  0  0  0  0
  -21.7330   -4.1870   23.6900 C   0  0  0  0  0  3  0  0  0  0  0  0
  -21.8850   -4.9830   22.5410 C   0  0  0  0  0  0  0  0  0  0  0  0
  -22.2320   -4.4040   21.3660 F   0  0  0  0  0  0  0  0  0  0  0  0
  -21.1970   -4.0110   26.0120 F   0  0  0  0  0  0  0  0  0  0  0  0
  -23.2320  -13.6680   21.1230 C   0  0  0  0  0  0  0  0  0  0  0  0
  -22.4850  -13.0240   22.0130 N   0  0  0  0  0  0  0  0  0  0  0  0
  -22.8390  -14.7100   20.5990 O   0  0  0  0  0  0  0  0  0  0  0  0
  -22.8130  -12.1770   22.4550 H   0  0  0  0  0  0  0  0  0  0  0  0
  -21.5730  -13.3830   22.2570 H   0  0  0  0  0  0  0  0  0  0  0  0
  -25.9410  -15.1780   20.2550 N   0  0  0  0  0  0  0  0  0  0  0  0
  -25.2050  -15.8690   20.3530 H   0  0  0  0  0  0  0  0  0  0  0  0
  -26.7750  -15.5510   19.8210 H   0  0  0  0  0  0  0  0  0  0  0  0
  -28.0350  -19.3900   18.7610 C   0  0  0  0  0  1  0  0  0  0  0  0
  -28.3290  -19.2330   20.2630 C   0  0  0  0  0  2  0  0  0  0  0  0
  1  3  1  0
  2  1  1  0
  4  6  1  0
  4  5  1  0
  4  2  1  0
  5 53  1  0
  5  3  1  0
  7  6  1  0
  7  9  1  0
  8  6  2  0
 10 11  1  0
 10  7  1  0
 11 12  1  0
 13 24  2  0
 14 12  1  0
 14 19  1  0
 15 23  1  0
 15 25  1  0
 16 22  1  0
 16 18  1  0
 17 23  1  0
 18 17  1  0
 19 18  2  0
 20 21  1  0
 20 14  2  0
 21 16  2  0
 22 15  1  0
 23 13  1  0
 25 27  2  0
 26 25  1  0
 28 26  1  0
 29 38  2  0
 29 34  1  0
 30 26  1  0
 30 34  1  0
 31 30  1  0
 32 33  1  0
 32 31  1  0
 33 29  1  0
 34 35  2  0
 35 36  1  0
 37 36  2  0
 38 37  1  0
 39 13  1  0
 39 44  1  0
 39 40  1  0
 40 43  1  1
 40 41  1  0
 42 40  1  0
 44 47  1  0
 45 49  1  0
 45 44  1  0
 46 45  2  0
 49 48  1  0
 51 49  1  0
 51 52  1  0
 51 50  1  0
 54 53  1  0
 55 54  1  0
 55 58  1  0
 56 55  1  0
 57 55  1  0
 58 59  1  0
 60 59  1  0
 61 66  1  0
 62 63  1  0
 62 61  1  0
 64 63  1  0
 64 71  1  0
 64 65  1  0
 66 60  1  0
 66 65  1  0
 67 60  2  0
 68 69  2  0
 69 88  1  0
 70 69  1  0
 70 73  1  0
 71 68  1  0
 71 72  1  0
 72 70  2  0
 73 74  1  0
 74 75  2  0
 76 79  1  0
 76 75  1  0
 77 76  2  0
 78 77  1  0
 78 73  2  0
 79 80  1  0
 80 81  1  0
 81 82  2  0
 83 82  1  0
 83 87  1  0
 84 83  2  0
 85 80  2  0
 85 84  1  0
 86 85  1  0
 88 89  1  0
 89 92  1  0
 89 91  1  0
 90 88  2  0
 93 94  1  0
 93 68  1  0
 95 93  1  0
 96 97  1  0
 97 54  1  0
M  ISO  4  11 101  12 101  59 100  60 100
M  END
>  <TORSDO>  (73) 
F 25

>  <SCORE>  (73) 
-10.533

>  <name>  (73) 
72

>  <ligand_id>  (73) 
72

>  <original_smiles>  (73) 
[H]c1c([H])c([H])c2c(c1[H])C([H])([H])C([H])([H])C([H])([H])C2([H])N([H])C(=O)C1([H])N(C(=O)C([H])(N([H])C(=O)C([H])(N([H])C([H])([H])[H])C([H])([H])[H])C(C([H])([H])[H])(C([H])([H])[H])C([H])([H])[H])C([H])([H])c2c([H])c(OC([H])([H])C([H])([H])N([H])C(=O)C3([H])C([H])([H])C([H])([H])C([H])([H])C3([H])C([H])([H])C([H])(C([H])([H])C([H])([H])[H])[N+]([H])([H])C([H])([H])C([H])([H])C(=O)N3C([H])([H])C([H])([H])C([H])([H])C([H])(n4nc(-c5c([H])c([H])c(Oc6c([H])c([H])c(F)c([H])c6F)c([H])c5[H])c(C(=O)N([H])[H])c4N([H])[H])C3([H])[H])c([H])c([H])c2C1([H])[H]

>  <smiles>  (73) 
[H]c1c([H])c([H])c2c(c1[H])C([H])([H])C([H])([H])C([H])([H])C2([H])N([H])C(=O)C1([H])N(C(=O)C([H])(N([H])C(=O)C([H])(N([H])C([H])([H])[H])C([H])([H])[H])C(C([H])([H])[H])(C([H])([H])[H])C([H])([H])[H])C([H])([H])c2c([H])c(OC([H])([H])C([H])([H])N([H])C(=O)C3([H])C([H])([H])C([H])([H])C([H])([H])C3([H])C([H])([H])C([H])(C([H])([H])C([H])([H])[H])[N+]([H])([H])C([H])([H])C([H])([H])C(=O)N3C([H])([H])C([H])([H])C([H])([H])C([H])(n4nc(-c5c([H])c([H])c(Oc6c([H])c([H])c(F)c([H])c6F)c([H])c5[H])c(C(=O)N([H])[H])c4N([H])[H])C3([H])[H])c([H])c([H])c2C1([H])[H]

$$$$
73:0:0
     RDKit          3D

 92 99  0  0  1  0  0  0  0  0999 V2000
  -28.8590  -21.2850   20.5540 N   0  0  0  0  0  4  0  0  0  0  0  0
  -27.9820  -20.9320   20.1980 H   0  0  0  0  0  0  0  0  0  0  0  0
  -28.7140  -21.4630   21.5340 H   0  0  0  0  0  0  0  0  0  0  0  0
  -31.1290  -20.5820   21.2930 C   0  0  0  0  0  1  0  0  0  0  0  0
  -29.9150  -20.1860   20.4250 C   0  0  0  0  0  3  0  0  0  0  0  0
  -29.4220  -18.6750   20.7430 C   0  0  0  0  0  2  0  0  0  0  0  0
  -30.4060  -17.3960   20.6380 C   0  0  0  0  0  3  0  0  0  0  0  0
  -31.5150  -17.4770   21.6180 N   0  0  0  0  0  4  0  0  0  0  0  0
  -32.0080  -18.3500   21.5380 H   0  0  0  0  0  0  0  0  0  0  0  0
  -32.1800  -16.7360   21.4590 H   0  0  0  0  0  0  0  0  0  0  0  0
  -31.1830  -17.3880   22.5630 H   0  0  0  0  0  0  0  0  0  0  0  0
  -29.7290  -15.9490   20.7840 C   0  0  0  0  0  2  0  0  0  0  0  0
  -30.5460  -14.6630   20.3420 C   0  0  0  0  0  0  0  0  0  0  0  0
  -30.3520  -12.4380   19.2490 C   0  0  0  0  0  2  0  0  0  0  0  0
  -29.4010  -12.5580   18.0390 C   0  0  0  0  0  2  0  0  0  0  0  0
  -27.9320  -12.3740   18.4730 C   0  0  0  0  0  2  0  0  0  0  0  0
  -27.5700  -13.2420   19.7060 C   0  0  0  0  0  3  0  0  0  0  0  0
  -28.6300  -13.1090   20.8210 C   0  0  0  0  0  2  0  0  0  0  0  0
  -29.9390  -13.4410   20.2510 N   0  0  0  0  0  0  0  0  0  0  0  0
  -31.7050  -14.8180   19.9430 O   0  0  0  0  0  0  0  0  0  0  0  0
  -25.1970  -13.8490   20.4700 C   0  0  0  0  0  0  0  0  0  0  0  0
  -24.1340  -13.0820   20.8520 C   0  0  0  0  0  0  0  0  0  0  0  0
  -24.5880  -11.7280   20.8130 C   0  0  0  0  0  0  0  0  0  0  0  0
  -26.2300  -12.9630   20.2110 N   0  0  0  0  0  0  0  0  0  0  0  0
  -25.8720  -11.6820   20.4830 N   0  0  0  0  0  0  0  0  0  0  0  0
  -23.8620  -10.4690   21.0080 C   0  0  0  0  0  0  0  0  0  0  0  0
  -24.3050   -9.5020   21.9370 C   0  0  0  0  0  3  0  0  0  0  0  0
  -23.5830   -8.3040   22.1220 C   0  0  0  0  0  3  0  0  0  0  0  0
  -22.4040   -8.0630   21.3790 C   0  0  0  0  0  0  0  0  0  0  0  0
  -21.9800   -9.0210   20.4400 C   0  0  0  0  0  3  0  0  0  0  0  0
  -22.7010  -10.2100   20.2550 C   0  0  0  0  0  3  0  0  0  0  0  0
  -21.6500   -6.9220   21.4720 O   0  0  0  0  0  0  0  0  0  0  0  0
  -21.6140   -6.1760   22.6220 C   0  0  0  0  0  0  0  0  0  0  0  0
  -21.1970   -6.7240   23.8550 C   0  0  0  0  0  3  0  0  0  0  0  0
  -21.1080   -5.9010   24.9960 C   0  0  0  0  0  3  0  0  0  0  0  0
  -21.4260   -4.5330   24.9060 C   0  0  0  0  0  0  0  0  0  0  0  0
  -21.8320   -3.9840   23.6770 C   0  0  0  0  0  3  0  0  0  0  0  0
  -21.9240   -4.8030   22.5380 C   0  0  0  0  0  0  0  0  0  0  0  0
  -22.2970   -4.2650   21.3530 F   0  0  0  0  0  0  0  0  0  0  0  0
  -21.3320   -3.7410   25.9990 F   0  0  0  0  0  0  0  0  0  0  0  0
  -22.7420  -13.5630   21.1390 C   0  0  0  0  0  0  0  0  0  0  0  0
  -22.0150  -12.8660   22.0040 N   0  0  0  0  0  0  0  0  0  0  0  0
  -22.3050  -14.5920   20.6270 O   0  0  0  0  0  0  0  0  0  0  0  0
  -22.3720  -12.0310   22.4460 H   0  0  0  0  0  0  0  0  0  0  0  0
  -21.0810  -13.1750   22.2240 H   0  0  0  0  0  0  0  0  0  0  0  0
  -25.3660  -15.2210   20.2970 N   0  0  0  0  0  0  0  0  0  0  0  0
  -24.5970  -15.8740   20.4090 H   0  0  0  0  0  0  0  0  0  0  0  0
  -26.2080  -15.6650   19.9560 H   0  0  0  0  0  0  0  0  0  0  0  0
  -29.0860  -22.6150   19.8410 C   0  0  0  0  0  2  0  0  0  0  0  0
  -28.4560  -23.9340   20.4890 C   0  0  0  0  0  3  0  0  0  0  0  0
  -28.5420  -25.2640   19.6160 C   0  0  0  0  0  3  0  0  0  0  0  0
  -28.3810  -26.5890   20.2450 O   0  0  0  0  0  0  0  0  0  0  0  0
  -24.5780  -31.8970   23.2250 C   0  0  0  0  0  0  0  0  0  0  0  0
  -27.2140  -27.3590   20.1760 C   0  0  0  0  0  0  0  0  0  0  0  0
  -23.3740  -30.4940   21.5880 C   0  0  0  0  0  3  0  0  0  0  0  0
  -24.8240  -28.9340   20.1700 C   0  0  0  0  0  0  0  0  0  0  0  0
  -25.9090  -30.8210   21.3930 C   0  0  0  0  0  2  0  0  0  0  0  0
  -25.9880  -29.4390   20.7580 C   0  0  0  0  0  0  0  0  0  0  0  0
  -27.1770  -28.6620   20.7570 C   0  0  0  0  0  3  0  0  0  0  0  0
  -26.0250  -26.8910   19.5750 C   0  0  0  0  0  3  0  0  0  0  0  0
  -24.8410  -27.6580   19.5770 C   0  0  0  0  0  3  0  0  0  0  0  0
  -23.5870  -29.8100   20.2110 C   0  0  0  0  0  2  0  0  0  0  0  0
  -24.6400  -31.0880   22.1270 N   0  0  0  0  0  0  0  0  0  0  0  0
  -23.4960  -32.1750   23.7600 O   0  0  0  0  0  0  0  0  0  0  0  0
  -22.7110  -29.4790   22.5480 C   0  0  0  0  0  0  0  0  0  0  0  0
  -21.3850  -29.3060   22.4200 N   0  0  0  0  0  0  0  0  0  0  0  0
  -23.3880  -28.8470   23.3620 O   0  0  0  0  0  0  0  0  0  0  0  0
  -20.8980  -29.8670   21.7350 H   0  0  0  0  0  0  0  0  0  0  0  0
  -18.0030  -28.1320   22.9200 C   0  0  0  0  0  0  0  0  0  0  0  0
  -20.5620  -28.3720   23.1900 C   0  0  0  0  0  3  0  0  0  0  0  0
  -20.6550  -26.9400   22.6100 C   0  0  0  0  0  2  0  0  0  0  0  0
  -19.5490  -26.6290   21.5960 C   0  0  0  0  0  2  0  0  0  0  0  0
  -18.1690  -26.7810   22.2420 C   0  0  0  0  0  2  0  0  0  0  0  0
  -19.1260  -28.8840   23.3510 C   0  0  0  0  0  0  0  0  0  0  0  0
  -18.9160  -30.1510   23.9410 C   0  0  0  0  0  3  0  0  0  0  0  0
  -17.6150  -30.6580   24.1130 C   0  0  0  0  0  3  0  0  0  0  0  0
  -16.5050  -29.9010   23.7000 C   0  0  0  0  0  3  0  0  0  0  0  0
  -16.6990  -28.6420   23.1040 C   0  0  0  0  0  3  0  0  0  0  0  0
  -25.8610  -32.5310   23.8470 C   0  0  0  0  0  3  0  0  0  0  0  0
  -25.5550  -33.9320   24.1690 N   0  0  0  0  0  0  0  0  0  0  0  0
  -25.8940  -34.9820   23.4080 C   0  0  0  0  0  0  0  0  0  0  0  0
  -26.5680  -34.8720   22.3800 O   0  0  0  0  0  0  0  0  0  0  0  0
  -24.9640  -34.0900   24.9720 H   0  0  0  0  0  0  0  0  0  0  0  0
  -24.1740  -36.7780   23.0320 C   0  0  0  0  0  1  0  0  0  0  0  0
  -25.4070  -36.3730   23.8570 C   0  0  0  0  0  3  0  0  0  0  0  0
  -27.5390  -37.2490   24.7030 C   0  0  0  0  0  1  0  0  0  0  0  0
  -26.4450  -37.4230   23.7500 N   0  0  0  0  0  0  0  0  0  0  0  0
  -26.0440  -38.3460   23.8960 H   0  0  0  0  0  0  0  0  0  0  0  0
  -26.3670  -31.7660   25.1310 C   0  0  1  0  0  0  0  0  0  0  0  0
  -25.2700  -31.5350   26.1970 C   0  0  0  0  0  1  0  0  0  0  0  0
  -26.9460  -30.3860   24.7460 C   0  0  0  0  0  1  0  0  0  0  0  0
  -27.5190  -32.5570   25.7940 C   0  0  0  0  0  1  0  0  0  0  0  0
  1  3  1  0
  2  1  1  0
  5  1  1  0
  5  6  1  0
  5  4  1  0
  7  6  1  0
  7 12  1  0
  7  8  1  0
  8 11  1  0
  9  8  1  0
 10  8  1  0
 13 12  1  0
 14 19  1  0
 15 16  1  0
 15 14  1  0
 17 16  1  0
 17 24  1  0
 17 18  1  0
 19 13  1  0
 19 18  1  0
 20 13  2  0
 21 22  2  0
 22 41  1  0
 23 22  1  0
 23 26  1  0
 24 21  1  0
 24 25  1  0
 25 23  2  0
 26 27  1  0
 27 28  2  0
 29 32  1  0
 29 28  1  0
 30 29  2  0
 31 30  1  0
 31 26  2  0
 32 33  1  0
 33 34  1  0
 34 35  2  0
 36 35  1  0
 36 40  1  0
 37 36  2  0
 38 33  2  0
 38 37  1  0
 39 38  1  0
 41 42  1  0
 42 45  1  0
 42 44  1  0
 43 41  2  0
 46 47  1  0
 46 21  1  0
 48 46  1  0
 49 50  1  0
 49  1  1  0
 51 52  1  0
 51 50  2  0
 53 64  2  0
 54 52  1  0
 54 59  1  0
 55 63  1  0
 55 65  1  0
 56 62  1  0
 56 58  1  0
 57 63  1  0
 58 57  1  0
 59 58  2  0
 60 61  1  0
 60 54  2  0
 61 56  2  0
 62 55  1  0
 63 53  1  0
 65 67  2  0
 66 65  1  0
 68 66  1  0
 69 78  2  0
 69 74  1  0
 70 66  1  0
 70 74  1  0
 71 70  1  0
 72 73  1  0
 72 71  1  0
 73 69  1  0
 74 75  2  0
 75 76  1  0
 77 76  2  0
 78 77  1  0
 79 53  1  0
 79 80  1  0
 79 89  1  0
 80 83  1  0
 81 85  1  0
 81 80  1  0
 82 81  2  0
 85 84  1  0
 87 85  1  0
 87 88  1  0
 87 86  1  0
 89 92  1  1
 89 90  1  0
 91 89  1  0
M  ISO  4  12 100  13 100  51 101  52 101
M  END
>  <TORSDO>  (74) 
F 24

>  <SCORE>  (74) 
-12.514

>  <name>  (74) 
73

>  <ligand_id>  (74) 
73

>  <original_smiles>  (74) 
[H]c1c([H])c([H])c2c(c1[H])C([H])([H])C([H])([H])C([H])([H])C2([H])N([H])C(=O)C1([H])N(C(=O)C([H])(N([H])C(=O)C([H])(N([H])C([H])([H])[H])C([H])([H])[H])C(C([H])([H])[H])(C([H])([H])[H])C([H])([H])[H])C([H])([H])c2c([H])c(OC([H])([H])C([H])([H])C([H])([H])[N+]([H])([H])C([H])(C([H])([H])[H])C([H])([H])C([H])(C([H])([H])C(=O)N3C([H])([H])C([H])([H])C([H])([H])C([H])(n4nc(-c5c([H])c([H])c(Oc6c([H])c([H])c(F)c([H])c6F)c([H])c5[H])c(C(=O)N([H])[H])c4N([H])[H])C3([H])[H])[N+]([H])([H])[H])c([H])c([H])c2C1([H])[H]

>  <smiles>  (74) 
[H]c1c([H])c([H])c2c(c1[H])C([H])([H])C([H])([H])C([H])([H])C2([H])N([H])C(=O)C1([H])N(C(=O)C([H])(N([H])C(=O)C([H])(N([H])C([H])([H])[H])C([H])([H])[H])C(C([H])([H])[H])(C([H])([H])[H])C([H])([H])[H])C([H])([H])c2c([H])c(OC([H])([H])C([H])([H])C([H])([H])[N+]([H])([H])C([H])(C([H])([H])[H])C([H])([H])C([H])(C([H])([H])C(=O)N3C([H])([H])C([H])([H])C([H])([H])C([H])(n4nc(-c5c([H])c([H])c(Oc6c([H])c([H])c(F)c([H])c6F)c([H])c5[H])c(C(=O)N([H])[H])c4N([H])[H])C3([H])[H])[N+]([H])([H])[H])c([H])c([H])c2C1([H])[H]

$$$$
74:0:0
     RDKit          3D

100108  0  0  1  0  0  0  0  0999 V2000
  -24.7260  -18.9100   17.0450 C   0  0  0  0  0  2  0  0  0  0  0  0
  -24.7370  -20.4390   17.1230 C   0  0  0  0  0  2  0  0  0  0  0  0
  -26.0260  -18.4270   17.7000 C   0  0  0  0  0  2  0  0  0  0  0  0
  -26.1360  -20.8380   17.6380 C   0  0  0  0  0  3  0  0  0  0  0  0
  -26.6180  -19.6310   18.4650 C   0  0  0  0  0  3  0  0  0  0  0  0
  -24.8970  -22.7690   18.9090 C   0  0  0  0  0  1  0  0  0  0  0  0
  -26.2330  -22.2040   18.3790 C   0  0  0  0  0  3  0  0  0  0  0  0
  -26.9600  -23.1880   17.5470 N   0  0  0  0  0  4  0  0  0  0  0  0
  -27.6980  -22.6940   17.0710 H   0  0  0  0  0  0  0  0  0  0  0  0
  -26.3430  -23.5560   16.8390 H   0  0  0  0  0  0  0  0  0  0  0  0
  -27.5800  -24.2860   18.3180 C   0  0  0  0  0  2  0  0  0  0  0  0
  -28.4160  -25.2360   17.4440 C   0  0  0  0  0  2  0  0  0  0  0  0
  -28.9560  -26.4270   18.2560 C   0  0  0  0  0  2  0  0  0  0  0  0
  -28.5170  -27.6700   17.7270 O   0  0  0  0  0  0  0  0  0  0  0  0
  -24.5080  -30.7140   22.7370 C   0  0  0  0  0  0  0  0  0  0  0  0
  -27.2600  -28.0790   18.1000 C   0  0  0  0  0  0  0  0  0  0  0  0
  -23.2760  -29.7570   20.8160 C   0  0  0  0  0  3  0  0  0  0  0  0
  -24.7110  -29.0350   18.8370 C   0  0  0  0  0  0  0  0  0  0  0  0
  -25.6830  -30.5760   20.5480 C   0  0  0  0  0  2  0  0  0  0  0  0
  -25.8570  -29.5270   19.4740 C   0  0  0  0  0  0  0  0  0  0  0  0
  -27.1330  -29.0530   19.1100 C   0  0  0  0  0  3  0  0  0  0  0  0
  -26.0980  -27.5920   17.4610 C   0  0  0  0  0  3  0  0  0  0  0  0
  -24.8230  -28.0580   17.8340 C   0  0  0  0  0  3  0  0  0  0  0  0
  -23.3850  -29.6120   19.2750 C   0  0  0  0  0  2  0  0  0  0  0  0
  -24.5120  -30.3470   21.4250 N   0  0  0  0  0  0  0  0  0  0  0  0
  -23.4830  -30.6090   23.4270 O   0  0  0  0  0  0  0  0  0  0  0  0
  -22.8980  -28.3840   21.4110 C   0  0  0  0  0  0  0  0  0  0  0  0
  -21.6620  -27.9370   21.1370 N   0  0  0  0  0  0  0  0  0  0  0  0
  -23.7100  -27.7350   22.0740 O   0  0  0  0  0  0  0  0  0  0  0  0
  -21.0510  -28.5330   20.5940 H   0  0  0  0  0  0  0  0  0  0  0  0
  -18.8330  -25.7330   20.7220 C   0  0  0  0  0  0  0  0  0  0  0  0
  -21.0980  -26.6580   21.5570 C   0  0  0  0  0  3  0  0  0  0  0  0
  -21.7490  -25.4870   20.7860 C   0  0  0  0  0  2  0  0  0  0  0  0
  -20.9700  -25.0880   19.5270 C   0  0  0  0  0  2  0  0  0  0  0  0
  -19.5400  -24.6770   19.8880 C   0  0  0  0  0  2  0  0  0  0  0  0
  -19.5660  -26.6720   21.4950 C   0  0  0  0  0  0  0  0  0  0  0  0
  -18.8630  -27.6550   22.2240 C   0  0  0  0  0  3  0  0  0  0  0  0
  -17.4570  -27.7080   22.1940 C   0  0  0  0  0  3  0  0  0  0  0  0
  -16.7360  -26.7650   21.4420 C   0  0  0  0  0  3  0  0  0  0  0  0
  -17.4230  -25.7800   20.7090 C   0  0  0  0  0  3  0  0  0  0  0  0
  -25.7790  -31.3030   23.4280 C   0  0  0  0  0  3  0  0  0  0  0  0
  -25.3900  -32.5670   24.0690 N   0  0  0  0  0  0  0  0  0  0  0  0
  -25.8030  -33.7790   23.6730 C   0  0  0  0  0  0  0  0  0  0  0  0
  -26.6200  -33.9460   22.7610 O   0  0  0  0  0  0  0  0  0  0  0  0
  -24.6790  -32.5120   24.7840 H   0  0  0  0  0  0  0  0  0  0  0  0
  -24.1910  -35.6980   23.4920 C   0  0  0  0  0  1  0  0  0  0  0  0
  -25.2160  -35.0010   24.4010 C   0  0  0  0  0  3  0  0  0  0  0  0
  -27.0970  -35.4690   25.9100 C   0  0  0  0  0  1  0  0  0  0  0  0
  -26.2410  -35.9740   24.8380 N   0  0  0  0  0  0  0  0  0  0  0  0
  -25.8070  -36.8350   25.1600 H   0  0  0  0  0  0  0  0  0  0  0  0
  -26.4320  -30.3190   24.4740 C   0  0  1  0  0  0  0  0  0  0  0  0
  -25.4290  -29.7640   25.5100 C   0  0  0  0  0  1  0  0  0  0  0  0
  -27.0880  -29.1170   23.7560 C   0  0  0  0  0  1  0  0  0  0  0  0
  -27.5640  -31.0450   25.2400 C   0  0  0  0  0  1  0  0  0  0  0  0
  -28.1680  -19.6290   18.7610 C   0  0  0  0  0  3  0  0  0  0  0  0
  -28.7580  -18.2660   18.6920 N   0  0  0  0  0  4  0  0  0  0  0  0
  -28.0550  -17.5700   18.9370 H   0  0  0  0  0  0  0  0  0  0  0  0
  -28.9870  -18.1250   17.7210 H   0  0  0  0  0  0  0  0  0  0  0  0
  -29.9900  -17.9930   19.4660 C   0  0  0  0  0  2  0  0  0  0  0  0
  -30.4760  -16.5490   19.2400 C   0  0  0  0  0  2  0  0  0  0  0  0
  -31.1460  -15.8970   20.4690 C   0  0  0  0  0  2  0  0  0  0  0  0
  -31.7360  -14.5280   20.0990 C   0  0  0  0  0  0  0  0  0  0  0  0
  -31.4350  -12.1140   19.6750 C   0  0  0  0  0  2  0  0  0  0  0  0
  -30.5920  -11.8820   18.4060 C   0  0  0  0  0  2  0  0  0  0  0  0
  -29.0890  -11.8740   18.7480 C   0  0  0  0  0  2  0  0  0  0  0  0
  -28.6700  -13.1020   19.5920 C   0  0  0  0  0  3  0  0  0  0  0  0
  -29.6340  -13.3080   20.7840 C   0  0  0  0  0  2  0  0  0  0  0  0
  -31.0140  -13.3890   20.2740 N   0  0  0  0  0  0  0  0  0  0  0  0
  -32.8480  -14.5310   19.5670 O   0  0  0  0  0  0  0  0  0  0  0  0
  -26.3540  -14.0380   20.2030 C   0  0  0  0  0  0  0  0  0  0  0  0
  -25.1850  -13.4250   20.5580 C   0  0  0  0  0  0  0  0  0  0  0  0
  -25.4650  -12.0240   20.5650 C   0  0  0  0  0  0  0  0  0  0  0  0
  -27.2800  -13.0230   20.0260 N   0  0  0  0  0  0  0  0  0  0  0  0
  -26.7450  -11.8080   20.2980 N   0  0  0  0  0  0  0  0  0  0  0  0
  -24.5750  -10.8710   20.7440 C   0  0  0  0  0  0  0  0  0  0  0  0
  -24.8220   -9.9000   21.7410 C   0  0  0  0  0  3  0  0  0  0  0  0
  -23.9450   -8.8040   21.9030 C   0  0  0  0  0  3  0  0  0  0  0  0
  -22.8090   -8.6750   21.0700 C   0  0  0  0  0  0  0  0  0  0  0  0
  -22.5830   -9.6310   20.0640 C   0  0  0  0  0  3  0  0  0  0  0  0
  -23.4570  -10.7180   19.9000 C   0  0  0  0  0  3  0  0  0  0  0  0
  -21.9170   -7.6340   21.1420 O   0  0  0  0  0  0  0  0  0  0  0  0
  -21.6640   -6.9830   22.3230 C   0  0  0  0  0  0  0  0  0  0  0  0
  -21.1620   -7.6620   23.4550 C   0  0  0  0  0  3  0  0  0  0  0  0
  -20.8550   -6.9440   24.6280 C   0  0  0  0  0  3  0  0  0  0  0  0
  -21.0350   -5.5480   24.6660 C   0  0  0  0  0  0  0  0  0  0  0  0
  -21.5260   -4.8700   23.5370 C   0  0  0  0  0  3  0  0  0  0  0  0
  -21.8370   -5.5860   22.3680 C   0  0  0  0  0  0  0  0  0  0  0  0
  -22.2920   -4.9240   21.2760 F   0  0  0  0  0  0  0  0  0  0  0  0
  -20.7300   -4.8550   25.7880 F   0  0  0  0  0  0  0  0  0  0  0  0
  -23.8530  -14.0860   20.7600 C   0  0  0  0  0  0  0  0  0  0  0  0
  -23.0330  -13.5560   21.6610 N   0  0  0  0  0  0  0  0  0  0  0  0
  -23.5550  -15.1140   20.1510 O   0  0  0  0  0  0  0  0  0  0  0  0
  -23.2880  -12.7260   22.1770 H   0  0  0  0  0  0  0  0  0  0  0  0
  -22.1350  -13.9830   21.8350 H   0  0  0  0  0  0  0  0  0  0  0  0
  -26.7020  -15.3640   19.9550 N   0  0  0  0  0  0  0  0  0  0  0  0
  -25.8190  -15.8650   19.9300 H   0  0  0  0  0  0  0  0  0  0  0  0
  -27.0860  -15.3350   19.0170 H   0  0  0  0  0  0  0  0  0  0  0  0
  -28.3630  -19.5890   21.3540 C   0  0  0  0  0  1  0  0  0  0  0  0
  -29.8860  -21.1380   20.0140 C   0  0  0  0  0  1  0  0  0  0  0  0
  -28.5230  -20.4140   20.0630 C   0  0  0  0  0  3  0  0  0  0  0  0
  1  2  1  0
  1  3  1  0
  2  4  1  0
  3  5  1  0
  4  7  1  0
  4  5  1  0
  5 55  1  0
  7  6  1  0
  8 11  1  0
  8  7  1  0
  9  8  1  0
 10  8  1  0
 12 13  1  0
 12 11  1  0
 14 16  1  0
 14 13  1  0
 15 26  2  0
 16 21  1  0
 17 27  1  0
 17 25  1  0
 18 24  1  0
 18 20  1  0
 19 25  1  0
 20 19  1  0
 21 20  2  0
 22 23  1  0
 22 16  2  0
 23 18  2  0
 24 17  1  0
 25 15  1  0
 27 29  2  0
 28 27  1  0
 30 28  1  0
 31 36  1  0
 32 28  1  0
 33 32  1  0
 34 35  1  0
 34 33  1  0
 35 31  1  0
 36 32  1  0
 36 37  2  0
 38 37  1  0
 39 38  2  0
 40 31  2  0
 40 39  1  0
 41 15  1  0
 41 42  1  0
 41 51  1  0
 42 45  1  0
 43 42  1  0
 43 47  1  0
 44 43  2  0
 47 46  1  0
 47 49  1  0
 49 50  1  0
 49 48  1  0
 51 54  1  1
 51 52  1  0
 53 51  1  0
 55100  1  0
 56 55  1  0
 56 57  1  0
 56 59  1  0
 58 56  1  0
 60 59  1  0
 60 61  1  0
 62 68  1  0
 62 61  1  0
 63 68  1  0
 64 65  1  0
 64 63  1  0
 66 65  1  0
 66 73  1  0
 66 67  1  0
 68 67  1  0
 69 62  2  0
 70 71  2  0
 71 72  1  0
 71 90  1  0
 72 75  1  0
 73 70  1  0
 73 74  1  0
 74 72  2  0
 75 76  1  0
 76 77  2  0
 78 81  1  0
 78 77  1  0
 79 78  2  0
 80 79  1  0
 80 75  2  0
 81 82  1  0
 82 87  2  0
 82 83  1  0
 83 84  2  0
 84 85  1  0
 85 89  1  0
 86 85  2  0
 87 86  1  0
 88 87  1  0
 90 91  1  0
 91 94  1  0
 91 93  1  0
 92 90  2  0
 95 70  1  0
 96 95  1  0
 97 95  1  0
 99100  1  0
100 98  1  0
M  ISO  4  13 101  14 101  61 100  62 100
M  END
>  <TORSDO>  (75) 
F 27

>  <SCORE>  (75) 
-3.267

>  <name>  (75) 
74

>  <ligand_id>  (75) 
74

>  <original_smiles>  (75) 
[H]c1c([H])c([H])c2c(c1[H])C([H])([H])C([H])([H])C([H])([H])C2([H])N([H])C(=O)C1([H])N(C(=O)C([H])(N([H])C(=O)C([H])(N([H])C([H])([H])[H])C([H])([H])[H])C(C([H])([H])[H])(C([H])([H])[H])C([H])([H])[H])C([H])([H])c2c([H])c(OC([H])([H])C([H])([H])C([H])([H])[N+]([H])([H])C([H])(C([H])([H])[H])C3([H])C([H])([H])C([H])([H])C([H])([H])C3([H])C([H])(C([H])(C([H])([H])[H])C([H])([H])[H])[N+]([H])([H])C([H])([H])C([H])([H])C([H])([H])C(=O)N3C([H])([H])C([H])([H])C([H])([H])C([H])(n4nc(-c5c([H])c([H])c(Oc6c([H])c([H])c(F)c([H])c6F)c([H])c5[H])c(C(=O)N([H])[H])c4N([H])[H])C3([H])[H])c([H])c([H])c2C1([H])[H]

>  <smiles>  (75) 
[H]c1c([H])c([H])c2c(c1[H])C([H])([H])C([H])([H])C([H])([H])C2([H])N([H])C(=O)C1([H])N(C(=O)C([H])(N([H])C(=O)C([H])(N([H])C([H])([H])[H])C([H])([H])[H])C(C([H])([H])[H])(C([H])([H])[H])C([H])([H])[H])C([H])([H])c2c([H])c(OC([H])([H])C([H])([H])C([H])([H])[N+]([H])([H])C([H])(C([H])([H])[H])C3([H])C([H])([H])C([H])([H])C([H])([H])C3([H])C([H])(C([H])(C([H])([H])[H])C([H])([H])[H])[N+]([H])([H])C([H])([H])C([H])([H])C([H])([H])C(=O)N3C([H])([H])C([H])([H])C([H])([H])C([H])(n4nc(-c5c([H])c([H])c(Oc6c([H])c([H])c(F)c([H])c6F)c([H])c5[H])c(C(=O)N([H])[H])c4N([H])[H])C3([H])[H])c([H])c([H])c2C1([H])[H]

$$$$
75:0:0
     RDKit          3D

 91 99  0  0  1  0  0  0  0  0999 V2000
  -28.4860  -22.4540   18.1430 C   0  0  0  0  0  2  0  0  0  0  0  0
  -29.0580  -21.0500   17.9300 C   0  0  0  0  0  2  0  0  0  0  0  0
  -29.4480  -21.6710   20.1850 C   0  0  0  0  0  2  0  0  0  0  0  0
  -29.2640  -22.9650   19.3480 C   0  0  0  0  0  3  0  0  0  0  0  0
  -29.2960  -20.5150   19.2750 N   0  0  0  0  0  0  0  0  0  0  0  0
  -28.6350  -24.1900   20.0960 C   0  0  0  0  0  2  0  0  0  0  0  0
  -28.6700  -25.5510   19.3320 C   0  0  0  0  0  2  0  0  0  0  0  0
  -28.4410  -26.7100   20.1660 O   0  0  0  0  0  0  0  0  0  0  0  0
  -24.5900  -31.8790   23.2420 C   0  0  0  0  0  0  0  0  0  0  0  0
  -27.2420  -27.4090   20.1530 C   0  0  0  0  0  0  0  0  0  0  0  0
  -23.3840  -30.4810   21.5960 C   0  0  0  0  0  3  0  0  0  0  0  0
  -24.8390  -28.9260   20.1830 C   0  0  0  0  0  0  0  0  0  0  0  0
  -25.9140  -30.8210   21.4090 C   0  0  0  0  0  2  0  0  0  0  0  0
  -25.9970  -29.4460   20.7720 C   0  0  0  0  0  0  0  0  0  0  0  0
  -27.1930  -28.6900   20.7640 C   0  0  0  0  0  3  0  0  0  0  0  0
  -26.0570  -26.9010   19.5750 C   0  0  0  0  0  3  0  0  0  0  0  0
  -24.8630  -27.6500   19.5910 C   0  0  0  0  0  3  0  0  0  0  0  0
  -23.5980  -29.7900   20.2220 C   0  0  0  0  0  2  0  0  0  0  0  0
  -24.6480  -31.0760   22.1420 N   0  0  0  0  0  0  0  0  0  0  0  0
  -23.5070  -32.1590   23.7770 O   0  0  0  0  0  0  0  0  0  0  0  0
  -22.7220  -29.4670   22.5550 C   0  0  0  0  0  0  0  0  0  0  0  0
  -21.3980  -29.2930   22.4190 N   0  0  0  0  0  0  0  0  0  0  0  0
  -23.3980  -28.8420   23.3750 O   0  0  0  0  0  0  0  0  0  0  0  0
  -20.9140  -29.8500   21.7270 H   0  0  0  0  0  0  0  0  0  0  0  0
  -18.0190  -28.1090   22.9030 C   0  0  0  0  0  0  0  0  0  0  0  0
  -20.5750  -28.3590   23.1860 C   0  0  0  0  0  3  0  0  0  0  0  0
  -20.6760  -26.9270   22.6100 C   0  0  0  0  0  2  0  0  0  0  0  0
  -19.5790  -26.6080   21.5900 C   0  0  0  0  0  2  0  0  0  0  0  0
  -18.1940  -26.7590   22.2260 C   0  0  0  0  0  2  0  0  0  0  0  0
  -19.1390  -28.8660   23.3380 C   0  0  0  0  0  0  0  0  0  0  0  0
  -18.9230  -30.1310   23.9270 C   0  0  0  0  0  3  0  0  0  0  0  0
  -17.6210  -30.6390   24.0870 C   0  0  0  0  0  3  0  0  0  0  0  0
  -16.5160  -29.8810   23.6650 C   0  0  0  0  0  3  0  0  0  0  0  0
  -16.7160  -28.6170   23.0810 C   0  0  0  0  0  3  0  0  0  0  0  0
  -25.8770  -32.5030   23.8690 C   0  0  0  0  0  3  0  0  0  0  0  0
  -25.5770  -33.9040   24.1960 N   0  0  0  0  0  0  0  0  0  0  0  0
  -25.9170  -34.9530   23.4350 C   0  0  0  0  0  0  0  0  0  0  0  0
  -26.5880  -34.8430   22.4040 O   0  0  0  0  0  0  0  0  0  0  0  0
  -24.9840  -34.0660   24.9960 H   0  0  0  0  0  0  0  0  0  0  0  0
  -24.1910  -36.7450   23.0780 C   0  0  0  0  0  1  0  0  0  0  0  0
  -25.4350  -36.3440   23.8870 C   0  0  0  0  0  3  0  0  0  0  0  0
  -27.5730  -37.2240   24.7100 C   0  0  0  0  0  1  0  0  0  0  0  0
  -26.4700  -37.3930   23.7680 N   0  0  0  0  0  0  0  0  0  0  0  0
  -26.0660  -38.3140   23.9210 H   0  0  0  0  0  0  0  0  0  0  0  0
  -26.3850  -31.7290   25.1470 C   0  0  1  0  0  0  0  0  0  0  0  0
  -25.2850  -31.4910   26.2060 C   0  0  0  0  0  1  0  0  0  0  0  0
  -26.9710  -30.3540   24.7520 C   0  0  0  0  0  1  0  0  0  0  0  0
  -27.5320  -32.5190   25.8210 C   0  0  0  0  0  1  0  0  0  0  0  0
  -30.3980  -19.5280   19.2730 C   0  0  0  0  0  2  0  0  0  0  0  0
  -30.3580  -18.5210   20.4710 C   0  0  0  0  0  2  0  0  0  0  0  0
  -32.8170  -18.3480   20.7740 C   0  0  0  0  0  1  0  0  0  0  0  0
  -31.5410  -17.6060   20.5830 N   0  0  1  0  0  4  0  0  0  0  0  0
  -31.6520  -17.1110   19.7080 H   0  0  0  0  0  0  0  0  0  0  0  0
  -31.3890  -16.5520   21.6430 C   0  0  0  0  0  2  0  0  0  0  0  0
  -30.3560  -15.4080   21.3740 C   0  0  0  0  0  2  0  0  0  0  0  0
  -30.7080  -14.4250   20.2380 C   0  0  0  0  0  0  0  0  0  0  0  0
  -30.2320  -12.3800   18.9120 C   0  0  0  0  0  2  0  0  0  0  0  0
  -29.2250  -12.6360   17.7760 C   0  0  0  0  0  2  0  0  0  0  0  0
  -27.7830  -12.4780   18.2870 C   0  0  0  0  0  2  0  0  0  0  0  0
  -27.5290  -13.2820   19.5880 C   0  0  0  0  0  3  0  0  0  0  0  0
  -28.6420  -13.0340   20.6360 C   0  0  0  0  0  2  0  0  0  0  0  0
  -29.9460  -13.3160   20.0110 N   0  0  0  0  0  0  0  0  0  0  0  0
  -31.6980  -14.6880   19.5480 O   0  0  0  0  0  0  0  0  0  0  0  0
  -25.1580  -13.8830   20.4010 C   0  0  0  0  0  0  0  0  0  0  0  0
  -24.1090  -13.1070   20.8100 C   0  0  0  0  0  0  0  0  0  0  0  0
  -24.5720  -11.7560   20.7580 C   0  0  0  0  0  0  0  0  0  0  0  0
  -26.1970  -13.0070   20.1250 N   0  0  0  0  0  0  0  0  0  0  0  0
  -25.8480  -11.7220   20.3980 N   0  0  0  0  0  0  0  0  0  0  0  0
  -23.8570  -10.4890   20.9700 C   0  0  0  0  0  0  0  0  0  0  0  0
  -24.3230   -9.5240   21.8910 C   0  0  0  0  0  3  0  0  0  0  0  0
  -23.6050   -8.3270   22.0970 C   0  0  0  0  0  3  0  0  0  0  0  0
  -22.4100   -8.0810   21.3790 C   0  0  0  0  0  0  0  0  0  0  0  0
  -21.9650   -9.0360   20.4450 C   0  0  0  0  0  3  0  0  0  0  0  0
  -22.6820  -10.2260   20.2390 C   0  0  0  0  0  3  0  0  0  0  0  0
  -21.6630   -6.9330   21.4930 O   0  0  0  0  0  0  0  0  0  0  0  0
  -21.6540   -6.1910   22.6480 C   0  0  0  0  0  0  0  0  0  0  0  0
  -21.2640   -6.7480   23.8860 C   0  0  0  0  0  3  0  0  0  0  0  0
  -21.1990   -5.9340   25.0360 C   0  0  0  0  0  3  0  0  0  0  0  0
  -21.5180   -4.5650   24.9470 C   0  0  0  0  0  0  0  0  0  0  0  0
  -21.9010   -4.0090   23.7140 C   0  0  0  0  0  3  0  0  0  0  0  0
  -21.9650   -4.8190   22.5680 C   0  0  0  0  0  0  0  0  0  0  0  0
  -22.3130   -4.2720   21.3770 F   0  0  0  0  0  0  0  0  0  0  0  0
  -21.4490   -3.7800   26.0490 F   0  0  0  0  0  0  0  0  0  0  0  0
  -22.7210  -13.5730   21.1430 C   0  0  0  0  0  0  0  0  0  0  0  0
  -22.0340  -12.8700   22.0360 N   0  0  0  0  0  0  0  0  0  0  0  0
  -22.2570  -14.5960   20.6390 O   0  0  0  0  0  0  0  0  0  0  0  0
  -22.4270  -12.0390   22.4510 H   0  0  0  0  0  0  0  0  0  0  0  0
  -21.1040  -13.1610   22.2970 H   0  0  0  0  0  0  0  0  0  0  0  0
  -25.3140  -15.2550   20.2190 N   0  0  0  0  0  0  0  0  0  0  0  0
  -24.5520  -15.9110   20.3560 H   0  0  0  0  0  0  0  0  0  0  0  0
  -26.1500  -15.6930   19.8550 H   0  0  0  0  0  0  0  0  0  0  0  0
  1  4  1  0
  2  1  1  0
  2  5  1  0
  4  6  1  0
  4  3  1  0
  5  3  1  0
  7  6  1  0
  7  8  1  0
  9 20  2  0
 10  8  1  0
 10 15  1  0
 11 19  1  0
 11 21  1  0
 12 18  1  0
 12 14  1  0
 13 19  1  0
 14 13  1  0
 15 14  2  0
 16 17  1  0
 16 10  2  0
 17 12  2  0
 18 11  1  0
 19  9  1  0
 21 23  2  0
 22 21  1  0
 24 22  1  0
 25 34  2  0
 25 30  1  0
 26 22  1  0
 26 30  1  0
 27 26  1  0
 28 29  1  0
 28 27  1  0
 29 25  1  0
 30 31  2  0
 31 32  1  0
 33 32  2  0
 34 33  1  0
 35  9  1  0
 35 36  1  0
 35 45  1  0
 36 39  1  0
 37 41  1  0
 37 36  1  0
 38 37  2  0
 41 40  1  0
 43 41  1  0
 43 44  1  0
 43 42  1  0
 45 48  1  1
 45 46  1  0
 47 45  1  0
 49  5  1  0
 49 50  1  0
 50 52  1  0
 52 51  1  0
 52 54  1  0
 52 53  1  6
 55 54  1  0
 56 55  1  0
 57 62  1  0
 58 59  1  0
 58 57  1  0
 60 59  1  0
 60 67  1  0
 60 61  1  0
 62 56  1  0
 62 61  1  0
 63 56  2  0
 64 65  2  0
 65 84  1  0
 66 65  1  0
 66 69  1  0
 67 68  1  0
 67 64  1  0
 68 66  2  0
 69 70  1  0
 70 71  2  0
 72 75  1  0
 72 71  1  0
 73 72  2  0
 74 73  1  0
 74 69  2  0
 75 76  1  0
 76 77  1  0
 77 78  2  0
 79 78  1  0
 79 83  1  0
 80 79  2  0
 81 76  2  0
 81 80  1  0
 82 81  1  0
 84 85  1  0
 85 88  1  0
 85 87  1  0
 86 84  2  0
 89 90  1  0
 89 64  1  0
 91 89  1  0
M  ISO  4   7 101   8 101  55 100  56 100
M  END
>  <TORSDO>  (76) 
F 23

>  <SCORE>  (76) 
-12.604

>  <name>  (76) 
75

>  <ligand_id>  (76) 
75

>  <original_smiles>  (76) 
[H]c1c([H])c([H])c2c(c1[H])C([H])([H])C([H])([H])C([H])([H])C2([H])N([H])C(=O)C1([H])N(C(=O)C([H])(N([H])C(=O)C([H])(N([H])C([H])([H])[H])C([H])([H])[H])C(C([H])([H])[H])(C([H])([H])[H])C([H])([H])[H])C([H])([H])c2c([H])c(OC([H])([H])C([H])([H])C3([H])C([H])([H])N(C([H])([H])C([H])([H])[N+]([H])(C([H])([H])[H])C([H])([H])C([H])([H])C(=O)N4C([H])([H])C([H])([H])C([H])([H])C([H])(n5nc(-c6c([H])c([H])c(Oc7c([H])c([H])c(F)c([H])c7F)c([H])c6[H])c(C(=O)N([H])[H])c5N([H])[H])C4([H])[H])C([H])([H])C3([H])[H])c([H])c([H])c2C1([H])[H]

>  <smiles>  (76) 
[H]c1c([H])c([H])c2c(c1[H])C([H])([H])C([H])([H])C([H])([H])C2([H])N([H])C(=O)C1([H])N(C(=O)C([H])(N([H])C(=O)C([H])(N([H])C([H])([H])[H])C([H])([H])[H])C(C([H])([H])[H])(C([H])([H])[H])C([H])([H])[H])C([H])([H])c2c([H])c(OC([H])([H])C([H])([H])C3([H])C([H])([H])N(C([H])([H])C([H])([H])[N+]([H])(C([H])([H])[H])C([H])([H])C([H])([H])C(=O)N4C([H])([H])C([H])([H])C([H])([H])C([H])(n5nc(-c6c([H])c([H])c(Oc7c([H])c([H])c(F)c([H])c7F)c([H])c6[H])c(C(=O)N([H])[H])c5N([H])[H])C4([H])[H])C([H])([H])C3([H])[H])c([H])c([H])c2C1([H])[H]

$$$$
76:0:0
     RDKit          3D

101 99  0  0  1  0  0  0  0  0999 V2000
  -27.0950  -21.9420   20.8120 C   0  0  0  0  0  0  0  0  0  0  0  0
  -24.1930  -23.4410   17.3580 C   0  0  0  0  0  2  0  0  0  0  0  0
  -23.9450  -24.8810   17.7800 C   0  0  0  0  0  2  0  0  0  0  0  0
  -24.4170  -22.6770   18.6360 C   0  0  0  0  0  2  0  0  0  0  0  0
  -26.1170  -22.7780   21.6460 C   0  0  0  0  0  3  0  0  0  0  0  0
  -25.0080  -25.5130   18.7310 C   0  0  0  0  0  1  0  0  0  0  0  0
  -25.5470  -23.4120   19.3570 C   0  0  0  0  0  2  0  0  0  0  0  0
  -26.7850  -21.8410   19.5120 N   0  0  0  0  0  1  0  0  0  0  0  0
  -25.1800  -23.5200   20.7790 N   0  0  0  0  0  4  0  0  0  0  0  0
  -28.0260  -21.3370   21.3600 O   0  0  0  0  0  0  0  0  0  0  0  0
  -25.1710  -24.4810   21.0820 H   0  0  0  0  0  0  0  0  0  0  0  0
  -24.2540  -23.1570   20.9000 H   0  0  0  0  0  0  0  0  0  0  0  0
  -25.8040  -24.7710   23.1790 C   0  0  0  0  0  1  0  0  0  0  0  0
  -26.7990  -23.7030   22.6890 C   0  0  0  0  0  2  0  0  0  0  0  0
  -27.4370  -19.9940   19.1040 C   0  0  0  0  0 15  0  0  0  0  0  0
  -28.3640  -18.0990   19.8020 C   0  0  0  0  0 15  0  0  0  0  0  0
  -29.7560  -16.5090   19.7330 C   0  0  0  0  0  2  0  0  0  0  0  0
  -30.7580  -13.8820   19.4100 C   0  0  0  0  0  2  0  0  0  0  0  0
  -30.0950  -13.0080   18.2890 C   0  0  0  0  0  2  0  0  0  0  0  0
  -28.7100  -12.5020   18.7240 C   0  0  0  0  0  2  0  0  0  0  0  0
  -28.0100  -13.5890   19.5590 C   0  0  0  0  0  3  0  0  0  0  0  0
  -28.8550  -14.1810   20.6790 C   0  0  0  0  0  2  0  0  0  0  0  0
  -29.8030  -15.0120   19.9540 N   0  0  0  0  0  0  0  0  0  0  0  0
  -31.0070  -16.6410   19.5010 O   0  0  0  0  0  1  0  0  0  0  0  0
  -25.7140  -14.1400   20.3550 C   0  0  0  0  0  0  0  0  0  0  0  0
  -24.6620  -13.3640   20.7370 C   0  0  0  0  0  0  0  0  0  0  0  0
  -25.1260  -12.0130   20.6840 C   0  0  0  0  0  0  0  0  0  0  0  0
  -26.7220  -13.2470   20.0700 N   0  0  0  0  0  0  0  0  0  0  0  0
  -26.4080  -11.9640   20.3470 N   0  0  0  0  0  0  0  0  0  0  0  0
  -24.4000  -10.7580   20.8660 C   0  0  0  0  0  0  0  0  0  0  0  0
  -24.7800   -9.8180   21.8470 C   0  0  0  0  0  3  0  0  0  0  0  0
  -24.0460   -8.6260   22.0100 C   0  0  0  0  0  3  0  0  0  0  0  0
  -22.9200   -8.3690   21.1910 C   0  0  0  0  0  0  0  0  0  0  0  0
  -22.5650   -9.3000   20.1990 C   0  0  0  0  0  3  0  0  0  0  0  0
  -23.3000  -10.4830   20.0340 C   0  0  0  0  0  3  0  0  0  0  0  0
  -22.1590   -7.2300   21.2630 O   0  0  0  0  0  0  0  0  0  0  0  0
  -21.8070   -6.6760   22.4670 C   0  0  0  0  0  0  0  0  0  0  0  0
  -21.1430   -7.4210   23.4660 C   0  0  0  0  0  3  0  0  0  0  0  0
  -20.7370   -6.7910   24.6590 C   0  0  0  0  0  3  0  0  0  0  0  0
  -20.9880   -5.4200   24.8530 C   0  0  0  0  0  0  0  0  0  0  0  0
  -21.6460   -4.6770   23.8580 C   0  0  0  0  0  3  0  0  0  0  0  0
  -22.0520   -5.3030   22.6670 C   0  0  0  0  0  0  0  0  0  0  0  0
  -22.6660   -4.5770   21.7000 F   0  0  0  0  0  0  0  0  0  0  0  0
  -20.5930   -4.8130   25.9960 F   0  0  0  0  0  0  0  0  0  0  0  0
  -23.2800  -13.8570   21.0160 C   0  0  0  0  0  0  0  0  0  0  0  0
  -22.5780  -13.2040   21.9350 N   0  0  0  0  0  0  0  0  0  0  0  0
  -22.8330  -14.8560   20.4550 O   0  0  0  0  0  0  0  0  0  0  0  0
  -22.9590  -12.3980   22.4070 H   0  0  0  0  0  0  0  0  0  0  0  0
  -21.6490  -13.5170   22.1740 H   0  0  0  0  0  0  0  0  0  0  0  0
  -25.8910  -15.5120   20.1950 N   0  0  0  0  0  0  0  0  0  0  0  0
  -25.1240  -16.1620   20.3240 H   0  0  0  0  0  0  0  0  0  0  0  0
  -26.7140  -15.9430   19.7960 H   0  0  0  0  0  0  0  0  0  0  0  0
  -23.8370  -27.4900   18.8430 C   0  0  0  0  0  1  0  0  0  0  0  0
  -23.3480  -29.2470   19.7860 N   0  0  0  0  0  2  0  0  0  0  0  0
  -22.4010  -29.4500   19.5000 H   0  0  0  0  0  0  0  0  0  0  0  0
  -23.8870  -29.9450   19.2890 H   0  0  0  0  0  0  0  0  0  0  0  0
  -23.3540  -29.9460   21.7510 C   0  0  0  0  0 15  0  0  0  0  0  0
  -24.5980  -28.9200   23.3500 C   0  0  0  0  0 15  0  0  0  0  0  0
  -26.5020  -28.2860   23.0810 O   0  0  0  0  0  1  0  0  0  0  0  0
  -25.1890  -31.3760   23.1130 C   0  0  0  0  0  0  0  0  0  0  0  0
  -27.5880  -27.7700   22.1320 C   0  0  0  0  0  3  0  0  0  0  0  0
  -25.3070  -29.1770   21.0850 C   0  0  0  0  0  2  0  0  0  0  0  0
  -27.1080  -28.9940   19.9690 C   0  0  0  0  0  3  0  0  0  0  0  0
  -27.1420  -30.8280   21.7610 C   0  0  0  0  0  2  0  0  0  0  0  0
  -27.7680  -29.6320   21.0740 C   0  0  0  0  0  3  0  0  0  0  0  0
  -28.4800  -28.7980   21.9200 C   0  0  0  0  0  2  0  0  0  0  0  0
  -27.5300  -26.9580   20.9480 C   0  0  0  0  0  2  0  0  0  0  0  0
  -27.2620  -27.6220   19.7450 C   0  0  0  0  0  2  0  0  0  0  0  0
  -25.7870  -29.4270   19.6890 C   0  0  0  0  0  2  0  0  0  0  0  0
  -25.7290  -30.5690   22.0100 N   0  0  0  0  0  0  0  0  0  0  0  0
  -23.9620  -31.5460   23.2570 O   0  0  0  0  0  0  0  0  0  0  0  0
  -24.6540  -27.2520   21.6530 C   0  0  0  0  0  2  0  0  0  0  0  0
  -23.2910  -26.8860   22.2870 N   0  0  0  0  0  0  0  0  0  0  0  0
  -25.2170  -26.4280   22.2900 O   0  0  0  0  0  1  0  0  0  0  0  0
  -23.5000  -26.0240   22.7640 H   0  0  0  0  0  0  0  0  0  0  0  0
  -19.2190  -28.2220   21.9290 C   0  0  0  0  0  0  0  0  0  0  0  0
  -21.6630  -27.1610   22.5680 C   0  0  0  0  0  3  0  0  0  0  0  0
  -21.1080  -26.1490   21.6420 C   0  0  0  0  0  2  0  0  0  0  0  0
  -20.4260  -26.6640   20.3760 C   0  0  0  0  0  2  0  0  0  0  0  0
  -19.1550  -27.3930   20.6890 C   0  0  0  0  0  2  0  0  0  0  0  0
  -20.4140  -28.3120   22.7480 C   0  0  0  0  0  0  0  0  0  0  0  0
  -20.1570  -29.1720   23.8880 C   0  0  0  0  0  3  0  0  0  0  0  0
  -18.9260  -29.8570   24.1520 C   0  0  0  0  0  3  0  0  0  0  0  0
  -17.8140  -29.6830   23.3160 C   0  0  0  0  0  3  0  0  0  0  0  0
  -17.9780  -28.8600   22.2090 C   0  0  0  0  0  3  0  0  0  0  0  0
  -26.0110  -31.9130   24.4050 C   0  0  0  0  0  3  0  0  0  0  0  0
  -25.5810  -33.2960   24.6990 N   0  0  0  0  0  0  0  0  0  0  0  0
  -26.1270  -34.3960   24.1630 C   0  0  0  0  0  0  0  0  0  0  0  0
  -27.0480  -34.3340   23.3470 O   0  0  0  0  0  0  0  0  0  0  0  0
  -24.7770  -33.3960   25.3000 H   0  0  0  0  0  0  0  0  0  0  0  0
  -24.4300  -36.1590   23.5930 C   0  0  0  0  0  1  0  0  0  0  0  0
  -25.5570  -35.7710   24.5620 C   0  0  0  0  0  3  0  0  0  0  0  0
  -27.5970  -36.6530   25.6130 C   0  0  0  0  0  1  0  0  0  0  0  0
  -26.5780  -36.8450   24.5850 N   0  0  0  0  0  0  0  0  0  0  0  0
  -26.1440  -37.7530   24.7330 H   0  0  0  0  0  0  0  0  0  0  0  0
  -25.9120  -31.1160   25.8190 C   0  0  1  0  0  0  0  0  0  0  0  0
  -24.4850  -30.6290   26.2250 C   0  0  0  0  0  1  0  0  0  0  0  0
  -26.9200  -29.9460   25.8980 C   0  0  0  0  0  1  0  0  0  0  0  0
  -26.3410  -32.0390   26.9950 C   0  0  0  0  0  1  0  0  0  0  0  0
  -24.9330  -28.8040   16.7450 C   0  0  0  0  0  1  0  0  0  0  0  0
  -23.6980  -28.1320   17.3930 C   0  0  0  0  0  2  0  0  0  0  0  0
  1 10  2  0
  1  5  1  0
  2  3  1  0
  2  4  1  0
  3  6  1  0
  4  7  1  0
  5 14  1  0
  7  9  1  0
  8  1  1  0
  9 12  1  0
  9 11  1  0
  9  5  1  0
 14 13  1  0
 17 23  1  0
 18 23  1  0
 19 20  1  0
 19 18  1  0
 21 20  1  0
 21 28  1  0
 21 22  1  0
 23 22  1  0
 24 17  1  0
 25 26  2  0
 26 45  1  0
 27 26  1  0
 27 30  1  0
 28 29  1  0
 28 25  1  0
 29 27  2  0
 30 31  1  0
 31 32  2  0
 33 36  1  0
 33 32  1  0
 34 33  2  0
 35 34  1  0
 35 30  2  0
 36 37  1  0
 37 42  2  0
 37 38  1  0
 38 39  2  0
 39 40  1  0
 40 44  1  0
 41 40  2  0
 42 41  1  0
 43 42  1  0
 45 46  1  0
 46 49  1  0
 46 48  1  0
 47 45  2  0
 50 51  1  0
 50 25  1  0
 52 50  1  0
 55 54  1  0
 56 54  1  0
 60 71  2  0
 61 59  1  0
 62 70  1  0
 63 69  1  0
 63 65  1  0
 64 70  1  0
 65 64  1  0
 65 66  1  0
 66 61  1  0
 67 61  1  0
 68 63  1  0
 68 67  1  0
 69 62  1  0
 70 60  1  0
 72 73  1  0
 72 74  1  0
 73 75  1  0
 76 85  2  0
 76 81  1  0
 77 73  1  0
 77 81  1  0
 78 77  1  0
 79 80  1  0
 79 78  1  0
 80 76  1  0
 81 82  2  0
 82 83  1  0
 84 83  2  0
 85 84  1  0
 86 60  1  0
 86 87  1  0
 86 96  1  0
 87 90  1  0
 88 92  1  0
 88 87  1  0
 89 88  2  0
 92 91  1  0
 92 94  1  0
 94 95  1  0
 94 93  1  0
 96 98  1  6
 96 97  1  0
 96 99  1  0
100101  1  0
101 53  1  0
M  ISO  4  16 100  17 100  58 101  59 101
M  END
>  <TORSDO>  (77) 
F 24

>  <SCORE>  (77) 
-9.181

>  <name>  (77) 
76

>  <ligand_id>  (77) 
76

>  <original_smiles>  (77) 
[H]c1c([H])c([H])c2c(c1[H])C([H])([H])C([H])([H])C([H])([H])C2([H])N([H])C(=O)C1([H])N(C(=O)C([H])(N([H])C(=O)C([H])(N([H])C([H])([H])[H])C([H])([H])[H])C(C([H])([H])[H])(C([H])([H])[H])C([H])([H])[H])C([H])([H])c2c([H])c(OC([H])([H])C([H])([H])[N+]([H])([H])C([H])(C([H])([H])C([H])([H])[H])C3([H])C([H])([H])C([H])([H])C([H])([H])C34N(C([H])([H])C([H])([H])C(=O)N3C([H])([H])C([H])([H])C([H])([H])C([H])(n5nc(-c6c([H])c([H])c(Oc7c([H])c([H])c(F)c([H])c7F)c([H])c6[H])c(C(=O)N([H])[H])c5N([H])[H])C3([H])[H])C(=O)C([H])(C([H])([H])C([H])([H])[H])[N+]4([H])[H])c([H])c([H])c2C1([H])[H]

>  <smiles>  (77) 
[H]c1c([H])c([H])c2c(c1[H])C([H])([H])C([H])([H])C([H])([H])C2([H])N([H])C(=O)C1([H])N(C(=O)C([H])(N([H])C(=O)C([H])(N([H])C([H])([H])[H])C([H])([H])[H])C(C([H])([H])[H])(C([H])([H])[H])C([H])([H])[H])C([H])([H])c2c([H])c(OC([H])([H])C([H])([H])[N+]([H])([H])C([H])(C([H])([H])C([H])([H])[H])C3([H])C([H])([H])C([H])([H])C([H])([H])C34N(C([H])([H])C([H])([H])C(=O)N3C([H])([H])C([H])([H])C([H])([H])C([H])(n5nc(-c6c([H])c([H])c(Oc7c([H])c([H])c(F)c([H])c7F)c([H])c6[H])c(C(=O)N([H])[H])c5N([H])[H])C3([H])[H])C(=O)C([H])(C([H])([H])C([H])([H])[H])[N+]4([H])[H])c([H])c([H])c2C1([H])[H]

$$$$
77:0:0
     RDKit          3D

 95104  0  0  1  0  0  0  0  0999 V2000
  -29.3250  -21.1300   20.6630 C   0  0  0  0  0  3  0  0  0  0  0  0
  -29.2570  -19.7810   19.9470 N   0  0  0  0  0  4  0  0  0  0  0  0
  -28.3940  -19.7630   19.4260 H   0  0  0  0  0  0  0  0  0  0  0  0
  -29.9990  -19.7400   19.2680 H   0  0  0  0  0  0  0  0  0  0  0  0
  -29.2810  -18.5010   20.7790 C   0  0  0  0  0  3  0  0  0  0  0  0
  -29.7100  -17.1430   20.0550 C   0  0  0  0  0  3  0  0  0  0  0  0
  -29.6000  -15.7820   20.8880 C   0  0  0  0  0  2  0  0  0  0  0  0
  -30.3690  -14.5030   20.3550 C   0  0  0  0  0  0  0  0  0  0  0  0
  -30.2150  -12.2290   19.3500 C   0  0  0  0  0  2  0  0  0  0  0  0
  -29.2410  -12.2810   18.1510 C   0  0  0  0  0  2  0  0  0  0  0  0
  -27.7850  -12.0770   18.6180 C   0  0  0  0  0  2  0  0  0  0  0  0
  -27.4220  -12.9630   19.8390 C   0  0  0  0  0  3  0  0  0  0  0  0
  -28.5090  -12.8850   20.9330 C   0  0  0  0  0  2  0  0  0  0  0  0
  -29.7910  -13.2580   20.3190 N   0  0  0  0  0  0  0  0  0  0  0  0
  -31.4940  -14.6740   19.8750 O   0  0  0  0  0  0  0  0  0  0  0  0
  -25.0470  -13.4970   20.6600 C   0  0  0  0  0  0  0  0  0  0  0  0
  -24.0060  -12.6920   21.0460 C   0  0  0  0  0  0  0  0  0  0  0  0
  -24.4920  -11.3530   20.9590 C   0  0  0  0  0  0  0  0  0  0  0  0
  -26.0960  -12.6420   20.3640 N   0  0  0  0  0  0  0  0  0  0  0  0
  -25.7710  -11.3460   20.6030 N   0  0  0  0  0  0  0  0  0  0  0  0
  -23.7960  -10.0710   21.1380 C   0  0  0  0  0  0  0  0  0  0  0  0
  -24.2700   -9.0940   22.0400 C   0  0  0  0  0  3  0  0  0  0  0  0
  -23.5750   -7.8770   22.2080 C   0  0  0  0  0  3  0  0  0  0  0  0
  -22.3910   -7.6290   21.4740 C   0  0  0  0  0  0  0  0  0  0  0  0
  -21.9350   -8.5960   20.5600 C   0  0  0  0  0  3  0  0  0  0  0  0
  -22.6320   -9.8040   20.3900 C   0  0  0  0  0  3  0  0  0  0  0  0
  -21.6630   -6.4660   21.5540 O   0  0  0  0  0  0  0  0  0  0  0  0
  -21.6510   -5.7020   22.6930 C   0  0  0  0  0  0  0  0  0  0  0  0
  -21.2390   -6.2250   23.9380 C   0  0  0  0  0  3  0  0  0  0  0  0
  -21.1750   -5.3850   25.0680 C   0  0  0  0  0  3  0  0  0  0  0  0
  -21.5140   -4.0240   24.9540 C   0  0  0  0  0  0  0  0  0  0  0  0
  -21.9190   -3.4990   23.7140 C   0  0  0  0  0  3  0  0  0  0  0  0
  -21.9840   -4.3360   22.5870 C   0  0  0  0  0  0  0  0  0  0  0  0
  -22.3550   -3.8220   21.3900 F   0  0  0  0  0  0  0  0  0  0  0  0
  -21.4440   -3.2150   26.0370 F   0  0  0  0  0  0  0  0  0  0  0  0
  -22.6120  -13.1350   21.3830 C   0  0  0  0  0  0  0  0  0  0  0  0
  -21.9330  -12.4050   22.2620 N   0  0  0  0  0  0  0  0  0  0  0  0
  -22.1330  -14.1610   20.9030 O   0  0  0  0  0  0  0  0  0  0  0  0
  -22.3340  -11.5740   22.6710 H   0  0  0  0  0  0  0  0  0  0  0  0
  -21.0000  -12.6810   22.5300 H   0  0  0  0  0  0  0  0  0  0  0  0
  -25.1810  -14.8740   20.5160 N   0  0  0  0  0  0  0  0  0  0  0  0
  -24.4100  -15.5160   20.6720 H   0  0  0  0  0  0  0  0  0  0  0  0
  -26.0130  -15.3320   20.1670 H   0  0  0  0  0  0  0  0  0  0  0  0
  -28.9430  -22.4250   19.7900 C   0  0  0  0  0  2  0  0  0  0  0  0
  -28.7480  -23.8410   20.5160 C   0  0  0  0  0  3  0  0  0  0  0  0
  -28.5400  -25.1310   19.6080 C   0  0  0  0  0  3  0  0  0  0  0  0
  -28.3840  -26.4540   20.2480 O   0  0  0  0  0  0  0  0  0  0  0  0
  -24.6530  -31.7850   23.2950 C   0  0  0  0  0  0  0  0  0  0  0  0
  -27.2220  -27.2380   20.1930 C   0  0  0  0  0  0  0  0  0  0  0  0
  -23.4260  -30.4190   21.6410 C   0  0  0  0  0  3  0  0  0  0  0  0
  -24.8540  -28.8520   20.2040 C   0  0  0  0  0  0  0  0  0  0  0  0
  -25.9660  -30.7070   21.4590 C   0  0  0  0  0  2  0  0  0  0  0  0
  -26.0250  -29.3360   20.7970 C   0  0  0  0  0  0  0  0  0  0  0  0
  -27.2040  -28.5370   20.7840 C   0  0  0  0  0  3  0  0  0  0  0  0
  -26.0210  -26.7890   19.5980 C   0  0  0  0  0  3  0  0  0  0  0  0
  -24.8540  -27.5820   19.6030 C   0  0  0  0  0  3  0  0  0  0  0  0
  -23.6220  -29.7330   20.2610 C   0  0  0  0  0  2  0  0  0  0  0  0
  -24.7000  -30.9860   22.1890 N   0  0  0  0  0  0  0  0  0  0  0  0
  -23.5770  -32.0760   23.8360 O   0  0  0  0  0  0  0  0  0  0  0  0
  -22.7480  -29.4110   22.5990 C   0  0  0  0  0  0  0  0  0  0  0  0
  -21.4320  -29.2070   22.4270 N   0  0  0  0  0  0  0  0  0  0  0  0
  -23.4080  -28.8080   23.4500 O   0  0  0  0  0  0  0  0  0  0  0  0
  -20.9610  -29.7410   21.7110 H   0  0  0  0  0  0  0  0  0  0  0  0
  -18.0760  -27.9080   22.7800 C   0  0  0  0  0  0  0  0  0  0  0  0
  -20.6050  -28.2660   23.1830 C   0  0  0  0  0  3  0  0  0  0  0  0
  -20.7860  -26.8220   22.6600 C   0  0  0  0  0  2  0  0  0  0  0  0
  -19.7560  -26.4300   21.5970 C   0  0  0  0  0  2  0  0  0  0  0  0
  -18.3340  -26.5450   22.1600 C   0  0  0  0  0  2  0  0  0  0  0  0
  -19.1430  -28.7210   23.2440 C   0  0  0  0  0  0  0  0  0  0  0  0
  -18.8540  -29.9950   23.7800 C   0  0  0  0  0  3  0  0  0  0  0  0
  -17.5270  -30.4570   23.8570 C   0  0  0  0  0  3  0  0  0  0  0  0
  -16.4720  -29.6430   23.4110 C   0  0  0  0  0  3  0  0  0  0  0  0
  -16.7460  -28.3690   22.8790 C   0  0  0  0  0  3  0  0  0  0  0  0
  -25.9480  -32.3890   23.9210 C   0  0  0  0  0  3  0  0  0  0  0  0
  -26.4260  -31.6250   25.2170 C   0  0  1  0  0  0  0  0  0  0  0  0
  -25.3110  -31.4310   26.2720 C   0  0  0  0  0  1  0  0  0  0  0  0
  -26.9810  -30.2270   24.8560 C   0  0  0  0  0  1  0  0  0  0  0  0
  -27.5890  -32.4020   25.8800 C   0  0  0  0  0  1  0  0  0  0  0  0
  -25.6760  -33.8020   24.2230 N   0  0  0  0  0  0  0  0  0  0  0  0
  -26.0620  -34.8330   23.4610 C   0  0  0  0  0  0  0  0  0  0  0  0
  -26.7520  -34.6940   22.4470 O   0  0  0  0  0  0  0  0  0  0  0  0
  -25.0570  -33.9840   24.9990 H   0  0  0  0  0  0  0  0  0  0  0  0
  -24.3990  -36.6780   23.0490 C   0  0  0  0  0  1  0  0  0  0  0  0
  -25.6100  -36.2440   23.8900 C   0  0  0  0  0  3  0  0  0  0  0  0
  -27.7560  -37.0690   24.7480 C   0  0  0  0  0  1  0  0  0  0  0  0
  -26.6770  -37.2620   23.7830 N   0  0  0  0  0  0  0  0  0  0  0  0
  -26.2990  -38.1970   23.9120 H   0  0  0  0  0  0  0  0  0  0  0  0
  -30.6900  -21.3250   21.3850 C   0  0  0  0  0  2  0  0  0  0  0  0
  -31.9400  -21.2140   20.4790 C   0  0  0  0  0  2  0  0  0  0  0  0
  -35.9910  -21.5930   22.4210 C   0  0  0  0  0  2  0  0  0  0  0  0
  -35.2240  -20.2750   22.6290 C   0  0  0  0  0  2  0  0  0  0  0  0
  -35.8220  -21.9330   20.9290 C   0  0  0  0  0  2  0  0  0  0  0  0
  -34.1660  -20.2380   21.5500 C   0  0  0  0  0  3  0  0  0  0  0  0
  -34.5570  -21.2280   20.4950 C   0  0  0  0  0  3  0  0  0  0  0  0
  -33.2450  -21.4030   21.2330 C   0  0  0  0  0  3  0  0  0  0  0  0
  1 44  1  0
  1 88  1  0
  2  1  1  0
  2  5  1  0
  3  2  1  0
  4  2  1  0
  6  5  2  0
  6  7  1  0
  8  7  1  0
  9 14  1  0
 10 11  1  0
 10  9  1  0
 12 11  1  0
 12 19  1  0
 12 13  1  0
 14  8  1  0
 14 13  1  0
 15  8  2  0
 16 17  2  0
 17 36  1  0
 18 17  1  0
 18 21  1  0
 19 20  1  0
 19 16  1  0
 20 18  2  0
 21 22  1  0
 22 23  2  0
 24 27  1  0
 24 23  1  0
 25 24  2  0
 26 25  1  0
 26 21  2  0
 27 28  1  0
 28 29  1  0
 29 30  2  0
 31 30  1  0
 31 35  1  0
 32 31  2  0
 33 28  2  0
 33 32  1  0
 34 33  1  0
 36 37  1  0
 37 40  1  0
 37 39  1  0
 38 36  2  0
 41 16  1  0
 41 42  1  0
 43 41  1  0
 44 45  1  0
 46 47  1  0
 46 45  2  0
 48 59  2  0
 49 47  1  0
 49 54  1  0
 50 58  1  0
 50 60  1  0
 51 57  1  0
 51 53  1  0
 52 58  1  0
 53 52  1  0
 54 53  2  0
 55 56  1  0
 55 49  2  0
 56 51  2  0
 57 50  1  0
 58 48  1  0
 60 62  2  0
 61 60  1  0
 63 61  1  0
 64 73  2  0
 64 69  1  0
 65 61  1  0
 65 69  1  0
 66 65  1  0
 67 68  1  0
 67 66  1  0
 68 64  1  0
 69 70  2  0
 70 71  1  0
 72 71  2  0
 73 72  1  0
 74 48  1  0
 74 79  1  0
 74 75  1  0
 75 78  1  1
 75 76  1  0
 77 75  1  0
 79 82  1  0
 80 84  1  0
 80 79  1  0
 81 80  2  0
 84 83  1  0
 86 84  1  0
 86 87  1  0
 86 85  1  0
 89 88  1  0
 90 91  1  0
 92 90  1  0
 93 91  1  0
 94 92  1  0
 94 95  1  0
 94 93  1  0
 95 89  1  0
 95 93  1  0
M  ISO  4   7 100   8 100  46 101  47 101
M  END
>  <TORSDO>  (78) 
F 26

>  <SCORE>  (78) 
-11.533

>  <name>  (78) 
77

>  <ligand_id>  (78) 
77

>  <original_smiles>  (78) 
[H]c1c([H])c([H])c2c(c1[H])C([H])([H])C([H])([H])C([H])([H])C2([H])N([H])C(=O)C1([H])N(C(=O)C([H])(N([H])C(=O)C([H])(N([H])C([H])([H])[H])C([H])([H])[H])C(C([H])([H])[H])(C([H])([H])[H])C([H])([H])[H])C([H])([H])c2c([H])c(OC([H])([H])C([H])([H])C([H])([H])C([H])(C([H])([H])C([H])([H])C3([H])C4([H])C([H])([H])C([H])([H])C([H])([H])C43[H])[N+]([H])([H])C([H])([H])C([H])([H])C([H])([H])C(=O)N3C([H])([H])C([H])([H])C([H])([H])C([H])(n4nc(-c5c([H])c([H])c(Oc6c([H])c([H])c(F)c([H])c6F)c([H])c5[H])c(C(=O)N([H])[H])c4N([H])[H])C3([H])[H])c([H])c([H])c2C1([H])[H]

>  <smiles>  (78) 
[H]c1c([H])c([H])c2c(c1[H])C([H])([H])C([H])([H])C([H])([H])C2([H])N([H])C(=O)C1([H])N(C(=O)C([H])(N([H])C(=O)C([H])(N([H])C([H])([H])[H])C([H])([H])[H])C(C([H])([H])[H])(C([H])([H])[H])C([H])([H])[H])C([H])([H])c2c([H])c(OC([H])([H])C([H])([H])C([H])([H])C([H])(C([H])([H])C([H])([H])C3([H])C4([H])C([H])([H])C([H])([H])C([H])([H])C43[H])[N+]([H])([H])C([H])([H])C([H])([H])C([H])([H])C(=O)N3C([H])([H])C([H])([H])C([H])([H])C([H])(n4nc(-c5c([H])c([H])c(Oc6c([H])c([H])c(F)c([H])c6F)c([H])c5[H])c(C(=O)N([H])[H])c4N([H])[H])C3([H])[H])c([H])c([H])c2C1([H])[H]

$$$$
78:0:0
     RDKit          3D

 92100  0  0  1  0  0  0  0  0999 V2000
  -29.3690  -22.1360   19.9180 C   0  0  0  0  0  3  0  0  0  0  0  0
  -27.9890  -20.7450   21.5200 C   0  0  0  0  0  1  0  0  0  0  0  0
  -29.1890  -20.7390   20.6500 N   0  0  1  0  0  4  0  0  0  0  0  0
  -29.9530  -20.7220   21.3080 H   0  0  0  0  0  0  0  0  0  0  0  0
  -29.2930  -19.3500   19.8940 C   0  0  0  0  0  2  0  0  0  0  0  0
  -30.0510  -17.9910   20.5290 C   0  0  0  0  0  2  0  0  0  0  0  0
  -29.6490  -16.4080   20.1500 C   0  0  0  0  0  2  0  0  0  0  0  0
  -30.6100  -15.0590   20.0700 C   0  0  0  0  0  0  0  0  0  0  0  0
  -30.5290  -12.7260   19.1020 C   0  0  0  0  0  2  0  0  0  0  0  0
  -29.5440  -12.7340   17.9050 C   0  0  0  0  0  2  0  0  0  0  0  0
  -28.0930  -12.5240   18.3810 C   0  0  0  0  0  2  0  0  0  0  0  0
  -27.7330  -13.4160   19.5970 C   0  0  0  0  0  3  0  0  0  0  0  0
  -28.8260  -13.3580   20.6830 C   0  0  0  0  0  2  0  0  0  0  0  0
  -30.0870  -13.7730   20.0620 N   0  0  0  0  0  0  0  0  0  0  0  0
  -31.8040  -15.1830   19.7730 O   0  0  0  0  0  0  0  0  0  0  0  0
  -25.3730  -13.9900   20.4110 C   0  0  0  0  0  0  0  0  0  0  0  0
  -24.3210  -13.2080   20.8090 C   0  0  0  0  0  0  0  0  0  0  0  0
  -24.7870  -11.8600   20.7530 C   0  0  0  0  0  0  0  0  0  0  0  0
  -26.4100  -13.1140   20.1320 N   0  0  0  0  0  0  0  0  0  0  0  0
  -26.0680  -11.8280   20.4030 N   0  0  0  0  0  0  0  0  0  0  0  0
  -24.0700  -10.5940   20.9570 C   0  0  0  0  0  0  0  0  0  0  0  0
  -24.4910   -9.6530   21.9230 C   0  0  0  0  0  3  0  0  0  0  0  0
  -23.7730   -8.4520   22.1120 C   0  0  0  0  0  3  0  0  0  0  0  0
  -22.6200   -8.1860   21.3350 C   0  0  0  0  0  0  0  0  0  0  0  0
  -22.2210   -9.1150   20.3580 C   0  0  0  0  0  3  0  0  0  0  0  0
  -22.9400  -10.3060   20.1680 C   0  0  0  0  0  3  0  0  0  0  0  0
  -21.8730   -7.0380   21.4330 O   0  0  0  0  0  0  0  0  0  0  0  0
  -21.7650   -6.3470   22.6140 C   0  0  0  0  0  0  0  0  0  0  0  0
  -21.2120   -6.9360   23.7730 C   0  0  0  0  0  3  0  0  0  0  0  0
  -21.0570   -6.1710   24.9450 C   0  0  0  0  0  3  0  0  0  0  0  0
  -21.4430   -4.8170   24.9600 C   0  0  0  0  0  0  0  0  0  0  0  0
  -21.9880   -4.2270   23.8060 C   0  0  0  0  0  3  0  0  0  0  0  0
  -22.1450   -4.9890   22.6340 C   0  0  0  0  0  0  0  0  0  0  0  0
  -22.6510   -4.4110   21.5190 F   0  0  0  0  0  0  0  0  0  0  0  0
  -21.2860   -4.0770   26.0840 F   0  0  0  0  0  0  0  0  0  0  0  0
  -22.9310  -13.6790   21.1280 C   0  0  0  0  0  0  0  0  0  0  0  0
  -22.2290  -12.9690   22.0040 N   0  0  0  0  0  0  0  0  0  0  0  0
  -22.4790  -14.7100   20.6360 O   0  0  0  0  0  0  0  0  0  0  0  0
  -22.6090  -12.1320   22.4240 H   0  0  0  0  0  0  0  0  0  0  0  0
  -21.2990  -13.2700   22.2620 H   0  0  0  0  0  0  0  0  0  0  0  0
  -25.5300  -15.3630   20.2380 N   0  0  0  0  0  0  0  0  0  0  0  0
  -24.7720  -16.0230   20.3710 H   0  0  0  0  0  0  0  0  0  0  0  0
  -26.3690  -15.7950   19.8730 H   0  0  0  0  0  0  0  0  0  0  0  0
  -30.8760  -22.5000   19.9870 C   0  0  0  0  0  2  0  0  0  0  0  0
  -33.2420  -21.0120   17.4070 C   0  0  0  0  0  2  0  0  0  0  0  0
  -34.2040  -21.5440   18.4730 C   0  0  0  0  0  2  0  0  0  0  0  0
  -31.8690  -21.5590   17.7950 C   0  0  0  0  0  2  0  0  0  0  0  0
  -33.3410  -21.8920   19.6950 C   0  0  0  0  0  2  0  0  0  0  0  0
  -31.8890  -21.5430   19.3270 C   0  0  0  0  0  3  0  0  0  0  0  0
  -28.5850  -23.5380   20.4410 C   0  0  0  0  0  2  0  0  0  0  0  0
  -28.5290  -24.9860   19.6080 C   0  0  0  0  0  2  0  0  0  0  0  0
  -28.4120  -26.4090   20.1860 O   0  0  0  0  0  0  0  0  0  0  0  0
  -24.6510  -31.9050   23.2030 C   0  0  0  0  0  0  0  0  0  0  0  0
  -27.2980  -27.3040   20.0940 C   0  0  0  0  0  0  0  0  0  0  0  0
  -23.4650  -30.5100   21.5490 C   0  0  0  0  0  3  0  0  0  0  0  0
  -24.9310  -28.9800   20.0980 C   0  0  0  0  0  0  0  0  0  0  0  0
  -26.0100  -30.8220   21.3840 C   0  0  0  0  0  2  0  0  0  0  0  0
  -26.1010  -29.4460   20.7090 C   0  0  0  0  0  0  0  0  0  0  0  0
  -27.2780  -28.6190   20.6980 C   0  0  0  0  0  3  0  0  0  0  0  0
  -26.0990  -26.9200   19.4520 C   0  0  0  0  0  3  0  0  0  0  0  0
  -24.9400  -27.7290   19.4570 C   0  0  0  0  0  3  0  0  0  0  0  0
  -23.6900  -29.8540   20.1610 C   0  0  0  0  0  2  0  0  0  0  0  0
  -24.7260  -31.0990   22.1000 N   0  0  0  0  0  0  0  0  0  0  0  0
  -23.5620  -32.1660   23.7390 O   0  0  0  0  0  0  0  0  0  0  0  0
  -22.8100  -29.4780   22.4990 C   0  0  0  0  0  0  0  0  0  0  0  0
  -21.4930  -29.2540   22.3440 N   0  0  0  0  0  0  0  0  0  0  0  0
  -23.4880  -28.8830   23.3410 O   0  0  0  0  0  0  0  0  0  0  0  0
  -21.0020  -29.7810   21.6330 H   0  0  0  0  0  0  0  0  0  0  0  0
  -18.1550  -27.9140   22.7620 C   0  0  0  0  0  0  0  0  0  0  0  0
  -20.6900  -28.2930   23.1030 C   0  0  0  0  0  3  0  0  0  0  0  0
  -20.8730  -26.8610   22.5510 C   0  0  0  0  0  2  0  0  0  0  0  0
  -19.8190  -26.4770   21.5080 C   0  0  0  0  0  2  0  0  0  0  0  0
  -18.4110  -26.5680   22.1060 C   0  0  0  0  0  2  0  0  0  0  0  0
  -19.2250  -28.7320   23.2140 C   0  0  0  0  0  0  0  0  0  0  0  0
  -18.9340  -29.9890   23.7850 C   0  0  0  0  0  3  0  0  0  0  0  0
  -17.6040  -30.4340   23.9060 C   0  0  0  0  0  3  0  0  0  0  0  0
  -16.5460  -29.6150   23.4720 C   0  0  0  0  0  3  0  0  0  0  0  0
  -16.8220  -28.3580   22.9080 C   0  0  0  0  0  3  0  0  0  0  0  0
  -25.9250  -32.5510   23.8320 C   0  0  0  0  0  3  0  0  0  0  0  0
  -25.5970  -33.9440   24.1630 N   0  0  0  0  0  0  0  0  0  0  0  0
  -25.9190  -35.0050   23.4080 C   0  0  0  0  0  0  0  0  0  0  0  0
  -26.5930  -34.9100   22.3780 O   0  0  0  0  0  0  0  0  0  0  0  0
  -24.9980  -34.0880   24.9620 H   0  0  0  0  0  0  0  0  0  0  0  0
  -24.1830  -36.7930   23.0510 C   0  0  0  0  0  1  0  0  0  0  0  0
  -25.4200  -36.3870   23.8700 C   0  0  0  0  0  3  0  0  0  0  0  0
  -27.5320  -37.2890   24.7410 C   0  0  0  0  0  1  0  0  0  0  0  0
  -26.4470  -37.4490   23.7750 N   0  0  0  0  0  0  0  0  0  0  0  0
  -26.0300  -38.3660   23.9180 H   0  0  0  0  0  0  0  0  0  0  0  0
  -26.4440  -31.7870   25.1140 C   0  0  1  0  0  0  0  0  0  0  0  0
  -25.3500  -31.5240   26.1750 C   0  0  0  0  0  1  0  0  0  0  0  0
  -27.0550  -30.4180   24.7310 C   0  0  0  0  0  1  0  0  0  0  0  0
  -27.5780  -32.5980   25.7820 C   0  0  0  0  0  1  0  0  0  0  0  0
  1 44  1  0
  1 50  1  0
  1  3  1  0
  3  4  1  1
  3  2  1  0
  5  6  1  0
  5  3  1  0
  7  6  1  0
  8  7  1  0
  9 14  1  0
 10 11  1  0
 10  9  1  0
 12 11  1  0
 12 19  1  0
 12 13  1  0
 14  8  1  0
 14 13  1  0
 15  8  2  0
 16 17  2  0
 17 36  1  0
 18 17  1  0
 18 21  1  0
 19 20  1  0
 19 16  1  0
 20 18  2  0
 21 22  1  0
 22 23  2  0
 24 27  1  0
 24 23  1  0
 25 24  2  0
 26 25  1  0
 26 21  2  0
 27 28  1  0
 28 33  2  0
 28 29  1  0
 29 30  2  0
 30 31  1  0
 31 35  1  0
 32 31  2  0
 33 32  1  0
 34 33  1  0
 36 37  1  0
 37 40  1  0
 37 39  1  0
 38 36  2  0
 41 42  1  0
 41 16  1  0
 43 41  1  0
 45 47  1  0
 45 46  1  0
 46 48  1  0
 47 49  1  0
 49 48  1  0
 49 44  1  0
 51 52  1  0
 51 50  1  0
 53 64  2  0
 54 52  1  0
 54 59  1  0
 55 63  1  0
 55 65  1  0
 56 62  1  0
 56 58  1  0
 57 63  1  0
 58 57  1  0
 59 58  2  0
 60 61  1  0
 60 54  2  0
 61 56  2  0
 62 55  1  0
 63 53  1  0
 65 67  2  0
 66 65  1  0
 68 66  1  0
 69 78  2  0
 69 74  1  0
 70 66  1  0
 70 74  1  0
 71 70  1  0
 72 73  1  0
 72 71  1  0
 73 69  1  0
 74 75  2  0
 75 76  1  0
 77 76  2  0
 78 77  1  0
 79 53  1  0
 79 80  1  0
 79 89  1  0
 80 83  1  0
 81 85  1  0
 81 80  1  0
 82 81  2  0
 85 84  1  0
 87 85  1  0
 87 88  1  0
 87 86  1  0
 89 92  1  1
 89 90  1  0
 91 89  1  0
M  ISO  4   7 100   8 100  51 101  52 101
M  END
>  <TORSDO>  (79) 
F 24

>  <SCORE>  (79) 
-11.687

>  <name>  (79) 
78

>  <ligand_id>  (79) 
78

>  <original_smiles>  (79) 
[H]c1c([H])c([H])c2c(c1[H])C([H])([H])C([H])([H])C([H])([H])C2([H])N([H])C(=O)C1([H])N(C(=O)C([H])(N([H])C(=O)C([H])(N([H])C([H])([H])[H])C([H])([H])[H])C(C([H])([H])[H])(C([H])([H])[H])C([H])([H])[H])C([H])([H])c2c([H])c(OC([H])([H])C([H])([H])C([H])(C([H])([H])C3([H])C([H])([H])C([H])([H])C([H])([H])C3([H])[H])[N+]([H])(C([H])([H])[H])C([H])([H])C([H])([H])C([H])([H])C(=O)N3C([H])([H])C([H])([H])C([H])([H])C([H])(n4nc(-c5c([H])c([H])c(Oc6c([H])c([H])c(F)c([H])c6F)c([H])c5[H])c(C(=O)N([H])[H])c4N([H])[H])C3([H])[H])c([H])c([H])c2C1([H])[H]

>  <smiles>  (79) 
[H]c1c([H])c([H])c2c(c1[H])C([H])([H])C([H])([H])C([H])([H])C2([H])N([H])C(=O)C1([H])N(C(=O)C([H])(N([H])C(=O)C([H])(N([H])C([H])([H])[H])C([H])([H])[H])C(C([H])([H])[H])(C([H])([H])[H])C([H])([H])[H])C([H])([H])c2c([H])c(OC([H])([H])C([H])([H])C([H])(C([H])([H])C3([H])C([H])([H])C([H])([H])C([H])([H])C3([H])[H])[N+]([H])(C([H])([H])[H])C([H])([H])C([H])([H])C([H])([H])C(=O)N3C([H])([H])C([H])([H])C([H])([H])C([H])(n4nc(-c5c([H])c([H])c(Oc6c([H])c([H])c(F)c([H])c6F)c([H])c5[H])c(C(=O)N([H])[H])c4N([H])[H])C3([H])[H])c([H])c([H])c2C1([H])[H]

$$$$
79:0:0
     RDKit          3D

 94102  0  0  1  0  0  0  0  0999 V2000
  -30.5930  -17.3250   19.6830 C   0  0  0  0  0  0  0  0  0  0  0  0
  -28.7780  -16.4080   20.8890 C   0  0  0  0  0  2  0  0  0  0  0  0
  -29.8720  -15.9500   19.9020 C   0  0  0  0  0  3  0  0  0  0  0  0
  -28.5370  -17.9210   20.5710 C   0  0  0  0  0  3  0  0  0  0  0  0
  -29.8150  -18.3970   20.0350 N   0  0  0  0  0  0  0  0  0  0  0  0
  -31.7080  -17.4420   19.1660 O   0  0  0  0  0  0  0  0  0  0  0  0
  -30.7810  -14.6620   20.2220 C   0  0  0  0  0  0  0  0  0  0  0  0
  -30.6590  -12.2680   19.5810 C   0  0  0  0  0  2  0  0  0  0  0  0
  -29.7420  -12.1620   18.3390 C   0  0  0  0  0  2  0  0  0  0  0  0
  -28.2610  -12.0300   18.7460 C   0  0  0  0  0  2  0  0  0  0  0  0
  -27.8450  -13.0680   19.8170 C   0  0  0  0  0  3  0  0  0  0  0  0
  -28.8790  -13.1580   20.9600 C   0  0  0  0  0  2  0  0  0  0  0  0
  -30.2000  -13.4260   20.3730 N   0  0  0  0  0  0  0  0  0  0  0  0
  -32.0010  -14.7250   20.0430 O   0  0  0  0  0  0  0  0  0  0  0  0
  -25.4860  -13.7490   20.5600 C   0  0  0  0  0  0  0  0  0  0  0  0
  -24.4000  -13.0180   20.9380 C   0  0  0  0  0  0  0  0  0  0  0  0
  -24.8050  -11.6510   20.8940 C   0  0  0  0  0  0  0  0  0  0  0  0
  -26.4960  -12.8310   20.3170 N   0  0  0  0  0  0  0  0  0  0  0  0
  -26.0910  -11.5630   20.5770 N   0  0  0  0  0  0  0  0  0  0  0  0
  -24.0290  -10.4150   21.0610 C   0  0  0  0  0  0  0  0  0  0  0  0
  -24.4530   -9.3930   21.9360 C   0  0  0  0  0  3  0  0  0  0  0  0
  -23.6810   -8.2200   22.0990 C   0  0  0  0  0  3  0  0  0  0  0  0
  -22.4680   -8.0650   21.3860 C   0  0  0  0  0  0  0  0  0  0  0  0
  -22.0620   -9.0800   20.5010 C   0  0  0  0  0  3  0  0  0  0  0  0
  -22.8360  -10.2400   20.3320 C   0  0  0  0  0  3  0  0  0  0  0  0
  -21.6650   -6.9540   21.4620 O   0  0  0  0  0  0  0  0  0  0  0  0
  -21.6540   -6.1480   22.5730 C   0  0  0  0  0  0  0  0  0  0  0  0
  -21.3350   -6.6510   23.8540 C   0  0  0  0  0  3  0  0  0  0  0  0
  -21.2720   -5.7790   24.9600 C   0  0  0  0  0  3  0  0  0  0  0  0
  -21.5090   -4.4020   24.7840 C   0  0  0  0  0  0  0  0  0  0  0  0
  -21.8190   -3.8990   23.5060 C   0  0  0  0  0  3  0  0  0  0  0  0
  -21.8910   -4.7700   22.4050 C   0  0  0  0  0  0  0  0  0  0  0  0
  -22.1720   -4.2800   21.1720 F   0  0  0  0  0  0  0  0  0  0  0  0
  -21.4330   -3.5570   25.8370 F   0  0  0  0  0  0  0  0  0  0  0  0
  -23.0230  -13.5490   21.2150 C   0  0  0  0  0  0  0  0  0  0  0  0
  -22.2860  -12.8930   22.1030 N   0  0  0  0  0  0  0  0  0  0  0  0
  -22.6130  -14.5780   20.6790 O   0  0  0  0  0  0  0  0  0  0  0  0
  -22.6420  -12.0830   22.5880 H   0  0  0  0  0  0  0  0  0  0  0  0
  -21.3620  -13.2300   22.3280 H   0  0  0  0  0  0  0  0  0  0  0  0
  -25.6900  -15.1100   20.3590 N   0  0  0  0  0  0  0  0  0  0  0  0
  -24.8760  -15.7080   20.2640 H   0  0  0  0  0  0  0  0  0  0  0  0
  -26.4870  -15.4540   19.8440 H   0  0  0  0  0  0  0  0  0  0  0  0
  -27.4300  -18.1120   19.5000 C   0  0  0  0  0  2  0  0  0  0  0  0
  -24.9590  -18.1210   19.3790 C   0  0  0  0  0  0  0  0  0  0  0  0
  -23.6610  -17.6780   20.0380 C   0  0  0  0  0  1  0  0  0  0  0  0
  -26.0970  -17.8500   20.0320 N   0  0  0  0  0  0  0  0  0  0  0  0
  -24.9300  -18.6810   18.2820 O   0  0  0  0  0  0  0  0  0  0  0  0
  -26.0280  -17.3810   20.9250 H   0  0  0  0  0  0  0  0  0  0  0  0
  -30.1430  -19.8660   19.8160 C   0  0  0  0  0  3  0  0  0  0  0  0
  -29.2240  -21.0440   20.3990 C   0  0  0  0  0  3  0  0  0  0  0  0
  -29.4130  -22.5060   19.7820 C   0  0  0  0  0  2  0  0  0  0  0  0
  -28.8510  -23.7970   20.5460 C   0  0  0  0  0  2  0  0  0  0  0  0
  -28.3090  -25.0100   19.6630 C   0  0  0  0  0  2  0  0  0  0  0  0
  -28.2600  -26.3800   20.2320 O   0  0  0  0  0  0  0  0  0  0  0  0
  -24.4930  -31.7580   23.1950 C   0  0  0  0  0  0  0  0  0  0  0  0
  -27.1260  -27.2100   20.1330 C   0  0  0  0  0  0  0  0  0  0  0  0
  -23.3110  -30.4020   21.5040 C   0  0  0  0  0  3  0  0  0  0  0  0
  -24.7760  -28.8550   20.0870 C   0  0  0  0  0  0  0  0  0  0  0  0
  -25.8590  -30.6790   21.3980 C   0  0  0  0  0  2  0  0  0  0  0  0
  -25.9310  -29.3120   20.7330 C   0  0  0  0  0  0  0  0  0  0  0  0
  -27.1000  -28.4980   20.7550 C   0  0  0  0  0  3  0  0  0  0  0  0
  -25.9500  -26.8190   19.4490 C   0  0  0  0  0  3  0  0  0  0  0  0
  -24.7880  -27.6130   19.4380 C   0  0  0  0  0  3  0  0  0  0  0  0
  -23.5530  -29.7480   20.1180 C   0  0  0  0  0  2  0  0  0  0  0  0
  -24.5720  -30.9640   22.0890 N   0  0  0  0  0  0  0  0  0  0  0  0
  -23.4000  -32.0440   23.7040 O   0  0  0  0  0  0  0  0  0  0  0  0
  -22.6100  -29.3780   22.4280 C   0  0  0  0  0  0  0  0  0  0  0  0
  -21.2830  -29.2310   22.2720 N   0  0  0  0  0  0  0  0  0  0  0  0
  -23.2600  -28.7200   23.2460 O   0  0  0  0  0  0  0  0  0  0  0  0
  -20.8200  -29.8110   21.5880 H   0  0  0  0  0  0  0  0  0  0  0  0
  -17.8730  -28.1020   22.6810 C   0  0  0  0  0  0  0  0  0  0  0  0
  -20.4290  -28.3000   23.0100 C   0  0  0  0  0  3  0  0  0  0  0  0
  -20.5130  -26.8760   22.4110 C   0  0  0  0  0  2  0  0  0  0  0  0
  -19.4250  -26.5970   21.3690 C   0  0  0  0  0  2  0  0  0  0  0  0
  -18.0330  -26.7600   21.9870 C   0  0  0  0  0  2  0  0  0  0  0  0
  -18.9980  -28.8310   23.1480 C   0  0  0  0  0  0  0  0  0  0  0  0
  -18.7930  -30.0900   23.7560 C   0  0  0  0  0  3  0  0  0  0  0  0
  -17.4950  -30.6160   23.9040 C   0  0  0  0  0  3  0  0  0  0  0  0
  -16.3830  -29.8830   23.4520 C   0  0  0  0  0  3  0  0  0  0  0  0
  -16.5730  -28.6280   22.8460 C   0  0  0  0  0  3  0  0  0  0  0  0
  -25.7680  -32.3610   23.8580 C   0  0  0  0  0  3  0  0  0  0  0  0
  -25.4720  -33.7620   24.1910 N   0  0  0  0  0  0  0  0  0  0  0  0
  -25.8430  -34.8170   23.4540 C   0  0  0  0  0  0  0  0  0  0  0  0
  -26.5370  -34.7130   22.4390 O   0  0  0  0  0  0  0  0  0  0  0  0
  -24.8570  -33.9180   24.9760 H   0  0  0  0  0  0  0  0  0  0  0  0
  -24.1460  -36.6370   23.0840 C   0  0  0  0  0  1  0  0  0  0  0  0
  -25.3670  -36.2080   23.9130 C   0  0  0  0  0  3  0  0  0  0  0  0
  -27.5000  -37.0530   24.7890 C   0  0  0  0  0  1  0  0  0  0  0  0
  -26.4160  -37.2480   23.8310 N   0  0  0  0  0  0  0  0  0  0  0  0
  -26.0200  -38.1710   23.9890 H   0  0  0  0  0  0  0  0  0  0  0  0
  -26.2320  -31.5690   25.1400 C   0  0  1  0  0  0  0  0  0  0  0  0
  -25.1040  -31.3550   26.1760 C   0  0  0  0  0  1  0  0  0  0  0  0
  -26.7870  -30.1790   24.7530 C   0  0  0  0  0  1  0  0  0  0  0  0
  -27.3870  -32.3250   25.8360 C   0  0  0  0  0  1  0  0  0  0  0  0
  1  3  1  0
  1  5  1  0
  3  7  1  0
  3  2  1  0
  4 43  1  0
  4  2  1  0
  5  4  1  0
  6  1  2  0
  7 13  1  0
  8 13  1  0
  9 10  1  0
  9  8  1  0
 11 10  1  0
 11 18  1  0
 11 12  1  0
 13 12  1  0
 14  7  2  0
 15 16  2  0
 16 35  1  0
 17 16  1  0
 17 20  1  0
 18 15  1  0
 18 19  1  0
 19 17  2  0
 20 21  1  0
 21 22  2  0
 23 26  1  0
 23 22  1  0
 24 23  2  0
 25 24  1  0
 25 20  2  0
 26 27  1  0
 27 28  1  0
 28 29  2  0
 30 29  1  0
 30 34  1  0
 31 30  2  0
 32 27  2  0
 32 31  1  0
 33 32  1  0
 35 36  1  0
 36 39  1  0
 36 38  1  0
 37 35  2  0
 40 15  1  0
 41 40  1  0
 42 40  1  0
 43 46  1  0
 44 46  1  0
 44 45  1  0
 46 48  1  0
 47 44  2  0
 49  5  1  0
 49 50  2  0
 51 50  1  0
 51 52  1  0
 53 54  1  0
 53 52  1  0
 55 66  2  0
 56 54  1  0
 56 61  1  0
 57 65  1  0
 57 67  1  0
 58 64  1  0
 58 60  1  0
 59 65  1  0
 60 61  2  0
 60 59  1  0
 62 56  2  0
 63 62  1  0
 63 58  2  0
 64 57  1  0
 65 55  1  0
 67 69  2  0
 68 67  1  0
 70 68  1  0
 71 80  2  0
 71 76  1  0
 72 68  1  0
 72 76  1  0
 73 72  1  0
 74 75  1  0
 74 73  1  0
 75 71  1  0
 76 77  2  0
 77 78  1  0
 79 78  2  0
 80 79  1  0
 81 55  1  0
 81 82  1  0
 81 91  1  0
 82 85  1  0
 83 87  1  0
 83 82  1  0
 84 83  2  0
 87 86  1  0
 89 87  1  0
 89 90  1  0
 89 88  1  0
 91 94  1  1
 91 92  1  0
 93 91  1  0
M  ISO  4   3 100   7 100  53 101  54 101
M  END
>  <TORSDO>  (80) 
F 23

>  <SCORE>  (80) 
-10.092

>  <name>  (80) 
79

>  <ligand_id>  (80) 
79

>  <original_smiles>  (80) 
[H]c1c([H])c([H])c2c(c1[H])C([H])([H])C([H])([H])C([H])([H])C2([H])N([H])C(=O)C1([H])N(C(=O)C([H])(N([H])C(=O)C([H])(N([H])C([H])([H])[H])C([H])([H])[H])C(C([H])([H])[H])(C([H])([H])[H])C([H])([H])[H])C([H])([H])c2c([H])c(OC([H])([H])C([H])([H])C([H])([H])C([H])([H])C([H])([H])N3C(=O)C([H])(C(=O)N4C([H])([H])C([H])([H])C([H])([H])C([H])(n5nc(-c6c([H])c([H])c(Oc7c([H])c([H])c(F)c([H])c7F)c([H])c6[H])c(C(=O)N([H])[H])c5N([H])[H])C4([H])[H])C([H])([H])C3([H])C([H])([H])N([H])C(=O)C([H])([H])[H])c([H])c([H])c2C1([H])[H]

>  <smiles>  (80) 
[H]c1c([H])c([H])c2c(c1[H])C([H])([H])C([H])([H])C([H])([H])C2([H])N([H])C(=O)C1([H])N(C(=O)C([H])(N([H])C(=O)C([H])(N([H])C([H])([H])[H])C([H])([H])[H])C(C([H])([H])[H])(C([H])([H])[H])C([H])([H])[H])C([H])([H])c2c([H])c(OC([H])([H])C([H])([H])C([H])([H])C([H])([H])C([H])([H])N3C(=O)C([H])(C(=O)N4C([H])([H])C([H])([H])C([H])([H])C([H])(n5nc(-c6c([H])c([H])c(Oc7c([H])c([H])c(F)c([H])c7F)c([H])c6[H])c(C(=O)N([H])[H])c5N([H])[H])C4([H])[H])C([H])([H])C3([H])C([H])([H])N([H])C(=O)C([H])([H])[H])c([H])c([H])c2C1([H])[H]

$$$$
80:0:0
     RDKit          3D

 89 97  0  0  1  0  0  0  0  0999 V2000
  -28.3680  -21.1870   21.8460 C   0  0  0  0  0  1  0  0  0  0  0  0
  -28.5550  -21.3090   20.3240 C   0  0  0  0  0  3  0  0  0  0  0  0
  -31.7240  -19.5780   21.1240 C   0  0  0  0  0  2  0  0  0  0  0  0
  -31.8320  -19.7640   19.6040 C   0  0  0  0  0  2  0  0  0  0  0  0
  -30.6170  -18.5710   21.4950 C   0  0  0  0  0  2  0  0  0  0  0  0
  -30.5420  -20.3310   18.9790 C   0  0  0  0  0  2  0  0  0  0  0  0
  -29.5140  -18.4610   20.4200 C   0  0  0  0  0  3  0  0  0  0  0  0
  -29.3090  -19.9540   19.7200 N   0  0  1  0  0  4  0  0  0  0  0  0
  -28.6580  -19.7420   18.9760 H   0  0  0  0  0  0  0  0  0  0  0  0
  -29.6650  -16.8620   19.6420 C   0  0  0  0  0  2  0  0  0  0  0  0
  -30.5700  -15.3920   19.8880 C   0  0  0  0  0  0  0  0  0  0  0  0
  -30.5920  -12.9460   19.0750 C   0  0  0  0  0  2  0  0  0  0  0  0
  -29.6380  -12.7760   17.8660 C   0  0  0  0  0  2  0  0  0  0  0  0
  -28.1960  -12.5100   18.3470 C   0  0  0  0  0  2  0  0  0  0  0  0
  -27.7800  -13.4620   19.4980 C   0  0  0  0  0  3  0  0  0  0  0  0
  -28.8570  -13.5860   20.5870 C   0  0  0  0  0  2  0  0  0  0  0  0
  -30.0740  -14.0690   19.9270 N   0  0  0  0  0  0  0  0  0  0  0  0
  -31.7970  -15.4280   19.7010 O   0  0  0  0  0  0  0  0  0  0  0  0
  -25.4450  -14.0070   20.3640 C   0  0  0  0  0  0  0  0  0  0  0  0
  -24.4060  -13.2220   20.7750 C   0  0  0  0  0  0  0  0  0  0  0  0
  -24.8760  -11.8750   20.7050 C   0  0  0  0  0  0  0  0  0  0  0  0
  -26.4750  -13.1390   20.0560 N   0  0  0  0  0  0  0  0  0  0  0  0
  -26.1520  -11.8500   20.3330 N   0  0  0  0  0  0  0  0  0  0  0  0
  -24.1660  -10.6050   20.9080 C   0  0  0  0  0  0  0  0  0  0  0  0
  -24.5850   -9.6720   21.8810 C   0  0  0  0  0  3  0  0  0  0  0  0
  -23.8740   -8.4670   22.0690 C   0  0  0  0  0  3  0  0  0  0  0  0
  -22.7300   -8.1870   21.2840 C   0  0  0  0  0  0  0  0  0  0  0  0
  -22.3300   -9.1110   20.2990 C   0  0  0  0  0  3  0  0  0  0  0  0
  -23.0420  -10.3070   20.1110 C   0  0  0  0  0  3  0  0  0  0  0  0
  -21.9920   -7.0320   21.3780 O   0  0  0  0  0  0  0  0  0  0  0  0
  -21.8450   -6.3650   22.5690 C   0  0  0  0  0  0  0  0  0  0  0  0
  -21.2420   -6.9710   23.6920 C   0  0  0  0  0  3  0  0  0  0  0  0
  -21.0520   -6.2280   24.8750 C   0  0  0  0  0  3  0  0  0  0  0  0
  -21.4520   -4.8800   24.9310 C   0  0  0  0  0  0  0  0  0  0  0  0
  -22.0480   -4.2730   23.8110 C   0  0  0  0  0  3  0  0  0  0  0  0
  -22.2390   -5.0140   22.6320 C   0  0  0  0  0  0  0  0  0  0  0  0
  -22.7940   -4.4200   21.5480 F   0  0  0  0  0  0  0  0  0  0  0  0
  -21.2620   -4.1620   26.0620 F   0  0  0  0  0  0  0  0  0  0  0  0
  -23.0190  -13.6850   21.1110 C   0  0  0  0  0  0  0  0  0  0  0  0
  -22.3280  -12.9730   21.9910 N   0  0  0  0  0  0  0  0  0  0  0  0
  -22.5580  -14.7180   20.6240 O   0  0  0  0  0  0  0  0  0  0  0  0
  -22.7180  -12.1390   22.4100 H   0  0  0  0  0  0  0  0  0  0  0  0
  -21.3960  -13.2630   22.2500 H   0  0  0  0  0  0  0  0  0  0  0  0
  -25.6000  -15.3830   20.1990 N   0  0  0  0  0  0  0  0  0  0  0  0
  -24.8480  -16.0410   20.3690 H   0  0  0  0  0  0  0  0  0  0  0  0
  -26.4320  -15.8160   19.8210 H   0  0  0  0  0  0  0  0  0  0  0  0
  -28.8810  -23.0240   19.9720 C   0  0  0  0  0  3  0  0  0  0  0  0
  -27.9080  -24.4960   20.1620 C   0  0  0  0  0  3  0  0  0  0  0  0
  -28.2190  -26.0930   20.1300 O   0  0  0  0  0  0  0  0  0  0  0  0
  -24.6690  -31.9430   23.2220 C   0  0  0  0  0  0  0  0  0  0  0  0
  -27.1990  -27.1610   20.1180 C   0  0  0  0  0  0  0  0  0  0  0  0
  -23.4560  -30.5510   21.5970 C   0  0  0  0  0  3  0  0  0  0  0  0
  -24.8890  -28.9940   20.1250 C   0  0  0  0  0  0  0  0  0  0  0  0
  -26.0120  -30.8050   21.3970 C   0  0  0  0  0  2  0  0  0  0  0  0
  -26.0840  -29.4090   20.7280 C   0  0  0  0  0  0  0  0  0  0  0  0
  -27.2390  -28.5140   20.6990 C   0  0  0  0  0  3  0  0  0  0  0  0
  -25.9730  -26.8870   19.4720 C   0  0  0  0  0  3  0  0  0  0  0  0
  -24.8560  -27.7510   19.4750 C   0  0  0  0  0  3  0  0  0  0  0  0
  -23.6640  -29.8950   20.2050 C   0  0  0  0  0  2  0  0  0  0  0  0
  -24.7350  -31.1220   22.1260 N   0  0  0  0  0  0  0  0  0  0  0  0
  -23.5870  -32.2170   23.7670 O   0  0  0  0  0  0  0  0  0  0  0  0
  -22.7980  -29.5300   22.5620 C   0  0  0  0  0  0  0  0  0  0  0  0
  -21.4730  -29.3270   22.4380 N   0  0  0  0  0  0  0  0  0  0  0  0
  -23.4820  -28.9250   23.3910 O   0  0  0  0  0  0  0  0  0  0  0  0
  -20.9710  -29.8680   21.7470 H   0  0  0  0  0  0  0  0  0  0  0  0
  -18.1260  -28.0320   22.9440 C   0  0  0  0  0  0  0  0  0  0  0  0
  -20.6760  -28.3730   23.2140 C   0  0  0  0  0  3  0  0  0  0  0  0
  -20.8230  -26.9420   22.6490 C   0  0  0  0  0  2  0  0  0  0  0  0
  -19.7340  -26.5790   21.6340 C   0  0  0  0  0  2  0  0  0  0  0  0
  -18.3460  -26.6850   22.2740 C   0  0  0  0  0  2  0  0  0  0  0  0
  -19.2200  -28.8310   23.3710 C   0  0  0  0  0  0  0  0  0  0  0  0
  -18.9610  -30.0870   23.9590 C   0  0  0  0  0  3  0  0  0  0  0  0
  -17.6410  -30.5470   24.1250 C   0  0  0  0  0  3  0  0  0  0  0  0
  -16.5600  -29.7460   23.7130 C   0  0  0  0  0  3  0  0  0  0  0  0
  -16.8040  -28.4910   23.1270 C   0  0  0  0  0  3  0  0  0  0  0  0
  -25.9480  -32.5910   23.8330 C   0  0  0  0  0  3  0  0  0  0  0  0
  -26.4750  -31.8300   25.1110 C   0  0  1  0  0  0  0  0  0  0  0  0
  -25.3850  -31.5800   26.1800 C   0  0  0  0  0  1  0  0  0  0  0  0
  -27.0750  -30.4560   24.7290 C   0  0  0  0  0  1  0  0  0  0  0  0
  -27.6180  -32.6370   25.7690 C   0  0  0  0  0  1  0  0  0  0  0  0
  -25.6300  -33.9910   24.1660 N   0  0  0  0  0  0  0  0  0  0  0  0
  -25.9390  -35.0490   23.4040 C   0  0  0  0  0  0  0  0  0  0  0  0
  -26.5870  -34.9510   22.3590 O   0  0  0  0  0  0  0  0  0  0  0  0
  -25.0490  -34.1400   24.9770 H   0  0  0  0  0  0  0  0  0  0  0  0
  -24.1960  -36.8380   23.0900 C   0  0  0  0  0  1  0  0  0  0  0  0
  -25.4550  -36.4360   23.8740 C   0  0  0  0  0  3  0  0  0  0  0  0
  -27.5950  -37.3390   24.6720 C   0  0  0  0  0  1  0  0  0  0  0  0
  -26.4800  -37.4940   23.7420 N   0  0  0  0  0  0  0  0  0  0  0  0
  -26.0710  -38.4120   23.8900 H   0  0  0  0  0  0  0  0  0  0  0  0
  2  1  1  0
  3  5  1  0
  4  3  1  0
  6  4  1  0
  6  8  1  0
  7 10  1  0
  7  5  1  0
  8  2  1  0
  8  7  1  0
  8  9  1  6
 10 11  1  0
 11 17  1  0
 12 17  1  0
 13 14  1  0
 13 12  1  0
 15 14  1  0
 15 22  1  0
 15 16  1  0
 17 16  1  0
 18 11  2  0
 19 20  2  0
 20 39  1  0
 21 20  1  0
 21 24  1  0
 22 23  1  0
 22 19  1  0
 23 21  2  0
 24 25  1  0
 25 26  2  0
 27 30  1  0
 27 26  1  0
 28 27  2  0
 29 28  1  0
 29 24  2  0
 30 31  1  0
 31 36  2  0
 31 32  1  0
 32 33  2  0
 33 34  1  0
 34 38  1  0
 35 34  2  0
 36 35  1  0
 37 36  1  0
 39 40  1  0
 40 43  1  0
 40 42  1  0
 41 39  2  0
 44 19  1  0
 44 45  1  0
 46 44  1  0
 47 48  2  0
 47  2  1  0
 49 48  1  0
 50 61  2  0
 51 49  1  0
 51 56  1  0
 52 60  1  0
 52 62  1  0
 53 59  1  0
 53 55  1  0
 54 60  1  0
 55 54  1  0
 56 55  2  0
 57 58  1  0
 57 51  2  0
 58 53  2  0
 59 52  1  0
 60 50  1  0
 62 64  2  0
 63 62  1  0
 65 63  1  0
 66 75  2  0
 66 71  1  0
 67 63  1  0
 67 71  1  0
 68 67  1  0
 69 70  1  0
 69 68  1  0
 70 66  1  0
 71 72  2  0
 72 73  1  0
 74 73  2  0
 75 74  1  0
 76 50  1  0
 76 81  1  0
 76 77  1  0
 77 80  1  1
 77 78  1  0
 79 77  1  0
 81 84  1  0
 82 86  1  0
 82 81  1  0
 83 82  2  0
 86 85  1  0
 88 86  1  0
 88 89  1  0
 88 87  1  0
M  ISO  4  10 100  11 100  48 101  49 101
M  END
>  <TORSDO>  (81) 
F 20

>  <SCORE>  (81) 
-15.155

>  <name>  (81) 
80

>  <ligand_id>  (81) 
80

>  <original_smiles>  (81) 
[H]c1c([H])c([H])c2c(c1[H])C([H])([H])C([H])([H])C([H])([H])C2([H])N([H])C(=O)C1([H])N(C(=O)C([H])(N([H])C(=O)C([H])(N([H])C([H])([H])[H])C([H])([H])[H])C(C([H])([H])[H])(C([H])([H])[H])C([H])([H])[H])C([H])([H])c2c([H])c(OC([H])([H])C([H])([H])C([H])(C([H])([H])[H])[N+]3([H])C([H])([H])C([H])([H])C([H])([H])C([H])([H])C3([H])C([H])([H])C(=O)N3C([H])([H])C([H])([H])C([H])([H])C([H])(n4nc(-c5c([H])c([H])c(Oc6c([H])c([H])c(F)c([H])c6F)c([H])c5[H])c(C(=O)N([H])[H])c4N([H])[H])C3([H])[H])c([H])c([H])c2C1([H])[H]

>  <smiles>  (81) 
[H]c1c([H])c([H])c2c(c1[H])C([H])([H])C([H])([H])C([H])([H])C2([H])N([H])C(=O)C1([H])N(C(=O)C([H])(N([H])C(=O)C([H])(N([H])C([H])([H])[H])C([H])([H])[H])C(C([H])([H])[H])(C([H])([H])[H])C([H])([H])[H])C([H])([H])c2c([H])c(OC([H])([H])C([H])([H])C([H])(C([H])([H])[H])[N+]3([H])C([H])([H])C([H])([H])C([H])([H])C([H])([H])C3([H])C([H])([H])C(=O)N3C([H])([H])C([H])([H])C([H])([H])C([H])(n4nc(-c5c([H])c([H])c(Oc6c([H])c([H])c(F)c([H])c6F)c([H])c5[H])c(C(=O)N([H])[H])c4N([H])[H])C3([H])[H])c([H])c([H])c2C1([H])[H]

$$$$
81:0:0
     RDKit          3D

 93101  0  0  1  0  0  0  0  0999 V2000
  -27.0220  -23.2420   23.3070 C   0  0  0  0  0  2  0  0  0  0  0  0
  -28.1210  -22.2750   22.8440 C   0  0  0  0  0  2  0  0  0  0  0  0
  -26.5150  -23.9470   22.0460 C   0  0  0  0  0  2  0  0  0  0  0  0
  -28.1140  -22.3060   21.3040 C   0  0  0  0  0  3  0  0  0  0  0  0
  -27.5970  -23.7260   20.9770 C   0  0  0  0  0  3  0  0  0  0  0  0
  -29.4760  -21.9090   20.7020 C   0  0  0  0  0  0  0  0  0  0  0  0
  -29.9500  -20.7120   21.0780 N   0  0  0  0  0  0  0  0  0  0  0  0
  -30.0640  -22.6360   19.8980 O   0  0  0  0  0  0  0  0  0  0  0  0
  -29.4000  -20.2070   21.7620 H   0  0  0  0  0  0  0  0  0  0  0  0
  -31.1000  -20.0040   20.5190 C   0  0  0  0  0  2  0  0  0  0  0  0
  -30.6100  -18.7290   19.8190 C   0  0  0  0  0  2  0  0  0  0  0  0
  -31.6120  -17.5590   19.7620 C   0  0  0  0  0  2  0  0  0  0  0  0
  -30.9350  -16.3580   19.0780 C   0  0  0  0  0  2  0  0  0  0  0  0
  -31.7290  -15.0380   19.0560 C   0  0  0  0  0  0  0  0  0  0  0  0
  -31.4290  -12.6180   18.7140 C   0  0  0  0  0  2  0  0  0  0  0  0
  -30.3990  -12.4240   17.5810 C   0  0  0  0  0  2  0  0  0  0  0  0
  -28.9580  -12.4370   18.1340 C   0  0  0  0  0  2  0  0  0  0  0  0
  -28.6910  -13.6480   19.0680 C   0  0  0  0  0  3  0  0  0  0  0  0
  -29.8240  -13.7940   20.1100 C   0  0  0  0  0  2  0  0  0  0  0  0
  -31.1030  -13.8810   19.3910 N   0  0  0  0  0  0  0  0  0  0  0  0
  -32.8420  -15.0620   18.5200 O   0  0  0  0  0  0  0  0  0  0  0  0
  -26.6140  -14.5640   20.2850 C   0  0  0  0  0  0  0  0  0  0  0  0
  -25.4400  -13.9670   20.6630 C   0  0  0  0  0  0  0  0  0  0  0  0
  -25.5550  -12.5970   20.2780 C   0  0  0  0  0  0  0  0  0  0  0  0
  -27.3790  -13.5640   19.7030 N   0  0  0  0  0  0  0  0  0  0  0  0
  -26.7500  -12.3640   19.7530 N   0  0  0  0  0  0  0  0  0  0  0  0
  -24.5740  -11.5060   20.3230 C   0  0  0  0  0  0  0  0  0  0  0  0
  -24.8820  -10.2590   20.9090 C   0  0  0  0  0  3  0  0  0  0  0  0
  -23.9140   -9.2310   20.9560 C   0  0  0  0  0  3  0  0  0  0  0  0
  -22.6240   -9.4470   20.4150 C   0  0  0  0  0  0  0  0  0  0  0  0
  -22.3320  -10.6830   19.8100 C   0  0  0  0  0  3  0  0  0  0  0  0
  -23.2970  -11.7030   19.7610 C   0  0  0  0  0  3  0  0  0  0  0  0
  -21.6300   -8.4990   20.3910 O   0  0  0  0  0  0  0  0  0  0  0  0
  -21.4690   -7.6000   21.4140 C   0  0  0  0  0  0  0  0  0  0  0  0
  -21.2780   -8.0190   22.7490 C   0  0  0  0  0  3  0  0  0  0  0  0
  -21.0460   -7.0640   23.7600 C   0  0  0  0  0  3  0  0  0  0  0  0
  -20.9960   -5.6950   23.4380 C   0  0  0  0  0  0  0  0  0  0  0  0
  -21.1810   -5.2770   22.1080 C   0  0  0  0  0  3  0  0  0  0  0  0
  -21.4140   -6.2280   21.1000 C   0  0  0  0  0  0  0  0  0  0  0  0
  -21.5690   -5.8220   19.8160 F   0  0  0  0  0  0  0  0  0  0  0  0
  -20.7670   -4.7790   24.4070 F   0  0  0  0  0  0  0  0  0  0  0  0
  -24.2410  -14.6470   21.2600 C   0  0  0  0  0  0  0  0  0  0  0  0
  -23.4730  -13.9320   22.0760 N   0  0  0  0  0  0  0  0  0  0  0  0
  -24.0040  -15.8340   21.0410 O   0  0  0  0  0  0  0  0  0  0  0  0
  -23.6780  -12.9640   22.2720 H   0  0  0  0  0  0  0  0  0  0  0  0
  -22.6700  -14.3620   22.5130 H   0  0  0  0  0  0  0  0  0  0  0  0
  -27.0850  -15.8720   20.3670 N   0  0  0  0  0  0  0  0  0  0  0  0
  -26.5240  -16.6280   20.7430 H   0  0  0  0  0  0  0  0  0  0  0  0
  -27.9740  -16.1850   20.0010 H   0  0  0  0  0  0  0  0  0  0  0  0
  -27.0770  -23.9380   19.5350 C   0  0  0  0  0  2  0  0  0  0  0  0
  -26.9610  -25.4270   19.1570 C   0  0  0  0  0  2  0  0  0  0  0  0
  -26.6560  -25.6740   17.6690 C   0  0  0  0  0  2  0  0  0  0  0  0
  -26.6130  -27.0770   17.3960 O   0  0  0  0  0  0  0  0  0  0  0  0
  -25.7150  -30.5750   23.5100 C   0  0  0  0  0  0  0  0  0  0  0  0
  -25.7680  -27.8680   18.1440 C   0  0  0  0  0  0  0  0  0  0  0  0
  -23.7150  -30.4240   22.0620 C   0  0  0  0  0  3  0  0  0  0  0  0
  -24.1230  -29.5610   19.7000 C   0  0  0  0  0  0  0  0  0  0  0  0
  -26.0660  -30.3690   21.0530 C   0  0  0  0  0  2  0  0  0  0  0  0
  -25.5020  -29.5100   19.9400 C   0  0  0  0  0  0  0  0  0  0  0  0
  -26.3270  -28.6720   19.1600 C   0  0  0  0  0  3  0  0  0  0  0  0
  -24.3730  -27.9270   17.9170 C   0  0  0  0  0  3  0  0  0  0  0  0
  -23.5520  -28.7690   18.6890 C   0  0  0  0  0  3  0  0  0  0  0  0
  -23.3110  -30.4950   20.5650 C   0  0  0  0  0  2  0  0  0  0  0  0
  -25.2020  -30.4350   22.2550 N   0  0  0  0  0  0  0  0  0  0  0  0
  -24.9750  -30.7350   24.4900 O   0  0  0  0  0  0  0  0  0  0  0  0
  -23.0220  -29.2000   22.7020 C   0  0  0  0  0  0  0  0  0  0  0  0
  -21.6890  -29.1220   22.5560 N   0  0  0  0  0  0  0  0  0  0  0  0
  -23.6790  -28.3370   23.2910 O   0  0  0  0  0  0  0  0  0  0  0  0
  -21.2250  -29.8750   22.0660 H   0  0  0  0  0  0  0  0  0  0  0  0
  -18.3850  -27.6890   22.2860 C   0  0  0  0  0  0  0  0  0  0  0  0
  -20.8310  -28.0430   23.0410 C   0  0  0  0  0  3  0  0  0  0  0  0
  -21.1420  -26.7150   22.3150 C   0  0  0  0  0  2  0  0  0  0  0  0
  -20.2580  -26.4770   21.0870 C   0  0  0  0  0  2  0  0  0  0  0  0
  -18.7780  -26.4570   21.4870 C   0  0  0  0  0  2  0  0  0  0  0  0
  -19.3520  -28.4420   23.0020 C   0  0  0  0  0  0  0  0  0  0  0  0
  -18.9400  -29.5980   23.6990 C   0  0  0  0  0  3  0  0  0  0  0  0
  -17.5910  -30.0010   23.6920 C   0  0  0  0  0  3  0  0  0  0  0  0
  -16.6360  -29.2420   22.9960 C   0  0  0  0  0  3  0  0  0  0  0  0
  -17.0310  -28.0870   22.2980 C   0  0  0  0  0  3  0  0  0  0  0  0
  -27.2540  -30.5660   23.7700 C   0  0  0  0  0  3  0  0  0  0  0  0
  -27.5890  -31.8000   24.4920 N   0  0  0  0  0  0  0  0  0  0  0  0
  -28.1600  -32.8760   23.9330 C   0  0  0  0  0  0  0  0  0  0  0  0
  -28.5320  -32.9010   22.7560 O   0  0  0  0  0  0  0  0  0  0  0  0
  -27.2650  -31.8680   25.4460 H   0  0  0  0  0  0  0  0  0  0  0  0
  -27.2520  -35.1470   24.5110 C   0  0  0  0  0  1  0  0  0  0  0  0
  -28.3520  -34.1200   24.8210 C   0  0  0  0  0  3  0  0  0  0  0  0
  -30.7740  -33.9250   25.1700 C   0  0  0  0  0  1  0  0  0  0  0  0
  -29.6810  -34.7530   24.6690 N   0  0  0  0  0  0  0  0  0  0  0  0
  -29.7120  -35.6460   25.1540 H   0  0  0  0  0  0  0  0  0  0  0  0
  -27.7410  -29.2980   24.5750 C   0  0  1  0  0  0  0  0  0  0  0  0
  -26.8990  -29.0010   25.8370 C   0  0  0  0  0  1  0  0  0  0  0  0
  -27.7110  -28.0380   23.6790 C   0  0  0  0  0  1  0  0  0  0  0  0
  -29.2120  -29.4910   25.0140 C   0  0  0  0  0  1  0  0  0  0  0  0
  2  1  1  0
  3  1  1  0
  4  6  1  0
  4  2  1  0
  5 50  1  0
  5  4  1  0
  5  3  1  0
  6  7  1  0
  7  9  1  0
  8  6  2  0
 10  7  1  0
 11 10  1  0
 12 11  1  0
 13 12  1  0
 14 13  1  0
 14 20  1  0
 15 20  1  0
 16 17  1  0
 16 15  1  0
 18 17  1  0
 18 25  1  0
 18 19  1  0
 20 19  1  0
 21 14  2  0
 22 47  1  0
 22 23  2  0
 23 42  1  0
 24 27  1  0
 24 23  1  0
 25 26  1  0
 25 22  1  0
 26 24  2  0
 27 28  1  0
 28 29  2  0
 30 29  1  0
 31 30  2  0
 32 31  1  0
 32 27  2  0
 33 30  1  0
 33 34  1  0
 34 35  1  0
 35 36  2  0
 37 36  1  0
 37 41  1  0
 38 37  2  0
 39 34  2  0
 39 38  1  0
 40 39  1  0
 42 43  1  0
 43 45  1  0
 43 46  1  0
 44 42  2  0
 47 48  1  0
 49 47  1  0
 51 50  1  0
 52 51  1  0
 53 52  1  0
 53 55  1  0
 54 65  2  0
 55 60  1  0
 56 64  1  0
 56 66  1  0
 57 59  1  0
 57 63  1  0
 58 64  1  0
 59 58  1  0
 60 59  2  0
 61 55  2  0
 61 62  1  0
 62 57  2  0
 63 56  1  0
 64 54  1  0
 66 68  2  0
 67 66  1  0
 69 67  1  0
 70 79  2  0
 70 75  1  0
 71 67  1  0
 72 71  1  0
 73 74  1  0
 73 72  1  0
 74 70  1  0
 75 71  1  0
 75 76  2  0
 77 76  1  0
 78 77  2  0
 79 78  1  0
 80 54  1  0
 80 81  1  0
 80 90  1  0
 81 84  1  0
 82 81  1  0
 82 86  1  0
 83 82  2  0
 86 85  1  0
 88 86  1  0
 88 89  1  0
 88 87  1  0
 90 93  1  1
 90 91  1  0
 92 90  1  0
M  ISO  4  13 100  14 100  52 101  53 101
M  END
>  <TORSDO>  (82) 
F 24

>  <SCORE>  (82) 
-4.198

>  <name>  (82) 
81

>  <ligand_id>  (82) 
81

>  <original_smiles>  (82) 
[H]c1c([H])c([H])c2c(c1[H])C([H])([H])C([H])([H])C([H])([H])C2([H])N([H])C(=O)C1([H])N(C(=O)C([H])(N([H])C(=O)C([H])(N([H])C([H])([H])[H])C([H])([H])[H])C(C([H])([H])[H])(C([H])([H])[H])C([H])([H])[H])C([H])([H])c2c([H])c(OC([H])([H])C([H])([H])C([H])([H])C3([H])C([H])([H])C([H])([H])C([H])([H])C3([H])C(=O)N([H])C([H])([H])C([H])([H])C([H])([H])C([H])([H])C(=O)N3C([H])([H])C([H])([H])C([H])([H])C([H])(n4nc(-c5c([H])c([H])c(Oc6c([H])c([H])c(F)c([H])c6F)c([H])c5[H])c(C(=O)N([H])[H])c4N([H])[H])C3([H])[H])c([H])c([H])c2C1([H])[H]

>  <smiles>  (82) 
[H]c1c([H])c([H])c2c(c1[H])C([H])([H])C([H])([H])C([H])([H])C2([H])N([H])C(=O)C1([H])N(C(=O)C([H])(N([H])C(=O)C([H])(N([H])C([H])([H])[H])C([H])([H])[H])C(C([H])([H])[H])(C([H])([H])[H])C([H])([H])[H])C([H])([H])c2c([H])c(OC([H])([H])C([H])([H])C([H])([H])C3([H])C([H])([H])C([H])([H])C([H])([H])C3([H])C(=O)N([H])C([H])([H])C([H])([H])C([H])([H])C([H])([H])C(=O)N3C([H])([H])C([H])([H])C([H])([H])C([H])(n4nc(-c5c([H])c([H])c(Oc6c([H])c([H])c(F)c([H])c6F)c([H])c5[H])c(C(=O)N([H])[H])c4N([H])[H])C3([H])[H])c([H])c([H])c2C1([H])[H]

$$$$
82:0:0
     RDKit          3D

 94103  0  0  1  0  0  0  0  0999 V2000
  -26.1040  -23.6330   19.9500 C   0  0  0  0  0  2  0  0  0  0  0  0
  -29.0190  -22.1620   17.2180 C   0  0  0  0  0  2  0  0  0  0  0  0
  -27.2880  -23.5410   20.9310 C   0  0  0  0  0  2  0  0  0  0  0  0
  -28.4780  -21.1760   18.2610 C   0  0  0  0  0  2  0  0  0  0  0  0
  -26.7410  -23.8210   18.5570 C   0  0  0  0  0  2  0  0  0  0  0  0
  -29.1460  -23.6290   17.6590 C   0  0  0  0  0  2  0  0  0  0  0  0
  -28.5050  -23.1840   20.0570 C   0  0  0  0  0  3  0  0  0  0  0  0
  -28.4830  -21.6150   19.7530 C   0  0  0  0  0  3  0  0  0  0  0  0
  -28.2400  -24.1070   18.8190 C   0  0  2  0  0  0  0  0  0  0  0  0
  -29.2340  -19.4660   20.7610 C   0  0  0  0  0  0  0  0  0  0  0  0
  -29.4630  -20.7710   20.4760 N   0  0  0  0  0  0  0  0  0  0  0  0
  -28.0960  -18.9900   20.7370 O   0  0  0  0  0  0  0  0  0  0  0  0
  -30.4090  -21.1220   20.5620 H   0  0  0  0  0  0  0  0  0  0  0  0
  -30.4260  -18.5150   21.0380 C   0  0  0  0  0  2  0  0  0  0  0  0
  -30.1470  -17.0030   20.6370 C   0  0  0  0  0  2  0  0  0  0  0  0
  -30.4800  -15.6260   21.3440 C   0  0  0  0  0  2  0  0  0  0  0  0
  -30.9170  -14.4900   20.3730 C   0  0  0  0  0  0  0  0  0  0  0  0
  -30.5540  -12.3630   19.1560 C   0  0  0  0  0  2  0  0  0  0  0  0
  -29.5960  -12.5720   17.9640 C   0  0  0  0  0  2  0  0  0  0  0  0
  -28.1280  -12.4390   18.4080 C   0  0  0  0  0  2  0  0  0  0  0  0
  -27.8140  -13.2710   19.6790 C   0  0  0  0  0  3  0  0  0  0  0  0
  -28.8780  -13.0210   20.7700 C   0  0  0  0  0  2  0  0  0  0  0  0
  -30.2000  -13.3390   20.2040 N   0  0  0  0  0  0  0  0  0  0  0  0
  -31.9620  -14.6850   19.7440 O   0  0  0  0  0  0  0  0  0  0  0  0
  -25.4240  -13.9000   20.4010 C   0  0  0  0  0  0  0  0  0  0  0  0
  -24.3520  -13.1380   20.7820 C   0  0  0  0  0  0  0  0  0  0  0  0
  -24.8000  -11.7820   20.7550 C   0  0  0  0  0  0  0  0  0  0  0  0
  -26.4610  -13.0090   20.1680 N   0  0  0  0  0  0  0  0  0  0  0  0
  -26.0880  -11.7320   20.4350 N   0  0  0  0  0  0  0  0  0  0  0  0
  -24.0650  -10.5280   20.9580 C   0  0  0  0  0  0  0  0  0  0  0  0
  -24.4960   -9.5650   21.8960 C   0  0  0  0  0  3  0  0  0  0  0  0
  -23.7620   -8.3740   22.0890 C   0  0  0  0  0  3  0  0  0  0  0  0
  -22.5840   -8.1380   21.3410 C   0  0  0  0  0  0  0  0  0  0  0  0
  -22.1710   -9.0920   20.3920 C   0  0  0  0  0  3  0  0  0  0  0  0
  -22.9060  -10.2730   20.2000 C   0  0  0  0  0  3  0  0  0  0  0  0
  -21.8220   -7.0000   21.4430 O   0  0  0  0  0  0  0  0  0  0  0  0
  -21.7690   -6.2680   22.6020 C   0  0  0  0  0  0  0  0  0  0  0  0
  -21.3610   -6.8420   23.8260 C   0  0  0  0  0  3  0  0  0  0  0  0
  -21.2540   -6.0380   24.9790 C   0  0  0  0  0  3  0  0  0  0  0  0
  -21.5440   -4.6620   24.9090 C   0  0  0  0  0  0  0  0  0  0  0  0
  -21.9450   -4.0890   23.6910 C   0  0  0  0  0  3  0  0  0  0  0  0
  -22.0540   -4.8890   22.5400 C   0  0  0  0  0  0  0  0  0  0  0  0
  -22.4200   -4.3270   21.3630 F   0  0  0  0  0  0  0  0  0  0  0  0
  -21.4350   -3.8890   26.0140 F   0  0  0  0  0  0  0  0  0  0  0  0
  -22.9620  -13.6290   21.0660 C   0  0  0  0  0  0  0  0  0  0  0  0
  -22.2360  -12.9490   21.9470 N   0  0  0  0  0  0  0  0  0  0  0  0
  -22.5260  -14.6540   20.5420 O   0  0  0  0  0  0  0  0  0  0  0  0
  -22.5990  -12.1220   22.3970 H   0  0  0  0  0  0  0  0  0  0  0  0
  -21.3040  -13.2630   22.1770 H   0  0  0  0  0  0  0  0  0  0  0  0
  -25.5980  -15.2680   20.2150 N   0  0  0  0  0  0  0  0  0  0  0  0
  -24.8390  -15.9330   20.3260 H   0  0  0  0  0  0  0  0  0  0  0  0
  -26.4610  -15.7010   19.9080 H   0  0  0  0  0  0  0  0  0  0  0  0
  -28.5500  -25.6840   18.9470 C   0  0  0  0  0  2  0  0  0  0  0  0
  -28.2570  -26.5760   20.0680 O   0  0  0  0  0  0  0  0  0  0  0  0
  -24.5960  -31.8910   23.2430 C   0  0  0  0  0  0  0  0  0  0  0  0
  -27.1470  -27.4180   20.0480 C   0  0  0  0  0  0  0  0  0  0  0  0
  -23.3610  -30.5190   21.6060 C   0  0  0  0  0  3  0  0  0  0  0  0
  -24.7810  -29.0060   20.1340 C   0  0  0  0  0  0  0  0  0  0  0  0
  -25.8980  -30.8380   21.3940 C   0  0  0  0  0  2  0  0  0  0  0  0
  -25.9610  -29.4770   20.7260 C   0  0  0  0  0  0  0  0  0  0  0  0
  -27.1440  -28.6850   20.6960 C   0  0  0  0  0  3  0  0  0  0  0  0
  -25.9520  -27.0160   19.4290 C   0  0  0  0  0  3  0  0  0  0  0  0
  -24.7740  -27.7690   19.4850 C   0  0  0  0  0  3  0  0  0  0  0  0
  -23.5490  -29.8750   20.2110 C   0  0  0  0  0  2  0  0  0  0  0  0
  -24.6370  -31.0990   22.1360 N   0  0  0  0  0  0  0  0  0  0  0  0
  -23.5200  -32.1640   23.7960 O   0  0  0  0  0  0  0  0  0  0  0  0
  -22.7170  -29.4830   22.5560 C   0  0  0  0  0  0  0  0  0  0  0  0
  -21.3910  -29.3020   22.4370 N   0  0  0  0  0  0  0  0  0  0  0  0
  -23.4080  -28.8490   23.3580 O   0  0  0  0  0  0  0  0  0  0  0  0
  -20.8970  -29.8650   21.7580 H   0  0  0  0  0  0  0  0  0  0  0  0
  -18.0220  -28.0870   22.9340 C   0  0  0  0  0  0  0  0  0  0  0  0
  -20.5800  -28.3570   23.2040 C   0  0  0  0  0  3  0  0  0  0  0  0
  -20.6890  -26.9290   22.6230 C   0  0  0  0  0  2  0  0  0  0  0  0
  -19.5870  -26.6030   21.6090 C   0  0  0  0  0  2  0  0  0  0  0  0
  -18.2060  -26.7390   22.2560 C   0  0  0  0  0  2  0  0  0  0  0  0
  -19.1380  -28.8530   23.3640 C   0  0  0  0  0  0  0  0  0  0  0  0
  -18.9130  -30.1150   23.9560 C   0  0  0  0  0  3  0  0  0  0  0  0
  -17.6080  -30.6110   24.1230 C   0  0  0  0  0  3  0  0  0  0  0  0
  -16.5060  -29.8420   23.7120 C   0  0  0  0  0  3  0  0  0  0  0  0
  -16.7140  -28.5810   23.1220 C   0  0  0  0  0  3  0  0  0  0  0  0
  -25.8910  -32.5100   23.8500 C   0  0  0  0  0  3  0  0  0  0  0  0
  -25.5930  -33.9080   24.1920 N   0  0  0  0  0  0  0  0  0  0  0  0
  -25.9140  -34.9630   23.4310 C   0  0  0  0  0  0  0  0  0  0  0  0
  -26.5660  -34.8620   22.3890 O   0  0  0  0  0  0  0  0  0  0  0  0
  -25.0130  -34.0600   25.0040 H   0  0  0  0  0  0  0  0  0  0  0  0
  -24.1810  -36.7580   23.1190 C   0  0  0  0  0  1  0  0  0  0  0  0
  -25.4390  -36.3510   23.9030 C   0  0  0  0  0  3  0  0  0  0  0  0
  -27.5920  -37.2260   24.6910 C   0  0  0  0  0  1  0  0  0  0  0  0
  -26.4700  -37.4030   23.7720 N   0  0  0  0  0  0  0  0  0  0  0  0
  -26.0700  -38.3230   23.9360 H   0  0  0  0  0  0  0  0  0  0  0  0
  -26.4200  -31.7260   25.1120 C   0  0  1  0  0  0  0  0  0  0  0  0
  -25.3390  -31.4860   26.1920 C   0  0  0  0  0  1  0  0  0  0  0  0
  -26.9890  -30.3480   24.7030 C   0  0  0  0  0  1  0  0  0  0  0  0
  -27.5830  -32.5110   25.7640 C   0  0  0  0  0  1  0  0  0  0  0  0
  1  3  1  0
  2  6  1  0
  2  4  1  0
  4  8  1  0
  5  9  1  0
  5  1  1  0
  6  9  1  0
  7  3  1  0
  8  7  1  0
  8 11  1  0
  9 53  1  1
  9  7  1  0
 10 14  1  0
 11 13  1  0
 11 10  1  0
 12 10  2  0
 15 14  1  0
 15 16  1  0
 17 16  1  0
 18 23  1  0
 19 20  1  0
 19 18  1  0
 21 20  1  0
 21 28  1  0
 21 22  1  0
 23 17  1  0
 23 22  1  0
 24 17  2  0
 25 26  2  0
 26 45  1  0
 27 26  1  0
 27 30  1  0
 28 25  1  0
 28 29  1  0
 29 27  2  0
 30 31  1  0
 31 32  2  0
 33 36  1  0
 33 32  1  0
 34 33  2  0
 35 34  1  0
 35 30  2  0
 36 37  1  0
 37 38  1  0
 38 39  2  0
 40 39  1  0
 40 44  1  0
 41 40  2  0
 42 37  2  0
 42 41  1  0
 43 42  1  0
 45 46  1  0
 46 49  1  0
 46 48  1  0
 47 45  2  0
 50 51  1  0
 50 25  1  0
 52 50  1  0
 53 54  1  0
 55 66  2  0
 56 54  1  0
 56 61  1  0
 57 65  1  0
 57 67  1  0
 58 64  1  0
 58 60  1  0
 59 65  1  0
 60 59  1  0
 61 60  2  0
 62 63  1  0
 62 56  2  0
 63 58  2  0
 64 57  1  0
 65 55  1  0
 67 69  2  0
 68 67  1  0
 70 68  1  0
 71 80  2  0
 71 76  1  0
 72 68  1  0
 72 76  1  0
 73 72  1  0
 74 75  1  0
 74 73  1  0
 75 71  1  0
 76 77  2  0
 77 78  1  0
 79 78  2  0
 80 79  1  0
 81 55  1  0
 81 82  1  0
 81 91  1  0
 82 85  1  0
 83 87  1  0
 83 82  1  0
 84 83  2  0
 87 86  1  0
 89 87  1  0
 89 90  1  0
 89 88  1  0
 91 94  1  1
 91 92  1  0
 93 91  1  0
M  ISO  4  16 100  17 100  53 101  54 101
M  END
>  <TORSDO>  (83) 
F 21

>  <SCORE>  (83) 
-13.610

>  <name>  (83) 
82

>  <ligand_id>  (83) 
82

>  <original_smiles>  (83) 
[H]c1c([H])c([H])c2c(c1[H])C([H])([H])C([H])([H])C([H])([H])C2([H])N([H])C(=O)C1([H])N(C(=O)C([H])(N([H])C(=O)C([H])(N([H])C([H])([H])[H])C([H])([H])[H])C(C([H])([H])[H])(C([H])([H])[H])C([H])([H])[H])C([H])([H])c2c([H])c(OC([H])([H])C34C([H])([H])C([H])([H])C([H])([H])C([H])(N([H])C(=O)C([H])([H])C([H])([H])C([H])([H])C(=O)N5C([H])([H])C([H])([H])C([H])([H])C([H])(n6nc(-c7c([H])c([H])c(Oc8c([H])c([H])c(F)c([H])c8F)c([H])c7[H])c(C(=O)N([H])[H])c6N([H])[H])C5([H])[H])C3([H])C([H])([H])C([H])([H])C4([H])[H])c([H])c([H])c2C1([H])[H]

>  <smiles>  (83) 
[H]c1c([H])c([H])c2c(c1[H])C([H])([H])C([H])([H])C([H])([H])C2([H])N([H])C(=O)C1([H])N(C(=O)C([H])(N([H])C(=O)C([H])(N([H])C([H])([H])[H])C([H])([H])[H])C(C([H])([H])[H])(C([H])([H])[H])C([H])([H])[H])C([H])([H])c2c([H])c(OC([H])([H])C34C([H])([H])C([H])([H])C([H])([H])C([H])(N([H])C(=O)C([H])([H])C([H])([H])C([H])([H])C(=O)N5C([H])([H])C([H])([H])C([H])([H])C([H])(n6nc(-c7c([H])c([H])c(Oc8c([H])c([H])c(F)c([H])c8F)c([H])c7[H])c(C(=O)N([H])[H])c6N([H])[H])C5([H])[H])C3([H])C([H])([H])C([H])([H])C4([H])[H])c([H])c([H])c2C1([H])[H]

$$$$
83:0:0
     RDKit          3D

 88 96  0  0  1  0  0  0  0  0999 V2000
  -28.5860  -22.3470   20.2250 C   0  0  0  0  0  2  0  0  0  0  0  0
  -29.3310  -19.8600   20.4520 C   0  0  0  0  0  0  0  0  0  0  0  0
  -29.5590  -21.2180   20.4740 N   0  0  0  0  0  0  0  0  0  0  0  0
  -28.2040  -19.3990   20.2690 O   0  0  0  0  0  0  0  0  0  0  0  0
  -30.5200  -21.4930   20.6240 H   0  0  0  0  0  0  0  0  0  0  0  0
  -30.8630  -18.0670   19.4230 C   0  0  0  0  0  2  0  0  0  0  0  0
  -30.5670  -18.9550   20.6150 C   0  0  0  0  0  3  0  0  0  0  0  0
  -30.7670  -17.3740   20.7590 C   0  0  0  0  0  3  0  0  0  0  0  0
  -29.8950  -16.0600   20.8710 C   0  0  0  0  0  2  0  0  0  0  0  0
  -30.6280  -14.7050   20.4620 C   0  0  0  0  0  0  0  0  0  0  0  0
  -30.3770  -12.4760   19.3800 C   0  0  0  0  0  2  0  0  0  0  0  0
  -29.4480  -12.6310   18.1560 C   0  0  0  0  0  2  0  0  0  0  0  0
  -27.9740  -12.4700   18.5730 C   0  0  0  0  0  2  0  0  0  0  0  0
  -27.6100  -13.3260   19.8170 C   0  0  0  0  0  3  0  0  0  0  0  0
  -28.6610  -13.1850   20.9380 C   0  0  0  0  0  2  0  0  0  0  0  0
  -29.9780  -13.5000   20.3720 N   0  0  0  0  0  0  0  0  0  0  0  0
  -31.7970  -14.7900   20.0750 O   0  0  0  0  0  0  0  0  0  0  0  0
  -25.2140  -13.9160   20.5250 C   0  0  0  0  0  0  0  0  0  0  0  0
  -24.1460  -13.1420   20.8870 C   0  0  0  0  0  0  0  0  0  0  0  0
  -24.6110  -11.7900   20.8590 C   0  0  0  0  0  0  0  0  0  0  0  0
  -26.2610  -13.0380   20.2960 N   0  0  0  0  0  0  0  0  0  0  0  0
  -25.9030  -11.7540   20.5590 N   0  0  0  0  0  0  0  0  0  0  0  0
  -23.8830  -10.5270   21.0440 C   0  0  0  0  0  0  0  0  0  0  0  0
  -24.3110   -9.5580   21.9790 C   0  0  0  0  0  3  0  0  0  0  0  0
  -23.5840   -8.3610   22.1520 C   0  0  0  0  0  3  0  0  0  0  0  0
  -22.4150   -8.1230   21.3910 C   0  0  0  0  0  0  0  0  0  0  0  0
  -22.0070   -9.0800   20.4440 C   0  0  0  0  0  3  0  0  0  0  0  0
  -22.7340  -10.2690   20.2700 C   0  0  0  0  0  3  0  0  0  0  0  0
  -21.6610   -6.9780   21.4720 O   0  0  0  0  0  0  0  0  0  0  0  0
  -21.6010   -6.2360   22.6250 C   0  0  0  0  0  0  0  0  0  0  0  0
  -21.1540   -6.7890   23.8440 C   0  0  0  0  0  3  0  0  0  0  0  0
  -21.0420   -5.9730   24.9880 C   0  0  0  0  0  3  0  0  0  0  0  0
  -21.3680   -4.6060   24.9130 C   0  0  0  0  0  0  0  0  0  0  0  0
  -21.8070   -4.0520   23.6980 C   0  0  0  0  0  3  0  0  0  0  0  0
  -21.9200   -4.8640   22.5560 C   0  0  0  0  0  0  0  0  0  0  0  0
  -22.3240   -4.3220   21.3820 F   0  0  0  0  0  0  0  0  0  0  0  0
  -21.2530   -3.8200   26.0090 F   0  0  0  0  0  0  0  0  0  0  0  0
  -22.7460  -13.6170   21.1480 C   0  0  0  0  0  0  0  0  0  0  0  0
  -22.0140  -12.9210   22.0100 N   0  0  0  0  0  0  0  0  0  0  0  0
  -22.3100  -14.6410   20.6240 O   0  0  0  0  0  0  0  0  0  0  0  0
  -22.3780  -12.0910   22.4570 H   0  0  0  0  0  0  0  0  0  0  0  0
  -21.0750  -13.2210   22.2300 H   0  0  0  0  0  0  0  0  0  0  0  0
  -25.3800  -15.2870   20.3510 N   0  0  0  0  0  0  0  0  0  0  0  0
  -24.6160  -15.9450   20.4640 H   0  0  0  0  0  0  0  0  0  0  0  0
  -26.2380  -15.7270   20.0480 H   0  0  0  0  0  0  0  0  0  0  0  0
  -29.0850  -23.8650   20.3890 C   0  0  0  0  0  3  0  0  0  0  0  0
  -28.0270  -25.0040   20.0200 C   0  0  0  0  0  3  0  0  0  0  0  0
  -28.2860  -26.4570   20.2260 O   0  0  0  0  0  0  0  0  0  0  0  0
  -24.5700  -31.8830   23.2430 C   0  0  0  0  0  0  0  0  0  0  0  0
  -27.1800  -27.3270   20.1660 C   0  0  0  0  0  0  0  0  0  0  0  0
  -23.3670  -30.4920   21.5980 C   0  0  0  0  0  3  0  0  0  0  0  0
  -24.8180  -28.9520   20.1640 C   0  0  0  0  0  0  0  0  0  0  0  0
  -25.9090  -30.8080   21.4200 C   0  0  0  0  0  2  0  0  0  0  0  0
  -25.9880  -29.4320   20.7650 C   0  0  0  0  0  0  0  0  0  0  0  0
  -27.1720  -28.6310   20.7580 C   0  0  0  0  0  3  0  0  0  0  0  0
  -25.9830  -26.9130   19.5320 C   0  0  0  0  0  3  0  0  0  0  0  0
  -24.8180  -27.6990   19.5390 C   0  0  0  0  0  3  0  0  0  0  0  0
  -23.5830  -29.8270   20.2150 C   0  0  0  0  0  2  0  0  0  0  0  0
  -24.6350  -31.0770   22.1430 N   0  0  0  0  0  0  0  0  0  0  0  0
  -23.4860  -32.1600   23.7780 O   0  0  0  0  0  0  0  0  0  0  0  0
  -22.7040  -29.4700   22.5520 C   0  0  0  0  0  0  0  0  0  0  0  0
  -21.3780  -29.2940   22.4230 N   0  0  0  0  0  0  0  0  0  0  0  0
  -23.3810  -28.8400   23.3690 O   0  0  0  0  0  0  0  0  0  0  0  0
  -20.8900  -29.8530   21.7370 H   0  0  0  0  0  0  0  0  0  0  0  0
  -17.9980  -28.1040   22.9190 C   0  0  0  0  0  0  0  0  0  0  0  0
  -20.5570  -28.3540   23.1900 C   0  0  0  0  0  3  0  0  0  0  0  0
  -20.6550  -26.9250   22.6080 C   0  0  0  0  0  2  0  0  0  0  0  0
  -19.5520  -26.6110   21.5920 C   0  0  0  0  0  2  0  0  0  0  0  0
  -18.1710  -26.7560   22.2380 C   0  0  0  0  0  2  0  0  0  0  0  0
  -19.1190  -28.8600   23.3520 C   0  0  0  0  0  0  0  0  0  0  0  0
  -18.9030  -30.1210   23.9500 C   0  0  0  0  0  3  0  0  0  0  0  0
  -17.6000  -30.6250   24.1180 C   0  0  0  0  0  3  0  0  0  0  0  0
  -16.4930  -29.8650   23.7010 C   0  0  0  0  0  3  0  0  0  0  0  0
  -16.6930  -28.6060   23.1080 C   0  0  0  0  0  3  0  0  0  0  0  0
  -25.8540  -32.5120   23.8690 C   0  0  0  0  0  3  0  0  0  0  0  0
  -25.5450  -33.9110   24.2010 N   0  0  0  0  0  0  0  0  0  0  0  0
  -25.8700  -34.9630   23.4400 C   0  0  0  0  0  0  0  0  0  0  0  0
  -26.5310  -34.8600   22.4020 O   0  0  0  0  0  0  0  0  0  0  0  0
  -24.9570  -34.0640   25.0070 H   0  0  0  0  0  0  0  0  0  0  0  0
  -24.1370  -36.7540   23.1010 C   0  0  0  0  0  1  0  0  0  0  0  0
  -25.3850  -36.3520   23.9010 C   0  0  0  0  0  3  0  0  0  0  0  0
  -27.5260  -37.2400   24.7140 C   0  0  0  0  0  1  0  0  0  0  0  0
  -26.4160  -37.4050   23.7780 N   0  0  0  0  0  0  0  0  0  0  0  0
  -26.0100  -38.3240   23.9280 H   0  0  0  0  0  0  0  0  0  0  0  0
  -26.3660  -31.7370   25.1450 C   0  0  1  0  0  0  0  0  0  0  0  0
  -25.2700  -31.4990   26.2100 C   0  0  0  0  0  1  0  0  0  0  0  0
  -26.9480  -30.3590   24.7530 C   0  0  0  0  0  1  0  0  0  0  0  0
  -27.5160  -32.5290   25.8110 C   0  0  0  0  0  1  0  0  0  0  0  0
  1 46  1  0
  1  3  1  0
  2  3  1  0
  3  5  1  0
  4  2  2  0
  6  7  1  0
  6  8  1  0
  7  2  1  0
  7  8  1  0
  8  9  1  0
 10  9  1  0
 11 16  1  0
 12 13  1  0
 12 11  1  0
 14 13  1  0
 14 21  1  0
 14 15  1  0
 16 10  1  0
 16 15  1  0
 17 10  2  0
 18 19  2  0
 19 38  1  0
 20 19  1  0
 20 23  1  0
 21 18  1  0
 21 22  1  0
 22 20  2  0
 23 24  1  0
 24 25  2  0
 26 29  1  0
 26 25  1  0
 27 26  2  0
 28 27  1  0
 28 23  2  0
 29 30  1  0
 30 31  1  0
 31 32  2  0
 33 32  1  0
 33 37  1  0
 34 33  2  0
 35 30  2  0
 35 34  1  0
 36 35  1  0
 38 39  1  0
 39 42  1  0
 39 41  1  0
 40 38  2  0
 43 44  1  0
 43 18  1  0
 45 43  1  0
 47 48  1  0
 47 46  2  0
 49 60  2  0
 50 48  1  0
 50 55  1  0
 51 59  1  0
 51 61  1  0
 52 58  1  0
 52 54  1  0
 53 59  1  0
 54 53  1  0
 55 54  2  0
 56 57  1  0
 56 50  2  0
 57 52  2  0
 58 51  1  0
 59 49  1  0
 61 63  2  0
 62 61  1  0
 64 62  1  0
 65 74  2  0
 65 70  1  0
 66 62  1  0
 66 70  1  0
 67 66  1  0
 68 69  1  0
 68 67  1  0
 69 65  1  0
 70 71  2  0
 71 72  1  0
 73 72  2  0
 74 73  1  0
 75 49  1  0
 75 76  1  0
 75 85  1  0
 76 79  1  0
 77 81  1  0
 77 76  1  0
 78 77  2  0
 81 80  1  0
 83 81  1  0
 83 84  1  0
 83 82  1  0
 85 88  1  1
 85 86  1  0
 87 85  1  0
M  ISO  4   9 100  10 100  47 101  48 101
M  END
>  <TORSDO>  (84) 
F 21

>  <SCORE>  (84) 
-13.516

>  <name>  (84) 
83

>  <ligand_id>  (84) 
83

>  <original_smiles>  (84) 
[H]c1c([H])c([H])c2c(c1[H])C([H])([H])C([H])([H])C([H])([H])C2([H])N([H])C(=O)C1([H])N(C(=O)C([H])(N([H])C(=O)C([H])(N([H])C([H])([H])[H])C([H])([H])[H])C(C([H])([H])[H])(C([H])([H])[H])C([H])([H])[H])C([H])([H])c2c([H])c(OC([H])([H])C([H])([H])C([H])([H])N([H])C(=O)C3([H])C([H])([H])C3([H])C([H])([H])C(=O)N3C([H])([H])C([H])([H])C([H])([H])C([H])(n4nc(-c5c([H])c([H])c(Oc6c([H])c([H])c(F)c([H])c6F)c([H])c5[H])c(C(=O)N([H])[H])c4N([H])[H])C3([H])[H])c([H])c([H])c2C1([H])[H]

>  <smiles>  (84) 
[H]c1c([H])c([H])c2c(c1[H])C([H])([H])C([H])([H])C([H])([H])C2([H])N([H])C(=O)C1([H])N(C(=O)C([H])(N([H])C(=O)C([H])(N([H])C([H])([H])[H])C([H])([H])[H])C(C([H])([H])[H])(C([H])([H])[H])C([H])([H])[H])C([H])([H])c2c([H])c(OC([H])([H])C([H])([H])C([H])([H])N([H])C(=O)C3([H])C([H])([H])C3([H])C([H])([H])C(=O)N3C([H])([H])C([H])([H])C([H])([H])C([H])(n4nc(-c5c([H])c([H])c(Oc6c([H])c([H])c(F)c([H])c6F)c([H])c5[H])c(C(=O)N([H])[H])c4N([H])[H])C3([H])[H])c([H])c([H])c2C1([H])[H]

$$$$
84:0:0
     RDKit          3D

 91 98  0  0  1  0  0  0  0  0999 V2000
  -30.4310  -21.8360   20.3850 C   0  0  0  0  0  3  0  0  0  0  0  0
  -30.3180  -20.4730   21.0170 N   0  0  0  0  0  4  0  0  0  0  0  0
  -31.2380  -20.0640   21.0230 H   0  0  0  0  0  0  0  0  0  0  0  0
  -30.0800  -20.6180   21.9870 H   0  0  0  0  0  0  0  0  0  0  0  0
  -29.3630  -19.4530   20.4930 C   0  0  0  0  0  2  0  0  0  0  0  0
  -29.9980  -18.0810   20.0610 C   0  0  0  0  0  2  0  0  0  0  0  0
  -30.5020  -17.1130   21.1850 C   0  0  0  0  0  2  0  0  0  0  0  0
  -29.9230  -15.6530   21.2030 C   0  0  0  0  0  2  0  0  0  0  0  0
  -30.6270  -14.5230   20.3890 C   0  0  0  0  0  0  0  0  0  0  0  0
  -30.3460  -12.3820   19.1550 C   0  0  0  0  0  2  0  0  0  0  0  0
  -29.3690  -12.5930   17.9770 C   0  0  0  0  0  2  0  0  0  0  0  0
  -27.9040  -12.4390   18.4360 C   0  0  0  0  0  2  0  0  0  0  0  0
  -27.5950  -13.2530   19.7190 C   0  0  0  0  0  3  0  0  0  0  0  0
  -28.6740  -12.9970   20.7970 C   0  0  0  0  0  2  0  0  0  0  0  0
  -29.9820  -13.3340   20.2170 N   0  0  0  0  0  0  0  0  0  0  0  0
  -31.7220  -14.7490   19.8650 O   0  0  0  0  0  0  0  0  0  0  0  0
  -25.2080  -13.8660   20.4650 C   0  0  0  0  0  0  0  0  0  0  0  0
  -24.1450  -13.0950   20.8500 C   0  0  0  0  0  0  0  0  0  0  0  0
  -24.6050  -11.7430   20.8160 C   0  0  0  0  0  0  0  0  0  0  0  0
  -26.2500  -12.9830   20.2200 N   0  0  0  0  0  0  0  0  0  0  0  0
  -25.8900  -11.7020   20.4890 N   0  0  0  0  0  0  0  0  0  0  0  0
  -23.8830  -10.4820   21.0210 C   0  0  0  0  0  0  0  0  0  0  0  0
  -24.3380   -9.5110   21.9390 C   0  0  0  0  0  3  0  0  0  0  0  0
  -23.6170   -8.3120   22.1300 C   0  0  0  0  0  3  0  0  0  0  0  0
  -22.4270   -8.0770   21.4030 C   0  0  0  0  0  0  0  0  0  0  0  0
  -21.9900   -9.0380   20.4730 C   0  0  0  0  0  3  0  0  0  0  0  0
  -22.7110  -10.2280   20.2810 C   0  0  0  0  0  3  0  0  0  0  0  0
  -21.6740   -6.9320   21.5040 O   0  0  0  0  0  0  0  0  0  0  0  0
  -21.6630   -6.1780   22.6490 C   0  0  0  0  0  0  0  0  0  0  0  0
  -21.2850   -6.7210   23.8960 C   0  0  0  0  0  3  0  0  0  0  0  0
  -21.2210   -5.8930   25.0350 C   0  0  0  0  0  3  0  0  0  0  0  0
  -21.5250   -4.5220   24.9270 C   0  0  0  0  0  0  0  0  0  0  0  0
  -21.8980   -3.9790   23.6850 C   0  0  0  0  0  3  0  0  0  0  0  0
  -21.9630   -4.8030   22.5480 C   0  0  0  0  0  0  0  0  0  0  0  0
  -22.3010   -4.2710   21.3490 F   0  0  0  0  0  0  0  0  0  0  0  0
  -21.4570   -3.7240   26.0180 F   0  0  0  0  0  0  0  0  0  0  0  0
  -22.7520  -13.5720   21.1430 C   0  0  0  0  0  0  0  0  0  0  0  0
  -22.0390  -12.8770   22.0210 N   0  0  0  0  0  0  0  0  0  0  0  0
  -22.3050  -14.5960   20.6260 O   0  0  0  0  0  0  0  0  0  0  0  0
  -22.4160  -12.0500   22.4590 H   0  0  0  0  0  0  0  0  0  0  0  0
  -21.1030  -13.1770   22.2590 H   0  0  0  0  0  0  0  0  0  0  0  0
  -25.3740  -15.2360   20.2830 N   0  0  0  0  0  0  0  0  0  0  0  0
  -24.6110  -15.8940   20.4020 H   0  0  0  0  0  0  0  0  0  0  0  0
  -26.2220  -15.6700   19.9430 H   0  0  0  0  0  0  0  0  0  0  0  0
  -30.2660  -21.3220   17.8130 C   0  0  0  0  0  1  0  0  0  0  0  0
  -32.4850  -21.0860   19.0110 C   0  0  0  0  0  1  0  0  0  0  0  0
  -31.1300  -21.8150   18.9880 C   0  0  0  0  0  3  0  0  0  0  0  0
  -29.1550  -22.7510   20.4630 C   0  0  0  0  0  2  0  0  0  0  0  0
  -29.4200  -24.2960   20.3340 C   0  0  0  0  0  2  0  0  0  0  0  0
  -28.1480  -25.1650   20.1160 C   0  0  0  0  0  2  0  0  0  0  0  0
  -28.3430  -26.6040   20.1960 O   0  0  0  0  0  0  0  0  0  0  0  0
  -24.5850  -31.8850   23.2520 C   0  0  0  0  0  0  0  0  0  0  0  0
  -27.1930  -27.3880   20.1690 C   0  0  0  0  0  0  0  0  0  0  0  0
  -23.3720  -30.4880   21.6150 C   0  0  0  0  0  3  0  0  0  0  0  0
  -24.8140  -28.9460   20.1850 C   0  0  0  0  0  0  0  0  0  0  0  0
  -25.9060  -30.8220   21.4190 C   0  0  0  0  0  2  0  0  0  0  0  0
  -25.9820  -29.4510   20.7710 C   0  0  0  0  0  0  0  0  0  0  0  0
  -27.1750  -28.6820   20.7540 C   0  0  0  0  0  3  0  0  0  0  0  0
  -25.9980  -26.9170   19.5710 C   0  0  0  0  0  3  0  0  0  0  0  0
  -24.8190  -27.6820   19.5800 C   0  0  0  0  0  3  0  0  0  0  0  0
  -23.5770  -29.8130   20.2340 C   0  0  0  0  0  2  0  0  0  0  0  0
  -24.6410  -31.0800   22.1530 N   0  0  0  0  0  0  0  0  0  0  0  0
  -23.5040  -32.1650   23.7910 O   0  0  0  0  0  0  0  0  0  0  0  0
  -22.7170  -29.4700   22.5760 C   0  0  0  0  0  0  0  0  0  0  0  0
  -21.3920  -29.2910   22.4470 N   0  0  0  0  0  0  0  0  0  0  0  0
  -23.3980  -28.8440   23.3930 O   0  0  0  0  0  0  0  0  0  0  0  0
  -20.9050  -29.8470   21.7580 H   0  0  0  0  0  0  0  0  0  0  0  0
  -18.0150  -28.1030   22.9440 C   0  0  0  0  0  0  0  0  0  0  0  0
  -20.5710  -28.3560   23.2180 C   0  0  0  0  0  3  0  0  0  0  0  0
  -20.6720  -26.9230   22.6430 C   0  0  0  0  0  2  0  0  0  0  0  0
  -19.5700  -26.6020   21.6290 C   0  0  0  0  0  2  0  0  0  0  0  0
  -18.1870  -26.7520   22.2710 C   0  0  0  0  0  2  0  0  0  0  0  0
  -19.1330  -28.8640   23.3740 C   0  0  0  0  0  0  0  0  0  0  0  0
  -18.9170  -30.1300   23.9600 C   0  0  0  0  0  3  0  0  0  0  0  0
  -17.6130  -30.6350   24.1210 C   0  0  0  0  0  3  0  0  0  0  0  0
  -16.5080  -29.8700   23.7090 C   0  0  0  0  0  3  0  0  0  0  0  0
  -16.7090  -28.6060   23.1260 C   0  0  0  0  0  3  0  0  0  0  0  0
  -25.8730  -32.5120   23.8710 C   0  0  0  0  0  3  0  0  0  0  0  0
  -26.3900  -31.7410   25.1460 C   0  0  1  0  0  0  0  0  0  0  0  0
  -25.2970  -31.5090   26.2160 C   0  0  0  0  0  1  0  0  0  0  0  0
  -26.9670  -30.3620   24.7540 C   0  0  0  0  0  1  0  0  0  0  0  0
  -27.5460  -32.5310   25.8020 C   0  0  0  0  0  1  0  0  0  0  0  0
  -25.5710  -33.9110   24.1970 N   0  0  0  0  0  0  0  0  0  0  0  0
  -25.9040  -34.9600   23.4340 C   0  0  0  0  0  0  0  0  0  0  0  0
  -26.5710  -34.8510   22.4000 O   0  0  0  0  0  0  0  0  0  0  0  0
  -24.9790  -34.0710   24.9990 H   0  0  0  0  0  0  0  0  0  0  0  0
  -24.1810  -36.7570   23.0790 C   0  0  0  0  0  1  0  0  0  0  0  0
  -25.4230  -36.3520   23.8870 C   0  0  0  0  0  3  0  0  0  0  0  0
  -27.5650  -37.2300   24.7070 C   0  0  0  0  0  1  0  0  0  0  0  0
  -26.4600  -37.4000   23.7660 N   0  0  0  0  0  0  0  0  0  0  0  0
  -26.0600  -38.3230   23.9100 H   0  0  0  0  0  0  0  0  0  0  0  0
  1 48  1  0
  1  2  1  0
  2  3  1  0
  2  4  1  0
  5  2  1  0
  6  5  1  0
  6  7  1  0
  7  8  1  0
  9  8  1  0
 10 15  1  0
 11 12  1  0
 11 10  1  0
 13 12  1  0
 13 20  1  0
 13 14  1  0
 15  9  1  0
 15 14  1  0
 16  9  2  0
 17 18  2  0
 18 37  1  0
 19 18  1  0
 19 22  1  0
 20 17  1  0
 20 21  1  0
 21 19  2  0
 22 23  1  0
 23 24  2  0
 25 28  1  0
 25 24  1  0
 26 25  2  0
 27 26  1  0
 27 22  2  0
 28 29  1  0
 29 30  1  0
 30 31  2  0
 32 31  1  0
 32 36  1  0
 33 32  2  0
 34 29  2  0
 34 33  1  0
 35 34  1  0
 37 38  1  0
 38 41  1  0
 38 40  1  0
 39 37  2  0
 42 43  1  0
 42 17  1  0
 44 42  1  0
 45 47  1  0
 47 46  1  0
 47  1  1  0
 49 48  1  0
 50 51  1  0
 50 49  1  0
 52 63  2  0
 53 51  1  0
 53 58  1  0
 54 62  1  0
 54 64  1  0
 55 61  1  0
 55 57  1  0
 56 62  1  0
 57 56  1  0
 58 57  2  0
 59 60  1  0
 59 53  2  0
 60 55  2  0
 61 54  1  0
 62 52  1  0
 64 66  2  0
 65 64  1  0
 67 65  1  0
 68 77  2  0
 68 73  1  0
 69 65  1  0
 69 73  1  0
 70 69  1  0
 71 72  1  0
 71 70  1  0
 72 68  1  0
 73 74  2  0
 74 75  1  0
 76 75  2  0
 77 76  1  0
 78 52  1  0
 78 83  1  0
 78 79  1  0
 79 82  1  1
 79 80  1  0
 81 79  1  0
 83 86  1  0
 84 88  1  0
 84 83  1  0
 85 84  2  0
 88 87  1  0
 90 88  1  0
 90 91  1  0
 90 89  1  0
M  ISO  4   8 100   9 100  50 101  51 101
M  END
>  <TORSDO>  (85) 
F 25

>  <SCORE>  (85) 
-12.179

>  <name>  (85) 
84

>  <ligand_id>  (85) 
84

>  <original_smiles>  (85) 
[H]c1c([H])c([H])c2c(c1[H])C([H])([H])C([H])([H])C([H])([H])C2([H])N([H])C(=O)C1([H])N(C(=O)C([H])(N([H])C(=O)C([H])(N([H])C([H])([H])[H])C([H])([H])[H])C(C([H])([H])[H])(C([H])([H])[H])C([H])([H])[H])C([H])([H])c2c([H])c(OC([H])([H])C([H])([H])C([H])([H])C([H])(C([H])(C([H])([H])[H])C([H])([H])[H])[N+]([H])([H])C([H])([H])C([H])([H])C([H])([H])C([H])([H])C(=O)N3C([H])([H])C([H])([H])C([H])([H])C([H])(n4nc(-c5c([H])c([H])c(Oc6c([H])c([H])c(F)c([H])c6F)c([H])c5[H])c(C(=O)N([H])[H])c4N([H])[H])C3([H])[H])c([H])c([H])c2C1([H])[H]

>  <smiles>  (85) 
[H]c1c([H])c([H])c2c(c1[H])C([H])([H])C([H])([H])C([H])([H])C2([H])N([H])C(=O)C1([H])N(C(=O)C([H])(N([H])C(=O)C([H])(N([H])C([H])([H])[H])C([H])([H])[H])C(C([H])([H])[H])(C([H])([H])[H])C([H])([H])[H])C([H])([H])c2c([H])c(OC([H])([H])C([H])([H])C([H])([H])C([H])(C([H])(C([H])([H])[H])C([H])([H])[H])[N+]([H])([H])C([H])([H])C([H])([H])C([H])([H])C([H])([H])C(=O)N3C([H])([H])C([H])([H])C([H])([H])C([H])(n4nc(-c5c([H])c([H])c(Oc6c([H])c([H])c(F)c([H])c6F)c([H])c5[H])c(C(=O)N([H])[H])c4N([H])[H])C3([H])[H])c([H])c([H])c2C1([H])[H]

$$$$
85:0:0
     RDKit          3D

 94101  0  0  1  0  0  0  0  0999 V2000
  -29.5370  -21.2410   20.8030 C   0  0  0  0  0  3  0  0  0  0  0  0
  -29.5740  -21.8430   23.2740 C   0  0  0  0  0  1  0  0  0  0  0  0
  -28.7880  -21.5310   22.0580 N   0  0  0  0  0  4  0  0  0  0  0  0
  -28.2180  -22.3410   21.8740 H   0  0  0  0  0  0  0  0  0  0  0  0
  -28.1310  -20.7980   22.2640 H   0  0  0  0  0  0  0  0  0  0  0  0
  -30.3540  -22.5030   20.3660 C   0  0  0  0  0  2  0  0  0  0  0  0
  -29.7190  -23.9370   20.4710 C   0  0  0  0  0  2  0  0  0  0  0  0
  -28.5470  -24.3130   19.5180 C   0  0  0  0  0  2  0  0  0  0  0  0
  -28.6180  -25.7360   18.8810 C   0  0  0  0  0  2  0  0  0  0  0  0
  -28.4050  -26.8570   19.7610 O   0  0  0  0  0  0  0  0  0  0  0  0
  -24.5550  -31.7820   23.1610 C   0  0  0  0  0  0  0  0  0  0  0  0
  -27.1980  -27.5410   19.7870 C   0  0  0  0  0  0  0  0  0  0  0  0
  -23.3310  -30.4470   21.4770 C   0  0  0  0  0  3  0  0  0  0  0  0
  -24.7720  -29.0090   19.9350 C   0  0  0  0  0  0  0  0  0  0  0  0
  -25.8440  -30.8550   21.2390 C   0  0  0  0  0  2  0  0  0  0  0  0
  -25.9330  -29.5170   20.5280 C   0  0  0  0  0  0  0  0  0  0  0  0
  -27.1410  -28.7870   20.4560 C   0  0  0  0  0  3  0  0  0  0  0  0
  -26.0130  -27.0440   19.1980 C   0  0  0  0  0  3  0  0  0  0  0  0
  -24.8070  -27.7710   19.2680 C   0  0  0  0  0  3  0  0  0  0  0  0
  -23.5170  -29.8480   20.0560 C   0  0  0  0  0  2  0  0  0  0  0  0
  -24.5960  -31.0410   22.0170 N   0  0  0  0  0  0  0  0  0  0  0  0
  -23.4840  -32.0060   23.7450 O   0  0  0  0  0  0  0  0  0  0  0  0
  -22.7170  -29.3660   22.3970 C   0  0  0  0  0  0  0  0  0  0  0  0
  -21.3960  -29.1550   22.2760 N   0  0  0  0  0  0  0  0  0  0  0  0
  -23.4270  -28.7260   23.1770 O   0  0  0  0  0  0  0  0  0  0  0  0
  -20.8820  -29.7260   21.6190 H   0  0  0  0  0  0  0  0  0  0  0  0
  -18.0720  -27.8180   22.7140 C   0  0  0  0  0  0  0  0  0  0  0  0
  -20.6160  -28.1610   23.0130 C   0  0  0  0  0  3  0  0  0  0  0  0
  -20.7740  -26.7540   22.3880 C   0  0  0  0  0  2  0  0  0  0  0  0
  -19.6940  -26.4300   21.3520 C   0  0  0  0  0  2  0  0  0  0  0  0
  -18.3010  -26.5050   21.9840 C   0  0  0  0  0  2  0  0  0  0  0  0
  -19.1580  -28.6050   23.1810 C   0  0  0  0  0  0  0  0  0  0  0  0
  -18.8910  -29.8380   23.8140 C   0  0  0  0  0  3  0  0  0  0  0  0
  -17.5670  -30.2830   23.9880 C   0  0  0  0  0  3  0  0  0  0  0  0
  -16.4940  -29.4910   23.5440 C   0  0  0  0  0  3  0  0  0  0  0  0
  -16.7470  -28.2610   22.9120 C   0  0  0  0  0  3  0  0  0  0  0  0
  -25.8470  -32.3990   23.7820 C   0  0  0  0  0  3  0  0  0  0  0  0
  -26.3940  -31.5830   25.0170 C   0  0  1  0  0  0  0  0  0  0  0  0
  -25.3220  -31.3030   26.0960 C   0  0  0  0  0  1  0  0  0  0  0  0
  -26.9740  -30.2240   24.5600 C   0  0  0  0  0  1  0  0  0  0  0  0
  -27.5530  -32.3610   25.6850 C   0  0  0  0  0  1  0  0  0  0  0  0
  -25.5340  -33.7790   24.1710 N   0  0  0  0  0  0  0  0  0  0  0  0
  -25.8470  -34.8620   23.4470 C   0  0  0  0  0  0  0  0  0  0  0  0
  -26.5020  -34.8070   22.4040 O   0  0  0  0  0  0  0  0  0  0  0  0
  -24.9520  -33.8980   24.9870 H   0  0  0  0  0  0  0  0  0  0  0  0
  -24.0970  -36.6510   23.1970 C   0  0  0  0  0  1  0  0  0  0  0  0
  -25.3580  -36.2280   23.9660 C   0  0  0  0  0  3  0  0  0  0  0  0
  -27.5020  -37.1100   24.7800 C   0  0  0  0  0  1  0  0  0  0  0  0
  -26.3760  -37.2960   23.8660 N   0  0  0  0  0  0  0  0  0  0  0  0
  -25.9650  -38.2080   24.0480 H   0  0  0  0  0  0  0  0  0  0  0  0
  -30.4380  -19.9310   20.8470 C   0  0  0  0  0  2  0  0  0  0  0  0
  -29.9070  -18.5660   20.2550 C   0  0  0  0  0  3  0  0  0  0  0  0
  -28.6370  -18.1430   20.8890 N   0  0  0  0  0  4  0  0  0  0  0  0
  -28.7600  -17.9270   21.8640 H   0  0  0  0  0  0  0  0  0  0  0  0
  -28.3110  -17.3100   20.4290 H   0  0  0  0  0  0  0  0  0  0  0  0
  -27.8980  -18.8110   20.7820 H   0  0  0  0  0  0  0  0  0  0  0  0
  -30.9600  -17.3880   20.3160 C   0  0  0  0  0  2  0  0  0  0  0  0
  -30.3960  -15.9540   20.6300 C   0  0  0  0  0  2  0  0  0  0  0  0
  -31.1420  -14.7050   20.0720 C   0  0  0  0  0  0  0  0  0  0  0  0
  -30.8680  -12.4270   19.1300 C   0  0  0  0  0  2  0  0  0  0  0  0
  -29.9240  -12.4860   17.9080 C   0  0  0  0  0  2  0  0  0  0  0  0
  -28.4490  -12.3890   18.3450 C   0  0  0  0  0  2  0  0  0  0  0  0
  -28.1090  -13.3700   19.4980 C   0  0  0  0  0  3  0  0  0  0  0  0
  -29.1570  -13.2690   20.6300 C   0  0  0  0  0  2  0  0  0  0  0  0
  -30.4870  -13.5100   20.0480 N   0  0  0  0  0  0  0  0  0  0  0  0
  -32.2630  -14.8470   19.5750 O   0  0  0  0  0  0  0  0  0  0  0  0
  -25.7580  -14.1100   20.2480 C   0  0  0  0  0  0  0  0  0  0  0  0
  -24.6610  -13.3980   20.6440 C   0  0  0  0  0  0  0  0  0  0  0  0
  -25.0490  -12.0230   20.6140 C   0  0  0  0  0  0  0  0  0  0  0  0
  -26.7500  -13.1730   20.0000 N   0  0  0  0  0  0  0  0  0  0  0  0
  -26.3280  -11.9130   20.2760 N   0  0  0  0  0  0  0  0  0  0  0  0
  -24.2610  -10.8020   20.8220 C   0  0  0  0  0  0  0  0  0  0  0  0
  -24.6140   -9.8550   21.8090 C   0  0  0  0  0  3  0  0  0  0  0  0
  -23.8320   -8.6950   22.0010 C   0  0  0  0  0  3  0  0  0  0  0  0
  -22.6840   -8.4760   21.2030 C   0  0  0  0  0  0  0  0  0  0  0  0
  -22.3520   -9.4090   20.2050 C   0  0  0  0  0  3  0  0  0  0  0  0
  -23.1330  -10.5600   20.0120 C   0  0  0  0  0  3  0  0  0  0  0  0
  -21.8790   -7.3670   21.3030 O   0  0  0  0  0  0  0  0  0  0  0  0
  -21.6880   -6.7190   22.4980 C   0  0  0  0  0  0  0  0  0  0  0  0
  -21.1470   -7.3770   23.6230 C   0  0  0  0  0  3  0  0  0  0  0  0
  -20.9020   -6.6560   24.8090 C   0  0  0  0  0  3  0  0  0  0  0  0
  -21.1880   -5.2790   24.8700 C   0  0  0  0  0  0  0  0  0  0  0  0
  -21.7230   -4.6220   23.7500 C   0  0  0  0  0  3  0  0  0  0  0  0
  -21.9700   -5.3390   22.5650 C   0  0  0  0  0  0  0  0  0  0  0  0
  -22.4650   -4.6960   21.4810 F   0  0  0  0  0  0  0  0  0  0  0  0
  -20.9470   -4.5850   26.0080 F   0  0  0  0  0  0  0  0  0  0  0  0
  -23.2940  -13.9470   20.9350 C   0  0  0  0  0  0  0  0  0  0  0  0
  -22.5440  -13.3000   21.8190 N   0  0  0  0  0  0  0  0  0  0  0  0
  -22.9010  -14.9900   20.4110 O   0  0  0  0  0  0  0  0  0  0  0  0
  -22.8730  -12.4570   22.2660 H   0  0  0  0  0  0  0  0  0  0  0  0
  -21.6280  -13.6550   22.0550 H   0  0  0  0  0  0  0  0  0  0  0  0
  -25.9910  -15.4680   20.0510 N   0  0  0  0  0  0  0  0  0  0  0  0
  -25.1900  -16.0930   20.0520 H   0  0  0  0  0  0  0  0  0  0  0  0
  -26.7150  -15.7750   19.4150 H   0  0  0  0  0  0  0  0  0  0  0  0
  1  6  1  0
  1 51  1  0
  1  3  1  0
  3  5  1  0
  3  2  1  0
  4  3  1  0
  6  7  1  0
  8  7  1  0
  9  8  1  0
  9 10  1  0
 10 12  1  0
 11 22  2  0
 12 17  1  0
 13 21  1  0
 13 23  1  0
 14 20  1  0
 14 16  1  0
 15 21  1  0
 16 15  1  0
 17 16  2  0
 18 19  1  0
 18 12  2  0
 19 14  2  0
 20 13  1  0
 21 11  1  0
 23 25  2  0
 24 23  1  0
 26 24  1  0
 27 36  2  0
 27 32  1  0
 28 24  1  0
 28 32  1  0
 29 28  1  0
 30 31  1  0
 30 29  1  0
 31 27  1  0
 32 33  2  0
 33 34  1  0
 35 34  2  0
 36 35  1  0
 37 11  1  0
 37 42  1  0
 37 38  1  0
 38 41  1  1
 38 39  1  0
 40 38  1  0
 42 45  1  0
 43 47  1  0
 43 42  1  0
 44 43  2  0
 47 46  1  0
 49 47  1  0
 49 50  1  0
 49 48  1  0
 52 57  1  0
 52 51  1  0
 52 53  1  0
 53 54  1  0
 55 53  1  0
 56 53  1  0
 57 58  1  0
 59 58  1  0
 60 65  1  0
 61 62  1  0
 61 60  1  0
 63 62  1  0
 63 70  1  0
 63 64  1  0
 65 59  1  0
 65 64  1  0
 66 59  2  0
 67 68  2  0
 68 87  1  0
 69 68  1  0
 69 72  1  0
 70 67  1  0
 70 71  1  0
 71 69  2  0
 72 73  1  0
 73 74  2  0
 75 78  1  0
 75 74  1  0
 76 75  2  0
 77 76  1  0
 77 72  2  0
 78 79  1  0
 79 84  2  0
 79 80  1  0
 80 81  2  0
 81 82  1  0
 82 86  1  0
 83 82  2  0
 84 83  1  0
 85 84  1  0
 87 88  1  0
 88 91  1  0
 88 90  1  0
 89 87  2  0
 92 93  1  0
 92 67  1  0
 94 92  1  0
M  ISO  4   9 101  10 101  58 100  59 100
M  END
>  <TORSDO>  (86) 
F 26

>  <SCORE>  (86) 
-11.663

>  <name>  (86) 
85

>  <ligand_id>  (86) 
85

>  <original_smiles>  (86) 
[H]c1c([H])c([H])c2c(c1[H])C([H])([H])C([H])([H])C([H])([H])C2([H])N([H])C(=O)C1([H])N(C(=O)C([H])(N([H])C(=O)C([H])(N([H])C([H])([H])[H])C([H])([H])[H])C(C([H])([H])[H])(C([H])([H])[H])C([H])([H])[H])C([H])([H])c2c([H])c(OC([H])([H])C([H])([H])C([H])([H])C([H])([H])C([H])(C([H])([H])C([H])(C([H])([H])C([H])([H])C(=O)N3C([H])([H])C([H])([H])C([H])([H])C([H])(n4nc(-c5c([H])c([H])c(Oc6c([H])c([H])c(F)c([H])c6F)c([H])c5[H])c(C(=O)N([H])[H])c4N([H])[H])C3([H])[H])[N+]([H])([H])[H])[N+]([H])([H])C([H])([H])[H])c([H])c([H])c2C1([H])[H]

>  <smiles>  (86) 
[H]c1c([H])c([H])c2c(c1[H])C([H])([H])C([H])([H])C([H])([H])C2([H])N([H])C(=O)C1([H])N(C(=O)C([H])(N([H])C(=O)C([H])(N([H])C([H])([H])[H])C([H])([H])[H])C(C([H])([H])[H])(C([H])([H])[H])C([H])([H])[H])C([H])([H])c2c([H])c(OC([H])([H])C([H])([H])C([H])([H])C([H])([H])C([H])(C([H])([H])C([H])(C([H])([H])C([H])([H])C(=O)N3C([H])([H])C([H])([H])C([H])([H])C([H])(n4nc(-c5c([H])c([H])c(Oc6c([H])c([H])c(F)c([H])c6F)c([H])c5[H])c(C(=O)N([H])[H])c4N([H])[H])C3([H])[H])[N+]([H])([H])[H])[N+]([H])([H])C([H])([H])[H])c([H])c([H])c2C1([H])[H]

$$$$
86:0:0
     RDKit          3D

 97105  0  0  1  0  0  0  0  0999 V2000
  -31.1080  -21.9100   18.4430 C   0  0  0  0  0  3  0  0  0  0  0  0
  -29.6000  -19.5370   15.9510 C   0  0  0  0  0  2  0  0  0  0  0  0
  -30.4880  -20.7460   16.1960 C   0  0  0  0  0  2  0  0  0  0  0  0
  -29.9190  -18.6240   17.1230 C   0  0  0  0  0  2  0  0  0  0  0  0
  -31.0090  -20.5820   17.6380 C   0  0  0  0  0  3  0  0  0  0  0  0
  -30.1500  -19.5470   18.2390 N   0  0  0  0  0  0  0  0  0  0  0  0
  -30.8040  -18.8700   19.3730 C   0  0  0  0  0  2  0  0  0  0  0  0
  -30.0760  -17.5760   19.8080 C   0  0  0  0  0  2  0  0  0  0  0  0
  -30.6450  -16.9590   21.1000 C   0  0  0  0  0  2  0  0  0  0  0  0
  -30.0980  -15.5420   21.4120 C   0  0  0  0  0  2  0  0  0  0  0  0
  -30.6920  -14.4130   20.5430 C   0  0  0  0  0  0  0  0  0  0  0  0
  -30.3450  -12.3110   19.2910 C   0  0  0  0  0  2  0  0  0  0  0  0
  -29.4080  -12.5860   18.0980 C   0  0  0  0  0  2  0  0  0  0  0  0
  -27.9290  -12.4700   18.5240 C   0  0  0  0  0  2  0  0  0  0  0  0
  -27.6140  -13.2710   19.8170 C   0  0  0  0  0  3  0  0  0  0  0  0
  -28.6650  -12.9750   20.9130 C   0  0  0  0  0  2  0  0  0  0  0  0
  -29.9950  -13.2630   20.3560 N   0  0  0  0  0  0  0  0  0  0  0  0
  -31.7780  -14.6120   19.9900 O   0  0  0  0  0  0  0  0  0  0  0  0
  -25.2180  -13.9090   20.5080 C   0  0  0  0  0  0  0  0  0  0  0  0
  -24.1370  -13.1500   20.8720 C   0  0  0  0  0  0  0  0  0  0  0  0
  -24.5820  -11.7930   20.8430 C   0  0  0  0  0  0  0  0  0  0  0  0
  -26.2540  -13.0150   20.2860 N   0  0  0  0  0  0  0  0  0  0  0  0
  -25.8730  -11.7370   20.5430 N   0  0  0  0  0  0  0  0  0  0  0  0
  -23.8390  -10.5390   21.0300 C   0  0  0  0  0  0  0  0  0  0  0  0
  -24.2710   -9.5580   21.9480 C   0  0  0  0  0  3  0  0  0  0  0  0
  -23.5340   -8.3670   22.1250 C   0  0  0  0  0  3  0  0  0  0  0  0
  -22.3480   -8.1510   21.3850 C   0  0  0  0  0  0  0  0  0  0  0  0
  -21.9340   -9.1220   20.4540 C   0  0  0  0  0  3  0  0  0  0  0  0
  -22.6720  -10.3020   20.2750 C   0  0  0  0  0  3  0  0  0  0  0  0
  -21.5790   -7.0160   21.4720 O   0  0  0  0  0  0  0  0  0  0  0  0
  -21.5500   -6.2510   22.6110 C   0  0  0  0  0  0  0  0  0  0  0  0
  -21.1840   -6.7920   23.8630 C   0  0  0  0  0  3  0  0  0  0  0  0
  -21.1010   -5.9560   24.9930 C   0  0  0  0  0  3  0  0  0  0  0  0
  -21.3730   -4.5790   24.8740 C   0  0  0  0  0  0  0  0  0  0  0  0
  -21.7330   -4.0380   23.6270 C   0  0  0  0  0  3  0  0  0  0  0  0
  -21.8190   -4.8710   22.4990 C   0  0  0  0  0  0  0  0  0  0  0  0
  -22.1440   -4.3420   21.2950 F   0  0  0  0  0  0  0  0  0  0  0  0
  -21.2860   -3.7740   25.9570 F   0  0  0  0  0  0  0  0  0  0  0  0
  -22.7450  -13.6420   21.1410 C   0  0  0  0  0  0  0  0  0  0  0  0
  -22.0110  -12.9530   22.0070 N   0  0  0  0  0  0  0  0  0  0  0  0
  -22.3200  -14.6700   20.6160 O   0  0  0  0  0  0  0  0  0  0  0  0
  -22.3700  -12.1200   22.4500 H   0  0  0  0  0  0  0  0  0  0  0  0
  -21.0720  -13.2570   22.2240 H   0  0  0  0  0  0  0  0  0  0  0  0
  -25.4030  -15.2770   20.3300 N   0  0  0  0  0  0  0  0  0  0  0  0
  -24.6500  -15.9470   20.4330 H   0  0  0  0  0  0  0  0  0  0  0  0
  -26.2690  -15.7020   20.0220 H   0  0  0  0  0  0  0  0  0  0  0  0
  -29.7360  -22.4290   18.6790 N   0  0  0  0  0  4  0  0  0  0  0  0
  -29.2960  -22.5440   17.7820 H   0  0  0  0  0  0  0  0  0  0  0  0
  -29.2310  -21.6860   19.1410 H   0  0  0  0  0  0  0  0  0  0  0  0
  -29.5810  -23.6910   19.4530 C   0  0  0  0  0  2  0  0  0  0  0  0
  -28.5310  -24.6190   18.7970 C   0  0  0  0  0  2  0  0  0  0  0  0
  -28.8100  -26.1390   18.9010 C   0  0  0  0  0  2  0  0  0  0  0  0
  -28.4300  -26.7510   20.1360 O   0  0  0  0  0  0  0  0  0  0  0  0
  -24.6090  -31.8940   23.2500 C   0  0  0  0  0  0  0  0  0  0  0  0
  -27.2460  -27.4600   20.1460 C   0  0  0  0  0  0  0  0  0  0  0  0
  -23.3970  -30.4930   21.6100 C   0  0  0  0  0  3  0  0  0  0  0  0
  -24.8440  -28.9540   20.1810 C   0  0  0  0  0  0  0  0  0  0  0  0
  -25.9220  -30.8450   21.4110 C   0  0  0  0  0  2  0  0  0  0  0  0
  -26.0010  -29.4740   20.7750 C   0  0  0  0  0  0  0  0  0  0  0  0
  -27.1990  -28.7240   20.7720 C   0  0  0  0  0  3  0  0  0  0  0  0
  -26.0680  -26.9490   19.5540 C   0  0  0  0  0  3  0  0  0  0  0  0
  -24.8700  -27.6870   19.5740 C   0  0  0  0  0  3  0  0  0  0  0  0
  -23.6010  -29.8130   20.2300 C   0  0  0  0  0  2  0  0  0  0  0  0
  -24.6600  -31.0930   22.1470 N   0  0  0  0  0  0  0  0  0  0  0  0
  -23.5290  -32.1690   23.7910 O   0  0  0  0  0  0  0  0  0  0  0  0
  -22.7470  -29.4720   22.5710 C   0  0  0  0  0  0  0  0  0  0  0  0
  -21.4230  -29.2870   22.4390 N   0  0  0  0  0  0  0  0  0  0  0  0
  -23.4290  -28.8500   23.3890 O   0  0  0  0  0  0  0  0  0  0  0  0
  -20.9350  -29.8390   21.7480 H   0  0  0  0  0  0  0  0  0  0  0  0
  -18.0500  -28.0830   22.9190 C   0  0  0  0  0  0  0  0  0  0  0  0
  -20.6050  -28.3510   23.2090 C   0  0  0  0  0  3  0  0  0  0  0  0
  -20.7170  -26.9180   22.6390 C   0  0  0  0  0  2  0  0  0  0  0  0
  -19.6240  -26.5880   21.6190 C   0  0  0  0  0  2  0  0  0  0  0  0
  -18.2360  -26.7320   22.2510 C   0  0  0  0  0  2  0  0  0  0  0  0
  -19.1630  -28.8510   23.3540 C   0  0  0  0  0  0  0  0  0  0  0  0
  -18.9360  -30.1170   23.9340 C   0  0  0  0  0  3  0  0  0  0  0  0
  -17.6290  -30.6170   24.0870 C   0  0  0  0  0  3  0  0  0  0  0  0
  -16.5300  -29.8460   23.6690 C   0  0  0  0  0  3  0  0  0  0  0  0
  -16.7420  -28.5810   23.0910 C   0  0  0  0  0  3  0  0  0  0  0  0
  -25.8990  -32.5200   23.8670 C   0  0  0  0  0  3  0  0  0  0  0  0
  -25.5960  -33.9180   24.1980 N   0  0  0  0  0  0  0  0  0  0  0  0
  -25.9300  -34.9690   23.4370 C   0  0  0  0  0  0  0  0  0  0  0  0
  -26.5960  -34.8630   22.4030 O   0  0  0  0  0  0  0  0  0  0  0  0
  -25.0070  -34.0760   25.0030 H   0  0  0  0  0  0  0  0  0  0  0  0
  -24.2000  -36.7590   23.0870 C   0  0  0  0  0  1  0  0  0  0  0  0
  -25.4460  -36.3580   23.8940 C   0  0  0  0  0  3  0  0  0  0  0  0
  -27.5880  -37.2380   24.7110 C   0  0  0  0  0  1  0  0  0  0  0  0
  -26.4790  -37.4090   23.7740 N   0  0  0  0  0  0  0  0  0  0  0  0
  -26.0780  -38.3310   23.9250 H   0  0  0  0  0  0  0  0  0  0  0  0
  -26.4190  -31.7440   25.1380 C   0  0  1  0  0  0  0  0  0  0  0  0
  -25.3280  -31.5080   26.2090 C   0  0  0  0  0  1  0  0  0  0  0  0
  -26.9970  -30.3660   24.7390 C   0  0  0  0  0  1  0  0  0  0  0  0
  -27.5760  -32.5340   25.7950 C   0  0  0  0  0  1  0  0  0  0  0  0
  -32.0180  -22.9400   17.7030 C   0  0  0  0  0  2  0  0  0  0  0  0
  -33.4510  -22.4620   17.3970 C   0  0  0  0  0  2  0  0  0  0  0  0
  -35.6900  -23.0870   16.3430 C   0  0  0  0  0  1  0  0  0  0  0  0
  -34.2780  -23.5570   16.7090 C   0  0  0  0  0  2  0  0  0  0  0  0
  1 94  1  0
  1 47  1  0
  2  3  1  0
  2  4  1  0
  3  5  1  0
  4  6  1  0
  5  6  1  0
  5  1  1  0
  6  7  1  0
  7  8  1  0
  8  9  1  0
  9 10  1  0
 11 10  1  0
 12 17  1  0
 13 14  1  0
 13 12  1  0
 15 14  1  0
 15 22  1  0
 15 16  1  0
 17 11  1  0
 17 16  1  0
 18 11  2  0
 19 20  2  0
 20 39  1  0
 21 20  1  0
 21 24  1  0
 22 19  1  0
 22 23  1  0
 23 21  2  0
 24 25  1  0
 25 26  2  0
 27 30  1  0
 27 26  1  0
 28 27  2  0
 29 28  1  0
 29 24  2  0
 30 31  1  0
 31 32  1  0
 32 33  2  0
 34 33  1  0
 34 38  1  0
 35 34  2  0
 36 31  2  0
 36 35  1  0
 37 36  1  0
 39 40  1  0
 40 43  1  0
 40 42  1  0
 41 39  2  0
 44 45  1  0
 44 19  1  0
 46 44  1  0
 47 49  1  0
 47 50  1  0
 48 47  1  0
 51 52  1  0
 51 50  1  0
 52 53  1  0
 53 55  1  0
 54 65  2  0
 55 60  1  0
 56 64  1  0
 56 66  1  0
 57 63  1  0
 57 59  1  0
 58 64  1  0
 59 58  1  0
 60 59  2  0
 61 62  1  0
 61 55  2  0
 62 57  2  0
 63 56  1  0
 64 54  1  0
 66 68  2  0
 67 66  1  0
 69 67  1  0
 70 79  2  0
 70 75  1  0
 71 67  1  0
 71 75  1  0
 72 71  1  0
 73 74  1  0
 73 72  1  0
 74 70  1  0
 75 76  2  0
 76 77  1  0
 78 77  2  0
 79 78  1  0
 80 54  1  0
 80 81  1  0
 80 90  1  0
 81 84  1  0
 82 86  1  0
 82 81  1  0
 83 82  2  0
 86 85  1  0
 88 86  1  0
 88 89  1  0
 88 87  1  0
 90 93  1  1
 90 91  1  0
 92 90  1  0
 95 94  1  0
 96 97  1  0
 97 95  1  0
M  ISO  4  10 100  11 100  52 101  53 101
M  END
>  <TORSDO>  (87) 
F 28

>  <SCORE>  (87) 
-11.314

>  <name>  (87) 
86

>  <ligand_id>  (87) 
86

>  <original_smiles>  (87) 
[H]c1c([H])c([H])c2c(c1[H])C([H])([H])C([H])([H])C([H])([H])C2([H])N([H])C(=O)C1([H])N(C(=O)C([H])(N([H])C(=O)C([H])(N([H])C([H])([H])[H])C([H])([H])[H])C(C([H])([H])[H])(C([H])([H])[H])C([H])([H])[H])C([H])([H])c2c([H])c(OC([H])([H])C([H])([H])C([H])([H])[N+]([H])([H])C([H])(C([H])([H])C([H])([H])C([H])([H])C([H])([H])[H])C3([H])N(C([H])([H])C([H])([H])C([H])([H])C([H])([H])C(=O)N4C([H])([H])C([H])([H])C([H])([H])C([H])(n5nc(-c6c([H])c([H])c(Oc7c([H])c([H])c(F)c([H])c7F)c([H])c6[H])c(C(=O)N([H])[H])c5N([H])[H])C4([H])[H])C([H])([H])C([H])([H])C3([H])[H])c([H])c([H])c2C1([H])[H]

>  <smiles>  (87) 
[H]c1c([H])c([H])c2c(c1[H])C([H])([H])C([H])([H])C([H])([H])C2([H])N([H])C(=O)C1([H])N(C(=O)C([H])(N([H])C(=O)C([H])(N([H])C([H])([H])[H])C([H])([H])[H])C(C([H])([H])[H])(C([H])([H])[H])C([H])([H])[H])C([H])([H])c2c([H])c(OC([H])([H])C([H])([H])C([H])([H])[N+]([H])([H])C([H])(C([H])([H])C([H])([H])C([H])([H])C([H])([H])[H])C3([H])N(C([H])([H])C([H])([H])C([H])([H])C([H])([H])C(=O)N4C([H])([H])C([H])([H])C([H])([H])C([H])(n5nc(-c6c([H])c([H])c(Oc7c([H])c([H])c(F)c([H])c7F)c([H])c6[H])c(C(=O)N([H])[H])c5N([H])[H])C4([H])[H])C([H])([H])C([H])([H])C3([H])[H])c([H])c([H])c2C1([H])[H]

$$$$
87:0:0
     RDKit          3D

 91 99  0  0  1  0  0  0  0  0999 V2000
  -29.7750  -19.0900   18.5890 C   0  0  0  0  0  2  0  0  0  0  0  0
  -31.1530  -19.7330   18.7230 C   0  0  0  0  0  2  0  0  0  0  0  0
  -29.2760  -19.1250   20.0350 C   0  0  0  0  0  3  0  0  0  0  0  0
  -30.9520  -20.8520   19.7660 C   0  0  0  0  0  3  0  0  0  0  0  0
  -29.6520  -20.6030   20.4560 N   0  0  1  0  0  4  0  0  0  0  0  0
  -29.8220  -20.5980   21.4510 H   0  0  0  0  0  0  0  0  0  0  0  0
  -32.3560  -19.9200   21.7600 C   0  0  0  0  0  1  0  0  0  0  0  0
  -33.4390  -21.3720   19.9930 C   0  0  0  0  0  1  0  0  0  0  0  0
  -32.1340  -21.0670   20.7520 C   0  0  0  0  0  3  0  0  0  0  0  0
  -29.9420  -17.7650   20.7650 C   0  0  0  0  0  2  0  0  0  0  0  0
  -29.5190  -16.2030   20.3870 C   0  0  0  0  0  2  0  0  0  0  0  0
  -30.4680  -14.8640   20.4160 C   0  0  0  0  0  0  0  0  0  0  0  0
  -30.3930  -12.5320   19.4810 C   0  0  0  0  0  2  0  0  0  0  0  0
  -29.4760  -12.5760   18.2370 C   0  0  0  0  0  2  0  0  0  0  0  0
  -27.9950  -12.3970   18.6270 C   0  0  0  0  0  2  0  0  0  0  0  0
  -27.5880  -13.2720   19.8440 C   0  0  0  0  0  3  0  0  0  0  0  0
  -28.6310  -13.2050   20.9780 C   0  0  0  0  0  2  0  0  0  0  0  0
  -29.9280  -13.5870   20.4140 N   0  0  0  0  0  0  0  0  0  0  0  0
  -31.6740  -14.9800   20.1760 O   0  0  0  0  0  0  0  0  0  0  0  0
  -25.1940  -13.8530   20.5440 C   0  0  0  0  0  0  0  0  0  0  0  0
  -24.1280  -13.0790   20.9070 C   0  0  0  0  0  0  0  0  0  0  0  0
  -24.5940  -11.7280   20.8860 C   0  0  0  0  0  0  0  0  0  0  0  0
  -26.2420  -12.9760   20.3190 N   0  0  0  0  0  0  0  0  0  0  0  0
  -25.8890  -11.6920   20.5890 N   0  0  0  0  0  0  0  0  0  0  0  0
  -23.8650  -10.4660   21.0740 C   0  0  0  0  0  0  0  0  0  0  0  0
  -24.2920   -9.4960   22.0070 C   0  0  0  0  0  3  0  0  0  0  0  0
  -23.5630   -8.3000   22.1820 C   0  0  0  0  0  3  0  0  0  0  0  0
  -22.3890   -8.0680   21.4260 C   0  0  0  0  0  0  0  0  0  0  0  0
  -21.9770   -9.0270   20.4830 C   0  0  0  0  0  3  0  0  0  0  0  0
  -22.7090  -10.2140   20.3070 C   0  0  0  0  0  3  0  0  0  0  0  0
  -21.6330   -6.9240   21.5090 O   0  0  0  0  0  0  0  0  0  0  0  0
  -21.5870   -6.1720   22.6550 C   0  0  0  0  0  0  0  0  0  0  0  0
  -21.1810   -6.7230   23.8910 C   0  0  0  0  0  3  0  0  0  0  0  0
  -21.0840   -5.9000   25.0310 C   0  0  0  0  0  3  0  0  0  0  0  0
  -21.3820   -4.5270   24.9370 C   0  0  0  0  0  0  0  0  0  0  0  0
  -21.7810   -3.9760   23.7050 C   0  0  0  0  0  3  0  0  0  0  0  0
  -21.8800   -4.7960   22.5680 C   0  0  0  0  0  0  0  0  0  0  0  0
  -22.2430   -4.2570   21.3790 F   0  0  0  0  0  0  0  0  0  0  0  0
  -21.2830   -3.7340   26.0290 F   0  0  0  0  0  0  0  0  0  0  0  0
  -22.7260  -13.5520   21.1580 C   0  0  0  0  0  0  0  0  0  0  0  0
  -21.9910  -12.8590   22.0210 N   0  0  0  0  0  0  0  0  0  0  0  0
  -22.2900  -14.5720   20.6240 O   0  0  0  0  0  0  0  0  0  0  0  0
  -22.3580  -12.0380   22.4770 H   0  0  0  0  0  0  0  0  0  0  0  0
  -21.0420  -13.1460   22.2200 H   0  0  0  0  0  0  0  0  0  0  0  0
  -25.3530  -15.2250   20.3610 N   0  0  0  0  0  0  0  0  0  0  0  0
  -24.5750  -15.8680   20.4590 H   0  0  0  0  0  0  0  0  0  0  0  0
  -26.2010  -15.6700   20.0350 H   0  0  0  0  0  0  0  0  0  0  0  0
  -28.6450  -21.8050   20.2000 C   0  0  0  0  0  2  0  0  0  0  0  0
  -29.0050  -23.4270   20.4750 C   0  0  0  0  0  3  0  0  0  0  0  0
  -27.9750  -24.6940   20.1050 C   0  0  0  0  0  3  0  0  0  0  0  0
  -28.2350  -26.2120   20.2770 O   0  0  0  0  0  0  0  0  0  0  0  0
  -24.6150  -31.8670   23.2390 C   0  0  0  0  0  0  0  0  0  0  0  0
  -27.1680  -27.1730   20.2050 C   0  0  0  0  0  0  0  0  0  0  0  0
  -23.3970  -30.4730   21.6080 C   0  0  0  0  0  3  0  0  0  0  0  0
  -24.8330  -28.9030   20.1710 C   0  0  0  0  0  0  0  0  0  0  0  0
  -25.9500  -30.7420   21.4230 C   0  0  0  0  0  2  0  0  0  0  0  0
  -26.0150  -29.3550   20.7730 C   0  0  0  0  0  0  0  0  0  0  0  0
  -27.1820  -28.5080   20.7710 C   0  0  0  0  0  3  0  0  0  0  0  0
  -25.9580  -26.8140   19.5680 C   0  0  0  0  0  3  0  0  0  0  0  0
  -24.8190  -27.6470   19.5460 C   0  0  0  0  0  3  0  0  0  0  0  0
  -23.6050  -29.7970   20.2270 C   0  0  0  0  0  2  0  0  0  0  0  0
  -24.6750  -31.0480   22.1460 N   0  0  0  0  0  0  0  0  0  0  0  0
  -23.5330  -32.1520   23.7780 O   0  0  0  0  0  0  0  0  0  0  0  0
  -22.7260  -29.4670   22.5760 C   0  0  0  0  0  0  0  0  0  0  0  0
  -21.3970  -29.3000   22.4540 N   0  0  0  0  0  0  0  0  0  0  0  0
  -23.3990  -28.8410   23.3980 O   0  0  0  0  0  0  0  0  0  0  0  0
  -20.9110  -29.8590   21.7680 H   0  0  0  0  0  0  0  0  0  0  0  0
  -18.0150  -28.1040   22.9550 C   0  0  0  0  0  0  0  0  0  0  0  0
  -20.5730  -28.3670   23.2280 C   0  0  0  0  0  3  0  0  0  0  0  0
  -20.6750  -26.9300   22.6640 C   0  0  0  0  0  2  0  0  0  0  0  0
  -19.5750  -26.6000   21.6490 C   0  0  0  0  0  2  0  0  0  0  0  0
  -18.1930  -26.7470   22.2920 C   0  0  0  0  0  2  0  0  0  0  0  0
  -19.1330  -28.8700   23.3820 C   0  0  0  0  0  0  0  0  0  0  0  0
  -18.9070  -30.1370   23.9650 C   0  0  0  0  0  3  0  0  0  0  0  0
  -17.6020  -30.6320   24.1330 C   0  0  0  0  0  3  0  0  0  0  0  0
  -16.5000  -29.8610   23.7240 C   0  0  0  0  0  3  0  0  0  0  0  0
  -16.7080  -28.6000   23.1350 C   0  0  0  0  0  3  0  0  0  0  0  0
  -25.8980  -32.5000   23.8590 C   0  0  0  0  0  3  0  0  0  0  0  0
  -25.5860  -33.8980   24.1900 N   0  0  0  0  0  0  0  0  0  0  0  0
  -25.9110  -34.9560   23.4340 C   0  0  0  0  0  0  0  0  0  0  0  0
  -26.5670  -34.8560   22.3940 O   0  0  0  0  0  0  0  0  0  0  0  0
  -24.9920  -34.0480   24.9920 H   0  0  0  0  0  0  0  0  0  0  0  0
  -24.1770  -36.7560   23.1140 C   0  0  0  0  0  1  0  0  0  0  0  0
  -25.4310  -36.3430   23.9030 C   0  0  0  0  0  3  0  0  0  0  0  0
  -27.5800  -37.2310   24.6960 C   0  0  0  0  0  1  0  0  0  0  0  0
  -26.4600  -37.3980   23.7740 N   0  0  0  0  0  0  0  0  0  0  0  0
  -26.0530  -38.3160   23.9300 H   0  0  0  0  0  0  0  0  0  0  0  0
  -26.4110  -31.7310   25.1390 C   0  0  1  0  0  0  0  0  0  0  0  0
  -25.3210  -31.5030   26.2120 C   0  0  0  0  0  1  0  0  0  0  0  0
  -26.9870  -30.3460   24.7570 C   0  0  0  0  0  1  0  0  0  0  0  0
  -27.5660  -32.5230   25.7970 C   0  0  0  0  0  1  0  0  0  0  0  0
  1  2  1  0
  1  3  1  0
  2  4  1  0
  3  5  1  0
  3 10  1  0
  4  5  1  0
  4  9  1  0
  5  6  1  1
  8  9  1  0
  9  7  1  0
 11 12  1  0
 11 10  1  0
 13 18  1  0
 14 15  1  0
 14 13  1  0
 16 15  1  0
 16 23  1  0
 16 17  1  0
 18 12  1  0
 18 17  1  0
 19 12  2  0
 20 21  2  0
 21 40  1  0
 22 21  1  0
 22 25  1  0
 23 20  1  0
 23 24  1  0
 24 22  2  0
 25 26  1  0
 26 27  2  0
 28 31  1  0
 28 27  1  0
 29 28  2  0
 30 29  1  0
 30 25  2  0
 31 32  1  0
 32 33  1  0
 33 34  2  0
 35 34  1  0
 35 39  1  0
 36 35  2  0
 37 32  2  0
 37 36  1  0
 38 37  1  0
 40 41  1  0
 41 44  1  0
 41 43  1  0
 42 40  2  0
 45 46  1  0
 45 20  1  0
 47 45  1  0
 48  5  1  0
 48 49  1  0
 50 51  1  0
 50 49  2  0
 52 63  2  0
 53 51  1  0
 53 58  1  0
 54 62  1  0
 54 64  1  0
 55 61  1  0
 55 57  1  0
 56 62  1  0
 57 56  1  0
 58 57  2  0
 59 53  2  0
 60 59  1  0
 60 55  2  0
 61 54  1  0
 62 52  1  0
 64 66  2  0
 65 64  1  0
 67 65  1  0
 68 77  2  0
 68 73  1  0
 69 65  1  0
 69 73  1  0
 70 69  1  0
 71 72  1  0
 71 70  1  0
 72 68  1  0
 73 74  2  0
 74 75  1  0
 76 75  2  0
 77 76  1  0
 78 52  1  0
 78 79  1  0
 78 88  1  0
 79 82  1  0
 80 84  1  0
 80 79  1  0
 81 80  2  0
 84 83  1  0
 86 84  1  0
 86 87  1  0
 86 85  1  0
 88 91  1  1
 88 89  1  0
 90 88  1  0
M  ISO  4  11 100  12 100  50 101  51 101
M  END
>  <TORSDO>  (88) 
F 22

>  <SCORE>  (88) 
-13.240

>  <name>  (88) 
87

>  <ligand_id>  (88) 
87

>  <original_smiles>  (88) 
[H]c1c([H])c([H])c2c(c1[H])C([H])([H])C([H])([H])C([H])([H])C2([H])N([H])C(=O)C1([H])N(C(=O)C([H])(N([H])C(=O)C([H])(N([H])C([H])([H])[H])C([H])([H])[H])C(C([H])([H])[H])(C([H])([H])[H])C([H])([H])[H])C([H])([H])c2c([H])c(OC([H])([H])C([H])([H])C([H])([H])[N+]3([H])C([H])(C([H])([H])C([H])([H])C(=O)N4C([H])([H])C([H])([H])C([H])([H])C([H])(n5nc(-c6c([H])c([H])c(Oc7c([H])c([H])c(F)c([H])c7F)c([H])c6[H])c(C(=O)N([H])[H])c5N([H])[H])C4([H])[H])C([H])([H])C([H])([H])C3([H])C([H])(C([H])([H])[H])C([H])([H])[H])c([H])c([H])c2C1([H])[H]

>  <smiles>  (88) 
[H]c1c([H])c([H])c2c(c1[H])C([H])([H])C([H])([H])C([H])([H])C2([H])N([H])C(=O)C1([H])N(C(=O)C([H])(N([H])C(=O)C([H])(N([H])C([H])([H])[H])C([H])([H])[H])C(C([H])([H])[H])(C([H])([H])[H])C([H])([H])[H])C([H])([H])c2c([H])c(OC([H])([H])C([H])([H])C([H])([H])[N+]3([H])C([H])(C([H])([H])C([H])([H])C(=O)N4C([H])([H])C([H])([H])C([H])([H])C([H])(n5nc(-c6c([H])c([H])c(Oc7c([H])c([H])c(F)c([H])c7F)c([H])c6[H])c(C(=O)N([H])[H])c5N([H])[H])C4([H])[H])C([H])([H])C([H])([H])C3([H])C([H])(C([H])([H])[H])C([H])([H])[H])c([H])c([H])c2C1([H])[H]

$$$$
88:0:0
     RDKit          3D

 94102  0  0  1  0  0  0  0  0999 V2000
  -27.4890  -23.2340   20.5430 C   0  0  0  0  0  2  0  0  0  0  0  0
  -27.9360  -21.7340   20.6510 C   0  0  0  0  0  2  0  0  0  0  0  0
  -29.6040  -22.9580   19.4500 C   0  0  0  0  0  2  0  0  0  0  0  0
  -28.3120  -23.8470   19.4060 C   0  0  0  0  0  3  0  0  0  0  0  0
  -29.1070  -21.4680   19.6610 C   0  0  0  0  0  3  0  0  0  0  0  0
  -28.3220  -25.4360   19.1090 C   0  0  0  0  0  2  0  0  0  0  0  0
  -28.1180  -26.5430   20.0670 O   0  0  0  0  0  0  0  0  0  0  0  0
  -24.5090  -31.9340   23.2200 C   0  0  0  0  0  0  0  0  0  0  0  0
  -26.9900  -27.3810   20.0300 C   0  0  0  0  0  0  0  0  0  0  0  0
  -23.2420  -30.5660   21.5990 C   0  0  0  0  0  3  0  0  0  0  0  0
  -24.6340  -29.0150   20.1130 C   0  0  0  0  0  0  0  0  0  0  0  0
  -25.7760  -30.8610   21.3410 C   0  0  0  0  0  2  0  0  0  0  0  0
  -25.8220  -29.4860   20.6820 C   0  0  0  0  0  0  0  0  0  0  0  0
  -26.9950  -28.6780   20.6390 C   0  0  0  0  0  3  0  0  0  0  0  0
  -25.7720  -26.9550   19.4540 C   0  0  0  0  0  3  0  0  0  0  0  0
  -24.6110  -27.7540   19.4910 C   0  0  0  0  0  3  0  0  0  0  0  0
  -23.4110  -29.9030   20.2060 C   0  0  0  0  0  2  0  0  0  0  0  0
  -24.5300  -31.1370   22.1090 N   0  0  0  0  0  0  0  0  0  0  0  0
  -23.4440  -32.2140   23.7890 O   0  0  0  0  0  0  0  0  0  0  0  0
  -22.5990  -29.5450   22.5680 C   0  0  0  0  0  0  0  0  0  0  0  0
  -21.2730  -29.3570   22.4550 N   0  0  0  0  0  0  0  0  0  0  0  0
  -23.2930  -28.9260   23.3800 O   0  0  0  0  0  0  0  0  0  0  0  0
  -20.7730  -29.9110   21.7750 H   0  0  0  0  0  0  0  0  0  0  0  0
  -17.9240  -28.0810   22.9310 C   0  0  0  0  0  0  0  0  0  0  0  0
  -20.4690  -28.4130   23.2340 C   0  0  0  0  0  3  0  0  0  0  0  0
  -20.6180  -26.9740   22.6910 C   0  0  0  0  0  2  0  0  0  0  0  0
  -19.5420  -26.6010   21.6680 C   0  0  0  0  0  2  0  0  0  0  0  0
  -18.1460  -26.7230   22.2870 C   0  0  0  0  0  2  0  0  0  0  0  0
  -19.0150  -28.8820   23.3620 C   0  0  0  0  0  0  0  0  0  0  0  0
  -18.7550  -30.1510   23.9210 C   0  0  0  0  0  3  0  0  0  0  0  0
  -17.4340  -30.6210   24.0570 C   0  0  0  0  0  3  0  0  0  0  0  0
  -16.3570  -29.8180   23.6450 C   0  0  0  0  0  3  0  0  0  0  0  0
  -16.6020  -28.5510   23.0860 C   0  0  0  0  0  3  0  0  0  0  0  0
  -25.8160  -32.5460   23.8110 C   0  0  0  0  0  3  0  0  0  0  0  0
  -25.5360  -33.9450   24.1680 N   0  0  0  0  0  0  0  0  0  0  0  0
  -25.8570  -35.0030   23.4120 C   0  0  0  0  0  0  0  0  0  0  0  0
  -26.4910  -34.9070   22.3580 O   0  0  0  0  0  0  0  0  0  0  0  0
  -24.9810  -34.0980   24.9970 H   0  0  0  0  0  0  0  0  0  0  0  0
  -24.1340  -36.8120   23.1440 C   0  0  0  0  0  1  0  0  0  0  0  0
  -25.4010  -36.3900   23.9040 C   0  0  0  0  0  3  0  0  0  0  0  0
  -27.5750  -37.2440   24.6590 C   0  0  0  0  0  1  0  0  0  0  0  0
  -26.4390  -37.4350   23.7630 N   0  0  0  0  0  0  0  0  0  0  0  0
  -26.0450  -38.3560   23.9430 H   0  0  0  0  0  0  0  0  0  0  0  0
  -26.3630  -31.7550   25.0610 C   0  0  1  0  0  0  0  0  0  0  0  0
  -25.3000  -31.5130   26.1590 C   0  0  0  0  0  1  0  0  0  0  0  0
  -26.9190  -30.3780   24.6280 C   0  0  0  0  0  1  0  0  0  0  0  0
  -27.5430  -32.5270   25.6960 C   0  0  0  0  0  1  0  0  0  0  0  0
  -30.1470  -20.2850   20.0540 C   0  0  0  0  0  3  0  0  0  0  0  0
  -29.6780  -18.8390   19.8170 N   0  0  0  0  0  4  0  0  0  0  0  0
  -29.3820  -18.7880   18.8540 H   0  0  0  0  0  0  0  0  0  0  0  0
  -28.8450  -18.7110   20.3700 H   0  0  0  0  0  0  0  0  0  0  0  0
  -30.6130  -17.6370   20.0780 C   0  0  0  0  0  3  0  0  0  0  0  0
  -29.9890  -16.1680   19.8560 C   0  0  0  0  0  2  0  0  0  0  0  0
  -30.8770  -14.8340   19.8650 C   0  0  0  0  0  0  0  0  0  0  0  0
  -30.6450  -12.5240   18.9710 C   0  0  0  0  0  2  0  0  0  0  0  0
  -29.6700  -12.5970   17.7720 C   0  0  0  0  0  2  0  0  0  0  0  0
  -28.2050  -12.4830   18.2440 C   0  0  0  0  0  2  0  0  0  0  0  0
  -27.8880  -13.4220   19.4380 C   0  0  0  0  0  3  0  0  0  0  0  0
  -28.9740  -13.3160   20.5320 C   0  0  0  0  0  2  0  0  0  0  0  0
  -30.2740  -13.6000   19.9130 N   0  0  0  0  0  0  0  0  0  0  0  0
  -32.0690  -14.9210   19.5530 O   0  0  0  0  0  0  0  0  0  0  0  0
  -25.5500  -14.1160   20.2440 C   0  0  0  0  0  0  0  0  0  0  0  0
  -24.4690  -13.3850   20.6570 C   0  0  0  0  0  0  0  0  0  0  0  0
  -24.8800  -12.0170   20.6210 C   0  0  0  0  0  0  0  0  0  0  0  0
  -26.5510  -13.1940   19.9770 N   0  0  0  0  0  0  0  0  0  0  0  0
  -26.1550  -11.9280   20.2680 N   0  0  0  0  0  0  0  0  0  0  0  0
  -24.1130  -10.7830   20.8460 C   0  0  0  0  0  0  0  0  0  0  0  0
  -24.5290   -9.8170   21.7870 C   0  0  0  0  0  3  0  0  0  0  0  0
  -23.7660   -8.6490   21.9980 C   0  0  0  0  0  3  0  0  0  0  0  0
  -22.5730   -8.4390   21.2660 C   0  0  0  0  0  0  0  0  0  0  0  0
  -22.1750   -9.3940   20.3150 C   0  0  0  0  0  3  0  0  0  0  0  0
  -22.9390  -10.5530   20.1020 C   0  0  0  0  0  3  0  0  0  0  0  0
  -21.7810   -7.3220   21.3870 O   0  0  0  0  0  0  0  0  0  0  0  0
  -21.7030   -6.6180   22.5620 C   0  0  0  0  0  0  0  0  0  0  0  0
  -21.3180   -7.2310   23.7730 C   0  0  0  0  0  3  0  0  0  0  0  0
  -21.1820   -6.4580   24.9420 C   0  0  0  0  0  3  0  0  0  0  0  0
  -21.4230   -5.0700   24.9020 C   0  0  0  0  0  0  0  0  0  0  0  0
  -21.8000   -4.4560   23.6950 C   0  0  0  0  0  3  0  0  0  0  0  0
  -21.9370   -5.2280   22.5270 C   0  0  0  0  0  0  0  0  0  0  0  0
  -22.2810   -4.6280   21.3620 F   0  0  0  0  0  0  0  0  0  0  0  0
  -21.2850   -4.3250   26.0230 F   0  0  0  0  0  0  0  0  0  0  0  0
  -23.1010  -13.9160   20.9730 C   0  0  0  0  0  0  0  0  0  0  0  0
  -22.3800  -13.2590   21.8740 N   0  0  0  0  0  0  0  0  0  0  0  0
  -22.6820  -14.9500   20.4550 O   0  0  0  0  0  0  0  0  0  0  0  0
  -22.7300  -12.4190   22.3120 H   0  0  0  0  0  0  0  0  0  0  0  0
  -21.4630  -13.5990   22.1290 H   0  0  0  0  0  0  0  0  0  0  0  0
  -25.7600  -15.4780   20.0500 N   0  0  0  0  0  0  0  0  0  0  0  0
  -25.0160  -16.1570   20.1690 H   0  0  0  0  0  0  0  0  0  0  0  0
  -26.5980  -15.8760   19.6480 H   0  0  0  0  0  0  0  0  0  0  0  0
  -31.2570  -17.7320   21.4840 C   0  0  0  0  0  2  0  0  0  0  0  0
  -30.9340  -17.9770   24.0160 C   0  0  0  0  0  1  0  0  0  0  0  0
  -30.2560  -17.7390   22.6620 C   0  0  0  0  0  2  0  0  0  0  0  0
  -31.5820  -20.2660   17.8890 C   0  0  0  0  0  1  0  0  0  0  0  0
  -31.5330  -20.5220   19.4030 C   0  0  0  0  0  2  0  0  0  0  0  0
  1  2  1  0
  3  5  1  0
  4  6  1  0
  4  3  1  0
  4  1  1  0
  5 48  1  0
  5  2  1  0
  6  7  1  0
  8 19  2  0
  9  7  1  0
  9 14  1  0
 10 18  1  0
 10 20  1  0
 11 17  1  0
 11 13  1  0
 12 18  1  0
 13 12  1  0
 14 13  2  0
 15 16  1  0
 15  9  2  0
 16 11  2  0
 17 10  1  0
 18  8  1  0
 20 22  2  0
 21 20  1  0
 23 21  1  0
 24 33  2  0
 24 29  1  0
 25 21  1  0
 25 29  1  0
 26 25  1  0
 27 28  1  0
 27 26  1  0
 28 24  1  0
 29 30  2  0
 30 31  1  0
 32 31  2  0
 33 32  1  0
 34  8  1  0
 34 35  1  0
 34 44  1  0
 35 38  1  0
 36 40  1  0
 36 35  1  0
 37 36  2  0
 40 39  1  0
 42 40  1  0
 42 43  1  0
 42 41  1  0
 44 47  1  1
 44 45  1  0
 46 44  1  0
 48 94  1  0
 49 48  1  0
 49 52  1  0
 49 51  1  0
 50 49  1  0
 52 53  1  0
 52 90  1  0
 53 54  1  0
 54 60  1  0
 55 60  1  0
 56 57  1  0
 56 55  1  0
 58 57  1  0
 58 65  1  0
 58 59  1  0
 60 59  1  0
 61 54  2  0
 62 63  2  0
 63 82  1  0
 64 63  1  0
 64 67  1  0
 65 62  1  0
 65 66  1  0
 66 64  2  0
 67 68  1  0
 68 69  2  0
 70 73  1  0
 70 69  1  0
 71 70  2  0
 72 71  1  0
 72 67  2  0
 73 74  1  0
 74 75  1  0
 75 76  2  0
 77 76  1  0
 77 81  1  0
 78 77  2  0
 79 74  2  0
 79 78  1  0
 80 79  1  0
 82 83  1  0
 83 86  1  0
 83 85  1  0
 84 82  2  0
 87 88  1  0
 87 62  1  0
 89 87  1  0
 90 92  1  0
 92 91  1  0
 93 94  1  0
M  ISO  4   6 101   7 101  53 100  54 100
M  END
>  <TORSDO>  (89) 
F 24

>  <SCORE>  (89) 
-11.332

>  <name>  (89) 
88

>  <ligand_id>  (89) 
88

>  <original_smiles>  (89) 
[H]c1c([H])c([H])c2c(c1[H])C([H])([H])C([H])([H])C([H])([H])C2([H])N([H])C(=O)C1([H])N(C(=O)C([H])(N([H])C(=O)C([H])(N([H])C([H])([H])[H])C([H])([H])[H])C(C([H])([H])[H])(C([H])([H])[H])C([H])([H])[H])C([H])([H])c2c([H])c(OC([H])([H])C3([H])C([H])([H])C([H])([H])C([H])(C([H])(C([H])([H])C([H])([H])[H])[N+]([H])([H])C([H])(C([H])([H])C(=O)N4C([H])([H])C([H])([H])C([H])([H])C([H])(n5nc(-c6c([H])c([H])c(Oc7c([H])c([H])c(F)c([H])c7F)c([H])c6[H])c(C(=O)N([H])[H])c5N([H])[H])C4([H])[H])C([H])([H])C([H])([H])C([H])([H])[H])C3([H])[H])c([H])c([H])c2C1([H])[H]

>  <smiles>  (89) 
[H]c1c([H])c([H])c2c(c1[H])C([H])([H])C([H])([H])C([H])([H])C2([H])N([H])C(=O)C1([H])N(C(=O)C([H])(N([H])C(=O)C([H])(N([H])C([H])([H])[H])C([H])([H])[H])C(C([H])([H])[H])(C([H])([H])[H])C([H])([H])[H])C([H])([H])c2c([H])c(OC([H])([H])C3([H])C([H])([H])C([H])([H])C([H])(C([H])(C([H])([H])C([H])([H])[H])[N+]([H])([H])C([H])(C([H])([H])C(=O)N4C([H])([H])C([H])([H])C([H])([H])C([H])(n5nc(-c6c([H])c([H])c(Oc7c([H])c([H])c(F)c([H])c7F)c([H])c6[H])c(C(=O)N([H])[H])c5N([H])[H])C4([H])[H])C([H])([H])C([H])([H])C([H])([H])[H])C3([H])[H])c([H])c([H])c2C1([H])[H]

$$$$
89:0:0
     RDKit          3D

 94103  0  0  1  0  0  0  0  0999 V2000
  -30.5940  -20.8540   22.3640 C   0  0  0  0  0  0  0  0  0  0  0  0
  -30.8910  -19.6810   21.4900 C   0  0  0  0  0  3  0  0  0  0  0  0
  -29.3570  -22.7230   19.8900 C   0  0  0  0  0  2  0  0  0  0  0  0
  -29.0610  -22.9470   22.2640 C   0  0  0  0  0  2  0  0  0  0  0  0
  -28.7120  -23.7270   20.9600 C   0  0  0  0  0  3  0  0  0  0  0  0
  -29.2360  -21.2490   20.5120 C   0  0  0  0  0  3  0  0  0  0  0  0
  -30.1410  -19.9380   20.1560 C   0  0  1  0  0  0  0  0  0  0  0  0
  -31.1430  -20.3040   19.0400 C   0  0  0  0  0  1  0  0  0  0  0  0
  -29.6220  -21.6380   21.8550 N   0  0  0  0  0  0  0  0  0  0  0  0
  -31.3190  -21.0290   23.4940 N   0  0  0  0  0  0  0  0  0  0  0  0
  -32.0070  -20.3170   23.7020 H   0  0  0  0  0  0  0  0  0  0  0  0
  -32.0570  -21.7500   25.7390 C   0  0  0  0  0  1  0  0  0  0  0  0
  -31.3100  -22.1370   24.4570 C   0  0  0  0  0  2  0  0  0  0  0  0
  -29.4100  -18.5380   19.7680 C   0  0  0  0  0  2  0  0  0  0  0  0
  -29.8770  -15.8970   20.0560 C   0  0  0  0  0  3  0  0  0  0  0  0
  -30.2360  -17.1770   19.6560 C   0  0  0  0  0  3  0  0  0  0  0  0
  -30.7110  -14.6500   19.8480 C   0  0  0  0  0  0  0  0  0  0  0  0
  -30.5130  -12.2670   19.1340 C   0  0  0  0  0  2  0  0  0  0  0  0
  -29.5340  -12.2020   17.9390 C   0  0  0  0  0  2  0  0  0  0  0  0
  -28.0820  -12.0650   18.4370 C   0  0  0  0  0  2  0  0  0  0  0  0
  -27.7400  -13.0820   19.5580 C   0  0  0  0  0  3  0  0  0  0  0  0
  -28.8350  -13.1170   20.6440 C   0  0  0  0  0  2  0  0  0  0  0  0
  -30.1120  -13.4170   19.9810 N   0  0  0  0  0  0  0  0  0  0  0  0
  -31.8690  -14.7070   19.4210 O   0  0  0  0  0  0  0  0  0  0  0  0
  -25.4320  -13.7560   20.4590 C   0  0  0  0  0  0  0  0  0  0  0  0
  -24.3570  -13.0190   20.8770 C   0  0  0  0  0  0  0  0  0  0  0  0
  -24.7550  -11.6510   20.7760 C   0  0  0  0  0  0  0  0  0  0  0  0
  -26.4160  -12.8400   20.1250 N   0  0  0  0  0  0  0  0  0  0  0  0
  -26.0190  -11.5660   20.3790 N   0  0  0  0  0  0  0  0  0  0  0  0
  -23.9840  -10.4180   20.9790 C   0  0  0  0  0  0  0  0  0  0  0  0
  -24.4090   -9.4210   21.8870 C   0  0  0  0  0  3  0  0  0  0  0  0
  -23.6410   -8.2540   22.0800 C   0  0  0  0  0  3  0  0  0  0  0  0
  -22.4340   -8.0730   21.3640 C   0  0  0  0  0  0  0  0  0  0  0  0
  -22.0270   -9.0550   20.4440 C   0  0  0  0  0  3  0  0  0  0  0  0
  -22.7960  -10.2150   20.2500 C   0  0  0  0  0  3  0  0  0  0  0  0
  -21.6380   -6.9590   21.4660 O   0  0  0  0  0  0  0  0  0  0  0  0
  -21.5740   -6.2220   22.6210 C   0  0  0  0  0  0  0  0  0  0  0  0
  -21.1750   -6.7940   23.8480 C   0  0  0  0  0  3  0  0  0  0  0  0
  -21.0580   -5.9850   24.9970 C   0  0  0  0  0  3  0  0  0  0  0  0
  -21.3290   -4.6070   24.9190 C   0  0  0  0  0  0  0  0  0  0  0  0
  -21.7210   -4.0330   23.6960 C   0  0  0  0  0  3  0  0  0  0  0  0
  -21.8390   -4.8380   22.5490 C   0  0  0  0  0  0  0  0  0  0  0  0
  -22.1990   -4.2790   21.3690 F   0  0  0  0  0  0  0  0  0  0  0  0
  -21.2090   -3.8280   26.0180 F   0  0  0  0  0  0  0  0  0  0  0  0
  -23.0060  -13.5510   21.2550 C   0  0  0  0  0  0  0  0  0  0  0  0
  -22.3030  -12.8640   22.1490 N   0  0  0  0  0  0  0  0  0  0  0  0
  -22.5840  -14.6110   20.7950 O   0  0  0  0  0  0  0  0  0  0  0  0
  -22.6550  -12.0030   22.5430 H   0  0  0  0  0  0  0  0  0  0  0  0
  -21.3990  -13.2050   22.4480 H   0  0  0  0  0  0  0  0  0  0  0  0
  -25.6470  -15.1240   20.3140 N   0  0  0  0  0  0  0  0  0  0  0  0
  -24.9210  -15.8050   20.5090 H   0  0  0  0  0  0  0  0  0  0  0  0
  -26.4980  -15.5410   19.9550 H   0  0  0  0  0  0  0  0  0  0  0  0
  -29.0790  -25.2960   21.1940 C   0  0  0  0  0  2  0  0  0  0  0  0
  -28.7930  -26.4670   20.3430 O   0  0  0  0  0  0  0  0  0  0  0  0
  -24.6380  -31.7230   23.2750 C   0  0  0  0  0  0  0  0  0  0  0  0
  -27.6350  -27.2520   20.4330 C   0  0  0  0  0  0  0  0  0  0  0  0
  -23.6160  -30.2990   21.5350 C   0  0  0  0  0  3  0  0  0  0  0  0
  -25.2280  -28.7910   20.2390 C   0  0  0  0  0  0  0  0  0  0  0  0
  -26.1500  -30.6940   21.5560 C   0  0  0  0  0  2  0  0  0  0  0  0
  -26.3280  -29.3120   20.9350 C   0  0  0  0  0  0  0  0  0  0  0  0
  -27.5380  -28.5530   21.0270 C   0  0  0  0  0  3  0  0  0  0  0  0
  -26.5130  -26.7860   19.7220 C   0  0  0  0  0  3  0  0  0  0  0  0
  -25.3220  -27.5330   19.6260 C   0  0  0  0  0  3  0  0  0  0  0  0
  -23.9700  -29.6340   20.1780 C   0  0  0  0  0  2  0  0  0  0  0  0
  -24.8160  -30.9230   22.1820 N   0  0  0  0  0  0  0  0  0  0  0  0
  -23.5070  -31.9610   23.7220 O   0  0  0  0  0  0  0  0  0  0  0  0
  -22.9080  -29.2580   22.4350 C   0  0  0  0  0  0  0  0  0  0  0  0
  -21.5910  -29.0830   22.2370 N   0  0  0  0  0  0  0  0  0  0  0  0
  -23.5450  -28.6120   23.2710 O   0  0  0  0  0  0  0  0  0  0  0  0
  -21.1370  -29.6590   21.5400 H   0  0  0  0  0  0  0  0  0  0  0  0
  -18.1760  -27.9450   22.6160 C   0  0  0  0  0  0  0  0  0  0  0  0
  -20.7350  -28.1240   22.9390 C   0  0  0  0  0  3  0  0  0  0  0  0
  -20.8110  -26.7260   22.2830 C   0  0  0  0  0  2  0  0  0  0  0  0
  -19.7180  -26.4910   21.2340 C   0  0  0  0  0  2  0  0  0  0  0  0
  -18.3300  -26.6330   21.8650 C   0  0  0  0  0  2  0  0  0  0  0  0
  -19.3060  -28.6530   23.1060 C   0  0  0  0  0  0  0  0  0  0  0  0
  -19.1080  -29.8820   23.7690 C   0  0  0  0  0  3  0  0  0  0  0  0
  -17.8130  -30.4060   23.9450 C   0  0  0  0  0  3  0  0  0  0  0  0
  -16.6970  -29.6940   23.4720 C   0  0  0  0  0  3  0  0  0  0  0  0
  -16.8800  -28.4640   22.8140 C   0  0  0  0  0  3  0  0  0  0  0  0
  -25.8450  -32.3890   24.0040 C   0  0  0  0  0  3  0  0  0  0  0  0
  -26.2460  -31.6540   25.3440 C   0  0  1  0  0  0  0  0  0  0  0  0
  -25.0540  -31.4050   26.2970 C   0  0  0  0  0  1  0  0  0  0  0  0
  -26.9030  -30.2870   25.0400 C   0  0  0  0  0  1  0  0  0  0  0  0
  -27.3000  -32.4940   26.1040 C   0  0  0  0  0  1  0  0  0  0  0  0
  -25.4850  -33.7890   24.2660 N   0  0  0  0  0  0  0  0  0  0  0  0
  -25.8520  -34.8270   23.5030 C   0  0  0  0  0  0  0  0  0  0  0  0
  -26.5940  -34.7070   22.5240 O   0  0  0  0  0  0  0  0  0  0  0  0
  -24.8270  -33.9540   25.0150 H   0  0  0  0  0  0  0  0  0  0  0  0
  -24.1150  -36.5740   22.9880 C   0  0  0  0  0  1  0  0  0  0  0  0
  -25.3120  -36.2190   23.8850 C   0  0  0  0  0  3  0  0  0  0  0  0
  -27.3720  -37.1780   24.8170 C   0  0  0  0  0  1  0  0  0  0  0  0
  -26.3300  -37.2880   23.7990 N   0  0  0  0  0  0  0  0  0  0  0  0
  -25.8980  -38.2050   23.8840 H   0  0  0  0  0  0  0  0  0  0  0  0
  1 10  1  0
  2  1  2  0
  3  5  1  0
  5 53  1  0
  5  4  1  0
  6  3  1  0
  6  9  1  0
  7  8  1  6
  7  6  1  0
  7  2  1  0
  9  4  1  0
  9  1  1  0
 10 11  1  0
 10 13  1  0
 13 12  1  0
 14  7  1  0
 16 14  1  0
 16 15  2  0
 17 23  1  0
 17 15  1  0
 18 23  1  0
 19 20  1  0
 19 18  1  0
 21 20  1  0
 21 28  1  0
 21 22  1  0
 23 22  1  0
 24 17  2  0
 25 26  2  0
 26 45  1  0
 27 26  1  0
 27 30  1  0
 28 29  1  0
 28 25  1  0
 29 27  2  0
 30 31  1  0
 31 32  2  0
 33 36  1  0
 33 32  1  0
 34 33  2  0
 35 34  1  0
 35 30  2  0
 36 37  1  0
 37 38  1  0
 38 39  2  0
 40 39  1  0
 40 44  1  0
 41 40  2  0
 42 37  2  0
 42 41  1  0
 43 42  1  0
 45 46  1  0
 46 49  1  0
 46 48  1  0
 47 45  2  0
 50 25  1  0
 50 51  1  0
 52 50  1  0
 54 56  1  0
 54 53  1  0
 55 66  2  0
 56 61  1  0
 57 65  1  0
 57 67  1  0
 58 60  1  0
 59 65  1  0
 60 61  2  0
 60 59  1  0
 62 56  2  0
 63 62  1  0
 63 58  2  0
 64 58  1  0
 64 57  1  0
 65 55  1  0
 67 69  2  0
 68 67  1  0
 70 68  1  0
 71 80  2  0
 71 76  1  0
 72 68  1  0
 72 76  1  0
 73 72  1  0
 74 75  1  0
 74 73  1  0
 75 71  1  0
 76 77  2  0
 77 78  1  0
 79 78  2  0
 80 79  1  0
 81 55  1  0
 81 86  1  0
 81 82  1  0
 82 85  1  1
 82 83  1  0
 84 82  1  0
 86 89  1  0
 87 91  1  0
 87 86  1  0
 88 87  2  0
 91 90  1  0
 93 94  1  0
 93 91  1  0
 93 92  1  0
M  ISO  4  15 100  17 100  53 101  54 101
M  END
>  <TORSDO>  (90) 
F 20

>  <SCORE>  (90) 
-12.626

>  <name>  (90) 
89

>  <ligand_id>  (90) 
89

>  <original_smiles>  (90) 
[H]C(C(=O)N1C([H])([H])C([H])([H])C([H])([H])C([H])(n2nc(-c3c([H])c([H])c(Oc4c([H])c([H])c(F)c([H])c4F)c([H])c3[H])c(C(=O)N([H])[H])c2N([H])[H])C1([H])[H])=C([H])C([H])([H])C1(C([H])([H])[H])C([H])([H])C(=[N+]([H])C([H])([H])C([H])([H])[H])N2C([H])([H])C([H])(C([H])([H])Oc3c([H])c([H])c4c(c3[H])C([H])([H])N(C(=O)C([H])(N([H])C(=O)C([H])(N([H])C([H])([H])[H])C([H])([H])[H])C(C([H])([H])[H])(C([H])([H])[H])C([H])([H])[H])C([H])(C(=O)N([H])C3([H])c5c([H])c([H])c([H])c([H])c5C([H])([H])C([H])([H])C3([H])[H])C4([H])[H])C([H])([H])C21[H]

>  <smiles>  (90) 
[H]C(C(=O)N1C([H])([H])C([H])([H])C([H])([H])C([H])(n2nc(-c3c([H])c([H])c(Oc4c([H])c([H])c(F)c([H])c4F)c([H])c3[H])c(C(=O)N([H])[H])c2N([H])[H])C1([H])[H])=C([H])C([H])([H])C1(C([H])([H])[H])C([H])([H])C(=[N+]([H])C([H])([H])C([H])([H])[H])N2C([H])([H])C([H])(C([H])([H])Oc3c([H])c([H])c4c(c3[H])C([H])([H])N(C(=O)C([H])(N([H])C(=O)C([H])(N([H])C([H])([H])[H])C([H])([H])[H])C(C([H])([H])[H])(C([H])([H])[H])C([H])([H])[H])C([H])(C(=O)N([H])C3([H])c5c([H])c([H])c([H])c([H])c5C([H])([H])C([H])([H])C3([H])[H])C4([H])[H])C([H])([H])C21[H]

$$$$
90:0:0
     RDKit          3D

 89 97  0  0  1  0  0  0  0  0999 V2000
  -29.6400  -18.4800   18.5700 C   0  0  0  0  0  2  0  0  0  0  0  0
  -29.2470  -20.9330   18.5690 C   0  0  0  0  0  2  0  0  0  0  0  0
  -29.8210  -18.3820   20.1110 C   0  0  0  0  0  3  0  0  0  0  0  0
  -28.7750  -21.1270   20.0240 C   0  0  0  0  0  3  0  0  0  0  0  0
  -28.9060  -19.6040   16.6070 C   0  0  0  0  0  1  0  0  0  0  0  0
  -28.8250  -19.6100   18.0660 N   0  0  0  0  0  0  0  0  0  0  0  0
  -29.2950  -19.7810   20.7980 N   0  0  0  0  0  4  0  0  0  0  0  0
  -30.0390  -20.0740   21.4080 H   0  0  0  0  0  0  0  0  0  0  0  0
  -28.5350  -19.5210   21.4040 H   0  0  0  0  0  0  0  0  0  0  0  0
  -29.6460  -16.7070   20.6870 C   0  0  0  0  0  2  0  0  0  0  0  0
  -30.4710  -15.2190   20.3310 C   0  0  0  0  0  0  0  0  0  0  0  0
  -30.4540  -12.7980   19.4100 C   0  0  0  0  0  2  0  0  0  0  0  0
  -29.5190  -12.6770   18.1780 C   0  0  0  0  0  2  0  0  0  0  0  0
  -28.0630  -12.4210   18.6110 C   0  0  0  0  0  2  0  0  0  0  0  0
  -27.6370  -13.3410   19.7810 C   0  0  0  0  0  3  0  0  0  0  0  0
  -28.6940  -13.4140   20.9020 C   0  0  0  0  0  2  0  0  0  0  0  0
  -29.9420  -13.9030   20.2960 N   0  0  0  0  0  0  0  0  0  0  0  0
  -31.6660  -15.2590   20.0030 O   0  0  0  0  0  0  0  0  0  0  0  0
  -25.2660  -13.8910   20.5530 C   0  0  0  0  0  0  0  0  0  0  0  0
  -24.2080  -13.1070   20.9210 C   0  0  0  0  0  0  0  0  0  0  0  0
  -24.6790  -11.7590   20.8740 C   0  0  0  0  0  0  0  0  0  0  0  0
  -26.3100  -13.0210   20.2910 N   0  0  0  0  0  0  0  0  0  0  0  0
  -25.9680  -11.7310   20.5500 N   0  0  0  0  0  0  0  0  0  0  0  0
  -23.9560  -10.4920   21.0530 C   0  0  0  0  0  0  0  0  0  0  0  0
  -24.3840   -9.5200   21.9830 C   0  0  0  0  0  3  0  0  0  0  0  0
  -23.6580   -8.3210   22.1550 C   0  0  0  0  0  3  0  0  0  0  0  0
  -22.4900   -8.0850   21.3910 C   0  0  0  0  0  0  0  0  0  0  0  0
  -22.0810   -9.0450   20.4480 C   0  0  0  0  0  3  0  0  0  0  0  0
  -22.8080  -10.2350   20.2770 C   0  0  0  0  0  3  0  0  0  0  0  0
  -21.7360   -6.9390   21.4690 O   0  0  0  0  0  0  0  0  0  0  0  0
  -21.6650   -6.2010   22.6240 C   0  0  0  0  0  0  0  0  0  0  0  0
  -21.1920   -6.7560   23.8340 C   0  0  0  0  0  3  0  0  0  0  0  0
  -21.0710   -5.9450   24.9810 C   0  0  0  0  0  3  0  0  0  0  0  0
  -21.4100   -4.5800   24.9170 C   0  0  0  0  0  0  0  0  0  0  0  0
  -21.8740   -4.0250   23.7120 C   0  0  0  0  0  3  0  0  0  0  0  0
  -21.9990   -4.8320   22.5680 C   0  0  0  0  0  0  0  0  0  0  0  0
  -22.4270   -4.2880   21.4040 F   0  0  0  0  0  0  0  0  0  0  0  0
  -21.2860   -3.7990   26.0150 F   0  0  0  0  0  0  0  0  0  0  0  0
  -22.8120  -13.5770   21.2030 C   0  0  0  0  0  0  0  0  0  0  0  0
  -22.0880  -12.8630   22.0580 N   0  0  0  0  0  0  0  0  0  0  0  0
  -22.3740  -14.6130   20.7040 O   0  0  0  0  0  0  0  0  0  0  0  0
  -22.4580  -12.0250   22.4800 H   0  0  0  0  0  0  0  0  0  0  0  0
  -21.1490  -13.1550   22.2890 H   0  0  0  0  0  0  0  0  0  0  0  0
  -25.4270  -15.2650   20.3930 N   0  0  0  0  0  0  0  0  0  0  0  0
  -24.6590  -15.9170   20.5130 H   0  0  0  0  0  0  0  0  0  0  0  0
  -26.2670  -15.7040   20.0410 H   0  0  0  0  0  0  0  0  0  0  0  0
  -28.8860  -22.8370   20.5390 C   0  0  0  0  0  3  0  0  0  0  0  0
  -28.0130  -24.3200   20.0580 C   0  0  0  0  0  3  0  0  0  0  0  0
  -28.2020  -25.9170   20.3530 O   0  0  0  0  0  0  0  0  0  0  0  0
  -24.6120  -31.8480   23.2520 C   0  0  0  0  0  0  0  0  0  0  0  0
  -27.1800  -26.9880   20.2600 C   0  0  0  0  0  0  0  0  0  0  0  0
  -23.4180  -30.4400   21.6210 C   0  0  0  0  0  3  0  0  0  0  0  0
  -24.8710  -28.8350   20.2060 C   0  0  0  0  0  0  0  0  0  0  0  0
  -25.9830  -30.6630   21.4740 C   0  0  0  0  0  2  0  0  0  0  0  0
  -26.0550  -29.2540   20.8240 C   0  0  0  0  0  0  0  0  0  0  0  0
  -27.2030  -28.3490   20.8300 C   0  0  0  0  0  3  0  0  0  0  0  0
  -25.9680  -26.7110   19.5900 C   0  0  0  0  0  3  0  0  0  0  0  0
  -24.8490  -27.5820   19.5700 C   0  0  0  0  0  3  0  0  0  0  0  0
  -23.6480  -29.7490   20.2480 C   0  0  0  0  0  2  0  0  0  0  0  0
  -24.6920  -31.0090   22.1690 N   0  0  0  0  0  0  0  0  0  0  0  0
  -23.5230  -32.1400   23.7720 O   0  0  0  0  0  0  0  0  0  0  0  0
  -22.7260  -29.4490   22.5900 C   0  0  0  0  0  0  0  0  0  0  0  0
  -21.3970  -29.2780   22.4600 N   0  0  0  0  0  0  0  0  0  0  0  0
  -23.3900  -28.8320   23.4270 O   0  0  0  0  0  0  0  0  0  0  0  0
  -20.9150  -29.8270   21.7610 H   0  0  0  0  0  0  0  0  0  0  0  0
  -18.0170  -28.0660   22.9630 C   0  0  0  0  0  0  0  0  0  0  0  0
  -20.5730  -28.3450   23.2360 C   0  0  0  0  0  3  0  0  0  0  0  0
  -20.6830  -26.9090   22.6740 C   0  0  0  0  0  2  0  0  0  0  0  0
  -19.5870  -26.5730   21.6580 C   0  0  0  0  0  2  0  0  0  0  0  0
  -18.2020  -26.7140   22.2950 C   0  0  0  0  0  2  0  0  0  0  0  0
  -19.1290  -28.8390   23.3890 C   0  0  0  0  0  0  0  0  0  0  0  0
  -18.8990  -30.1030   23.9760 C   0  0  0  0  0  3  0  0  0  0  0  0
  -17.5890  -30.5930   24.1400 C   0  0  0  0  0  3  0  0  0  0  0  0
  -16.4920  -29.8190   23.7270 C   0  0  0  0  0  3  0  0  0  0  0  0
  -16.7060  -28.5570   23.1440 C   0  0  0  0  0  3  0  0  0  0  0  0
  -25.8830  -32.4930   23.8820 C   0  0  0  0  0  3  0  0  0  0  0  0
  -26.3820  -31.7420   25.1790 C   0  0  1  0  0  0  0  0  0  0  0  0
  -25.2760  -31.5270   26.2380 C   0  0  0  0  0  1  0  0  0  0  0  0
  -26.9640  -30.3540   24.8260 C   0  0  0  0  0  1  0  0  0  0  0  0
  -27.5300  -32.5410   25.8410 C   0  0  0  0  0  1  0  0  0  0  0  0
  -25.5700  -33.8980   24.1990 N   0  0  0  0  0  0  0  0  0  0  0  0
  -25.9070  -34.9490   23.4390 C   0  0  0  0  0  0  0  0  0  0  0  0
  -26.5770  -34.8380   22.4100 O   0  0  0  0  0  0  0  0  0  0  0  0
  -24.9750  -34.0570   24.9980 H   0  0  0  0  0  0  0  0  0  0  0  0
  -24.1900  -36.7550   23.0760 C   0  0  0  0  0  1  0  0  0  0  0  0
  -25.4270  -36.3430   23.8910 C   0  0  0  0  0  3  0  0  0  0  0  0
  -27.5600  -37.2250   24.7320 C   0  0  0  0  0  1  0  0  0  0  0  0
  -26.4660  -37.3910   23.7780 N   0  0  0  0  0  0  0  0  0  0  0  0
  -26.0630  -38.3140   23.9180 H   0  0  0  0  0  0  0  0  0  0  0  0
  1  3  1  0
  2  4  1  0
  3 10  1  0
  3  7  1  0
  4 47  1  0
  4  7  1  0
  5  6  1  0
  6  2  1  0
  6  1  1  0
  7  9  1  0
  7  8  1  0
 11 10  1  0
 12 17  1  0
 13 14  1  0
 13 12  1  0
 15 14  1  0
 15 22  1  0
 15 16  1  0
 17 11  1  0
 17 16  1  0
 18 11  2  0
 19 20  2  0
 20 39  1  0
 21 20  1  0
 21 24  1  0
 22 23  1  0
 22 19  1  0
 23 21  2  0
 24 25  1  0
 25 26  2  0
 27 30  1  0
 27 26  1  0
 28 27  2  0
 29 28  1  0
 29 24  2  0
 30 31  1  0
 31 32  1  0
 32 33  2  0
 34 33  1  0
 34 38  1  0
 35 34  2  0
 36 31  2  0
 36 35  1  0
 37 36  1  0
 39 40  1  0
 40 43  1  0
 40 42  1  0
 41 39  2  0
 44 45  1  0
 44 19  1  0
 46 44  1  0
 48 49  1  0
 48 47  2  0
 50 61  2  0
 51 49  1  0
 51 56  1  0
 52 60  1  0
 52 62  1  0
 53 59  1  0
 53 55  1  0
 54 60  1  0
 55 56  2  0
 55 54  1  0
 57 51  2  0
 58 57  1  0
 58 53  2  0
 59 52  1  0
 60 50  1  0
 62 64  2  0
 63 62  1  0
 65 63  1  0
 66 75  2  0
 66 71  1  0
 67 63  1  0
 67 71  1  0
 68 67  1  0
 69 70  1  0
 69 68  1  0
 70 66  1  0
 71 72  2  0
 72 73  1  0
 74 73  2  0
 75 74  1  0
 76 50  1  0
 76 81  1  0
 76 77  1  0
 77 80  1  1
 77 78  1  0
 79 77  1  0
 81 84  1  0
 82 86  1  0
 82 81  1  0
 83 82  2  0
 86 85  1  0
 88 86  1  0
 88 89  1  0
 88 87  1  0
M  ISO  4  10 100  11 100  48 101  49 101
M  END
>  <TORSDO>  (91) 
F 19

>  <SCORE>  (91) 
-16.253

>  <name>  (91) 
90

>  <ligand_id>  (91) 
90

>  <original_smiles>  (91) 
[H]c1c([H])c([H])c2c(c1[H])C([H])([H])C([H])([H])C([H])([H])C2([H])N([H])C(=O)C1([H])N(C(=O)C([H])(N([H])C(=O)C([H])(N([H])C([H])([H])[H])C([H])([H])[H])C(C([H])([H])[H])(C([H])([H])[H])C([H])([H])[H])C([H])([H])c2c([H])c(OC([H])([H])C([H])([H])C3([H])C([H])([H])N(C([H])([H])[H])C([H])([H])C([H])(C([H])([H])C(=O)N4C([H])([H])C([H])([H])C([H])([H])C([H])(n5nc(-c6c([H])c([H])c(Oc7c([H])c([H])c(F)c([H])c7F)c([H])c6[H])c(C(=O)N([H])[H])c5N([H])[H])C4([H])[H])[N+]3([H])[H])c([H])c([H])c2C1([H])[H]

>  <smiles>  (91) 
[H]c1c([H])c([H])c2c(c1[H])C([H])([H])C([H])([H])C([H])([H])C2([H])N([H])C(=O)C1([H])N(C(=O)C([H])(N([H])C(=O)C([H])(N([H])C([H])([H])[H])C([H])([H])[H])C(C([H])([H])[H])(C([H])([H])[H])C([H])([H])[H])C([H])([H])c2c([H])c(OC([H])([H])C([H])([H])C3([H])C([H])([H])N(C([H])([H])[H])C([H])([H])C([H])(C([H])([H])C(=O)N4C([H])([H])C([H])([H])C([H])([H])C([H])(n5nc(-c6c([H])c([H])c(Oc7c([H])c([H])c(F)c([H])c7F)c([H])c6[H])c(C(=O)N([H])[H])c5N([H])[H])C4([H])[H])[N+]3([H])[H])c([H])c([H])c2C1([H])[H]

$$$$
91:0:0
     RDKit          3D

 99108  0  0  1  0  0  0  0  0999 V2000
  -28.6410  -20.6890   20.7820 C   0  0  0  0  0  2  0  0  0  0  0  0
  -28.9610  -21.5380   19.5550 C   0  0  0  0  0  2  0  0  0  0  0  0
  -29.4510  -21.9420   22.8860 C   0  0  0  0  0  2  0  0  0  0  0  0
  -31.2580  -22.8590   21.6300 C   0  0  0  0  0  2  0  0  0  0  0  0
  -29.7860  -20.9140   21.7880 C   0  0  0  0  0  3  0  0  0  0  0  0
  -30.4870  -21.5390   19.5000 C   0  0  0  0  0  3  0  0  0  0  0  0
  -30.0170  -23.2870   22.4300 C   0  0  0  0  0  3  0  0  0  0  0  0
  -30.9960  -21.4670   20.9820 C   0  0  1  0  0  0  0  0  0  0  0  0
  -31.0850  -22.6340   18.6000 C   0  0  0  0  0  1  0  0  0  0  0  0
  -29.0210  -24.0570   21.6470 N   0  0  0  0  0  4  0  0  0  0  0  0
  -28.1620  -24.0620   22.1770 H   0  0  0  0  0  0  0  0  0  0  0  0
  -28.8520  -23.5590   20.7880 H   0  0  0  0  0  0  0  0  0  0  0  0
  -29.3830  -25.4650   21.3530 C   0  0  0  0  0  2  0  0  0  0  0  0
  -28.2770  -26.2380   20.6040 C   0  0  0  0  0  2  0  0  0  0  0  0
  -28.0170  -25.7760   19.1490 C   0  0  0  0  0  2  0  0  0  0  0  0
  -27.7180  -26.8590   18.2660 O   0  0  0  0  0  0  0  0  0  0  0  0
  -24.7760  -31.4400   22.7880 C   0  0  0  0  0  0  0  0  0  0  0  0
  -26.5960  -27.5830   18.5760 C   0  0  0  0  0  0  0  0  0  0  0  0
  -23.2240  -30.3960   21.1660 C   0  0  0  0  0  3  0  0  0  0  0  0
  -24.3240  -29.0960   19.2640 C   0  0  0  0  0  0  0  0  0  0  0  0
  -25.6920  -30.7200   20.5900 C   0  0  0  0  0  2  0  0  0  0  0  0
  -25.5880  -29.4880   19.7190 C   0  0  0  0  0  0  0  0  0  0  0  0
  -26.7300  -28.7400   19.3680 C   0  0  0  0  0  3  0  0  0  0  0  0
  -25.3200  -27.1890   18.1230 C   0  0  0  0  0  3  0  0  0  0  0  0
  -24.1810  -27.9460   18.4630 C   0  0  0  0  0  3  0  0  0  0  0  0
  -23.1570  -29.9650   19.6750 C   0  0  0  0  0  2  0  0  0  0  0  0
  -24.5930  -30.8530   21.5720 N   0  0  0  0  0  0  0  0  0  0  0  0
  -23.8190  -31.6460   23.5500 O   0  0  0  0  0  0  0  0  0  0  0  0
  -22.6850  -29.2400   22.0350 C   0  0  0  0  0  0  0  0  0  0  0  0
  -21.3530  -29.0700   22.0390 N   0  0  0  0  0  0  0  0  0  0  0  0
  -23.4530  -28.5050   22.6590 O   0  0  0  0  0  0  0  0  0  0  0  0
  -20.7930  -29.7190   21.5030 H   0  0  0  0  0  0  0  0  0  0  0  0
  -18.0630  -27.6870   22.5960 C   0  0  0  0  0  0  0  0  0  0  0  0
  -20.6200  -28.0240   22.7490 C   0  0  0  0  0  3  0  0  0  0  0  0
  -20.7400  -26.6660   22.0190 C   0  0  0  0  0  2  0  0  0  0  0  0
  -19.5910  -26.4040   21.0400 C   0  0  0  0  0  2  0  0  0  0  0  0
  -18.2470  -26.4230   21.7730 C   0  0  0  0  0  2  0  0  0  0  0  0
  -19.1770  -28.4470   23.0410 C   0  0  0  0  0  0  0  0  0  0  0  0
  -18.9490  -29.6320   23.7730 C   0  0  0  0  0  3  0  0  0  0  0  0
  -17.6400  -30.0610   24.0610 C   0  0  0  0  0  3  0  0  0  0  0  0
  -16.5410  -29.2960   23.6320 C   0  0  0  0  0  3  0  0  0  0  0  0
  -16.7530  -28.1100   22.9050 C   0  0  0  0  0  3  0  0  0  0  0  0
  -26.1860  -31.9040   23.2720 C   0  0  0  0  0  3  0  0  0  0  0  0
  -26.9030  -30.8500   24.2030 C   0  0  1  0  0  0  0  0  0  0  0  0
  -26.0280  -30.3680   25.3830 C   0  0  0  0  0  1  0  0  0  0  0  0
  -27.3270  -29.6070   23.3870 C   0  0  0  0  0  1  0  0  0  0  0  0
  -28.1990  -31.4610   24.7840 C   0  0  0  0  0  1  0  0  0  0  0  0
  -26.0130  -33.1840   23.9690 N   0  0  0  0  0  0  0  0  0  0  0  0
  -26.3040  -34.3820   23.4440 C   0  0  0  0  0  0  0  0  0  0  0  0
  -26.8190  -34.5180   22.3310 O   0  0  0  0  0  0  0  0  0  0  0  0
  -25.5390  -33.1540   24.8620 H   0  0  0  0  0  0  0  0  0  0  0  0
  -24.6750  -36.2710   23.7650 C   0  0  0  0  0  1  0  0  0  0  0  0
  -25.9700  -35.6270   24.2870 C   0  0  0  0  0  3  0  0  0  0  0  0
  -28.2410  -36.1890   25.0310 C   0  0  0  0  0  1  0  0  0  0  0  0
  -27.0550  -36.6320   24.3040 N   0  0  0  0  0  0  0  0  0  0  0  0
  -26.7340  -37.5010   24.7220 H   0  0  0  0  0  0  0  0  0  0  0  0
  -32.2960  -20.6110   21.1580 C   0  0  0  0  0  2  0  0  0  0  0  0
  -32.4640  -19.3990   20.2450 C   0  0  0  0  0  0  0  0  0  0  0  0
  -31.9940  -18.2580   20.5760 N   0  0  0  0  0  0  0  0  0  0  0  0
  -34.7530  -19.5990   19.1350 C   0  0  0  0  0  1  0  0  0  0  0  0
  -33.2310  -19.7060   18.9530 C   0  0  0  0  0  2  0  0  0  0  0  0
  -32.0930  -17.1470   19.6450 C   0  0  0  0  0  2  0  0  0  0  0  0
  -31.3470  -15.9050   20.1710 C   0  0  0  0  0  2  0  0  0  0  0  0
  -31.8130  -14.6020   19.4910 C   0  0  0  0  0  0  0  0  0  0  0  0
  -31.4260  -12.2250   18.9390 C   0  0  0  0  0  2  0  0  0  0  0  0
  -30.4350  -12.0860   17.7690 C   0  0  0  0  0  2  0  0  0  0  0  0
  -28.9830  -12.0900   18.2820 C   0  0  0  0  0  2  0  0  0  0  0  0
  -28.6970  -13.2680   19.2510 C   0  0  0  0  0  3  0  0  0  0  0  0
  -29.7940  -13.3680   20.3360 C   0  0  0  0  0  2  0  0  0  0  0  0
  -31.0990  -13.4610   19.6650 N   0  0  0  0  0  0  0  0  0  0  0  0
  -32.8240  -14.6360   18.7820 O   0  0  0  0  0  0  0  0  0  0  0  0
  -26.4790  -14.1640   20.2070 C   0  0  0  0  0  0  0  0  0  0  0  0
  -25.3440  -13.5290   20.6350 C   0  0  0  0  0  0  0  0  0  0  0  0
  -25.5990  -12.1310   20.4940 C   0  0  0  0  0  0  0  0  0  0  0  0
  -27.3620  -13.1610   19.8390 N   0  0  0  0  0  0  0  0  0  0  0  0
  -26.8390  -11.9290   20.0640 N   0  0  0  0  0  0  0  0  0  0  0  0
  -24.7160  -10.9730   20.6900 C   0  0  0  0  0  0  0  0  0  0  0  0
  -25.0550   -9.9270   21.5760 C   0  0  0  0  0  3  0  0  0  0  0  0
  -24.1810   -8.8340   21.7600 C   0  0  0  0  0  3  0  0  0  0  0  0
  -22.9530   -8.7800   21.0590 C   0  0  0  0  0  0  0  0  0  0  0  0
  -22.6310   -9.8140   20.1610 C   0  0  0  0  0  3  0  0  0  0  0  0
  -23.5030  -10.8990   19.9750 C   0  0  0  0  0  3  0  0  0  0  0  0
  -22.0540   -7.7460   21.1560 O   0  0  0  0  0  0  0  0  0  0  0  0
  -21.8890   -7.0430   22.3220 C   0  0  0  0  0  0  0  0  0  0  0  0
  -21.5050   -7.6760   23.5250 C   0  0  0  0  0  3  0  0  0  0  0  0
  -21.2780   -6.9060   24.6830 C   0  0  0  0  0  3  0  0  0  0  0  0
  -21.4230   -5.5060   24.6400 C   0  0  0  0  0  0  0  0  0  0  0  0
  -21.7990   -4.8750   23.4410 C   0  0  0  0  0  3  0  0  0  0  0  0
  -22.0270   -5.6410   22.2850 C   0  0  0  0  0  0  0  0  0  0  0  0
  -22.3690   -5.0250   21.1280 F   0  0  0  0  0  0  0  0  0  0  0  0
  -21.1980   -4.7660   25.7500 F   0  0  0  0  0  0  0  0  0  0  0  0
  -24.0600  -14.1800   21.0620 C   0  0  0  0  0  0  0  0  0  0  0  0
  -23.3360  -13.5580   21.9860 N   0  0  0  0  0  0  0  0  0  0  0  0
  -23.7150  -15.2710   20.6110 O   0  0  0  0  0  0  0  0  0  0  0  0
  -23.6290  -12.6720   22.3720 H   0  0  0  0  0  0  0  0  0  0  0  0
  -22.4760  -13.9750   22.3130 H   0  0  0  0  0  0  0  0  0  0  0  0
  -26.8260  -15.5070   20.0820 N   0  0  0  0  0  0  0  0  0  0  0  0
  -26.1790  -16.2570   20.2990 H   0  0  0  0  0  0  0  0  0  0  0  0
  -27.7110  -15.8400   19.7200 H   0  0  0  0  0  0  0  0  0  0  0  0
  2  1  1  0
  4  7  1  0
  5  1  1  0
  5  3  1  0
  6  9  1  0
  6  2  1  0
  6  8  1  0
  7 10  1  0
  7  3  1  0
  8 57  1  6
  8  4  1  0
  8  5  1  0
 10 11  1  0
 12 10  1  0
 13 10  1  0
 14 13  1  0
 15 14  1  0
 16 18  1  0
 16 15  1  0
 17 28  2  0
 18 23  1  0
 19 27  1  0
 19 29  1  0
 20 26  1  0
 20 22  1  0
 21 27  1  0
 22 21  1  0
 23 22  2  0
 24 25  1  0
 24 18  2  0
 25 20  2  0
 26 19  1  0
 27 17  1  0
 29 30  1  0
 29 31  2  0
 32 30  1  0
 33 42  2  0
 33 38  1  0
 34 30  1  0
 34 38  1  0
 35 34  1  0
 36 37  1  0
 36 35  1  0
 37 33  1  0
 38 39  2  0
 39 40  1  0
 41 40  2  0
 42 41  1  0
 43 17  1  0
 43 48  1  0
 43 44  1  0
 44 47  1  1
 44 45  1  0
 46 44  1  0
 48 51  1  0
 49 48  1  0
 49 53  1  0
 50 49  2  0
 53 52  1  0
 53 55  1  0
 55 56  1  0
 55 54  1  0
 58 59  2  0
 58 57  1  0
 61 60  1  0
 61 58  1  0
 62 63  1  0
 62 59  1  0
 64 70  1  0
 64 63  1  0
 65 70  1  0
 66 67  1  0
 66 65  1  0
 68 67  1  0
 68 75  1  0
 68 69  1  0
 70 69  1  0
 71 64  2  0
 72 73  2  0
 73 92  1  0
 74 73  1  0
 74 77  1  0
 75 76  1  0
 75 72  1  0
 76 74  2  0
 77 78  1  0
 78 79  2  0
 80 83  1  0
 80 79  1  0
 81 80  2  0
 82 81  1  0
 82 77  2  0
 83 84  1  0
 84 85  1  0
 85 86  2  0
 87 86  1  0
 87 91  1  0
 88 87  2  0
 89 84  2  0
 89 88  1  0
 90 89  1  0
 92 93  1  0
 93 96  1  0
 93 95  1  0
 94 92  2  0
 97 72  1  0
 97 98  1  0
 99 97  1  0
M  ISO  4  15 101  16 101  63 100  64 100
M  END
>  <TORSDO>  (92) 
F 25

>  <SCORE>  (92) 
-9.893

>  <name>  (92) 
91

>  <ligand_id>  (92) 
91

>  <original_smiles>  (92) 
[H]c1c([H])c([H])c2c(c1[H])C([H])([H])C([H])([H])C([H])([H])C2([H])N([H])C(=O)C1([H])N(C(=O)C([H])(N([H])C(=O)C([H])(N([H])C([H])([H])[H])C([H])([H])[H])C(C([H])([H])[H])(C([H])([H])[H])C([H])([H])[H])C([H])([H])c2c([H])c(OC([H])([H])C([H])([H])C([H])([H])[N+]([H])([H])C3([H])C([H])([H])C4([H])C([H])([H])C([H])([H])C([H])(C([H])([H])[H])C4(C([H])([H])C(=NC([H])([H])C([H])([H])C(=O)N4C([H])([H])C([H])([H])C([H])([H])C([H])(n5nc(-c6c([H])c([H])c(Oc7c([H])c([H])c(F)c([H])c7F)c([H])c6[H])c(C(=O)N([H])[H])c5N([H])[H])C4([H])[H])C([H])([H])C([H])([H])[H])C3([H])[H])c([H])c([H])c2C1([H])[H]

>  <smiles>  (92) 
[H]c1c([H])c([H])c2c(c1[H])C([H])([H])C([H])([H])C([H])([H])C2([H])N([H])C(=O)C1([H])N(C(=O)C([H])(N([H])C(=O)C([H])(N([H])C([H])([H])[H])C([H])([H])[H])C(C([H])([H])[H])(C([H])([H])[H])C([H])([H])[H])C([H])([H])c2c([H])c(OC([H])([H])C([H])([H])C([H])([H])[N+]([H])([H])C3([H])C([H])([H])C4([H])C([H])([H])C([H])([H])C([H])(C([H])([H])[H])C4(C([H])([H])C(=NC([H])([H])C([H])([H])C(=O)N4C([H])([H])C([H])([H])C([H])([H])C([H])(n5nc(-c6c([H])c([H])c(Oc7c([H])c([H])c(F)c([H])c7F)c([H])c6[H])c(C(=O)N([H])[H])c5N([H])[H])C4([H])[H])C([H])([H])C([H])([H])[H])C3([H])[H])c([H])c([H])c2C1([H])[H]

$$$$
92:0:0
     RDKit          3D

 94103  0  0  1  0  0  0  0  0999 V2000
  -29.0030  -19.9020   17.7610 C   0  0  0  0  0  2  0  0  0  0  0  0
  -28.8550  -21.0740   16.8240 C   0  0  0  0  0  3  0  0  0  0  0  0
  -28.9040  -20.4880   19.1940 C   0  0  0  0  0  3  0  0  0  0  0  0
  -29.9980  -21.6590   15.9850 C   0  0  0  0  0  3  0  0  0  0  0  0
  -28.9160  -22.2950   17.6880 C   0  0  0  0  0  3  0  0  0  0  0  0
  -31.4130  -21.0830   16.0200 C   0  0  0  0  0  1  0  0  0  0  0  0
  -29.4370  -24.0820   16.0140 C   0  0  0  0  0  1  0  0  0  0  0  0
  -29.2960  -21.9230   19.0710 N   0  0  0  0  0  0  0  0  0  0  0  0
  -29.8940  -22.8930   16.7680 N   0  0  2  0  0  4  0  0  0  0  0  0
  -30.7560  -23.0950   17.2510 H   0  0  0  0  0  0  0  0  0  0  0  0
  -29.7590  -19.6480   20.1970 C   0  0  0  0  0  2  0  0  0  0  0  0
  -29.3200  -18.1500   20.3270 C   0  0  0  0  0  3  0  0  0  0  0  0
  -30.4030  -17.1500   20.8380 C   0  0  0  0  0  3  0  0  0  0  0  0
  -29.8810  -15.6960   21.1370 C   0  0  0  0  0  2  0  0  0  0  0  0
  -30.6210  -14.4990   20.4610 C   0  0  0  0  0  0  0  0  0  0  0  0
  -30.3450  -12.3690   19.2250 C   0  0  0  0  0  2  0  0  0  0  0  0
  -29.3670  -12.6010   18.0530 C   0  0  0  0  0  2  0  0  0  0  0  0
  -27.9020  -12.4440   18.5100 C   0  0  0  0  0  2  0  0  0  0  0  0
  -27.5910  -13.2280   19.8110 C   0  0  0  0  0  3  0  0  0  0  0  0
  -28.6750  -12.9650   20.8810 C   0  0  0  0  0  2  0  0  0  0  0  0
  -29.9810  -13.3070   20.2990 N   0  0  0  0  0  0  0  0  0  0  0  0
  -31.7450  -14.6930   19.9830 O   0  0  0  0  0  0  0  0  0  0  0  0
  -25.1980  -13.7960   20.5730 C   0  0  0  0  0  0  0  0  0  0  0  0
  -24.1450  -13.0060   20.9480 C   0  0  0  0  0  0  0  0  0  0  0  0
  -24.6220  -11.6610   20.8890 C   0  0  0  0  0  0  0  0  0  0  0  0
  -26.2510  -12.9310   20.3110 N   0  0  0  0  0  0  0  0  0  0  0  0
  -25.9070  -11.6400   20.5630 N   0  0  0  0  0  0  0  0  0  0  0  0
  -23.9120  -10.3890   21.0700 C   0  0  0  0  0  0  0  0  0  0  0  0
  -24.3470   -9.4280   22.0100 C   0  0  0  0  0  3  0  0  0  0  0  0
  -23.6390   -8.2190   22.1790 C   0  0  0  0  0  3  0  0  0  0  0  0
  -22.4810   -7.9640   21.4070 C   0  0  0  0  0  0  0  0  0  0  0  0
  -22.0670   -8.9130   20.4550 C   0  0  0  0  0  3  0  0  0  0  0  0
  -22.7760  -10.1120   20.2840 C   0  0  0  0  0  3  0  0  0  0  0  0
  -21.7400   -6.8090   21.4880 O   0  0  0  0  0  0  0  0  0  0  0  0
  -21.6790   -6.0710   22.6430 C   0  0  0  0  0  0  0  0  0  0  0  0
  -21.1710   -6.6110   23.8460 C   0  0  0  0  0  3  0  0  0  0  0  0
  -21.0590   -5.7950   24.9900 C   0  0  0  0  0  3  0  0  0  0  0  0
  -21.4460   -4.4440   24.9330 C   0  0  0  0  0  0  0  0  0  0  0  0
  -21.9450   -3.9030   23.7350 C   0  0  0  0  0  3  0  0  0  0  0  0
  -22.0580   -4.7140   22.5930 C   0  0  0  0  0  0  0  0  0  0  0  0
  -22.5210   -4.1820   21.4360 F   0  0  0  0  0  0  0  0  0  0  0  0
  -21.3300   -3.6590   26.0310 F   0  0  0  0  0  0  0  0  0  0  0  0
  -22.7470  -13.4620   21.2490 C   0  0  0  0  0  0  0  0  0  0  0  0
  -22.0380  -12.7370   22.1090 N   0  0  0  0  0  0  0  0  0  0  0  0
  -22.2910  -14.4930   20.7590 O   0  0  0  0  0  0  0  0  0  0  0  0
  -22.4260  -11.9070   22.5330 H   0  0  0  0  0  0  0  0  0  0  0  0
  -21.0980  -13.0170   22.3490 H   0  0  0  0  0  0  0  0  0  0  0  0
  -25.3390  -15.1730   20.4160 N   0  0  0  0  0  0  0  0  0  0  0  0
  -24.5590  -15.8090   20.5470 H   0  0  0  0  0  0  0  0  0  0  0  0
  -26.1770  -15.6360   20.0920 H   0  0  0  0  0  0  0  0  0  0  0  0
  -28.6650  -22.8270   20.0550 C   0  0  0  0  0  2  0  0  0  0  0  0
  -28.9520  -24.3380   19.7830 C   0  0  0  0  0  2  0  0  0  0  0  0
  -28.3720  -25.3240   20.8210 C   0  0  0  0  0  2  0  0  0  0  0  0
  -28.5050  -26.6930   20.3850 O   0  0  0  0  0  0  0  0  0  0  0  0
  -24.5550  -31.9010   23.2010 C   0  0  0  0  0  0  0  0  0  0  0  0
  -27.3400  -27.4270   20.3010 C   0  0  0  0  0  0  0  0  0  0  0  0
  -23.4280  -30.4820   21.5190 C   0  0  0  0  0  3  0  0  0  0  0  0
  -24.9480  -28.9330   20.1770 C   0  0  0  0  0  0  0  0  0  0  0  0
  -25.9620  -30.8400   21.4400 C   0  0  0  0  0  2  0  0  0  0  0  0
  -26.0770  -29.4650   20.8110 C   0  0  0  0  0  0  0  0  0  0  0  0
  -27.2790  -28.7230   20.8610 C   0  0  0  0  0  3  0  0  0  0  0  0
  -26.1970  -26.9100   19.6520 C   0  0  0  0  0  3  0  0  0  0  0  0
  -25.0020  -27.6550   19.5920 C   0  0  0  0  0  3  0  0  0  0  0  0
  -23.7040  -29.7920   20.1570 C   0  0  0  0  0  2  0  0  0  0  0  0
  -24.6630  -31.0920   22.1090 N   0  0  0  0  0  0  0  0  0  0  0  0
  -23.4510  -32.1760   23.6900 O   0  0  0  0  0  0  0  0  0  0  0  0
  -22.7340  -29.4700   22.4590 C   0  0  0  0  0  0  0  0  0  0  0  0
  -21.4060  -29.3300   22.3170 N   0  0  0  0  0  0  0  0  0  0  0  0
  -23.3880  -28.8140   23.2740 O   0  0  0  0  0  0  0  0  0  0  0  0
  -20.9390  -29.9140   21.6350 H   0  0  0  0  0  0  0  0  0  0  0  0
  -17.9780  -28.3100   22.8440 C   0  0  0  0  0  0  0  0  0  0  0  0
  -20.5530  -28.4080   23.0640 C   0  0  0  0  0  3  0  0  0  0  0  0
  -20.5560  -26.9990   22.4270 C   0  0  0  0  0  2  0  0  0  0  0  0
  -19.4180  -26.7870   21.4250 C   0  0  0  0  0  2  0  0  0  0  0  0
  -18.0620  -26.9830   22.1090 C   0  0  0  0  0  2  0  0  0  0  0  0
  -19.1480  -28.9860   23.2810 C   0  0  0  0  0  0  0  0  0  0  0  0
  -19.0180  -30.2330   23.9290 C   0  0  0  0  0  3  0  0  0  0  0  0
  -17.7500  -30.8030   24.1450 C   0  0  0  0  0  3  0  0  0  0  0  0
  -16.5930  -30.1230   23.7260 C   0  0  0  0  0  3  0  0  0  0  0  0
  -16.7100  -28.8790   23.0800 C   0  0  0  0  0  3  0  0  0  0  0  0
  -25.8130  -32.5410   23.8710 C   0  0  0  0  0  3  0  0  0  0  0  0
  -25.4830  -33.9370   24.1800 N   0  0  0  0  0  0  0  0  0  0  0  0
  -25.8440  -34.9890   23.4320 C   0  0  0  0  0  0  0  0  0  0  0  0
  -26.5580  -34.8860   22.4310 O   0  0  0  0  0  0  0  0  0  0  0  0
  -24.8500  -34.0910   24.9500 H   0  0  0  0  0  0  0  0  0  0  0  0
  -24.1310  -36.7810   22.9950 C   0  0  0  0  0  1  0  0  0  0  0  0
  -25.3300  -36.3750   23.8660 C   0  0  0  0  0  3  0  0  0  0  0  0
  -27.4130  -37.2710   24.8130 C   0  0  0  0  0  1  0  0  0  0  0  0
  -26.3650  -37.4310   23.8080 N   0  0  0  0  0  0  0  0  0  0  0  0
  -25.9480  -38.3500   23.9270 H   0  0  0  0  0  0  0  0  0  0  0  0
  -26.2890  -31.7790   25.1690 C   0  0  1  0  0  0  0  0  0  0  0  0
  -25.1590  -31.5300   26.1950 C   0  0  0  0  0  1  0  0  0  0  0  0
  -26.9030  -30.4050   24.8080 C   0  0  0  0  0  1  0  0  0  0  0  0
  -27.4010  -32.5890   25.8740 C   0  0  0  0  0  1  0  0  0  0  0  0
  1  3  1  0
  2  5  1  0
  2  1  1  0
  3 11  1  0
  4  6  1  0
  4  9  1  0
  4  2  1  0
  5  8  1  0
  7  9  1  0
  8  3  1  0
  8 51  1  0
  9 10  1  1
  9  5  1  0
 11 12  1  0
 12 13  2  0
 13 14  1  0
 15 14  1  0
 16 21  1  0
 17 18  1  0
 17 16  1  0
 19 18  1  0
 19 26  1  0
 19 20  1  0
 21 15  1  0
 21 20  1  0
 22 15  2  0
 23 24  2  0
 24 43  1  0
 25 24  1  0
 25 28  1  0
 26 27  1  0
 26 23  1  0
 27 25  2  0
 28 29  1  0
 29 30  2  0
 31 34  1  0
 31 30  1  0
 32 31  2  0
 33 32  1  0
 33 28  2  0
 34 35  1  0
 35 36  1  0
 36 37  2  0
 38 37  1  0
 38 42  1  0
 39 38  2  0
 40 35  2  0
 40 39  1  0
 41 40  1  0
 43 44  1  0
 44 47  1  0
 44 46  1  0
 45 43  2  0
 48 49  1  0
 48 23  1  0
 50 48  1  0
 52 51  1  0
 52 53  1  0
 54 53  1  0
 55 66  2  0
 56 54  1  0
 56 61  1  0
 57 65  1  0
 57 67  1  0
 58 60  1  0
 59 65  1  0
 60 61  2  0
 60 59  1  0
 62 56  2  0
 63 62  1  0
 63 58  2  0
 64 58  1  0
 64 57  1  0
 65 55  1  0
 67 69  2  0
 68 67  1  0
 70 68  1  0
 71 80  2  0
 71 76  1  0
 72 68  1  0
 72 76  1  0
 73 72  1  0
 74 75  1  0
 74 73  1  0
 75 71  1  0
 76 77  2  0
 77 78  1  0
 79 78  2  0
 80 79  1  0
 81 55  1  0
 81 82  1  0
 81 91  1  0
 82 85  1  0
 83 87  1  0
 83 82  1  0
 84 83  2  0
 87 86  1  0
 89 87  1  0
 89 90  1  0
 89 88  1  0
 91 94  1  1
 91 92  1  0
 93 91  1  0
M  ISO  4  14 100  15 100  53 101  54 101
M  END
>  <TORSDO>  (93) 
F 23

>  <SCORE>  (93) 
-12.843

>  <name>  (93) 
92

>  <ligand_id>  (93) 
92

>  <original_smiles>  (93) 
[H]c1c([H])c([H])c2c(c1[H])C([H])([H])C([H])([H])C([H])([H])C2([H])N([H])C(=O)C1([H])N(C(=O)C([H])(N([H])C(=O)C([H])(N([H])C([H])([H])[H])C([H])([H])[H])C(C([H])([H])[H])(C([H])([H])[H])C([H])([H])[H])C([H])([H])c2c([H])c(OC([H])([H])C([H])([H])C([H])([H])N3C([H])(C([H])([H])C([H])([H])C([H])([H])C([H])([H])C(=O)N4C([H])([H])C([H])([H])C([H])([H])C([H])(n5nc(-c6c([H])c([H])c(Oc7c([H])c([H])c(F)c([H])c7F)c([H])c6[H])c(C(=O)N([H])[H])c5N([H])[H])C4([H])[H])C([H])([H])C4([H])C3([H])[N+]([H])(C([H])([H])[H])C4([H])C([H])([H])[H])c([H])c([H])c2C1([H])[H]

>  <smiles>  (93) 
[H]c1c([H])c([H])c2c(c1[H])C([H])([H])C([H])([H])C([H])([H])C2([H])N([H])C(=O)C1([H])N(C(=O)C([H])(N([H])C(=O)C([H])(N([H])C([H])([H])[H])C([H])([H])[H])C(C([H])([H])[H])(C([H])([H])[H])C([H])([H])[H])C([H])([H])c2c([H])c(OC([H])([H])C([H])([H])C([H])([H])N3C([H])(C([H])([H])C([H])([H])C([H])([H])C([H])([H])C(=O)N4C([H])([H])C([H])([H])C([H])([H])C([H])(n5nc(-c6c([H])c([H])c(Oc7c([H])c([H])c(F)c([H])c7F)c([H])c6[H])c(C(=O)N([H])[H])c5N([H])[H])C4([H])[H])C([H])([H])C4([H])C3([H])[N+]([H])(C([H])([H])[H])C4([H])C([H])([H])[H])c([H])c([H])c2C1([H])[H]

$$$$
93:0:0
     RDKit          3D

 90 98  0  0  1  0  0  0  0  0999 V2000
  -29.9780  -20.2070   20.4020 C   0  0  0  0  0  0  0  0  0  0  0  0
  -29.0700  -21.1990   20.6790 N   0  0  0  0  0  0  0  0  0  0  0  0
  -31.0370  -20.4840   19.8350 O   0  0  0  0  0  0  0  0  0  0  0  0
  -28.1960  -20.8730   21.0720 H   0  0  0  0  0  0  0  0  0  0  0  0
  -31.6620  -18.1700   22.3340 C   0  0  0  0  0  2  0  0  0  0  0  0
  -30.1890  -18.6160   22.3650 C   0  0  0  0  0  2  0  0  0  0  0  0
  -31.9360  -17.6540   20.9140 C   0  0  0  0  0  2  0  0  0  0  0  0
  -29.7270  -18.7080   20.8970 C   0  0  0  0  0  3  0  0  0  0  0  0
  -30.5550  -17.4830   20.2560 C   0  0  0  0  0  3  0  0  0  0  0  0
  -30.0070  -15.9880   20.5210 C   0  0  0  0  0  2  0  0  0  0  0  0
  -30.8070  -14.6980   20.0290 C   0  0  0  0  0  0  0  0  0  0  0  0
  -30.5600  -12.4590   18.9530 C   0  0  0  0  0  2  0  0  0  0  0  0
  -29.5430  -12.5830   17.7970 C   0  0  0  0  0  2  0  0  0  0  0  0
  -28.1020  -12.3900   18.3110 C   0  0  0  0  0  2  0  0  0  0  0  0
  -27.8060  -13.2430   19.5720 C   0  0  0  0  0  3  0  0  0  0  0  0
  -28.9310  -13.1130   20.6200 C   0  0  0  0  0  2  0  0  0  0  0  0
  -30.2030  -13.4650   19.9730 N   0  0  0  0  0  0  0  0  0  0  0  0
  -31.9400  -14.8460   19.5590 O   0  0  0  0  0  0  0  0  0  0  0  0
  -25.4640  -13.8120   20.4560 C   0  0  0  0  0  0  0  0  0  0  0  0
  -24.4260  -13.0240   20.8780 C   0  0  0  0  0  0  0  0  0  0  0  0
  -24.8940  -11.6770   20.7950 C   0  0  0  0  0  0  0  0  0  0  0  0
  -26.4950  -12.9420   20.1390 N   0  0  0  0  0  0  0  0  0  0  0  0
  -26.1630  -11.6530   20.4040 N   0  0  0  0  0  0  0  0  0  0  0  0
  -24.1900  -10.4070   21.0080 C   0  0  0  0  0  0  0  0  0  0  0  0
  -24.6260   -9.4750   21.9750 C   0  0  0  0  0  3  0  0  0  0  0  0
  -23.9220   -8.2680   22.1750 C   0  0  0  0  0  3  0  0  0  0  0  0
  -22.7670   -7.9840   21.4050 C   0  0  0  0  0  0  0  0  0  0  0  0
  -22.3520   -8.9050   20.4270 C   0  0  0  0  0  3  0  0  0  0  0  0
  -23.0570  -10.1030   20.2270 C   0  0  0  0  0  3  0  0  0  0  0  0
  -22.0340   -6.8270   21.5140 O   0  0  0  0  0  0  0  0  0  0  0  0
  -21.9010   -6.1670   22.7090 C   0  0  0  0  0  0  0  0  0  0  0  0
  -21.3290   -6.7850   23.8430 C   0  0  0  0  0  3  0  0  0  0  0  0
  -21.1470   -6.0490   25.0300 C   0  0  0  0  0  3  0  0  0  0  0  0
  -21.5290   -4.6950   25.0840 C   0  0  0  0  0  0  0  0  0  0  0  0
  -22.0950   -4.0760   23.9550 C   0  0  0  0  0  3  0  0  0  0  0  0
  -22.2780   -4.8110   22.7700 C   0  0  0  0  0  0  0  0  0  0  0  0
  -22.8040   -4.2040   21.6790 F   0  0  0  0  0  0  0  0  0  0  0  0
  -21.3480   -3.9840   26.2220 F   0  0  0  0  0  0  0  0  0  0  0  0
  -23.0470  -13.4860   21.2470 C   0  0  0  0  0  0  0  0  0  0  0  0
  -22.3770  -12.7670   22.1430 N   0  0  0  0  0  0  0  0  0  0  0  0
  -22.5720  -14.5180   20.7760 O   0  0  0  0  0  0  0  0  0  0  0  0
  -22.7750  -11.9310   22.5430 H   0  0  0  0  0  0  0  0  0  0  0  0
  -21.4550  -13.0580   22.4320 H   0  0  0  0  0  0  0  0  0  0  0  0
  -25.6100  -15.1870   20.2920 N   0  0  0  0  0  0  0  0  0  0  0  0
  -24.8490  -15.8350   20.4600 H   0  0  0  0  0  0  0  0  0  0  0  0
  -26.4390  -15.6370   19.9250 H   0  0  0  0  0  0  0  0  0  0  0  0
  -29.3440  -22.6730   20.8960 C   0  0  0  0  0  2  0  0  0  0  0  0
  -28.4760  -23.8010   20.1670 C   0  0  0  0  0  2  0  0  0  0  0  0
  -28.4720  -25.2400   20.8640 C   0  0  0  0  0  2  0  0  0  0  0  0
  -28.4000  -26.4910   20.0880 O   0  0  0  0  0  0  0  0  0  0  0  0
  -24.6290  -31.8330   23.1750 C   0  0  0  0  0  0  0  0  0  0  0  0
  -27.2510  -27.2800   20.1490 C   0  0  0  0  0  0  0  0  0  0  0  0
  -23.4210  -30.4220   21.5450 C   0  0  0  0  0  3  0  0  0  0  0  0
  -24.8710  -28.8550   20.1370 C   0  0  0  0  0  0  0  0  0  0  0  0
  -25.9550  -30.7510   21.3480 C   0  0  0  0  0  2  0  0  0  0  0  0
  -26.0360  -29.3650   20.7220 C   0  0  0  0  0  0  0  0  0  0  0  0
  -27.2320  -28.5910   20.7130 C   0  0  0  0  0  3  0  0  0  0  0  0
  -26.0640  -26.8030   19.5600 C   0  0  0  0  0  3  0  0  0  0  0  0
  -24.8840  -27.5750   19.5510 C   0  0  0  0  0  3  0  0  0  0  0  0
  -23.6330  -29.7280   20.1720 C   0  0  0  0  0  2  0  0  0  0  0  0
  -24.6870  -31.0210   22.0790 N   0  0  0  0  0  0  0  0  0  0  0  0
  -23.5460  -32.1120   23.7120 O   0  0  0  0  0  0  0  0  0  0  0  0
  -22.7610  -29.4150   22.5150 C   0  0  0  0  0  0  0  0  0  0  0  0
  -21.4340  -29.2390   22.3930 N   0  0  0  0  0  0  0  0  0  0  0  0
  -23.4420  -28.7950   23.3360 O   0  0  0  0  0  0  0  0  0  0  0  0
  -20.9460  -29.7920   21.7030 H   0  0  0  0  0  0  0  0  0  0  0  0
  -18.0560  -28.0580   22.9100 C   0  0  0  0  0  0  0  0  0  0  0  0
  -20.6150  -28.3080   23.1710 C   0  0  0  0  0  3  0  0  0  0  0  0
  -20.7110  -26.8750   22.6010 C   0  0  0  0  0  2  0  0  0  0  0  0
  -19.6040  -26.5510   21.5930 C   0  0  0  0  0  2  0  0  0  0  0  0
  -18.2250  -26.7050   22.2390 C   0  0  0  0  0  2  0  0  0  0  0  0
  -19.1790  -28.8180   23.3330 C   0  0  0  0  0  0  0  0  0  0  0  0
  -18.9650  -30.0850   23.9180 C   0  0  0  0  0  3  0  0  0  0  0  0
  -17.6640  -30.5900   24.0880 C   0  0  0  0  0  3  0  0  0  0  0  0
  -16.5550  -29.8270   23.6820 C   0  0  0  0  0  3  0  0  0  0  0  0
  -16.7530  -28.5640   23.0950 C   0  0  0  0  0  3  0  0  0  0  0  0
  -25.9140  -32.4680   23.7920 C   0  0  0  0  0  3  0  0  0  0  0  0
  -25.5950  -33.8560   24.1540 N   0  0  0  0  0  0  0  0  0  0  0  0
  -25.9120  -34.9280   23.4150 C   0  0  0  0  0  0  0  0  0  0  0  0
  -26.5750  -34.8500   22.3760 O   0  0  0  0  0  0  0  0  0  0  0  0
  -25.0090  -33.9890   24.9640 H   0  0  0  0  0  0  0  0  0  0  0  0
  -24.1740  -36.7200   23.1000 C   0  0  0  0  0  1  0  0  0  0  0  0
  -25.4160  -36.3020   23.9030 C   0  0  0  0  0  3  0  0  0  0  0  0
  -27.5420  -37.1830   24.7630 C   0  0  0  0  0  1  0  0  0  0  0  0
  -26.4430  -37.3630   23.8170 N   0  0  0  0  0  0  0  0  0  0  0  0
  -26.0300  -38.2780   23.9800 H   0  0  0  0  0  0  0  0  0  0  0  0
  -26.4560  -31.6780   25.0470 C   0  0  1  0  0  0  0  0  0  0  0  0
  -25.3810  -31.4060   26.1240 C   0  0  0  0  0  1  0  0  0  0  0  0
  -27.0530  -30.3160   24.6200 C   0  0  0  0  0  1  0  0  0  0  0  0
  -27.6060  -32.4740   25.7080 C   0  0  0  0  0  1  0  0  0  0  0  0
  1  2  1  0
  2 47  1  0
  2  4  1  0
  3  1  2  0
  5  6  1  0
  7  5  1  0
  8  1  1  0
  8  6  1  0
  9 10  1  0
  9  8  1  0
  9  7  1  0
 11 10  1  0
 12 17  1  0
 13 14  1  0
 13 12  1  0
 15 14  1  0
 15 22  1  0
 15 16  1  0
 17 11  1  0
 17 16  1  0
 18 11  2  0
 19 20  2  0
 20 39  1  0
 21 20  1  0
 21 24  1  0
 22 23  1  0
 22 19  1  0
 23 21  2  0
 24 25  1  0
 25 26  2  0
 27 30  1  0
 27 26  1  0
 28 27  2  0
 29 28  1  0
 29 24  2  0
 30 31  1  0
 31 36  2  0
 31 32  1  0
 32 33  2  0
 33 34  1  0
 34 38  1  0
 35 34  2  0
 36 35  1  0
 37 36  1  0
 39 40  1  0
 40 43  1  0
 40 42  1  0
 41 39  2  0
 44 19  1  0
 44 45  1  0
 46 44  1  0
 48 49  1  0
 48 47  1  0
 50 52  1  0
 50 49  1  0
 51 62  2  0
 52 57  1  0
 53 61  1  0
 53 63  1  0
 54 60  1  0
 54 56  1  0
 55 61  1  0
 56 55  1  0
 57 56  2  0
 58 52  2  0
 59 58  1  0
 59 54  2  0
 60 53  1  0
 61 51  1  0
 63 65  2  0
 64 63  1  0
 66 64  1  0
 67 76  2  0
 67 72  1  0
 68 64  1  0
 68 72  1  0
 69 68  1  0
 70 71  1  0
 70 69  1  0
 71 67  1  0
 72 73  2  0
 73 74  1  0
 75 74  2  0
 76 75  1  0
 77 51  1  0
 77 78  1  0
 77 87  1  0
 78 81  1  0
 79 83  1  0
 79 78  1  0
 80 79  2  0
 83 82  1  0
 85 83  1  0
 85 86  1  0
 85 84  1  0
 87 90  1  1
 87 88  1  0
 89 87  1  0
M  ISO  4  10 100  11 100  49 101  50 101
M  END
>  <TORSDO>  (94) 
F 21

>  <SCORE>  (94) 
-12.297

>  <name>  (94) 
93

>  <ligand_id>  (94) 
93

>  <original_smiles>  (94) 
[H]c1c([H])c([H])c2c(c1[H])C([H])([H])C([H])([H])C([H])([H])C2([H])N([H])C(=O)C1([H])N(C(=O)C([H])(N([H])C(=O)C([H])(N([H])C([H])([H])[H])C([H])([H])[H])C(C([H])([H])[H])(C([H])([H])[H])C([H])([H])[H])C([H])([H])c2c([H])c(OC([H])([H])C([H])([H])C([H])([H])N([H])C(=O)C3([H])C([H])([H])C([H])([H])C([H])([H])C3([H])C([H])([H])C(=O)N3C([H])([H])C([H])([H])C([H])([H])C([H])(n4nc(-c5c([H])c([H])c(Oc6c([H])c([H])c(F)c([H])c6F)c([H])c5[H])c(C(=O)N([H])[H])c4N([H])[H])C3([H])[H])c([H])c([H])c2C1([H])[H]

>  <smiles>  (94) 
[H]c1c([H])c([H])c2c(c1[H])C([H])([H])C([H])([H])C([H])([H])C2([H])N([H])C(=O)C1([H])N(C(=O)C([H])(N([H])C(=O)C([H])(N([H])C([H])([H])[H])C([H])([H])[H])C(C([H])([H])[H])(C([H])([H])[H])C([H])([H])[H])C([H])([H])c2c([H])c(OC([H])([H])C([H])([H])C([H])([H])N([H])C(=O)C3([H])C([H])([H])C([H])([H])C([H])([H])C3([H])C([H])([H])C(=O)N3C([H])([H])C([H])([H])C([H])([H])C([H])(n4nc(-c5c([H])c([H])c(Oc6c([H])c([H])c(F)c([H])c6F)c([H])c5[H])c(C(=O)N([H])[H])c4N([H])[H])C3([H])[H])c([H])c([H])c2C1([H])[H]

$$$$
94:0:0
     RDKit          3D

 94103  0  0  1  0  0  0  0  0999 V2000
  -26.0330  -22.9360   22.0920 C   0  0  0  0  0  2  0  0  0  0  0  0
  -27.4050  -22.4390   22.5530 C   0  0  0  0  0  2  0  0  0  0  0  0
  -26.5650  -22.2090   19.7510 C   0  0  0  0  0  2  0  0  0  0  0  0
  -26.3380  -23.4250   20.6660 C   0  0  0  0  0  3  0  0  0  0  0  0
  -28.2920  -22.7200   21.3180 C   0  0  0  0  0  3  0  0  0  0  0  0
  -27.9840  -21.7630   20.1450 C   0  0  0  0  0  3  0  0  0  0  0  0
  -27.7050  -23.9370   20.7540 N   0  0  0  0  0  0  0  0  0  0  0  0
  -28.0870  -20.3320   20.5110 N   0  0  0  0  0  4  0  0  0  0  0  0
  -27.2920  -19.8440   20.1310 H   0  0  0  0  0  0  0  0  0  0  0  0
  -28.0440  -20.2640   21.5140 H   0  0  0  0  0  0  0  0  0  0  0  0
  -29.3190  -19.6740   20.0230 C   0  0  0  0  0  2  0  0  0  0  0  0
  -29.7100  -18.4400   20.8590 C   0  0  0  0  0  2  0  0  0  0  0  0
  -30.7900  -17.5980   20.1600 C   0  0  0  0  0  2  0  0  0  0  0  0
  -31.4680  -16.5640   21.0820 C   0  0  0  0  0  2  0  0  0  0  0  0
  -32.0070  -15.3700   20.2770 C   0  0  0  0  0  0  0  0  0  0  0  0
  -31.7440  -13.0990   19.3390 C   0  0  0  0  0  2  0  0  0  0  0  0
  -30.8030  -13.1130   18.1190 C   0  0  0  0  0  2  0  0  0  0  0  0
  -29.3300  -12.9860   18.5570 C   0  0  0  0  0  2  0  0  0  0  0  0
  -28.9630  -13.9800   19.6890 C   0  0  0  0  0  3  0  0  0  0  0  0
  -30.0090  -13.9190   20.8230 C   0  0  0  0  0  2  0  0  0  0  0  0
  -31.3380  -14.1850   20.2440 N   0  0  0  0  0  0  0  0  0  0  0  0
  -33.0470  -15.5580   19.6380 O   0  0  0  0  0  0  0  0  0  0  0  0
  -26.6170  -14.6550   20.5120 C   0  0  0  0  0  0  0  0  0  0  0  0
  -25.5240  -13.9090   20.8690 C   0  0  0  0  0  0  0  0  0  0  0  0
  -25.9190  -12.5440   20.7370 C   0  0  0  0  0  0  0  0  0  0  0  0
  -27.6110  -13.7430   20.1910 N   0  0  0  0  0  0  0  0  0  0  0  0
  -27.1950  -12.4650   20.3800 N   0  0  0  0  0  0  0  0  0  0  0  0
  -25.1410  -11.3040   20.8720 C   0  0  0  0  0  0  0  0  0  0  0  0
  -25.4530  -10.3410   21.8570 C   0  0  0  0  0  3  0  0  0  0  0  0
  -24.6790   -9.1670   21.9780 C   0  0  0  0  0  3  0  0  0  0  0  0
  -23.5800   -8.9470   21.1130 C   0  0  0  0  0  0  0  0  0  0  0  0
  -23.2900   -9.9000   20.1190 C   0  0  0  0  0  3  0  0  0  0  0  0
  -24.0640  -11.0660   19.9960 C   0  0  0  0  0  3  0  0  0  0  0  0
  -22.7890   -7.8250   21.1400 O   0  0  0  0  0  0  0  0  0  0  0  0
  -22.4540   -7.2100   22.3200 C   0  0  0  0  0  0  0  0  0  0  0  0
  -21.7920   -7.8990   23.3580 C   0  0  0  0  0  3  0  0  0  0  0  0
  -21.4030   -7.2110   24.5240 C   0  0  0  0  0  3  0  0  0  0  0  0
  -21.6680   -5.8350   24.6510 C   0  0  0  0  0  0  0  0  0  0  0  0
  -22.3220   -5.1440   23.6160 C   0  0  0  0  0  3  0  0  0  0  0  0
  -22.7120   -5.8300   22.4530 C   0  0  0  0  0  0  0  0  0  0  0  0
  -23.3240   -5.1570   21.4490 F   0  0  0  0  0  0  0  0  0  0  0  0
  -21.2870   -5.1710   25.7680 F   0  0  0  0  0  0  0  0  0  0  0  0
  -24.1600  -14.4310   21.2200 C   0  0  0  0  0  0  0  0  0  0  0  0
  -23.4410  -13.7300   22.0890 N   0  0  0  0  0  0  0  0  0  0  0  0
  -23.7440  -15.4920   20.7590 O   0  0  0  0  0  0  0  0  0  0  0  0
  -23.7920  -12.8700   22.4840 H   0  0  0  0  0  0  0  0  0  0  0  0
  -22.5260  -14.0590   22.3640 H   0  0  0  0  0  0  0  0  0  0  0  0
  -26.8400  -16.0250   20.4160 N   0  0  0  0  0  0  0  0  0  0  0  0
  -26.0940  -16.6960   20.5580 H   0  0  0  0  0  0  0  0  0  0  0  0
  -27.6840  -16.4340   20.0350 H   0  0  0  0  0  0  0  0  0  0  0  0
  -27.8570  -25.1820   21.5230 C   0  0  0  0  0  2  0  0  0  0  0  0
  -29.2930  -25.7320   21.4420 C   0  0  0  0  0  2  0  0  0  0  0  0
  -29.7170  -26.2340   20.0470 C   0  0  0  0  0  2  0  0  0  0  0  0
  -29.4810  -27.6350   19.9110 O   0  0  0  0  0  0  0  0  0  0  0  0
  -24.8790  -31.6740   23.4960 C   0  0  0  0  0  0  0  0  0  0  0  0
  -28.1900  -28.1010   19.9810 C   0  0  0  0  0  0  0  0  0  0  0  0
  -23.9100  -30.3170   21.6660 C   0  0  0  0  0  3  0  0  0  0  0  0
  -25.5900  -29.1950   20.1130 C   0  0  0  0  0  0  0  0  0  0  0  0
  -26.3510  -31.0750   21.5780 C   0  0  0  0  0  2  0  0  0  0  0  0
  -26.6460  -29.8200   20.7850 C   0  0  0  0  0  0  0  0  0  0  0  0
  -27.9470  -29.2810   20.7150 C   0  0  0  0  0  3  0  0  0  0  0  0
  -27.1130  -27.4770   19.3100 C   0  0  0  0  0  3  0  0  0  0  0  0
  -25.8160  -28.0190   19.3750 C   0  0  0  0  0  3  0  0  0  0  0  0
  -24.2310  -29.8450   20.2230 C   0  0  0  0  0  2  0  0  0  0  0  0
  -25.0620  -31.0320   22.3070 N   0  0  0  0  0  0  0  0  0  0  0  0
  -23.7660  -31.7150   24.0350 O   0  0  0  0  0  0  0  0  0  0  0  0
  -23.4150  -29.1010   22.4810 C   0  0  0  0  0  0  0  0  0  0  0  0
  -22.1850  -28.6500   22.1900 N   0  0  0  0  0  0  0  0  0  0  0  0
  -24.1380  -28.5700   23.3270 O   0  0  0  0  0  0  0  0  0  0  0  0
  -21.6520  -29.1490   21.4920 H   0  0  0  0  0  0  0  0  0  0  0  0
  -19.1840  -26.6420   22.1140 C   0  0  0  0  0  0  0  0  0  0  0  0
  -21.5260  -27.4950   22.7960 C   0  0  0  0  0  3  0  0  0  0  0  0
  -22.0690  -26.1720   22.2060 C   0  0  0  0  0  2  0  0  0  0  0  0
  -21.2430  -25.6530   21.0260 C   0  0  0  0  0  2  0  0  0  0  0  0
  -19.7900  -25.4180   21.4480 C   0  0  0  0  0  2  0  0  0  0  0  0
  -20.0000  -27.6250   22.7340 C   0  0  0  0  0  0  0  0  0  0  0  0
  -19.3890  -28.7600   23.3090 C   0  0  0  0  0  3  0  0  0  0  0  0
  -17.9910  -28.9210   23.2750 C   0  0  0  0  0  3  0  0  0  0  0  0
  -17.1860  -27.9370   22.6730 C   0  0  0  0  0  3  0  0  0  0  0  0
  -17.7820  -26.8000   22.0990 C   0  0  0  0  0  3  0  0  0  0  0  0
  -26.0540  -32.4060   24.2190 C   0  0  0  0  0  3  0  0  0  0  0  0
  -25.5970  -33.7650   24.5370 N   0  0  0  0  0  0  0  0  0  0  0  0
  -25.9010  -34.8550   23.8200 C   0  0  0  0  0  0  0  0  0  0  0  0
  -26.6640  -34.8290   22.8510 O   0  0  0  0  0  0  0  0  0  0  0  0
  -24.9230  -33.8520   25.2840 H   0  0  0  0  0  0  0  0  0  0  0  0
  -24.0550  -36.4910   23.3320 C   0  0  0  0  0  1  0  0  0  0  0  0
  -25.2530  -36.1860   24.2450 C   0  0  0  0  0  3  0  0  0  0  0  0
  -27.2230  -37.2410   25.2640 C   0  0  0  0  0  1  0  0  0  0  0  0
  -26.1930  -37.3290   24.2320 N   0  0  0  0  0  0  0  0  0  0  0  0
  -25.6960  -38.2060   24.3520 H   0  0  0  0  0  0  0  0  0  0  0  0
  -26.5420  -31.6620   25.5220 C   0  0  1  0  0  0  0  0  0  0  0  0
  -25.3940  -31.2710   26.4810 C   0  0  0  0  0  1  0  0  0  0  0  0
  -27.3130  -30.3710   25.1570 C   0  0  0  0  0  1  0  0  0  0  0  0
  -27.5300  -32.5610   26.3010 C   0  0  0  0  0  1  0  0  0  0  0  0
  1  2  1  0
  3  6  1  0
  4  3  1  0
  4  7  1  0
  4  1  1  0
  5  2  1  0
  6  8  1  0
  6  5  1  0
  7  5  1  0
  7 51  1  0
  8 10  1  0
  9  8  1  0
 11  8  1  0
 11 12  1  0
 13 12  1  0
 13 14  1  0
 15 14  1  0
 16 21  1  0
 17 18  1  0
 17 16  1  0
 19 18  1  0
 19 26  1  0
 19 20  1  0
 21 15  1  0
 21 20  1  0
 22 15  2  0
 23 24  2  0
 24 43  1  0
 25 24  1  0
 25 28  1  0
 26 27  1  0
 26 23  1  0
 27 25  2  0
 28 29  1  0
 29 30  2  0
 31 34  1  0
 31 30  1  0
 32 31  2  0
 33 32  1  0
 33 28  2  0
 34 35  1  0
 35 40  2  0
 35 36  1  0
 36 37  2  0
 37 38  1  0
 38 42  1  0
 39 38  2  0
 40 39  1  0
 41 40  1  0
 43 44  1  0
 44 47  1  0
 44 46  1  0
 45 43  2  0
 48 23  1  0
 48 49  1  0
 50 48  1  0
 52 51  1  0
 53 52  1  0
 54 56  1  0
 54 53  1  0
 55 66  2  0
 56 61  1  0
 57 65  1  0
 57 67  1  0
 58 64  1  0
 58 60  1  0
 59 65  1  0
 60 59  1  0
 61 60  2  0
 62 63  1  0
 62 56  2  0
 63 58  2  0
 64 57  1  0
 65 55  1  0
 67 69  2  0
 68 67  1  0
 70 68  1  0
 71 76  1  0
 72 68  1  0
 73 72  1  0
 74 75  1  0
 74 73  1  0
 75 71  1  0
 76 72  1  0
 76 77  2  0
 78 77  1  0
 79 78  2  0
 80 71  2  0
 80 79  1  0
 81 55  1  0
 81 82  1  0
 81 91  1  0
 82 85  1  0
 83 87  1  0
 83 82  1  0
 84 83  2  0
 87 86  1  0
 89 87  1  0
 89 90  1  0
 89 88  1  0
 91 94  1  1
 91 92  1  0
 93 91  1  0
M  ISO  4  14 100  15 100  53 101  54 101
M  END
>  <TORSDO>  (95) 
F 24

>  <SCORE>  (95) 
-7.146

>  <name>  (95) 
94

>  <ligand_id>  (95) 
94

>  <original_smiles>  (95) 
[H]c1c([H])c([H])c2c(c1[H])C([H])([H])C([H])([H])C([H])([H])C2([H])N([H])C(=O)C1([H])N(C(=O)C([H])(N([H])C(=O)C([H])(N([H])C([H])([H])[H])C([H])([H])[H])C(C([H])([H])[H])(C([H])([H])[H])C([H])([H])[H])C([H])([H])c2c([H])c(OC([H])([H])C([H])([H])C([H])([H])N3C4([H])C([H])([H])C([H])([H])C3([H])C([H])([N+]([H])([H])C([H])([H])C([H])([H])C([H])([H])C([H])([H])C(=O)N3C([H])([H])C([H])([H])C([H])([H])C([H])(n5nc(-c6c([H])c([H])c(Oc7c([H])c([H])c(F)c([H])c7F)c([H])c6[H])c(C(=O)N([H])[H])c5N([H])[H])C3([H])[H])C4([H])[H])c([H])c([H])c2C1([H])[H]

>  <smiles>  (95) 
[H]c1c([H])c([H])c2c(c1[H])C([H])([H])C([H])([H])C([H])([H])C2([H])N([H])C(=O)C1([H])N(C(=O)C([H])(N([H])C(=O)C([H])(N([H])C([H])([H])[H])C([H])([H])[H])C(C([H])([H])[H])(C([H])([H])[H])C([H])([H])[H])C([H])([H])c2c([H])c(OC([H])([H])C([H])([H])C([H])([H])N3C4([H])C([H])([H])C([H])([H])C3([H])C([H])([N+]([H])([H])C([H])([H])C([H])([H])C([H])([H])C([H])([H])C(=O)N3C([H])([H])C([H])([H])C([H])([H])C([H])(n5nc(-c6c([H])c([H])c(Oc7c([H])c([H])c(F)c([H])c7F)c([H])c6[H])c(C(=O)N([H])[H])c5N([H])[H])C3([H])[H])C4([H])[H])c([H])c([H])c2C1([H])[H]

$$$$
95:0:0
     RDKit          3D

 91 99  0  0  1  0  0  0  0  0999 V2000
  -31.2450  -22.1010   19.3290 C   0  0  0  0  0  2  0  0  0  0  0  0
  -31.4260  -23.0600   20.5010 C   0  0  0  0  0  2  0  0  0  0  0  0
  -29.7800  -22.0040   19.7620 C   0  0  0  0  0  3  0  0  0  0  0  0
  -29.9680  -23.2820   20.4960 N   0  0  2  0  0  4  0  0  0  0  0  0
  -29.5770  -23.1810   21.4240 H   0  0  0  0  0  0  0  0  0  0  0  0
  -29.4880  -20.8060   20.7090 C   0  0  0  0  0  0  0  0  0  0  0  0
  -29.7560  -19.5560   20.2710 N   0  0  0  0  0  0  0  0  0  0  0  0
  -29.0390  -21.0210   21.8380 O   0  0  0  0  0  0  0  0  0  0  0  0
  -30.1120  -19.4630   19.3290 H   0  0  0  0  0  0  0  0  0  0  0  0
  -29.5720  -18.3160   21.0450 C   0  0  0  0  0  2  0  0  0  0  0  0
  -30.2630  -17.0850   20.3990 C   0  0  0  0  0  2  0  0  0  0  0  0
  -29.9670  -15.7330   21.1180 C   0  0  0  0  0  2  0  0  0  0  0  0
  -30.6540  -14.4990   20.4700 C   0  0  0  0  0  0  0  0  0  0  0  0
  -30.3620  -12.3360   19.3080 C   0  0  0  0  0  2  0  0  0  0  0  0
  -29.4190  -12.5520   18.1060 C   0  0  0  0  0  2  0  0  0  0  0  0
  -27.9440  -12.4230   18.5360 C   0  0  0  0  0  2  0  0  0  0  0  0
  -27.6130  -13.2510   19.8080 C   0  0  0  0  0  3  0  0  0  0  0  0
  -28.6700  -13.0100   20.9100 C   0  0  0  0  0  2  0  0  0  0  0  0
  -29.9910  -13.3150   20.3430 N   0  0  0  0  0  0  0  0  0  0  0  0
  -31.7780  -14.6630   19.9850 O   0  0  0  0  0  0  0  0  0  0  0  0
  -25.2130  -13.8710   20.5020 C   0  0  0  0  0  0  0  0  0  0  0  0
  -24.1410  -13.1050   20.8730 C   0  0  0  0  0  0  0  0  0  0  0  0
  -24.5970  -11.7520   20.8540 C   0  0  0  0  0  0  0  0  0  0  0  0
  -26.2570  -12.9830   20.2830 N   0  0  0  0  0  0  0  0  0  0  0  0
  -25.8880  -11.7040   20.5510 N   0  0  0  0  0  0  0  0  0  0  0  0
  -23.8660  -10.4940   21.0520 C   0  0  0  0  0  0  0  0  0  0  0  0
  -24.3070   -9.5200   21.9750 C   0  0  0  0  0  3  0  0  0  0  0  0
  -23.5770   -8.3270   22.1620 C   0  0  0  0  0  3  0  0  0  0  0  0
  -22.3920   -8.0980   21.4240 C   0  0  0  0  0  0  0  0  0  0  0  0
  -21.9690   -9.0600   20.4910 C   0  0  0  0  0  3  0  0  0  0  0  0
  -22.6980  -10.2450   20.3020 C   0  0  0  0  0  3  0  0  0  0  0  0
  -21.6330   -6.9570   21.5190 O   0  0  0  0  0  0  0  0  0  0  0  0
  -21.6150   -6.1980   22.6620 C   0  0  0  0  0  0  0  0  0  0  0  0
  -21.2470   -6.7410   23.9130 C   0  0  0  0  0  3  0  0  0  0  0  0
  -21.1760   -5.9090   25.0480 C   0  0  0  0  0  3  0  0  0  0  0  0
  -21.4610   -4.5350   24.9330 C   0  0  0  0  0  0  0  0  0  0  0  0
  -21.8210   -3.9920   23.6880 C   0  0  0  0  0  3  0  0  0  0  0  0
  -21.8960   -4.8210   22.5550 C   0  0  0  0  0  0  0  0  0  0  0  0
  -22.2230   -4.2890   21.3530 F   0  0  0  0  0  0  0  0  0  0  0  0
  -21.3850   -3.7330   26.0220 F   0  0  0  0  0  0  0  0  0  0  0  0
  -22.7450  -13.5890   21.1370 C   0  0  0  0  0  0  0  0  0  0  0  0
  -22.0120  -12.9050   22.0080 N   0  0  0  0  0  0  0  0  0  0  0  0
  -22.3100  -14.6110   20.6070 O   0  0  0  0  0  0  0  0  0  0  0  0
  -22.3750  -12.0790   22.4610 H   0  0  0  0  0  0  0  0  0  0  0  0
  -21.0750  -13.2150   22.2260 H   0  0  0  0  0  0  0  0  0  0  0  0
  -25.3830  -15.2380   20.3150 N   0  0  0  0  0  0  0  0  0  0  0  0
  -24.6160  -15.8950   20.4220 H   0  0  0  0  0  0  0  0  0  0  0  0
  -26.2390  -15.6760   19.9950 H   0  0  0  0  0  0  0  0  0  0  0  0
  -29.5560  -24.5610   19.8180 C   0  0  0  0  0  2  0  0  0  0  0  0
  -28.3960  -25.3230   20.5030 C   0  0  0  0  0  2  0  0  0  0  0  0
  -28.4240  -26.7130   20.1130 O   0  0  0  0  0  0  0  0  0  0  0  0
  -24.6130  -31.8850   23.2210 C   0  0  0  0  0  0  0  0  0  0  0  0
  -27.2400  -27.4230   20.1450 C   0  0  0  0  0  0  0  0  0  0  0  0
  -23.3970  -30.4770   21.5920 C   0  0  0  0  0  3  0  0  0  0  0  0
  -24.8430  -28.9330   20.1650 C   0  0  0  0  0  0  0  0  0  0  0  0
  -25.9210  -30.8360   21.3750 C   0  0  0  0  0  2  0  0  0  0  0  0
  -26.0040  -29.4600   20.7440 C   0  0  0  0  0  0  0  0  0  0  0  0
  -27.2060  -28.7140   20.7260 C   0  0  0  0  0  3  0  0  0  0  0  0
  -26.0600  -26.9130   19.5570 C   0  0  0  0  0  3  0  0  0  0  0  0
  -24.8660  -27.6600   19.5690 C   0  0  0  0  0  3  0  0  0  0  0  0
  -23.6000  -29.7920   20.2140 C   0  0  0  0  0  2  0  0  0  0  0  0
  -24.6630  -31.0820   22.1210 N   0  0  0  0  0  0  0  0  0  0  0  0
  -23.5340  -32.1570   23.7670 O   0  0  0  0  0  0  0  0  0  0  0  0
  -22.7550  -29.4580   22.5590 C   0  0  0  0  0  0  0  0  0  0  0  0
  -21.4290  -29.2730   22.4400 N   0  0  0  0  0  0  0  0  0  0  0  0
  -23.4440  -28.8350   23.3720 O   0  0  0  0  0  0  0  0  0  0  0  0
  -20.9350  -29.8280   21.7560 H   0  0  0  0  0  0  0  0  0  0  0  0
  -18.0610  -28.0670   22.9500 C   0  0  0  0  0  0  0  0  0  0  0  0
  -20.6180  -28.3360   23.2170 C   0  0  0  0  0  3  0  0  0  0  0  0
  -20.7260  -26.9030   22.6470 C   0  0  0  0  0  2  0  0  0  0  0  0
  -19.6220  -26.5710   21.6370 C   0  0  0  0  0  2  0  0  0  0  0  0
  -18.2410  -26.7150   22.2830 C   0  0  0  0  0  2  0  0  0  0  0  0
  -19.1770  -28.8350   23.3740 C   0  0  0  0  0  0  0  0  0  0  0  0
  -18.9560  -30.1020   23.9570 C   0  0  0  0  0  3  0  0  0  0  0  0
  -17.6500  -30.6000   24.1210 C   0  0  0  0  0  3  0  0  0  0  0  0
  -16.5470  -29.8300   23.7130 C   0  0  0  0  0  3  0  0  0  0  0  0
  -16.7540  -28.5650   23.1330 C   0  0  0  0  0  3  0  0  0  0  0  0
  -25.9020  -32.5180   23.8310 C   0  0  0  0  0  3  0  0  0  0  0  0
  -25.5910  -33.9130   24.1710 N   0  0  0  0  0  0  0  0  0  0  0  0
  -25.9140  -34.9700   23.4120 C   0  0  0  0  0  0  0  0  0  0  0  0
  -26.5780  -34.8730   22.3760 O   0  0  0  0  0  0  0  0  0  0  0  0
  -25.0010  -34.0630   24.9750 H   0  0  0  0  0  0  0  0  0  0  0  0
  -24.1760  -36.7560   23.0770 C   0  0  0  0  0  1  0  0  0  0  0  0
  -25.4250  -36.3550   23.8780 C   0  0  0  0  0  3  0  0  0  0  0  0
  -27.5640  -37.2420   24.6930 C   0  0  0  0  0  1  0  0  0  0  0  0
  -26.4520  -37.4120   23.7620 N   0  0  0  0  0  0  0  0  0  0  0  0
  -26.0430  -38.3300   23.9200 H   0  0  0  0  0  0  0  0  0  0  0  0
  -26.4380  -31.7420   25.0960 C   0  0  1  0  0  0  0  0  0  0  0  0
  -25.3600  -31.4970   26.1770 C   0  0  0  0  0  1  0  0  0  0  0  0
  -27.0210  -30.3680   24.6870 C   0  0  0  0  0  1  0  0  0  0  0  0
  -27.5940  -32.5370   25.7480 C   0  0  0  0  0  1  0  0  0  0  0  0
  1  3  1  0
  1  2  1  0
  3  4  1  0
  3  6  1  0
  4  2  1  0
  4  5  1  1
  6  8  2  0
  7  6  1  0
  7 10  1  0
  9  7  1  0
 11 10  1  0
 11 12  1  0
 13 12  1  0
 14 19  1  0
 15 16  1  0
 15 14  1  0
 17 16  1  0
 17 24  1  0
 17 18  1  0
 19 13  1  0
 19 18  1  0
 20 13  2  0
 21 22  2  0
 22 41  1  0
 23 22  1  0
 23 26  1  0
 24 21  1  0
 24 25  1  0
 25 23  2  0
 26 27  1  0
 27 28  2  0
 29 32  1  0
 29 28  1  0
 30 29  2  0
 31 30  1  0
 31 26  2  0
 32 33  1  0
 33 34  1  0
 34 35  2  0
 36 35  1  0
 36 40  1  0
 37 36  2  0
 38 33  2  0
 38 37  1  0
 39 38  1  0
 41 42  1  0
 42 45  1  0
 42 44  1  0
 43 41  2  0
 46 47  1  0
 46 21  1  0
 48 46  1  0
 49  4  1  0
 49 50  1  0
 51 53  1  0
 51 50  1  0
 52 63  2  0
 53 58  1  0
 54 62  1  0
 54 64  1  0
 55 61  1  0
 55 57  1  0
 56 62  1  0
 57 56  1  0
 58 57  2  0
 59 60  1  0
 59 53  2  0
 60 55  2  0
 61 54  1  0
 62 52  1  0
 64 66  2  0
 65 64  1  0
 67 65  1  0
 68 77  2  0
 68 73  1  0
 69 65  1  0
 69 73  1  0
 70 69  1  0
 71 72  1  0
 71 70  1  0
 72 68  1  0
 73 74  2  0
 74 75  1  0
 76 75  2  0
 77 76  1  0
 78 52  1  0
 78 79  1  0
 78 88  1  0
 79 82  1  0
 80 84  1  0
 80 79  1  0
 81 80  2  0
 84 83  1  0
 86 84  1  0
 86 87  1  0
 86 85  1  0
 88 91  1  1
 88 89  1  0
 90 88  1  0
M  ISO  4  12 100  13 100  50 101  51 101
M  END
>  <TORSDO>  (96) 
F 22

>  <SCORE>  (96) 
-12.980

>  <name>  (96) 
95

>  <ligand_id>  (96) 
95

>  <original_smiles>  (96) 
[H]c1c([H])c([H])c2c(c1[H])C([H])([H])C([H])([H])C([H])([H])C2([H])N([H])C(=O)C1([H])N(C(=O)C([H])(N([H])C(=O)C([H])(N([H])C([H])([H])[H])C([H])([H])[H])C(C([H])([H])[H])(C([H])([H])[H])C([H])([H])[H])C([H])([H])c2c([H])c(OC([H])([H])C([H])([H])[N+]3([H])C([H])([H])C([H])([H])C3([H])C(=O)N([H])C([H])([H])C([H])([H])C([H])([H])C(=O)N3C([H])([H])C([H])([H])C([H])([H])C([H])(n4nc(-c5c([H])c([H])c(Oc6c([H])c([H])c(F)c([H])c6F)c([H])c5[H])c(C(=O)N([H])[H])c4N([H])[H])C3([H])[H])c([H])c([H])c2C1([H])[H]

>  <smiles>  (96) 
[H]c1c([H])c([H])c2c(c1[H])C([H])([H])C([H])([H])C([H])([H])C2([H])N([H])C(=O)C1([H])N(C(=O)C([H])(N([H])C(=O)C([H])(N([H])C([H])([H])[H])C([H])([H])[H])C(C([H])([H])[H])(C([H])([H])[H])C([H])([H])[H])C([H])([H])c2c([H])c(OC([H])([H])C([H])([H])[N+]3([H])C([H])([H])C([H])([H])C3([H])C(=O)N([H])C([H])([H])C([H])([H])C([H])([H])C(=O)N3C([H])([H])C([H])([H])C([H])([H])C([H])(n4nc(-c5c([H])c([H])c(Oc6c([H])c([H])c(F)c([H])c6F)c([H])c5[H])c(C(=O)N([H])[H])c4N([H])[H])C3([H])[H])c([H])c([H])c2C1([H])[H]

$$$$
96:0:0
     RDKit          3D

 99107  0  0  1  0  0  0  0  0999 V2000
  -29.6460  -21.1540   23.1220 C   0  0  0  0  0  2  0  0  0  0  0  0
  -30.9950  -21.8700   23.1150 C   0  0  0  0  0  2  0  0  0  0  0  0
  -29.7880  -20.1000   22.0330 C   0  0  0  0  0  2  0  0  0  0  0  0
  -31.5480  -21.7350   21.6770 C   0  0  0  0  0  3  0  0  0  0  0  0
  -30.5790  -20.7940   20.8980 C   0  0  0  0  0  3  0  0  0  0  0  0
  -31.8090  -23.1140   21.0470 C   0  0  0  0  0  0  0  0  0  0  0  0
  -30.7650  -23.9260   20.8240 N   0  0  0  0  0  0  0  0  0  0  0  0
  -32.9690  -23.4600   20.8180 O   0  0  0  0  0  0  0  0  0  0  0  0
  -29.8390  -23.5860   21.0460 H   0  0  0  0  0  0  0  0  0  0  0  0
  -30.9200  -25.3330   20.4570 C   0  0  0  0  0  2  0  0  0  0  0  0
  -29.5870  -26.0590   20.1880 C   0  0  0  0  0  2  0  0  0  0  0  0
  -28.9760  -25.8000   18.7950 C   0  0  0  0  0  2  0  0  0  0  0  0
  -28.5350  -27.0280   18.2130 O   0  0  0  0  0  0  0  0  0  0  0  0
  -24.7060  -30.6500   22.9820 C   0  0  0  0  0  0  0  0  0  0  0  0
  -27.2950  -27.4840   18.5860 C   0  0  0  0  0  0  0  0  0  0  0  0
  -23.4090  -29.4750   21.2310 C   0  0  0  0  0  3  0  0  0  0  0  0
  -24.7710  -28.5300   19.2930 C   0  0  0  0  0  0  0  0  0  0  0  0
  -25.7970  -30.2650   20.7750 C   0  0  0  0  0  2  0  0  0  0  0  0
  -25.9360  -29.0990   19.8210 C   0  0  0  0  0  0  0  0  0  0  0  0
  -27.1990  -28.5860   19.4620 C   0  0  0  0  0  3  0  0  0  0  0  0
  -26.1150  -26.9130   18.0630 C   0  0  0  0  0  3  0  0  0  0  0  0
  -24.8530  -27.4320   18.4150 C   0  0  0  0  0  3  0  0  0  0  0  0
  -23.4580  -29.1520   19.7120 C   0  0  0  0  0  2  0  0  0  0  0  0
  -24.6640  -30.1330   21.7200 N   0  0  0  0  0  0  0  0  0  0  0  0
  -23.7100  -30.6240   23.7180 O   0  0  0  0  0  0  0  0  0  0  0  0
  -23.0580  -28.1800   21.9970 C   0  0  0  0  0  0  0  0  0  0  0  0
  -21.8040  -27.7210   21.8530 N   0  0  0  0  0  0  0  0  0  0  0  0
  -23.9080  -27.5960   22.6740 O   0  0  0  0  0  0  0  0  0  0  0  0
  -21.1660  -28.2610   21.2860 H   0  0  0  0  0  0  0  0  0  0  0  0
  -18.8910  -25.5910   21.9630 C   0  0  0  0  0  0  0  0  0  0  0  0
  -21.2620  -26.5010   22.4470 C   0  0  0  0  0  3  0  0  0  0  0  0
  -21.7840  -25.2440   21.7110 C   0  0  0  0  0  2  0  0  0  0  0  0
  -20.8530  -24.7720   20.5900 C   0  0  0  0  0  2  0  0  0  0  0  0
  -19.4640  -24.4440   21.1480 C   0  0  0  0  0  2  0  0  0  0  0  0
  -19.7350  -26.5640   22.5610 C   0  0  0  0  0  0  0  0  0  0  0  0
  -19.1490  -27.6290   23.2790 C   0  0  0  0  0  3  0  0  0  0  0  0
  -17.7500  -27.7270   23.4090 C   0  0  0  0  0  3  0  0  0  0  0  0
  -16.9210  -26.7500   22.8320 C   0  0  0  0  0  3  0  0  0  0  0  0
  -17.4910  -25.6850   22.1140 C   0  0  0  0  0  3  0  0  0  0  0  0
  -25.9970  -31.3180   23.5490 C   0  0  0  0  0  3  0  0  0  0  0  0
  -26.6650  -30.4900   24.7150 C   0  0  1  0  0  0  0  0  0  0  0  0
  -25.6760  -30.0800   25.8310 C   0  0  0  0  0  1  0  0  0  0  0  0
  -27.3170  -29.2010   24.1630 C   0  0  0  0  0  1  0  0  0  0  0  0
  -27.8000  -31.3170   25.3630 C   0  0  0  0  0  1  0  0  0  0  0  0
  -25.6340  -32.6630   24.0100 N   0  0  0  0  0  0  0  0  0  0  0  0
  -25.9000  -33.7930   23.3400 C   0  0  0  0  0  0  0  0  0  0  0  0
  -26.5490  -33.8130   22.2900 O   0  0  0  0  0  0  0  0  0  0  0  0
  -25.0510  -32.7190   24.8330 H   0  0  0  0  0  0  0  0  0  0  0  0
  -24.0980  -35.5380   23.1560 C   0  0  0  0  0  1  0  0  0  0  0  0
  -25.3580  -35.1110   23.9260 C   0  0  0  0  0  3  0  0  0  0  0  0
  -27.4510  -36.0030   24.8460 C   0  0  0  0  0  1  0  0  0  0  0  0
  -26.3460  -36.2110   23.9140 N   0  0  0  0  0  0  0  0  0  0  0  0
  -25.9030  -37.0970   24.1430 H   0  0  0  0  0  0  0  0  0  0  0  0
  -31.2470  -19.8290   19.8480 C   0  0  0  0  0  3  0  0  0  0  0  0
  -30.8320  -18.4210   20.0950 N   0  0  0  0  0  4  0  0  0  0  0  0
  -30.4330  -18.4130   21.0210 H   0  0  0  0  0  0  0  0  0  0  0  0
  -30.0990  -18.1740   19.4490 H   0  0  0  0  0  0  0  0  0  0  0  0
  -31.9000  -17.3850   20.0660 C   0  0  0  0  0  2  0  0  0  0  0  0
  -31.5260  -16.1510   20.9230 C   0  0  0  0  0  2  0  0  0  0  0  0
  -32.2800  -14.8500   20.5750 C   0  0  0  0  0  0  0  0  0  0  0  0
  -32.1310  -12.4130   20.1780 C   0  0  0  0  0  2  0  0  0  0  0  0
  -31.2640  -12.1380   18.9320 C   0  0  0  0  0  2  0  0  0  0  0  0
  -29.7660  -12.0890   19.2980 C   0  0  0  0  0  2  0  0  0  0  0  0
  -29.3230  -13.3040   20.1580 C   0  0  0  0  0  3  0  0  0  0  0  0
  -30.2990  -13.5110   21.3380 C   0  0  0  0  0  2  0  0  0  0  0  0
  -31.6560  -13.6620   20.7880 N   0  0  0  0  0  0  0  0  0  0  0  0
  -33.3950  -14.9240   20.0490 O   0  0  0  0  0  0  0  0  0  0  0  0
  -27.0260  -14.1410   20.9700 C   0  0  0  0  0  0  0  0  0  0  0  0
  -25.8620  -13.4790   21.2560 C   0  0  0  0  0  0  0  0  0  0  0  0
  -26.1350  -12.0930   21.0460 C   0  0  0  0  0  0  0  0  0  0  0  0
  -27.9420  -13.1620   20.6150 N   0  0  0  0  0  0  0  0  0  0  0  0
  -27.4080  -11.9190   20.7160 N   0  0  0  0  0  0  0  0  0  0  0  0
  -25.2440  -10.9260   21.0870 C   0  0  0  0  0  0  0  0  0  0  0  0
  -25.4160   -9.9000   22.0410 C   0  0  0  0  0  3  0  0  0  0  0  0
  -24.5380   -8.7960   22.0710 C   0  0  0  0  0  3  0  0  0  0  0  0
  -23.4730   -8.7120   21.1430 C   0  0  0  0  0  0  0  0  0  0  0  0
  -23.3200   -9.7250   20.1800 C   0  0  0  0  0  3  0  0  0  0  0  0
  -24.1990  -10.8200   20.1480 C   0  0  0  0  0  3  0  0  0  0  0  0
  -22.5850   -7.6640   21.0810 O   0  0  0  0  0  0  0  0  0  0  0  0
  -22.0740   -7.0860   22.2150 C   0  0  0  0  0  0  0  0  0  0  0  0
  -21.2950   -7.8170   23.1380 C   0  0  0  0  0  3  0  0  0  0  0  0
  -20.7310   -7.1670   24.2530 C   0  0  0  0  0  3  0  0  0  0  0  0
  -20.9370   -5.7870   24.4430 C   0  0  0  0  0  0  0  0  0  0  0  0
  -21.7070   -5.0560   23.5230 C   0  0  0  0  0  3  0  0  0  0  0  0
  -22.2720   -5.7040   22.4090 C   0  0  0  0  0  0  0  0  0  0  0  0
  -22.9960   -4.9910   21.5140 F   0  0  0  0  0  0  0  0  0  0  0  0
  -20.3880   -5.1610   25.5110 F   0  0  0  0  0  0  0  0  0  0  0  0
  -24.5400  -14.1010   21.6080 C   0  0  0  0  0  0  0  0  0  0  0  0
  -23.7370  -13.4190   22.4160 N   0  0  0  0  0  0  0  0  0  0  0  0
  -24.2330  -15.2220   21.2040 O   0  0  0  0  0  0  0  0  0  0  0  0
  -23.9980  -12.5070   22.7640 H   0  0  0  0  0  0  0  0  0  0  0  0
  -22.8490  -13.8120   22.6910 H   0  0  0  0  0  0  0  0  0  0  0  0
  -27.3750  -15.4890   20.9620 N   0  0  0  0  0  0  0  0  0  0  0  0
  -26.6970  -16.2200   21.1460 H   0  0  0  0  0  0  0  0  0  0  0  0
  -28.2640  -15.8460   20.6360 H   0  0  0  0  0  0  0  0  0  0  0  0
  -30.9310  -20.2190   18.3730 C   0  0  0  0  0  2  0  0  0  0  0  0
  -31.2100  -21.7600   16.3840 C   0  0  0  0  0  1  0  0  0  0  0  0
  -33.2650  -20.9310   17.5850 C   0  0  0  0  0  1  0  0  0  0  0  0
  -31.7880  -21.3380   17.7440 C   0  0  0  0  0  3  0  0  0  0  0  0
  2  1  1  0
  3  1  1  0
  4  6  1  0
  4  2  1  0
  5 54  1  0
  5  4  1  0
  5  3  1  0
  7  9  1  0
  7  6  1  0
  8  6  2  0
 10  7  1  0
 11 10  1  0
 12 11  1  0
 13 15  1  0
 13 12  1  0
 14 25  2  0
 15 20  1  0
 16 24  1  0
 16 26  1  0
 17 23  1  0
 17 19  1  0
 18 24  1  0
 19 18  1  0
 20 19  2  0
 21 22  1  0
 21 15  2  0
 22 17  2  0
 23 16  1  0
 24 14  1  0
 26 28  2  0
 27 26  1  0
 29 27  1  0
 30 39  2  0
 30 35  1  0
 31 27  1  0
 31 35  1  0
 32 31  1  0
 33 34  1  0
 33 32  1  0
 34 30  1  0
 35 36  2  0
 36 37  1  0
 38 37  2  0
 39 38  1  0
 40 14  1  0
 40 45  1  0
 40 41  1  0
 41 44  1  1
 41 42  1  0
 43 41  1  0
 45 48  1  0
 46 50  1  0
 46 45  1  0
 47 46  2  0
 50 49  1  0
 52 50  1  0
 52 53  1  0
 52 51  1  0
 54 96  1  0
 54 55  1  0
 55 56  1  0
 57 55  1  0
 58 55  1  0
 58 59  1  0
 60 66  1  0
 60 59  1  0
 61 66  1  0
 62 63  1  0
 62 61  1  0
 64 63  1  0
 64 71  1  0
 64 65  1  0
 66 65  1  0
 67 60  2  0
 68 69  2  0
 69 88  1  0
 70 73  1  0
 70 69  1  0
 71 72  1  0
 71 68  1  0
 72 70  2  0
 73 74  1  0
 74 75  2  0
 76 75  1  0
 77 76  2  0
 78 77  1  0
 78 73  2  0
 79 76  1  0
 79 80  1  0
 80 85  2  0
 80 81  1  0
 81 82  2  0
 82 83  1  0
 83 87  1  0
 84 83  2  0
 85 84  1  0
 86 85  1  0
 88 89  1  0
 89 92  1  0
 89 91  1  0
 90 88  2  0
 93 68  1  0
 93 94  1  0
 95 93  1  0
 97 99  1  0
 98 99  1  0
 99 96  1  0
M  ISO  4  12 101  13 101  59 100  60 100
M  END
>  <TORSDO>  (97) 
F 26

>  <SCORE>  (97) 
-6.369

>  <name>  (97) 
96

>  <ligand_id>  (97) 
96

>  <original_smiles>  (97) 
[H]c1c([H])c([H])c2c(c1[H])C([H])([H])C([H])([H])C([H])([H])C2([H])N([H])C(=O)C1([H])N(C(=O)C([H])(N([H])C(=O)C([H])(N([H])C([H])([H])[H])C([H])([H])[H])C(C([H])([H])[H])(C([H])([H])[H])C([H])([H])[H])C([H])([H])c2c([H])c(OC([H])([H])C([H])([H])C([H])([H])N([H])C(=O)C3([H])C([H])([H])C([H])([H])C([H])([H])C3([H])C([H])(C([H])([H])C([H])(C([H])([H])[H])C([H])([H])[H])[N+]([H])([H])C([H])([H])C([H])([H])C(=O)N3C([H])([H])C([H])([H])C([H])([H])C([H])(n4nc(-c5c([H])c([H])c(Oc6c([H])c([H])c(F)c([H])c6F)c([H])c5[H])c(C(=O)N([H])[H])c4N([H])[H])C3([H])[H])c([H])c([H])c2C1([H])[H]

>  <smiles>  (97) 
[H]c1c([H])c([H])c2c(c1[H])C([H])([H])C([H])([H])C([H])([H])C2([H])N([H])C(=O)C1([H])N(C(=O)C([H])(N([H])C(=O)C([H])(N([H])C([H])([H])[H])C([H])([H])[H])C(C([H])([H])[H])(C([H])([H])[H])C([H])([H])[H])C([H])([H])c2c([H])c(OC([H])([H])C([H])([H])C([H])([H])N([H])C(=O)C3([H])C([H])([H])C([H])([H])C([H])([H])C3([H])C([H])(C([H])([H])C([H])(C([H])([H])[H])C([H])([H])[H])[N+]([H])([H])C([H])([H])C([H])([H])C(=O)N3C([H])([H])C([H])([H])C([H])([H])C([H])(n4nc(-c5c([H])c([H])c(Oc6c([H])c([H])c(F)c([H])c6F)c([H])c5[H])c(C(=O)N([H])[H])c4N([H])[H])C3([H])[H])c([H])c([H])c2C1([H])[H]

$$$$
97:0:0
     RDKit          3D

 87 95  0  0  1  0  0  0  0  0999 V2000
  -29.2050  -21.4240   20.4350 C   0  0  0  0  0  2  0  0  0  0  0  0
  -29.2290  -19.8110   19.7240 C   0  0  0  0  0  2  0  0  0  0  0  0
  -30.9320  -18.6730   21.3420 C   0  0  0  0  0  0  0  0  0  0  0  0
  -30.4540  -17.7950   22.4760 C   0  0  0  0  0  2  0  0  0  0  0  0
  -29.5660  -16.7240   21.8350 C   0  0  0  0  0  2  0  0  0  0  0  0
  -30.2150  -18.3830   20.0400 C   0  0  0  0  0  3  0  0  0  0  0  0
  -29.8130  -16.6920   20.3060 C   0  0  0  0  0  3  0  0  0  0  0  0
  -31.8150  -19.5240   21.4660 O   0  0  0  0  0  0  0  0  0  0  0  0
  -30.6430  -15.2150   19.9380 C   0  0  0  0  0  0  0  0  0  0  0  0
  -30.5250  -12.8550   18.8980 C   0  0  0  0  0  2  0  0  0  0  0  0
  -29.5000  -12.8070   17.7330 C   0  0  0  0  0  2  0  0  0  0  0  0
  -28.0690  -12.5580   18.2520 C   0  0  0  0  0  2  0  0  0  0  0  0
  -27.7430  -13.4360   19.4840 C   0  0  0  0  0  3  0  0  0  0  0  0
  -28.8740  -13.3880   20.5230 C   0  0  0  0  0  2  0  0  0  0  0  0
  -30.0910  -13.9110   19.8750 N   0  0  0  0  0  0  0  0  0  0  0  0
  -31.8220  -15.2680   19.5600 O   0  0  0  0  0  0  0  0  0  0  0  0
  -25.4390  -14.0040   20.4370 C   0  0  0  0  0  0  0  0  0  0  0  0
  -24.3970  -13.2260   20.8560 C   0  0  0  0  0  0  0  0  0  0  0  0
  -24.8410  -11.8730   20.7420 C   0  0  0  0  0  0  0  0  0  0  0  0
  -26.4450  -13.1250   20.0750 N   0  0  0  0  0  0  0  0  0  0  0  0
  -26.1050  -11.8360   20.3290 N   0  0  0  0  0  0  0  0  0  0  0  0
  -24.1150  -10.6120   20.9410 C   0  0  0  0  0  0  0  0  0  0  0  0
  -24.5620   -9.6360   21.8580 C   0  0  0  0  0  3  0  0  0  0  0  0
  -23.8360   -8.4400   22.0430 C   0  0  0  0  0  3  0  0  0  0  0  0
  -22.6460   -8.2120   21.3110 C   0  0  0  0  0  0  0  0  0  0  0  0
  -22.2160   -9.1770   20.3850 C   0  0  0  0  0  3  0  0  0  0  0  0
  -22.9430  -10.3640   20.1980 C   0  0  0  0  0  3  0  0  0  0  0  0
  -21.8880   -7.0710   21.4080 O   0  0  0  0  0  0  0  0  0  0  0  0
  -21.8080   -6.3570   22.5780 C   0  0  0  0  0  0  0  0  0  0  0  0
  -21.3530   -6.9440   23.7790 C   0  0  0  0  0  3  0  0  0  0  0  0
  -21.2190   -6.1570   24.9400 C   0  0  0  0  0  3  0  0  0  0  0  0
  -21.5280   -4.7840   24.9000 C   0  0  0  0  0  0  0  0  0  0  0  0
  -21.9740   -4.1960   23.7040 C   0  0  0  0  0  3  0  0  0  0  0  0
  -22.1110   -4.9820   22.5440 C   0  0  0  0  0  0  0  0  0  0  0  0
  -22.5220   -4.4050   21.3900 F   0  0  0  0  0  0  0  0  0  0  0  0
  -21.3910   -4.0260   26.0130 F   0  0  0  0  0  0  0  0  0  0  0  0
  -23.0270  -13.7070   21.2450 C   0  0  0  0  0  0  0  0  0  0  0  0
  -22.3680  -13.0050   22.1590 N   0  0  0  0  0  0  0  0  0  0  0  0
  -22.5550  -14.7410   20.7720 O   0  0  0  0  0  0  0  0  0  0  0  0
  -22.7620  -12.1660   22.5600 H   0  0  0  0  0  0  0  0  0  0  0  0
  -21.4550  -13.3120   22.4640 H   0  0  0  0  0  0  0  0  0  0  0  0
  -25.6080  -15.3800   20.3010 N   0  0  0  0  0  0  0  0  0  0  0  0
  -24.8700  -16.0440   20.5070 H   0  0  0  0  0  0  0  0  0  0  0  0
  -26.4380  -15.8180   19.9220 H   0  0  0  0  0  0  0  0  0  0  0  0
  -28.8460  -23.0180   19.7920 C   0  0  0  0  0  2  0  0  0  0  0  0
  -28.1980  -24.4650   20.5460 C   0  0  0  0  0  2  0  0  0  0  0  0
  -28.3630  -26.0400   20.2810 O   0  0  0  0  0  0  0  0  0  0  0  0
  -24.5020  -31.7910   23.1430 C   0  0  0  0  0  0  0  0  0  0  0  0
  -27.2850  -27.0340   20.2560 C   0  0  0  0  0  0  0  0  0  0  0  0
  -23.3930  -30.3530   21.4810 C   0  0  0  0  0  3  0  0  0  0  0  0
  -24.9270  -28.7790   20.1280 C   0  0  0  0  0  0  0  0  0  0  0  0
  -25.9540  -30.6530   21.4040 C   0  0  0  0  0  2  0  0  0  0  0  0
  -26.0820  -29.2470   20.7700 C   0  0  0  0  0  0  0  0  0  0  0  0
  -27.2620  -28.3940   20.8060 C   0  0  0  0  0  3  0  0  0  0  0  0
  -26.0990  -26.6860   19.5780 C   0  0  0  0  0  3  0  0  0  0  0  0
  -24.9530  -27.5140   19.5180 C   0  0  0  0  0  3  0  0  0  0  0  0
  -23.6830  -29.6610   20.1210 C   0  0  0  0  0  2  0  0  0  0  0  0
  -24.6350  -30.9590   22.0630 N   0  0  0  0  0  0  0  0  0  0  0  0
  -23.3920  -32.0540   23.6320 O   0  0  0  0  0  0  0  0  0  0  0  0
  -22.7000  -29.3450   22.4340 C   0  0  0  0  0  0  0  0  0  0  0  0
  -21.3790  -29.1490   22.2730 N   0  0  0  0  0  0  0  0  0  0  0  0
  -23.3570  -28.7370   23.2820 O   0  0  0  0  0  0  0  0  0  0  0  0
  -20.9000  -29.6930   21.5680 H   0  0  0  0  0  0  0  0  0  0  0  0
  -18.0100  -27.8770   22.6980 C   0  0  0  0  0  0  0  0  0  0  0  0
  -20.5550  -28.2010   23.0300 C   0  0  0  0  0  3  0  0  0  0  0  0
  -20.7020  -26.7650   22.4730 C   0  0  0  0  0  2  0  0  0  0  0  0
  -19.6380  -26.4100   21.4310 C   0  0  0  0  0  2  0  0  0  0  0  0
  -18.2360  -26.5280   22.0360 C   0  0  0  0  0  2  0  0  0  0  0  0
  -19.0990  -28.6680   23.1490 C   0  0  0  0  0  0  0  0  0  0  0  0
  -18.8320  -29.9270   23.7310 C   0  0  0  0  0  3  0  0  0  0  0  0
  -17.5110  -30.3960   23.8600 C   0  0  0  0  0  3  0  0  0  0  0  0
  -16.4370  -29.6040   23.4210 C   0  0  0  0  0  3  0  0  0  0  0  0
  -16.6870  -28.3440   22.8470 C   0  0  0  0  0  3  0  0  0  0  0  0
  -25.7390  -32.4690   23.8090 C   0  0  0  0  0  3  0  0  0  0  0  0
  -26.2380  -31.7160   25.1050 C   0  0  1  0  0  0  0  0  0  0  0  0
  -25.1190  -31.4450   26.1380 C   0  0  0  0  0  1  0  0  0  0  0  0
  -26.8780  -30.3560   24.7420 C   0  0  0  0  0  1  0  0  0  0  0  0
  -27.3380  -32.5490   25.8050 C   0  0  0  0  0  1  0  0  0  0  0  0
  -25.3720  -33.8560   24.1370 N   0  0  0  0  0  0  0  0  0  0  0  0
  -25.6840  -34.9290   23.3970 C   0  0  0  0  0  0  0  0  0  0  0  0
  -26.3780  -34.8550   22.3800 O   0  0  0  0  0  0  0  0  0  0  0  0
  -24.7570  -33.9840   24.9280 H   0  0  0  0  0  0  0  0  0  0  0  0
  -23.9060  -36.6750   23.0330 C   0  0  0  0  0  1  0  0  0  0  0  0
  -25.1460  -36.2980   23.8590 C   0  0  0  0  0  3  0  0  0  0  0  0
  -27.2360  -37.2470   24.7320 C   0  0  0  0  0  1  0  0  0  0  0  0
  -26.1450  -37.3850   23.7710 N   0  0  0  0  0  0  0  0  0  0  0  0
  -25.7050  -38.2890   23.9180 H   0  0  0  0  0  0  0  0  0  0  0  0
  2  1  1  0
  3  8  2  0
  3  4  1  0
  5  4  1  0
  6  2  1  0
  6  7  1  0
  6  3  1  0
  7  9  1  0
  7  5  1  0
 10 15  1  0
 11 12  1  0
 11 10  1  0
 13 12  1  0
 13 20  1  0
 13 14  1  0
 15  9  1  0
 15 14  1  0
 16  9  2  0
 17 18  2  0
 18 37  1  0
 19 18  1  0
 19 22  1  0
 20 21  1  0
 20 17  1  0
 21 19  2  0
 22 23  1  0
 23 24  2  0
 25 28  1  0
 25 24  1  0
 26 25  2  0
 27 26  1  0
 27 22  2  0
 28 29  1  0
 29 30  1  0
 30 31  2  0
 32 31  1  0
 32 36  1  0
 33 32  2  0
 34 29  2  0
 34 33  1  0
 35 34  1  0
 37 38  1  0
 38 41  1  0
 38 40  1  0
 39 37  2  0
 42 17  1  0
 42 43  1  0
 44 42  1  0
 45  1  1  0
 45 46  1  0
 47 46  1  0
 48 59  2  0
 49 47  1  0
 49 54  1  0
 50 58  1  0
 50 60  1  0
 51 53  1  0
 52 58  1  0
 53 54  2  0
 53 52  1  0
 55 49  2  0
 56 55  1  0
 56 51  2  0
 57 51  1  0
 57 50  1  0
 58 48  1  0
 60 62  2  0
 61 60  1  0
 63 61  1  0
 64 73  2  0
 64 69  1  0
 65 61  1  0
 65 69  1  0
 66 65  1  0
 67 68  1  0
 67 66  1  0
 68 64  1  0
 69 70  2  0
 70 71  1  0
 72 71  2  0
 73 72  1  0
 74 48  1  0
 74 79  1  0
 74 75  1  0
 75 78  1  1
 75 76  1  0
 77 75  1  0
 79 82  1  0
 80 84  1  0
 80 79  1  0
 81 80  2  0
 84 83  1  0
 86 84  1  0
 86 87  1  0
 86 85  1  0
M  ISO  4   7 100   9 100  46 101  47 101
M  END
>  <TORSDO>  (98) 
F 20

>  <SCORE>  (98) 
-15.276

>  <name>  (98) 
97

>  <ligand_id>  (98) 
97

>  <original_smiles>  (98) 
[H]c1c([H])c([H])c2c(c1[H])C([H])([H])C([H])([H])C([H])([H])C2([H])N([H])C(=O)C1([H])N(C(=O)C([H])(N([H])C(=O)C([H])(N([H])C([H])([H])[H])C([H])([H])[H])C(C([H])([H])[H])(C([H])([H])[H])C([H])([H])[H])C([H])([H])c2c([H])c(OC([H])([H])C([H])([H])C([H])([H])C([H])([H])C3([H])C(=O)C([H])([H])C([H])([H])C3([H])C(=O)N3C([H])([H])C([H])([H])C([H])([H])C([H])(n4nc(-c5c([H])c([H])c(Oc6c([H])c([H])c(F)c([H])c6F)c([H])c5[H])c(C(=O)N([H])[H])c4N([H])[H])C3([H])[H])c([H])c([H])c2C1([H])[H]

>  <smiles>  (98) 
[H]c1c([H])c([H])c2c(c1[H])C([H])([H])C([H])([H])C([H])([H])C2([H])N([H])C(=O)C1([H])N(C(=O)C([H])(N([H])C(=O)C([H])(N([H])C([H])([H])[H])C([H])([H])[H])C(C([H])([H])[H])(C([H])([H])[H])C([H])([H])[H])C([H])([H])c2c([H])c(OC([H])([H])C([H])([H])C([H])([H])C([H])([H])C3([H])C(=O)C([H])([H])C([H])([H])C3([H])C(=O)N3C([H])([H])C([H])([H])C([H])([H])C([H])(n4nc(-c5c([H])c([H])c(Oc6c([H])c([H])c(F)c([H])c6F)c([H])c5[H])c(C(=O)N([H])[H])c4N([H])[H])C3([H])[H])c([H])c([H])c2C1([H])[H]

$$$$
98:0:0
     RDKit          3D

 90 99  0  0  1  0  0  0  0  0999 V2000
  -31.6380  -21.7500   20.1520 C   0  0  0  0  0  2  0  0  0  0  0  0
  -31.2450  -21.6620   21.6390 C   0  0  0  0  0  2  0  0  0  0  0  0
  -31.2240  -19.3360   22.5390 C   0  0  0  0  0  2  0  0  0  0  0  0
  -30.4370  -21.5850   19.2020 C   0  0  0  0  0  2  0  0  0  0  0  0
  -30.9670  -18.0970   21.7380 C   0  0  0  0  0  2  0  0  0  0  0  0
  -30.3200  -20.4420   21.9910 C   0  0  0  0  0  3  0  0  0  0  0  0
  -30.1540  -18.4390   20.4780 C   0  0  0  0  0  3  0  0  0  0  0  0
  -29.1430  -21.2800   19.9700 C   0  0  0  0  0  3  0  0  0  0  0  0
  -29.4590  -19.9220   20.8600 N   0  0  2  0  0  4  0  0  0  0  0  0
  -28.5750  -19.6730   21.2810 H   0  0  0  0  0  0  0  0  0  0  0  0
  -29.5550  -16.7880   20.2280 C   0  0  0  0  0  2  0  0  0  0  0  0
  -30.4130  -15.2720   20.1400 C   0  0  0  0  0  0  0  0  0  0  0  0
  -30.3730  -12.8560   19.2280 C   0  0  0  0  0  2  0  0  0  0  0  0
  -29.4040  -12.7230   18.0250 C   0  0  0  0  0  2  0  0  0  0  0  0
  -27.9570  -12.4730   18.4950 C   0  0  0  0  0  2  0  0  0  0  0  0
  -27.5590  -13.3960   19.6740 C   0  0  0  0  0  3  0  0  0  0  0  0
  -28.6480  -13.4660   20.7610 C   0  0  0  0  0  2  0  0  0  0  0  0
  -29.8760  -13.9580   20.1200 N   0  0  0  0  0  0  0  0  0  0  0  0
  -31.6260  -15.2890   19.8910 O   0  0  0  0  0  0  0  0  0  0  0  0
  -25.2100  -13.9310   20.5170 C   0  0  0  0  0  0  0  0  0  0  0  0
  -24.1630  -13.1400   20.9080 C   0  0  0  0  0  0  0  0  0  0  0  0
  -24.6380  -11.7960   20.8430 C   0  0  0  0  0  0  0  0  0  0  0  0
  -26.2470  -13.0660   20.2220 N   0  0  0  0  0  0  0  0  0  0  0  0
  -25.9210  -11.7750   20.4900 N   0  0  0  0  0  0  0  0  0  0  0  0
  -23.9240  -10.5260   21.0360 C   0  0  0  0  0  0  0  0  0  0  0  0
  -24.3790   -9.5520   21.9520 C   0  0  0  0  0  3  0  0  0  0  0  0
  -23.6630   -8.3480   22.1320 C   0  0  0  0  0  3  0  0  0  0  0  0
  -22.4770   -8.1110   21.3990 C   0  0  0  0  0  0  0  0  0  0  0  0
  -22.0420   -9.0740   20.4700 C   0  0  0  0  0  3  0  0  0  0  0  0
  -22.7580  -10.2670   20.2870 C   0  0  0  0  0  3  0  0  0  0  0  0
  -21.7290   -6.9610   21.4890 O   0  0  0  0  0  0  0  0  0  0  0  0
  -21.6960   -6.2140   22.6400 C   0  0  0  0  0  0  0  0  0  0  0  0
  -21.2630   -6.7570   23.8700 C   0  0  0  0  0  3  0  0  0  0  0  0
  -21.1770   -5.9350   25.0110 C   0  0  0  0  0  3  0  0  0  0  0  0
  -21.5150   -4.5710   24.9240 C   0  0  0  0  0  0  0  0  0  0  0  0
  -21.9430   -4.0270   23.7010 C   0  0  0  0  0  3  0  0  0  0  0  0
  -22.0300   -4.8470   22.5600 C   0  0  0  0  0  0  0  0  0  0  0  0
  -22.4200   -4.3130   21.3780 F   0  0  0  0  0  0  0  0  0  0  0  0
  -21.4260   -3.7790   26.0200 F   0  0  0  0  0  0  0  0  0  0  0  0
  -22.7740  -13.6040   21.2260 C   0  0  0  0  0  0  0  0  0  0  0  0
  -22.0730  -12.8880   22.0990 N   0  0  0  0  0  0  0  0  0  0  0  0
  -22.3190  -14.6360   20.7360 O   0  0  0  0  0  0  0  0  0  0  0  0
  -22.4600  -12.0570   22.5190 H   0  0  0  0  0  0  0  0  0  0  0  0
  -21.1370  -13.1760   22.3480 H   0  0  0  0  0  0  0  0  0  0  0  0
  -25.3610  -15.3060   20.3570 N   0  0  0  0  0  0  0  0  0  0  0  0
  -24.5980  -15.9580   20.4970 H   0  0  0  0  0  0  0  0  0  0  0  0
  -26.2010  -15.7470   20.0030 H   0  0  0  0  0  0  0  0  0  0  0  0
  -28.5000  -22.8390   20.5860 C   0  0  0  0  0  2  0  0  0  0  0  0
  -28.2770  -24.4500   19.8590 C   0  0  0  0  0  2  0  0  0  0  0  0
  -28.2310  -25.9920   20.3960 O   0  0  0  0  0  0  0  0  0  0  0  0
  -24.6240  -31.9030   23.2640 C   0  0  0  0  0  0  0  0  0  0  0  0
  -27.2090  -27.0550   20.2660 C   0  0  0  0  0  0  0  0  0  0  0  0
  -23.4450  -30.4960   21.6240 C   0  0  0  0  0  3  0  0  0  0  0  0
  -24.9050  -28.9050   20.2050 C   0  0  0  0  0  0  0  0  0  0  0  0
  -26.0100  -30.7260   21.4910 C   0  0  0  0  0  2  0  0  0  0  0  0
  -26.0840  -29.3200   20.8350 C   0  0  0  0  0  0  0  0  0  0  0  0
  -27.2280  -28.4120   20.8450 C   0  0  0  0  0  3  0  0  0  0  0  0
  -26.0030  -26.7860   19.5820 C   0  0  0  0  0  3  0  0  0  0  0  0
  -24.8880  -27.6610   19.5560 C   0  0  0  0  0  3  0  0  0  0  0  0
  -23.6810  -29.8170   20.2480 C   0  0  0  0  0  2  0  0  0  0  0  0
  -24.7140  -31.0670   22.1800 N   0  0  0  0  0  0  0  0  0  0  0  0
  -23.5290  -32.1890   23.7790 O   0  0  0  0  0  0  0  0  0  0  0  0
  -22.7490  -29.4980   22.5860 C   0  0  0  0  0  0  0  0  0  0  0  0
  -21.4240  -29.3120   22.4400 N   0  0  0  0  0  0  0  0  0  0  0  0
  -23.4100  -28.8890   23.4320 O   0  0  0  0  0  0  0  0  0  0  0  0
  -20.9420  -29.8580   21.7400 H   0  0  0  0  0  0  0  0  0  0  0  0
  -18.0550  -28.0410   22.8730 C   0  0  0  0  0  0  0  0  0  0  0  0
  -20.6000  -28.3710   23.2060 C   0  0  0  0  0  3  0  0  0  0  0  0
  -20.7490  -26.9290   22.6640 C   0  0  0  0  0  2  0  0  0  0  0  0
  -19.6850  -26.5620   21.6250 C   0  0  0  0  0  2  0  0  0  0  0  0
  -18.2820  -26.6840   22.2270 C   0  0  0  0  0  2  0  0  0  0  0  0
  -19.1420  -28.8390   23.3180 C   0  0  0  0  0  0  0  0  0  0  0  0
  -18.8720  -30.1050   23.8800 C   0  0  0  0  0  3  0  0  0  0  0  0
  -17.5500  -30.5730   24.0050 C   0  0  0  0  0  3  0  0  0  0  0  0
  -16.4780  -29.7720   23.5760 C   0  0  0  0  0  3  0  0  0  0  0  0
  -16.7310  -28.5080   23.0140 C   0  0  0  0  0  3  0  0  0  0  0  0
  -25.8890  -32.5500   23.9020 C   0  0  0  0  0  3  0  0  0  0  0  0
  -26.3720  -31.8050   25.2070 C   0  0  1  0  0  0  0  0  0  0  0  0
  -25.2550  -31.6000   26.2560 C   0  0  0  0  0  1  0  0  0  0  0  0
  -26.9570  -30.4140   24.8700 C   0  0  0  0  0  1  0  0  0  0  0  0
  -27.5120  -32.6080   25.8780 C   0  0  0  0  0  1  0  0  0  0  0  0
  -25.5730  -33.9560   24.2080 N   0  0  0  0  0  0  0  0  0  0  0  0
  -25.9170  -35.0040   23.4470 C   0  0  0  0  0  0  0  0  0  0  0  0
  -26.5940  -34.8880   22.4240 O   0  0  0  0  0  0  0  0  0  0  0  0
  -24.9710  -34.1200   25.0020 H   0  0  0  0  0  0  0  0  0  0  0  0
  -24.1980  -36.8050   23.0680 C   0  0  0  0  0  1  0  0  0  0  0  0
  -25.4330  -36.4000   23.8900 C   0  0  0  0  0  3  0  0  0  0  0  0
  -27.5620  -37.2920   24.7260 C   0  0  0  0  0  1  0  0  0  0  0  0
  -26.4680  -37.4480   23.7710 N   0  0  0  0  0  0  0  0  0  0  0  0
  -26.0640  -38.3710   23.9010 H   0  0  0  0  0  0  0  0  0  0  0  0
  1  2  1  0
  4  8  1  0
  4  1  1  0
  5  3  1  0
  6  2  1  0
  6  3  1  0
  7 11  1  0
  7  9  1  0
  7  5  1  0
  8 48  1  0
  8  9  1  0
  9 10  1  1
  9  6  1  0
 12 11  1  0
 13 18  1  0
 14 15  1  0
 14 13  1  0
 16 15  1  0
 16 23  1  0
 16 17  1  0
 18 12  1  0
 18 17  1  0
 19 12  2  0
 20 21  2  0
 21 40  1  0
 22 21  1  0
 22 25  1  0
 23 24  1  0
 23 20  1  0
 24 22  2  0
 25 26  1  0
 26 27  2  0
 28 31  1  0
 28 27  1  0
 29 28  2  0
 30 29  1  0
 30 25  2  0
 31 32  1  0
 32 33  1  0
 33 34  2  0
 35 34  1  0
 35 39  1  0
 36 35  2  0
 37 32  2  0
 37 36  1  0
 38 37  1  0
 40 41  1  0
 41 44  1  0
 41 43  1  0
 42 40  2  0
 45 46  1  0
 45 20  1  0
 47 45  1  0
 49 50  1  0
 49 48  1  0
 51 62  2  0
 52 50  1  0
 52 57  1  0
 53 61  1  0
 53 63  1  0
 54 60  1  0
 54 56  1  0
 55 61  1  0
 56 57  2  0
 56 55  1  0
 58 52  2  0
 59 58  1  0
 59 54  2  0
 60 53  1  0
 61 51  1  0
 63 65  2  0
 64 63  1  0
 66 64  1  0
 67 76  2  0
 67 72  1  0
 68 64  1  0
 68 72  1  0
 69 68  1  0
 70 71  1  0
 70 69  1  0
 71 67  1  0
 72 73  2  0
 73 74  1  0
 75 74  2  0
 76 75  1  0
 77 51  1  0
 77 82  1  0
 77 78  1  0
 78 81  1  1
 78 79  1  0
 80 78  1  0
 82 85  1  0
 83 87  1  0
 83 82  1  0
 84 83  2  0
 87 86  1  0
 89 87  1  0
 89 90  1  0
 89 88  1  0
M  ISO  4  11 100  12 100  49 101  50 101
M  END
>  <TORSDO>  (99) 
F 19

>  <SCORE>  (99) 
-16.505

>  <name>  (99) 
98

>  <ligand_id>  (99) 
98

>  <original_smiles>  (99) 
[H]c1c([H])c([H])c2c(c1[H])C([H])([H])C([H])([H])C([H])([H])C2([H])N([H])C(=O)C1([H])N(C(=O)C([H])(N([H])C(=O)C([H])(N([H])C([H])([H])[H])C([H])([H])[H])C(C([H])([H])[H])(C([H])([H])[H])C([H])([H])[H])C([H])([H])c2c([H])c(OC([H])([H])C([H])([H])C3([H])C([H])([H])C([H])([H])C([H])([H])C4([H])C([H])([H])C([H])([H])C([H])(C([H])([H])C(=O)N5C([H])([H])C([H])([H])C([H])([H])C([H])(n6nc(-c7c([H])c([H])c(Oc8c([H])c([H])c(F)c([H])c8F)c([H])c7[H])c(C(=O)N([H])[H])c6N([H])[H])C5([H])[H])[N+]34[H])c([H])c([H])c2C1([H])[H]

>  <smiles>  (99) 
[H]c1c([H])c([H])c2c(c1[H])C([H])([H])C([H])([H])C([H])([H])C2([H])N([H])C(=O)C1([H])N(C(=O)C([H])(N([H])C(=O)C([H])(N([H])C([H])([H])[H])C([H])([H])[H])C(C([H])([H])[H])(C([H])([H])[H])C([H])([H])[H])C([H])([H])c2c([H])c(OC([H])([H])C([H])([H])C3([H])C([H])([H])C([H])([H])C([H])([H])C4([H])C([H])([H])C([H])([H])C([H])(C([H])([H])C(=O)N5C([H])([H])C([H])([H])C([H])([H])C([H])(n6nc(-c7c([H])c([H])c(Oc8c([H])c([H])c(F)c([H])c8F)c([H])c7[H])c(C(=O)N([H])[H])c6N([H])[H])C5([H])[H])[N+]34[H])c([H])c([H])c2C1([H])[H]

$$$$
